ligand
  PyMOL2.2          3D                             0

 10  9  0  0  0  0  0  0  0  0999 V2000
   32.3220   15.8420   19.8530 N   0  0  0  0  0  0  0  0  0  0  0  0
   31.7860   16.6330   20.9920 C   0  0  0  0  0  0  0  0  0  0  0  0
   32.9070   17.1100   21.9160 C   0  0  0  0  0  0  0  0  0  0  0  0
   34.0710   17.1520   21.5300 O   0  0  0  0  0  0  0  0  0  0  0  0
   30.7200   15.8280   21.7440 C   0  0  0  0  0  0  0  0  0  0  0  0
   29.3470   15.8950   21.0830 C   0  0  0  0  0  0  0  0  0  0  0  0
   28.4620   14.7080   21.4370 C   0  0  0  0  0  0  0  0  0  0  0  0
   27.2090   14.6780   20.5610 C   0  0  0  0  0  0  0  0  0  0  0  0
   27.4900   14.7180   19.0740 N   0  0  0  0  0  0  0  0  0  0  0  0
   32.7080   17.5080   23.0580 O   0  0  0  0  0  0  0  0  0  0  0  0
  1  2  1  0  0  0  0
  2  3  1  0  0  0  0
  2  5  1  0  0  0  0
  3  4  4  0  0  0  0
  3 10  4  0  0  0  0
  5  6  1  0  0  0  0
  6  7  1  0  0  0  0
  7  8  1  0  0  0  0
  8  9  1  0  0  0  0
M  END
$$$$
