ligand
 OpenBabel11021811473D
libRbt.so/2013.1/901 2013/11/27
 10  9  0  0  0  0  0  0  0  0999 V2000
   31.9868   16.4177   20.4698 N   0  0  0  0  0  0  0  0  0  0  0  0
   31.4083   17.1775   21.6092 C   0  0  2  0  0  0  0  0  0  0  0  0
   32.4987   17.6734   22.5596 C   0  0  0  0  0  0  0  0  0  0  0  0
   33.3928   16.9254   22.9428 O   0  0  0  0  0  0  0  0  0  0  0  0
   30.3525   16.3325   22.3310 C   0  0  0  0  0  0  0  0  0  0  0  0
   29.1256   16.0500   21.4700 C   0  0  0  0  0  0  0  0  0  0  0  0
   28.1347   15.1106   22.1432 C   0  0  0  0  0  0  0  0  0  0  0  0
   26.9372   14.8337   21.2335 C   0  0  0  0  0  0  0  0  0  0  0  0
   27.3066   14.2991   19.8662 N   0  0  0  0  0  0  0  0  0  0  0  0
   32.5655   18.8319   22.9538 O   0  0  0  0  0  0  0  0  0  0  0  0
  2  1  1  6  0  0  0
  2  3  1  0  0  0  0
  2  5  1  0  0  0  0
  3  4  1  0  0  0  0
  3 10  1  0  0  0  0
  5  6  1  0  0  0  0
  6  7  1  0  0  0  0
  7  8  1  0  0  0  0
  8  9  1  0  0  0  0
M  END
>  <CHROM.1>
-47.00591949,-66.10095171,174.94904759,-178.83185417,55.08784100,30.40620232
16.38329150,21.78124896,-0.46712121,-0.33235467,-2.06094460

>  <Name>
ligand

>  <RI>
0

>  <Rbt.Current_Directory>
/home/itssahil/PROJECTS/Mol_Feturizer/New_Systems/rnas/3DIM

>  <Rbt.Executable>
rbdock ($Id: //depot/dev/client3/rdock/2013.1/src/exe/rbdock.cxx#4 $)

>  <Rbt.Library>
libRbt.so (2013.1, Build901 2013/11/27)

>  <Rbt.Parameter_File>
/export/apps/rDock/src/rDock_2013.1_src/data/scripts/dock_solv.prm

>  <Rbt.Receptor>
prm/pocket_docking_6.prm

>  <SCORE>
-10.1217

>  <SCORE.INTER>
-7.9135

>  <SCORE.INTER.CONST>
1

>  <SCORE.INTER.POLAR>
0

>  <SCORE.INTER.ROT>
5

>  <SCORE.INTER.SOLV>
15.1722

>  <SCORE.INTER.VDW>
-17.2664

>  <SCORE.INTER.norm>
-0.79135

>  <SCORE.INTRA>
-2.2082

>  <SCORE.INTRA.DIHEDRAL>
-3.96475

>  <SCORE.INTRA.DIHEDRAL.0>
5.8785

>  <SCORE.INTRA.POLAR>
0

>  <SCORE.INTRA.POLAR.0>
0

>  <SCORE.INTRA.REPUL>
0

>  <SCORE.INTRA.REPUL.0>
0

>  <SCORE.INTRA.SOLV>
0.00566872

>  <SCORE.INTRA.SOLV.lig_0>
-31.9559

>  <SCORE.INTRA.VDW>
-0.22866

>  <SCORE.INTRA.VDW.0>
-0.507645

>  <SCORE.INTRA.norm>
-0.22082

>  <SCORE.RESTR>
0

>  <SCORE.RESTR.CAVITY>
0

>  <SCORE.RESTR.norm>
0

>  <SCORE.SYSTEM>
0

>  <SCORE.SYSTEM.CONST>
0

>  <SCORE.SYSTEM.DIHEDRAL>
0

>  <SCORE.SYSTEM.SOLV>
0

>  <SCORE.SYSTEM.norm>
0

>  <SCORE.heavy>
10

>  <SCORE.norm>
-1.01217

>  <RMSD>
0.997

$$$$
ligand
 OpenBabel11021811473D
libRbt.so/2013.1/901 2013/11/27
 10  9  0  0  0  0  0  0  0  0999 V2000
   32.0254   16.3334   20.5874 N   0  0  0  0  0  0  0  0  0  0  0  0
   31.2880   17.1866   21.5562 C   0  0  2  0  0  0  0  0  0  0  0  0
   32.2448   17.8975   22.5139 C   0  0  0  0  0  0  0  0  0  0  0  0
   33.3441   17.4217   22.7799 O   0  0  0  0  0  0  0  0  0  0  0  0
   30.2345   16.3583   22.3004 C   0  0  0  0  0  0  0  0  0  0  0  0
   29.0501   15.9722   21.4202 C   0  0  0  0  0  0  0  0  0  0  0  0
   28.0525   15.0705   22.1338 C   0  0  0  0  0  0  0  0  0  0  0  0
   26.8298   14.8027   21.2554 C   0  0  0  0  0  0  0  0  0  0  0  0
   27.1559   14.2074   19.9023 N   0  0  0  0  0  0  0  0  0  0  0  0
   31.9923   18.9804   23.0293 O   0  0  0  0  0  0  0  0  0  0  0  0
  2  1  1  6  0  0  0
  2  3  1  0  0  0  0
  2  5  1  0  0  0  0
  3  4  1  0  0  0  0
  3 10  1  0  0  0  0
  5  6  1  0  0  0  0
  6  7  1  0  0  0  0
  7  8  1  0  0  0  0
  8  9  1  0  0  0  0
M  END
>  <CHROM.1>
-26.49432465,-71.66142772,176.06612205,175.38144840,56.15327341,30.25381778
16.44657668,21.77107461,-0.53809865,-0.28795301,-2.24095469

>  <Name>
ligand

>  <RI>
0

>  <Rbt.Current_Directory>
/home/itssahil/PROJECTS/Mol_Feturizer/New_Systems/rnas/3DIM

>  <Rbt.Executable>
rbdock ($Id: //depot/dev/client3/rdock/2013.1/src/exe/rbdock.cxx#4 $)

>  <Rbt.Library>
libRbt.so (2013.1, Build901 2013/11/27)

>  <Rbt.Parameter_File>
/export/apps/rDock/src/rDock_2013.1_src/data/scripts/dock_solv.prm

>  <Rbt.Receptor>
prm/pocket_docking_7.prm

>  <SCORE>
-10.1109

>  <SCORE.INTER>
-8.04077

>  <SCORE.INTER.CONST>
1

>  <SCORE.INTER.POLAR>
0

>  <SCORE.INTER.ROT>
5

>  <SCORE.INTER.SOLV>
15.6201

>  <SCORE.INTER.VDW>
-17.5005

>  <SCORE.INTER.norm>
-0.804077

>  <SCORE.INTRA>
-2.07011

>  <SCORE.INTRA.DIHEDRAL>
-3.53586

>  <SCORE.INTRA.DIHEDRAL.0>
5.8785

>  <SCORE.INTRA.POLAR>
0

>  <SCORE.INTRA.POLAR.0>
0

>  <SCORE.INTRA.REPUL>
0

>  <SCORE.INTRA.REPUL.0>
0

>  <SCORE.INTRA.SOLV>
-0.108455

>  <SCORE.INTRA.SOLV.lig_0>
-31.9559

>  <SCORE.INTRA.VDW>
-0.247955

>  <SCORE.INTRA.VDW.0>
-0.507645

>  <SCORE.INTRA.norm>
-0.207011

>  <SCORE.RESTR>
0

>  <SCORE.RESTR.CAVITY>
0

>  <SCORE.RESTR.norm>
0

>  <SCORE.SYSTEM>
0

>  <SCORE.SYSTEM.CONST>
0

>  <SCORE.SYSTEM.DIHEDRAL>
0

>  <SCORE.SYSTEM.SOLV>
0

>  <SCORE.SYSTEM.norm>
0

>  <SCORE.heavy>
10

>  <SCORE.norm>
-1.01109

>  <RMSD>
1.073

$$$$
ligand
 OpenBabel11021811473D
libRbt.so/2013.1/901 2013/11/27
 10  9  0  0  0  0  0  0  0  0999 V2000
   33.0250   15.6962   20.3056 N   0  0  0  0  0  0  0  0  0  0  0  0
   31.9520   16.4059   21.0508 C   0  0  2  0  0  0  0  0  0  0  0  0
   32.5178   17.1755   22.2448 C   0  0  0  0  0  0  0  0  0  0  0  0
   33.2739   16.6349   23.0458 O   0  0  0  0  0  0  0  0  0  0  0  0
   30.8520   15.4222   21.4656 C   0  0  0  0  0  0  0  0  0  0  0  0
   29.6791   16.1011   22.1655 C   0  0  0  0  0  0  0  0  0  0  0  0
   28.5475   15.1368   22.4928 C   0  0  0  0  0  0  0  0  0  0  0  0
   27.8964   14.6025   21.2165 C   0  0  0  0  0  0  0  0  0  0  0  0
   27.3191   15.6755   20.3180 N   0  0  0  0  0  0  0  0  0  0  0  0
   32.2869   18.3624   22.4451 O   0  0  0  0  0  0  0  0  0  0  0  0
  2  1  1  1  0  0  0
  2  3  1  0  0  0  0
  2  5  1  0  0  0  0
  3  4  1  0  0  0  0
  3 10  1  0  0  0  0
  5  6  1  0  0  0  0
  6  7  1  0  0  0  0
  7  8  1  0  0  0  0
  8  9  1  0  0  0  0
M  END
>  <CHROM.1>
-49.69155906,-176.66957580,176.15030519,-65.97764663,-58.87805722,30.75816305
16.14283599,21.70168540,-0.34400814,-0.19280261,-2.21202988

>  <Name>
ligand

>  <RI>
0

>  <Rbt.Current_Directory>
/home/itssahil/PROJECTS/Mol_Feturizer/New_Systems/rnas/3DIM

>  <Rbt.Executable>
rbdock ($Id: //depot/dev/client3/rdock/2013.1/src/exe/rbdock.cxx#4 $)

>  <Rbt.Library>
libRbt.so (2013.1, Build901 2013/11/27)

>  <Rbt.Parameter_File>
/export/apps/rDock/src/rDock_2013.1_src/data/scripts/dock_solv.prm

>  <Rbt.Receptor>
prm/pocket_docking_7.prm

>  <SCORE>
-8.72574

>  <SCORE.INTER>
-6.86288

>  <SCORE.INTER.CONST>
1

>  <SCORE.INTER.POLAR>
0

>  <SCORE.INTER.ROT>
5

>  <SCORE.INTER.SOLV>
17.4847

>  <SCORE.INTER.VDW>
-17.3368

>  <SCORE.INTER.norm>
-0.686288

>  <SCORE.INTRA>
-1.86286

>  <SCORE.INTRA.DIHEDRAL>
-4.08599

>  <SCORE.INTRA.DIHEDRAL.0>
5.8785

>  <SCORE.INTRA.POLAR>
0

>  <SCORE.INTRA.POLAR.0>
0

>  <SCORE.INTRA.REPUL>
0

>  <SCORE.INTRA.REPUL.0>
0

>  <SCORE.INTRA.SOLV>
-0.339923

>  <SCORE.INTRA.SOLV.lig_0>
-31.9559

>  <SCORE.INTRA.VDW>
0.350098

>  <SCORE.INTRA.VDW.0>
-0.507645

>  <SCORE.INTRA.norm>
-0.186286

>  <SCORE.RESTR>
0

>  <SCORE.RESTR.CAVITY>
0

>  <SCORE.RESTR.norm>
0

>  <SCORE.SYSTEM>
0

>  <SCORE.SYSTEM.CONST>
0

>  <SCORE.SYSTEM.DIHEDRAL>
0

>  <SCORE.SYSTEM.SOLV>
0

>  <SCORE.SYSTEM.norm>
0

>  <SCORE.heavy>
10

>  <SCORE.norm>
-0.872574

>  <RMSD>
1.088

$$$$
ligand
 OpenBabel11021811473D
libRbt.so/2013.1/901 2013/11/27
 10  9  0  0  0  0  0  0  0  0999 V2000
   31.0706   16.9305   20.5096 N   0  0  0  0  0  0  0  0  0  0  0  0
   31.1756   17.1817   21.9712 C   0  0  2  0  0  0  0  0  0  0  0  0
   32.5437   17.7556   22.3414 C   0  0  0  0  0  0  0  0  0  0  0  0
   32.6413   18.8104   22.9607 O   0  0  0  0  0  0  0  0  0  0  0  0
   30.8530   15.9045   22.7551 C   0  0  0  0  0  0  0  0  0  0  0  0
   29.3764   15.5267   22.6960 C   0  0  0  0  0  0  0  0  0  0  0  0
   28.9256   15.1211   21.2996 C   0  0  0  0  0  0  0  0  0  0  0  0
   27.4272   14.8166   21.2743 C   0  0  0  0  0  0  0  0  0  0  0  0
   26.8891   14.4612   19.9047 N   0  0  0  0  0  0  0  0  0  0  0  0
   33.5988   17.1882   22.0827 O   0  0  0  0  0  0  0  0  0  0  0  0
  2  1  1  6  0  0  0
  2  3  1  0  0  0  0
  2  5  1  0  0  0  0
  3  4  1  0  0  0  0
  3 10  1  0  0  0  0
  5  6  1  0  0  0  0
  6  7  1  0  0  0  0
  7  8  1  0  0  0  0
  8  9  1  0  0  0  0
M  END
>  <CHROM.1>
125.12179540,-70.80740021,66.64775618,-177.26332860,177.55316413,30.49009243
16.38980447,21.79132240,-0.20994659,-0.55651858,-1.49025375

>  <Name>
ligand

>  <RI>
0

>  <Rbt.Current_Directory>
/home/itssahil/PROJECTS/Mol_Feturizer/New_Systems/rnas/3DIM

>  <Rbt.Executable>
rbdock ($Id: //depot/dev/client3/rdock/2013.1/src/exe/rbdock.cxx#4 $)

>  <Rbt.Library>
libRbt.so (2013.1, Build901 2013/11/27)

>  <Rbt.Parameter_File>
/export/apps/rDock/src/rDock_2013.1_src/data/scripts/dock_solv.prm

>  <Rbt.Receptor>
prm/pocket_docking_4.prm

>  <SCORE>
-8.58814

>  <SCORE.INTER>
-7.0084

>  <SCORE.INTER.CONST>
1

>  <SCORE.INTER.POLAR>
0

>  <SCORE.INTER.ROT>
5

>  <SCORE.INTER.SOLV>
15.4491

>  <SCORE.INTER.VDW>
-16.7553

>  <SCORE.INTER.norm>
-0.70084

>  <SCORE.INTRA>
-1.57974

>  <SCORE.INTRA.DIHEDRAL>
-3.67751

>  <SCORE.INTRA.DIHEDRAL.0>
5.8785

>  <SCORE.INTRA.POLAR>
0

>  <SCORE.INTRA.POLAR.0>
0

>  <SCORE.INTRA.REPUL>
0

>  <SCORE.INTRA.REPUL.0>
0

>  <SCORE.INTRA.SOLV>
0.360895

>  <SCORE.INTRA.SOLV.lig_0>
-31.9559

>  <SCORE.INTRA.VDW>
0.0785656

>  <SCORE.INTRA.VDW.0>
-0.507645

>  <SCORE.INTRA.norm>
-0.157974

>  <SCORE.RESTR>
0

>  <SCORE.RESTR.CAVITY>
0

>  <SCORE.RESTR.norm>
0

>  <SCORE.SYSTEM>
0

>  <SCORE.SYSTEM.CONST>
0

>  <SCORE.SYSTEM.DIHEDRAL>
0

>  <SCORE.SYSTEM.SOLV>
0

>  <SCORE.SYSTEM.norm>
0

>  <SCORE.heavy>
10

>  <SCORE.norm>
-0.858814

>  <RMSD>
1.169

$$$$
ligand
 OpenBabel11021811473D
libRbt.so/2013.1/901 2013/11/27
 10  9  0  0  0  0  0  0  0  0999 V2000
   33.2931   16.1781   20.6542 N   0  0  0  0  0  0  0  0  0  0  0  0
   31.9359   16.6177   21.0725 C   0  0  2  0  0  0  0  0  0  0  0  0
   32.0073   17.6719   22.1778 C   0  0  0  0  0  0  0  0  0  0  0  0
   31.0463   18.3923   22.4288 O   0  0  0  0  0  0  0  0  0  0  0  0
   31.0871   15.4083   21.4809 C   0  0  0  0  0  0  0  0  0  0  0  0
   29.6041   15.7394   21.6135 C   0  0  0  0  0  0  0  0  0  0  0  0
   28.7592   14.5289   21.9856 C   0  0  0  0  0  0  0  0  0  0  0  0
   27.2676   14.8570   21.9086 C   0  0  0  0  0  0  0  0  0  0  0  0
   26.7852   15.2325   20.5237 N   0  0  0  0  0  0  0  0  0  0  0  0
   32.9929   17.8285   22.8894 O   0  0  0  0  0  0  0  0  0  0  0  0
  2  1  1  1  0  0  0
  2  3  1  0  0  0  0
  2  5  1  0  0  0  0
  3  4  1  0  0  0  0
  3 10  1  0  0  0  0
  5  6  1  0  0  0  0
  6  7  1  0  0  0  0
  7  8  1  0  0  0  0
  8  9  1  0  0  0  0
M  END
>  <CHROM.1>
161.87808356,-166.83659436,178.58282369,-171.74543859,62.66395841,30.48883858
16.27472111,21.69845760,-0.44350466,-0.14996009,-2.59393157

>  <Name>
ligand

>  <RI>
0

>  <Rbt.Current_Directory>
/home/itssahil/PROJECTS/Mol_Feturizer/New_Systems/rnas/3DIM

>  <Rbt.Executable>
rbdock ($Id: //depot/dev/client3/rdock/2013.1/src/exe/rbdock.cxx#4 $)

>  <Rbt.Library>
libRbt.so (2013.1, Build901 2013/11/27)

>  <Rbt.Parameter_File>
/export/apps/rDock/src/rDock_2013.1_src/data/scripts/dock_solv.prm

>  <Rbt.Receptor>
prm/pocket_docking_7.prm

>  <SCORE>
-9.24436

>  <SCORE.INTER>
-6.77013

>  <SCORE.INTER.CONST>
1

>  <SCORE.INTER.POLAR>
0

>  <SCORE.INTER.ROT>
5

>  <SCORE.INTER.SOLV>
18.6081

>  <SCORE.INTER.VDW>
-17.6494

>  <SCORE.INTER.norm>
-0.677013

>  <SCORE.INTRA>
-2.47423

>  <SCORE.INTRA.DIHEDRAL>
-3.50001

>  <SCORE.INTRA.DIHEDRAL.0>
5.8785

>  <SCORE.INTRA.POLAR>
0

>  <SCORE.INTRA.POLAR.0>
0

>  <SCORE.INTRA.REPUL>
0

>  <SCORE.INTRA.REPUL.0>
0

>  <SCORE.INTRA.SOLV>
-0.925552

>  <SCORE.INTRA.SOLV.lig_0>
-31.9559

>  <SCORE.INTRA.VDW>
-0.261445

>  <SCORE.INTRA.VDW.0>
-0.507645

>  <SCORE.INTRA.norm>
-0.247423

>  <SCORE.RESTR>
0

>  <SCORE.RESTR.CAVITY>
0

>  <SCORE.RESTR.norm>
0

>  <SCORE.SYSTEM>
0

>  <SCORE.SYSTEM.CONST>
0

>  <SCORE.SYSTEM.DIHEDRAL>
0

>  <SCORE.SYSTEM.SOLV>
0

>  <SCORE.SYSTEM.norm>
0

>  <SCORE.heavy>
10

>  <SCORE.norm>
-0.924436

>  <RMSD>
1.273

$$$$
ligand
 OpenBabel11021811473D
libRbt.so/2013.1/901 2013/11/27
 10  9  0  0  0  0  0  0  0  0999 V2000
   31.9294   16.0552   20.2244 N   0  0  0  0  0  0  0  0  0  0  0  0
   31.1897   17.0630   21.0291 C   0  0  2  0  0  0  0  0  0  0  0  0
   31.9460   17.4180   22.3097 C   0  0  0  0  0  0  0  0  0  0  0  0
   31.7855   18.5031   22.8597 O   0  0  0  0  0  0  0  0  0  0  0  0
   29.7654   16.5741   21.3154 C   0  0  0  0  0  0  0  0  0  0  0  0
   28.8533   16.6500   20.0953 C   0  0  0  0  0  0  0  0  0  0  0  0
   27.4962   16.0014   20.3304 C   0  0  0  0  0  0  0  0  0  0  0  0
   27.6129   14.4767   20.3465 C   0  0  0  0  0  0  0  0  0  0  0  0
   28.1366   13.8805   19.0573 N   0  0  0  0  0  0  0  0  0  0  0  0
   32.7095   16.6416   22.8721 O   0  0  0  0  0  0  0  0  0  0  0  0
  2  1  1  1  0  0  0
  2  3  1  0  0  0  0
  2  5  1  0  0  0  0
  3  4  1  0  0  0  0
  3 10  1  0  0  0  0
  5  6  1  0  0  0  0
  6  7  1  0  0  0  0
  7  8  1  0  0  0  0
  8  9  1  0  0  0  0
M  END
>  <CHROM.1>
154.34607671,-74.05213436,172.64976842,-73.60112244,-60.51763353,30.16809167
16.34072706,21.07734657,-0.69344747,0.14000061,-2.51684588

>  <Name>
ligand

>  <RI>
0

>  <Rbt.Current_Directory>
/home/itssahil/PROJECTS/Mol_Feturizer/New_Systems/rnas/3DIM

>  <Rbt.Executable>
rbdock ($Id: //depot/dev/client3/rdock/2013.1/src/exe/rbdock.cxx#4 $)

>  <Rbt.Library>
libRbt.so (2013.1, Build901 2013/11/27)

>  <Rbt.Parameter_File>
/export/apps/rDock/src/rDock_2013.1_src/data/scripts/dock_solv.prm

>  <Rbt.Receptor>
prm/pocket_docking_8.prm

>  <SCORE>
-7.78496

>  <SCORE.INTER>
-6.59219

>  <SCORE.INTER.CONST>
1

>  <SCORE.INTER.POLAR>
0

>  <SCORE.INTER.ROT>
5

>  <SCORE.INTER.SOLV>
14.9363

>  <SCORE.INTER.VDW>
-16.3069

>  <SCORE.INTER.norm>
-0.659219

>  <SCORE.INTRA>
-1.19278

>  <SCORE.INTRA.DIHEDRAL>
-2.71272

>  <SCORE.INTRA.DIHEDRAL.0>
5.8785

>  <SCORE.INTRA.POLAR>
0

>  <SCORE.INTRA.POLAR.0>
0

>  <SCORE.INTRA.REPUL>
0

>  <SCORE.INTRA.REPUL.0>
0

>  <SCORE.INTRA.SOLV>
0.363107

>  <SCORE.INTRA.SOLV.lig_0>
-31.9559

>  <SCORE.INTRA.VDW>
-0.0179688

>  <SCORE.INTRA.VDW.0>
-0.507645

>  <SCORE.INTRA.norm>
-0.119278

>  <SCORE.RESTR>
0

>  <SCORE.RESTR.CAVITY>
0

>  <SCORE.RESTR.norm>
0

>  <SCORE.SYSTEM>
0

>  <SCORE.SYSTEM.CONST>
0

>  <SCORE.SYSTEM.DIHEDRAL>
0

>  <SCORE.SYSTEM.SOLV>
0

>  <SCORE.SYSTEM.norm>
0

>  <SCORE.heavy>
10

>  <SCORE.norm>
-0.778496

>  <RMSD>
1.284

$$$$
ligand
 OpenBabel11021811473D
libRbt.so/2013.1/901 2013/11/27
 10  9  0  0  0  0  0  0  0  0999 V2000
   31.1923   16.5556   20.4630 N   0  0  0  0  0  0  0  0  0  0  0  0
   30.7640   16.8820   21.8487 C   0  0  2  0  0  0  0  0  0  0  0  0
   31.7922   17.7648   22.5568 C   0  0  0  0  0  0  0  0  0  0  0  0
   32.9318   17.3630   22.7703 O   0  0  0  0  0  0  0  0  0  0  0  0
   30.4686   15.5972   22.6310 C   0  0  0  0  0  0  0  0  0  0  0  0
   29.3723   14.7503   21.9926 C   0  0  0  0  0  0  0  0  0  0  0  0
   28.0037   15.4147   22.0492 C   0  0  0  0  0  0  0  0  0  0  0  0
   26.9894   14.6542   21.1942 C   0  0  0  0  0  0  0  0  0  0  0  0
   27.2639   14.7124   19.7066 N   0  0  0  0  0  0  0  0  0  0  0  0
   31.5564   18.9149   22.9088 O   0  0  0  0  0  0  0  0  0  0  0  0
  2  1  1  6  0  0  0
  2  3  1  0  0  0  0
  2  5  1  0  0  0  0
  3  4  1  0  0  0  0
  3 10  1  0  0  0  0
  5  6  1  0  0  0  0
  6  7  1  0  0  0  0
  7  8  1  0  0  0  0
  8  9  1  0  0  0  0
M  END
>  <CHROM.1>
-62.73202236,-59.33381104,-67.46930896,170.18633044,-67.21391539,30.06514722
16.28768672,21.83043861,-0.34663553,-0.57168566,-1.66156043

>  <Name>
ligand

>  <RI>
0

>  <Rbt.Current_Directory>
/home/itssahil/PROJECTS/Mol_Feturizer/New_Systems/rnas/3DIM

>  <Rbt.Executable>
rbdock ($Id: //depot/dev/client3/rdock/2013.1/src/exe/rbdock.cxx#4 $)

>  <Rbt.Library>
libRbt.so (2013.1, Build901 2013/11/27)

>  <Rbt.Parameter_File>
/export/apps/rDock/src/rDock_2013.1_src/data/scripts/dock_solv.prm

>  <Rbt.Receptor>
prm/blind_docking_60.prm

>  <SCORE>
-10.1982

>  <SCORE.INTER>
-8.55208

>  <SCORE.INTER.CONST>
1

>  <SCORE.INTER.POLAR>
0

>  <SCORE.INTER.ROT>
5

>  <SCORE.INTER.SOLV>
14.0784

>  <SCORE.INTER.VDW>
-17.3275

>  <SCORE.INTER.norm>
-0.855208

>  <SCORE.INTRA>
-1.64614

>  <SCORE.INTRA.DIHEDRAL>
-3.57136

>  <SCORE.INTRA.DIHEDRAL.0>
5.8785

>  <SCORE.INTRA.POLAR>
0

>  <SCORE.INTRA.POLAR.0>
0

>  <SCORE.INTRA.REPUL>
0

>  <SCORE.INTRA.REPUL.0>
0

>  <SCORE.INTRA.SOLV>
0.474027

>  <SCORE.INTRA.SOLV.lig_0>
-31.9559

>  <SCORE.INTRA.VDW>
-0.0974695

>  <SCORE.INTRA.VDW.0>
-0.507645

>  <SCORE.INTRA.norm>
-0.164614

>  <SCORE.RESTR>
0

>  <SCORE.RESTR.CAVITY>
0

>  <SCORE.RESTR.norm>
0

>  <SCORE.SYSTEM>
0

>  <SCORE.SYSTEM.CONST>
0

>  <SCORE.SYSTEM.DIHEDRAL>
0

>  <SCORE.SYSTEM.SOLV>
0

>  <SCORE.SYSTEM.norm>
0

>  <SCORE.heavy>
10

>  <SCORE.norm>
-1.01982

>  <RMSD>
1.316

$$$$
ligand
 OpenBabel11021811473D
libRbt.so/2013.1/901 2013/11/27
 10  9  0  0  0  0  0  0  0  0999 V2000
   33.1860   15.8951   20.3783 N   0  0  0  0  0  0  0  0  0  0  0  0
   31.9510   16.5589   20.8727 C   0  0  2  0  0  0  0  0  0  0  0  0
   32.2581   17.5288   22.0142 C   0  0  0  0  0  0  0  0  0  0  0  0
   31.5071   18.4651   22.2688 O   0  0  0  0  0  0  0  0  0  0  0  0
   30.9060   15.5103   21.2703 C   0  0  0  0  0  0  0  0  0  0  0  0
   29.5406   16.1170   21.5772 C   0  0  0  0  0  0  0  0  0  0  0  0
   28.8723   16.7200   20.3495 C   0  0  0  0  0  0  0  0  0  0  0  0
   28.4465   15.6293   19.3660 C   0  0  0  0  0  0  0  0  0  0  0  0
   27.4556   14.6349   19.9324 N   0  0  0  0  0  0  0  0  0  0  0  0
   33.2296   17.4071   22.7514 O   0  0  0  0  0  0  0  0  0  0  0  0
  2  1  1  1  0  0  0
  2  3  1  0  0  0  0
  2  5  1  0  0  0  0
  3  4  1  0  0  0  0
  3 10  1  0  0  0  0
  5  6  1  0  0  0  0
  6  7  1  0  0  0  0
  7  8  1  0  0  0  0
  8  9  1  0  0  0  0
M  END
>  <CHROM.1>
156.24098026,-170.92473484,66.93578784,69.36865491,60.32208492,30.75062295
16.47237297,21.10647257,-0.55319231,0.08384810,-2.46829219

>  <Name>
ligand

>  <RI>
0

>  <Rbt.Current_Directory>
/home/itssahil/PROJECTS/Mol_Feturizer/New_Systems/rnas/3DIM

>  <Rbt.Executable>
rbdock ($Id: //depot/dev/client3/rdock/2013.1/src/exe/rbdock.cxx#4 $)

>  <Rbt.Library>
libRbt.so (2013.1, Build901 2013/11/27)

>  <Rbt.Parameter_File>
/export/apps/rDock/src/rDock_2013.1_src/data/scripts/dock_solv.prm

>  <Rbt.Receptor>
prm/pocket_docking_8.prm

>  <SCORE>
-7.72758

>  <SCORE.INTER>
-6.16786

>  <SCORE.INTER.CONST>
1

>  <SCORE.INTER.POLAR>
0

>  <SCORE.INTER.ROT>
5

>  <SCORE.INTER.SOLV>
15.5123

>  <SCORE.INTER.VDW>
-16.216

>  <SCORE.INTER.norm>
-0.616786

>  <SCORE.INTRA>
-1.55972

>  <SCORE.INTRA.DIHEDRAL>
-3.59451

>  <SCORE.INTRA.DIHEDRAL.0>
5.8785

>  <SCORE.INTRA.POLAR>
0

>  <SCORE.INTRA.POLAR.0>
0

>  <SCORE.INTRA.REPUL>
0

>  <SCORE.INTRA.REPUL.0>
0

>  <SCORE.INTRA.SOLV>
-0.157853

>  <SCORE.INTRA.SOLV.lig_0>
-31.9559

>  <SCORE.INTRA.VDW>
0.316463

>  <SCORE.INTRA.VDW.0>
-0.507645

>  <SCORE.INTRA.norm>
-0.155972

>  <SCORE.RESTR>
0

>  <SCORE.RESTR.CAVITY>
0

>  <SCORE.RESTR.norm>
0

>  <SCORE.SYSTEM>
0

>  <SCORE.SYSTEM.CONST>
0

>  <SCORE.SYSTEM.DIHEDRAL>
0

>  <SCORE.SYSTEM.SOLV>
0

>  <SCORE.SYSTEM.norm>
0

>  <SCORE.heavy>
10

>  <SCORE.norm>
-0.772758

>  <RMSD>
1.328

$$$$
ligand
 OpenBabel11021811473D
libRbt.so/2013.1/901 2013/11/27
 10  9  0  0  0  0  0  0  0  0999 V2000
   30.2701   17.1112   20.8376 N   0  0  0  0  0  0  0  0  0  0  0  0
   30.8226   16.4737   22.0618 C   0  0  2  0  0  0  0  0  0  0  0  0
   32.3479   16.3835   22.0035 C   0  0  0  0  0  0  0  0  0  0  0  0
   32.9262   16.1052   20.9576 O   0  0  0  0  0  0  0  0  0  0  0  0
   30.1707   15.1052   22.2897 C   0  0  0  0  0  0  0  0  0  0  0  0
   28.6649   15.1933   22.5160 C   0  0  0  0  0  0  0  0  0  0  0  0
   27.8939   15.5173   21.2440 C   0  0  0  0  0  0  0  0  0  0  0  0
   28.0060   14.3782   20.2300 C   0  0  0  0  0  0  0  0  0  0  0  0
   27.3673   14.6749   18.8899 N   0  0  0  0  0  0  0  0  0  0  0  0
   33.0686   16.6181   22.9666 O   0  0  0  0  0  0  0  0  0  0  0  0
  2  1  1  6  0  0  0
  2  3  1  0  0  0  0
  2  5  1  0  0  0  0
  3  4  1  0  0  0  0
  3 10  1  0  0  0  0
  5  6  1  0  0  0  0
  6  7  1  0  0  0  0
  7  8  1  0  0  0  0
  8  9  1  0  0  0  0
M  END
>  <CHROM.1>
-39.25490847,-62.02909655,72.83787434,65.77066233,-174.89071160,30.19758097
15.75886904,21.40247011,-0.35681297,-0.31703948,-1.57962638

>  <Name>
ligand

>  <RI>
0

>  <Rbt.Current_Directory>
/home/itssahil/PROJECTS/Mol_Feturizer/New_Systems/rnas/3DIM

>  <Rbt.Executable>
rbdock ($Id: //depot/dev/client3/rdock/2013.1/src/exe/rbdock.cxx#4 $)

>  <Rbt.Library>
libRbt.so (2013.1, Build901 2013/11/27)

>  <Rbt.Parameter_File>
/export/apps/rDock/src/rDock_2013.1_src/data/scripts/dock_solv.prm

>  <Rbt.Receptor>
prm/pocket_docking_5.prm

>  <SCORE>
-7.75976

>  <SCORE.INTER>
-7.35712

>  <SCORE.INTER.CONST>
1

>  <SCORE.INTER.POLAR>
0

>  <SCORE.INTER.ROT>
5

>  <SCORE.INTER.SOLV>
15.3376

>  <SCORE.INTER.VDW>
-16.9506

>  <SCORE.INTER.norm>
-0.735712

>  <SCORE.INTRA>
-0.402638

>  <SCORE.INTRA.DIHEDRAL>
-3.38015

>  <SCORE.INTRA.DIHEDRAL.0>
5.8785

>  <SCORE.INTRA.POLAR>
0

>  <SCORE.INTRA.POLAR.0>
0

>  <SCORE.INTRA.REPUL>
0

>  <SCORE.INTRA.REPUL.0>
0

>  <SCORE.INTRA.SOLV>
1.35934

>  <SCORE.INTRA.SOLV.lig_0>
-31.9559

>  <SCORE.INTRA.VDW>
0.607766

>  <SCORE.INTRA.VDW.0>
-0.507645

>  <SCORE.INTRA.norm>
-0.0402638

>  <SCORE.RESTR>
0

>  <SCORE.RESTR.CAVITY>
0

>  <SCORE.RESTR.norm>
0

>  <SCORE.SYSTEM>
0

>  <SCORE.SYSTEM.CONST>
0

>  <SCORE.SYSTEM.DIHEDRAL>
0

>  <SCORE.SYSTEM.SOLV>
0

>  <SCORE.SYSTEM.norm>
0

>  <SCORE.heavy>
10

>  <SCORE.norm>
-0.775976

>  <RMSD>
1.394

$$$$
ligand
 OpenBabel11021811473D
libRbt.so/2013.1/901 2013/11/27
 10  9  0  0  0  0  0  0  0  0999 V2000
   32.1418   16.0731   20.8536 N   0  0  0  0  0  0  0  0  0  0  0  0
   31.2976   16.8773   21.7761 C   0  0  2  0  0  0  0  0  0  0  0  0
   32.0706   18.0680   22.3441 C   0  0  0  0  0  0  0  0  0  0  0  0
   31.4887   18.9919   22.9039 O   0  0  0  0  0  0  0  0  0  0  0  0
   30.7166   15.9856   22.8794 C   0  0  0  0  0  0  0  0  0  0  0  0
   29.6882   14.9871   22.3580 C   0  0  0  0  0  0  0  0  0  0  0  0
   28.4485   15.6599   21.7853 C   0  0  0  0  0  0  0  0  0  0  0  0
   27.4187   14.6218   21.3379 C   0  0  0  0  0  0  0  0  0  0  0  0
   26.1929   15.2102   20.6723 N   0  0  0  0  0  0  0  0  0  0  0  0
   33.2932   18.1486   22.3104 O   0  0  0  0  0  0  0  0  0  0  0  0
  2  1  1  1  0  0  0
  2  3  1  0  0  0  0
  2  5  1  0  0  0  0
  3  4  1  0  0  0  0
  3 10  1  0  0  0  0
  5  6  1  0  0  0  0
  6  7  1  0  0  0  0
  7  8  1  0  0  0  0
  8  9  1  0  0  0  0
M  END
>  <CHROM.1>
165.30406511,-68.32615082,-64.08888643,-177.24917424,-176.18910386,30.30219774
16.49561577,21.93657888,-0.55837731,0.00127144,-2.80643389

>  <Name>
ligand

>  <RI>
0

>  <Rbt.Current_Directory>
/home/itssahil/PROJECTS/Mol_Feturizer/New_Systems/rnas/3DIM

>  <Rbt.Executable>
rbdock ($Id: //depot/dev/client3/rdock/2013.1/src/exe/rbdock.cxx#4 $)

>  <Rbt.Library>
libRbt.so (2013.1, Build901 2013/11/27)

>  <Rbt.Parameter_File>
/export/apps/rDock/src/rDock_2013.1_src/data/scripts/dock_solv.prm

>  <Rbt.Receptor>
prm/blind_docking_60.prm

>  <SCORE>
-9.6318

>  <SCORE.INTER>
-7.27663

>  <SCORE.INTER.CONST>
1

>  <SCORE.INTER.POLAR>
0

>  <SCORE.INTER.ROT>
5

>  <SCORE.INTER.SOLV>
18.2972

>  <SCORE.INTER.VDW>
-17.8835

>  <SCORE.INTER.norm>
-0.727663

>  <SCORE.INTRA>
-2.35517

>  <SCORE.INTRA.DIHEDRAL>
-3.99173

>  <SCORE.INTRA.DIHEDRAL.0>
5.8785

>  <SCORE.INTRA.POLAR>
0

>  <SCORE.INTRA.POLAR.0>
0

>  <SCORE.INTRA.REPUL>
0

>  <SCORE.INTRA.REPUL.0>
0

>  <SCORE.INTRA.SOLV>
-0.57134

>  <SCORE.INTRA.SOLV.lig_0>
-31.9559

>  <SCORE.INTRA.VDW>
-0.0736376

>  <SCORE.INTRA.VDW.0>
-0.507645

>  <SCORE.INTRA.norm>
-0.235517

>  <SCORE.RESTR>
0

>  <SCORE.RESTR.CAVITY>
0

>  <SCORE.RESTR.norm>
0

>  <SCORE.SYSTEM>
0

>  <SCORE.SYSTEM.CONST>
0

>  <SCORE.SYSTEM.DIHEDRAL>
0

>  <SCORE.SYSTEM.SOLV>
0

>  <SCORE.SYSTEM.norm>
0

>  <SCORE.heavy>
10

>  <SCORE.norm>
-0.96318

>  <RMSD>
1.406

$$$$
ligand
 OpenBabel11021811473D
libRbt.so/2013.1/901 2013/11/27
 10  9  0  0  0  0  0  0  0  0999 V2000
   31.3216   15.1912   20.1665 N   0  0  0  0  0  0  0  0  0  0  0  0
   31.7060   16.3661   20.9924 C   0  0  2  0  0  0  0  0  0  0  0  0
   33.2057   16.6484   20.8965 C   0  0  0  0  0  0  0  0  0  0  0  0
   33.6941   17.6549   21.4006 O   0  0  0  0  0  0  0  0  0  0  0  0
   31.2458   16.1713   22.4416 C   0  0  0  0  0  0  0  0  0  0  0  0
   29.7294   16.0792   22.5774 C   0  0  0  0  0  0  0  0  0  0  0  0
   29.1770   14.7316   22.1341 C   0  0  0  0  0  0  0  0  0  0  0  0
   27.6543   14.7797   22.0030 C   0  0  0  0  0  0  0  0  0  0  0  0
   27.1565   15.6382   20.8598 N   0  0  0  0  0  0  0  0  0  0  0  0
   33.9968   15.8830   20.3575 O   0  0  0  0  0  0  0  0  0  0  0  0
  2  1  1  6  0  0  0
  2  3  1  0  0  0  0
  2  5  1  0  0  0  0
  3  4  1  0  0  0  0
  3 10  1  0  0  0  0
  5  6  1  0  0  0  0
  6  7  1  0  0  0  0
  7  8  1  0  0  0  0
  8  9  1  0  0  0  0
M  END
>  <CHROM.1>
172.73664060,-63.08938053,75.99019385,-167.93968654,68.66566022,30.93291385
15.92469475,21.37883886,-0.00379319,-0.29596694,-2.09997305

>  <Name>
ligand

>  <RI>
0

>  <Rbt.Current_Directory>
/home/itssahil/PROJECTS/Mol_Feturizer/New_Systems/rnas/3DIM

>  <Rbt.Executable>
rbdock ($Id: //depot/dev/client3/rdock/2013.1/src/exe/rbdock.cxx#4 $)

>  <Rbt.Library>
libRbt.so (2013.1, Build901 2013/11/27)

>  <Rbt.Parameter_File>
/export/apps/rDock/src/rDock_2013.1_src/data/scripts/dock_solv.prm

>  <Rbt.Receptor>
prm/pocket_docking_8.prm

>  <SCORE>
-8.28179

>  <SCORE.INTER>
-7.86361

>  <SCORE.INTER.CONST>
1

>  <SCORE.INTER.POLAR>
0

>  <SCORE.INTER.ROT>
5

>  <SCORE.INTER.SOLV>
17.1641

>  <SCORE.INTER.VDW>
-17.8971

>  <SCORE.INTER.norm>
-0.786361

>  <SCORE.INTRA>
-0.418175

>  <SCORE.INTRA.DIHEDRAL>
-2.48529

>  <SCORE.INTRA.DIHEDRAL.0>
5.8785

>  <SCORE.INTRA.POLAR>
0

>  <SCORE.INTRA.POLAR.0>
0

>  <SCORE.INTRA.REPUL>
0

>  <SCORE.INTRA.REPUL.0>
0

>  <SCORE.INTRA.SOLV>
1.59926

>  <SCORE.INTRA.SOLV.lig_0>
-31.9559

>  <SCORE.INTRA.VDW>
0.0248432

>  <SCORE.INTRA.VDW.0>
-0.507645

>  <SCORE.INTRA.norm>
-0.0418175

>  <SCORE.RESTR>
0

>  <SCORE.RESTR.CAVITY>
0

>  <SCORE.RESTR.norm>
0

>  <SCORE.SYSTEM>
0

>  <SCORE.SYSTEM.CONST>
0

>  <SCORE.SYSTEM.DIHEDRAL>
0

>  <SCORE.SYSTEM.SOLV>
0

>  <SCORE.SYSTEM.norm>
0

>  <SCORE.heavy>
10

>  <SCORE.norm>
-0.828179

>  <RMSD>
1.428

$$$$
ligand
 OpenBabel11021811473D
libRbt.so/2013.1/901 2013/11/27
 10  9  0  0  0  0  0  0  0  0999 V2000
   31.1507   15.8893   23.1797 N   0  0  0  0  0  0  0  0  0  0  0  0
   31.4082   16.6340   21.9190 C   0  0  2  0  0  0  0  0  0  0  0  0
   32.2802   17.8653   22.1670 C   0  0  0  0  0  0  0  0  0  0  0  0
   31.8480   18.8333   22.7851 O   0  0  0  0  0  0  0  0  0  0  0  0
   30.0851   16.9913   21.2323 C   0  0  0  0  0  0  0  0  0  0  0  0
   29.2631   15.7649   20.8492 C   0  0  0  0  0  0  0  0  0  0  0  0
   27.8931   16.1228   20.2899 C   0  0  0  0  0  0  0  0  0  0  0  0
   27.0944   14.8641   19.9492 C   0  0  0  0  0  0  0  0  0  0  0  0
   27.6038   14.1150   18.7364 N   0  0  0  0  0  0  0  0  0  0  0  0
   33.4492   17.9401   21.8064 O   0  0  0  0  0  0  0  0  0  0  0  0
  2  1  1  1  0  0  0
  2  3  1  0  0  0  0
  2  5  1  0  0  0  0
  3  4  1  0  0  0  0
  3 10  1  0  0  0  0
  5  6  1  0  0  0  0
  6  7  1  0  0  0  0
  7  8  1  0  0  0  0
  8  9  1  0  0  0  0
M  END
>  <CHROM.1>
-69.35970511,-60.99670536,174.48395922,-178.75256907,-71.38393572,30.23788482
16.53471499,21.30260119,-0.29007713,0.64595222,2.76753983

>  <Name>
ligand

>  <RI>
0

>  <Rbt.Current_Directory>
/home/itssahil/PROJECTS/Mol_Feturizer/New_Systems/rnas/3DIM

>  <Rbt.Executable>
rbdock ($Id: //depot/dev/client3/rdock/2013.1/src/exe/rbdock.cxx#4 $)

>  <Rbt.Library>
libRbt.so (2013.1, Build901 2013/11/27)

>  <Rbt.Parameter_File>
/export/apps/rDock/src/rDock_2013.1_src/data/scripts/dock_solv.prm

>  <Rbt.Receptor>
prm/pocket_docking_5.prm

>  <SCORE>
-8.61761

>  <SCORE.INTER>
-6.42878

>  <SCORE.INTER.CONST>
1

>  <SCORE.INTER.POLAR>
0

>  <SCORE.INTER.ROT>
5

>  <SCORE.INTER.SOLV>
16.5996

>  <SCORE.INTER.VDW>
-16.7524

>  <SCORE.INTER.norm>
-0.642878

>  <SCORE.INTRA>
-2.18882

>  <SCORE.INTRA.DIHEDRAL>
-3.80303

>  <SCORE.INTRA.DIHEDRAL.0>
5.8785

>  <SCORE.INTRA.POLAR>
0

>  <SCORE.INTRA.POLAR.0>
0

>  <SCORE.INTRA.REPUL>
0

>  <SCORE.INTRA.REPUL.0>
0

>  <SCORE.INTRA.SOLV>
-0.176987

>  <SCORE.INTRA.SOLV.lig_0>
-31.9559

>  <SCORE.INTRA.VDW>
-0.198813

>  <SCORE.INTRA.VDW.0>
-0.507645

>  <SCORE.INTRA.norm>
-0.218882

>  <SCORE.RESTR>
0

>  <SCORE.RESTR.CAVITY>
0

>  <SCORE.RESTR.norm>
0

>  <SCORE.SYSTEM>
0

>  <SCORE.SYSTEM.CONST>
0

>  <SCORE.SYSTEM.DIHEDRAL>
0

>  <SCORE.SYSTEM.SOLV>
0

>  <SCORE.SYSTEM.norm>
0

>  <SCORE.heavy>
10

>  <SCORE.norm>
-0.861761

>  <RMSD>
1.574

$$$$
ligand
 OpenBabel11021811473D
libRbt.so/2013.1/901 2013/11/27
 10  9  0  0  0  0  0  0  0  0999 V2000
   33.6001   16.8070   21.2085 N   0  0  0  0  0  0  0  0  0  0  0  0
   32.1908   17.1680   21.5151 C   0  0  2  0  0  0  0  0  0  0  0  0
   32.1160   18.3311   22.5049 C   0  0  0  0  0  0  0  0  0  0  0  0
   33.1337   18.8215   22.9838 O   0  0  0  0  0  0  0  0  0  0  0  0
   31.4218   15.9376   22.0096 C   0  0  0  0  0  0  0  0  0  0  0  0
   29.9088   16.0979   21.9010 C   0  0  0  0  0  0  0  0  0  0  0  0
   29.1494   14.8556   22.3453 C   0  0  0  0  0  0  0  0  0  0  0  0
   27.6626   14.9719   22.0075 C   0  0  0  0  0  0  0  0  0  0  0  0
   27.3656   15.0288   20.5241 N   0  0  0  0  0  0  0  0  0  0  0  0
   31.0607   18.8569   22.8398 O   0  0  0  0  0  0  0  0  0  0  0  0
  2  1  1  1  0  0  0
  2  3  1  0  0  0  0
  2  5  1  0  0  0  0
  3  4  1  0  0  0  0
  3 10  1  0  0  0  0
  5  6  1  0  0  0  0
  6  7  1  0  0  0  0
  7  8  1  0  0  0  0
  8  9  1  0  0  0  0
M  END
>  <CHROM.1>
-2.53564407,-160.83343175,177.91785617,-170.69973489,64.55870926,30.76881181
16.72108584,22.00613413,-0.58910219,-0.15878715,-2.64962092

>  <Name>
ligand

>  <RI>
0

>  <Rbt.Current_Directory>
/home/itssahil/PROJECTS/Mol_Feturizer/New_Systems/rnas/3DIM

>  <Rbt.Executable>
rbdock ($Id: //depot/dev/client3/rdock/2013.1/src/exe/rbdock.cxx#4 $)

>  <Rbt.Library>
libRbt.so (2013.1, Build901 2013/11/27)

>  <Rbt.Parameter_File>
/export/apps/rDock/src/rDock_2013.1_src/data/scripts/dock_solv.prm

>  <Rbt.Receptor>
prm/pocket_docking_7.prm

>  <SCORE>
-9.72992

>  <SCORE.INTER>
-7.74286

>  <SCORE.INTER.CONST>
1

>  <SCORE.INTER.POLAR>
0

>  <SCORE.INTER.ROT>
5

>  <SCORE.INTER.SOLV>
15.2252

>  <SCORE.INTER.VDW>
-17.1703

>  <SCORE.INTER.norm>
-0.774286

>  <SCORE.INTRA>
-1.98706

>  <SCORE.INTRA.DIHEDRAL>
-2.60971

>  <SCORE.INTRA.DIHEDRAL.0>
5.8785

>  <SCORE.INTRA.POLAR>
0

>  <SCORE.INTRA.POLAR.0>
0

>  <SCORE.INTRA.REPUL>
0

>  <SCORE.INTRA.REPUL.0>
0

>  <SCORE.INTRA.SOLV>
-0.910364

>  <SCORE.INTRA.SOLV.lig_0>
-31.9559

>  <SCORE.INTRA.VDW>
-0.227024

>  <SCORE.INTRA.VDW.0>
-0.507645

>  <SCORE.INTRA.norm>
-0.198706

>  <SCORE.RESTR>
0

>  <SCORE.RESTR.CAVITY>
0

>  <SCORE.RESTR.norm>
0

>  <SCORE.SYSTEM>
0

>  <SCORE.SYSTEM.CONST>
0

>  <SCORE.SYSTEM.DIHEDRAL>
0

>  <SCORE.SYSTEM.SOLV>
0

>  <SCORE.SYSTEM.norm>
0

>  <SCORE.heavy>
10

>  <SCORE.norm>
-0.972992

>  <RMSD>
1.596

$$$$
ligand
 OpenBabel11021811473D
libRbt.so/2013.1/901 2013/11/27
 10  9  0  0  0  0  0  0  0  0999 V2000
   33.6769   16.7732   21.2794 N   0  0  0  0  0  0  0  0  0  0  0  0
   32.2585   17.1376   21.5356 C   0  0  2  0  0  0  0  0  0  0  0  0
   32.1523   18.3325   22.4836 C   0  0  0  0  0  0  0  0  0  0  0  0
   33.1298   18.7359   23.1060 O   0  0  0  0  0  0  0  0  0  0  0  0
   31.4810   15.9206   22.0499 C   0  0  0  0  0  0  0  0  0  0  0  0
   29.9689   16.0959   21.9533 C   0  0  0  0  0  0  0  0  0  0  0  0
   29.2004   14.8673   22.4195 C   0  0  0  0  0  0  0  0  0  0  0  0
   27.7233   14.9667   22.0367 C   0  0  0  0  0  0  0  0  0  0  0  0
   27.4710   15.0229   20.5450 N   0  0  0  0  0  0  0  0  0  0  0  0
   31.1171   18.9690   22.6434 O   0  0  0  0  0  0  0  0  0  0  0  0
  2  1  1  1  0  0  0
  2  3  1  0  0  0  0
  2  5  1  0  0  0  0
  3  4  1  0  0  0  0
  3 10  1  0  0  0  0
  5  6  1  0  0  0  0
  6  7  1  0  0  0  0
  7  8  1  0  0  0  0
  8  9  1  0  0  0  0
M  END
>  <CHROM.1>
-11.96182543,-163.43442317,178.00312048,-168.07889840,62.39243731,30.82513081
16.71623494,22.02638562,-0.59771438,-0.11981868,-2.71348621

>  <Name>
ligand

>  <RI>
0

>  <Rbt.Current_Directory>
/home/itssahil/PROJECTS/Mol_Feturizer/New_Systems/rnas/3DIM

>  <Rbt.Executable>
rbdock ($Id: //depot/dev/client3/rdock/2013.1/src/exe/rbdock.cxx#4 $)

>  <Rbt.Library>
libRbt.so (2013.1, Build901 2013/11/27)

>  <Rbt.Parameter_File>
/export/apps/rDock/src/rDock_2013.1_src/data/scripts/dock_solv.prm

>  <Rbt.Receptor>
prm/pocket_docking_4.prm

>  <SCORE>
-9.75034

>  <SCORE.INTER>
-7.69132

>  <SCORE.INTER.CONST>
1

>  <SCORE.INTER.POLAR>
0

>  <SCORE.INTER.ROT>
5

>  <SCORE.INTER.SOLV>
14.9711

>  <SCORE.INTER.VDW>
-17.0513

>  <SCORE.INTER.norm>
-0.769132

>  <SCORE.INTRA>
-2.05902

>  <SCORE.INTRA.DIHEDRAL>
-2.72175

>  <SCORE.INTRA.DIHEDRAL.0>
5.8785

>  <SCORE.INTRA.POLAR>
0

>  <SCORE.INTRA.POLAR.0>
0

>  <SCORE.INTRA.REPUL>
0

>  <SCORE.INTRA.REPUL.0>
0

>  <SCORE.INTRA.SOLV>
-0.867626

>  <SCORE.INTRA.SOLV.lig_0>
-31.9559

>  <SCORE.INTRA.VDW>
-0.264334

>  <SCORE.INTRA.VDW.0>
-0.507645

>  <SCORE.INTRA.norm>
-0.205902

>  <SCORE.RESTR>
0

>  <SCORE.RESTR.CAVITY>
0

>  <SCORE.RESTR.norm>
0

>  <SCORE.SYSTEM>
0

>  <SCORE.SYSTEM.CONST>
0

>  <SCORE.SYSTEM.DIHEDRAL>
0

>  <SCORE.SYSTEM.SOLV>
0

>  <SCORE.SYSTEM.norm>
0

>  <SCORE.heavy>
10

>  <SCORE.norm>
-0.975034

>  <RMSD>
1.637

$$$$
ligand
 OpenBabel11021811473D
libRbt.so/2013.1/901 2013/11/27
 10  9  0  0  0  0  0  0  0  0999 V2000
   33.6827   16.7868   21.3463 N   0  0  0  0  0  0  0  0  0  0  0  0
   32.2605   17.1587   21.5683 C   0  0  2  0  0  0  0  0  0  0  0  0
   32.1391   18.3744   22.4877 C   0  0  0  0  0  0  0  0  0  0  0  0
   31.0720   18.9663   22.6173 O   0  0  0  0  0  0  0  0  0  0  0  0
   31.4714   15.9545   22.0947 C   0  0  0  0  0  0  0  0  0  0  0  0
   29.9664   16.0927   21.8886 C   0  0  0  0  0  0  0  0  0  0  0  0
   29.1865   14.8911   22.4038 C   0  0  0  0  0  0  0  0  0  0  0  0
   27.7129   14.9824   22.0056 C   0  0  0  0  0  0  0  0  0  0  0  0
   27.4730   14.9886   20.5109 N   0  0  0  0  0  0  0  0  0  0  0  0
   33.0694   18.7953   23.1655 O   0  0  0  0  0  0  0  0  0  0  0  0
  2  1  1  1  0  0  0
  2  3  1  0  0  0  0
  2  5  1  0  0  0  0
  3  4  1  0  0  0  0
  3 10  1  0  0  0  0
  5  6  1  0  0  0  0
  6  7  1  0  0  0  0
  7  8  1  0  0  0  0
  8  9  1  0  0  0  0
M  END
>  <CHROM.1>
167.98893264,-159.90493161,179.61164335,-172.14588129,61.73161235,30.80940813
16.73310597,22.03016679,-0.60950876,-0.10345904,-2.72159638

>  <Name>
ligand

>  <RI>
0

>  <Rbt.Current_Directory>
/home/itssahil/PROJECTS/Mol_Feturizer/New_Systems/rnas/3DIM

>  <Rbt.Executable>
rbdock ($Id: //depot/dev/client3/rdock/2013.1/src/exe/rbdock.cxx#4 $)

>  <Rbt.Library>
libRbt.so (2013.1, Build901 2013/11/27)

>  <Rbt.Parameter_File>
/export/apps/rDock/src/rDock_2013.1_src/data/scripts/dock_solv.prm

>  <Rbt.Receptor>
prm/blind_docking_60.prm

>  <SCORE>
-9.88595

>  <SCORE.INTER>
-7.76781

>  <SCORE.INTER.CONST>
1

>  <SCORE.INTER.POLAR>
0

>  <SCORE.INTER.ROT>
5

>  <SCORE.INTER.SOLV>
14.9554

>  <SCORE.INTER.VDW>
-17.097

>  <SCORE.INTER.norm>
-0.776781

>  <SCORE.INTRA>
-2.11814

>  <SCORE.INTRA.DIHEDRAL>
-2.74977

>  <SCORE.INTRA.DIHEDRAL.0>
5.8785

>  <SCORE.INTRA.POLAR>
0

>  <SCORE.INTRA.POLAR.0>
0

>  <SCORE.INTRA.REPUL>
0

>  <SCORE.INTRA.REPUL.0>
0

>  <SCORE.INTRA.SOLV>
-0.898037

>  <SCORE.INTRA.SOLV.lig_0>
-31.9559

>  <SCORE.INTRA.VDW>
-0.294237

>  <SCORE.INTRA.VDW.0>
-0.507645

>  <SCORE.INTRA.norm>
-0.211814

>  <SCORE.RESTR>
0

>  <SCORE.RESTR.CAVITY>
0

>  <SCORE.RESTR.norm>
0

>  <SCORE.SYSTEM>
0

>  <SCORE.SYSTEM.CONST>
0

>  <SCORE.SYSTEM.DIHEDRAL>
0

>  <SCORE.SYSTEM.SOLV>
0

>  <SCORE.SYSTEM.norm>
0

>  <SCORE.heavy>
10

>  <SCORE.norm>
-0.988595

>  <RMSD>
1.659

$$$$
ligand
 OpenBabel11021811473D
libRbt.so/2013.1/901 2013/11/27
 10  9  0  0  0  0  0  0  0  0999 V2000
   31.3436   17.3422   22.7253 N   0  0  0  0  0  0  0  0  0  0  0  0
   31.6347   16.3053   21.7004 C   0  0  2  0  0  0  0  0  0  0  0  0
   32.9838   16.5526   21.0246 C   0  0  0  0  0  0  0  0  0  0  0  0
   33.4259   15.7709   20.1885 O   0  0  0  0  0  0  0  0  0  0  0  0
   30.4873   16.2214   20.6874 C   0  0  0  0  0  0  0  0  0  0  0  0
   29.1717   15.7707   21.3140 C   0  0  0  0  0  0  0  0  0  0  0  0
   28.0741   15.5422   20.2841 C   0  0  0  0  0  0  0  0  0  0  0  0
   28.4317   14.3861   19.3493 C   0  0  0  0  0  0  0  0  0  0  0  0
   27.4176   14.1376   18.2532 N   0  0  0  0  0  0  0  0  0  0  0  0
   33.6691   17.5449   21.2435 O   0  0  0  0  0  0  0  0  0  0  0  0
  2  1  1  1  0  0  0
  2  3  1  0  0  0  0
  2  5  1  0  0  0  0
  3  4  1  0  0  0  0
  3 10  1  0  0  0  0
  5  6  1  0  0  0  0
  6  7  1  0  0  0  0
  7  8  1  0  0  0  0
  8  9  1  0  0  0  0
M  END
>  <CHROM.1>
176.93404779,-63.78237621,-173.74677688,64.63284319,-177.26794483,30.70486835
15.96602903,20.66588924,0.50789852,0.15286254,1.00185475

>  <Name>
ligand

>  <RI>
0

>  <Rbt.Current_Directory>
/home/itssahil/PROJECTS/Mol_Feturizer/New_Systems/rnas/3DIM

>  <Rbt.Executable>
rbdock ($Id: //depot/dev/client3/rdock/2013.1/src/exe/rbdock.cxx#4 $)

>  <Rbt.Library>
libRbt.so (2013.1, Build901 2013/11/27)

>  <Rbt.Parameter_File>
/export/apps/rDock/src/rDock_2013.1_src/data/scripts/dock_solv.prm

>  <Rbt.Receptor>
prm/pocket_docking_8.prm

>  <SCORE>
-8.27304

>  <SCORE.INTER>
-6.3576

>  <SCORE.INTER.CONST>
1

>  <SCORE.INTER.POLAR>
0

>  <SCORE.INTER.ROT>
5

>  <SCORE.INTER.SOLV>
15.0913

>  <SCORE.INTER.VDW>
-16.2022

>  <SCORE.INTER.norm>
-0.63576

>  <SCORE.INTRA>
-1.91544

>  <SCORE.INTRA.DIHEDRAL>
-4.04841

>  <SCORE.INTRA.DIHEDRAL.0>
5.8785

>  <SCORE.INTRA.POLAR>
0

>  <SCORE.INTRA.POLAR.0>
0

>  <SCORE.INTRA.REPUL>
0

>  <SCORE.INTRA.REPUL.0>
0

>  <SCORE.INTRA.SOLV>
-0.788941

>  <SCORE.INTRA.SOLV.lig_0>
-31.9559

>  <SCORE.INTRA.VDW>
0.503239

>  <SCORE.INTRA.VDW.0>
-0.507645

>  <SCORE.INTRA.norm>
-0.191544

>  <SCORE.RESTR>
0

>  <SCORE.RESTR.CAVITY>
0

>  <SCORE.RESTR.norm>
0

>  <SCORE.SYSTEM>
0

>  <SCORE.SYSTEM.CONST>
0

>  <SCORE.SYSTEM.DIHEDRAL>
0

>  <SCORE.SYSTEM.SOLV>
0

>  <SCORE.SYSTEM.norm>
0

>  <SCORE.heavy>
10

>  <SCORE.norm>
-0.827304

>  <RMSD>
1.709

$$$$
ligand
 OpenBabel11021811473D
libRbt.so/2013.1/901 2013/11/27
 10  9  0  0  0  0  0  0  0  0999 V2000
   33.1434   16.1466   20.7776 N   0  0  0  0  0  0  0  0  0  0  0  0
   31.7100   16.4904   20.9712 C   0  0  2  0  0  0  0  0  0  0  0  0
   31.4004   16.7835   22.4397 C   0  0  0  0  0  0  0  0  0  0  0  0
   31.5093   15.9115   23.2960 O   0  0  0  0  0  0  0  0  0  0  0  0
   30.8155   15.3835   20.4015 C   0  0  0  0  0  0  0  0  0  0  0  0
   29.3277   15.6874   20.5451 C   0  0  0  0  0  0  0  0  0  0  0  0
   28.4432   14.6240   19.9092 C   0  0  0  0  0  0  0  0  0  0  0  0
   26.9655   14.9021   20.1874 C   0  0  0  0  0  0  0  0  0  0  0  0
   26.5837   14.8233   21.6502 N   0  0  0  0  0  0  0  0  0  0  0  0
   31.0717   17.8925   22.8450 O   0  0  0  0  0  0  0  0  0  0  0  0
  2  1  1  1  0  0  0
  2  3  1  0  0  0  0
  2  5  1  0  0  0  0
  3  4  1  0  0  0  0
  3 10  1  0  0  0  0
  5  6  1  0  0  0  0
  6  7  1  0  0  0  0
  7  8  1  0  0  0  0
  8  9  1  0  0  0  0
M  END
>  <CHROM.1>
-64.19939770,-178.92449332,176.77971769,174.80642521,-64.41057391,30.10034097
15.87598652,21.33786544,-0.41362585,-0.21044525,-2.02758018

>  <Name>
ligand

>  <RI>
0

>  <Rbt.Current_Directory>
/home/itssahil/PROJECTS/Mol_Feturizer/New_Systems/rnas/3DIM

>  <Rbt.Executable>
rbdock ($Id: //depot/dev/client3/rdock/2013.1/src/exe/rbdock.cxx#4 $)

>  <Rbt.Library>
libRbt.so (2013.1, Build901 2013/11/27)

>  <Rbt.Parameter_File>
/export/apps/rDock/src/rDock_2013.1_src/data/scripts/dock_solv.prm

>  <Rbt.Receptor>
prm/pocket_docking_6.prm

>  <SCORE>
-7.41511

>  <SCORE.INTER>
-4.65227

>  <SCORE.INTER.CONST>
1

>  <SCORE.INTER.POLAR>
0

>  <SCORE.INTER.ROT>
5

>  <SCORE.INTER.SOLV>
19.6565

>  <SCORE.INTER.VDW>
-16.587

>  <SCORE.INTER.norm>
-0.465227

>  <SCORE.INTRA>
-2.76285

>  <SCORE.INTRA.DIHEDRAL>
-4.16728

>  <SCORE.INTRA.DIHEDRAL.0>
5.8785

>  <SCORE.INTRA.POLAR>
0

>  <SCORE.INTRA.POLAR.0>
0

>  <SCORE.INTRA.REPUL>
0

>  <SCORE.INTRA.REPUL.0>
0

>  <SCORE.INTRA.SOLV>
-0.977533

>  <SCORE.INTRA.SOLV.lig_0>
-31.9559

>  <SCORE.INTRA.VDW>
-0.190441

>  <SCORE.INTRA.VDW.0>
-0.507645

>  <SCORE.INTRA.norm>
-0.276285

>  <SCORE.RESTR>
0

>  <SCORE.RESTR.CAVITY>
0

>  <SCORE.RESTR.norm>
0

>  <SCORE.SYSTEM>
0

>  <SCORE.SYSTEM.CONST>
0

>  <SCORE.SYSTEM.DIHEDRAL>
0

>  <SCORE.SYSTEM.SOLV>
0

>  <SCORE.SYSTEM.norm>
0

>  <SCORE.heavy>
10

>  <SCORE.norm>
-0.741511

>  <RMSD>
1.755

$$$$
ligand
 OpenBabel11021811473D
libRbt.so/2013.1/901 2013/11/27
 10  9  0  0  0  0  0  0  0  0999 V2000
   31.2616   17.3796   22.3517 N   0  0  0  0  0  0  0  0  0  0  0  0
   31.5889   16.0036   21.8937 C   0  0  2  0  0  0  0  0  0  0  0  0
   32.6826   16.0171   20.8253 C   0  0  0  0  0  0  0  0  0  0  0  0
   33.8019   16.4562   21.0704 O   0  0  0  0  0  0  0  0  0  0  0  0
   30.3215   15.2867   21.4147 C   0  0  0  0  0  0  0  0  0  0  0  0
   29.2059   15.2909   22.4549 C   0  0  0  0  0  0  0  0  0  0  0  0
   27.9483   14.5793   21.9758 C   0  0  0  0  0  0  0  0  0  0  0  0
   27.2869   15.3469   20.8305 C   0  0  0  0  0  0  0  0  0  0  0  0
   28.0516   15.2947   19.5250 N   0  0  0  0  0  0  0  0  0  0  0  0
   32.5217   15.5631   19.6983 O   0  0  0  0  0  0  0  0  0  0  0  0
  2  1  1  6  0  0  0
  2  3  1  0  0  0  0
  2  5  1  0  0  0  0
  3  4  1  0  0  0  0
  3 10  1  0  0  0  0
  5  6  1  0  0  0  0
  6  7  1  0  0  0  0
  7  8  1  0  0  0  0
  8  9  1  0  0  0  0
M  END
>  <CHROM.1>
61.54006194,-53.86269934,179.94438957,-67.28273570,71.02620785,30.50298218
15.72345024,21.18166695,0.03197000,0.22696131,1.31318304

>  <Name>
ligand

>  <RI>
0

>  <Rbt.Current_Directory>
/home/itssahil/PROJECTS/Mol_Feturizer/New_Systems/rnas/3DIM

>  <Rbt.Executable>
rbdock ($Id: //depot/dev/client3/rdock/2013.1/src/exe/rbdock.cxx#4 $)

>  <Rbt.Library>
libRbt.so (2013.1, Build901 2013/11/27)

>  <Rbt.Parameter_File>
/export/apps/rDock/src/rDock_2013.1_src/data/scripts/dock_solv.prm

>  <Rbt.Receptor>
prm/pocket_docking_6.prm

>  <SCORE>
-10.6294

>  <SCORE.INTER>
-10.5373

>  <SCORE.INTER.CONST>
1

>  <SCORE.INTER.POLAR>
0

>  <SCORE.INTER.ROT>
5

>  <SCORE.INTER.SOLV>
11.058

>  <SCORE.INTER.VDW>
-17.6442

>  <SCORE.INTER.norm>
-1.05373

>  <SCORE.INTRA>
-0.0920887

>  <SCORE.INTRA.DIHEDRAL>
-3.57384

>  <SCORE.INTRA.DIHEDRAL.0>
5.8785

>  <SCORE.INTRA.POLAR>
0

>  <SCORE.INTRA.POLAR.0>
0

>  <SCORE.INTRA.REPUL>
0

>  <SCORE.INTRA.REPUL.0>
0

>  <SCORE.INTRA.SOLV>
1.36158

>  <SCORE.INTRA.SOLV.lig_0>
-31.9559

>  <SCORE.INTRA.VDW>
1.01404

>  <SCORE.INTRA.VDW.0>
-0.507645

>  <SCORE.INTRA.norm>
-0.00920887

>  <SCORE.RESTR>
0

>  <SCORE.RESTR.CAVITY>
0

>  <SCORE.RESTR.norm>
0

>  <SCORE.SYSTEM>
0

>  <SCORE.SYSTEM.CONST>
0

>  <SCORE.SYSTEM.DIHEDRAL>
0

>  <SCORE.SYSTEM.SOLV>
0

>  <SCORE.SYSTEM.norm>
0

>  <SCORE.heavy>
10

>  <SCORE.norm>
-1.06294

>  <RMSD>
1.809

$$$$
ligand
 OpenBabel11021811473D
libRbt.so/2013.1/901 2013/11/27
 10  9  0  0  0  0  0  0  0  0999 V2000
   31.2709   17.1838   22.4716 N   0  0  0  0  0  0  0  0  0  0  0  0
   31.3272   16.1300   21.4243 C   0  0  2  0  0  0  0  0  0  0  0  0
   32.5789   16.2717   20.5576 C   0  0  0  0  0  0  0  0  0  0  0  0
   33.5120   16.9887   20.9053 O   0  0  0  0  0  0  0  0  0  0  0  0
   30.0416   16.1403   20.5895 C   0  0  0  0  0  0  0  0  0  0  0  0
   28.8060   15.7502   21.3943 C   0  0  0  0  0  0  0  0  0  0  0  0
   27.5328   15.7502   20.5597 C   0  0  0  0  0  0  0  0  0  0  0  0
   27.4938   14.5449   19.6195 C   0  0  0  0  0  0  0  0  0  0  0  0
   28.5726   14.5509   18.5574 N   0  0  0  0  0  0  0  0  0  0  0  0
   32.7376   15.6596   19.5077 O   0  0  0  0  0  0  0  0  0  0  0  0
  2  1  1  1  0  0  0
  2  3  1  0  0  0  0
  2  5  1  0  0  0  0
  3  4  1  0  0  0  0
  3 10  1  0  0  0  0
  5  6  1  0  0  0  0
  6  7  1  0  0  0  0
  7  8  1  0  0  0  0
  8  9  1  0  0  0  0
M  END
>  <CHROM.1>
14.23462701,-65.60548740,-179.52386872,73.70356174,-65.10641608,30.42600154
15.90194566,20.54269751,0.31810261,0.17122064,1.06039606

>  <Name>
ligand

>  <RI>
0

>  <Rbt.Current_Directory>
/home/itssahil/PROJECTS/Mol_Feturizer/New_Systems/rnas/3DIM

>  <Rbt.Executable>
rbdock ($Id: //depot/dev/client3/rdock/2013.1/src/exe/rbdock.cxx#4 $)

>  <Rbt.Library>
libRbt.so (2013.1, Build901 2013/11/27)

>  <Rbt.Parameter_File>
/export/apps/rDock/src/rDock_2013.1_src/data/scripts/dock_solv.prm

>  <Rbt.Receptor>
prm/blind_docking_60.prm

>  <SCORE>
-9.48946

>  <SCORE.INTER>
-8.8792

>  <SCORE.INTER.CONST>
1

>  <SCORE.INTER.POLAR>
0

>  <SCORE.INTER.ROT>
5

>  <SCORE.INTER.SOLV>
11.4457

>  <SCORE.INTER.VDW>
-16.668

>  <SCORE.INTER.norm>
-0.88792

>  <SCORE.INTRA>
-0.610257

>  <SCORE.INTRA.DIHEDRAL>
-3.43351

>  <SCORE.INTRA.DIHEDRAL.0>
5.8785

>  <SCORE.INTRA.POLAR>
0

>  <SCORE.INTRA.POLAR.0>
0

>  <SCORE.INTRA.REPUL>
0

>  <SCORE.INTRA.REPUL.0>
0

>  <SCORE.INTRA.SOLV>
1.29688

>  <SCORE.INTRA.SOLV.lig_0>
-31.9559

>  <SCORE.INTRA.VDW>
0.458059

>  <SCORE.INTRA.VDW.0>
-0.507645

>  <SCORE.INTRA.norm>
-0.0610257

>  <SCORE.RESTR>
0

>  <SCORE.RESTR.CAVITY>
0

>  <SCORE.RESTR.norm>
0

>  <SCORE.SYSTEM>
0

>  <SCORE.SYSTEM.CONST>
0

>  <SCORE.SYSTEM.DIHEDRAL>
0

>  <SCORE.SYSTEM.SOLV>
0

>  <SCORE.SYSTEM.norm>
0

>  <SCORE.heavy>
10

>  <SCORE.norm>
-0.948946

>  <RMSD>
1.849

$$$$
ligand
 OpenBabel11021811473D
libRbt.so/2013.1/901 2013/11/27
 10  9  0  0  0  0  0  0  0  0999 V2000
   31.4550   15.8123   22.6896 N   0  0  0  0  0  0  0  0  0  0  0  0
   31.3010   15.7463   21.2124 C   0  0  2  0  0  0  0  0  0  0  0  0
   32.6093   16.0902   20.4996 C   0  0  0  0  0  0  0  0  0  0  0  0
   32.8584   15.6448   19.3836 O   0  0  0  0  0  0  0  0  0  0  0  0
   30.1423   16.6410   20.7577 C   0  0  0  0  0  0  0  0  0  0  0  0
   28.7843   16.1539   21.2528 C   0  0  0  0  0  0  0  0  0  0  0  0
   28.3595   14.8387   20.6146 C   0  0  0  0  0  0  0  0  0  0  0  0
   28.1087   15.0124   19.1162 C   0  0  0  0  0  0  0  0  0  0  0  0
   27.6539   13.7515   18.4126 N   0  0  0  0  0  0  0  0  0  0  0  0
   33.4496   16.8464   20.9729 O   0  0  0  0  0  0  0  0  0  0  0  0
  2  1  1  1  0  0  0
  2  3  1  0  0  0  0
  2  5  1  0  0  0  0
  3  4  1  0  0  0  0
  3 10  1  0  0  0  0
  5  6  1  0  0  0  0
  6  7  1  0  0  0  0
  7  8  1  0  0  0  0
  8  9  1  0  0  0  0
M  END
>  <CHROM.1>
152.98576029,-65.96735323,-67.80897863,-66.17639515,-178.82026873,30.51099784
15.66366729,20.47714938,0.38106420,0.20307123,1.19514551

>  <Name>
ligand

>  <RI>
0

>  <Rbt.Current_Directory>
/home/itssahil/PROJECTS/Mol_Feturizer/New_Systems/rnas/3DIM

>  <Rbt.Executable>
rbdock ($Id: //depot/dev/client3/rdock/2013.1/src/exe/rbdock.cxx#4 $)

>  <Rbt.Library>
libRbt.so (2013.1, Build901 2013/11/27)

>  <Rbt.Parameter_File>
/export/apps/rDock/src/rDock_2013.1_src/data/scripts/dock_solv.prm

>  <Rbt.Receptor>
prm/pocket_docking_5.prm

>  <SCORE>
-8.78832

>  <SCORE.INTER>
-7.01537

>  <SCORE.INTER.CONST>
1

>  <SCORE.INTER.POLAR>
0

>  <SCORE.INTER.ROT>
5

>  <SCORE.INTER.SOLV>
16.2631

>  <SCORE.INTER.VDW>
-17.0313

>  <SCORE.INTER.norm>
-0.701537

>  <SCORE.INTRA>
-1.77295

>  <SCORE.INTRA.DIHEDRAL>
-3.88634

>  <SCORE.INTRA.DIHEDRAL.0>
5.8785

>  <SCORE.INTRA.POLAR>
0

>  <SCORE.INTRA.POLAR.0>
0

>  <SCORE.INTRA.REPUL>
0

>  <SCORE.INTRA.REPUL.0>
0

>  <SCORE.INTRA.SOLV>
-0.369521

>  <SCORE.INTRA.SOLV.lig_0>
-31.9559

>  <SCORE.INTRA.VDW>
0.354982

>  <SCORE.INTRA.VDW.0>
-0.507645

>  <SCORE.INTRA.norm>
-0.177295

>  <SCORE.RESTR>
0

>  <SCORE.RESTR.CAVITY>
0

>  <SCORE.RESTR.norm>
0

>  <SCORE.SYSTEM>
0

>  <SCORE.SYSTEM.CONST>
0

>  <SCORE.SYSTEM.DIHEDRAL>
0

>  <SCORE.SYSTEM.SOLV>
0

>  <SCORE.SYSTEM.norm>
0

>  <SCORE.heavy>
10

>  <SCORE.norm>
-0.878832

>  <RMSD>
1.849

$$$$
ligand
 OpenBabel11021811473D
libRbt.so/2013.1/901 2013/11/27
 10  9  0  0  0  0  0  0  0  0999 V2000
   31.2912   17.1083   22.4401 N   0  0  0  0  0  0  0  0  0  0  0  0
   31.3692   16.0327   21.4167 C   0  0  2  0  0  0  0  0  0  0  0  0
   32.6208   16.1772   20.5503 C   0  0  0  0  0  0  0  0  0  0  0  0
   33.5591   16.8833   20.9061 O   0  0  0  0  0  0  0  0  0  0  0  0
   30.0861   16.0018   20.5784 C   0  0  0  0  0  0  0  0  0  0  0  0
   28.8511   15.6321   21.3936 C   0  0  0  0  0  0  0  0  0  0  0  0
   27.5690   15.6687   20.5738 C   0  0  0  0  0  0  0  0  0  0  0  0
   27.5210   14.5081   19.5792 C   0  0  0  0  0  0  0  0  0  0  0  0
   28.5642   14.5849   18.4848 N   0  0  0  0  0  0  0  0  0  0  0  0
   32.7742   15.5777   19.4924 O   0  0  0  0  0  0  0  0  0  0  0  0
  2  1  1  1  0  0  0
  2  3  1  0  0  0  0
  2  5  1  0  0  0  0
  3  4  1  0  0  0  0
  3 10  1  0  0  0  0
  5  6  1  0  0  0  0
  6  7  1  0  0  0  0
  7  8  1  0  0  0  0
  8  9  1  0  0  0  0
M  END
>  <CHROM.1>
16.69413971,-64.58749433,177.18526688,71.18547082,-66.69559775,30.45932037
15.82233092,20.52561554,0.31142128,0.16805072,1.08602823

>  <Name>
ligand

>  <RI>
0

>  <Rbt.Current_Directory>
/home/itssahil/PROJECTS/Mol_Feturizer/New_Systems/rnas/3DIM

>  <Rbt.Executable>
rbdock ($Id: //depot/dev/client3/rdock/2013.1/src/exe/rbdock.cxx#4 $)

>  <Rbt.Library>
libRbt.so (2013.1, Build901 2013/11/27)

>  <Rbt.Parameter_File>
/export/apps/rDock/src/rDock_2013.1_src/data/scripts/dock_solv.prm

>  <Rbt.Receptor>
prm/pocket_docking_3.prm

>  <SCORE>
-9.36239

>  <SCORE.INTER>
-8.78032

>  <SCORE.INTER.CONST>
1

>  <SCORE.INTER.POLAR>
0

>  <SCORE.INTER.ROT>
5

>  <SCORE.INTER.SOLV>
11.6678

>  <SCORE.INTER.VDW>
-16.6762

>  <SCORE.INTER.norm>
-0.878032

>  <SCORE.INTRA>
-0.582066

>  <SCORE.INTRA.DIHEDRAL>
-3.62671

>  <SCORE.INTRA.DIHEDRAL.0>
5.8785

>  <SCORE.INTRA.POLAR>
0

>  <SCORE.INTRA.POLAR.0>
0

>  <SCORE.INTRA.REPUL>
0

>  <SCORE.INTRA.REPUL.0>
0

>  <SCORE.INTRA.SOLV>
1.30661

>  <SCORE.INTRA.SOLV.lig_0>
-31.9559

>  <SCORE.INTRA.VDW>
0.577983

>  <SCORE.INTRA.VDW.0>
-0.507645

>  <SCORE.INTRA.norm>
-0.0582066

>  <SCORE.RESTR>
0

>  <SCORE.RESTR.CAVITY>
0

>  <SCORE.RESTR.norm>
0

>  <SCORE.SYSTEM>
0

>  <SCORE.SYSTEM.CONST>
0

>  <SCORE.SYSTEM.DIHEDRAL>
0

>  <SCORE.SYSTEM.SOLV>
0

>  <SCORE.SYSTEM.norm>
0

>  <SCORE.heavy>
10

>  <SCORE.norm>
-0.936239

>  <RMSD>
1.850

$$$$
ligand
 OpenBabel11021811473D
libRbt.so/2013.1/901 2013/11/27
 10  9  0  0  0  0  0  0  0  0999 V2000
   32.0824   18.1846   22.4903 N   0  0  0  0  0  0  0  0  0  0  0  0
   32.4514   16.7566   22.3033 C   0  0  2  0  0  0  0  0  0  0  0  0
   32.9517   16.4914   20.8830 C   0  0  0  0  0  0  0  0  0  0  0  0
   34.0307   15.9420   20.6839 O   0  0  0  0  0  0  0  0  0  0  0  0
   31.2751   15.8491   22.6808 C   0  0  0  0  0  0  0  0  0  0  0  0
   30.0371   16.0916   21.8234 C   0  0  0  0  0  0  0  0  0  0  0  0
   28.8986   15.1335   22.1448 C   0  0  0  0  0  0  0  0  0  0  0  0
   27.7018   15.3759   21.2243 C   0  0  0  0  0  0  0  0  0  0  0  0
   27.9932   15.1533   19.7555 N   0  0  0  0  0  0  0  0  0  0  0  0
   32.3008   16.7692   19.8823 O   0  0  0  0  0  0  0  0  0  0  0  0
  2  1  1  6  0  0  0
  2  3  1  0  0  0  0
  2  5  1  0  0  0  0
  3  4  1  0  0  0  0
  3 10  1  0  0  0  0
  5  6  1  0  0  0  0
  6  7  1  0  0  0  0
  7  8  1  0  0  0  0
  8  9  1  0  0  0  0
M  END
>  <CHROM.1>
127.05182210,60.97356984,176.58079332,-177.69104734,61.73605810,30.99504075
16.17096350,21.35702822,0.11801316,0.25978622,1.26447918

>  <Name>
ligand

>  <RI>
0

>  <Rbt.Current_Directory>
/home/itssahil/PROJECTS/Mol_Feturizer/New_Systems/rnas/3DIM

>  <Rbt.Executable>
rbdock ($Id: //depot/dev/client3/rdock/2013.1/src/exe/rbdock.cxx#4 $)

>  <Rbt.Library>
libRbt.so (2013.1, Build901 2013/11/27)

>  <Rbt.Parameter_File>
/export/apps/rDock/src/rDock_2013.1_src/data/scripts/dock_solv.prm

>  <Rbt.Receptor>
prm/pocket_docking_8.prm

>  <SCORE>
-10.3069

>  <SCORE.INTER>
-7.96498

>  <SCORE.INTER.CONST>
1

>  <SCORE.INTER.POLAR>
0

>  <SCORE.INTER.ROT>
5

>  <SCORE.INTER.SOLV>
12.3376

>  <SCORE.INTER.VDW>
-16.3559

>  <SCORE.INTER.norm>
-0.796498

>  <SCORE.INTRA>
-2.34191

>  <SCORE.INTRA.DIHEDRAL>
-4.31105

>  <SCORE.INTRA.DIHEDRAL.0>
5.8785

>  <SCORE.INTRA.POLAR>
0

>  <SCORE.INTRA.POLAR.0>
0

>  <SCORE.INTRA.REPUL>
0

>  <SCORE.INTRA.REPUL.0>
0

>  <SCORE.INTRA.SOLV>
-0.0882068

>  <SCORE.INTRA.SOLV.lig_0>
-31.9559

>  <SCORE.INTRA.VDW>
-0.142279

>  <SCORE.INTRA.VDW.0>
-0.507645

>  <SCORE.INTRA.norm>
-0.234191

>  <SCORE.RESTR>
0

>  <SCORE.RESTR.CAVITY>
0

>  <SCORE.RESTR.norm>
0

>  <SCORE.SYSTEM>
0

>  <SCORE.SYSTEM.CONST>
0

>  <SCORE.SYSTEM.DIHEDRAL>
0

>  <SCORE.SYSTEM.SOLV>
0

>  <SCORE.SYSTEM.norm>
0

>  <SCORE.heavy>
10

>  <SCORE.norm>
-1.03069

>  <RMSD>
1.852

$$$$
ligand
 OpenBabel11021811473D
libRbt.so/2013.1/901 2013/11/27
 10  9  0  0  0  0  0  0  0  0999 V2000
   31.1282   16.7538   22.6805 N   0  0  0  0  0  0  0  0  0  0  0  0
   31.2288   15.8780   21.4834 C   0  0  2  0  0  0  0  0  0  0  0  0
   32.4955   16.1750   20.6801 C   0  0  0  0  0  0  0  0  0  0  0  0
   32.7348   15.5820   19.6329 O   0  0  0  0  0  0  0  0  0  0  0  0
   29.9614   15.9965   20.6293 C   0  0  0  0  0  0  0  0  0  0  0  0
   28.7046   15.5381   21.3620 C   0  0  0  0  0  0  0  0  0  0  0  0
   27.4564   15.6042   20.4931 C   0  0  0  0  0  0  0  0  0  0  0  0
   27.4496   14.4795   19.4570 C   0  0  0  0  0  0  0  0  0  0  0  0
   28.5677   14.5654   18.4401 N   0  0  0  0  0  0  0  0  0  0  0  0
   33.3082   17.0324   21.0065 O   0  0  0  0  0  0  0  0  0  0  0  0
  2  1  1  1  0  0  0
  2  3  1  0  0  0  0
  2  5  1  0  0  0  0
  3  4  1  0  0  0  0
  3 10  1  0  0  0  0
  5  6  1  0  0  0  0
  6  7  1  0  0  0  0
  7  8  1  0  0  0  0
  8  9  1  0  0  0  0
M  END
>  <CHROM.1>
-177.72183110,-62.32606102,-177.69291723,73.80810230,-64.49230881,30.34169629
15.76904410,20.57129731,0.34199675,0.17924593,1.15067396

>  <Name>
ligand

>  <RI>
0

>  <Rbt.Current_Directory>
/home/itssahil/PROJECTS/Mol_Feturizer/New_Systems/rnas/3DIM

>  <Rbt.Executable>
rbdock ($Id: //depot/dev/client3/rdock/2013.1/src/exe/rbdock.cxx#4 $)

>  <Rbt.Library>
libRbt.so (2013.1, Build901 2013/11/27)

>  <Rbt.Parameter_File>
/export/apps/rDock/src/rDock_2013.1_src/data/scripts/dock_solv.prm

>  <Rbt.Receptor>
prm/pocket_docking_6.prm

>  <SCORE>
-9.3933

>  <SCORE.INTER>
-8.76052

>  <SCORE.INTER.CONST>
1

>  <SCORE.INTER.POLAR>
0

>  <SCORE.INTER.ROT>
5

>  <SCORE.INTER.SOLV>
12.0828

>  <SCORE.INTER.VDW>
-16.8013

>  <SCORE.INTER.norm>
-0.876052

>  <SCORE.INTRA>
-0.632779

>  <SCORE.INTRA.DIHEDRAL>
-3.48026

>  <SCORE.INTRA.DIHEDRAL.0>
5.8785

>  <SCORE.INTRA.POLAR>
0

>  <SCORE.INTRA.POLAR.0>
0

>  <SCORE.INTRA.REPUL>
0

>  <SCORE.INTRA.REPUL.0>
0

>  <SCORE.INTRA.SOLV>
1.35099

>  <SCORE.INTRA.SOLV.lig_0>
-31.9559

>  <SCORE.INTRA.VDW>
0.431859

>  <SCORE.INTRA.VDW.0>
-0.507645

>  <SCORE.INTRA.norm>
-0.0632779

>  <SCORE.RESTR>
0

>  <SCORE.RESTR.CAVITY>
0

>  <SCORE.RESTR.norm>
0

>  <SCORE.SYSTEM>
0

>  <SCORE.SYSTEM.CONST>
0

>  <SCORE.SYSTEM.DIHEDRAL>
0

>  <SCORE.SYSTEM.SOLV>
0

>  <SCORE.SYSTEM.norm>
0

>  <SCORE.heavy>
10

>  <SCORE.norm>
-0.93933

>  <RMSD>
1.862

$$$$
ligand
 OpenBabel11021811473D
libRbt.so/2013.1/901 2013/11/27
 10  9  0  0  0  0  0  0  0  0999 V2000
   31.3092   17.7146   22.7631 N   0  0  0  0  0  0  0  0  0  0  0  0
   31.6545   16.3122   22.4104 C   0  0  2  0  0  0  0  0  0  0  0  0
   32.1699   16.2091   20.9746 C   0  0  0  0  0  0  0  0  0  0  0  0
   31.8106   17.0066   20.1140 O   0  0  0  0  0  0  0  0  0  0  0  0
   30.4564   15.3897   22.6623 C   0  0  0  0  0  0  0  0  0  0  0  0
   29.2606   15.7102   21.7712 C   0  0  0  0  0  0  0  0  0  0  0  0
   28.0895   14.7624   21.9901 C   0  0  0  0  0  0  0  0  0  0  0  0
   26.9877   15.0052   20.9579 C   0  0  0  0  0  0  0  0  0  0  0  0
   27.4199   14.7821   19.5244 N   0  0  0  0  0  0  0  0  0  0  0  0
   32.9855   15.3674   20.6160 O   0  0  0  0  0  0  0  0  0  0  0  0
  2  1  1  6  0  0  0
  2  3  1  0  0  0  0
  2  5  1  0  0  0  0
  3  4  1  0  0  0  0
  3 10  1  0  0  0  0
  5  6  1  0  0  0  0
  6  7  1  0  0  0  0
  7  8  1  0  0  0  0
  8  9  1  0  0  0  0
M  END
>  <CHROM.1>
-28.20643236,64.09441851,178.03158631,-172.71931014,61.13766293,30.23743496
15.82696805,21.34853139,0.17667740,0.28117954,1.30244585

>  <Name>
ligand

>  <RI>
0

>  <Rbt.Current_Directory>
/home/itssahil/PROJECTS/Mol_Feturizer/New_Systems/rnas/3DIM

>  <Rbt.Executable>
rbdock ($Id: //depot/dev/client3/rdock/2013.1/src/exe/rbdock.cxx#4 $)

>  <Rbt.Library>
libRbt.so (2013.1, Build901 2013/11/27)

>  <Rbt.Parameter_File>
/export/apps/rDock/src/rDock_2013.1_src/data/scripts/dock_solv.prm

>  <Rbt.Receptor>
prm/blind_docking_60.prm

>  <SCORE>
-10.2005

>  <SCORE.INTER>
-8.00609

>  <SCORE.INTER.CONST>
1

>  <SCORE.INTER.POLAR>
0

>  <SCORE.INTER.ROT>
5

>  <SCORE.INTER.SOLV>
14.344

>  <SCORE.INTER.VDW>
-17.052

>  <SCORE.INTER.norm>
-0.800609

>  <SCORE.INTRA>
-2.19444

>  <SCORE.INTRA.DIHEDRAL>
-3.99294

>  <SCORE.INTRA.DIHEDRAL.0>
5.8785

>  <SCORE.INTRA.POLAR>
0

>  <SCORE.INTRA.POLAR.0>
0

>  <SCORE.INTRA.REPUL>
0

>  <SCORE.INTRA.REPUL.0>
0

>  <SCORE.INTRA.SOLV>
-0.0507959

>  <SCORE.INTRA.SOLV.lig_0>
-31.9559

>  <SCORE.INTRA.VDW>
-0.172578

>  <SCORE.INTRA.VDW.0>
-0.507645

>  <SCORE.INTRA.norm>
-0.219444

>  <SCORE.RESTR>
0

>  <SCORE.RESTR.CAVITY>
0

>  <SCORE.RESTR.norm>
0

>  <SCORE.SYSTEM>
0

>  <SCORE.SYSTEM.CONST>
0

>  <SCORE.SYSTEM.DIHEDRAL>
0

>  <SCORE.SYSTEM.SOLV>
0

>  <SCORE.SYSTEM.norm>
0

>  <SCORE.heavy>
10

>  <SCORE.norm>
-1.02005

>  <RMSD>
1.868

$$$$
ligand
 OpenBabel11021811473D
libRbt.so/2013.1/901 2013/11/27
 10  9  0  0  0  0  0  0  0  0999 V2000
   31.1932   15.8289   22.7986 N   0  0  0  0  0  0  0  0  0  0  0  0
   31.0470   15.5985   21.3371 C   0  0  2  0  0  0  0  0  0  0  0  0
   32.3318   15.9493   20.5861 C   0  0  0  0  0  0  0  0  0  0  0  0
   32.5571   15.4934   19.4693 O   0  0  0  0  0  0  0  0  0  0  0  0
   29.8339   16.3638   20.7964 C   0  0  0  0  0  0  0  0  0  0  0  0
   28.5270   15.9629   21.4732 C   0  0  0  0  0  0  0  0  0  0  0  0
   28.0583   14.5703   21.0752 C   0  0  0  0  0  0  0  0  0  0  0  0
   27.5367   14.5574   19.6378 C   0  0  0  0  0  0  0  0  0  0  0  0
   28.6089   14.7500   18.5866 N   0  0  0  0  0  0  0  0  0  0  0  0
   33.1749   16.7213   21.0282 O   0  0  0  0  0  0  0  0  0  0  0  0
  2  1  1  1  0  0  0
  2  3  1  0  0  0  0
  2  5  1  0  0  0  0
  3  4  1  0  0  0  0
  3 10  1  0  0  0  0
  5  6  1  0  0  0  0
  6  7  1  0  0  0  0
  7  8  1  0  0  0  0
  8  9  1  0  0  0  0
M  END
>  <CHROM.1>
159.28299393,-58.85225872,-71.27262960,-72.28402921,69.37508015,30.32446039
15.58899568,20.66344532,0.23618003,0.22409803,1.31749910

>  <Name>
ligand

>  <RI>
0

>  <Rbt.Current_Directory>
/home/itssahil/PROJECTS/Mol_Feturizer/New_Systems/rnas/3DIM

>  <Rbt.Executable>
rbdock ($Id: //depot/dev/client3/rdock/2013.1/src/exe/rbdock.cxx#4 $)

>  <Rbt.Library>
libRbt.so (2013.1, Build901 2013/11/27)

>  <Rbt.Parameter_File>
/export/apps/rDock/src/rDock_2013.1_src/data/scripts/dock_solv.prm

>  <Rbt.Receptor>
prm/pocket_docking_8.prm

>  <SCORE>
-8.5048

>  <SCORE.INTER>
-8.34162

>  <SCORE.INTER.CONST>
1

>  <SCORE.INTER.POLAR>
0

>  <SCORE.INTER.ROT>
5

>  <SCORE.INTER.SOLV>
13.5918

>  <SCORE.INTER.VDW>
-17.025

>  <SCORE.INTER.norm>
-0.834162

>  <SCORE.INTRA>
-0.163182

>  <SCORE.INTRA.DIHEDRAL>
-2.99173

>  <SCORE.INTRA.DIHEDRAL.0>
5.8785

>  <SCORE.INTRA.POLAR>
0

>  <SCORE.INTRA.POLAR.0>
0

>  <SCORE.INTRA.REPUL>
0

>  <SCORE.INTRA.REPUL.0>
0

>  <SCORE.INTRA.SOLV>
2.1442

>  <SCORE.INTRA.SOLV.lig_0>
-31.9559

>  <SCORE.INTRA.VDW>
0.260584

>  <SCORE.INTRA.VDW.0>
-0.507645

>  <SCORE.INTRA.norm>
-0.0163182

>  <SCORE.RESTR>
0

>  <SCORE.RESTR.CAVITY>
0

>  <SCORE.RESTR.norm>
0

>  <SCORE.SYSTEM>
0

>  <SCORE.SYSTEM.CONST>
0

>  <SCORE.SYSTEM.DIHEDRAL>
0

>  <SCORE.SYSTEM.SOLV>
0

>  <SCORE.SYSTEM.norm>
0

>  <SCORE.heavy>
10

>  <SCORE.norm>
-0.85048

>  <RMSD>
1.870

$$$$
ligand
 OpenBabel11021811473D
libRbt.so/2013.1/901 2013/11/27
 10  9  0  0  0  0  0  0  0  0999 V2000
   31.2090   16.6574   22.5951 N   0  0  0  0  0  0  0  0  0  0  0  0
   31.2916   15.8100   21.3763 C   0  0  2  0  0  0  0  0  0  0  0  0
   32.5283   16.1498   20.5439 C   0  0  0  0  0  0  0  0  0  0  0  0
   32.7639   15.5641   19.4916 O   0  0  0  0  0  0  0  0  0  0  0  0
   29.9978   15.9217   20.5618 C   0  0  0  0  0  0  0  0  0  0  0  0
   28.7654   15.4661   21.3366 C   0  0  0  0  0  0  0  0  0  0  0  0
   27.4844   15.5635   20.5199 C   0  0  0  0  0  0  0  0  0  0  0  0
   27.4351   14.4762   19.4458 C   0  0  0  0  0  0  0  0  0  0  0  0
   28.5150   14.5956   18.3916 N   0  0  0  0  0  0  0  0  0  0  0  0
   33.3181   17.0354   20.8509 O   0  0  0  0  0  0  0  0  0  0  0  0
  2  1  1  1  0  0  0
  2  3  1  0  0  0  0
  2  5  1  0  0  0  0
  3  4  1  0  0  0  0
  3 10  1  0  0  0  0
  5  6  1  0  0  0  0
  6  7  1  0  0  0  0
  7  8  1  0  0  0  0
  8  9  1  0  0  0  0
M  END
>  <CHROM.1>
-179.32903469,-60.39411808,-179.35774550,72.58245135,-64.34901673,30.36849491
15.73341681,20.49520532,0.30877713,0.19623739,1.18383074

>  <Name>
ligand

>  <RI>
0

>  <Rbt.Current_Directory>
/home/itssahil/PROJECTS/Mol_Feturizer/New_Systems/rnas/3DIM

>  <Rbt.Executable>
rbdock ($Id: //depot/dev/client3/rdock/2013.1/src/exe/rbdock.cxx#4 $)

>  <Rbt.Library>
libRbt.so (2013.1, Build901 2013/11/27)

>  <Rbt.Parameter_File>
/export/apps/rDock/src/rDock_2013.1_src/data/scripts/dock_solv.prm

>  <Rbt.Receptor>
prm/pocket_docking_3.prm

>  <SCORE>
-9.42619

>  <SCORE.INTER>
-8.80069

>  <SCORE.INTER.CONST>
1

>  <SCORE.INTER.POLAR>
0

>  <SCORE.INTER.ROT>
5

>  <SCORE.INTER.SOLV>
12.2163

>  <SCORE.INTER.VDW>
-16.8726

>  <SCORE.INTER.norm>
-0.880069

>  <SCORE.INTRA>
-0.625503

>  <SCORE.INTRA.DIHEDRAL>
-3.66284

>  <SCORE.INTRA.DIHEDRAL.0>
5.8785

>  <SCORE.INTRA.POLAR>
0

>  <SCORE.INTRA.POLAR.0>
0

>  <SCORE.INTRA.REPUL>
0

>  <SCORE.INTRA.REPUL.0>
0

>  <SCORE.INTRA.SOLV>
1.39856

>  <SCORE.INTRA.SOLV.lig_0>
-31.9559

>  <SCORE.INTRA.VDW>
0.506638

>  <SCORE.INTRA.VDW.0>
-0.507645

>  <SCORE.INTRA.norm>
-0.0625503

>  <SCORE.RESTR>
0

>  <SCORE.RESTR.CAVITY>
0

>  <SCORE.RESTR.norm>
0

>  <SCORE.SYSTEM>
0

>  <SCORE.SYSTEM.CONST>
0

>  <SCORE.SYSTEM.DIHEDRAL>
0

>  <SCORE.SYSTEM.SOLV>
0

>  <SCORE.SYSTEM.norm>
0

>  <SCORE.heavy>
10

>  <SCORE.norm>
-0.942619

>  <RMSD>
1.876

$$$$
ligand
 OpenBabel11021811473D
libRbt.so/2013.1/901 2013/11/27
 10  9  0  0  0  0  0  0  0  0999 V2000
   31.4050   17.6310   22.2744 N   0  0  0  0  0  0  0  0  0  0  0  0
   31.7057   16.1764   22.2111 C   0  0  2  0  0  0  0  0  0  0  0  0
   32.3077   15.7899   20.8598 C   0  0  0  0  0  0  0  0  0  0  0  0
   31.6162   15.2893   19.9784 O   0  0  0  0  0  0  0  0  0  0  0  0
   30.4514   15.3590   22.5405 C   0  0  0  0  0  0  0  0  0  0  0  0
   29.2813   15.6634   21.6106 C   0  0  0  0  0  0  0  0  0  0  0  0
   28.0492   14.8232   21.9165 C   0  0  0  0  0  0  0  0  0  0  0  0
   26.9573   15.0505   20.8704 C   0  0  0  0  0  0  0  0  0  0  0  0
   27.3706   14.7037   19.4560 N   0  0  0  0  0  0  0  0  0  0  0  0
   33.4815   15.9899   20.5692 O   0  0  0  0  0  0  0  0  0  0  0  0
  2  1  1  6  0  0  0
  2  3  1  0  0  0  0
  2  5  1  0  0  0  0
  3  4  1  0  0  0  0
  3 10  1  0  0  0  0
  5  6  1  0  0  0  0
  6  7  1  0  0  0  0
  7  8  1  0  0  0  0
  8  9  1  0  0  0  0
M  END
>  <CHROM.1>
-99.20428491,57.81328290,178.45648990,-173.84521555,59.72497107,30.28724034
15.64143536,21.20035110,0.17012559,0.19687838,1.15758240

>  <Name>
ligand

>  <RI>
0

>  <Rbt.Current_Directory>
/home/itssahil/PROJECTS/Mol_Feturizer/New_Systems/rnas/3DIM

>  <Rbt.Executable>
rbdock ($Id: //depot/dev/client3/rdock/2013.1/src/exe/rbdock.cxx#4 $)

>  <Rbt.Library>
libRbt.so (2013.1, Build901 2013/11/27)

>  <Rbt.Parameter_File>
/export/apps/rDock/src/rDock_2013.1_src/data/scripts/dock_solv.prm

>  <Rbt.Receptor>
prm/pocket_docking_3.prm

>  <SCORE>
-11.1382

>  <SCORE.INTER>
-9.6456

>  <SCORE.INTER.CONST>
1

>  <SCORE.INTER.POLAR>
0

>  <SCORE.INTER.ROT>
5

>  <SCORE.INTER.SOLV>
14.2416

>  <SCORE.INTER.VDW>
-18.1109

>  <SCORE.INTER.norm>
-0.96456

>  <SCORE.INTRA>
-1.49256

>  <SCORE.INTRA.DIHEDRAL>
-4.25038

>  <SCORE.INTRA.DIHEDRAL.0>
5.8785

>  <SCORE.INTRA.POLAR>
0

>  <SCORE.INTRA.POLAR.0>
0

>  <SCORE.INTRA.REPUL>
0

>  <SCORE.INTRA.REPUL.0>
0

>  <SCORE.INTRA.SOLV>
0.0230379

>  <SCORE.INTRA.SOLV.lig_0>
-31.9559

>  <SCORE.INTRA.VDW>
0.621113

>  <SCORE.INTRA.VDW.0>
-0.507645

>  <SCORE.INTRA.norm>
-0.149256

>  <SCORE.RESTR>
0

>  <SCORE.RESTR.CAVITY>
0

>  <SCORE.RESTR.norm>
0

>  <SCORE.SYSTEM>
0

>  <SCORE.SYSTEM.CONST>
0

>  <SCORE.SYSTEM.DIHEDRAL>
0

>  <SCORE.SYSTEM.SOLV>
0

>  <SCORE.SYSTEM.norm>
0

>  <SCORE.heavy>
10

>  <SCORE.norm>
-1.11382

>  <RMSD>
1.876

$$$$
ligand
 OpenBabel11021811473D
libRbt.so/2013.1/901 2013/11/27
 10  9  0  0  0  0  0  0  0  0999 V2000
   31.4152   17.6339   22.3240 N   0  0  0  0  0  0  0  0  0  0  0  0
   31.7108   16.1803   22.2237 C   0  0  2  0  0  0  0  0  0  0  0  0
   32.3001   15.8241   20.8584 C   0  0  0  0  0  0  0  0  0  0  0  0
   33.4821   16.0342   20.6046 O   0  0  0  0  0  0  0  0  0  0  0  0
   30.4570   15.3589   22.5444 C   0  0  0  0  0  0  0  0  0  0  0  0
   29.2875   15.6704   21.6160 C   0  0  0  0  0  0  0  0  0  0  0  0
   28.0574   14.8231   21.9100 C   0  0  0  0  0  0  0  0  0  0  0  0
   26.9652   15.0621   20.8669 C   0  0  0  0  0  0  0  0  0  0  0  0
   27.3667   14.6990   19.4532 N   0  0  0  0  0  0  0  0  0  0  0  0
   31.6509   15.2827   19.9709 O   0  0  0  0  0  0  0  0  0  0  0  0
  2  1  1  6  0  0  0
  2  3  1  0  0  0  0
  2  5  1  0  0  0  0
  3  4  1  0  0  0  0
  3 10  1  0  0  0  0
  5  6  1  0  0  0  0
  6  7  1  0  0  0  0
  7  8  1  0  0  0  0
  8  9  1  0  0  0  0
M  END
>  <CHROM.1>
79.15973445,58.85183964,178.26098479,-174.00428235,61.35505504,30.29446142
15.65064726,21.20914034,0.17716806,0.19854926,1.15850778

>  <Name>
ligand

>  <RI>
0

>  <Rbt.Current_Directory>
/home/itssahil/PROJECTS/Mol_Feturizer/New_Systems/rnas/3DIM

>  <Rbt.Executable>
rbdock ($Id: //depot/dev/client3/rdock/2013.1/src/exe/rbdock.cxx#4 $)

>  <Rbt.Library>
libRbt.so (2013.1, Build901 2013/11/27)

>  <Rbt.Parameter_File>
/export/apps/rDock/src/rDock_2013.1_src/data/scripts/dock_solv.prm

>  <Rbt.Receptor>
prm/pocket_docking_6.prm

>  <SCORE>
-11.2409

>  <SCORE.INTER>
-9.60993

>  <SCORE.INTER.CONST>
1

>  <SCORE.INTER.POLAR>
0

>  <SCORE.INTER.ROT>
5

>  <SCORE.INTER.SOLV>
14.2552

>  <SCORE.INTER.VDW>
-18.0917

>  <SCORE.INTER.norm>
-0.960993

>  <SCORE.INTRA>
-1.63096

>  <SCORE.INTRA.DIHEDRAL>
-4.13051

>  <SCORE.INTRA.DIHEDRAL.0>
5.8785

>  <SCORE.INTRA.POLAR>
0

>  <SCORE.INTRA.POLAR.0>
0

>  <SCORE.INTRA.REPUL>
0

>  <SCORE.INTRA.REPUL.0>
0

>  <SCORE.INTRA.SOLV>
-0.0309576

>  <SCORE.INTRA.SOLV.lig_0>
-31.9559

>  <SCORE.INTRA.VDW>
0.44977

>  <SCORE.INTRA.VDW.0>
-0.507645

>  <SCORE.INTRA.norm>
-0.163096

>  <SCORE.RESTR>
0

>  <SCORE.RESTR.CAVITY>
0

>  <SCORE.RESTR.norm>
0

>  <SCORE.SYSTEM>
0

>  <SCORE.SYSTEM.CONST>
0

>  <SCORE.SYSTEM.DIHEDRAL>
0

>  <SCORE.SYSTEM.SOLV>
0

>  <SCORE.SYSTEM.norm>
0

>  <SCORE.heavy>
10

>  <SCORE.norm>
-1.12409

>  <RMSD>
1.876

$$$$
ligand
 OpenBabel11021811473D
libRbt.so/2013.1/901 2013/11/27
 10  9  0  0  0  0  0  0  0  0999 V2000
   31.0688   17.5385   22.8645 N   0  0  0  0  0  0  0  0  0  0  0  0
   31.4167   16.1685   22.4036 C   0  0  2  0  0  0  0  0  0  0  0  0
   31.9865   16.1855   20.9848 C   0  0  0  0  0  0  0  0  0  0  0  0
   32.7481   15.3047   20.5977 O   0  0  0  0  0  0  0  0  0  0  0  0
   30.2027   15.2408   22.5281 C   0  0  0  0  0  0  0  0  0  0  0  0
   29.0312   15.6725   21.6519 C   0  0  0  0  0  0  0  0  0  0  0  0
   27.8194   14.7622   21.7946 C   0  0  0  0  0  0  0  0  0  0  0  0
   26.7844   15.0529   20.7073 C   0  0  0  0  0  0  0  0  0  0  0  0
   27.2797   14.8094   19.2976 N   0  0  0  0  0  0  0  0  0  0  0  0
   31.6908   17.0386   20.1560 O   0  0  0  0  0  0  0  0  0  0  0  0
  2  1  1  6  0  0  0
  2  3  1  0  0  0  0
  2  5  1  0  0  0  0
  3  4  1  0  0  0  0
  3 10  1  0  0  0  0
  5  6  1  0  0  0  0
  6  7  1  0  0  0  0
  7  8  1  0  0  0  0
  8  9  1  0  0  0  0
M  END
>  <CHROM.1>
153.90872311,62.55956999,-179.07562132,-168.49932952,62.08757342,30.02660205
15.77964084,21.26949347,0.21144683,0.26016832,1.34012814

>  <Name>
ligand

>  <RI>
0

>  <Rbt.Current_Directory>
/home/itssahil/PROJECTS/Mol_Feturizer/New_Systems/rnas/3DIM

>  <Rbt.Executable>
rbdock ($Id: //depot/dev/client3/rdock/2013.1/src/exe/rbdock.cxx#4 $)

>  <Rbt.Library>
libRbt.so (2013.1, Build901 2013/11/27)

>  <Rbt.Parameter_File>
/export/apps/rDock/src/rDock_2013.1_src/data/scripts/dock_solv.prm

>  <Rbt.Receptor>
prm/pocket_docking_3.prm

>  <SCORE>
-10.1909

>  <SCORE.INTER>
-8.03596

>  <SCORE.INTER.CONST>
1

>  <SCORE.INTER.POLAR>
0

>  <SCORE.INTER.ROT>
5

>  <SCORE.INTER.SOLV>
15.2638

>  <SCORE.INTER.VDW>
-17.3786

>  <SCORE.INTER.norm>
-0.803596

>  <SCORE.INTRA>
-2.15497

>  <SCORE.INTRA.DIHEDRAL>
-3.87693

>  <SCORE.INTRA.DIHEDRAL.0>
5.8785

>  <SCORE.INTRA.POLAR>
0

>  <SCORE.INTRA.POLAR.0>
0

>  <SCORE.INTRA.REPUL>
0

>  <SCORE.INTRA.REPUL.0>
0

>  <SCORE.INTRA.SOLV>
-0.0226657

>  <SCORE.INTRA.SOLV.lig_0>
-31.9559

>  <SCORE.INTRA.VDW>
-0.205169

>  <SCORE.INTRA.VDW.0>
-0.507645

>  <SCORE.INTRA.norm>
-0.215497

>  <SCORE.RESTR>
0

>  <SCORE.RESTR.CAVITY>
0

>  <SCORE.RESTR.norm>
0

>  <SCORE.SYSTEM>
0

>  <SCORE.SYSTEM.CONST>
0

>  <SCORE.SYSTEM.DIHEDRAL>
0

>  <SCORE.SYSTEM.SOLV>
0

>  <SCORE.SYSTEM.norm>
0

>  <SCORE.heavy>
10

>  <SCORE.norm>
-1.01909

>  <RMSD>
1.919

$$$$
ligand
 OpenBabel11021811473D
libRbt.so/2013.1/901 2013/11/27
 10  9  0  0  0  0  0  0  0  0999 V2000
   31.3303   17.5323   22.3684 N   0  0  0  0  0  0  0  0  0  0  0  0
   31.6005   16.0764   22.2358 C   0  0  2  0  0  0  0  0  0  0  0  0
   32.1910   15.7415   20.8657 C   0  0  0  0  0  0  0  0  0  0  0  0
   33.3768   15.9413   20.6213 O   0  0  0  0  0  0  0  0  0  0  0  0
   30.3303   15.2704   22.5306 C   0  0  0  0  0  0  0  0  0  0  0  0
   29.1697   15.6299   21.6085 C   0  0  0  0  0  0  0  0  0  0  0  0
   27.9241   14.7956   21.8733 C   0  0  0  0  0  0  0  0  0  0  0  0
   26.8600   15.0447   20.8038 C   0  0  0  0  0  0  0  0  0  0  0  0
   27.3014   14.7011   19.3970 N   0  0  0  0  0  0  0  0  0  0  0  0
   31.5387   15.2277   19.9642 O   0  0  0  0  0  0  0  0  0  0  0  0
  2  1  1  6  0  0  0
  2  3  1  0  0  0  0
  2  5  1  0  0  0  0
  3  4  1  0  0  0  0
  3 10  1  0  0  0  0
  5  6  1  0  0  0  0
  6  7  1  0  0  0  0
  7  8  1  0  0  0  0
  8  9  1  0  0  0  0
M  END
>  <CHROM.1>
78.85274796,58.54306178,178.09605856,-171.82482621,60.22684735,30.18744356
15.59012861,21.19879799,0.18020512,0.18391298,1.17685031

>  <Name>
ligand

>  <RI>
0

>  <Rbt.Current_Directory>
/home/itssahil/PROJECTS/Mol_Feturizer/New_Systems/rnas/3DIM

>  <Rbt.Executable>
rbdock ($Id: //depot/dev/client3/rdock/2013.1/src/exe/rbdock.cxx#4 $)

>  <Rbt.Library>
libRbt.so (2013.1, Build901 2013/11/27)

>  <Rbt.Parameter_File>
/export/apps/rDock/src/rDock_2013.1_src/data/scripts/dock_solv.prm

>  <Rbt.Receptor>
prm/pocket_docking_4.prm

>  <SCORE>
-11.1907

>  <SCORE.INTER>
-9.63623

>  <SCORE.INTER.CONST>
1

>  <SCORE.INTER.POLAR>
0

>  <SCORE.INTER.ROT>
5

>  <SCORE.INTER.SOLV>
14.4421

>  <SCORE.INTER.VDW>
-18.1715

>  <SCORE.INTER.norm>
-0.963623

>  <SCORE.INTRA>
-1.55445

>  <SCORE.INTRA.DIHEDRAL>
-4.00515

>  <SCORE.INTRA.DIHEDRAL.0>
5.8785

>  <SCORE.INTRA.POLAR>
0

>  <SCORE.INTRA.POLAR.0>
0

>  <SCORE.INTRA.REPUL>
0

>  <SCORE.INTRA.REPUL.0>
0

>  <SCORE.INTRA.SOLV>
0.00157504

>  <SCORE.INTRA.SOLV.lig_0>
-31.9559

>  <SCORE.INTRA.VDW>
0.447335

>  <SCORE.INTRA.VDW.0>
-0.507645

>  <SCORE.INTRA.norm>
-0.155445

>  <SCORE.RESTR>
0

>  <SCORE.RESTR.CAVITY>
0

>  <SCORE.RESTR.norm>
0

>  <SCORE.SYSTEM>
0

>  <SCORE.SYSTEM.CONST>
0

>  <SCORE.SYSTEM.DIHEDRAL>
0

>  <SCORE.SYSTEM.SOLV>
0

>  <SCORE.SYSTEM.norm>
0

>  <SCORE.heavy>
10

>  <SCORE.norm>
-1.11907

>  <RMSD>
1.920

$$$$
ligand
 OpenBabel11021811473D
libRbt.so/2013.1/901 2013/11/27
 10  9  0  0  0  0  0  0  0  0999 V2000
   31.1884   17.5054   22.4120 N   0  0  0  0  0  0  0  0  0  0  0  0
   31.4753   16.0525   22.2807 C   0  0  2  0  0  0  0  0  0  0  0  0
   32.1195   15.7311   20.9317 C   0  0  0  0  0  0  0  0  0  0  0  0
   31.4638   15.2408   20.0177 O   0  0  0  0  0  0  0  0  0  0  0  0
   30.2016   15.2346   22.5228 C   0  0  0  0  0  0  0  0  0  0  0  0
   29.0689   15.6003   21.5689 C   0  0  0  0  0  0  0  0  0  0  0  0
   27.8031   14.7918   21.8168 C   0  0  0  0  0  0  0  0  0  0  0  0
   26.7723   15.0354   20.7139 C   0  0  0  0  0  0  0  0  0  0  0  0
   27.2418   14.6462   19.3284 N   0  0  0  0  0  0  0  0  0  0  0  0
   33.2928   15.9761   20.6760 O   0  0  0  0  0  0  0  0  0  0  0  0
  2  1  1  6  0  0  0
  2  3  1  0  0  0  0
  2  5  1  0  0  0  0
  3  4  1  0  0  0  0
  3 10  1  0  0  0  0
  5  6  1  0  0  0  0
  6  7  1  0  0  0  0
  7  8  1  0  0  0  0
  8  9  1  0  0  0  0
M  END
>  <CHROM.1>
-101.93771370,57.97523669,-179.68158113,-171.40546374,60.64112069,30.08827573
15.57652963,21.19907310,0.20458656,0.18049364,1.17959852

>  <Name>
ligand

>  <RI>
0

>  <Rbt.Current_Directory>
/home/itssahil/PROJECTS/Mol_Feturizer/New_Systems/rnas/3DIM

>  <Rbt.Executable>
rbdock ($Id: //depot/dev/client3/rdock/2013.1/src/exe/rbdock.cxx#4 $)

>  <Rbt.Library>
libRbt.so (2013.1, Build901 2013/11/27)

>  <Rbt.Parameter_File>
/export/apps/rDock/src/rDock_2013.1_src/data/scripts/dock_solv.prm

>  <Rbt.Receptor>
prm/pocket_docking_3.prm

>  <SCORE>
-11.1342

>  <SCORE.INTER>
-9.72169

>  <SCORE.INTER.CONST>
1

>  <SCORE.INTER.POLAR>
0

>  <SCORE.INTER.ROT>
5

>  <SCORE.INTER.SOLV>
14.8731

>  <SCORE.INTER.VDW>
-18.3722

>  <SCORE.INTER.norm>
-0.972169

>  <SCORE.INTRA>
-1.41248

>  <SCORE.INTRA.DIHEDRAL>
-4.10747

>  <SCORE.INTRA.DIHEDRAL.0>
5.8785

>  <SCORE.INTRA.POLAR>
0

>  <SCORE.INTRA.POLAR.0>
0

>  <SCORE.INTRA.REPUL>
0

>  <SCORE.INTRA.REPUL.0>
0

>  <SCORE.INTRA.SOLV>
0.0326111

>  <SCORE.INTRA.SOLV.lig_0>
-31.9559

>  <SCORE.INTRA.VDW>
0.624944

>  <SCORE.INTRA.VDW.0>
-0.507645

>  <SCORE.INTRA.norm>
-0.141248

>  <SCORE.RESTR>
0

>  <SCORE.RESTR.CAVITY>
0

>  <SCORE.RESTR.norm>
0

>  <SCORE.SYSTEM>
0

>  <SCORE.SYSTEM.CONST>
0

>  <SCORE.SYSTEM.DIHEDRAL>
0

>  <SCORE.SYSTEM.SOLV>
0

>  <SCORE.SYSTEM.norm>
0

>  <SCORE.heavy>
10

>  <SCORE.norm>
-1.11342

>  <RMSD>
1.937

$$$$
ligand
 OpenBabel11021811473D
libRbt.so/2013.1/901 2013/11/27
 10  9  0  0  0  0  0  0  0  0999 V2000
   32.7439   17.1868   22.7064 N   0  0  0  0  0  0  0  0  0  0  0  0
   31.9488   16.1332   22.0222 C   0  0  2  0  0  0  0  0  0  0  0  0
   32.2615   16.0820   20.5263 C   0  0  0  0  0  0  0  0  0  0  0  0
   33.0076   16.9060   20.0068 O   0  0  0  0  0  0  0  0  0  0  0  0
   30.4536   16.3343   22.2938 C   0  0  0  0  0  0  0  0  0  0  0  0
   29.5850   15.2394   21.6829 C   0  0  0  0  0  0  0  0  0  0  0  0
   28.0969   15.4742   21.9019 C   0  0  0  0  0  0  0  0  0  0  0  0
   27.2600   14.5464   21.0203 C   0  0  0  0  0  0  0  0  0  0  0  0
   27.4974   14.7201   19.5353 N   0  0  0  0  0  0  0  0  0  0  0  0
   31.8273   15.2102   19.7822 O   0  0  0  0  0  0  0  0  0  0  0  0
  2  1  1  6  0  0  0
  2  3  1  0  0  0  0
  2  5  1  0  0  0  0
  3  4  1  0  0  0  0
  3 10  1  0  0  0  0
  5  6  1  0  0  0  0
  6  7  1  0  0  0  0
  7  8  1  0  0  0  0
  8  9  1  0  0  0  0
M  END
>  <CHROM.1>
-5.13368935,-176.79859492,-177.47871795,167.19869464,-60.15964738,30.48662459
15.78413844,21.11541310,0.15978059,0.30547657,1.26900108

>  <Name>
ligand

>  <RI>
0

>  <Rbt.Current_Directory>
/home/itssahil/PROJECTS/Mol_Feturizer/New_Systems/rnas/3DIM

>  <Rbt.Executable>
rbdock ($Id: //depot/dev/client3/rdock/2013.1/src/exe/rbdock.cxx#4 $)

>  <Rbt.Library>
libRbt.so (2013.1, Build901 2013/11/27)

>  <Rbt.Parameter_File>
/export/apps/rDock/src/rDock_2013.1_src/data/scripts/dock_solv.prm

>  <Rbt.Receptor>
prm/pocket_docking_5.prm

>  <SCORE>
-9.98428

>  <SCORE.INTER>
-7.85653

>  <SCORE.INTER.CONST>
1

>  <SCORE.INTER.POLAR>
0

>  <SCORE.INTER.ROT>
5

>  <SCORE.INTER.SOLV>
14.167

>  <SCORE.INTER.VDW>
-16.8934

>  <SCORE.INTER.norm>
-0.785653

>  <SCORE.INTRA>
-2.12776

>  <SCORE.INTRA.DIHEDRAL>
-3.62172

>  <SCORE.INTRA.DIHEDRAL.0>
5.8785

>  <SCORE.INTRA.POLAR>
0

>  <SCORE.INTRA.POLAR.0>
0

>  <SCORE.INTRA.REPUL>
0

>  <SCORE.INTRA.REPUL.0>
0

>  <SCORE.INTRA.SOLV>
-0.848643

>  <SCORE.INTRA.SOLV.lig_0>
-31.9559

>  <SCORE.INTRA.VDW>
0.107424

>  <SCORE.INTRA.VDW.0>
-0.507645

>  <SCORE.INTRA.norm>
-0.212776

>  <SCORE.RESTR>
0

>  <SCORE.RESTR.CAVITY>
0

>  <SCORE.RESTR.norm>
0

>  <SCORE.SYSTEM>
0

>  <SCORE.SYSTEM.CONST>
0

>  <SCORE.SYSTEM.DIHEDRAL>
0

>  <SCORE.SYSTEM.SOLV>
0

>  <SCORE.SYSTEM.norm>
0

>  <SCORE.heavy>
10

>  <SCORE.norm>
-0.998428

>  <RMSD>
1.950

$$$$
ligand
 OpenBabel11021811473D
libRbt.so/2013.1/901 2013/11/27
 10  9  0  0  0  0  0  0  0  0999 V2000
   31.2305   17.4917   22.4058 N   0  0  0  0  0  0  0  0  0  0  0  0
   31.4937   16.0363   22.2541 C   0  0  2  0  0  0  0  0  0  0  0  0
   32.0965   15.7184   20.8854 C   0  0  0  0  0  0  0  0  0  0  0  0
   33.2849   15.9190   20.6548 O   0  0  0  0  0  0  0  0  0  0  0  0
   30.2159   15.2336   22.5237 C   0  0  0  0  0  0  0  0  0  0  0  0
   29.0732   15.5992   21.5818 C   0  0  0  0  0  0  0  0  0  0  0  0
   27.8081   14.7952   21.8472 C   0  0  0  0  0  0  0  0  0  0  0  0
   26.7722   15.0239   20.7459 C   0  0  0  0  0  0  0  0  0  0  0  0
   27.2439   14.6384   19.3600 N   0  0  0  0  0  0  0  0  0  0  0  0
   31.4519   15.2179   19.9710 O   0  0  0  0  0  0  0  0  0  0  0  0
  2  1  1  6  0  0  0
  2  3  1  0  0  0  0
  2  5  1  0  0  0  0
  3  4  1  0  0  0  0
  3 10  1  0  0  0  0
  5  6  1  0  0  0  0
  6  7  1  0  0  0  0
  7  8  1  0  0  0  0
  8  9  1  0  0  0  0
M  END
>  <CHROM.1>
78.60249064,59.38155480,179.69433901,-170.66888989,59.58527409,30.09248543
15.56175188,21.19508809,0.19375587,0.18030843,1.17672465

>  <Name>
ligand

>  <RI>
0

>  <Rbt.Current_Directory>
/home/itssahil/PROJECTS/Mol_Feturizer/New_Systems/rnas/3DIM

>  <Rbt.Executable>
rbdock ($Id: //depot/dev/client3/rdock/2013.1/src/exe/rbdock.cxx#4 $)

>  <Rbt.Library>
libRbt.so (2013.1, Build901 2013/11/27)

>  <Rbt.Parameter_File>
/export/apps/rDock/src/rDock_2013.1_src/data/scripts/dock_solv.prm

>  <Rbt.Receptor>
prm/pocket_docking_5.prm

>  <SCORE>
-11.2455

>  <SCORE.INTER>
-9.76259

>  <SCORE.INTER.CONST>
1

>  <SCORE.INTER.POLAR>
0

>  <SCORE.INTER.ROT>
5

>  <SCORE.INTER.SOLV>
14.7541

>  <SCORE.INTER.VDW>
-18.3597

>  <SCORE.INTER.norm>
-0.976259

>  <SCORE.INTRA>
-1.48289

>  <SCORE.INTRA.DIHEDRAL>
-3.94707

>  <SCORE.INTRA.DIHEDRAL.0>
5.8785

>  <SCORE.INTRA.POLAR>
0

>  <SCORE.INTRA.POLAR.0>
0

>  <SCORE.INTRA.REPUL>
0

>  <SCORE.INTRA.REPUL.0>
0

>  <SCORE.INTRA.SOLV>
0.0143178

>  <SCORE.INTRA.SOLV.lig_0>
-31.9559

>  <SCORE.INTRA.VDW>
0.483485

>  <SCORE.INTRA.VDW.0>
-0.507645

>  <SCORE.INTRA.norm>
-0.148289

>  <SCORE.RESTR>
0

>  <SCORE.RESTR.CAVITY>
0

>  <SCORE.RESTR.norm>
0

>  <SCORE.SYSTEM>
0

>  <SCORE.SYSTEM.CONST>
0

>  <SCORE.SYSTEM.DIHEDRAL>
0

>  <SCORE.SYSTEM.SOLV>
0

>  <SCORE.SYSTEM.norm>
0

>  <SCORE.heavy>
10

>  <SCORE.norm>
-1.12455

>  <RMSD>
1.952

$$$$
ligand
 OpenBabel11021811473D
libRbt.so/2013.1/901 2013/11/27
 10  9  0  0  0  0  0  0  0  0999 V2000
   31.2302   17.4922   22.3677 N   0  0  0  0  0  0  0  0  0  0  0  0
   31.4992   16.0361   22.2354 C   0  0  2  0  0  0  0  0  0  0  0  0
   32.1005   15.7020   20.8698 C   0  0  0  0  0  0  0  0  0  0  0  0
   31.4113   15.2240   19.9742 O   0  0  0  0  0  0  0  0  0  0  0  0
   30.2254   15.2317   22.5187 C   0  0  0  0  0  0  0  0  0  0  0  0
   29.0629   15.6180   21.6099 C   0  0  0  0  0  0  0  0  0  0  0  0
   27.8169   14.7783   21.8548 C   0  0  0  0  0  0  0  0  0  0  0  0
   26.7823   14.9978   20.7505 C   0  0  0  0  0  0  0  0  0  0  0  0
   27.2760   14.6571   19.3605 N   0  0  0  0  0  0  0  0  0  0  0  0
   33.2710   15.9247   20.5823 O   0  0  0  0  0  0  0  0  0  0  0  0
  2  1  1  6  0  0  0
  2  3  1  0  0  0  0
  2  5  1  0  0  0  0
  3  4  1  0  0  0  0
  3 10  1  0  0  0  0
  5  6  1  0  0  0  0
  6  7  1  0  0  0  0
  7  8  1  0  0  0  0
  8  9  1  0  0  0  0
M  END
>  <CHROM.1>
-101.33498837,57.14199264,177.63463040,-168.53994878,59.08534984,30.09208983
15.56097082,21.18394756,0.18430416,0.18744386,1.18450656

>  <Name>
ligand

>  <RI>
0

>  <Rbt.Current_Directory>
/home/itssahil/PROJECTS/Mol_Feturizer/New_Systems/rnas/3DIM

>  <Rbt.Executable>
rbdock ($Id: //depot/dev/client3/rdock/2013.1/src/exe/rbdock.cxx#4 $)

>  <Rbt.Library>
libRbt.so (2013.1, Build901 2013/11/27)

>  <Rbt.Parameter_File>
/export/apps/rDock/src/rDock_2013.1_src/data/scripts/dock_solv.prm

>  <Rbt.Receptor>
prm/pocket_docking_7.prm

>  <SCORE>
-11.1435

>  <SCORE.INTER>
-9.85422

>  <SCORE.INTER.CONST>
1

>  <SCORE.INTER.POLAR>
0

>  <SCORE.INTER.ROT>
5

>  <SCORE.INTER.SOLV>
14.608

>  <SCORE.INTER.VDW>
-18.3721

>  <SCORE.INTER.norm>
-0.985422

>  <SCORE.INTRA>
-1.2893

>  <SCORE.INTRA.DIHEDRAL>
-3.83671

>  <SCORE.INTRA.DIHEDRAL.0>
5.8785

>  <SCORE.INTRA.POLAR>
0

>  <SCORE.INTRA.POLAR.0>
0

>  <SCORE.INTRA.REPUL>
0

>  <SCORE.INTRA.REPUL.0>
0

>  <SCORE.INTRA.SOLV>
0.0713342

>  <SCORE.INTRA.SOLV.lig_0>
-31.9559

>  <SCORE.INTRA.VDW>
0.593389

>  <SCORE.INTRA.VDW.0>
-0.507645

>  <SCORE.INTRA.norm>
-0.12893

>  <SCORE.RESTR>
0

>  <SCORE.RESTR.CAVITY>
0

>  <SCORE.RESTR.norm>
0

>  <SCORE.SYSTEM>
0

>  <SCORE.SYSTEM.CONST>
0

>  <SCORE.SYSTEM.DIHEDRAL>
0

>  <SCORE.SYSTEM.SOLV>
0

>  <SCORE.SYSTEM.norm>
0

>  <SCORE.heavy>
10

>  <SCORE.norm>
-1.11435

>  <RMSD>
1.952

$$$$
ligand
 OpenBabel11021811473D
libRbt.so/2013.1/901 2013/11/27
 10  9  0  0  0  0  0  0  0  0999 V2000
   31.2378   17.4796   22.3934 N   0  0  0  0  0  0  0  0  0  0  0  0
   31.5023   16.0250   22.2370 C   0  0  2  0  0  0  0  0  0  0  0  0
   32.1008   15.7115   20.8653 C   0  0  0  0  0  0  0  0  0  0  0  0
   33.2849   15.9272   20.6268 O   0  0  0  0  0  0  0  0  0  0  0  0
   30.2266   15.2198   22.5090 C   0  0  0  0  0  0  0  0  0  0  0  0
   29.0736   15.6015   21.5862 C   0  0  0  0  0  0  0  0  0  0  0  0
   27.8240   14.7654   21.8247 C   0  0  0  0  0  0  0  0  0  0  0  0
   26.7707   15.0349   20.7493 C   0  0  0  0  0  0  0  0  0  0  0  0
   27.2269   14.7197   19.3407 N   0  0  0  0  0  0  0  0  0  0  0  0
   31.4571   15.2000   19.9563 O   0  0  0  0  0  0  0  0  0  0  0  0
  2  1  1  6  0  0  0
  2  3  1  0  0  0  0
  2  5  1  0  0  0  0
  3  4  1  0  0  0  0
  3 10  1  0  0  0  0
  5  6  1  0  0  0  0
  6  7  1  0  0  0  0
  7  8  1  0  0  0  0
  8  9  1  0  0  0  0
M  END
>  <CHROM.1>
77.83868164,58.49612141,177.90800870,-171.56916906,59.99998973,30.09578226
15.56288048,21.18088904,0.18615394,0.17829772,1.19252424

>  <Name>
ligand

>  <RI>
0

>  <Rbt.Current_Directory>
/home/itssahil/PROJECTS/Mol_Feturizer/New_Systems/rnas/3DIM

>  <Rbt.Executable>
rbdock ($Id: //depot/dev/client3/rdock/2013.1/src/exe/rbdock.cxx#4 $)

>  <Rbt.Library>
libRbt.so (2013.1, Build901 2013/11/27)

>  <Rbt.Parameter_File>
/export/apps/rDock/src/rDock_2013.1_src/data/scripts/dock_solv.prm

>  <Rbt.Receptor>
prm/blind_docking_60.prm

>  <SCORE>
-11.2724

>  <SCORE.INTER>
-9.73399

>  <SCORE.INTER.CONST>
1

>  <SCORE.INTER.POLAR>
0

>  <SCORE.INTER.ROT>
5

>  <SCORE.INTER.SOLV>
14.7632

>  <SCORE.INTER.VDW>
-18.3437

>  <SCORE.INTER.norm>
-0.973399

>  <SCORE.INTRA>
-1.53845

>  <SCORE.INTRA.DIHEDRAL>
-3.98714

>  <SCORE.INTRA.DIHEDRAL.0>
5.8785

>  <SCORE.INTRA.POLAR>
0

>  <SCORE.INTRA.POLAR.0>
0

>  <SCORE.INTRA.REPUL>
0

>  <SCORE.INTRA.REPUL.0>
0

>  <SCORE.INTRA.SOLV>
0.0064512

>  <SCORE.INTRA.SOLV.lig_0>
-31.9559

>  <SCORE.INTRA.VDW>
0.451896

>  <SCORE.INTRA.VDW.0>
-0.507645

>  <SCORE.INTRA.norm>
-0.153845

>  <SCORE.RESTR>
0

>  <SCORE.RESTR.CAVITY>
0

>  <SCORE.RESTR.norm>
0

>  <SCORE.SYSTEM>
0

>  <SCORE.SYSTEM.CONST>
0

>  <SCORE.SYSTEM.DIHEDRAL>
0

>  <SCORE.SYSTEM.SOLV>
0

>  <SCORE.SYSTEM.norm>
0

>  <SCORE.heavy>
10

>  <SCORE.norm>
-1.12724

>  <RMSD>
1.953

$$$$
ligand
 OpenBabel11021811473D
libRbt.so/2013.1/901 2013/11/27
 10  9  0  0  0  0  0  0  0  0999 V2000
   31.6044   15.9926   22.7855 N   0  0  0  0  0  0  0  0  0  0  0  0
   31.5967   15.6805   21.3320 C   0  0  2  0  0  0  0  0  0  0  0  0
   32.8755   16.1682   20.6503 C   0  0  0  0  0  0  0  0  0  0  0  0
   33.6150   16.9799   21.1979 O   0  0  0  0  0  0  0  0  0  0  0  0
   30.3360   16.2506   20.6720 C   0  0  0  0  0  0  0  0  0  0  0  0
   29.0862   15.4268   20.9648 C   0  0  0  0  0  0  0  0  0  0  0  0
   27.8428   15.9748   20.2785 C   0  0  0  0  0  0  0  0  0  0  0  0
   26.6704   15.0019   20.4097 C   0  0  0  0  0  0  0  0  0  0  0  0
   26.3520   14.6021   21.8347 N   0  0  0  0  0  0  0  0  0  0  0  0
   33.2499   15.7558   19.5585 O   0  0  0  0  0  0  0  0  0  0  0  0
  2  1  1  1  0  0  0
  2  3  1  0  0  0  0
  2  5  1  0  0  0  0
  3  4  1  0  0  0  0
  3 10  1  0  0  0  0
  5  6  1  0  0  0  0
  6  7  1  0  0  0  0
  7  8  1  0  0  0  0
  8  9  1  0  0  0  0
M  END
>  <CHROM.1>
-16.04625111,-76.23012685,-178.50423738,170.77799255,54.48624670,30.36465234
15.79503564,20.95344713,-0.02263430,0.19323838,1.56544496

>  <Name>
ligand

>  <RI>
0

>  <Rbt.Current_Directory>
/home/itssahil/PROJECTS/Mol_Feturizer/New_Systems/rnas/3DIM

>  <Rbt.Executable>
rbdock ($Id: //depot/dev/client3/rdock/2013.1/src/exe/rbdock.cxx#4 $)

>  <Rbt.Library>
libRbt.so (2013.1, Build901 2013/11/27)

>  <Rbt.Parameter_File>
/export/apps/rDock/src/rDock_2013.1_src/data/scripts/dock_solv.prm

>  <Rbt.Receptor>
prm/pocket_docking_6.prm

>  <SCORE>
-8.623

>  <SCORE.INTER>
-6.91138

>  <SCORE.INTER.CONST>
1

>  <SCORE.INTER.POLAR>
0

>  <SCORE.INTER.ROT>
5

>  <SCORE.INTER.SOLV>
20.0233

>  <SCORE.INTER.VDW>
-18.2153

>  <SCORE.INTER.norm>
-0.691138

>  <SCORE.INTRA>
-1.71162

>  <SCORE.INTRA.DIHEDRAL>
-2.82227

>  <SCORE.INTRA.DIHEDRAL.0>
5.8785

>  <SCORE.INTRA.POLAR>
0

>  <SCORE.INTRA.POLAR.0>
0

>  <SCORE.INTRA.REPUL>
0

>  <SCORE.INTRA.REPUL.0>
0

>  <SCORE.INTRA.SOLV>
-0.192192

>  <SCORE.INTRA.SOLV.lig_0>
-31.9559

>  <SCORE.INTRA.VDW>
-0.20439

>  <SCORE.INTRA.VDW.0>
-0.507645

>  <SCORE.INTRA.norm>
-0.171162

>  <SCORE.RESTR>
0

>  <SCORE.RESTR.CAVITY>
0

>  <SCORE.RESTR.norm>
0

>  <SCORE.SYSTEM>
0

>  <SCORE.SYSTEM.CONST>
0

>  <SCORE.SYSTEM.DIHEDRAL>
0

>  <SCORE.SYSTEM.SOLV>
0

>  <SCORE.SYSTEM.norm>
0

>  <SCORE.heavy>
10

>  <SCORE.norm>
-0.8623

>  <RMSD>
1.955

$$$$
ligand
 OpenBabel11021811473D
libRbt.so/2013.1/901 2013/11/27
 10  9  0  0  0  0  0  0  0  0999 V2000
   32.4926   17.6321   22.3191 N   0  0  0  0  0  0  0  0  0  0  0  0
   31.8023   16.4856   21.6716 C   0  0  2  0  0  0  0  0  0  0  0  0
   32.6308   15.9139   20.5206 C   0  0  0  0  0  0  0  0  0  0  0  0
   32.0959   15.3216   19.5886 O   0  0  0  0  0  0  0  0  0  0  0  0
   30.3952   16.8962   21.2229 C   0  0  0  0  0  0  0  0  0  0  0  0
   29.5212   15.7059   20.8406 C   0  0  0  0  0  0  0  0  0  0  0  0
   28.1039   16.1112   20.4606 C   0  0  0  0  0  0  0  0  0  0  0  0
   27.2692   14.8893   20.0749 C   0  0  0  0  0  0  0  0  0  0  0  0
   27.7655   14.1620   18.8435 N   0  0  0  0  0  0  0  0  0  0  0  0
   33.8468   16.0459   20.4425 O   0  0  0  0  0  0  0  0  0  0  0  0
  2  1  1  6  0  0  0
  2  3  1  0  0  0  0
  2  5  1  0  0  0  0
  3  4  1  0  0  0  0
  3 10  1  0  0  0  0
  5  6  1  0  0  0  0
  6  7  1  0  0  0  0
  7  8  1  0  0  0  0
  8  9  1  0  0  0  0
M  END
>  <CHROM.1>
-154.07525945,-167.04964665,177.20263918,179.54976057,-63.71484117,30.62122558
15.90584005,20.57563312,0.35605948,0.05130480,0.83469309

>  <Name>
ligand

>  <RI>
0

>  <Rbt.Current_Directory>
/home/itssahil/PROJECTS/Mol_Feturizer/New_Systems/rnas/3DIM

>  <Rbt.Executable>
rbdock ($Id: //depot/dev/client3/rdock/2013.1/src/exe/rbdock.cxx#4 $)

>  <Rbt.Library>
libRbt.so (2013.1, Build901 2013/11/27)

>  <Rbt.Parameter_File>
/export/apps/rDock/src/rDock_2013.1_src/data/scripts/dock_solv.prm

>  <Rbt.Receptor>
prm/blind_docking_60.prm

>  <SCORE>
-10.1938

>  <SCORE.INTER>
-8.30144

>  <SCORE.INTER.CONST>
1

>  <SCORE.INTER.POLAR>
0

>  <SCORE.INTER.ROT>
5

>  <SCORE.INTER.SOLV>
13.7378

>  <SCORE.INTER.VDW>
-17.0469

>  <SCORE.INTER.norm>
-0.830144

>  <SCORE.INTRA>
-1.89239

>  <SCORE.INTRA.DIHEDRAL>
-3.60046

>  <SCORE.INTRA.DIHEDRAL.0>
5.8785

>  <SCORE.INTRA.POLAR>
0

>  <SCORE.INTRA.POLAR.0>
0

>  <SCORE.INTRA.REPUL>
0

>  <SCORE.INTRA.REPUL.0>
0

>  <SCORE.INTRA.SOLV>
-0.981176

>  <SCORE.INTRA.SOLV.lig_0>
-31.9559

>  <SCORE.INTRA.VDW>
0.398431

>  <SCORE.INTRA.VDW.0>
-0.507645

>  <SCORE.INTRA.norm>
-0.189239

>  <SCORE.RESTR>
0

>  <SCORE.RESTR.CAVITY>
0

>  <SCORE.RESTR.norm>
0

>  <SCORE.SYSTEM>
0

>  <SCORE.SYSTEM.CONST>
0

>  <SCORE.SYSTEM.DIHEDRAL>
0

>  <SCORE.SYSTEM.SOLV>
0

>  <SCORE.SYSTEM.norm>
0

>  <SCORE.heavy>
10

>  <SCORE.norm>
-1.01938

>  <RMSD>
1.957

$$$$
ligand
 OpenBabel11021811473D
libRbt.so/2013.1/901 2013/11/27
 10  9  0  0  0  0  0  0  0  0999 V2000
   32.4883   17.5094   22.4263 N   0  0  0  0  0  0  0  0  0  0  0  0
   31.7987   16.4062   21.7067 C   0  0  2  0  0  0  0  0  0  0  0  0
   32.6266   15.9112   20.5203 C   0  0  0  0  0  0  0  0  0  0  0  0
   32.1012   15.3100   19.5885 O   0  0  0  0  0  0  0  0  0  0  0  0
   30.3905   16.8430   21.2871 C   0  0  0  0  0  0  0  0  0  0  0  0
   29.5151   15.6777   20.8373 C   0  0  0  0  0  0  0  0  0  0  0  0
   28.1005   16.1071   20.4737 C   0  0  0  0  0  0  0  0  0  0  0  0
   27.2719   14.9147   19.9943 C   0  0  0  0  0  0  0  0  0  0  0  0
   27.7862   14.2721   18.7237 N   0  0  0  0  0  0  0  0  0  0  0  0
   33.8301   16.1164   20.4131 O   0  0  0  0  0  0  0  0  0  0  0  0
  2  1  1  6  0  0  0
  2  3  1  0  0  0  0
  2  5  1  0  0  0  0
  3  4  1  0  0  0  0
  3 10  1  0  0  0  0
  5  6  1  0  0  0  0
  6  7  1  0  0  0  0
  7  8  1  0  0  0  0
  8  9  1  0  0  0  0
M  END
>  <CHROM.1>
-158.37960425,-166.71466748,177.72988150,178.49348188,-63.35022501,30.61973448
15.89775092,20.57360911,0.35897258,0.05331410,0.89670782

>  <Name>
ligand

>  <RI>
0

>  <Rbt.Current_Directory>
/home/itssahil/PROJECTS/Mol_Feturizer/New_Systems/rnas/3DIM

>  <Rbt.Executable>
rbdock ($Id: //depot/dev/client3/rdock/2013.1/src/exe/rbdock.cxx#4 $)

>  <Rbt.Library>
libRbt.so (2013.1, Build901 2013/11/27)

>  <Rbt.Parameter_File>
/export/apps/rDock/src/rDock_2013.1_src/data/scripts/dock_solv.prm

>  <Rbt.Receptor>
prm/pocket_docking_7.prm

>  <SCORE>
-10.2357

>  <SCORE.INTER>
-8.28705

>  <SCORE.INTER.CONST>
1

>  <SCORE.INTER.POLAR>
0

>  <SCORE.INTER.ROT>
5

>  <SCORE.INTER.SOLV>
13.5618

>  <SCORE.INTER.VDW>
-16.9786

>  <SCORE.INTER.norm>
-0.828705

>  <SCORE.INTRA>
-1.94863

>  <SCORE.INTRA.DIHEDRAL>
-3.58891

>  <SCORE.INTRA.DIHEDRAL.0>
5.8785

>  <SCORE.INTRA.POLAR>
0

>  <SCORE.INTRA.POLAR.0>
0

>  <SCORE.INTRA.REPUL>
0

>  <SCORE.INTRA.REPUL.0>
0

>  <SCORE.INTRA.SOLV>
-0.969197

>  <SCORE.INTRA.SOLV.lig_0>
-31.9559

>  <SCORE.INTRA.VDW>
0.330431

>  <SCORE.INTRA.VDW.0>
-0.507645

>  <SCORE.INTRA.norm>
-0.194863

>  <SCORE.RESTR>
0

>  <SCORE.RESTR.CAVITY>
0

>  <SCORE.RESTR.norm>
0

>  <SCORE.SYSTEM>
0

>  <SCORE.SYSTEM.CONST>
0

>  <SCORE.SYSTEM.DIHEDRAL>
0

>  <SCORE.SYSTEM.SOLV>
0

>  <SCORE.SYSTEM.norm>
0

>  <SCORE.heavy>
10

>  <SCORE.norm>
-1.02357

>  <RMSD>
1.959

$$$$
ligand
 OpenBabel11021811473D
libRbt.so/2013.1/901 2013/11/27
 10  9  0  0  0  0  0  0  0  0999 V2000
   32.4624   17.5286   22.4345 N   0  0  0  0  0  0  0  0  0  0  0  0
   31.7783   16.4184   21.7204 C   0  0  2  0  0  0  0  0  0  0  0  0
   32.6121   15.9168   20.5409 C   0  0  0  0  0  0  0  0  0  0  0  0
   33.8316   16.0519   20.5246 O   0  0  0  0  0  0  0  0  0  0  0  0
   30.3708   16.8487   21.2919 C   0  0  0  0  0  0  0  0  0  0  0  0
   29.5116   15.6827   20.8136 C   0  0  0  0  0  0  0  0  0  0  0  0
   28.1138   16.1128   20.3910 C   0  0  0  0  0  0  0  0  0  0  0  0
   27.2962   14.9162   19.9031 C   0  0  0  0  0  0  0  0  0  0  0  0
   27.8510   14.2497   18.6623 N   0  0  0  0  0  0  0  0  0  0  0  0
   32.1269   15.3271   19.5822 O   0  0  0  0  0  0  0  0  0  0  0  0
  2  1  1  6  0  0  0
  2  3  1  0  0  0  0
  2  5  1  0  0  0  0
  3  4  1  0  0  0  0
  3 10  1  0  0  0  0
  5  6  1  0  0  0  0
  6  7  1  0  0  0  0
  7  8  1  0  0  0  0
  8  9  1  0  0  0  0
M  END
>  <CHROM.1>
25.26975263,-168.18353524,179.90750017,179.27336572,-63.46434074,30.62497327
15.89542964,20.56410529,0.37877520,0.03378224,0.88647733

>  <Name>
ligand

>  <RI>
0

>  <Rbt.Current_Directory>
/home/itssahil/PROJECTS/Mol_Feturizer/New_Systems/rnas/3DIM

>  <Rbt.Executable>
rbdock ($Id: //depot/dev/client3/rdock/2013.1/src/exe/rbdock.cxx#4 $)

>  <Rbt.Library>
libRbt.so (2013.1, Build901 2013/11/27)

>  <Rbt.Parameter_File>
/export/apps/rDock/src/rDock_2013.1_src/data/scripts/dock_solv.prm

>  <Rbt.Receptor>
prm/pocket_docking_8.prm

>  <SCORE>
-10.5021

>  <SCORE.INTER>
-8.32174

>  <SCORE.INTER.CONST>
1

>  <SCORE.INTER.POLAR>
0

>  <SCORE.INTER.ROT>
5

>  <SCORE.INTER.SOLV>
13.4553

>  <SCORE.INTER.VDW>
-16.9663

>  <SCORE.INTER.norm>
-0.832174

>  <SCORE.INTRA>
-2.18038

>  <SCORE.INTRA.DIHEDRAL>
-3.89627

>  <SCORE.INTRA.DIHEDRAL.0>
5.8785

>  <SCORE.INTRA.POLAR>
0

>  <SCORE.INTRA.POLAR.0>
0

>  <SCORE.INTRA.REPUL>
0

>  <SCORE.INTRA.REPUL.0>
0

>  <SCORE.INTRA.SOLV>
-0.972408

>  <SCORE.INTRA.SOLV.lig_0>
-31.9559

>  <SCORE.INTRA.VDW>
0.253962

>  <SCORE.INTRA.VDW.0>
-0.507645

>  <SCORE.INTRA.norm>
-0.218038

>  <SCORE.RESTR>
0

>  <SCORE.RESTR.CAVITY>
0

>  <SCORE.RESTR.norm>
0

>  <SCORE.SYSTEM>
0

>  <SCORE.SYSTEM.CONST>
0

>  <SCORE.SYSTEM.DIHEDRAL>
0

>  <SCORE.SYSTEM.SOLV>
0

>  <SCORE.SYSTEM.norm>
0

>  <SCORE.heavy>
10

>  <SCORE.norm>
-1.05021

>  <RMSD>
1.967

$$$$
ligand
 OpenBabel11021811473D
libRbt.so/2013.1/901 2013/11/27
 10  9  0  0  0  0  0  0  0  0999 V2000
   30.6140   17.5610   21.1554 N   0  0  0  0  0  0  0  0  0  0  0  0
   31.6703   16.6536   21.6760 C   0  0  2  0  0  0  0  0  0  0  0  0
   32.3683   15.9020   20.5420 C   0  0  0  0  0  0  0  0  0  0  0  0
   33.5917   15.8919   20.4480 O   0  0  0  0  0  0  0  0  0  0  0  0
   31.0846   15.7022   22.7257 C   0  0  0  0  0  0  0  0  0  0  0  0
   29.9149   14.8788   22.1962 C   0  0  0  0  0  0  0  0  0  0  0  0
   28.6098   15.6615   22.1592 C   0  0  0  0  0  0  0  0  0  0  0  0
   27.4790   14.8145   21.5742 C   0  0  0  0  0  0  0  0  0  0  0  0
   27.6619   14.4579   20.1144 N   0  0  0  0  0  0  0  0  0  0  0  0
   31.7623   15.2464   19.7023 O   0  0  0  0  0  0  0  0  0  0  0  0
  2  1  1  6  0  0  0
  2  3  1  0  0  0  0
  2  5  1  0  0  0  0
  3  4  1  0  0  0  0
  3 10  1  0  0  0  0
  5  6  1  0  0  0  0
  6  7  1  0  0  0  0
  7  8  1  0  0  0  0
  8  9  1  0  0  0  0
M  END
>  <CHROM.1>
128.67235401,56.83282957,-79.15203813,177.89094770,-65.85437673,30.50201380
15.66368247,21.20386786,-0.01643068,0.27693585,1.09047888

>  <Name>
ligand

>  <RI>
0

>  <Rbt.Current_Directory>
/home/itssahil/PROJECTS/Mol_Feturizer/New_Systems/rnas/3DIM

>  <Rbt.Executable>
rbdock ($Id: //depot/dev/client3/rdock/2013.1/src/exe/rbdock.cxx#4 $)

>  <Rbt.Library>
libRbt.so (2013.1, Build901 2013/11/27)

>  <Rbt.Parameter_File>
/export/apps/rDock/src/rDock_2013.1_src/data/scripts/dock_solv.prm

>  <Rbt.Receptor>
prm/pocket_docking_8.prm

>  <SCORE>
-9.36212

>  <SCORE.INTER>
-8.56507

>  <SCORE.INTER.CONST>
1

>  <SCORE.INTER.POLAR>
0

>  <SCORE.INTER.ROT>
5

>  <SCORE.INTER.SOLV>
14.0282

>  <SCORE.INTER.VDW>
-17.3194

>  <SCORE.INTER.norm>
-0.856507

>  <SCORE.INTRA>
-0.797057

>  <SCORE.INTRA.DIHEDRAL>
-2.79383

>  <SCORE.INTRA.DIHEDRAL.0>
5.8785

>  <SCORE.INTRA.POLAR>
0

>  <SCORE.INTRA.POLAR.0>
0

>  <SCORE.INTRA.REPUL>
0

>  <SCORE.INTRA.REPUL.0>
0

>  <SCORE.INTRA.SOLV>
1.35028

>  <SCORE.INTRA.SOLV.lig_0>
-31.9559

>  <SCORE.INTRA.VDW>
-0.0752835

>  <SCORE.INTRA.VDW.0>
-0.507645

>  <SCORE.INTRA.norm>
-0.0797057

>  <SCORE.RESTR>
0

>  <SCORE.RESTR.CAVITY>
0

>  <SCORE.RESTR.norm>
0

>  <SCORE.SYSTEM>
0

>  <SCORE.SYSTEM.CONST>
0

>  <SCORE.SYSTEM.DIHEDRAL>
0

>  <SCORE.SYSTEM.SOLV>
0

>  <SCORE.SYSTEM.norm>
0

>  <SCORE.heavy>
10

>  <SCORE.norm>
-0.936212

>  <RMSD>
1.985

$$$$
ligand
 OpenBabel11021811473D
libRbt.so/2013.1/901 2013/11/27
 10  9  0  0  0  0  0  0  0  0999 V2000
   33.1782   17.5972   22.9122 N   0  0  0  0  0  0  0  0  0  0  0  0
   32.4469   16.4197   22.3744 C   0  0  2  0  0  0  0  0  0  0  0  0
   32.6338   16.2902   20.8624 C   0  0  0  0  0  0  0  0  0  0  0  0
   33.4596   15.5149   20.3905 O   0  0  0  0  0  0  0  0  0  0  0  0
   30.9675   16.4856   22.7707 C   0  0  0  0  0  0  0  0  0  0  0  0
   30.1447   15.3389   22.1924 C   0  0  0  0  0  0  0  0  0  0  0  0
   28.6599   15.4602   22.5055 C   0  0  0  0  0  0  0  0  0  0  0  0
   27.8306   14.5637   21.5852 C   0  0  0  0  0  0  0  0  0  0  0  0
   27.9098   14.9356   20.1199 N   0  0  0  0  0  0  0  0  0  0  0  0
   31.9569   16.9096   20.0498 O   0  0  0  0  0  0  0  0  0  0  0  0
  2  1  1  6  0  0  0
  2  3  1  0  0  0  0
  2  5  1  0  0  0  0
  3  4  1  0  0  0  0
  3 10  1  0  0  0  0
  5  6  1  0  0  0  0
  6  7  1  0  0  0  0
  7  8  1  0  0  0  0
  8  9  1  0  0  0  0
M  END
>  <CHROM.1>
98.67907602,177.22226789,-175.94906026,162.91174904,-63.68111011,30.93350776
15.95058476,21.54290175,0.10584453,0.31996431,1.29101167

>  <Name>
ligand

>  <RI>
0

>  <Rbt.Current_Directory>
/home/itssahil/PROJECTS/Mol_Feturizer/New_Systems/rnas/3DIM

>  <Rbt.Executable>
rbdock ($Id: //depot/dev/client3/rdock/2013.1/src/exe/rbdock.cxx#4 $)

>  <Rbt.Library>
libRbt.so (2013.1, Build901 2013/11/27)

>  <Rbt.Parameter_File>
/export/apps/rDock/src/rDock_2013.1_src/data/scripts/dock_solv.prm

>  <Rbt.Receptor>
prm/pocket_docking_6.prm

>  <SCORE>
-9.61379

>  <SCORE.INTER>
-7.67519

>  <SCORE.INTER.CONST>
1

>  <SCORE.INTER.POLAR>
0

>  <SCORE.INTER.ROT>
5

>  <SCORE.INTER.SOLV>
12.8401

>  <SCORE.INTER.VDW>
-16.3302

>  <SCORE.INTER.norm>
-0.767519

>  <SCORE.INTRA>
-1.9386

>  <SCORE.INTRA.DIHEDRAL>
-2.99351

>  <SCORE.INTRA.DIHEDRAL.0>
5.8785

>  <SCORE.INTRA.POLAR>
0

>  <SCORE.INTRA.POLAR.0>
0

>  <SCORE.INTRA.REPUL>
0

>  <SCORE.INTRA.REPUL.0>
0

>  <SCORE.INTRA.SOLV>
-0.912487

>  <SCORE.INTRA.SOLV.lig_0>
-31.9559

>  <SCORE.INTRA.VDW>
0.0143946

>  <SCORE.INTRA.VDW.0>
-0.507645

>  <SCORE.INTRA.norm>
-0.19386

>  <SCORE.RESTR>
0

>  <SCORE.RESTR.CAVITY>
0

>  <SCORE.RESTR.norm>
0

>  <SCORE.SYSTEM>
0

>  <SCORE.SYSTEM.CONST>
0

>  <SCORE.SYSTEM.DIHEDRAL>
0

>  <SCORE.SYSTEM.SOLV>
0

>  <SCORE.SYSTEM.norm>
0

>  <SCORE.heavy>
10

>  <SCORE.norm>
-0.961379

>  <RMSD>
2.000

$$$$
ligand
 OpenBabel11021811473D
libRbt.so/2013.1/901 2013/11/27
 10  9  0  0  0  0  0  0  0  0999 V2000
   32.0872   17.6867   22.8022 N   0  0  0  0  0  0  0  0  0  0  0  0
   31.6798   16.6177   21.8527 C   0  0  2  0  0  0  0  0  0  0  0  0
   32.7418   16.3941   20.7757 C   0  0  0  0  0  0  0  0  0  0  0  0
   32.6311   15.4881   19.9556 O   0  0  0  0  0  0  0  0  0  0  0  0
   30.3053   16.9347   21.2524 C   0  0  0  0  0  0  0  0  0  0  0  0
   29.7671   15.8118   20.3715 C   0  0  0  0  0  0  0  0  0  0  0  0
   28.4601   16.1767   19.6815 C   0  0  0  0  0  0  0  0  0  0  0  0
   28.1297   15.1791   18.5707 C   0  0  0  0  0  0  0  0  0  0  0  0
   27.9744   13.7501   19.0455 N   0  0  0  0  0  0  0  0  0  0  0  0
   33.7241   17.1155   20.6456 O   0  0  0  0  0  0  0  0  0  0  0  0
  2  1  1  1  0  0  0
  2  3  1  0  0  0  0
  2  5  1  0  0  0  0
  3  4  1  0  0  0  0
  3 10  1  0  0  0  0
  5  6  1  0  0  0  0
  6  7  1  0  0  0  0
  7  8  1  0  0  0  0
  8  9  1  0  0  0  0
M  END
>  <CHROM.1>
174.80195631,-174.45302146,-175.05011675,166.59437470,59.87049830,30.78305086
16.11321922,20.47607499,0.58359414,0.03538574,0.88611856

>  <Name>
ligand

>  <RI>
0

>  <Rbt.Current_Directory>
/home/itssahil/PROJECTS/Mol_Feturizer/New_Systems/rnas/3DIM

>  <Rbt.Executable>
rbdock ($Id: //depot/dev/client3/rdock/2013.1/src/exe/rbdock.cxx#4 $)

>  <Rbt.Library>
libRbt.so (2013.1, Build901 2013/11/27)

>  <Rbt.Parameter_File>
/export/apps/rDock/src/rDock_2013.1_src/data/scripts/dock_solv.prm

>  <Rbt.Receptor>
prm/pocket_docking_8.prm

>  <SCORE>
-8.04622

>  <SCORE.INTER>
-5.96011

>  <SCORE.INTER.CONST>
1

>  <SCORE.INTER.POLAR>
0

>  <SCORE.INTER.ROT>
5

>  <SCORE.INTER.SOLV>
13.892

>  <SCORE.INTER.VDW>
-15.5374

>  <SCORE.INTER.norm>
-0.596011

>  <SCORE.INTRA>
-2.0861

>  <SCORE.INTRA.DIHEDRAL>
-3.4693

>  <SCORE.INTRA.DIHEDRAL.0>
5.8785

>  <SCORE.INTRA.POLAR>
0

>  <SCORE.INTRA.POLAR.0>
0

>  <SCORE.INTRA.REPUL>
0

>  <SCORE.INTRA.REPUL.0>
0

>  <SCORE.INTRA.SOLV>
-0.991172

>  <SCORE.INTRA.SOLV.lig_0>
-31.9559

>  <SCORE.INTRA.VDW>
0.144134

>  <SCORE.INTRA.VDW.0>
-0.507645

>  <SCORE.INTRA.norm>
-0.20861

>  <SCORE.RESTR>
0

>  <SCORE.RESTR.CAVITY>
0

>  <SCORE.RESTR.norm>
0

>  <SCORE.SYSTEM>
0

>  <SCORE.SYSTEM.CONST>
0

>  <SCORE.SYSTEM.DIHEDRAL>
0

>  <SCORE.SYSTEM.SOLV>
0

>  <SCORE.SYSTEM.norm>
0

>  <SCORE.heavy>
10

>  <SCORE.norm>
-0.804622

>  <RMSD>
2.071

$$$$
ligand
 OpenBabel11021811473D
libRbt.so/2013.1/901 2013/11/27
 10  9  0  0  0  0  0  0  0  0999 V2000
   31.9703   17.3941   22.5938 N   0  0  0  0  0  0  0  0  0  0  0  0
   31.3878   16.0846   22.1987 C   0  0  2  0  0  0  0  0  0  0  0  0
   31.9013   15.6361   20.8301 C   0  0  0  0  0  0  0  0  0  0  0  0
   33.0906   15.7223   20.5407 O   0  0  0  0  0  0  0  0  0  0  0  0
   29.8569   16.1459   22.2502 C   0  0  0  0  0  0  0  0  0  0  0  0
   29.2008   14.7776   22.0961 C   0  0  0  0  0  0  0  0  0  0  0  0
   27.6846   14.8582   21.9857 C   0  0  0  0  0  0  0  0  0  0  0  0
   27.2651   15.5216   20.6733 C   0  0  0  0  0  0  0  0  0  0  0  0
   27.7475   14.8019   19.4319 N   0  0  0  0  0  0  0  0  0  0  0  0
   31.1781   15.1376   19.9754 O   0  0  0  0  0  0  0  0  0  0  0  0
  2  1  1  6  0  0  0
  2  3  1  0  0  0  0
  2  5  1  0  0  0  0
  3  4  1  0  0  0  0
  3 10  1  0  0  0  0
  5  6  1  0  0  0  0
  6  7  1  0  0  0  0
  7  8  1  0  0  0  0
  8  9  1  0  0  0  0
M  END
>  <CHROM.1>
44.67672385,-169.91000121,-173.34314188,67.90005535,59.66727460,30.15014802
15.59907080,21.22910904,0.18595288,0.18075516,1.16280986

>  <Name>
ligand

>  <RI>
0

>  <Rbt.Current_Directory>
/home/itssahil/PROJECTS/Mol_Feturizer/New_Systems/rnas/3DIM

>  <Rbt.Executable>
rbdock ($Id: //depot/dev/client3/rdock/2013.1/src/exe/rbdock.cxx#4 $)

>  <Rbt.Library>
libRbt.so (2013.1, Build901 2013/11/27)

>  <Rbt.Parameter_File>
/export/apps/rDock/src/rDock_2013.1_src/data/scripts/dock_solv.prm

>  <Rbt.Receptor>
prm/pocket_docking_4.prm

>  <SCORE>
-11.0517

>  <SCORE.INTER>
-9.96774

>  <SCORE.INTER.CONST>
1

>  <SCORE.INTER.POLAR>
0

>  <SCORE.INTER.ROT>
5

>  <SCORE.INTER.SOLV>
12.1335

>  <SCORE.INTER.VDW>
-17.623

>  <SCORE.INTER.norm>
-0.996774

>  <SCORE.INTRA>
-1.08392

>  <SCORE.INTRA.DIHEDRAL>
-3.62562

>  <SCORE.INTRA.DIHEDRAL.0>
5.8785

>  <SCORE.INTRA.POLAR>
0

>  <SCORE.INTRA.POLAR.0>
0

>  <SCORE.INTRA.REPUL>
0

>  <SCORE.INTRA.REPUL.0>
0

>  <SCORE.INTRA.SOLV>
-0.0757202

>  <SCORE.INTRA.SOLV.lig_0>
-31.9559

>  <SCORE.INTRA.VDW>
0.766754

>  <SCORE.INTRA.VDW.0>
-0.507645

>  <SCORE.INTRA.norm>
-0.108392

>  <SCORE.RESTR>
0

>  <SCORE.RESTR.CAVITY>
0

>  <SCORE.RESTR.norm>
0

>  <SCORE.SYSTEM>
0

>  <SCORE.SYSTEM.CONST>
0

>  <SCORE.SYSTEM.DIHEDRAL>
0

>  <SCORE.SYSTEM.SOLV>
0

>  <SCORE.SYSTEM.norm>
0

>  <SCORE.heavy>
10

>  <SCORE.norm>
-1.10517

>  <RMSD>
2.074

$$$$
ligand
 OpenBabel11021811473D
libRbt.so/2013.1/901 2013/11/27
 10  9  0  0  0  0  0  0  0  0999 V2000
   31.9814   17.4085   22.4820 N   0  0  0  0  0  0  0  0  0  0  0  0
   31.4003   16.0906   22.1135 C   0  0  2  0  0  0  0  0  0  0  0  0
   31.8978   15.6251   20.7446 C   0  0  0  0  0  0  0  0  0  0  0  0
   33.0867   15.6883   20.4479 O   0  0  0  0  0  0  0  0  0  0  0  0
   29.8700   16.1451   22.1847 C   0  0  0  0  0  0  0  0  0  0  0  0
   29.2193   14.7705   22.0683 C   0  0  0  0  0  0  0  0  0  0  0  0
   27.7007   14.8404   21.9867 C   0  0  0  0  0  0  0  0  0  0  0  0
   27.2517   15.5002   20.6824 C   0  0  0  0  0  0  0  0  0  0  0  0
   27.7174   14.7846   19.4323 N   0  0  0  0  0  0  0  0  0  0  0  0
   31.1608   15.1347   19.8969 O   0  0  0  0  0  0  0  0  0  0  0  0
  2  1  1  6  0  0  0
  2  3  1  0  0  0  0
  2  5  1  0  0  0  0
  3  4  1  0  0  0  0
  3 10  1  0  0  0  0
  5  6  1  0  0  0  0
  6  7  1  0  0  0  0
  7  8  1  0  0  0  0
  8  9  1  0  0  0  0
M  END
>  <CHROM.1>
46.14683539,-169.52491824,-173.74193864,66.89037489,59.56443005,30.15010481
15.58953704,21.17522861,0.16692550,0.18860405,1.15514420

>  <Name>
ligand

>  <RI>
0

>  <Rbt.Current_Directory>
/home/itssahil/PROJECTS/Mol_Feturizer/New_Systems/rnas/3DIM

>  <Rbt.Executable>
rbdock ($Id: //depot/dev/client3/rdock/2013.1/src/exe/rbdock.cxx#4 $)

>  <Rbt.Library>
libRbt.so (2013.1, Build901 2013/11/27)

>  <Rbt.Parameter_File>
/export/apps/rDock/src/rDock_2013.1_src/data/scripts/dock_solv.prm

>  <Rbt.Receptor>
prm/pocket_docking_3.prm

>  <SCORE>
-11.0551

>  <SCORE.INTER>
-9.96848

>  <SCORE.INTER.CONST>
1

>  <SCORE.INTER.POLAR>
0

>  <SCORE.INTER.ROT>
5

>  <SCORE.INTER.SOLV>
12.1713

>  <SCORE.INTER.VDW>
-17.6361

>  <SCORE.INTER.norm>
-0.996848

>  <SCORE.INTRA>
-1.08661

>  <SCORE.INTRA.DIHEDRAL>
-3.67449

>  <SCORE.INTRA.DIHEDRAL.0>
5.8785

>  <SCORE.INTRA.POLAR>
0

>  <SCORE.INTRA.POLAR.0>
0

>  <SCORE.INTRA.REPUL>
0

>  <SCORE.INTRA.REPUL.0>
0

>  <SCORE.INTRA.SOLV>
-0.0626793

>  <SCORE.INTRA.SOLV.lig_0>
-31.9559

>  <SCORE.INTRA.VDW>
0.781972

>  <SCORE.INTRA.VDW.0>
-0.507645

>  <SCORE.INTRA.norm>
-0.108661

>  <SCORE.RESTR>
0

>  <SCORE.RESTR.CAVITY>
0

>  <SCORE.RESTR.norm>
0

>  <SCORE.SYSTEM>
0

>  <SCORE.SYSTEM.CONST>
0

>  <SCORE.SYSTEM.DIHEDRAL>
0

>  <SCORE.SYSTEM.SOLV>
0

>  <SCORE.SYSTEM.norm>
0

>  <SCORE.heavy>
10

>  <SCORE.norm>
-1.10551

>  <RMSD>
2.077

$$$$
ligand
 OpenBabel11021811473D
libRbt.so/2013.1/901 2013/11/27
 10  9  0  0  0  0  0  0  0  0999 V2000
   33.0543   16.9492   22.6133 N   0  0  0  0  0  0  0  0  0  0  0  0
   31.9108   16.3107   21.9096 C   0  0  2  0  0  0  0  0  0  0  0  0
   32.3246   15.7879   20.5337 C   0  0  0  0  0  0  0  0  0  0  0  0
   31.5439   15.1437   19.8400 O   0  0  0  0  0  0  0  0  0  0  0  0
   30.7274   17.2816   21.8273 C   0  0  0  0  0  0  0  0  0  0  0  0
   29.4519   16.6232   21.3114 C   0  0  0  0  0  0  0  0  0  0  0  0
   28.9379   15.5268   22.2339 C   0  0  0  0  0  0  0  0  0  0  0  0
   27.6057   14.9683   21.7322 C   0  0  0  0  0  0  0  0  0  0  0  0
   27.6642   14.3810   20.3381 N   0  0  0  0  0  0  0  0  0  0  0  0
   33.4224   16.0108   20.0364 O   0  0  0  0  0  0  0  0  0  0  0  0
  2  1  1  6  0  0  0
  2  3  1  0  0  0  0
  2  5  1  0  0  0  0
  3  4  1  0  0  0  0
  3 10  1  0  0  0  0
  5  6  1  0  0  0  0
  6  7  1  0  0  0  0
  7  8  1  0  0  0  0
  8  9  1  0  0  0  0
M  END
>  <CHROM.1>
174.73060441,-171.14439679,63.42286638,175.76139085,58.98880964,30.68263777
15.88805244,21.20644902,0.10758073,0.23248911,0.95683463

>  <Name>
ligand

>  <RI>
0

>  <Rbt.Current_Directory>
/home/itssahil/PROJECTS/Mol_Feturizer/New_Systems/rnas/3DIM

>  <Rbt.Executable>
rbdock ($Id: //depot/dev/client3/rdock/2013.1/src/exe/rbdock.cxx#4 $)

>  <Rbt.Library>
libRbt.so (2013.1, Build901 2013/11/27)

>  <Rbt.Parameter_File>
/export/apps/rDock/src/rDock_2013.1_src/data/scripts/dock_solv.prm

>  <Rbt.Receptor>
prm/pocket_docking_7.prm

>  <SCORE>
-10.089

>  <SCORE.INTER>
-7.9139

>  <SCORE.INTER.CONST>
1

>  <SCORE.INTER.POLAR>
0

>  <SCORE.INTER.ROT>
5

>  <SCORE.INTER.SOLV>
14.5165

>  <SCORE.INTER.VDW>
-17.0481

>  <SCORE.INTER.norm>
-0.79139

>  <SCORE.INTRA>
-2.1751

>  <SCORE.INTRA.DIHEDRAL>
-3.99137

>  <SCORE.INTRA.DIHEDRAL.0>
5.8785

>  <SCORE.INTRA.POLAR>
0

>  <SCORE.INTRA.POLAR.0>
0

>  <SCORE.INTRA.REPUL>
0

>  <SCORE.INTRA.REPUL.0>
0

>  <SCORE.INTRA.SOLV>
-0.658539

>  <SCORE.INTRA.SOLV.lig_0>
-31.9559

>  <SCORE.INTRA.VDW>
0.149856

>  <SCORE.INTRA.VDW.0>
-0.507645

>  <SCORE.INTRA.norm>
-0.21751

>  <SCORE.RESTR>
0

>  <SCORE.RESTR.CAVITY>
0

>  <SCORE.RESTR.norm>
0

>  <SCORE.SYSTEM>
0

>  <SCORE.SYSTEM.CONST>
0

>  <SCORE.SYSTEM.DIHEDRAL>
0

>  <SCORE.SYSTEM.SOLV>
0

>  <SCORE.SYSTEM.norm>
0

>  <SCORE.heavy>
10

>  <SCORE.norm>
-1.0089

>  <RMSD>
2.078

$$$$
ligand
 OpenBabel11021811473D
libRbt.so/2013.1/901 2013/11/27
 10  9  0  0  0  0  0  0  0  0999 V2000
   31.9838   17.3733   22.5862 N   0  0  0  0  0  0  0  0  0  0  0  0
   31.3919   16.0716   22.1795 C   0  0  2  0  0  0  0  0  0  0  0  0
   31.8895   15.6396   20.7997 C   0  0  0  0  0  0  0  0  0  0  0  0
   33.0741   15.7371   20.4947 O   0  0  0  0  0  0  0  0  0  0  0  0
   29.8619   16.1383   22.2475 C   0  0  0  0  0  0  0  0  0  0  0  0
   29.1997   14.7711   22.1099 C   0  0  0  0  0  0  0  0  0  0  0  0
   27.6844   14.8575   21.9917 C   0  0  0  0  0  0  0  0  0  0  0  0
   27.2745   15.5343   20.6832 C   0  0  0  0  0  0  0  0  0  0  0  0
   27.7359   14.8082   19.4375 N   0  0  0  0  0  0  0  0  0  0  0  0
   31.1581   15.1438   19.9504 O   0  0  0  0  0  0  0  0  0  0  0  0
  2  1  1  6  0  0  0
  2  3  1  0  0  0  0
  2  5  1  0  0  0  0
  3  4  1  0  0  0  0
  3 10  1  0  0  0  0
  5  6  1  0  0  0  0
  6  7  1  0  0  0  0
  7  8  1  0  0  0  0
  8  9  1  0  0  0  0
M  END
>  <CHROM.1>
43.96170166,-168.74892541,-172.35612027,66.55701037,60.92989671,30.14686014
15.59889127,21.21918678,0.17592983,0.18600192,1.17686351

>  <Name>
ligand

>  <RI>
0

>  <Rbt.Current_Directory>
/home/itssahil/PROJECTS/Mol_Feturizer/New_Systems/rnas/3DIM

>  <Rbt.Executable>
rbdock ($Id: //depot/dev/client3/rdock/2013.1/src/exe/rbdock.cxx#4 $)

>  <Rbt.Library>
libRbt.so (2013.1, Build901 2013/11/27)

>  <Rbt.Parameter_File>
/export/apps/rDock/src/rDock_2013.1_src/data/scripts/dock_solv.prm

>  <Rbt.Receptor>
prm/pocket_docking_7.prm

>  <SCORE>
-11.0358

>  <SCORE.INTER>
-9.96936

>  <SCORE.INTER.CONST>
1

>  <SCORE.INTER.POLAR>
0

>  <SCORE.INTER.ROT>
5

>  <SCORE.INTER.SOLV>
12.1319

>  <SCORE.INTER.VDW>
-17.6235

>  <SCORE.INTER.norm>
-0.996936

>  <SCORE.INTRA>
-1.06646

>  <SCORE.INTRA.DIHEDRAL>
-3.55601

>  <SCORE.INTRA.DIHEDRAL.0>
5.8785

>  <SCORE.INTRA.POLAR>
0

>  <SCORE.INTRA.POLAR.0>
0

>  <SCORE.INTRA.REPUL>
0

>  <SCORE.INTRA.REPUL.0>
0

>  <SCORE.INTRA.SOLV>
-0.0739415

>  <SCORE.INTRA.SOLV.lig_0>
-31.9559

>  <SCORE.INTRA.VDW>
0.748522

>  <SCORE.INTRA.VDW.0>
-0.507645

>  <SCORE.INTRA.norm>
-0.106646

>  <SCORE.RESTR>
0

>  <SCORE.RESTR.CAVITY>
0

>  <SCORE.RESTR.norm>
0

>  <SCORE.SYSTEM>
0

>  <SCORE.SYSTEM.CONST>
0

>  <SCORE.SYSTEM.DIHEDRAL>
0

>  <SCORE.SYSTEM.SOLV>
0

>  <SCORE.SYSTEM.norm>
0

>  <SCORE.heavy>
10

>  <SCORE.norm>
-1.10358

>  <RMSD>
2.080

$$$$
ligand
 OpenBabel11021811473D
libRbt.so/2013.1/901 2013/11/27
 10  9  0  0  0  0  0  0  0  0999 V2000
   33.1304   16.9538   22.4187 N   0  0  0  0  0  0  0  0  0  0  0  0
   31.9472   16.3007   21.7993 C   0  0  2  0  0  0  0  0  0  0  0  0
   32.2781   15.7471   20.4129 C   0  0  0  0  0  0  0  0  0  0  0  0
   33.3964   15.8838   19.9269 O   0  0  0  0  0  0  0  0  0  0  0  0
   30.7604   17.2703   21.7667 C   0  0  0  0  0  0  0  0  0  0  0  0
   29.4697   16.6154   21.2853 C   0  0  0  0  0  0  0  0  0  0  0  0
   28.9865   15.5092   22.2128 C   0  0  0  0  0  0  0  0  0  0  0  0
   27.6301   14.9676   21.7600 C   0  0  0  0  0  0  0  0  0  0  0  0
   27.6264   14.3958   20.3583 N   0  0  0  0  0  0  0  0  0  0  0  0
   31.4756   15.1132   19.7374 O   0  0  0  0  0  0  0  0  0  0  0  0
  2  1  1  6  0  0  0
  2  3  1  0  0  0  0
  2  5  1  0  0  0  0
  3  4  1  0  0  0  0
  3 10  1  0  0  0  0
  5  6  1  0  0  0  0
  6  7  1  0  0  0  0
  7  8  1  0  0  0  0
  8  9  1  0  0  0  0
M  END
>  <CHROM.1>
-1.18717929,-173.62231123,63.51183301,174.95362033,59.20479876,30.68744127
15.86400851,21.13668773,0.08480312,0.23873107,0.94313348

>  <Name>
ligand

>  <RI>
0

>  <Rbt.Current_Directory>
/home/itssahil/PROJECTS/Mol_Feturizer/New_Systems/rnas/3DIM

>  <Rbt.Executable>
rbdock ($Id: //depot/dev/client3/rdock/2013.1/src/exe/rbdock.cxx#4 $)

>  <Rbt.Library>
libRbt.so (2013.1, Build901 2013/11/27)

>  <Rbt.Parameter_File>
/export/apps/rDock/src/rDock_2013.1_src/data/scripts/dock_solv.prm

>  <Rbt.Receptor>
prm/pocket_docking_3.prm

>  <SCORE>
-10.2556

>  <SCORE.INTER>
-8.11892

>  <SCORE.INTER.CONST>
1

>  <SCORE.INTER.POLAR>
0

>  <SCORE.INTER.ROT>
5

>  <SCORE.INTER.SOLV>
14.4103

>  <SCORE.INTER.VDW>
-17.1494

>  <SCORE.INTER.norm>
-0.811892

>  <SCORE.INTRA>
-2.13667

>  <SCORE.INTRA.DIHEDRAL>
-4.05548

>  <SCORE.INTRA.DIHEDRAL.0>
5.8785

>  <SCORE.INTRA.POLAR>
0

>  <SCORE.INTRA.POLAR.0>
0

>  <SCORE.INTRA.REPUL>
0

>  <SCORE.INTRA.REPUL.0>
0

>  <SCORE.INTRA.SOLV>
-0.653575

>  <SCORE.INTRA.SOLV.lig_0>
-31.9559

>  <SCORE.INTRA.VDW>
0.217859

>  <SCORE.INTRA.VDW.0>
-0.507645

>  <SCORE.INTRA.norm>
-0.213667

>  <SCORE.RESTR>
0

>  <SCORE.RESTR.CAVITY>
0

>  <SCORE.RESTR.norm>
0

>  <SCORE.SYSTEM>
0

>  <SCORE.SYSTEM.CONST>
0

>  <SCORE.SYSTEM.DIHEDRAL>
0

>  <SCORE.SYSTEM.SOLV>
0

>  <SCORE.SYSTEM.norm>
0

>  <SCORE.heavy>
10

>  <SCORE.norm>
-1.02556

>  <RMSD>
2.106

$$$$
ligand
 OpenBabel11021811473D
libRbt.so/2013.1/901 2013/11/27
 10  9  0  0  0  0  0  0  0  0999 V2000
   33.2202   16.8598   22.5197 N   0  0  0  0  0  0  0  0  0  0  0  0
   32.0279   16.2016   21.9235 C   0  0  2  0  0  0  0  0  0  0  0  0
   32.1645   16.0689   20.4064 C   0  0  0  0  0  0  0  0  0  0  0  0
   32.8282   16.8718   19.7577 O   0  0  0  0  0  0  0  0  0  0  0  0
   30.7510   16.9481   22.3260 C   0  0  0  0  0  0  0  0  0  0  0  0
   29.4795   16.2496   21.8549 C   0  0  0  0  0  0  0  0  0  0  0  0
   29.0968   16.6178   20.4282 C   0  0  0  0  0  0  0  0  0  0  0  0
   27.7658   15.9759   20.0347 C   0  0  0  0  0  0  0  0  0  0  0  0
   27.7817   14.4622   20.0376 N   0  0  0  0  0  0  0  0  0  0  0  0
   31.6638   15.1503   19.7679 O   0  0  0  0  0  0  0  0  0  0  0  0
  2  1  1  6  0  0  0
  2  3  1  0  0  0  0
  2  5  1  0  0  0  0
  3  4  1  0  0  0  0
  3 10  1  0  0  0  0
  5  6  1  0  0  0  0
  6  7  1  0  0  0  0
  7  8  1  0  0  0  0
  8  9  1  0  0  0  0
M  END
>  <CHROM.1>
-28.69485901,-174.63604649,-85.23536123,-175.88618279,-62.49231981,30.69093979
16.13769486,20.87346470,0.28565161,0.12713371,1.17143602

>  <Name>
ligand

>  <RI>
0

>  <Rbt.Current_Directory>
/home/itssahil/PROJECTS/Mol_Feturizer/New_Systems/rnas/3DIM

>  <Rbt.Executable>
rbdock ($Id: //depot/dev/client3/rdock/2013.1/src/exe/rbdock.cxx#4 $)

>  <Rbt.Library>
libRbt.so (2013.1, Build901 2013/11/27)

>  <Rbt.Parameter_File>
/export/apps/rDock/src/rDock_2013.1_src/data/scripts/dock_solv.prm

>  <Rbt.Receptor>
prm/pocket_docking_6.prm

>  <SCORE>
-7.88491

>  <SCORE.INTER>
-6.29318

>  <SCORE.INTER.CONST>
1

>  <SCORE.INTER.POLAR>
0

>  <SCORE.INTER.ROT>
5

>  <SCORE.INTER.SOLV>
14.4241

>  <SCORE.INTER.VDW>
-15.9368

>  <SCORE.INTER.norm>
-0.629318

>  <SCORE.INTRA>
-1.59173

>  <SCORE.INTRA.DIHEDRAL>
-1.79115

>  <SCORE.INTRA.DIHEDRAL.0>
5.8785

>  <SCORE.INTRA.POLAR>
0

>  <SCORE.INTRA.POLAR.0>
0

>  <SCORE.INTRA.REPUL>
0

>  <SCORE.INTRA.REPUL.0>
0

>  <SCORE.INTRA.SOLV>
-0.88219

>  <SCORE.INTRA.SOLV.lig_0>
-31.9559

>  <SCORE.INTRA.VDW>
-0.255059

>  <SCORE.INTRA.VDW.0>
-0.507645

>  <SCORE.INTRA.norm>
-0.159173

>  <SCORE.RESTR>
0

>  <SCORE.RESTR.CAVITY>
0

>  <SCORE.RESTR.norm>
0

>  <SCORE.SYSTEM>
0

>  <SCORE.SYSTEM.CONST>
0

>  <SCORE.SYSTEM.DIHEDRAL>
0

>  <SCORE.SYSTEM.SOLV>
0

>  <SCORE.SYSTEM.norm>
0

>  <SCORE.heavy>
10

>  <SCORE.norm>
-0.788491

>  <RMSD>
2.167

$$$$
ligand
 OpenBabel11021811473D
libRbt.so/2013.1/901 2013/11/27
 10  9  0  0  0  0  0  0  0  0999 V2000
   31.6979   17.2094   22.4897 N   0  0  0  0  0  0  0  0  0  0  0  0
   31.0920   15.9152   22.0795 C   0  0  2  0  0  0  0  0  0  0  0  0
   31.6079   15.4667   20.7118 C   0  0  0  0  0  0  0  0  0  0  0  0
   30.8478   14.9952   19.8718 O   0  0  0  0  0  0  0  0  0  0  0  0
   29.5623   16.0077   22.1187 C   0  0  0  0  0  0  0  0  0  0  0  0
   28.8801   14.6506   21.9787 C   0  0  0  0  0  0  0  0  0  0  0  0
   27.3708   14.7620   21.8147 C   0  0  0  0  0  0  0  0  0  0  0  0
   27.0109   15.3997   20.4722 C   0  0  0  0  0  0  0  0  0  0  0  0
   27.5344   14.6473   19.2673 N   0  0  0  0  0  0  0  0  0  0  0  0
   32.7778   15.5865   20.3666 O   0  0  0  0  0  0  0  0  0  0  0  0
  2  1  1  6  0  0  0
  2  3  1  0  0  0  0
  2  5  1  0  0  0  0
  3  4  1  0  0  0  0
  3 10  1  0  0  0  0
  5  6  1  0  0  0  0
  6  7  1  0  0  0  0
  7  8  1  0  0  0  0
  8  9  1  0  0  0  0
M  END
>  <CHROM.1>
-137.46000239,-168.66161981,-171.65322371,67.84640890,58.85440232,29.85922725
15.45579880,21.08820758,0.19218751,0.17590022,1.17392931

>  <Name>
ligand

>  <RI>
0

>  <Rbt.Current_Directory>
/home/itssahil/PROJECTS/Mol_Feturizer/New_Systems/rnas/3DIM

>  <Rbt.Executable>
rbdock ($Id: //depot/dev/client3/rdock/2013.1/src/exe/rbdock.cxx#4 $)

>  <Rbt.Library>
libRbt.so (2013.1, Build901 2013/11/27)

>  <Rbt.Parameter_File>
/export/apps/rDock/src/rDock_2013.1_src/data/scripts/dock_solv.prm

>  <Rbt.Receptor>
prm/blind_docking_60.prm

>  <SCORE>
-10.7589

>  <SCORE.INTER>
-10.0246

>  <SCORE.INTER.CONST>
1

>  <SCORE.INTER.POLAR>
0

>  <SCORE.INTER.ROT>
5

>  <SCORE.INTER.SOLV>
13.2085

>  <SCORE.INTER.VDW>
-18.0192

>  <SCORE.INTER.norm>
-1.00246

>  <SCORE.INTRA>
-0.734346

>  <SCORE.INTRA.DIHEDRAL>
-3.28869

>  <SCORE.INTRA.DIHEDRAL.0>
5.8785

>  <SCORE.INTRA.POLAR>
0

>  <SCORE.INTRA.POLAR.0>
0

>  <SCORE.INTRA.REPUL>
0

>  <SCORE.INTRA.REPUL.0>
0

>  <SCORE.INTRA.SOLV>
0.00978336

>  <SCORE.INTRA.SOLV.lig_0>
-31.9559

>  <SCORE.INTRA.VDW>
0.905109

>  <SCORE.INTRA.VDW.0>
-0.507645

>  <SCORE.INTRA.norm>
-0.0734346

>  <SCORE.RESTR>
0

>  <SCORE.RESTR.CAVITY>
0

>  <SCORE.RESTR.norm>
0

>  <SCORE.SYSTEM>
0

>  <SCORE.SYSTEM.CONST>
0

>  <SCORE.SYSTEM.DIHEDRAL>
0

>  <SCORE.SYSTEM.SOLV>
0

>  <SCORE.SYSTEM.norm>
0

>  <SCORE.heavy>
10

>  <SCORE.norm>
-1.07589

>  <RMSD>
2.206

$$$$
ligand
 OpenBabel11021811473D
libRbt.so/2013.1/901 2013/11/27
 10  9  0  0  0  0  0  0  0  0999 V2000
   31.5027   17.2484   22.4946 N   0  0  0  0  0  0  0  0  0  0  0  0
   30.9233   15.9471   22.0688 C   0  0  2  0  0  0  0  0  0  0  0  0
   31.5002   15.4921   20.7278 C   0  0  0  0  0  0  0  0  0  0  0  0
   32.6978   15.6014   20.4839 O   0  0  0  0  0  0  0  0  0  0  0  0
   29.3928   16.0295   22.0417 C   0  0  0  0  0  0  0  0  0  0  0  0
   28.7251   14.6634   21.9212 C   0  0  0  0  0  0  0  0  0  0  0  0
   27.2250   14.7579   21.6801 C   0  0  0  0  0  0  0  0  0  0  0  0
   26.9276   15.3234   20.2909 C   0  0  0  0  0  0  0  0  0  0  0  0
   27.4857   14.4972   19.1517 N   0  0  0  0  0  0  0  0  0  0  0  0
   30.8224   14.9659   19.8527 O   0  0  0  0  0  0  0  0  0  0  0  0
  2  1  1  6  0  0  0
  2  3  1  0  0  0  0
  2  5  1  0  0  0  0
  3  4  1  0  0  0  0
  3 10  1  0  0  0  0
  5  6  1  0  0  0  0
  6  7  1  0  0  0  0
  7  8  1  0  0  0  0
  8  9  1  0  0  0  0
M  END
>  <CHROM.1>
42.33851999,-167.09967288,-171.18813517,68.62739889,60.05840707,29.74332277
15.44368461,21.04395608,0.24319389,0.17008574,1.13410849

>  <Name>
ligand

>  <RI>
0

>  <Rbt.Current_Directory>
/home/itssahil/PROJECTS/Mol_Feturizer/New_Systems/rnas/3DIM

>  <Rbt.Executable>
rbdock ($Id: //depot/dev/client3/rdock/2013.1/src/exe/rbdock.cxx#4 $)

>  <Rbt.Library>
libRbt.so (2013.1, Build901 2013/11/27)

>  <Rbt.Parameter_File>
/export/apps/rDock/src/rDock_2013.1_src/data/scripts/dock_solv.prm

>  <Rbt.Receptor>
prm/pocket_docking_4.prm

>  <SCORE>
-11.0545

>  <SCORE.INTER>
-10.03

>  <SCORE.INTER.CONST>
1

>  <SCORE.INTER.POLAR>
0

>  <SCORE.INTER.ROT>
5

>  <SCORE.INTER.SOLV>
13.6306

>  <SCORE.INTER.VDW>
-18.1635

>  <SCORE.INTER.norm>
-1.003

>  <SCORE.INTRA>
-1.02452

>  <SCORE.INTRA.DIHEDRAL>
-3.21317

>  <SCORE.INTRA.DIHEDRAL.0>
5.8785

>  <SCORE.INTRA.POLAR>
0

>  <SCORE.INTRA.POLAR.0>
0

>  <SCORE.INTRA.REPUL>
0

>  <SCORE.INTRA.REPUL.0>
0

>  <SCORE.INTRA.SOLV>
-0.0576717

>  <SCORE.INTRA.SOLV.lig_0>
-31.9559

>  <SCORE.INTRA.VDW>
0.610902

>  <SCORE.INTRA.VDW.0>
-0.507645

>  <SCORE.INTRA.norm>
-0.102452

>  <SCORE.RESTR>
0

>  <SCORE.RESTR.CAVITY>
0

>  <SCORE.RESTR.norm>
0

>  <SCORE.SYSTEM>
0

>  <SCORE.SYSTEM.CONST>
0

>  <SCORE.SYSTEM.DIHEDRAL>
0

>  <SCORE.SYSTEM.SOLV>
0

>  <SCORE.SYSTEM.norm>
0

>  <SCORE.heavy>
10

>  <SCORE.norm>
-1.10545

>  <RMSD>
2.245

$$$$
ligand
 OpenBabel11021811473D
libRbt.so/2013.1/901 2013/11/27
 10  9  0  0  0  0  0  0  0  0999 V2000
   31.5270   17.1996   22.5124 N   0  0  0  0  0  0  0  0  0  0  0  0
   30.9429   15.9046   22.0742 C   0  0  2  0  0  0  0  0  0  0  0  0
   31.5077   15.4672   20.7223 C   0  0  0  0  0  0  0  0  0  0  0  0
   32.7020   15.5860   20.4666 O   0  0  0  0  0  0  0  0  0  0  0  0
   29.4123   15.9882   22.0616 C   0  0  0  0  0  0  0  0  0  0  0  0
   28.7429   14.6268   21.9035 C   0  0  0  0  0  0  0  0  0  0  0  0
   27.2426   14.7297   21.6670 C   0  0  0  0  0  0  0  0  0  0  0  0
   26.9443   15.3375   20.2959 C   0  0  0  0  0  0  0  0  0  0  0  0
   27.5132   14.5537   19.1323 N   0  0  0  0  0  0  0  0  0  0  0  0
   30.8235   14.9464   19.8489 O   0  0  0  0  0  0  0  0  0  0  0  0
  2  1  1  6  0  0  0
  2  3  1  0  0  0  0
  2  5  1  0  0  0  0
  3  4  1  0  0  0  0
  3 10  1  0  0  0  0
  5  6  1  0  0  0  0
  6  7  1  0  0  0  0
  7  8  1  0  0  0  0
  8  9  1  0  0  0  0
M  END
>  <CHROM.1>
41.91913768,-168.13010983,-170.76478178,68.49546403,59.44168185,29.75864042
15.42533445,21.04084533,0.23826308,0.16729007,1.15525316

>  <Name>
ligand

>  <RI>
0

>  <Rbt.Current_Directory>
/home/itssahil/PROJECTS/Mol_Feturizer/New_Systems/rnas/3DIM

>  <Rbt.Executable>
rbdock ($Id: //depot/dev/client3/rdock/2013.1/src/exe/rbdock.cxx#4 $)

>  <Rbt.Library>
libRbt.so (2013.1, Build901 2013/11/27)

>  <Rbt.Parameter_File>
/export/apps/rDock/src/rDock_2013.1_src/data/scripts/dock_solv.prm

>  <Rbt.Receptor>
prm/pocket_docking_3.prm

>  <SCORE>
-11.0434

>  <SCORE.INTER>
-10.0427

>  <SCORE.INTER.CONST>
1

>  <SCORE.INTER.POLAR>
0

>  <SCORE.INTER.ROT>
5

>  <SCORE.INTER.SOLV>
13.5765

>  <SCORE.INTER.VDW>
-18.154

>  <SCORE.INTER.norm>
-1.00427

>  <SCORE.INTRA>
-1.00071

>  <SCORE.INTRA.DIHEDRAL>
-3.28297

>  <SCORE.INTRA.DIHEDRAL.0>
5.8785

>  <SCORE.INTRA.POLAR>
0

>  <SCORE.INTRA.POLAR.0>
0

>  <SCORE.INTRA.REPUL>
0

>  <SCORE.INTRA.REPUL.0>
0

>  <SCORE.INTRA.SOLV>
-0.0255779

>  <SCORE.INTRA.SOLV.lig_0>
-31.9559

>  <SCORE.INTRA.VDW>
0.653564

>  <SCORE.INTRA.VDW.0>
-0.507645

>  <SCORE.INTRA.norm>
-0.100071

>  <SCORE.RESTR>
0

>  <SCORE.RESTR.CAVITY>
0

>  <SCORE.RESTR.norm>
0

>  <SCORE.SYSTEM>
0

>  <SCORE.SYSTEM.CONST>
0

>  <SCORE.SYSTEM.DIHEDRAL>
0

>  <SCORE.SYSTEM.SOLV>
0

>  <SCORE.SYSTEM.norm>
0

>  <SCORE.heavy>
10

>  <SCORE.norm>
-1.10434

>  <RMSD>
2.248

$$$$
ligand
 OpenBabel11021811473D
libRbt.so/2013.1/901 2013/11/27
 10  9  0  0  0  0  0  0  0  0999 V2000
   31.5259   17.1078   22.6274 N   0  0  0  0  0  0  0  0  0  0  0  0
   30.9238   15.8421   22.1316 C   0  0  2  0  0  0  0  0  0  0  0  0
   31.4793   15.4607   20.7590 C   0  0  0  0  0  0  0  0  0  0  0  0
   32.6685   15.6069   20.4942 O   0  0  0  0  0  0  0  0  0  0  0  0
   29.3944   15.9460   22.1279 C   0  0  0  0  0  0  0  0  0  0  0  0
   28.7067   14.5991   21.9295 C   0  0  0  0  0  0  0  0  0  0  0  0
   27.2118   14.7308   21.6736 C   0  0  0  0  0  0  0  0  0  0  0  0
   26.9430   15.3530   20.3028 C   0  0  0  0  0  0  0  0  0  0  0  0
   27.4964   14.5566   19.1403 N   0  0  0  0  0  0  0  0  0  0  0  0
   30.7929   14.9599   19.8758 O   0  0  0  0  0  0  0  0  0  0  0  0
  2  1  1  6  0  0  0
  2  3  1  0  0  0  0
  2  5  1  0  0  0  0
  3  4  1  0  0  0  0
  3 10  1  0  0  0  0
  5  6  1  0  0  0  0
  6  7  1  0  0  0  0
  7  8  1  0  0  0  0
  8  9  1  0  0  0  0
M  END
>  <CHROM.1>
40.09320880,-167.28307717,-169.56996281,69.40408155,60.26176230,29.73685711
15.40878027,21.07815351,0.24318117,0.16682174,1.18984960

>  <Name>
ligand

>  <RI>
0

>  <Rbt.Current_Directory>
/home/itssahil/PROJECTS/Mol_Feturizer/New_Systems/rnas/3DIM

>  <Rbt.Executable>
rbdock ($Id: //depot/dev/client3/rdock/2013.1/src/exe/rbdock.cxx#4 $)

>  <Rbt.Library>
libRbt.so (2013.1, Build901 2013/11/27)

>  <Rbt.Parameter_File>
/export/apps/rDock/src/rDock_2013.1_src/data/scripts/dock_solv.prm

>  <Rbt.Receptor>
prm/pocket_docking_3.prm

>  <SCORE>
-11.0426

>  <SCORE.INTER>
-10.0702

>  <SCORE.INTER.CONST>
1

>  <SCORE.INTER.POLAR>
0

>  <SCORE.INTER.ROT>
5

>  <SCORE.INTER.SOLV>
13.8393

>  <SCORE.INTER.VDW>
-18.2599

>  <SCORE.INTER.norm>
-1.00702

>  <SCORE.INTRA>
-0.972462

>  <SCORE.INTRA.DIHEDRAL>
-3.05264

>  <SCORE.INTRA.DIHEDRAL.0>
5.8785

>  <SCORE.INTRA.POLAR>
0

>  <SCORE.INTRA.POLAR.0>
0

>  <SCORE.INTRA.REPUL>
0

>  <SCORE.INTRA.REPUL.0>
0

>  <SCORE.INTRA.SOLV>
-0.0459031

>  <SCORE.INTRA.SOLV.lig_0>
-31.9559

>  <SCORE.INTRA.VDW>
0.57681

>  <SCORE.INTRA.VDW.0>
-0.507645

>  <SCORE.INTRA.norm>
-0.0972462

>  <SCORE.RESTR>
0

>  <SCORE.RESTR.CAVITY>
0

>  <SCORE.RESTR.norm>
0

>  <SCORE.SYSTEM>
0

>  <SCORE.SYSTEM.CONST>
0

>  <SCORE.SYSTEM.DIHEDRAL>
0

>  <SCORE.SYSTEM.SOLV>
0

>  <SCORE.SYSTEM.norm>
0

>  <SCORE.heavy>
10

>  <SCORE.norm>
-1.10426

>  <RMSD>
2.267

$$$$
ligand
 OpenBabel11021811473D
libRbt.so/2013.1/901 2013/11/27
 10  9  0  0  0  0  0  0  0  0999 V2000
   30.5323   16.7324   23.0456 N   0  0  0  0  0  0  0  0  0  0  0  0
   30.6463   15.4525   22.2978 C   0  0  2  0  0  0  0  0  0  0  0  0
   31.5762   15.5921   21.0922 C   0  0  0  0  0  0  0  0  0  0  0  0
   32.6776   16.1221   21.2000 O   0  0  0  0  0  0  0  0  0  0  0  0
   29.2563   14.9430   21.9001 C   0  0  0  0  0  0  0  0  0  0  0  0
   28.4466   15.9719   21.1175 C   0  0  0  0  0  0  0  0  0  0  0  0
   27.1468   15.4045   20.5642 C   0  0  0  0  0  0  0  0  0  0  0  0
   27.4206   14.3919   19.4515 C   0  0  0  0  0  0  0  0  0  0  0  0
   28.2097   14.9488   18.2857 N   0  0  0  0  0  0  0  0  0  0  0  0
   31.2994   15.1563   19.9806 O   0  0  0  0  0  0  0  0  0  0  0  0
  2  1  1  6  0  0  0
  2  3  1  0  0  0  0
  2  5  1  0  0  0  0
  3  4  1  0  0  0  0
  3 10  1  0  0  0  0
  5  6  1  0  0  0  0
  6  7  1  0  0  0  0
  7  8  1  0  0  0  0
  8  9  1  0  0  0  0
M  END
>  <CHROM.1>
47.82884619,54.70847877,172.31295191,-69.05090511,-58.15889102,29.75157460
15.47453934,20.87224761,0.51247138,0.08362989,1.26868431

>  <Name>
ligand

>  <RI>
0

>  <Rbt.Current_Directory>
/home/itssahil/PROJECTS/Mol_Feturizer/New_Systems/rnas/3DIM

>  <Rbt.Executable>
rbdock ($Id: //depot/dev/client3/rdock/2013.1/src/exe/rbdock.cxx#4 $)

>  <Rbt.Library>
libRbt.so (2013.1, Build901 2013/11/27)

>  <Rbt.Parameter_File>
/export/apps/rDock/src/rDock_2013.1_src/data/scripts/dock_solv.prm

>  <Rbt.Receptor>
prm/pocket_docking_6.prm

>  <SCORE>
-9.38463

>  <SCORE.INTER>
-8.63841

>  <SCORE.INTER.CONST>
1

>  <SCORE.INTER.POLAR>
0

>  <SCORE.INTER.ROT>
5

>  <SCORE.INTER.SOLV>
14.6479

>  <SCORE.INTER.VDW>
-17.5749

>  <SCORE.INTER.norm>
-0.863841

>  <SCORE.INTRA>
-0.746223

>  <SCORE.INTRA.DIHEDRAL>
-3.7117

>  <SCORE.INTRA.DIHEDRAL.0>
5.8785

>  <SCORE.INTRA.POLAR>
0

>  <SCORE.INTRA.POLAR.0>
0

>  <SCORE.INTRA.REPUL>
0

>  <SCORE.INTRA.REPUL.0>
0

>  <SCORE.INTRA.SOLV>
0.863056

>  <SCORE.INTRA.SOLV.lig_0>
-31.9559

>  <SCORE.INTRA.VDW>
0.6781

>  <SCORE.INTRA.VDW.0>
-0.507645

>  <SCORE.INTRA.norm>
-0.0746223

>  <SCORE.RESTR>
0

>  <SCORE.RESTR.CAVITY>
0

>  <SCORE.RESTR.norm>
0

>  <SCORE.SYSTEM>
0

>  <SCORE.SYSTEM.CONST>
0

>  <SCORE.SYSTEM.DIHEDRAL>
0

>  <SCORE.SYSTEM.SOLV>
0

>  <SCORE.SYSTEM.norm>
0

>  <SCORE.heavy>
10

>  <SCORE.norm>
-0.938463

>  <RMSD>
2.282

$$$$
ligand
 OpenBabel11021811473D
libRbt.so/2013.1/901 2013/11/27
 10  9  0  0  0  0  0  0  0  0999 V2000
   31.6705   17.1919   22.5255 N   0  0  0  0  0  0  0  0  0  0  0  0
   31.0506   15.9030   22.1194 C   0  0  2  0  0  0  0  0  0  0  0  0
   31.5600   15.4456   20.7522 C   0  0  0  0  0  0  0  0  0  0  0  0
   30.7927   14.9870   19.9116 O   0  0  0  0  0  0  0  0  0  0  0  0
   29.5221   16.0114   22.1604 C   0  0  0  0  0  0  0  0  0  0  0  0
   28.8286   14.6529   22.1567 C   0  0  0  0  0  0  0  0  0  0  0  0
   27.3197   14.7600   21.9860 C   0  0  0  0  0  0  0  0  0  0  0  0
   26.9463   14.9469   20.5150 C   0  0  0  0  0  0  0  0  0  0  0  0
   27.5158   16.1999   19.8844 N   0  0  0  0  0  0  0  0  0  0  0  0
   32.7320   15.5455   20.4080 O   0  0  0  0  0  0  0  0  0  0  0  0
  2  1  1  6  0  0  0
  2  3  1  0  0  0  0
  2  5  1  0  0  0  0
  3  4  1  0  0  0  0
  3 10  1  0  0  0  0
  5  6  1  0  0  0  0
  6  7  1  0  0  0  0
  7  8  1  0  0  0  0
  8  9  1  0  0  0  0
M  END
>  <CHROM.1>
-137.03608700,-163.26724605,-171.34938475,80.98696650,-60.83570868,29.81472541
15.55502198,21.21241712,0.07514520,0.14779873,1.27358254

>  <Name>
ligand

>  <RI>
0

>  <Rbt.Current_Directory>
/home/itssahil/PROJECTS/Mol_Feturizer/New_Systems/rnas/3DIM

>  <Rbt.Executable>
rbdock ($Id: //depot/dev/client3/rdock/2013.1/src/exe/rbdock.cxx#4 $)

>  <Rbt.Library>
libRbt.so (2013.1, Build901 2013/11/27)

>  <Rbt.Parameter_File>
/export/apps/rDock/src/rDock_2013.1_src/data/scripts/dock_solv.prm

>  <Rbt.Receptor>
prm/pocket_docking_3.prm

>  <SCORE>
-9.58429

>  <SCORE.INTER>
-9.75263

>  <SCORE.INTER.CONST>
1

>  <SCORE.INTER.POLAR>
0

>  <SCORE.INTER.ROT>
5

>  <SCORE.INTER.SOLV>
14.7876

>  <SCORE.INTER.VDW>
-18.3643

>  <SCORE.INTER.norm>
-0.975263

>  <SCORE.INTRA>
0.168337

>  <SCORE.INTRA.DIHEDRAL>
-1.32355

>  <SCORE.INTRA.DIHEDRAL.0>
5.8785

>  <SCORE.INTRA.POLAR>
0

>  <SCORE.INTRA.POLAR.0>
0

>  <SCORE.INTRA.REPUL>
0

>  <SCORE.INTRA.REPUL.0>
0

>  <SCORE.INTRA.SOLV>
0.784019

>  <SCORE.INTRA.SOLV.lig_0>
-31.9559

>  <SCORE.INTRA.VDW>
0.438103

>  <SCORE.INTRA.VDW.0>
-0.507645

>  <SCORE.INTRA.norm>
0.0168337

>  <SCORE.RESTR>
0

>  <SCORE.RESTR.CAVITY>
0

>  <SCORE.RESTR.norm>
0

>  <SCORE.SYSTEM>
0

>  <SCORE.SYSTEM.CONST>
0

>  <SCORE.SYSTEM.DIHEDRAL>
0

>  <SCORE.SYSTEM.SOLV>
0

>  <SCORE.SYSTEM.norm>
0

>  <SCORE.heavy>
10

>  <SCORE.norm>
-0.958429

>  <RMSD>
2.290

$$$$
ligand
 OpenBabel11021811473D
libRbt.so/2013.1/901 2013/11/27
 10  9  0  0  0  0  0  0  0  0999 V2000
   31.6103   17.2373   22.4407 N   0  0  0  0  0  0  0  0  0  0  0  0
   31.0101   15.9284   22.0707 C   0  0  2  0  0  0  0  0  0  0  0  0
   31.5097   15.4517   20.7065 C   0  0  0  0  0  0  0  0  0  0  0  0
   32.6917   15.5549   20.3935 O   0  0  0  0  0  0  0  0  0  0  0  0
   29.4804   16.0085   22.1306 C   0  0  0  0  0  0  0  0  0  0  0  0
   28.8120   14.6374   22.1294 C   0  0  0  0  0  0  0  0  0  0  0  0
   27.3023   14.7160   21.9507 C   0  0  0  0  0  0  0  0  0  0  0  0
   26.9331   14.8895   20.4770 C   0  0  0  0  0  0  0  0  0  0  0  0
   27.4717   16.1563   19.8470 N   0  0  0  0  0  0  0  0  0  0  0  0
   30.7829   14.9135   19.8793 O   0  0  0  0  0  0  0  0  0  0  0  0
  2  1  1  6  0  0  0
  2  3  1  0  0  0  0
  2  5  1  0  0  0  0
  3  4  1  0  0  0  0
  3 10  1  0  0  0  0
  5  6  1  0  0  0  0
  6  7  1  0  0  0  0
  7  8  1  0  0  0  0
  8  9  1  0  0  0  0
M  END
>  <CHROM.1>
42.54505164,-164.73351740,-170.24693470,80.99847031,-61.38322047,29.78183198
15.53890747,21.17365069,0.08341617,0.15746311,1.23655687

>  <Name>
ligand

>  <RI>
0

>  <Rbt.Current_Directory>
/home/itssahil/PROJECTS/Mol_Feturizer/New_Systems/rnas/3DIM

>  <Rbt.Executable>
rbdock ($Id: //depot/dev/client3/rdock/2013.1/src/exe/rbdock.cxx#4 $)

>  <Rbt.Library>
libRbt.so (2013.1, Build901 2013/11/27)

>  <Rbt.Parameter_File>
/export/apps/rDock/src/rDock_2013.1_src/data/scripts/dock_solv.prm

>  <Rbt.Receptor>
prm/pocket_docking_4.prm

>  <SCORE>
-9.6796

>  <SCORE.INTER>
-9.57636

>  <SCORE.INTER.CONST>
1

>  <SCORE.INTER.POLAR>
0

>  <SCORE.INTER.ROT>
5

>  <SCORE.INTER.SOLV>
14.678

>  <SCORE.INTER.VDW>
-18.2102

>  <SCORE.INTER.norm>
-0.957636

>  <SCORE.INTRA>
-0.103235

>  <SCORE.INTRA.DIHEDRAL>
-1.53623

>  <SCORE.INTRA.DIHEDRAL.0>
5.8785

>  <SCORE.INTRA.POLAR>
0

>  <SCORE.INTRA.POLAR.0>
0

>  <SCORE.INTRA.REPUL>
0

>  <SCORE.INTRA.REPUL.0>
0

>  <SCORE.INTRA.SOLV>
0.751943

>  <SCORE.INTRA.SOLV.lig_0>
-31.9559

>  <SCORE.INTRA.VDW>
0.288909

>  <SCORE.INTRA.VDW.0>
-0.507645

>  <SCORE.INTRA.norm>
-0.0103235

>  <SCORE.RESTR>
0

>  <SCORE.RESTR.CAVITY>
0

>  <SCORE.RESTR.norm>
0

>  <SCORE.SYSTEM>
0

>  <SCORE.SYSTEM.CONST>
0

>  <SCORE.SYSTEM.DIHEDRAL>
0

>  <SCORE.SYSTEM.SOLV>
0

>  <SCORE.SYSTEM.norm>
0

>  <SCORE.heavy>
10

>  <SCORE.norm>
-0.96796

>  <RMSD>
2.301

$$$$
ligand
 OpenBabel11021811473D
libRbt.so/2013.1/901 2013/11/27
 10  9  0  0  0  0  0  0  0  0999 V2000
   31.6775   17.1772   22.4751 N   0  0  0  0  0  0  0  0  0  0  0  0
   31.0446   15.8933   22.0733 C   0  0  2  0  0  0  0  0  0  0  0  0
   31.5297   15.4396   20.6960 C   0  0  0  0  0  0  0  0  0  0  0  0
   30.7545   14.9472   19.8822 O   0  0  0  0  0  0  0  0  0  0  0  0
   29.5175   16.0092   22.1392 C   0  0  0  0  0  0  0  0  0  0  0  0
   28.8177   14.6540   22.1524 C   0  0  0  0  0  0  0  0  0  0  0  0
   27.3094   14.7659   21.9784 C   0  0  0  0  0  0  0  0  0  0  0  0
   26.9387   14.9337   20.5044 C   0  0  0  0  0  0  0  0  0  0  0  0
   27.5250   16.1683   19.8534 N   0  0  0  0  0  0  0  0  0  0  0  0
   32.6874   15.5752   20.3170 O   0  0  0  0  0  0  0  0  0  0  0  0
  2  1  1  6  0  0  0
  2  3  1  0  0  0  0
  2  5  1  0  0  0  0
  3  4  1  0  0  0  0
  3 10  1  0  0  0  0
  5  6  1  0  0  0  0
  6  7  1  0  0  0  0
  7  8  1  0  0  0  0
  8  9  1  0  0  0  0
M  END
>  <CHROM.1>
-139.50637275,-162.78735991,-170.19913714,81.05655912,-60.31753972,29.80049096
15.54705604,21.17731482,0.06521965,0.15669028,1.28008052

>  <Name>
ligand

>  <RI>
0

>  <Rbt.Current_Directory>
/home/itssahil/PROJECTS/Mol_Feturizer/New_Systems/rnas/3DIM

>  <Rbt.Executable>
rbdock ($Id: //depot/dev/client3/rdock/2013.1/src/exe/rbdock.cxx#4 $)

>  <Rbt.Library>
libRbt.so (2013.1, Build901 2013/11/27)

>  <Rbt.Parameter_File>
/export/apps/rDock/src/rDock_2013.1_src/data/scripts/dock_solv.prm

>  <Rbt.Receptor>
prm/pocket_docking_8.prm

>  <SCORE>
-9.53735

>  <SCORE.INTER>
-9.78158

>  <SCORE.INTER.CONST>
1

>  <SCORE.INTER.POLAR>
0

>  <SCORE.INTER.ROT>
5

>  <SCORE.INTER.SOLV>
14.5998

>  <SCORE.INTER.VDW>
-18.321

>  <SCORE.INTER.norm>
-0.978158

>  <SCORE.INTRA>
0.244232

>  <SCORE.INTRA.DIHEDRAL>
-1.16963

>  <SCORE.INTRA.DIHEDRAL.0>
5.8785

>  <SCORE.INTRA.POLAR>
0

>  <SCORE.INTRA.POLAR.0>
0

>  <SCORE.INTRA.REPUL>
0

>  <SCORE.INTRA.REPUL.0>
0

>  <SCORE.INTRA.SOLV>
0.832047

>  <SCORE.INTRA.SOLV.lig_0>
-31.9559

>  <SCORE.INTRA.VDW>
0.413022

>  <SCORE.INTRA.VDW.0>
-0.507645

>  <SCORE.INTRA.norm>
0.0244232

>  <SCORE.RESTR>
0

>  <SCORE.RESTR.CAVITY>
0

>  <SCORE.RESTR.norm>
0

>  <SCORE.SYSTEM>
0

>  <SCORE.SYSTEM.CONST>
0

>  <SCORE.SYSTEM.DIHEDRAL>
0

>  <SCORE.SYSTEM.SOLV>
0

>  <SCORE.SYSTEM.norm>
0

>  <SCORE.heavy>
10

>  <SCORE.norm>
-0.953735

>  <RMSD>
2.301

$$$$
ligand
 OpenBabel11021811473D
libRbt.so/2013.1/901 2013/11/27
 10  9  0  0  0  0  0  0  0  0999 V2000
   29.3940   17.0423   21.4058 N   0  0  0  0  0  0  0  0  0  0  0  0
   28.2698   16.1481   21.0228 C   0  0  2  0  0  0  0  0  0  0  0  0
   27.9615   15.1359   22.1267 C   0  0  0  0  0  0  0  0  0  0  0  0
   26.8107   14.7732   22.3499 O   0  0  0  0  0  0  0  0  0  0  0  0
   28.5640   15.4682   19.6808 C   0  0  0  0  0  0  0  0  0  0  0  0
   27.4572   14.5155   19.2407 C   0  0  0  0  0  0  0  0  0  0  0  0
   27.9782   13.3413   18.4237 C   0  0  0  0  0  0  0  0  0  0  0  0
   26.8249   12.4949   17.8834 C   0  0  0  0  0  0  0  0  0  0  0  0
   27.2519   11.1668   17.2957 N   0  0  0  0  0  0  0  0  0  0  0  0
   28.8304   14.6085   22.8115 O   0  0  0  0  0  0  0  0  0  0  0  0
  2  1  1  1  0  0  0
  2  3  1  0  0  0  0
  2  5  1  0  0  0  0
  3  4  1  0  0  0  0
  3 10  1  0  0  0  0
  5  6  1  0  0  0  0
  6  7  1  0  0  0  0
  7  8  1  0  0  0  0
  8  9  1  0  0  0  0
M  END
>  <CHROM.1>
144.82776707,178.99615479,-148.84219225,-174.12609270,-168.56841325,27.92817235
14.45426291,20.25734433,-1.11520395,-1.06658715,-1.85766976

>  <Name>
ligand

>  <RI>
0

>  <Rbt.Current_Directory>
/home/itssahil/PROJECTS/Mol_Feturizer/New_Systems/rnas/3DIM

>  <Rbt.Executable>
rbdock ($Id: //depot/dev/client3/rdock/2013.1/src/exe/rbdock.cxx#4 $)

>  <Rbt.Library>
libRbt.so (2013.1, Build901 2013/11/27)

>  <Rbt.Parameter_File>
/export/apps/rDock/src/rDock_2013.1_src/data/scripts/dock_solv.prm

>  <Rbt.Receptor>
prm/pocket_docking_8.prm

>  <SCORE>
-5.85833

>  <SCORE.INTER>
-4.32984

>  <SCORE.INTER.CONST>
1

>  <SCORE.INTER.POLAR>
0

>  <SCORE.INTER.ROT>
5

>  <SCORE.INTER.SOLV>
19.0785

>  <SCORE.INTER.VDW>
-16.1794

>  <SCORE.INTER.norm>
-0.432984

>  <SCORE.INTRA>
-1.52849

>  <SCORE.INTRA.DIHEDRAL>
-0.574908

>  <SCORE.INTRA.DIHEDRAL.0>
5.8785

>  <SCORE.INTRA.POLAR>
0

>  <SCORE.INTRA.POLAR.0>
0

>  <SCORE.INTRA.REPUL>
0

>  <SCORE.INTRA.REPUL.0>
0

>  <SCORE.INTRA.SOLV>
-1.87162

>  <SCORE.INTRA.SOLV.lig_0>
-31.9559

>  <SCORE.INTRA.VDW>
-0.305227

>  <SCORE.INTRA.VDW.0>
-0.507645

>  <SCORE.INTRA.norm>
-0.152849

>  <SCORE.RESTR>
0

>  <SCORE.RESTR.CAVITY>
0

>  <SCORE.RESTR.norm>
0

>  <SCORE.SYSTEM>
0

>  <SCORE.SYSTEM.CONST>
0

>  <SCORE.SYSTEM.DIHEDRAL>
0

>  <SCORE.SYSTEM.SOLV>
0

>  <SCORE.SYSTEM.norm>
0

>  <SCORE.heavy>
10

>  <SCORE.norm>
-0.585833

>  <RMSD>
4.345

$$$$
ligand
 OpenBabel11021811473D
libRbt.so/2013.1/901 2013/11/27
 10  9  0  0  0  0  0  0  0  0999 V2000
   27.8905   14.3081   21.8086 N   0  0  0  0  0  0  0  0  0  0  0  0
   28.5731   15.6286   21.8339 C   0  0  2  0  0  0  0  0  0  0  0  0
   28.2203   16.4622   20.6015 C   0  0  0  0  0  0  0  0  0  0  0  0
   28.9671   17.3505   20.2029 O   0  0  0  0  0  0  0  0  0  0  0  0
   30.0864   15.4425   21.9922 C   0  0  0  0  0  0  0  0  0  0  0  0
   30.8086   16.7320   22.3693 C   0  0  0  0  0  0  0  0  0  0  0  0
   32.3239   16.5874   22.3526 C   0  0  0  0  0  0  0  0  0  0  0  0
   32.8700   16.7042   20.9291 C   0  0  0  0  0  0  0  0  0  0  0  0
   32.4296   15.5914   20.0020 N   0  0  0  0  0  0  0  0  0  0  0  0
   27.2130   16.2697   19.9304 O   0  0  0  0  0  0  0  0  0  0  0  0
  2  1  1  6  0  0  0
  2  3  1  0  0  0  0
  2  5  1  0  0  0  0
  3  4  1  0  0  0  0
  3 10  1  0  0  0  0
  5  6  1  0  0  0  0
  6  7  1  0  0  0  0
  7  8  1  0  0  0  0
  8  9  1  0  0  0  0
M  END
>  <CHROM.1>
-156.01975527,-165.77890717,-172.68546557,80.92336545,-64.98272522,29.92079661
16.12600375,21.17466965,3.10720940,-0.15904565,-0.96233952

>  <Name>
ligand

>  <RI>
0

>  <Rbt.Current_Directory>
/home/itssahil/PROJECTS/Mol_Feturizer/New_Systems/rnas/3DIM

>  <Rbt.Executable>
rbdock ($Id: //depot/dev/client3/rdock/2013.1/src/exe/rbdock.cxx#4 $)

>  <Rbt.Library>
libRbt.so (2013.1, Build901 2013/11/27)

>  <Rbt.Parameter_File>
/export/apps/rDock/src/rDock_2013.1_src/data/scripts/dock_solv.prm

>  <Rbt.Receptor>
prm/pocket_docking_8.prm

>  <SCORE>
-7.20848

>  <SCORE.INTER>
-7.03283

>  <SCORE.INTER.CONST>
1

>  <SCORE.INTER.POLAR>
0

>  <SCORE.INTER.ROT>
5

>  <SCORE.INTER.SOLV>
17.9885

>  <SCORE.INTER.VDW>
-17.618

>  <SCORE.INTER.norm>
-0.703283

>  <SCORE.INTRA>
-0.175645

>  <SCORE.INTRA.DIHEDRAL>
-1.59156

>  <SCORE.INTRA.DIHEDRAL.0>
5.8785

>  <SCORE.INTRA.POLAR>
0

>  <SCORE.INTRA.POLAR.0>
0

>  <SCORE.INTRA.REPUL>
0

>  <SCORE.INTRA.REPUL.0>
0

>  <SCORE.INTRA.SOLV>
0.436854

>  <SCORE.INTRA.SOLV.lig_0>
-31.9559

>  <SCORE.INTRA.VDW>
0.401708

>  <SCORE.INTRA.VDW.0>
-0.507645

>  <SCORE.INTRA.norm>
-0.0175645

>  <SCORE.RESTR>
0

>  <SCORE.RESTR.CAVITY>
0

>  <SCORE.RESTR.norm>
0

>  <SCORE.SYSTEM>
0

>  <SCORE.SYSTEM.CONST>
0

>  <SCORE.SYSTEM.DIHEDRAL>
0

>  <SCORE.SYSTEM.SOLV>
0

>  <SCORE.SYSTEM.norm>
0

>  <SCORE.heavy>
10

>  <SCORE.norm>
-0.720848

>  <RMSD>
4.669

$$$$
ligand
 OpenBabel11021811473D
libRbt.so/2013.1/901 2013/11/27
 10  9  0  0  0  0  0  0  0  0999 V2000
   28.9233   16.7059   21.4821 N   0  0  0  0  0  0  0  0  0  0  0  0
   27.9572   16.0645   20.5518 C   0  0  2  0  0  0  0  0  0  0  0  0
   27.1492   14.9721   21.2530 C   0  0  0  0  0  0  0  0  0  0  0  0
   27.6443   14.2940   22.1479 O   0  0  0  0  0  0  0  0  0  0  0  0
   28.6843   15.5383   19.3091 C   0  0  0  0  0  0  0  0  0  0  0  0
   27.7625   14.7881   18.3530 C   0  0  0  0  0  0  0  0  0  0  0  0
   27.8131   13.2788   18.5455 C   0  0  0  0  0  0  0  0  0  0  0  0
   26.7640   12.5804   17.6796 C   0  0  0  0  0  0  0  0  0  0  0  0
   26.8396   11.0687   17.7110 N   0  0  0  0  0  0  0  0  0  0  0  0
   25.9732   14.7416   20.9963 O   0  0  0  0  0  0  0  0  0  0  0  0
  2  1  1  1  0  0  0
  2  3  1  0  0  0  0
  2  5  1  0  0  0  0
  3  4  1  0  0  0  0
  3 10  1  0  0  0  0
  5  6  1  0  0  0  0
  6  7  1  0  0  0  0
  7  8  1  0  0  0  0
  8  9  1  0  0  0  0
M  END
>  <CHROM.1>
-33.07742635,176.31790627,-96.90558878,173.65311817,174.31357110,27.53306903
14.38660689,19.82639206,-1.25281629,-0.91043322,-2.11795932

>  <Name>
ligand

>  <RI>
0

>  <Rbt.Current_Directory>
/home/itssahil/PROJECTS/Mol_Feturizer/New_Systems/rnas/3DIM

>  <Rbt.Executable>
rbdock ($Id: //depot/dev/client3/rdock/2013.1/src/exe/rbdock.cxx#4 $)

>  <Rbt.Library>
libRbt.so (2013.1, Build901 2013/11/27)

>  <Rbt.Parameter_File>
/export/apps/rDock/src/rDock_2013.1_src/data/scripts/dock_solv.prm

>  <Rbt.Receptor>
prm/blind_docking_60.prm

>  <SCORE>
-5.20042

>  <SCORE.INTER>
-3.99569

>  <SCORE.INTER.CONST>
1

>  <SCORE.INTER.POLAR>
0

>  <SCORE.INTER.ROT>
5

>  <SCORE.INTER.SOLV>
19.1037

>  <SCORE.INTER.VDW>
-15.965

>  <SCORE.INTER.norm>
-0.399569

>  <SCORE.INTRA>
-1.20473

>  <SCORE.INTRA.DIHEDRAL>
0.200401

>  <SCORE.INTRA.DIHEDRAL.0>
5.8785

>  <SCORE.INTRA.POLAR>
0

>  <SCORE.INTRA.POLAR.0>
0

>  <SCORE.INTRA.REPUL>
0

>  <SCORE.INTRA.REPUL.0>
0

>  <SCORE.INTRA.SOLV>
-1.79946

>  <SCORE.INTRA.SOLV.lig_0>
-31.9559

>  <SCORE.INTRA.VDW>
-0.405202

>  <SCORE.INTRA.VDW.0>
-0.507645

>  <SCORE.INTRA.norm>
-0.120473

>  <SCORE.RESTR>
0

>  <SCORE.RESTR.CAVITY>
0

>  <SCORE.RESTR.norm>
0

>  <SCORE.SYSTEM>
0

>  <SCORE.SYSTEM.CONST>
0

>  <SCORE.SYSTEM.DIHEDRAL>
0

>  <SCORE.SYSTEM.SOLV>
0

>  <SCORE.SYSTEM.norm>
0

>  <SCORE.heavy>
10

>  <SCORE.norm>
-0.520042

>  <RMSD>
4.859

$$$$
ligand
 OpenBabel11021811473D
libRbt.so/2013.1/901 2013/11/27
 10  9  0  0  0  0  0  0  0  0999 V2000
   27.1603   13.2331   18.7424 N   0  0  0  0  0  0  0  0  0  0  0  0
   27.0985   14.6809   19.0746 C   0  0  2  0  0  0  0  0  0  0  0  0
   28.3772   15.4050   18.6521 C   0  0  0  0  0  0  0  0  0  0  0  0
   29.2721   14.8139   18.0559 O   0  0  0  0  0  0  0  0  0  0  0  0
   26.7909   14.8725   20.5641 C   0  0  0  0  0  0  0  0  0  0  0  0
   27.9689   14.5178   21.4658 C   0  0  0  0  0  0  0  0  0  0  0  0
   28.9996   15.6342   21.5582 C   0  0  0  0  0  0  0  0  0  0  0  0
   30.2339   15.1776   22.3369 C   0  0  0  0  0  0  0  0  0  0  0  0
   31.3512   16.1980   22.3833 N   0  0  0  0  0  0  0  0  0  0  0  0
   28.5623   16.6013   18.8437 O   0  0  0  0  0  0  0  0  0  0  0  0
  2  1  1  1  0  0  0
  2  3  1  0  0  0  0
  2  5  1  0  0  0  0
  3  4  1  0  0  0  0
  3 10  1  0  0  0  0
  5  6  1  0  0  0  0
  6  7  1  0  0  0  0
  7  8  1  0  0  0  0
  8  9  1  0  0  0  0
M  END
>  <CHROM.1>
3.40159201,72.33594199,80.72401222,-173.44663524,175.59794497,28.60419488
15.12908338,20.14902965,2.34923212,-0.53935322,-1.42867705

>  <Name>
ligand

>  <RI>
0

>  <Rbt.Current_Directory>
/home/itssahil/PROJECTS/Mol_Feturizer/New_Systems/rnas/3DIM

>  <Rbt.Executable>
rbdock ($Id: //depot/dev/client3/rdock/2013.1/src/exe/rbdock.cxx#4 $)

>  <Rbt.Library>
libRbt.so (2013.1, Build901 2013/11/27)

>  <Rbt.Parameter_File>
/export/apps/rDock/src/rDock_2013.1_src/data/scripts/dock_solv.prm

>  <Rbt.Receptor>
prm/pocket_docking_3.prm

>  <SCORE>
-7.6034

>  <SCORE.INTER>
-6.65314

>  <SCORE.INTER.CONST>
1

>  <SCORE.INTER.POLAR>
0

>  <SCORE.INTER.ROT>
5

>  <SCORE.INTER.SOLV>
16.6217

>  <SCORE.INTER.VDW>
-16.9093

>  <SCORE.INTER.norm>
-0.665314

>  <SCORE.INTRA>
-0.95283

>  <SCORE.INTRA.DIHEDRAL>
-1.94458

>  <SCORE.INTRA.DIHEDRAL.0>
5.8785

>  <SCORE.INTRA.POLAR>
0

>  <SCORE.INTRA.POLAR.0>
0

>  <SCORE.INTRA.REPUL>
0

>  <SCORE.INTRA.REPUL.0>
0

>  <SCORE.INTRA.SOLV>
-0.828094

>  <SCORE.INTRA.SOLV.lig_0>
-31.9559

>  <SCORE.INTRA.VDW>
0.433508

>  <SCORE.INTRA.VDW.0>
-0.507645

>  <SCORE.INTRA.norm>
-0.095283

>  <SCORE.RESTR>
0.00257341

>  <SCORE.RESTR.CAVITY>
0.00257341

>  <SCORE.RESTR.norm>
0.000257341

>  <SCORE.SYSTEM>
0

>  <SCORE.SYSTEM.CONST>
0

>  <SCORE.SYSTEM.DIHEDRAL>
0

>  <SCORE.SYSTEM.SOLV>
0

>  <SCORE.SYSTEM.norm>
0

>  <SCORE.heavy>
10

>  <SCORE.norm>
-0.76034

>  <RMSD>
4.879

$$$$
ligand
 OpenBabel11021811473D
libRbt.so/2013.1/901 2013/11/27
 10  9  0  0  0  0  0  0  0  0999 V2000
   27.8096   15.2596   19.3225 N   0  0  0  0  0  0  0  0  0  0  0  0
   28.7002   15.2568   20.5130 C   0  0  2  0  0  0  0  0  0  0  0  0
   27.9533   14.8007   21.7669 C   0  0  0  0  0  0  0  0  0  0  0  0
   28.5554   14.3267   22.7252 O   0  0  0  0  0  0  0  0  0  0  0  0
   29.3493   16.6335   20.6952 C   0  0  0  0  0  0  0  0  0  0  0  0
   30.3507   16.6720   21.8451 C   0  0  0  0  0  0  0  0  0  0  0  0
   31.5026   15.6944   21.6588 C   0  0  0  0  0  0  0  0  0  0  0  0
   32.5162   16.2283   20.6460 C   0  0  0  0  0  0  0  0  0  0  0  0
   33.3667   17.3696   21.1614 N   0  0  0  0  0  0  0  0  0  0  0  0
   26.7407   14.9166   21.9018 O   0  0  0  0  0  0  0  0  0  0  0  0
  2  1  1  6  0  0  0
  2  3  1  0  0  0  0
  2  5  1  0  0  0  0
  3  4  1  0  0  0  0
  3 10  1  0  0  0  0
  5  6  1  0  0  0  0
  6  7  1  0  0  0  0
  7  8  1  0  0  0  0
  8  9  1  0  0  0  0
M  END
>  <CHROM.1>
156.57846888,-176.05891096,60.13797410,76.93422015,73.07978328,29.65902835
15.70141121,21.25164230,2.97715297,0.32082566,1.90887067

>  <Name>
ligand

>  <RI>
0

>  <Rbt.Current_Directory>
/home/itssahil/PROJECTS/Mol_Feturizer/New_Systems/rnas/3DIM

>  <Rbt.Executable>
rbdock ($Id: //depot/dev/client3/rdock/2013.1/src/exe/rbdock.cxx#4 $)

>  <Rbt.Library>
libRbt.so (2013.1, Build901 2013/11/27)

>  <Rbt.Parameter_File>
/export/apps/rDock/src/rDock_2013.1_src/data/scripts/dock_solv.prm

>  <Rbt.Receptor>
prm/blind_docking_60.prm

>  <SCORE>
-9.22242

>  <SCORE.INTER>
-7.94772

>  <SCORE.INTER.CONST>
1

>  <SCORE.INTER.POLAR>
0

>  <SCORE.INTER.ROT>
5

>  <SCORE.INTER.SOLV>
13.6999

>  <SCORE.INTER.VDW>
-16.7985

>  <SCORE.INTER.norm>
-0.794772

>  <SCORE.INTRA>
-1.2747

>  <SCORE.INTRA.DIHEDRAL>
-2.65261

>  <SCORE.INTRA.DIHEDRAL.0>
5.8785

>  <SCORE.INTRA.POLAR>
0

>  <SCORE.INTRA.POLAR.0>
0

>  <SCORE.INTRA.REPUL>
0

>  <SCORE.INTRA.REPUL.0>
0

>  <SCORE.INTRA.SOLV>
-0.513721

>  <SCORE.INTRA.SOLV.lig_0>
-31.9559

>  <SCORE.INTRA.VDW>
0.308462

>  <SCORE.INTRA.VDW.0>
-0.507645

>  <SCORE.INTRA.norm>
-0.12747

>  <SCORE.RESTR>
0

>  <SCORE.RESTR.CAVITY>
0

>  <SCORE.RESTR.norm>
0

>  <SCORE.SYSTEM>
0

>  <SCORE.SYSTEM.CONST>
0

>  <SCORE.SYSTEM.DIHEDRAL>
0

>  <SCORE.SYSTEM.SOLV>
0

>  <SCORE.SYSTEM.norm>
0

>  <SCORE.heavy>
10

>  <SCORE.norm>
-0.922242

>  <RMSD>
4.885

$$$$
ligand
 OpenBabel11021811473D
libRbt.so/2013.1/901 2013/11/27
 10  9  0  0  0  0  0  0  0  0999 V2000
   26.2056   14.7846   20.9028 N   0  0  0  0  0  0  0  0  0  0  0  0
   27.4985   15.4642   21.1800 C   0  0  2  0  0  0  0  0  0  0  0  0
   28.1209   16.0220   19.8996 C   0  0  0  0  0  0  0  0  0  0  0  0
   28.0740   15.3935   18.8468 O   0  0  0  0  0  0  0  0  0  0  0  0
   28.4497   14.5169   21.9202 C   0  0  0  0  0  0  0  0  0  0  0  0
   29.6551   15.2330   22.5206 C   0  0  0  0  0  0  0  0  0  0  0  0
   30.7075   15.5922   21.4809 C   0  0  0  0  0  0  0  0  0  0  0  0
   31.8354   16.4153   22.1044 C   0  0  0  0  0  0  0  0  0  0  0  0
   32.9378   16.7906   21.1372 N   0  0  0  0  0  0  0  0  0  0  0  0
   28.6559   17.1232   19.8413 O   0  0  0  0  0  0  0  0  0  0  0  0
  2  1  1  6  0  0  0
  2  3  1  0  0  0  0
  2  5  1  0  0  0  0
  3  4  1  0  0  0  0
  3 10  1  0  0  0  0
  5  6  1  0  0  0  0
  6  7  1  0  0  0  0
  7  8  1  0  0  0  0
  8  9  1  0  0  0  0
M  END
>  <CHROM.1>
-39.48842903,-166.56942691,-76.49382895,174.95088836,178.89313444,29.21806022
15.74601110,20.95163120,3.01759148,-0.31643168,-1.08012898

>  <Name>
ligand

>  <RI>
0

>  <Rbt.Current_Directory>
/home/itssahil/PROJECTS/Mol_Feturizer/New_Systems/rnas/3DIM

>  <Rbt.Executable>
rbdock ($Id: //depot/dev/client3/rdock/2013.1/src/exe/rbdock.cxx#4 $)

>  <Rbt.Library>
libRbt.so (2013.1, Build901 2013/11/27)

>  <Rbt.Parameter_File>
/export/apps/rDock/src/rDock_2013.1_src/data/scripts/dock_solv.prm

>  <Rbt.Receptor>
prm/pocket_docking_6.prm

>  <SCORE>
-10.6261

>  <SCORE.INTER>
-8.19952

>  <SCORE.INTER.CONST>
1

>  <SCORE.INTER.POLAR>
0

>  <SCORE.INTER.ROT>
5

>  <SCORE.INTER.SOLV>
18.3462

>  <SCORE.INTER.VDW>
-18.5151

>  <SCORE.INTER.norm>
-0.819952

>  <SCORE.INTRA>
-2.4266

>  <SCORE.INTRA.DIHEDRAL>
-2.46825

>  <SCORE.INTRA.DIHEDRAL.0>
5.8785

>  <SCORE.INTRA.POLAR>
0

>  <SCORE.INTRA.POLAR.0>
0

>  <SCORE.INTRA.REPUL>
0

>  <SCORE.INTRA.REPUL.0>
0

>  <SCORE.INTRA.SOLV>
-1.75499

>  <SCORE.INTRA.SOLV.lig_0>
-31.9559

>  <SCORE.INTRA.VDW>
-0.314984

>  <SCORE.INTRA.VDW.0>
-0.507645

>  <SCORE.INTRA.norm>
-0.24266

>  <SCORE.RESTR>
0

>  <SCORE.RESTR.CAVITY>
0

>  <SCORE.RESTR.norm>
0

>  <SCORE.SYSTEM>
0

>  <SCORE.SYSTEM.CONST>
0

>  <SCORE.SYSTEM.DIHEDRAL>
0

>  <SCORE.SYSTEM.SOLV>
0

>  <SCORE.SYSTEM.norm>
0

>  <SCORE.heavy>
10

>  <SCORE.norm>
-1.06261

>  <RMSD>
4.910

$$$$
ligand
 OpenBabel11021811473D
libRbt.so/2013.1/901 2013/11/27
 10  9  0  0  0  0  0  0  0  0999 V2000
   26.1241   14.7956   20.7953 N   0  0  0  0  0  0  0  0  0  0  0  0
   27.4216   15.4562   21.0963 C   0  0  2  0  0  0  0  0  0  0  0  0
   28.0764   16.0030   19.8275 C   0  0  0  0  0  0  0  0  0  0  0  0
   28.6326   17.0968   19.8229 O   0  0  0  0  0  0  0  0  0  0  0  0
   28.3442   14.4957   21.8554 C   0  0  0  0  0  0  0  0  0  0  0  0
   29.5329   15.1990   22.5027 C   0  0  0  0  0  0  0  0  0  0  0  0
   30.6344   15.5355   21.5073 C   0  0  0  0  0  0  0  0  0  0  0  0
   31.7587   16.3242   22.1798 C   0  0  0  0  0  0  0  0  0  0  0  0
   32.8716   16.7410   21.2420 N   0  0  0  0  0  0  0  0  0  0  0  0
   28.1189   15.3775   18.7744 O   0  0  0  0  0  0  0  0  0  0  0  0
  2  1  1  6  0  0  0
  2  3  1  0  0  0  0
  2  5  1  0  0  0  0
  3  4  1  0  0  0  0
  3 10  1  0  0  0  0
  5  6  1  0  0  0  0
  6  7  1  0  0  0  0
  7  8  1  0  0  0  0
  8  9  1  0  0  0  0
M  END
>  <CHROM.1>
139.07903282,-165.35690068,-77.86852131,176.02922430,-177.90660797,29.15746194
15.71484776,20.92909665,2.97997328,-0.31966838,-1.09351511

>  <Name>
ligand

>  <RI>
0

>  <Rbt.Current_Directory>
/home/itssahil/PROJECTS/Mol_Feturizer/New_Systems/rnas/3DIM

>  <Rbt.Executable>
rbdock ($Id: //depot/dev/client3/rdock/2013.1/src/exe/rbdock.cxx#4 $)

>  <Rbt.Library>
libRbt.so (2013.1, Build901 2013/11/27)

>  <Rbt.Parameter_File>
/export/apps/rDock/src/rDock_2013.1_src/data/scripts/dock_solv.prm

>  <Rbt.Receptor>
prm/pocket_docking_6.prm

>  <SCORE>
-10.6977

>  <SCORE.INTER>
-8.21496

>  <SCORE.INTER.CONST>
1

>  <SCORE.INTER.POLAR>
0

>  <SCORE.INTER.ROT>
5

>  <SCORE.INTER.SOLV>
18.2766

>  <SCORE.INTER.VDW>
-18.5022

>  <SCORE.INTER.norm>
-0.821496

>  <SCORE.INTRA>
-2.48272

>  <SCORE.INTRA.DIHEDRAL>
-2.3377

>  <SCORE.INTRA.DIHEDRAL.0>
5.8785

>  <SCORE.INTRA.POLAR>
0

>  <SCORE.INTRA.POLAR.0>
0

>  <SCORE.INTRA.REPUL>
0

>  <SCORE.INTRA.REPUL.0>
0

>  <SCORE.INTRA.SOLV>
-1.7917

>  <SCORE.INTRA.SOLV.lig_0>
-31.9559

>  <SCORE.INTRA.VDW>
-0.418021

>  <SCORE.INTRA.VDW.0>
-0.507645

>  <SCORE.INTRA.norm>
-0.248272

>  <SCORE.RESTR>
0

>  <SCORE.RESTR.CAVITY>
0

>  <SCORE.RESTR.norm>
0

>  <SCORE.SYSTEM>
0

>  <SCORE.SYSTEM.CONST>
0

>  <SCORE.SYSTEM.DIHEDRAL>
0

>  <SCORE.SYSTEM.SOLV>
0

>  <SCORE.SYSTEM.norm>
0

>  <SCORE.heavy>
10

>  <SCORE.norm>
-1.06977

>  <RMSD>
4.923

$$$$
ligand
 OpenBabel11021811473D
libRbt.so/2013.1/901 2013/11/27
 10  9  0  0  0  0  0  0  0  0999 V2000
   27.1734   14.9785   19.4879 N   0  0  0  0  0  0  0  0  0  0  0  0
   28.3474   15.1450   20.3847 C   0  0  2  0  0  0  0  0  0  0  0  0
   28.0367   14.6689   21.8041 C   0  0  0  0  0  0  0  0  0  0  0  0
   28.8366   13.9809   22.4305 O   0  0  0  0  0  0  0  0  0  0  0  0
   28.8370   16.5974   20.3562 C   0  0  0  0  0  0  0  0  0  0  0  0
   30.2992   16.7409   20.7658 C   0  0  0  0  0  0  0  0  0  0  0  0
   30.5373   16.4106   22.2327 C   0  0  0  0  0  0  0  0  0  0  0  0
   32.0300   16.4309   22.5638 C   0  0  0  0  0  0  0  0  0  0  0  0
   32.6808   17.7894   22.4132 N   0  0  0  0  0  0  0  0  0  0  0  0
   27.0108   14.9732   22.4016 O   0  0  0  0  0  0  0  0  0  0  0  0
  2  1  1  6  0  0  0
  2  3  1  0  0  0  0
  2  5  1  0  0  0  0
  3  4  1  0  0  0  0
  3 10  1  0  0  0  0
  5  6  1  0  0  0  0
  6  7  1  0  0  0  0
  7  8  1  0  0  0  0
  8  9  1  0  0  0  0
M  END
>  <CHROM.1>
135.79785681,-156.87631653,-67.47270478,174.30452645,64.21828557,29.36460910
15.75541869,21.51353337,3.12368645,0.52479283,2.08827646

>  <Name>
ligand

>  <RI>
0

>  <Rbt.Current_Directory>
/home/itssahil/PROJECTS/Mol_Feturizer/New_Systems/rnas/3DIM

>  <Rbt.Executable>
rbdock ($Id: //depot/dev/client3/rdock/2013.1/src/exe/rbdock.cxx#4 $)

>  <Rbt.Library>
libRbt.so (2013.1, Build901 2013/11/27)

>  <Rbt.Parameter_File>
/export/apps/rDock/src/rDock_2013.1_src/data/scripts/dock_solv.prm

>  <Rbt.Receptor>
prm/pocket_docking_8.prm

>  <SCORE>
-9.56419

>  <SCORE.INTER>
-7.91247

>  <SCORE.INTER.CONST>
1

>  <SCORE.INTER.POLAR>
0

>  <SCORE.INTER.ROT>
5

>  <SCORE.INTER.SOLV>
14.2483

>  <SCORE.INTER.VDW>
-16.9578

>  <SCORE.INTER.norm>
-0.791247

>  <SCORE.INTRA>
-1.65172

>  <SCORE.INTRA.DIHEDRAL>
-2.17489

>  <SCORE.INTRA.DIHEDRAL.0>
5.8785

>  <SCORE.INTRA.POLAR>
0

>  <SCORE.INTRA.POLAR.0>
0

>  <SCORE.INTRA.REPUL>
0

>  <SCORE.INTRA.REPUL.0>
0

>  <SCORE.INTRA.SOLV>
-0.889474

>  <SCORE.INTRA.SOLV.lig_0>
-31.9559

>  <SCORE.INTRA.VDW>
-0.119536

>  <SCORE.INTRA.VDW.0>
-0.507645

>  <SCORE.INTRA.norm>
-0.165172

>  <SCORE.RESTR>
0

>  <SCORE.RESTR.CAVITY>
0

>  <SCORE.RESTR.norm>
0

>  <SCORE.SYSTEM>
0

>  <SCORE.SYSTEM.CONST>
0

>  <SCORE.SYSTEM.DIHEDRAL>
0

>  <SCORE.SYSTEM.SOLV>
0

>  <SCORE.SYSTEM.norm>
0

>  <SCORE.heavy>
10

>  <SCORE.norm>
-0.956419

>  <RMSD>
4.925

$$$$
ligand
 OpenBabel11021811473D
libRbt.so/2013.1/901 2013/11/27
 10  9  0  0  0  0  0  0  0  0999 V2000
   27.1467   14.9738   19.4944 N   0  0  0  0  0  0  0  0  0  0  0  0
   28.3328   15.1343   20.3763 C   0  0  2  0  0  0  0  0  0  0  0  0
   28.0402   14.6517   21.7974 C   0  0  0  0  0  0  0  0  0  0  0  0
   28.8582   13.9810   22.4193 O   0  0  0  0  0  0  0  0  0  0  0  0
   28.8242   16.5861   20.3483 C   0  0  0  0  0  0  0  0  0  0  0  0
   30.2866   16.7276   20.7581 C   0  0  0  0  0  0  0  0  0  0  0  0
   30.5210   16.4155   22.2295 C   0  0  0  0  0  0  0  0  0  0  0  0
   32.0137   16.4272   22.5612 C   0  0  0  0  0  0  0  0  0  0  0  0
   32.6681   17.7860   22.4306 N   0  0  0  0  0  0  0  0  0  0  0  0
   27.0114   14.9342   22.4007 O   0  0  0  0  0  0  0  0  0  0  0  0
  2  1  1  6  0  0  0
  2  3  1  0  0  0  0
  2  5  1  0  0  0  0
  3  4  1  0  0  0  0
  3 10  1  0  0  0  0
  5  6  1  0  0  0  0
  6  7  1  0  0  0  0
  7  8  1  0  0  0  0
  8  9  1  0  0  0  0
M  END
>  <CHROM.1>
137.20536458,-157.68233008,-68.27971379,174.07512398,65.88583123,29.35641400
15.74542864,21.51106340,3.12318977,0.52782774,2.09422397

>  <Name>
ligand

>  <RI>
0

>  <Rbt.Current_Directory>
/home/itssahil/PROJECTS/Mol_Feturizer/New_Systems/rnas/3DIM

>  <Rbt.Executable>
rbdock ($Id: //depot/dev/client3/rdock/2013.1/src/exe/rbdock.cxx#4 $)

>  <Rbt.Library>
libRbt.so (2013.1, Build901 2013/11/27)

>  <Rbt.Parameter_File>
/export/apps/rDock/src/rDock_2013.1_src/data/scripts/dock_solv.prm

>  <Rbt.Receptor>
prm/pocket_docking_4.prm

>  <SCORE>
-9.56181

>  <SCORE.INTER>
-7.90584

>  <SCORE.INTER.CONST>
1

>  <SCORE.INTER.POLAR>
0

>  <SCORE.INTER.ROT>
5

>  <SCORE.INTER.SOLV>
14.3446

>  <SCORE.INTER.VDW>
-16.9854

>  <SCORE.INTER.norm>
-0.790584

>  <SCORE.INTRA>
-1.65597

>  <SCORE.INTRA.DIHEDRAL>
-2.16534

>  <SCORE.INTRA.DIHEDRAL.0>
5.8785

>  <SCORE.INTRA.POLAR>
0

>  <SCORE.INTRA.POLAR.0>
0

>  <SCORE.INTRA.REPUL>
0

>  <SCORE.INTRA.REPUL.0>
0

>  <SCORE.INTRA.SOLV>
-0.920042

>  <SCORE.INTRA.SOLV.lig_0>
-31.9559

>  <SCORE.INTRA.VDW>
-0.113276

>  <SCORE.INTRA.VDW.0>
-0.507645

>  <SCORE.INTRA.norm>
-0.165597

>  <SCORE.RESTR>
0

>  <SCORE.RESTR.CAVITY>
0

>  <SCORE.RESTR.norm>
0

>  <SCORE.SYSTEM>
0

>  <SCORE.SYSTEM.CONST>
0

>  <SCORE.SYSTEM.DIHEDRAL>
0

>  <SCORE.SYSTEM.SOLV>
0

>  <SCORE.SYSTEM.norm>
0

>  <SCORE.heavy>
10

>  <SCORE.norm>
-0.956181

>  <RMSD>
4.927

$$$$
ligand
 OpenBabel11021811473D
libRbt.so/2013.1/901 2013/11/27
 10  9  0  0  0  0  0  0  0  0999 V2000
   26.0955   14.8201   20.8690 N   0  0  0  0  0  0  0  0  0  0  0  0
   27.4003   15.4759   21.1477 C   0  0  2  0  0  0  0  0  0  0  0  0
   28.0432   16.0056   19.8654 C   0  0  0  0  0  0  0  0  0  0  0  0
   28.5864   17.1055   19.8371 O   0  0  0  0  0  0  0  0  0  0  0  0
   28.3263   14.5178   21.9056 C   0  0  0  0  0  0  0  0  0  0  0  0
   29.5242   15.2213   22.5356 C   0  0  0  0  0  0  0  0  0  0  0  0
   30.6003   15.5798   21.5202 C   0  0  0  0  0  0  0  0  0  0  0  0
   31.7539   16.3307   22.1862 C   0  0  0  0  0  0  0  0  0  0  0  0
   32.8664   16.7261   21.2387 N   0  0  0  0  0  0  0  0  0  0  0  0
   28.0883   15.3603   18.8244 O   0  0  0  0  0  0  0  0  0  0  0  0
  2  1  1  6  0  0  0
  2  3  1  0  0  0  0
  2  5  1  0  0  0  0
  3  4  1  0  0  0  0
  3 10  1  0  0  0  0
  5  6  1  0  0  0  0
  6  7  1  0  0  0  0
  7  8  1  0  0  0  0
  8  9  1  0  0  0  0
M  END
>  <CHROM.1>
137.86289294,-165.15064627,-76.26084972,177.75803061,-179.87439263,29.13411126
15.72631840,20.96151296,2.98548840,-0.31089591,-1.10245622

>  <Name>
ligand

>  <RI>
0

>  <Rbt.Current_Directory>
/home/itssahil/PROJECTS/Mol_Feturizer/New_Systems/rnas/3DIM

>  <Rbt.Executable>
rbdock ($Id: //depot/dev/client3/rdock/2013.1/src/exe/rbdock.cxx#4 $)

>  <Rbt.Library>
libRbt.so (2013.1, Build901 2013/11/27)

>  <Rbt.Parameter_File>
/export/apps/rDock/src/rDock_2013.1_src/data/scripts/dock_solv.prm

>  <Rbt.Receptor>
prm/pocket_docking_4.prm

>  <SCORE>
-10.713

>  <SCORE.INTER>
-8.17382

>  <SCORE.INTER.CONST>
1

>  <SCORE.INTER.POLAR>
0

>  <SCORE.INTER.ROT>
5

>  <SCORE.INTER.SOLV>
18.3755

>  <SCORE.INTER.VDW>
-18.5077

>  <SCORE.INTER.norm>
-0.817382

>  <SCORE.INTRA>
-2.53919

>  <SCORE.INTRA.DIHEDRAL>
-2.57501

>  <SCORE.INTRA.DIHEDRAL.0>
5.8785

>  <SCORE.INTRA.POLAR>
0

>  <SCORE.INTRA.POLAR.0>
0

>  <SCORE.INTRA.REPUL>
0

>  <SCORE.INTRA.REPUL.0>
0

>  <SCORE.INTRA.SOLV>
-1.78404

>  <SCORE.INTRA.SOLV.lig_0>
-31.9559

>  <SCORE.INTRA.VDW>
-0.359668

>  <SCORE.INTRA.VDW.0>
-0.507645

>  <SCORE.INTRA.norm>
-0.253919

>  <SCORE.RESTR>
0

>  <SCORE.RESTR.CAVITY>
0

>  <SCORE.RESTR.norm>
0

>  <SCORE.SYSTEM>
0

>  <SCORE.SYSTEM.CONST>
0

>  <SCORE.SYSTEM.DIHEDRAL>
0

>  <SCORE.SYSTEM.SOLV>
0

>  <SCORE.SYSTEM.norm>
0

>  <SCORE.heavy>
10

>  <SCORE.norm>
-1.0713

>  <RMSD>
4.934

$$$$
ligand
 OpenBabel11021811473D
libRbt.so/2013.1/901 2013/11/27
 10  9  0  0  0  0  0  0  0  0999 V2000
   26.0319   14.8163   20.9242 N   0  0  0  0  0  0  0  0  0  0  0  0
   27.3584   15.4428   21.1652 C   0  0  2  0  0  0  0  0  0  0  0  0
   27.9927   15.9248   19.8602 C   0  0  0  0  0  0  0  0  0  0  0  0
   28.5282   17.0264   19.7854 O   0  0  0  0  0  0  0  0  0  0  0  0
   28.2716   14.4779   21.9301 C   0  0  0  0  0  0  0  0  0  0  0  0
   29.4765   15.1705   22.5585 C   0  0  0  0  0  0  0  0  0  0  0  0
   30.5329   15.5630   21.5351 C   0  0  0  0  0  0  0  0  0  0  0  0
   31.7006   16.2895   22.2037 C   0  0  0  0  0  0  0  0  0  0  0  0
   32.7711   16.7603   21.2423 N   0  0  0  0  0  0  0  0  0  0  0  0
   28.0385   15.2384   18.8458 O   0  0  0  0  0  0  0  0  0  0  0  0
  2  1  1  6  0  0  0
  2  3  1  0  0  0  0
  2  5  1  0  0  0  0
  3  4  1  0  0  0  0
  3 10  1  0  0  0  0
  5  6  1  0  0  0  0
  6  7  1  0  0  0  0
  7  8  1  0  0  0  0
  8  9  1  0  0  0  0
M  END
>  <CHROM.1>
135.57361125,-163.41758415,-73.85696268,178.32054680,-177.79191104,29.07575868
15.68186344,20.97300576,2.98434452,-0.31673263,-1.12119373

>  <Name>
ligand

>  <RI>
0

>  <Rbt.Current_Directory>
/home/itssahil/PROJECTS/Mol_Feturizer/New_Systems/rnas/3DIM

>  <Rbt.Executable>
rbdock ($Id: //depot/dev/client3/rdock/2013.1/src/exe/rbdock.cxx#4 $)

>  <Rbt.Library>
libRbt.so (2013.1, Build901 2013/11/27)

>  <Rbt.Parameter_File>
/export/apps/rDock/src/rDock_2013.1_src/data/scripts/dock_solv.prm

>  <Rbt.Receptor>
prm/pocket_docking_8.prm

>  <SCORE>
-10.702

>  <SCORE.INTER>
-8.16809

>  <SCORE.INTER.CONST>
1

>  <SCORE.INTER.POLAR>
0

>  <SCORE.INTER.ROT>
5

>  <SCORE.INTER.SOLV>
18.3704

>  <SCORE.INTER.VDW>
-18.5022

>  <SCORE.INTER.norm>
-0.816809

>  <SCORE.INTRA>
-2.53392

>  <SCORE.INTRA.DIHEDRAL>
-2.64345

>  <SCORE.INTRA.DIHEDRAL.0>
5.8785

>  <SCORE.INTRA.POLAR>
0

>  <SCORE.INTRA.POLAR.0>
0

>  <SCORE.INTRA.REPUL>
0

>  <SCORE.INTRA.REPUL.0>
0

>  <SCORE.INTRA.SOLV>
-1.77224

>  <SCORE.INTRA.SOLV.lig_0>
-31.9559

>  <SCORE.INTRA.VDW>
-0.326072

>  <SCORE.INTRA.VDW.0>
-0.507645

>  <SCORE.INTRA.norm>
-0.253392

>  <SCORE.RESTR>
0

>  <SCORE.RESTR.CAVITY>
0

>  <SCORE.RESTR.norm>
0

>  <SCORE.SYSTEM>
0

>  <SCORE.SYSTEM.CONST>
0

>  <SCORE.SYSTEM.DIHEDRAL>
0

>  <SCORE.SYSTEM.SOLV>
0

>  <SCORE.SYSTEM.norm>
0

>  <SCORE.heavy>
10

>  <SCORE.norm>
-1.0702

>  <RMSD>
4.961

$$$$
ligand
 OpenBabel11021811473D
libRbt.so/2013.1/901 2013/11/27
 10  9  0  0  0  0  0  0  0  0999 V2000
   26.0369   14.7411   20.9943 N   0  0  0  0  0  0  0  0  0  0  0  0
   27.3378   15.4095   21.2607 C   0  0  2  0  0  0  0  0  0  0  0  0
   27.9592   15.9531   19.9737 C   0  0  0  0  0  0  0  0  0  0  0  0
   27.9390   15.2994   18.9355 O   0  0  0  0  0  0  0  0  0  0  0  0
   28.2833   14.4575   22.0020 C   0  0  0  0  0  0  0  0  0  0  0  0
   29.4933   15.1671   22.6011 C   0  0  0  0  0  0  0  0  0  0  0  0
   30.5401   15.5333   21.5582 C   0  0  0  0  0  0  0  0  0  0  0  0
   31.7134   16.2773   22.1970 C   0  0  0  0  0  0  0  0  0  0  0  0
   32.7863   16.7023   21.2173 N   0  0  0  0  0  0  0  0  0  0  0  0
   28.4668   17.0659   19.8947 O   0  0  0  0  0  0  0  0  0  0  0  0
  2  1  1  6  0  0  0
  2  3  1  0  0  0  0
  2  5  1  0  0  0  0
  3  4  1  0  0  0  0
  3 10  1  0  0  0  0
  5  6  1  0  0  0  0
  6  7  1  0  0  0  0
  7  8  1  0  0  0  0
  8  9  1  0  0  0  0
M  END
>  <CHROM.1>
-41.89211537,-166.12414018,-75.80079670,178.34354393,-178.80058367,29.05958672
15.67285552,21.03151370,3.01089956,-0.30721323,-1.08352409

>  <Name>
ligand

>  <RI>
0

>  <Rbt.Current_Directory>
/home/itssahil/PROJECTS/Mol_Feturizer/New_Systems/rnas/3DIM

>  <Rbt.Executable>
rbdock ($Id: //depot/dev/client3/rdock/2013.1/src/exe/rbdock.cxx#4 $)

>  <Rbt.Library>
libRbt.so (2013.1, Build901 2013/11/27)

>  <Rbt.Parameter_File>
/export/apps/rDock/src/rDock_2013.1_src/data/scripts/dock_solv.prm

>  <Rbt.Receptor>
prm/pocket_docking_4.prm

>  <SCORE>
-10.6158

>  <SCORE.INTER>
-8.11388

>  <SCORE.INTER.CONST>
1

>  <SCORE.INTER.POLAR>
0

>  <SCORE.INTER.ROT>
5

>  <SCORE.INTER.SOLV>
18.6171

>  <SCORE.INTER.VDW>
-18.5483

>  <SCORE.INTER.norm>
-0.811388

>  <SCORE.INTRA>
-2.50197

>  <SCORE.INTRA.DIHEDRAL>
-2.60853

>  <SCORE.INTRA.DIHEDRAL.0>
5.8785

>  <SCORE.INTRA.POLAR>
0

>  <SCORE.INTRA.POLAR.0>
0

>  <SCORE.INTRA.REPUL>
0

>  <SCORE.INTRA.REPUL.0>
0

>  <SCORE.INTRA.SOLV>
-1.75424

>  <SCORE.INTRA.SOLV.lig_0>
-31.9559

>  <SCORE.INTRA.VDW>
-0.320584

>  <SCORE.INTRA.VDW.0>
-0.507645

>  <SCORE.INTRA.norm>
-0.250197

>  <SCORE.RESTR>
0

>  <SCORE.RESTR.CAVITY>
0

>  <SCORE.RESTR.norm>
0

>  <SCORE.SYSTEM>
0

>  <SCORE.SYSTEM.CONST>
0

>  <SCORE.SYSTEM.DIHEDRAL>
0

>  <SCORE.SYSTEM.SOLV>
0

>  <SCORE.SYSTEM.norm>
0

>  <SCORE.heavy>
10

>  <SCORE.norm>
-1.06158

>  <RMSD>
4.968

$$$$
ligand
 OpenBabel11021811473D
libRbt.so/2013.1/901 2013/11/27
 10  9  0  0  0  0  0  0  0  0999 V2000
   26.1263   14.6607   21.2601 N   0  0  0  0  0  0  0  0  0  0  0  0
   27.4426   15.3468   21.3433 C   0  0  2  0  0  0  0  0  0  0  0  0
   27.8866   15.8686   19.9763 C   0  0  0  0  0  0  0  0  0  0  0  0
   28.3237   17.0076   19.8448 O   0  0  0  0  0  0  0  0  0  0  0  0
   28.4869   14.4196   21.9754 C   0  0  0  0  0  0  0  0  0  0  0  0
   29.7852   15.1383   22.3284 C   0  0  0  0  0  0  0  0  0  0  0  0
   30.6488   15.4314   21.1095 C   0  0  0  0  0  0  0  0  0  0  0  0
   31.9426   16.1401   21.5120 C   0  0  0  0  0  0  0  0  0  0  0  0
   31.7336   17.4858   22.1730 N   0  0  0  0  0  0  0  0  0  0  0  0
   27.8705   15.1819   18.9613 O   0  0  0  0  0  0  0  0  0  0  0  0
  2  1  1  6  0  0  0
  2  3  1  0  0  0  0
  2  5  1  0  0  0  0
  3  4  1  0  0  0  0
  3 10  1  0  0  0  0
  5  6  1  0  0  0  0
  6  7  1  0  0  0  0
  7  8  1  0  0  0  0
  8  9  1  0  0  0  0
M  END
>  <CHROM.1>
133.55739420,-169.31999050,-75.55572884,-179.50231470,-61.68948958,29.02632118
15.67931557,21.01542510,3.04677951,-0.39521265,-0.99194763

>  <Name>
ligand

>  <RI>
0

>  <Rbt.Current_Directory>
/home/itssahil/PROJECTS/Mol_Feturizer/New_Systems/rnas/3DIM

>  <Rbt.Executable>
rbdock ($Id: //depot/dev/client3/rdock/2013.1/src/exe/rbdock.cxx#4 $)

>  <Rbt.Library>
libRbt.so (2013.1, Build901 2013/11/27)

>  <Rbt.Parameter_File>
/export/apps/rDock/src/rDock_2013.1_src/data/scripts/dock_solv.prm

>  <Rbt.Receptor>
prm/blind_docking_60.prm

>  <SCORE>
-10.6361

>  <SCORE.INTER>
-8.45748

>  <SCORE.INTER.CONST>
1

>  <SCORE.INTER.POLAR>
0

>  <SCORE.INTER.ROT>
5

>  <SCORE.INTER.SOLV>
17.7943

>  <SCORE.INTER.VDW>
-18.5031

>  <SCORE.INTER.norm>
-0.845748

>  <SCORE.INTRA>
-2.17862

>  <SCORE.INTRA.DIHEDRAL>
-3.03441

>  <SCORE.INTRA.DIHEDRAL.0>
5.8785

>  <SCORE.INTRA.POLAR>
0

>  <SCORE.INTRA.POLAR.0>
0

>  <SCORE.INTRA.REPUL>
0

>  <SCORE.INTRA.REPUL.0>
0

>  <SCORE.INTRA.SOLV>
-0.878376

>  <SCORE.INTRA.SOLV.lig_0>
-31.9559

>  <SCORE.INTRA.VDW>
-0.222229

>  <SCORE.INTRA.VDW.0>
-0.507645

>  <SCORE.INTRA.norm>
-0.217862

>  <SCORE.RESTR>
0

>  <SCORE.RESTR.CAVITY>
0

>  <SCORE.RESTR.norm>
0

>  <SCORE.SYSTEM>
0

>  <SCORE.SYSTEM.CONST>
0

>  <SCORE.SYSTEM.DIHEDRAL>
0

>  <SCORE.SYSTEM.SOLV>
0

>  <SCORE.SYSTEM.norm>
0

>  <SCORE.heavy>
10

>  <SCORE.norm>
-1.06361

>  <RMSD>
4.971

$$$$
ligand
 OpenBabel11021811473D
libRbt.so/2013.1/901 2013/11/27
 10  9  0  0  0  0  0  0  0  0999 V2000
   26.1366   14.6452   21.2390 N   0  0  0  0  0  0  0  0  0  0  0  0
   27.4538   15.3284   21.3308 C   0  0  2  0  0  0  0  0  0  0  0  0
   27.8969   15.8700   19.9713 C   0  0  0  0  0  0  0  0  0  0  0  0
   28.3472   17.0058   19.8583 O   0  0  0  0  0  0  0  0  0  0  0  0
   28.4978   14.3908   21.9478 C   0  0  0  0  0  0  0  0  0  0  0  0
   29.7929   15.1049   22.3208 C   0  0  0  0  0  0  0  0  0  0  0  0
   30.6467   15.4518   21.1091 C   0  0  0  0  0  0  0  0  0  0  0  0
   31.9478   16.1344   21.5326 C   0  0  0  0  0  0  0  0  0  0  0  0
   31.7534   17.4677   22.2227 N   0  0  0  0  0  0  0  0  0  0  0  0
   27.8669   15.2024   18.9439 O   0  0  0  0  0  0  0  0  0  0  0  0
  2  1  1  6  0  0  0
  2  3  1  0  0  0  0
  2  5  1  0  0  0  0
  3  4  1  0  0  0  0
  3 10  1  0  0  0  0
  5  6  1  0  0  0  0
  6  7  1  0  0  0  0
  7  8  1  0  0  0  0
  8  9  1  0  0  0  0
M  END
>  <CHROM.1>
134.26312127,-168.83436060,-74.31066723,-178.61653755,-63.40800880,29.03563336
15.67180807,21.01475274,3.04244178,-0.40144714,-0.98211941

>  <Name>
ligand

>  <RI>
0

>  <Rbt.Current_Directory>
/home/itssahil/PROJECTS/Mol_Feturizer/New_Systems/rnas/3DIM

>  <Rbt.Executable>
rbdock ($Id: //depot/dev/client3/rdock/2013.1/src/exe/rbdock.cxx#4 $)

>  <Rbt.Library>
libRbt.so (2013.1, Build901 2013/11/27)

>  <Rbt.Parameter_File>
/export/apps/rDock/src/rDock_2013.1_src/data/scripts/dock_solv.prm

>  <Rbt.Receptor>
prm/pocket_docking_4.prm

>  <SCORE>
-10.613

>  <SCORE.INTER>
-8.44804

>  <SCORE.INTER.CONST>
1

>  <SCORE.INTER.POLAR>
0

>  <SCORE.INTER.ROT>
5

>  <SCORE.INTER.SOLV>
17.6581

>  <SCORE.INTER.VDW>
-18.4514

>  <SCORE.INTER.norm>
-0.844804

>  <SCORE.INTRA>
-2.16496

>  <SCORE.INTRA.DIHEDRAL>
-3.0988

>  <SCORE.INTRA.DIHEDRAL.0>
5.8785

>  <SCORE.INTRA.POLAR>
0

>  <SCORE.INTRA.POLAR.0>
0

>  <SCORE.INTRA.REPUL>
0

>  <SCORE.INTRA.REPUL.0>
0

>  <SCORE.INTRA.SOLV>
-0.900644

>  <SCORE.INTRA.SOLV.lig_0>
-31.9559

>  <SCORE.INTRA.VDW>
-0.16524

>  <SCORE.INTRA.VDW.0>
-0.507645

>  <SCORE.INTRA.norm>
-0.216496

>  <SCORE.RESTR>
0

>  <SCORE.RESTR.CAVITY>
0

>  <SCORE.RESTR.norm>
0

>  <SCORE.SYSTEM>
0

>  <SCORE.SYSTEM.CONST>
0

>  <SCORE.SYSTEM.DIHEDRAL>
0

>  <SCORE.SYSTEM.SOLV>
0

>  <SCORE.SYSTEM.norm>
0

>  <SCORE.heavy>
10

>  <SCORE.norm>
-1.0613

>  <RMSD>
4.971

$$$$
ligand
 OpenBabel11021811473D
libRbt.so/2013.1/901 2013/11/27
 10  9  0  0  0  0  0  0  0  0999 V2000
   26.0653   14.7737   21.0612 N   0  0  0  0  0  0  0  0  0  0  0  0
   27.3941   15.4297   21.1810 C   0  0  2  0  0  0  0  0  0  0  0  0
   27.9244   15.8683   19.8156 C   0  0  0  0  0  0  0  0  0  0  0  0
   28.4198   16.9795   19.6558 O   0  0  0  0  0  0  0  0  0  0  0  0
   28.3771   14.5106   21.9150 C   0  0  0  0  0  0  0  0  0  0  0  0
   29.6771   15.2119   22.2955 C   0  0  0  0  0  0  0  0  0  0  0  0
   30.6023   15.4278   21.1059 C   0  0  0  0  0  0  0  0  0  0  0  0
   31.9097   16.0904   21.5416 C   0  0  0  0  0  0  0  0  0  0  0  0
   31.7341   17.4566   22.1697 N   0  0  0  0  0  0  0  0  0  0  0  0
   27.9229   15.1375   18.8317 O   0  0  0  0  0  0  0  0  0  0  0  0
  2  1  1  6  0  0  0
  2  3  1  0  0  0  0
  2  5  1  0  0  0  0
  3  4  1  0  0  0  0
  3 10  1  0  0  0  0
  5  6  1  0  0  0  0
  6  7  1  0  0  0  0
  7  8  1  0  0  0  0
  8  9  1  0  0  0  0
M  END
>  <CHROM.1>
134.77630733,-169.58901789,-74.90010620,-178.11384762,-60.93207556,29.00636976
15.69809185,20.92392842,2.97322007,-0.39420413,-1.07891929

>  <Name>
ligand

>  <RI>
0

>  <Rbt.Current_Directory>
/home/itssahil/PROJECTS/Mol_Feturizer/New_Systems/rnas/3DIM

>  <Rbt.Executable>
rbdock ($Id: //depot/dev/client3/rdock/2013.1/src/exe/rbdock.cxx#4 $)

>  <Rbt.Library>
libRbt.so (2013.1, Build901 2013/11/27)

>  <Rbt.Parameter_File>
/export/apps/rDock/src/rDock_2013.1_src/data/scripts/dock_solv.prm

>  <Rbt.Receptor>
prm/pocket_docking_5.prm

>  <SCORE>
-10.5511

>  <SCORE.INTER>
-8.40941

>  <SCORE.INTER.CONST>
1

>  <SCORE.INTER.POLAR>
0

>  <SCORE.INTER.ROT>
5

>  <SCORE.INTER.SOLV>
17.4471

>  <SCORE.INTER.VDW>
-18.3553

>  <SCORE.INTER.norm>
-0.840941

>  <SCORE.INTRA>
-2.14174

>  <SCORE.INTRA.DIHEDRAL>
-3.12812

>  <SCORE.INTRA.DIHEDRAL.0>
5.8785

>  <SCORE.INTRA.POLAR>
0

>  <SCORE.INTRA.POLAR.0>
0

>  <SCORE.INTRA.REPUL>
0

>  <SCORE.INTRA.REPUL.0>
0

>  <SCORE.INTRA.SOLV>
-0.869695

>  <SCORE.INTRA.SOLV.lig_0>
-31.9559

>  <SCORE.INTRA.VDW>
-0.142829

>  <SCORE.INTRA.VDW.0>
-0.507645

>  <SCORE.INTRA.norm>
-0.214174

>  <SCORE.RESTR>
0

>  <SCORE.RESTR.CAVITY>
0

>  <SCORE.RESTR.norm>
0

>  <SCORE.SYSTEM>
0

>  <SCORE.SYSTEM.CONST>
0

>  <SCORE.SYSTEM.DIHEDRAL>
0

>  <SCORE.SYSTEM.SOLV>
0

>  <SCORE.SYSTEM.norm>
0

>  <SCORE.heavy>
10

>  <SCORE.norm>
-1.05511

>  <RMSD>
4.973

$$$$
ligand
 OpenBabel11021811473D
libRbt.so/2013.1/901 2013/11/27
 10  9  0  0  0  0  0  0  0  0999 V2000
   26.1389   14.7115   21.1453 N   0  0  0  0  0  0  0  0  0  0  0  0
   27.4669   15.3711   21.2531 C   0  0  2  0  0  0  0  0  0  0  0  0
   27.9572   15.8630   19.8909 C   0  0  0  0  0  0  0  0  0  0  0  0
   27.9152   15.1367   18.9027 O   0  0  0  0  0  0  0  0  0  0  0  0
   28.4746   14.4319   21.9257 C   0  0  0  0  0  0  0  0  0  0  0  0
   29.7696   15.1336   22.3221 C   0  0  0  0  0  0  0  0  0  0  0  0
   30.6531   15.4632   21.1270 C   0  0  0  0  0  0  0  0  0  0  0  0
   31.9616   16.1148   21.5759 C   0  0  0  0  0  0  0  0  0  0  0  0
   31.7821   17.4273   22.3087 N   0  0  0  0  0  0  0  0  0  0  0  0
   28.3742   16.9998   19.7012 O   0  0  0  0  0  0  0  0  0  0  0  0
  2  1  1  6  0  0  0
  2  3  1  0  0  0  0
  2  5  1  0  0  0  0
  3  4  1  0  0  0  0
  3 10  1  0  0  0  0
  5  6  1  0  0  0  0
  6  7  1  0  0  0  0
  7  8  1  0  0  0  0
  8  9  1  0  0  0  0
M  END
>  <CHROM.1>
-47.41480061,-168.40993737,-73.06491932,-177.78156430,-61.35703857,29.05096379
15.67572924,20.98152636,2.98775406,-0.40627797,-1.02861534

>  <Name>
ligand

>  <RI>
0

>  <Rbt.Current_Directory>
/home/itssahil/PROJECTS/Mol_Feturizer/New_Systems/rnas/3DIM

>  <Rbt.Executable>
rbdock ($Id: //depot/dev/client3/rdock/2013.1/src/exe/rbdock.cxx#4 $)

>  <Rbt.Library>
libRbt.so (2013.1, Build901 2013/11/27)

>  <Rbt.Parameter_File>
/export/apps/rDock/src/rDock_2013.1_src/data/scripts/dock_solv.prm

>  <Rbt.Receptor>
prm/pocket_docking_6.prm

>  <SCORE>
-10.54

>  <SCORE.INTER>
-8.44038

>  <SCORE.INTER.CONST>
1

>  <SCORE.INTER.POLAR>
0

>  <SCORE.INTER.ROT>
5

>  <SCORE.INTER.SOLV>
17.3271

>  <SCORE.INTER.VDW>
-18.336

>  <SCORE.INTER.norm>
-0.844038

>  <SCORE.INTRA>
-2.09965

>  <SCORE.INTRA.DIHEDRAL>
-3.12477

>  <SCORE.INTRA.DIHEDRAL.0>
5.8785

>  <SCORE.INTRA.POLAR>
0

>  <SCORE.INTRA.POLAR.0>
0

>  <SCORE.INTRA.REPUL>
0

>  <SCORE.INTRA.REPUL.0>
0

>  <SCORE.INTRA.SOLV>
-0.844249

>  <SCORE.INTRA.SOLV.lig_0>
-31.9559

>  <SCORE.INTRA.VDW>
-0.115142

>  <SCORE.INTRA.VDW.0>
-0.507645

>  <SCORE.INTRA.norm>
-0.209965

>  <SCORE.RESTR>
0

>  <SCORE.RESTR.CAVITY>
0

>  <SCORE.RESTR.norm>
0

>  <SCORE.SYSTEM>
0

>  <SCORE.SYSTEM.CONST>
0

>  <SCORE.SYSTEM.DIHEDRAL>
0

>  <SCORE.SYSTEM.SOLV>
0

>  <SCORE.SYSTEM.norm>
0

>  <SCORE.heavy>
10

>  <SCORE.norm>
-1.054

>  <RMSD>
4.975

$$$$
ligand
 OpenBabel11021811473D
libRbt.so/2013.1/901 2013/11/27
 10  9  0  0  0  0  0  0  0  0999 V2000
   26.1497   14.6690   21.2351 N   0  0  0  0  0  0  0  0  0  0  0  0
   27.4660   15.3555   21.3158 C   0  0  2  0  0  0  0  0  0  0  0  0
   27.9059   15.8801   19.9486 C   0  0  0  0  0  0  0  0  0  0  0  0
   28.3646   17.0111   19.8220 O   0  0  0  0  0  0  0  0  0  0  0  0
   28.5125   14.4275   21.9431 C   0  0  0  0  0  0  0  0  0  0  0  0
   29.8042   15.1501   22.3120 C   0  0  0  0  0  0  0  0  0  0  0  0
   30.6607   15.4861   21.0992 C   0  0  0  0  0  0  0  0  0  0  0  0
   31.9725   16.1490   21.5212 C   0  0  0  0  0  0  0  0  0  0  0  0
   31.7955   17.4203   22.3238 N   0  0  0  0  0  0  0  0  0  0  0  0
   27.8650   15.2027   18.9280 O   0  0  0  0  0  0  0  0  0  0  0  0
  2  1  1  6  0  0  0
  2  3  1  0  0  0  0
  2  5  1  0  0  0  0
  3  4  1  0  0  0  0
  3 10  1  0  0  0  0
  5  6  1  0  0  0  0
  6  7  1  0  0  0  0
  7  8  1  0  0  0  0
  8  9  1  0  0  0  0
M  END
>  <CHROM.1>
134.87801403,-168.49831311,-74.47676817,-177.32684193,-58.10869346,29.05118845
15.68645250,21.01170258,3.01200161,-0.39927428,-1.01741497

>  <Name>
ligand

>  <RI>
0

>  <Rbt.Current_Directory>
/home/itssahil/PROJECTS/Mol_Feturizer/New_Systems/rnas/3DIM

>  <Rbt.Executable>
rbdock ($Id: //depot/dev/client3/rdock/2013.1/src/exe/rbdock.cxx#4 $)

>  <Rbt.Library>
libRbt.so (2013.1, Build901 2013/11/27)

>  <Rbt.Parameter_File>
/export/apps/rDock/src/rDock_2013.1_src/data/scripts/dock_solv.prm

>  <Rbt.Receptor>
prm/pocket_docking_6.prm

>  <SCORE>
-10.6072

>  <SCORE.INTER>
-8.53513

>  <SCORE.INTER.CONST>
1

>  <SCORE.INTER.POLAR>
0

>  <SCORE.INTER.ROT>
5

>  <SCORE.INTER.SOLV>
17.4513

>  <SCORE.INTER.VDW>
-18.4405

>  <SCORE.INTER.norm>
-0.853513

>  <SCORE.INTRA>
-2.07207

>  <SCORE.INTRA.DIHEDRAL>
-3.06345

>  <SCORE.INTRA.DIHEDRAL.0>
5.8785

>  <SCORE.INTRA.POLAR>
0

>  <SCORE.INTRA.POLAR.0>
0

>  <SCORE.INTRA.REPUL>
0

>  <SCORE.INTRA.REPUL.0>
0

>  <SCORE.INTRA.SOLV>
-0.834024

>  <SCORE.INTRA.SOLV.lig_0>
-31.9559

>  <SCORE.INTRA.VDW>
-0.123337

>  <SCORE.INTRA.VDW.0>
-0.507645

>  <SCORE.INTRA.norm>
-0.207207

>  <SCORE.RESTR>
0

>  <SCORE.RESTR.CAVITY>
0

>  <SCORE.RESTR.norm>
0

>  <SCORE.SYSTEM>
0

>  <SCORE.SYSTEM.CONST>
0

>  <SCORE.SYSTEM.DIHEDRAL>
0

>  <SCORE.SYSTEM.SOLV>
0

>  <SCORE.SYSTEM.norm>
0

>  <SCORE.heavy>
10

>  <SCORE.norm>
-1.06072

>  <RMSD>
4.977

$$$$
ligand
 OpenBabel11021811473D
libRbt.so/2013.1/901 2013/11/27
 10  9  0  0  0  0  0  0  0  0999 V2000
   26.0160   14.7993   20.9328 N   0  0  0  0  0  0  0  0  0  0  0  0
   27.3550   15.4077   21.1499 C   0  0  2  0  0  0  0  0  0  0  0  0
   27.9834   15.8578   19.8307 C   0  0  0  0  0  0  0  0  0  0  0  0
   27.9675   15.1320   18.8415 O   0  0  0  0  0  0  0  0  0  0  0  0
   28.2603   14.4405   21.9213 C   0  0  0  0  0  0  0  0  0  0  0  0
   29.4661   15.1290   22.5526 C   0  0  0  0  0  0  0  0  0  0  0  0
   30.5151   15.5401   21.5288 C   0  0  0  0  0  0  0  0  0  0  0  0
   31.6923   16.2454   22.2033 C   0  0  0  0  0  0  0  0  0  0  0  0
   32.7568   16.7326   21.2434 N   0  0  0  0  0  0  0  0  0  0  0  0
   28.4929   16.9617   19.6754 O   0  0  0  0  0  0  0  0  0  0  0  0
  2  1  1  6  0  0  0
  2  3  1  0  0  0  0
  2  5  1  0  0  0  0
  3  4  1  0  0  0  0
  3 10  1  0  0  0  0
  5  6  1  0  0  0  0
  6  7  1  0  0  0  0
  7  8  1  0  0  0  0
  8  9  1  0  0  0  0
M  END
>  <CHROM.1>
-45.43504502,-162.11008511,-72.62271316,179.06627041,-177.82910931,29.05486964
15.63458313,20.95494555,2.97345308,-0.31931388,-1.13089138

>  <Name>
ligand

>  <RI>
0

>  <Rbt.Current_Directory>
/home/itssahil/PROJECTS/Mol_Feturizer/New_Systems/rnas/3DIM

>  <Rbt.Executable>
rbdock ($Id: //depot/dev/client3/rdock/2013.1/src/exe/rbdock.cxx#4 $)

>  <Rbt.Library>
libRbt.so (2013.1, Build901 2013/11/27)

>  <Rbt.Parameter_File>
/export/apps/rDock/src/rDock_2013.1_src/data/scripts/dock_solv.prm

>  <Rbt.Receptor>
prm/pocket_docking_8.prm

>  <SCORE>
-10.6573

>  <SCORE.INTER>
-8.21219

>  <SCORE.INTER.CONST>
1

>  <SCORE.INTER.POLAR>
0

>  <SCORE.INTER.ROT>
5

>  <SCORE.INTER.SOLV>
18.3714

>  <SCORE.INTER.VDW>
-18.5319

>  <SCORE.INTER.norm>
-0.821219

>  <SCORE.INTRA>
-2.44509

>  <SCORE.INTRA.DIHEDRAL>
-2.5203

>  <SCORE.INTRA.DIHEDRAL.0>
5.8785

>  <SCORE.INTRA.POLAR>
0

>  <SCORE.INTRA.POLAR.0>
0

>  <SCORE.INTRA.REPUL>
0

>  <SCORE.INTRA.REPUL.0>
0

>  <SCORE.INTRA.SOLV>
-1.74005

>  <SCORE.INTRA.SOLV.lig_0>
-31.9559

>  <SCORE.INTRA.VDW>
-0.314909

>  <SCORE.INTRA.VDW.0>
-0.507645

>  <SCORE.INTRA.norm>
-0.244509

>  <SCORE.RESTR>
0

>  <SCORE.RESTR.CAVITY>
0

>  <SCORE.RESTR.norm>
0

>  <SCORE.SYSTEM>
0

>  <SCORE.SYSTEM.CONST>
0

>  <SCORE.SYSTEM.DIHEDRAL>
0

>  <SCORE.SYSTEM.SOLV>
0

>  <SCORE.SYSTEM.norm>
0

>  <SCORE.heavy>
10

>  <SCORE.norm>
-1.06573

>  <RMSD>
4.988

$$$$
ligand
 OpenBabel11021811473D
libRbt.so/2013.1/901 2013/11/27
 10  9  0  0  0  0  0  0  0  0999 V2000
   25.9888   14.7719   20.9536 N   0  0  0  0  0  0  0  0  0  0  0  0
   27.3082   15.4087   21.2061 C   0  0  2  0  0  0  0  0  0  0  0  0
   27.9323   15.9306   19.9114 C   0  0  0  0  0  0  0  0  0  0  0  0
   27.9402   15.2477   18.8921 O   0  0  0  0  0  0  0  0  0  0  0  0
   28.2357   14.4366   21.9442 C   0  0  0  0  0  0  0  0  0  0  0  0
   29.4366   15.1278   22.5818 C   0  0  0  0  0  0  0  0  0  0  0  0
   30.4922   15.5370   21.5641 C   0  0  0  0  0  0  0  0  0  0  0  0
   31.6520   16.2683   22.2411 C   0  0  0  0  0  0  0  0  0  0  0  0
   32.7394   16.7219   21.2906 N   0  0  0  0  0  0  0  0  0  0  0  0
   28.4145   17.0525   19.8068 O   0  0  0  0  0  0  0  0  0  0  0  0
  2  1  1  6  0  0  0
  2  3  1  0  0  0  0
  2  5  1  0  0  0  0
  3  4  1  0  0  0  0
  3 10  1  0  0  0  0
  5  6  1  0  0  0  0
  6  7  1  0  0  0  0
  7  8  1  0  0  0  0
  8  9  1  0  0  0  0
M  END
>  <CHROM.1>
-45.20695599,-163.61939464,-74.66511888,178.00522690,-179.39856480,29.01814062
15.66195820,21.00682672,2.98780141,-0.31770803,-1.08849596

>  <Name>
ligand

>  <RI>
0

>  <Rbt.Current_Directory>
/home/itssahil/PROJECTS/Mol_Feturizer/New_Systems/rnas/3DIM

>  <Rbt.Executable>
rbdock ($Id: //depot/dev/client3/rdock/2013.1/src/exe/rbdock.cxx#4 $)

>  <Rbt.Library>
libRbt.so (2013.1, Build901 2013/11/27)

>  <Rbt.Parameter_File>
/export/apps/rDock/src/rDock_2013.1_src/data/scripts/dock_solv.prm

>  <Rbt.Receptor>
prm/pocket_docking_6.prm

>  <SCORE>
-10.702

>  <SCORE.INTER>
-8.20322

>  <SCORE.INTER.CONST>
1

>  <SCORE.INTER.POLAR>
0

>  <SCORE.INTER.ROT>
5

>  <SCORE.INTER.SOLV>
18.4821

>  <SCORE.INTER.VDW>
-18.5628

>  <SCORE.INTER.norm>
-0.820322

>  <SCORE.INTRA>
-2.49882

>  <SCORE.INTRA.DIHEDRAL>
-2.48395

>  <SCORE.INTRA.DIHEDRAL.0>
5.8785

>  <SCORE.INTRA.POLAR>
0

>  <SCORE.INTRA.POLAR.0>
0

>  <SCORE.INTRA.REPUL>
0

>  <SCORE.INTRA.REPUL.0>
0

>  <SCORE.INTRA.SOLV>
-1.75174

>  <SCORE.INTRA.SOLV.lig_0>
-31.9559

>  <SCORE.INTRA.VDW>
-0.38098

>  <SCORE.INTRA.VDW.0>
-0.507645

>  <SCORE.INTRA.norm>
-0.249882

>  <SCORE.RESTR>
0

>  <SCORE.RESTR.CAVITY>
0

>  <SCORE.RESTR.norm>
0

>  <SCORE.SYSTEM>
0

>  <SCORE.SYSTEM.CONST>
0

>  <SCORE.SYSTEM.DIHEDRAL>
0

>  <SCORE.SYSTEM.SOLV>
0

>  <SCORE.SYSTEM.norm>
0

>  <SCORE.heavy>
10

>  <SCORE.norm>
-1.0702

>  <RMSD>
4.990

$$$$
ligand
 OpenBabel11021811473D
libRbt.so/2013.1/901 2013/11/27
 10  9  0  0  0  0  0  0  0  0999 V2000
   25.9859   14.7225   20.9652 N   0  0  0  0  0  0  0  0  0  0  0  0
   27.2984   15.3862   21.1825 C   0  0  2  0  0  0  0  0  0  0  0  0
   27.9124   15.8533   19.8624 C   0  0  0  0  0  0  0  0  0  0  0  0
   28.4379   16.9577   19.7641 O   0  0  0  0  0  0  0  0  0  0  0  0
   28.2396   14.4615   21.9629 C   0  0  0  0  0  0  0  0  0  0  0  0
   29.4209   15.2006   22.5833 C   0  0  0  0  0  0  0  0  0  0  0  0
   30.4885   15.5706   21.5630 C   0  0  0  0  0  0  0  0  0  0  0  0
   31.6355   16.3367   22.2232 C   0  0  0  0  0  0  0  0  0  0  0  0
   32.7423   16.7386   21.2718 N   0  0  0  0  0  0  0  0  0  0  0  0
   27.9510   15.1518   18.8581 O   0  0  0  0  0  0  0  0  0  0  0  0
  2  1  1  6  0  0  0
  2  3  1  0  0  0  0
  2  5  1  0  0  0  0
  3  4  1  0  0  0  0
  3 10  1  0  0  0  0
  5  6  1  0  0  0  0
  6  7  1  0  0  0  0
  7  8  1  0  0  0  0
  8  9  1  0  0  0  0
M  END
>  <CHROM.1>
136.65766388,-162.60931686,-75.75871989,178.68336599,179.85673168,29.01622192
15.64829259,20.99120370,2.97990432,-0.32782010,-1.14515605

>  <Name>
ligand

>  <RI>
0

>  <Rbt.Current_Directory>
/home/itssahil/PROJECTS/Mol_Feturizer/New_Systems/rnas/3DIM

>  <Rbt.Executable>
rbdock ($Id: //depot/dev/client3/rdock/2013.1/src/exe/rbdock.cxx#4 $)

>  <Rbt.Library>
libRbt.so (2013.1, Build901 2013/11/27)

>  <Rbt.Parameter_File>
/export/apps/rDock/src/rDock_2013.1_src/data/scripts/dock_solv.prm

>  <Rbt.Receptor>
prm/blind_docking_60.prm

>  <SCORE>
-10.6706

>  <SCORE.INTER>
-8.1727

>  <SCORE.INTER.CONST>
1

>  <SCORE.INTER.POLAR>
0

>  <SCORE.INTER.ROT>
5

>  <SCORE.INTER.SOLV>
18.4805

>  <SCORE.INTER.VDW>
-18.542

>  <SCORE.INTER.norm>
-0.81727

>  <SCORE.INTRA>
-2.49791

>  <SCORE.INTRA.DIHEDRAL>
-2.36332

>  <SCORE.INTRA.DIHEDRAL.0>
5.8785

>  <SCORE.INTRA.POLAR>
0

>  <SCORE.INTRA.POLAR.0>
0

>  <SCORE.INTRA.REPUL>
0

>  <SCORE.INTRA.REPUL.0>
0

>  <SCORE.INTRA.SOLV>
-1.78405

>  <SCORE.INTRA.SOLV.lig_0>
-31.9559

>  <SCORE.INTRA.VDW>
-0.424226

>  <SCORE.INTRA.VDW.0>
-0.507645

>  <SCORE.INTRA.norm>
-0.249791

>  <SCORE.RESTR>
0

>  <SCORE.RESTR.CAVITY>
0

>  <SCORE.RESTR.norm>
0

>  <SCORE.SYSTEM>
0

>  <SCORE.SYSTEM.CONST>
0

>  <SCORE.SYSTEM.DIHEDRAL>
0

>  <SCORE.SYSTEM.SOLV>
0

>  <SCORE.SYSTEM.norm>
0

>  <SCORE.heavy>
10

>  <SCORE.norm>
-1.06706

>  <RMSD>
5.004

$$$$
ligand
 OpenBabel11021811473D
libRbt.so/2013.1/901 2013/11/27
 10  9  0  0  0  0  0  0  0  0999 V2000
   26.0557   14.8070   21.1453 N   0  0  0  0  0  0  0  0  0  0  0  0
   27.4421   15.3434   21.1253 C   0  0  2  0  0  0  0  0  0  0  0  0
   27.8771   15.7115   19.7064 C   0  0  0  0  0  0  0  0  0  0  0  0
   28.4510   16.7711   19.4749 O   0  0  0  0  0  0  0  0  0  0  0  0
   28.4060   14.3516   21.7866 C   0  0  0  0  0  0  0  0  0  0  0  0
   29.8570   14.8207   21.7551 C   0  0  0  0  0  0  0  0  0  0  0  0
   30.0887   16.0811   22.5768 C   0  0  0  0  0  0  0  0  0  0  0  0
   31.5607   16.4940   22.5438 C   0  0  0  0  0  0  0  0  0  0  0  0
   32.0724   16.8587   21.1665 N   0  0  0  0  0  0  0  0  0  0  0  0
   27.7179   14.9687   18.7446 O   0  0  0  0  0  0  0  0  0  0  0  0
  2  1  1  6  0  0  0
  2  3  1  0  0  0  0
  2  5  1  0  0  0  0
  3  4  1  0  0  0  0
  3 10  1  0  0  0  0
  5  6  1  0  0  0  0
  6  7  1  0  0  0  0
  7  8  1  0  0  0  0
  8  9  1  0  0  0  0
M  END
>  <CHROM.1>
134.80707418,177.97230363,64.99069580,178.62116555,62.95199532,28.95470422
15.62837032,20.96721871,-2.85799015,0.41705980,1.95457836

>  <Name>
ligand

>  <RI>
0

>  <Rbt.Current_Directory>
/home/itssahil/PROJECTS/Mol_Feturizer/New_Systems/rnas/3DIM

>  <Rbt.Executable>
rbdock ($Id: //depot/dev/client3/rdock/2013.1/src/exe/rbdock.cxx#4 $)

>  <Rbt.Library>
libRbt.so (2013.1, Build901 2013/11/27)

>  <Rbt.Parameter_File>
/export/apps/rDock/src/rDock_2013.1_src/data/scripts/dock_solv.prm

>  <Rbt.Receptor>
prm/pocket_docking_8.prm

>  <SCORE>
-10.5413

>  <SCORE.INTER>
-7.85717

>  <SCORE.INTER.CONST>
1

>  <SCORE.INTER.POLAR>
0

>  <SCORE.INTER.ROT>
5

>  <SCORE.INTER.SOLV>
17.6624

>  <SCORE.INTER.VDW>
-18.0589

>  <SCORE.INTER.norm>
-0.785717

>  <SCORE.INTRA>
-2.68417

>  <SCORE.INTRA.DIHEDRAL>
-4.25912

>  <SCORE.INTRA.DIHEDRAL.0>
5.8785

>  <SCORE.INTRA.POLAR>
0

>  <SCORE.INTRA.POLAR.0>
0

>  <SCORE.INTRA.REPUL>
0

>  <SCORE.INTRA.REPUL.0>
0

>  <SCORE.INTRA.SOLV>
-0.803826

>  <SCORE.INTRA.SOLV.lig_0>
-31.9559

>  <SCORE.INTRA.VDW>
-0.152692

>  <SCORE.INTRA.VDW.0>
-0.507645

>  <SCORE.INTRA.norm>
-0.268417

>  <SCORE.RESTR>
0

>  <SCORE.RESTR.CAVITY>
0

>  <SCORE.RESTR.norm>
0

>  <SCORE.SYSTEM>
0

>  <SCORE.SYSTEM.CONST>
0

>  <SCORE.SYSTEM.DIHEDRAL>
0

>  <SCORE.SYSTEM.SOLV>
0

>  <SCORE.SYSTEM.norm>
0

>  <SCORE.heavy>
10

>  <SCORE.norm>
-1.05413

>  <RMSD>
5.004

$$$$
ligand
 OpenBabel11021811473D
libRbt.so/2013.1/901 2013/11/27
 10  9  0  0  0  0  0  0  0  0999 V2000
   27.1999   15.8352   19.8770 N   0  0  0  0  0  0  0  0  0  0  0  0
   28.4303   15.4683   20.6265 C   0  0  2  0  0  0  0  0  0  0  0  0
   28.0944   14.7276   21.9213 C   0  0  0  0  0  0  0  0  0  0  0  0
   26.9626   14.7602   22.3941 O   0  0  0  0  0  0  0  0  0  0  0  0
   29.2907   16.7117   20.8782 C   0  0  0  0  0  0  0  0  0  0  0  0
   30.6675   16.3785   21.4439 C   0  0  0  0  0  0  0  0  0  0  0  0
   31.4274   17.6109   21.9143 C   0  0  0  0  0  0  0  0  0  0  0  0
   32.8764   17.2635   22.2575 C   0  0  0  0  0  0  0  0  0  0  0  0
   33.7018   16.8047   21.0742 N   0  0  0  0  0  0  0  0  0  0  0  0
   28.9074   14.0398   22.5280 O   0  0  0  0  0  0  0  0  0  0  0  0
  2  1  1  1  0  0  0
  2  3  1  0  0  0  0
  2  5  1  0  0  0  0
  3  4  1  0  0  0  0
  3 10  1  0  0  0  0
  5  6  1  0  0  0  0
  6  7  1  0  0  0  0
  7  8  1  0  0  0  0
  8  9  1  0  0  0  0
M  END
>  <CHROM.1>
-16.72019338,-170.84105998,-170.19116609,-170.72014535,64.86649016,29.73793494
15.93744447,21.51894481,2.90294004,0.32234080,2.28929161

>  <Name>
ligand

>  <RI>
0

>  <Rbt.Current_Directory>
/home/itssahil/PROJECTS/Mol_Feturizer/New_Systems/rnas/3DIM

>  <Rbt.Executable>
rbdock ($Id: //depot/dev/client3/rdock/2013.1/src/exe/rbdock.cxx#4 $)

>  <Rbt.Library>
libRbt.so (2013.1, Build901 2013/11/27)

>  <Rbt.Parameter_File>
/export/apps/rDock/src/rDock_2013.1_src/data/scripts/dock_solv.prm

>  <Rbt.Receptor>
prm/blind_docking_60.prm

>  <SCORE>
-9.25454

>  <SCORE.INTER>
-6.97556

>  <SCORE.INTER.CONST>
1

>  <SCORE.INTER.POLAR>
0

>  <SCORE.INTER.ROT>
5

>  <SCORE.INTER.SOLV>
16.6344

>  <SCORE.INTER.VDW>
-17.1285

>  <SCORE.INTER.norm>
-0.697556

>  <SCORE.INTRA>
-2.27898

>  <SCORE.INTRA.DIHEDRAL>
-3.1628

>  <SCORE.INTRA.DIHEDRAL.0>
5.8785

>  <SCORE.INTRA.POLAR>
0

>  <SCORE.INTRA.POLAR.0>
0

>  <SCORE.INTRA.REPUL>
0

>  <SCORE.INTRA.REPUL.0>
0

>  <SCORE.INTRA.SOLV>
-0.933058

>  <SCORE.INTRA.SOLV.lig_0>
-31.9559

>  <SCORE.INTRA.VDW>
-0.231048

>  <SCORE.INTRA.VDW.0>
-0.507645

>  <SCORE.INTRA.norm>
-0.227898

>  <SCORE.RESTR>
0

>  <SCORE.RESTR.CAVITY>
0

>  <SCORE.RESTR.norm>
0

>  <SCORE.SYSTEM>
0

>  <SCORE.SYSTEM.CONST>
0

>  <SCORE.SYSTEM.DIHEDRAL>
0

>  <SCORE.SYSTEM.SOLV>
0

>  <SCORE.SYSTEM.norm>
0

>  <SCORE.heavy>
10

>  <SCORE.norm>
-0.925454

>  <RMSD>
5.079

$$$$
ligand
 OpenBabel11021811473D
libRbt.so/2013.1/901 2013/11/27
 10  9  0  0  0  0  0  0  0  0999 V2000
   29.0281   14.4046   19.5036 N   0  0  0  0  0  0  0  0  0  0  0  0
   28.5017   14.3977   20.8939 C   0  0  2  0  0  0  0  0  0  0  0  0
   27.0952   14.9937   20.9606 C   0  0  0  0  0  0  0  0  0  0  0  0
   26.2869   14.6164   21.8032 O   0  0  0  0  0  0  0  0  0  0  0  0
   29.4776   15.1118   21.8360 C   0  0  0  0  0  0  0  0  0  0  0  0
   29.8229   16.5245   21.3761 C   0  0  0  0  0  0  0  0  0  0  0  0
   30.7975   17.2285   22.3099 C   0  0  0  0  0  0  0  0  0  0  0  0
   32.1644   16.5433   22.2935 C   0  0  0  0  0  0  0  0  0  0  0  0
   32.8652   16.5880   20.9524 N   0  0  0  0  0  0  0  0  0  0  0  0
   26.7141   15.8920   20.2190 O   0  0  0  0  0  0  0  0  0  0  0  0
  2  1  1  6  0  0  0
  2  3  1  0  0  0  0
  2  5  1  0  0  0  0
  3  4  1  0  0  0  0
  3 10  1  0  0  0  0
  5  6  1  0  0  0  0
  6  7  1  0  0  0  0
  7  8  1  0  0  0  0
  8  9  1  0  0  0  0
M  END
>  <CHROM.1>
149.70655896,54.45082478,-179.71618199,66.09566216,63.46385751,29.23398331
15.63747822,21.21532191,-2.82092443,0.18194511,0.94784830

>  <Name>
ligand

>  <RI>
0

>  <Rbt.Current_Directory>
/home/itssahil/PROJECTS/Mol_Feturizer/New_Systems/rnas/3DIM

>  <Rbt.Executable>
rbdock ($Id: //depot/dev/client3/rdock/2013.1/src/exe/rbdock.cxx#4 $)

>  <Rbt.Library>
libRbt.so (2013.1, Build901 2013/11/27)

>  <Rbt.Parameter_File>
/export/apps/rDock/src/rDock_2013.1_src/data/scripts/dock_solv.prm

>  <Rbt.Receptor>
prm/pocket_docking_7.prm

>  <SCORE>
-10.2013

>  <SCORE.INTER>
-8.77985

>  <SCORE.INTER.CONST>
1

>  <SCORE.INTER.POLAR>
0

>  <SCORE.INTER.ROT>
5

>  <SCORE.INTER.SOLV>
13.2397

>  <SCORE.INTER.VDW>
-17.1998

>  <SCORE.INTER.norm>
-0.877985

>  <SCORE.INTRA>
-1.42145

>  <SCORE.INTRA.DIHEDRAL>
-4.12159

>  <SCORE.INTRA.DIHEDRAL.0>
5.8785

>  <SCORE.INTRA.POLAR>
0

>  <SCORE.INTRA.POLAR.0>
0

>  <SCORE.INTRA.REPUL>
0

>  <SCORE.INTRA.REPUL.0>
0

>  <SCORE.INTRA.SOLV>
0.533834

>  <SCORE.INTRA.SOLV.lig_0>
-31.9559

>  <SCORE.INTRA.VDW>
0.372425

>  <SCORE.INTRA.VDW.0>
-0.507645

>  <SCORE.INTRA.norm>
-0.142145

>  <SCORE.RESTR>
0

>  <SCORE.RESTR.CAVITY>
0

>  <SCORE.RESTR.norm>
0

>  <SCORE.SYSTEM>
0

>  <SCORE.SYSTEM.CONST>
0

>  <SCORE.SYSTEM.DIHEDRAL>
0

>  <SCORE.SYSTEM.SOLV>
0

>  <SCORE.SYSTEM.norm>
0

>  <SCORE.heavy>
10

>  <SCORE.norm>
-1.02013

>  <RMSD>
5.088

$$$$
ligand
 OpenBabel11021811473D
libRbt.so/2013.1/901 2013/11/27
 10  9  0  0  0  0  0  0  0  0999 V2000
   26.5090   14.5151   20.7211 N   0  0  0  0  0  0  0  0  0  0  0  0
   27.3941   15.4629   19.9940 C   0  0  2  0  0  0  0  0  0  0  0  0
   28.0632   14.7920   18.7939 C   0  0  0  0  0  0  0  0  0  0  0  0
   28.3555   15.4350   17.7906 O   0  0  0  0  0  0  0  0  0  0  0  0
   28.4161   16.0806   20.9552 C   0  0  0  0  0  0  0  0  0  0  0  0
   29.3409   15.0451   21.5868 C   0  0  0  0  0  0  0  0  0  0  0  0
   30.2666   15.6421   22.6376 C   0  0  0  0  0  0  0  0  0  0  0  0
   31.2539   16.6232   22.0045 C   0  0  0  0  0  0  0  0  0  0  0  0
   32.2199   15.9880   21.0273 N   0  0  0  0  0  0  0  0  0  0  0  0
   28.3768   13.6072   18.7795 O   0  0  0  0  0  0  0  0  0  0  0  0
  2  1  1  1  0  0  0
  2  3  1  0  0  0  0
  2  5  1  0  0  0  0
  3  4  1  0  0  0  0
  3 10  1  0  0  0  0
  5  6  1  0  0  0  0
  6  7  1  0  0  0  0
  7  8  1  0  0  0  0
  8  9  1  0  0  0  0
M  END
>  <CHROM.1>
149.55696205,61.66324271,-174.59392790,-65.65050928,-64.30800874,29.02649643
15.30334672,20.39544800,2.43510815,-0.24638075,-1.74349994

>  <Name>
ligand

>  <RI>
0

>  <Rbt.Current_Directory>
/home/itssahil/PROJECTS/Mol_Feturizer/New_Systems/rnas/3DIM

>  <Rbt.Executable>
rbdock ($Id: //depot/dev/client3/rdock/2013.1/src/exe/rbdock.cxx#4 $)

>  <Rbt.Library>
libRbt.so (2013.1, Build901 2013/11/27)

>  <Rbt.Parameter_File>
/export/apps/rDock/src/rDock_2013.1_src/data/scripts/dock_solv.prm

>  <Rbt.Receptor>
prm/pocket_docking_3.prm

>  <SCORE>
-9.8463

>  <SCORE.INTER>
-8.38931

>  <SCORE.INTER.CONST>
1

>  <SCORE.INTER.POLAR>
0

>  <SCORE.INTER.ROT>
5

>  <SCORE.INTER.SOLV>
16.1859

>  <SCORE.INTER.VDW>
-17.9215

>  <SCORE.INTER.norm>
-0.838931

>  <SCORE.INTRA>
-1.45699

>  <SCORE.INTRA.DIHEDRAL>
-4.12329

>  <SCORE.INTRA.DIHEDRAL.0>
5.8785

>  <SCORE.INTRA.POLAR>
0

>  <SCORE.INTRA.POLAR.0>
0

>  <SCORE.INTRA.REPUL>
0

>  <SCORE.INTRA.REPUL.0>
0

>  <SCORE.INTRA.SOLV>
0.45475

>  <SCORE.INTRA.SOLV.lig_0>
-31.9559

>  <SCORE.INTRA.VDW>
0.37728

>  <SCORE.INTRA.VDW.0>
-0.507645

>  <SCORE.INTRA.norm>
-0.145699

>  <SCORE.RESTR>
0

>  <SCORE.RESTR.CAVITY>
0

>  <SCORE.RESTR.norm>
0

>  <SCORE.SYSTEM>
0

>  <SCORE.SYSTEM.CONST>
0

>  <SCORE.SYSTEM.DIHEDRAL>
0

>  <SCORE.SYSTEM.SOLV>
0

>  <SCORE.SYSTEM.norm>
0

>  <SCORE.heavy>
10

>  <SCORE.norm>
-0.98463

>  <RMSD>
5.109

$$$$
ligand
 OpenBabel11021811473D
libRbt.so/2013.1/901 2013/11/27
 10  9  0  0  0  0  0  0  0  0999 V2000
   28.0231   16.8062   19.9839 N   0  0  0  0  0  0  0  0  0  0  0  0
   27.7721   15.3470   20.1181 C   0  0  2  0  0  0  0  0  0  0  0  0
   27.0049   15.0290   21.4020 C   0  0  0  0  0  0  0  0  0  0  0  0
   27.4930   15.2574   22.5044 O   0  0  0  0  0  0  0  0  0  0  0  0
   29.0899   14.5695   20.0244 C   0  0  0  0  0  0  0  0  0  0  0  0
   30.1304   15.0372   21.0369 C   0  0  0  0  0  0  0  0  0  0  0  0
   30.8335   16.3190   20.6127 C   0  0  0  0  0  0  0  0  0  0  0  0
   31.8093   16.7916   21.6910 C   0  0  0  0  0  0  0  0  0  0  0  0
   31.1445   17.2585   22.9684 N   0  0  0  0  0  0  0  0  0  0  0  0
   25.8665   14.5750   21.4053 O   0  0  0  0  0  0  0  0  0  0  0  0
  2  1  1  1  0  0  0
  2  3  1  0  0  0  0
  2  5  1  0  0  0  0
  3  4  1  0  0  0  0
  3 10  1  0  0  0  0
  5  6  1  0  0  0  0
  6  7  1  0  0  0  0
  7  8  1  0  0  0  0
  8  9  1  0  0  0  0
M  END
>  <CHROM.1>
-63.41766833,55.28645845,-78.81578059,176.84004053,-67.54349813,28.88948334
15.68884133,21.20074202,-2.94802826,0.32582662,1.32705003

>  <Name>
ligand

>  <RI>
0

>  <Rbt.Current_Directory>
/home/itssahil/PROJECTS/Mol_Feturizer/New_Systems/rnas/3DIM

>  <Rbt.Executable>
rbdock ($Id: //depot/dev/client3/rdock/2013.1/src/exe/rbdock.cxx#4 $)

>  <Rbt.Library>
libRbt.so (2013.1, Build901 2013/11/27)

>  <Rbt.Parameter_File>
/export/apps/rDock/src/rDock_2013.1_src/data/scripts/dock_solv.prm

>  <Rbt.Receptor>
prm/pocket_docking_8.prm

>  <SCORE>
-7.69952

>  <SCORE.INTER>
-7.19148

>  <SCORE.INTER.CONST>
1

>  <SCORE.INTER.POLAR>
0

>  <SCORE.INTER.ROT>
5

>  <SCORE.INTER.SOLV>
15.3283

>  <SCORE.INTER.VDW>
-16.8371

>  <SCORE.INTER.norm>
-0.719148

>  <SCORE.INTRA>
-0.508045

>  <SCORE.INTRA.DIHEDRAL>
-2.67416

>  <SCORE.INTRA.DIHEDRAL.0>
5.8785

>  <SCORE.INTRA.POLAR>
0

>  <SCORE.INTRA.POLAR.0>
0

>  <SCORE.INTRA.REPUL>
0

>  <SCORE.INTRA.REPUL.0>
0

>  <SCORE.INTRA.SOLV>
1.47395

>  <SCORE.INTRA.SOLV.lig_0>
-31.9559

>  <SCORE.INTRA.VDW>
0.092059

>  <SCORE.INTRA.VDW.0>
-0.507645

>  <SCORE.INTRA.norm>
-0.0508045

>  <SCORE.RESTR>
0

>  <SCORE.RESTR.CAVITY>
0

>  <SCORE.RESTR.norm>
0

>  <SCORE.SYSTEM>
0

>  <SCORE.SYSTEM.CONST>
0

>  <SCORE.SYSTEM.DIHEDRAL>
0

>  <SCORE.SYSTEM.SOLV>
0

>  <SCORE.SYSTEM.norm>
0

>  <SCORE.heavy>
10

>  <SCORE.norm>
-0.769952

>  <RMSD>
5.125

$$$$
ligand
 OpenBabel11021811473D
libRbt.so/2013.1/901 2013/11/27
 10  9  0  0  0  0  0  0  0  0999 V2000
   26.0411   15.2004   20.5586 N   0  0  0  0  0  0  0  0  0  0  0  0
   27.5278   15.2135   20.5645 C   0  0  2  0  0  0  0  0  0  0  0  0
   28.0960   14.5892   19.2896 C   0  0  0  0  0  0  0  0  0  0  0  0
   27.3570   14.1067   18.4371 O   0  0  0  0  0  0  0  0  0  0  0  0
   28.0609   14.5314   21.8296 C   0  0  0  0  0  0  0  0  0  0  0  0
   29.5540   14.7578   22.0438 C   0  0  0  0  0  0  0  0  0  0  0  0
   29.8918   16.2064   22.3674 C   0  0  0  0  0  0  0  0  0  0  0  0
   31.4004   16.3936   22.5331 C   0  0  0  0  0  0  0  0  0  0  0  0
   32.1931   16.2060   21.2571 N   0  0  0  0  0  0  0  0  0  0  0  0
   29.2938   14.5706   19.0310 O   0  0  0  0  0  0  0  0  0  0  0  0
  2  1  1  6  0  0  0
  2  3  1  0  0  0  0
  2  5  1  0  0  0  0
  3  4  1  0  0  0  0
  3 10  1  0  0  0  0
  5  6  1  0  0  0  0
  6  7  1  0  0  0  0
  7  8  1  0  0  0  0
  8  9  1  0  0  0  0
M  END
>  <CHROM.1>
-2.80718749,-168.21949206,67.67121510,-178.33421017,67.34424350,28.94649835
15.16211825,20.75671333,2.51713430,-0.18140776,-1.85956858

>  <Name>
ligand

>  <RI>
0

>  <Rbt.Current_Directory>
/home/itssahil/PROJECTS/Mol_Feturizer/New_Systems/rnas/3DIM

>  <Rbt.Executable>
rbdock ($Id: //depot/dev/client3/rdock/2013.1/src/exe/rbdock.cxx#4 $)

>  <Rbt.Library>
libRbt.so (2013.1, Build901 2013/11/27)

>  <Rbt.Parameter_File>
/export/apps/rDock/src/rDock_2013.1_src/data/scripts/dock_solv.prm

>  <Rbt.Receptor>
prm/pocket_docking_5.prm

>  <SCORE>
-10.0911

>  <SCORE.INTER>
-7.9301

>  <SCORE.INTER.CONST>
1

>  <SCORE.INTER.POLAR>
0

>  <SCORE.INTER.ROT>
5

>  <SCORE.INTER.SOLV>
16.9501

>  <SCORE.INTER.VDW>
-17.8701

>  <SCORE.INTER.norm>
-0.79301

>  <SCORE.INTRA>
-2.16096

>  <SCORE.INTRA.DIHEDRAL>
-3.39235

>  <SCORE.INTRA.DIHEDRAL.0>
5.8785

>  <SCORE.INTRA.POLAR>
0

>  <SCORE.INTRA.POLAR.0>
0

>  <SCORE.INTRA.REPUL>
0

>  <SCORE.INTRA.REPUL.0>
0

>  <SCORE.INTRA.SOLV>
-0.736071

>  <SCORE.INTRA.SOLV.lig_0>
-31.9559

>  <SCORE.INTRA.VDW>
-0.0967463

>  <SCORE.INTRA.VDW.0>
-0.507645

>  <SCORE.INTRA.norm>
-0.216096

>  <SCORE.RESTR>
0

>  <SCORE.RESTR.CAVITY>
0

>  <SCORE.RESTR.norm>
0

>  <SCORE.SYSTEM>
0

>  <SCORE.SYSTEM.CONST>
0

>  <SCORE.SYSTEM.DIHEDRAL>
0

>  <SCORE.SYSTEM.SOLV>
0

>  <SCORE.SYSTEM.norm>
0

>  <SCORE.heavy>
10

>  <SCORE.norm>
-1.00911

>  <RMSD>
5.139

$$$$
ligand
 OpenBabel11021811473D
libRbt.so/2013.1/901 2013/11/27
 10  9  0  0  0  0  0  0  0  0999 V2000
   25.8677   15.0119   20.9000 N   0  0  0  0  0  0  0  0  0  0  0  0
   27.3223   15.3103   20.8253 C   0  0  2  0  0  0  0  0  0  0  0  0
   27.8535   15.1423   19.4014 C   0  0  0  0  0  0  0  0  0  0  0  0
   28.5531   16.0054   18.8806 O   0  0  0  0  0  0  0  0  0  0  0  0
   28.0938   14.4531   21.8352 C   0  0  0  0  0  0  0  0  0  0  0  0
   29.5845   14.7743   21.8726 C   0  0  0  0  0  0  0  0  0  0  0  0
   29.8762   16.1639   22.4215 C   0  0  0  0  0  0  0  0  0  0  0  0
   31.3811   16.3885   22.5732 C   0  0  0  0  0  0  0  0  0  0  0  0
   32.1502   16.3420   21.2701 N   0  0  0  0  0  0  0  0  0  0  0  0
   27.6502   14.1399   18.7261 O   0  0  0  0  0  0  0  0  0  0  0  0
  2  1  1  6  0  0  0
  2  3  1  0  0  0  0
  2  5  1  0  0  0  0
  3  4  1  0  0  0  0
  3 10  1  0  0  0  0
  5  6  1  0  0  0  0
  6  7  1  0  0  0  0
  7  8  1  0  0  0  0
  8  9  1  0  0  0  0
M  END
>  <CHROM.1>
131.84568394,-176.33967172,67.25988718,174.25661741,62.88147515,28.83753003
15.36842366,20.83405777,2.65986696,-0.31674385,-1.55594506

>  <Name>
ligand

>  <RI>
0

>  <Rbt.Current_Directory>
/home/itssahil/PROJECTS/Mol_Feturizer/New_Systems/rnas/3DIM

>  <Rbt.Executable>
rbdock ($Id: //depot/dev/client3/rdock/2013.1/src/exe/rbdock.cxx#4 $)

>  <Rbt.Library>
libRbt.so (2013.1, Build901 2013/11/27)

>  <Rbt.Parameter_File>
/export/apps/rDock/src/rDock_2013.1_src/data/scripts/dock_solv.prm

>  <Rbt.Receptor>
prm/pocket_docking_6.prm

>  <SCORE>
-10.4303

>  <SCORE.INTER>
-7.78168

>  <SCORE.INTER.CONST>
1

>  <SCORE.INTER.POLAR>
0

>  <SCORE.INTER.ROT>
5

>  <SCORE.INTER.SOLV>
17.2649

>  <SCORE.INTER.VDW>
-17.8761

>  <SCORE.INTER.norm>
-0.778168

>  <SCORE.INTRA>
-2.64858

>  <SCORE.INTRA.DIHEDRAL>
-3.98301

>  <SCORE.INTRA.DIHEDRAL.0>
5.8785

>  <SCORE.INTRA.POLAR>
0

>  <SCORE.INTRA.POLAR.0>
0

>  <SCORE.INTRA.REPUL>
0

>  <SCORE.INTRA.REPUL.0>
0

>  <SCORE.INTRA.SOLV>
-0.806232

>  <SCORE.INTRA.SOLV.lig_0>
-31.9559

>  <SCORE.INTRA.VDW>
-0.253961

>  <SCORE.INTRA.VDW.0>
-0.507645

>  <SCORE.INTRA.norm>
-0.264858

>  <SCORE.RESTR>
0

>  <SCORE.RESTR.CAVITY>
0

>  <SCORE.RESTR.norm>
0

>  <SCORE.SYSTEM>
0

>  <SCORE.SYSTEM.CONST>
0

>  <SCORE.SYSTEM.DIHEDRAL>
0

>  <SCORE.SYSTEM.SOLV>
0

>  <SCORE.SYSTEM.norm>
0

>  <SCORE.heavy>
10

>  <SCORE.norm>
-1.04303

>  <RMSD>
5.145

$$$$
ligand
 OpenBabel11021811473D
libRbt.so/2013.1/901 2013/11/27
 10  9  0  0  0  0  0  0  0  0999 V2000
   27.5976   14.6974   18.7879 N   0  0  0  0  0  0  0  0  0  0  0  0
   28.1180   14.9530   20.1569 C   0  0  2  0  0  0  0  0  0  0  0  0
   26.9975   14.9098   21.1964 C   0  0  0  0  0  0  0  0  0  0  0  0
   25.8183   14.9266   20.8574 O   0  0  0  0  0  0  0  0  0  0  0  0
   28.8904   16.2766   20.1940 C   0  0  0  0  0  0  0  0  0  0  0  0
   29.6060   16.5113   21.5204 C   0  0  0  0  0  0  0  0  0  0  0  0
   30.6830   15.4731   21.8028 C   0  0  0  0  0  0  0  0  0  0  0  0
   31.9045   15.6935   20.9097 C   0  0  0  0  0  0  0  0  0  0  0  0
   32.6728   16.9626   21.2107 N   0  0  0  0  0  0  0  0  0  0  0  0
   27.2062   14.8170   22.4005 O   0  0  0  0  0  0  0  0  0  0  0  0
  2  1  1  6  0  0  0
  2  3  1  0  0  0  0
  2  5  1  0  0  0  0
  3  4  1  0  0  0  0
  3 10  1  0  0  0  0
  5  6  1  0  0  0  0
  6  7  1  0  0  0  0
  7  8  1  0  0  0  0
  8  9  1  0  0  0  0
M  END
>  <CHROM.1>
-13.18281389,-172.44762540,63.43290994,73.09523595,67.71675222,28.91478342
15.51663065,20.92536046,-3.04143867,0.27247928,1.51955159

>  <Name>
ligand

>  <RI>
0

>  <Rbt.Current_Directory>
/home/itssahil/PROJECTS/Mol_Feturizer/New_Systems/rnas/3DIM

>  <Rbt.Executable>
rbdock ($Id: //depot/dev/client3/rdock/2013.1/src/exe/rbdock.cxx#4 $)

>  <Rbt.Library>
libRbt.so (2013.1, Build901 2013/11/27)

>  <Rbt.Parameter_File>
/export/apps/rDock/src/rDock_2013.1_src/data/scripts/dock_solv.prm

>  <Rbt.Receptor>
prm/pocket_docking_3.prm

>  <SCORE>
-10.8956

>  <SCORE.INTER>
-9.54091

>  <SCORE.INTER.CONST>
1

>  <SCORE.INTER.POLAR>
0

>  <SCORE.INTER.ROT>
5

>  <SCORE.INTER.SOLV>
14.1689

>  <SCORE.INTER.VDW>
-18.0169

>  <SCORE.INTER.norm>
-0.954091

>  <SCORE.INTRA>
-1.35465

>  <SCORE.INTRA.DIHEDRAL>
-3.14654

>  <SCORE.INTRA.DIHEDRAL.0>
5.8785

>  <SCORE.INTRA.POLAR>
0

>  <SCORE.INTRA.POLAR.0>
0

>  <SCORE.INTRA.REPUL>
0

>  <SCORE.INTRA.REPUL.0>
0

>  <SCORE.INTRA.SOLV>
-0.327166

>  <SCORE.INTRA.SOLV.lig_0>
-31.9559

>  <SCORE.INTRA.VDW>
0.382204

>  <SCORE.INTRA.VDW.0>
-0.507645

>  <SCORE.INTRA.norm>
-0.135465

>  <SCORE.RESTR>
0

>  <SCORE.RESTR.CAVITY>
0

>  <SCORE.RESTR.norm>
0

>  <SCORE.SYSTEM>
0

>  <SCORE.SYSTEM.CONST>
0

>  <SCORE.SYSTEM.DIHEDRAL>
0

>  <SCORE.SYSTEM.SOLV>
0

>  <SCORE.SYSTEM.norm>
0

>  <SCORE.heavy>
10

>  <SCORE.norm>
-1.08956

>  <RMSD>
5.152

$$$$
ligand
 OpenBabel11021811473D
libRbt.so/2013.1/901 2013/11/27
 10  9  0  0  0  0  0  0  0  0999 V2000
   28.9339   14.2177   19.5857 N   0  0  0  0  0  0  0  0  0  0  0  0
   28.0185   14.2100   20.7572 C   0  0  2  0  0  0  0  0  0  0  0  0
   26.8974   15.2372   20.5956 C   0  0  0  0  0  0  0  0  0  0  0  0
   25.7586   14.9981   20.9849 O   0  0  0  0  0  0  0  0  0  0  0  0
   28.8107   14.4178   22.0530 C   0  0  0  0  0  0  0  0  0  0  0  0
   29.6137   15.7146   22.0583 C   0  0  0  0  0  0  0  0  0  0  0  0
   30.8418   15.6531   21.1608 C   0  0  0  0  0  0  0  0  0  0  0  0
   31.6096   16.9752   21.1910 C   0  0  0  0  0  0  0  0  0  0  0  0
   32.1813   17.3303   22.5470 N   0  0  0  0  0  0  0  0  0  0  0  0
   27.0752   16.3506   20.1151 O   0  0  0  0  0  0  0  0  0  0  0  0
  2  1  1  6  0  0  0
  2  3  1  0  0  0  0
  2  5  1  0  0  0  0
  3  4  1  0  0  0  0
  3 10  1  0  0  0  0
  5  6  1  0  0  0  0
  6  7  1  0  0  0  0
  7  8  1  0  0  0  0
  8  9  1  0  0  0  0
M  END
>  <CHROM.1>
142.68192759,57.70546488,-73.67750313,179.65075882,63.49982553,28.93862579
15.52816549,21.09911839,-2.76536946,-0.16723994,0.23977215

>  <Name>
ligand

>  <RI>
0

>  <Rbt.Current_Directory>
/home/itssahil/PROJECTS/Mol_Feturizer/New_Systems/rnas/3DIM

>  <Rbt.Executable>
rbdock ($Id: //depot/dev/client3/rdock/2013.1/src/exe/rbdock.cxx#4 $)

>  <Rbt.Library>
libRbt.so (2013.1, Build901 2013/11/27)

>  <Rbt.Parameter_File>
/export/apps/rDock/src/rDock_2013.1_src/data/scripts/dock_solv.prm

>  <Rbt.Receptor>
prm/pocket_docking_7.prm

>  <SCORE>
-10.0383

>  <SCORE.INTER>
-9.10835

>  <SCORE.INTER.CONST>
1

>  <SCORE.INTER.POLAR>
0

>  <SCORE.INTER.ROT>
5

>  <SCORE.INTER.SOLV>
12.0962

>  <SCORE.INTER.VDW>
-17.0376

>  <SCORE.INTER.norm>
-0.910835

>  <SCORE.INTRA>
-0.929922

>  <SCORE.INTRA.DIHEDRAL>
-3.6217

>  <SCORE.INTRA.DIHEDRAL.0>
5.8785

>  <SCORE.INTRA.POLAR>
0

>  <SCORE.INTRA.POLAR.0>
0

>  <SCORE.INTRA.REPUL>
0

>  <SCORE.INTRA.REPUL.0>
0

>  <SCORE.INTRA.SOLV>
1.44815

>  <SCORE.INTRA.SOLV.lig_0>
-31.9559

>  <SCORE.INTRA.VDW>
0.156853

>  <SCORE.INTRA.VDW.0>
-0.507645

>  <SCORE.INTRA.norm>
-0.0929922

>  <SCORE.RESTR>
0

>  <SCORE.RESTR.CAVITY>
0

>  <SCORE.RESTR.norm>
0

>  <SCORE.SYSTEM>
0

>  <SCORE.SYSTEM.CONST>
0

>  <SCORE.SYSTEM.DIHEDRAL>
0

>  <SCORE.SYSTEM.SOLV>
0

>  <SCORE.SYSTEM.norm>
0

>  <SCORE.heavy>
10

>  <SCORE.norm>
-1.00383

>  <RMSD>
5.153

$$$$
ligand
 OpenBabel11021811473D
libRbt.so/2013.1/901 2013/11/27
 10  9  0  0  0  0  0  0  0  0999 V2000
   26.3421   14.9083   21.4122 N   0  0  0  0  0  0  0  0  0  0  0  0
   27.7129   15.4351   21.1807 C   0  0  2  0  0  0  0  0  0  0  0  0
   27.9733   15.6776   19.6936 C   0  0  0  0  0  0  0  0  0  0  0  0
   27.5992   14.8731   18.8459 O   0  0  0  0  0  0  0  0  0  0  0  0
   28.7549   14.5002   21.8052 C   0  0  0  0  0  0  0  0  0  0  0  0
   30.1896   14.9350   21.5237 C   0  0  0  0  0  0  0  0  0  0  0  0
   30.5532   16.2483   22.2023 C   0  0  0  0  0  0  0  0  0  0  0  0
   32.0055   16.6305   21.9141 C   0  0  0  0  0  0  0  0  0  0  0  0
   32.4480   17.9236   22.5651 N   0  0  0  0  0  0  0  0  0  0  0  0
   28.5227   16.6867   19.2670 O   0  0  0  0  0  0  0  0  0  0  0  0
  2  1  1  6  0  0  0
  2  3  1  0  0  0  0
  2  5  1  0  0  0  0
  3  4  1  0  0  0  0
  3 10  1  0  0  0  0
  5  6  1  0  0  0  0
  6  7  1  0  0  0  0
  7  8  1  0  0  0  0
  8  9  1  0  0  0  0
M  END
>  <CHROM.1>
-41.86724769,176.18486515,66.83546835,178.93508682,-179.55175465,29.20632963
15.78555825,21.00346777,2.91236173,-0.51753578,-1.13076056

>  <Name>
ligand

>  <RI>
0

>  <Rbt.Current_Directory>
/home/itssahil/PROJECTS/Mol_Feturizer/New_Systems/rnas/3DIM

>  <Rbt.Executable>
rbdock ($Id: //depot/dev/client3/rdock/2013.1/src/exe/rbdock.cxx#4 $)

>  <Rbt.Library>
libRbt.so (2013.1, Build901 2013/11/27)

>  <Rbt.Parameter_File>
/export/apps/rDock/src/rDock_2013.1_src/data/scripts/dock_solv.prm

>  <Rbt.Receptor>
prm/pocket_docking_8.prm

>  <SCORE>
-10.2672

>  <SCORE.INTER>
-7.30645

>  <SCORE.INTER.CONST>
1

>  <SCORE.INTER.POLAR>
0

>  <SCORE.INTER.ROT>
5

>  <SCORE.INTER.SOLV>
18.1348

>  <SCORE.INTER.VDW>
-17.8492

>  <SCORE.INTER.norm>
-0.730645

>  <SCORE.INTRA>
-2.96074

>  <SCORE.INTRA.DIHEDRAL>
-4.04495

>  <SCORE.INTRA.DIHEDRAL.0>
5.8785

>  <SCORE.INTRA.POLAR>
0

>  <SCORE.INTRA.POLAR.0>
0

>  <SCORE.INTRA.REPUL>
0

>  <SCORE.INTRA.REPUL.0>
0

>  <SCORE.INTRA.SOLV>
-1.67178

>  <SCORE.INTRA.SOLV.lig_0>
-31.9559

>  <SCORE.INTRA.VDW>
-0.102378

>  <SCORE.INTRA.VDW.0>
-0.507645

>  <SCORE.INTRA.norm>
-0.296074

>  <SCORE.RESTR>
0

>  <SCORE.RESTR.CAVITY>
0

>  <SCORE.RESTR.norm>
0

>  <SCORE.SYSTEM>
0

>  <SCORE.SYSTEM.CONST>
0

>  <SCORE.SYSTEM.DIHEDRAL>
0

>  <SCORE.SYSTEM.SOLV>
0

>  <SCORE.SYSTEM.norm>
0

>  <SCORE.heavy>
10

>  <SCORE.norm>
-1.02672

>  <RMSD>
5.155

$$$$
ligand
 OpenBabel11021811473D
libRbt.so/2013.1/901 2013/11/27
 10  9  0  0  0  0  0  0  0  0999 V2000
   27.5925   14.6988   18.7919 N   0  0  0  0  0  0  0  0  0  0  0  0
   28.1119   14.9635   20.1595 C   0  0  2  0  0  0  0  0  0  0  0  0
   26.9910   14.9256   21.1987 C   0  0  0  0  0  0  0  0  0  0  0  0
   25.8123   14.9026   20.8582 O   0  0  0  0  0  0  0  0  0  0  0  0
   28.8830   16.2880   20.1888 C   0  0  0  0  0  0  0  0  0  0  0  0
   29.6083   16.5256   21.5094 C   0  0  0  0  0  0  0  0  0  0  0  0
   30.6963   15.4957   21.7799 C   0  0  0  0  0  0  0  0  0  0  0  0
   31.9206   15.7476   20.8990 C   0  0  0  0  0  0  0  0  0  0  0  0
   32.6730   17.0188   21.2305 N   0  0  0  0  0  0  0  0  0  0  0  0
   27.1997   14.8762   22.4055 O   0  0  0  0  0  0  0  0  0  0  0  0
  2  1  1  6  0  0  0
  2  3  1  0  0  0  0
  2  5  1  0  0  0  0
  3  4  1  0  0  0  0
  3 10  1  0  0  0  0
  5  6  1  0  0  0  0
  6  7  1  0  0  0  0
  7  8  1  0  0  0  0
  8  9  1  0  0  0  0
M  END
>  <CHROM.1>
-11.19142670,-171.91635174,63.90566742,74.38558191,67.85617813,28.91418418
15.53881492,20.92387709,-3.03689700,0.27705789,1.50313184

>  <Name>
ligand

>  <RI>
0

>  <Rbt.Current_Directory>
/home/itssahil/PROJECTS/Mol_Feturizer/New_Systems/rnas/3DIM

>  <Rbt.Executable>
rbdock ($Id: //depot/dev/client3/rdock/2013.1/src/exe/rbdock.cxx#4 $)

>  <Rbt.Library>
libRbt.so (2013.1, Build901 2013/11/27)

>  <Rbt.Parameter_File>
/export/apps/rDock/src/rDock_2013.1_src/data/scripts/dock_solv.prm

>  <Rbt.Receptor>
prm/pocket_docking_8.prm

>  <SCORE>
-10.8583

>  <SCORE.INTER>
-9.56348

>  <SCORE.INTER.CONST>
1

>  <SCORE.INTER.POLAR>
0

>  <SCORE.INTER.ROT>
5

>  <SCORE.INTER.SOLV>
14.1815

>  <SCORE.INTER.VDW>
-18.0362

>  <SCORE.INTER.norm>
-0.956348

>  <SCORE.INTRA>
-1.29486

>  <SCORE.INTRA.DIHEDRAL>
-2.9636

>  <SCORE.INTRA.DIHEDRAL.0>
5.8785

>  <SCORE.INTRA.POLAR>
0

>  <SCORE.INTRA.POLAR.0>
0

>  <SCORE.INTRA.REPUL>
0

>  <SCORE.INTRA.REPUL.0>
0

>  <SCORE.INTRA.SOLV>
-0.344483

>  <SCORE.INTRA.SOLV.lig_0>
-31.9559

>  <SCORE.INTRA.VDW>
0.359183

>  <SCORE.INTRA.VDW.0>
-0.507645

>  <SCORE.INTRA.norm>
-0.129486

>  <SCORE.RESTR>
0

>  <SCORE.RESTR.CAVITY>
0

>  <SCORE.RESTR.norm>
0

>  <SCORE.SYSTEM>
0

>  <SCORE.SYSTEM.CONST>
0

>  <SCORE.SYSTEM.DIHEDRAL>
0

>  <SCORE.SYSTEM.SOLV>
0

>  <SCORE.SYSTEM.norm>
0

>  <SCORE.heavy>
10

>  <SCORE.norm>
-1.08583

>  <RMSD>
5.159

$$$$
ligand
 OpenBabel11021811473D
libRbt.so/2013.1/901 2013/11/27
 10  9  0  0  0  0  0  0  0  0999 V2000
   25.8578   14.9796   20.8860 N   0  0  0  0  0  0  0  0  0  0  0  0
   27.3078   15.2988   20.8088 C   0  0  2  0  0  0  0  0  0  0  0  0
   27.8358   15.1520   19.3813 C   0  0  0  0  0  0  0  0  0  0  0  0
   27.6088   14.1416   18.7230 O   0  0  0  0  0  0  0  0  0  0  0  0
   28.0951   14.4426   21.8073 C   0  0  0  0  0  0  0  0  0  0  0  0
   29.5794   14.7913   21.8501 C   0  0  0  0  0  0  0  0  0  0  0  0
   29.8441   16.1812   22.4118 C   0  0  0  0  0  0  0  0  0  0  0  0
   31.3449   16.4408   22.5475 C   0  0  0  0  0  0  0  0  0  0  0  0
   32.1022   16.4044   21.2372 N   0  0  0  0  0  0  0  0  0  0  0  0
   28.4683   16.0319   18.8088 O   0  0  0  0  0  0  0  0  0  0  0  0
  2  1  1  6  0  0  0
  2  3  1  0  0  0  0
  2  5  1  0  0  0  0
  3  4  1  0  0  0  0
  3 10  1  0  0  0  0
  5  6  1  0  0  0  0
  6  7  1  0  0  0  0
  7  8  1  0  0  0  0
  8  9  1  0  0  0  0
M  END
>  <CHROM.1>
-49.55048614,-175.89332950,66.98049370,175.14132697,61.87461923,28.80747300
15.38194544,20.80916159,2.66270806,-0.33776552,-1.53659567

>  <Name>
ligand

>  <RI>
0

>  <Rbt.Current_Directory>
/home/itssahil/PROJECTS/Mol_Feturizer/New_Systems/rnas/3DIM

>  <Rbt.Executable>
rbdock ($Id: //depot/dev/client3/rdock/2013.1/src/exe/rbdock.cxx#4 $)

>  <Rbt.Library>
libRbt.so (2013.1, Build901 2013/11/27)

>  <Rbt.Parameter_File>
/export/apps/rDock/src/rDock_2013.1_src/data/scripts/dock_solv.prm

>  <Rbt.Receptor>
prm/pocket_docking_7.prm

>  <SCORE>
-10.4185

>  <SCORE.INTER>
-7.83217

>  <SCORE.INTER.CONST>
1

>  <SCORE.INTER.POLAR>
0

>  <SCORE.INTER.ROT>
5

>  <SCORE.INTER.SOLV>
17.2885

>  <SCORE.INTER.VDW>
-17.9176

>  <SCORE.INTER.norm>
-0.783217

>  <SCORE.INTRA>
-2.58629

>  <SCORE.INTRA.DIHEDRAL>
-3.9661

>  <SCORE.INTRA.DIHEDRAL.0>
5.8785

>  <SCORE.INTRA.POLAR>
0

>  <SCORE.INTRA.POLAR.0>
0

>  <SCORE.INTRA.REPUL>
0

>  <SCORE.INTRA.REPUL.0>
0

>  <SCORE.INTRA.SOLV>
-0.75776

>  <SCORE.INTRA.SOLV.lig_0>
-31.9559

>  <SCORE.INTRA.VDW>
-0.224362

>  <SCORE.INTRA.VDW.0>
-0.507645

>  <SCORE.INTRA.norm>
-0.258629

>  <SCORE.RESTR>
0

>  <SCORE.RESTR.CAVITY>
0

>  <SCORE.RESTR.norm>
0

>  <SCORE.SYSTEM>
0

>  <SCORE.SYSTEM.CONST>
0

>  <SCORE.SYSTEM.DIHEDRAL>
0

>  <SCORE.SYSTEM.SOLV>
0

>  <SCORE.SYSTEM.norm>
0

>  <SCORE.heavy>
10

>  <SCORE.norm>
-1.04185

>  <RMSD>
5.160

$$$$
ligand
 OpenBabel11021811473D
libRbt.so/2013.1/901 2013/11/27
 10  9  0  0  0  0  0  0  0  0999 V2000
   25.9229   15.0505   20.7616 N   0  0  0  0  0  0  0  0  0  0  0  0
   27.3983   15.2242   20.7066 C   0  0  2  0  0  0  0  0  0  0  0  0
   27.9595   14.7993   19.3491 C   0  0  0  0  0  0  0  0  0  0  0  0
   27.3060   14.0945   18.5864 O   0  0  0  0  0  0  0  0  0  0  0  0
   28.0657   14.4778   21.8674 C   0  0  0  0  0  0  0  0  0  0  0  0
   29.5636   14.7481   21.9661 C   0  0  0  0  0  0  0  0  0  0  0  0
   29.8799   16.1711   22.4049 C   0  0  0  0  0  0  0  0  0  0  0  0
   31.3872   16.3737   22.5634 C   0  0  0  0  0  0  0  0  0  0  0  0
   32.1712   16.2332   21.2760 N   0  0  0  0  0  0  0  0  0  0  0  0
   29.0542   15.1630   18.9350 O   0  0  0  0  0  0  0  0  0  0  0  0
  2  1  1  6  0  0  0
  2  3  1  0  0  0  0
  2  5  1  0  0  0  0
  3  4  1  0  0  0  0
  3 10  1  0  0  0  0
  5  6  1  0  0  0  0
  6  7  1  0  0  0  0
  7  8  1  0  0  0  0
  8  9  1  0  0  0  0
M  END
>  <CHROM.1>
-17.47536641,-173.25530742,69.44235644,176.91595288,64.14721641,28.87503084
15.22278575,20.80570774,2.58538302,-0.25132130,-1.73419000

>  <Name>
ligand

>  <RI>
0

>  <Rbt.Current_Directory>
/home/itssahil/PROJECTS/Mol_Feturizer/New_Systems/rnas/3DIM

>  <Rbt.Executable>
rbdock ($Id: //depot/dev/client3/rdock/2013.1/src/exe/rbdock.cxx#4 $)

>  <Rbt.Library>
libRbt.so (2013.1, Build901 2013/11/27)

>  <Rbt.Parameter_File>
/export/apps/rDock/src/rDock_2013.1_src/data/scripts/dock_solv.prm

>  <Rbt.Receptor>
prm/blind_docking_60.prm

>  <SCORE>
-10.1755

>  <SCORE.INTER>
-7.77252

>  <SCORE.INTER.CONST>
1

>  <SCORE.INTER.POLAR>
0

>  <SCORE.INTER.ROT>
5

>  <SCORE.INTER.SOLV>
17.0748

>  <SCORE.INTER.VDW>
-17.8066

>  <SCORE.INTER.norm>
-0.777252

>  <SCORE.INTRA>
-2.40302

>  <SCORE.INTRA.DIHEDRAL>
-3.66971

>  <SCORE.INTRA.DIHEDRAL.0>
5.8785

>  <SCORE.INTRA.POLAR>
0

>  <SCORE.INTRA.POLAR.0>
0

>  <SCORE.INTRA.REPUL>
0

>  <SCORE.INTRA.REPUL.0>
0

>  <SCORE.INTRA.SOLV>
-0.766018

>  <SCORE.INTRA.SOLV.lig_0>
-31.9559

>  <SCORE.INTRA.VDW>
-0.185157

>  <SCORE.INTRA.VDW.0>
-0.507645

>  <SCORE.INTRA.norm>
-0.240302

>  <SCORE.RESTR>
0

>  <SCORE.RESTR.CAVITY>
0

>  <SCORE.RESTR.norm>
0

>  <SCORE.SYSTEM>
0

>  <SCORE.SYSTEM.CONST>
0

>  <SCORE.SYSTEM.DIHEDRAL>
0

>  <SCORE.SYSTEM.SOLV>
0

>  <SCORE.SYSTEM.norm>
0

>  <SCORE.heavy>
10

>  <SCORE.norm>
-1.01755

>  <RMSD>
5.161

$$$$
ligand
 OpenBabel11021811473D
libRbt.so/2013.1/901 2013/11/27
 10  9  0  0  0  0  0  0  0  0999 V2000
   27.6127   14.6950   18.7864 N   0  0  0  0  0  0  0  0  0  0  0  0
   28.1097   14.9604   20.1622 C   0  0  2  0  0  0  0  0  0  0  0  0
   26.9759   14.8978   21.1862 C   0  0  0  0  0  0  0  0  0  0  0  0
   27.2116   14.8396   22.3890 O   0  0  0  0  0  0  0  0  0  0  0  0
   28.8580   16.2975   20.2090 C   0  0  0  0  0  0  0  0  0  0  0  0
   29.5820   16.5285   21.5315 C   0  0  0  0  0  0  0  0  0  0  0  0
   30.6779   15.5044   21.7921 C   0  0  0  0  0  0  0  0  0  0  0  0
   31.8996   15.7731   20.9126 C   0  0  0  0  0  0  0  0  0  0  0  0
   32.6576   17.0335   21.2712 N   0  0  0  0  0  0  0  0  0  0  0  0
   25.7912   14.9420   20.8753 O   0  0  0  0  0  0  0  0  0  0  0  0
  2  1  1  6  0  0  0
  2  3  1  0  0  0  0
  2  5  1  0  0  0  0
  3  4  1  0  0  0  0
  3 10  1  0  0  0  0
  5  6  1  0  0  0  0
  6  7  1  0  0  0  0
  7  8  1  0  0  0  0
  8  9  1  0  0  0  0
M  END
>  <CHROM.1>
166.23754151,-170.90474253,63.26769191,74.35705908,68.93105258,28.90308981
15.54222418,20.93337552,-3.03181116,0.27983591,1.50350958

>  <Name>
ligand

>  <RI>
0

>  <Rbt.Current_Directory>
/home/itssahil/PROJECTS/Mol_Feturizer/New_Systems/rnas/3DIM

>  <Rbt.Executable>
rbdock ($Id: //depot/dev/client3/rdock/2013.1/src/exe/rbdock.cxx#4 $)

>  <Rbt.Library>
libRbt.so (2013.1, Build901 2013/11/27)

>  <Rbt.Parameter_File>
/export/apps/rDock/src/rDock_2013.1_src/data/scripts/dock_solv.prm

>  <Rbt.Receptor>
prm/pocket_docking_6.prm

>  <SCORE>
-10.9231

>  <SCORE.INTER>
-9.59322

>  <SCORE.INTER.CONST>
1

>  <SCORE.INTER.POLAR>
0

>  <SCORE.INTER.ROT>
5

>  <SCORE.INTER.SOLV>
14.0725

>  <SCORE.INTER.VDW>
-18.0196

>  <SCORE.INTER.norm>
-0.959322

>  <SCORE.INTRA>
-1.32986

>  <SCORE.INTRA.DIHEDRAL>
-2.96807

>  <SCORE.INTRA.DIHEDRAL.0>
5.8785

>  <SCORE.INTRA.POLAR>
0

>  <SCORE.INTRA.POLAR.0>
0

>  <SCORE.INTRA.REPUL>
0

>  <SCORE.INTRA.REPUL.0>
0

>  <SCORE.INTRA.SOLV>
-0.375254

>  <SCORE.INTRA.SOLV.lig_0>
-31.9559

>  <SCORE.INTRA.VDW>
0.3418

>  <SCORE.INTRA.VDW.0>
-0.507645

>  <SCORE.INTRA.norm>
-0.132986

>  <SCORE.RESTR>
0

>  <SCORE.RESTR.CAVITY>
0

>  <SCORE.RESTR.norm>
0

>  <SCORE.SYSTEM>
0

>  <SCORE.SYSTEM.CONST>
0

>  <SCORE.SYSTEM.DIHEDRAL>
0

>  <SCORE.SYSTEM.SOLV>
0

>  <SCORE.SYSTEM.norm>
0

>  <SCORE.heavy>
10

>  <SCORE.norm>
-1.09231

>  <RMSD>
5.162

$$$$
ligand
 OpenBabel11021811473D
libRbt.so/2013.1/901 2013/11/27
 10  9  0  0  0  0  0  0  0  0999 V2000
   28.2584   14.5096   18.8614 N   0  0  0  0  0  0  0  0  0  0  0  0
   28.2849   14.5668   20.3468 C   0  0  2  0  0  0  0  0  0  0  0  0
   26.8950   14.8476   20.9189 C   0  0  0  0  0  0  0  0  0  0  0  0
   26.0259   15.3822   20.2374 O   0  0  0  0  0  0  0  0  0  0  0  0
   29.3231   15.5899   20.8215 C   0  0  0  0  0  0  0  0  0  0  0  0
   29.5305   15.5704   22.3325 C   0  0  0  0  0  0  0  0  0  0  0  0
   30.5003   16.6424   22.8099 C   0  0  0  0  0  0  0  0  0  0  0  0
   31.9446   16.2581   22.4865 C   0  0  0  0  0  0  0  0  0  0  0  0
   32.2558   16.2031   21.0060 N   0  0  0  0  0  0  0  0  0  0  0  0
   26.5618   14.5258   22.0536 O   0  0  0  0  0  0  0  0  0  0  0  0
  2  1  1  6  0  0  0
  2  3  1  0  0  0  0
  2  5  1  0  0  0  0
  3  4  1  0  0  0  0
  3 10  1  0  0  0  0
  5  6  1  0  0  0  0
  6  7  1  0  0  0  0
  7  8  1  0  0  0  0
  8  9  1  0  0  0  0
M  END
>  <CHROM.1>
-22.09885959,-172.57090184,-176.60757467,-75.38983219,65.85247463,28.91746603
15.41092330,21.19646357,-2.79314897,0.21833375,1.33767038

>  <Name>
ligand

>  <RI>
0

>  <Rbt.Current_Directory>
/home/itssahil/PROJECTS/Mol_Feturizer/New_Systems/rnas/3DIM

>  <Rbt.Executable>
rbdock ($Id: //depot/dev/client3/rdock/2013.1/src/exe/rbdock.cxx#4 $)

>  <Rbt.Library>
libRbt.so (2013.1, Build901 2013/11/27)

>  <Rbt.Parameter_File>
/export/apps/rDock/src/rDock_2013.1_src/data/scripts/dock_solv.prm

>  <Rbt.Receptor>
prm/pocket_docking_7.prm

>  <SCORE>
-10.0674

>  <SCORE.INTER>
-8.98133

>  <SCORE.INTER.CONST>
1

>  <SCORE.INTER.POLAR>
0

>  <SCORE.INTER.ROT>
5

>  <SCORE.INTER.SOLV>
12.5331

>  <SCORE.INTER.VDW>
-17.0986

>  <SCORE.INTER.norm>
-0.898133

>  <SCORE.INTRA>
-1.08611

>  <SCORE.INTRA.DIHEDRAL>
-2.97882

>  <SCORE.INTRA.DIHEDRAL.0>
5.8785

>  <SCORE.INTRA.POLAR>
0

>  <SCORE.INTRA.POLAR.0>
0

>  <SCORE.INTRA.REPUL>
0

>  <SCORE.INTRA.REPUL.0>
0

>  <SCORE.INTRA.SOLV>
0.374702

>  <SCORE.INTRA.SOLV.lig_0>
-31.9559

>  <SCORE.INTRA.VDW>
0.215946

>  <SCORE.INTRA.VDW.0>
-0.507645

>  <SCORE.INTRA.norm>
-0.108611

>  <SCORE.RESTR>
0

>  <SCORE.RESTR.CAVITY>
0

>  <SCORE.RESTR.norm>
0

>  <SCORE.SYSTEM>
0

>  <SCORE.SYSTEM.CONST>
0

>  <SCORE.SYSTEM.DIHEDRAL>
0

>  <SCORE.SYSTEM.SOLV>
0

>  <SCORE.SYSTEM.norm>
0

>  <SCORE.heavy>
10

>  <SCORE.norm>
-1.00674

>  <RMSD>
5.170

$$$$
ligand
 OpenBabel11021811473D
libRbt.so/2013.1/901 2013/11/27
 10  9  0  0  0  0  0  0  0  0999 V2000
   27.5159   14.5933   18.7779 N   0  0  0  0  0  0  0  0  0  0  0  0
   28.0407   14.9047   20.1336 C   0  0  2  0  0  0  0  0  0  0  0  0
   26.9313   14.8597   21.1848 C   0  0  0  0  0  0  0  0  0  0  0  0
   27.1944   14.7631   22.3794 O   0  0  0  0  0  0  0  0  0  0  0  0
   28.7741   16.2508   20.1240 C   0  0  0  0  0  0  0  0  0  0  0  0
   29.4823   16.5523   21.4409 C   0  0  0  0  0  0  0  0  0  0  0  0
   30.5696   15.5397   21.7726 C   0  0  0  0  0  0  0  0  0  0  0  0
   31.7929   15.7356   20.8763 C   0  0  0  0  0  0  0  0  0  0  0  0
   32.5508   17.0208   21.1326 N   0  0  0  0  0  0  0  0  0  0  0  0
   25.7418   14.9562   20.9057 O   0  0  0  0  0  0  0  0  0  0  0  0
  2  1  1  6  0  0  0
  2  3  1  0  0  0  0
  2  5  1  0  0  0  0
  3  4  1  0  0  0  0
  3 10  1  0  0  0  0
  5  6  1  0  0  0  0
  6  7  1  0  0  0  0
  7  8  1  0  0  0  0
  8  9  1  0  0  0  0
M  END
>  <CHROM.1>
162.05752671,-173.03923338,62.22984896,73.21855653,68.12675623,28.82558316
15.51291314,20.89537471,-3.04553338,0.29005471,1.50188946

>  <Name>
ligand

>  <RI>
0

>  <Rbt.Current_Directory>
/home/itssahil/PROJECTS/Mol_Feturizer/New_Systems/rnas/3DIM

>  <Rbt.Executable>
rbdock ($Id: //depot/dev/client3/rdock/2013.1/src/exe/rbdock.cxx#4 $)

>  <Rbt.Library>
libRbt.so (2013.1, Build901 2013/11/27)

>  <Rbt.Parameter_File>
/export/apps/rDock/src/rDock_2013.1_src/data/scripts/dock_solv.prm

>  <Rbt.Receptor>
prm/pocket_docking_4.prm

>  <SCORE>
-10.8752

>  <SCORE.INTER>
-9.42049

>  <SCORE.INTER.CONST>
1

>  <SCORE.INTER.POLAR>
0

>  <SCORE.INTER.ROT>
5

>  <SCORE.INTER.SOLV>
14.5797

>  <SCORE.INTER.VDW>
-18.0736

>  <SCORE.INTER.norm>
-0.942049

>  <SCORE.INTRA>
-1.45474

>  <SCORE.INTRA.DIHEDRAL>
-3.29997

>  <SCORE.INTRA.DIHEDRAL.0>
5.8785

>  <SCORE.INTRA.POLAR>
0

>  <SCORE.INTRA.POLAR.0>
0

>  <SCORE.INTRA.REPUL>
0

>  <SCORE.INTRA.REPUL.0>
0

>  <SCORE.INTRA.SOLV>
-0.357163

>  <SCORE.INTRA.SOLV.lig_0>
-31.9559

>  <SCORE.INTRA.VDW>
0.373822

>  <SCORE.INTRA.VDW.0>
-0.507645

>  <SCORE.INTRA.norm>
-0.145474

>  <SCORE.RESTR>
0

>  <SCORE.RESTR.CAVITY>
0

>  <SCORE.RESTR.norm>
0

>  <SCORE.SYSTEM>
0

>  <SCORE.SYSTEM.CONST>
0

>  <SCORE.SYSTEM.DIHEDRAL>
0

>  <SCORE.SYSTEM.SOLV>
0

>  <SCORE.SYSTEM.norm>
0

>  <SCORE.heavy>
10

>  <SCORE.norm>
-1.08752

>  <RMSD>
5.173

$$$$
ligand
 OpenBabel11021811473D
libRbt.so/2013.1/901 2013/11/27
 10  9  0  0  0  0  0  0  0  0999 V2000
   27.8275   15.2994   19.0574 N   0  0  0  0  0  0  0  0  0  0  0  0
   28.2339   14.9470   20.4434 C   0  0  2  0  0  0  0  0  0  0  0  0
   27.0261   14.8807   21.3787 C   0  0  0  0  0  0  0  0  0  0  0  0
   25.8879   14.7629   20.9358 O   0  0  0  0  0  0  0  0  0  0  0  0
   29.3035   15.9221   20.9485 C   0  0  0  0  0  0  0  0  0  0  0  0
   30.1629   15.3371   22.0647 C   0  0  0  0  0  0  0  0  0  0  0  0
   31.1098   16.3588   22.6788 C   0  0  0  0  0  0  0  0  0  0  0  0
   32.0434   16.9466   21.6200 C   0  0  0  0  0  0  0  0  0  0  0  0
   32.9059   15.9216   20.9149 N   0  0  0  0  0  0  0  0  0  0  0  0
   27.1248   14.9000   22.6002 O   0  0  0  0  0  0  0  0  0  0  0  0
  2  1  1  6  0  0  0
  2  3  1  0  0  0  0
  2  5  1  0  0  0  0
  3  4  1  0  0  0  0
  3 10  1  0  0  0  0
  5  6  1  0  0  0  0
  6  7  1  0  0  0  0
  7  8  1  0  0  0  0
  8  9  1  0  0  0  0
M  END
>  <CHROM.1>
18.68573075,-156.46535652,-173.06193372,-58.51860062,-59.28214269,29.12513105
15.52152526,21.28292913,-3.02300166,0.26261036,1.55064153

>  <Name>
ligand

>  <RI>
0

>  <Rbt.Current_Directory>
/home/itssahil/PROJECTS/Mol_Feturizer/New_Systems/rnas/3DIM

>  <Rbt.Executable>
rbdock ($Id: //depot/dev/client3/rdock/2013.1/src/exe/rbdock.cxx#4 $)

>  <Rbt.Library>
libRbt.so (2013.1, Build901 2013/11/27)

>  <Rbt.Parameter_File>
/export/apps/rDock/src/rDock_2013.1_src/data/scripts/dock_solv.prm

>  <Rbt.Receptor>
prm/pocket_docking_8.prm

>  <SCORE>
-9.8526

>  <SCORE.INTER>
-9.45189

>  <SCORE.INTER.CONST>
1

>  <SCORE.INTER.POLAR>
0

>  <SCORE.INTER.ROT>
5

>  <SCORE.INTER.SOLV>
14.4777

>  <SCORE.INTER.VDW>
-18.0605

>  <SCORE.INTER.norm>
-0.945189

>  <SCORE.INTRA>
-0.400948

>  <SCORE.INTRA.DIHEDRAL>
-2.34826

>  <SCORE.INTRA.DIHEDRAL.0>
5.8785

>  <SCORE.INTRA.POLAR>
0

>  <SCORE.INTRA.POLAR.0>
0

>  <SCORE.INTRA.REPUL>
0

>  <SCORE.INTRA.REPUL.0>
0

>  <SCORE.INTRA.SOLV>
-0.208605

>  <SCORE.INTRA.SOLV.lig_0>
-31.9559

>  <SCORE.INTRA.VDW>
0.877484

>  <SCORE.INTRA.VDW.0>
-0.507645

>  <SCORE.INTRA.norm>
-0.0400948

>  <SCORE.RESTR>
0.000243816

>  <SCORE.RESTR.CAVITY>
0.000243816

>  <SCORE.RESTR.norm>
2.43816e-05

>  <SCORE.SYSTEM>
0

>  <SCORE.SYSTEM.CONST>
0

>  <SCORE.SYSTEM.DIHEDRAL>
0

>  <SCORE.SYSTEM.SOLV>
0

>  <SCORE.SYSTEM.norm>
0

>  <SCORE.heavy>
10

>  <SCORE.norm>
-0.98526

>  <RMSD>
5.173

$$$$
ligand
 OpenBabel11021811473D
libRbt.so/2013.1/901 2013/11/27
 10  9  0  0  0  0  0  0  0  0999 V2000
   27.7923   15.2309   19.0458 N   0  0  0  0  0  0  0  0  0  0  0  0
   28.1994   14.9251   20.4426 C   0  0  2  0  0  0  0  0  0  0  0  0
   26.9890   14.8599   21.3745 C   0  0  0  0  0  0  0  0  0  0  0  0
   27.1265   14.8830   22.5936 O   0  0  0  0  0  0  0  0  0  0  0  0
   29.2468   15.9352   20.9249 C   0  0  0  0  0  0  0  0  0  0  0  0
   30.0748   15.4201   22.0978 C   0  0  0  0  0  0  0  0  0  0  0  0
   30.9907   16.4837   22.6870 C   0  0  0  0  0  0  0  0  0  0  0  0
   31.9446   17.0344   21.6262 C   0  0  0  0  0  0  0  0  0  0  0  0
   32.8214   15.9860   20.9753 N   0  0  0  0  0  0  0  0  0  0  0  0
   25.8335   14.8224   20.9676 O   0  0  0  0  0  0  0  0  0  0  0  0
  2  1  1  6  0  0  0
  2  3  1  0  0  0  0
  2  5  1  0  0  0  0
  3  4  1  0  0  0  0
  3 10  1  0  0  0  0
  5  6  1  0  0  0  0
  6  7  1  0  0  0  0
  7  8  1  0  0  0  0
  8  9  1  0  0  0  0
M  END
>  <CHROM.1>
-165.46820167,-158.81315742,-172.77548515,-58.02073965,-58.18889816,29.06487936
15.55283185,21.29255129,-3.00795252,0.27775459,1.52277560

>  <Name>
ligand

>  <RI>
0

>  <Rbt.Current_Directory>
/home/itssahil/PROJECTS/Mol_Feturizer/New_Systems/rnas/3DIM

>  <Rbt.Executable>
rbdock ($Id: //depot/dev/client3/rdock/2013.1/src/exe/rbdock.cxx#4 $)

>  <Rbt.Library>
libRbt.so (2013.1, Build901 2013/11/27)

>  <Rbt.Parameter_File>
/export/apps/rDock/src/rDock_2013.1_src/data/scripts/dock_solv.prm

>  <Rbt.Receptor>
prm/pocket_docking_5.prm

>  <SCORE>
-9.88665

>  <SCORE.INTER>
-9.53929

>  <SCORE.INTER.CONST>
1

>  <SCORE.INTER.POLAR>
0

>  <SCORE.INTER.ROT>
5

>  <SCORE.INTER.SOLV>
14.2001

>  <SCORE.INTER.VDW>
-18.0262

>  <SCORE.INTER.norm>
-0.953929

>  <SCORE.INTRA>
-0.347364

>  <SCORE.INTRA.DIHEDRAL>
-2.52205

>  <SCORE.INTRA.DIHEDRAL.0>
5.8785

>  <SCORE.INTRA.POLAR>
0

>  <SCORE.INTRA.POLAR.0>
0

>  <SCORE.INTRA.REPUL>
0

>  <SCORE.INTRA.REPUL.0>
0

>  <SCORE.INTRA.SOLV>
-0.192911

>  <SCORE.INTRA.SOLV.lig_0>
-31.9559

>  <SCORE.INTRA.VDW>
1.01012

>  <SCORE.INTRA.VDW.0>
-0.507645

>  <SCORE.INTRA.norm>
-0.0347364

>  <SCORE.RESTR>
0

>  <SCORE.RESTR.CAVITY>
0

>  <SCORE.RESTR.norm>
0

>  <SCORE.SYSTEM>
0

>  <SCORE.SYSTEM.CONST>
0

>  <SCORE.SYSTEM.DIHEDRAL>
0

>  <SCORE.SYSTEM.SOLV>
0

>  <SCORE.SYSTEM.norm>
0

>  <SCORE.heavy>
10

>  <SCORE.norm>
-0.988665

>  <RMSD>
5.180

$$$$
ligand
 OpenBabel11021811473D
libRbt.so/2013.1/901 2013/11/27
 10  9  0  0  0  0  0  0  0  0999 V2000
   25.8997   14.6865   21.1218 N   0  0  0  0  0  0  0  0  0  0  0  0
   27.1943   15.4009   20.9665 C   0  0  2  0  0  0  0  0  0  0  0  0
   27.7523   15.2424   19.5518 C   0  0  0  0  0  0  0  0  0  0  0  0
   27.6643   14.1755   18.9523 O   0  0  0  0  0  0  0  0  0  0  0  0
   28.1897   14.9371   22.0361 C   0  0  0  0  0  0  0  0  0  0  0  0
   29.4813   15.7484   22.0391 C   0  0  0  0  0  0  0  0  0  0  0  0
   30.4319   15.3505   20.9186 C   0  0  0  0  0  0  0  0  0  0  0  0
   31.5992   16.3329   20.8153 C   0  0  0  0  0  0  0  0  0  0  0  0
   32.4359   16.4371   22.0726 N   0  0  0  0  0  0  0  0  0  0  0  0
   28.2726   16.1626   18.9316 O   0  0  0  0  0  0  0  0  0  0  0  0
  2  1  1  6  0  0  0
  2  3  1  0  0  0  0
  2  5  1  0  0  0  0
  3  4  1  0  0  0  0
  3 10  1  0  0  0  0
  5  6  1  0  0  0  0
  6  7  1  0  0  0  0
  7  8  1  0  0  0  0
  8  9  1  0  0  0  0
M  END
>  <CHROM.1>
-39.28034129,-173.13314873,-77.71511156,170.62821839,59.57835249,28.89462722
15.44284737,20.70541077,2.86122913,-0.28254794,-1.54115018

>  <Name>
ligand

>  <RI>
0

>  <Rbt.Current_Directory>
/home/itssahil/PROJECTS/Mol_Feturizer/New_Systems/rnas/3DIM

>  <Rbt.Executable>
rbdock ($Id: //depot/dev/client3/rdock/2013.1/src/exe/rbdock.cxx#4 $)

>  <Rbt.Library>
libRbt.so (2013.1, Build901 2013/11/27)

>  <Rbt.Parameter_File>
/export/apps/rDock/src/rDock_2013.1_src/data/scripts/dock_solv.prm

>  <Rbt.Receptor>
prm/pocket_docking_8.prm

>  <SCORE>
-9.60653

>  <SCORE.INTER>
-7.84358

>  <SCORE.INTER.CONST>
1

>  <SCORE.INTER.POLAR>
0

>  <SCORE.INTER.ROT>
5

>  <SCORE.INTER.SOLV>
18.1679

>  <SCORE.INTER.VDW>
-18.2183

>  <SCORE.INTER.norm>
-0.784358

>  <SCORE.INTRA>
-1.76295

>  <SCORE.INTRA.DIHEDRAL>
-2.54915

>  <SCORE.INTRA.DIHEDRAL.0>
5.8785

>  <SCORE.INTRA.POLAR>
0

>  <SCORE.INTRA.POLAR.0>
0

>  <SCORE.INTRA.REPUL>
0

>  <SCORE.INTRA.REPUL.0>
0

>  <SCORE.INTRA.SOLV>
-0.852155

>  <SCORE.INTRA.SOLV.lig_0>
-31.9559

>  <SCORE.INTRA.VDW>
-0.0622968

>  <SCORE.INTRA.VDW.0>
-0.507645

>  <SCORE.INTRA.norm>
-0.176295

>  <SCORE.RESTR>
0

>  <SCORE.RESTR.CAVITY>
0

>  <SCORE.RESTR.norm>
0

>  <SCORE.SYSTEM>
0

>  <SCORE.SYSTEM.CONST>
0

>  <SCORE.SYSTEM.DIHEDRAL>
0

>  <SCORE.SYSTEM.SOLV>
0

>  <SCORE.SYSTEM.norm>
0

>  <SCORE.heavy>
10

>  <SCORE.norm>
-0.960653

>  <RMSD>
5.181

$$$$
ligand
 OpenBabel11021811473D
libRbt.so/2013.1/901 2013/11/27
 10  9  0  0  0  0  0  0  0  0999 V2000
   26.3264   14.6479   20.8478 N   0  0  0  0  0  0  0  0  0  0  0  0
   27.2612   15.4320   19.9983 C   0  0  2  0  0  0  0  0  0  0  0  0
   27.9017   14.5573   18.9201 C   0  0  0  0  0  0  0  0  0  0  0  0
   27.3180   13.5755   18.4719 O   0  0  0  0  0  0  0  0  0  0  0  0
   28.3081   16.1361   20.8690 C   0  0  0  0  0  0  0  0  0  0  0  0
   29.1500   15.1649   21.6903 C   0  0  0  0  0  0  0  0  0  0  0  0
   30.0483   15.8678   22.6985 C   0  0  0  0  0  0  0  0  0  0  0  0
   31.0848   16.7429   21.9925 C   0  0  0  0  0  0  0  0  0  0  0  0
   32.0648   15.9733   21.1329 N   0  0  0  0  0  0  0  0  0  0  0  0
   28.9942   14.8030   18.4219 O   0  0  0  0  0  0  0  0  0  0  0  0
  2  1  1  1  0  0  0
  2  3  1  0  0  0  0
  2  5  1  0  0  0  0
  3  4  1  0  0  0  0
  3 10  1  0  0  0  0
  5  6  1  0  0  0  0
  6  7  1  0  0  0  0
  7  8  1  0  0  0  0
  8  9  1  0  0  0  0
M  END
>  <CHROM.1>
28.55160604,59.98191656,-171.75968517,-63.93453971,-63.81034095,28.85116072
15.26874225,20.47290873,2.42548832,-0.19821286,-1.93221118

>  <Name>
ligand

>  <RI>
0

>  <Rbt.Current_Directory>
/home/itssahil/PROJECTS/Mol_Feturizer/New_Systems/rnas/3DIM

>  <Rbt.Executable>
rbdock ($Id: //depot/dev/client3/rdock/2013.1/src/exe/rbdock.cxx#4 $)

>  <Rbt.Library>
libRbt.so (2013.1, Build901 2013/11/27)

>  <Rbt.Parameter_File>
/export/apps/rDock/src/rDock_2013.1_src/data/scripts/dock_solv.prm

>  <Rbt.Receptor>
prm/pocket_docking_8.prm

>  <SCORE>
-9.28277

>  <SCORE.INTER>
-8.3268

>  <SCORE.INTER.CONST>
1

>  <SCORE.INTER.POLAR>
0

>  <SCORE.INTER.ROT>
5

>  <SCORE.INTER.SOLV>
16.1437

>  <SCORE.INTER.VDW>
-17.8658

>  <SCORE.INTER.norm>
-0.83268

>  <SCORE.INTRA>
-0.955979

>  <SCORE.INTRA.DIHEDRAL>
-4.05438

>  <SCORE.INTRA.DIHEDRAL.0>
5.8785

>  <SCORE.INTRA.POLAR>
0

>  <SCORE.INTRA.POLAR.0>
0

>  <SCORE.INTRA.REPUL>
0

>  <SCORE.INTRA.REPUL.0>
0

>  <SCORE.INTRA.SOLV>
0.540907

>  <SCORE.INTRA.SOLV.lig_0>
-31.9559

>  <SCORE.INTRA.VDW>
0.800757

>  <SCORE.INTRA.VDW.0>
-0.507645

>  <SCORE.INTRA.norm>
-0.0955979

>  <SCORE.RESTR>
0

>  <SCORE.RESTR.CAVITY>
0

>  <SCORE.RESTR.norm>
0

>  <SCORE.SYSTEM>
0

>  <SCORE.SYSTEM.CONST>
0

>  <SCORE.SYSTEM.DIHEDRAL>
0

>  <SCORE.SYSTEM.SOLV>
0

>  <SCORE.SYSTEM.norm>
0

>  <SCORE.heavy>
10

>  <SCORE.norm>
-0.928277

>  <RMSD>
5.191

$$$$
ligand
 OpenBabel11021811473D
libRbt.so/2013.1/901 2013/11/27
 10  9  0  0  0  0  0  0  0  0999 V2000
   28.8178   14.7620   19.4458 N   0  0  0  0  0  0  0  0  0  0  0  0
   28.5650   15.2765   20.8176 C   0  0  2  0  0  0  0  0  0  0  0  0
   27.1170   15.0354   21.2453 C   0  0  0  0  0  0  0  0  0  0  0  0
   26.8343   14.7907   22.4141 O   0  0  0  0  0  0  0  0  0  0  0  0
   28.9573   16.7554   20.9119 C   0  0  0  0  0  0  0  0  0  0  0  0
   30.4670   16.9727   20.9024 C   0  0  0  0  0  0  0  0  0  0  0  0
   31.1566   16.3845   22.1255 C   0  0  0  0  0  0  0  0  0  0  0  0
   32.6334   16.7792   22.1648 C   0  0  0  0  0  0  0  0  0  0  0  0
   33.4207   16.3603   20.9415 N   0  0  0  0  0  0  0  0  0  0  0  0
   26.1699   15.1107   20.4710 O   0  0  0  0  0  0  0  0  0  0  0  0
  2  1  1  6  0  0  0
  2  3  1  0  0  0  0
  2  5  1  0  0  0  0
  3  4  1  0  0  0  0
  3 10  1  0  0  0  0
  5  6  1  0  0  0  0
  6  7  1  0  0  0  0
  7  8  1  0  0  0  0
  8  9  1  0  0  0  0
M  END
>  <CHROM.1>
145.94573076,-72.45335162,-64.97688863,-172.70300646,-57.79728352,29.37088200
15.81358969,21.15349331,-3.01497180,0.26496599,1.39695045

>  <Name>
ligand

>  <RI>
0

>  <Rbt.Current_Directory>
/home/itssahil/PROJECTS/Mol_Feturizer/New_Systems/rnas/3DIM

>  <Rbt.Executable>
rbdock ($Id: //depot/dev/client3/rdock/2013.1/src/exe/rbdock.cxx#4 $)

>  <Rbt.Library>
libRbt.so (2013.1, Build901 2013/11/27)

>  <Rbt.Parameter_File>
/export/apps/rDock/src/rDock_2013.1_src/data/scripts/dock_solv.prm

>  <Rbt.Receptor>
prm/pocket_docking_6.prm

>  <SCORE>
-10.0058

>  <SCORE.INTER>
-8.27212

>  <SCORE.INTER.CONST>
1

>  <SCORE.INTER.POLAR>
0

>  <SCORE.INTER.ROT>
5

>  <SCORE.INTER.SOLV>
12.9023

>  <SCORE.INTER.VDW>
-16.7488

>  <SCORE.INTER.norm>
-0.827212

>  <SCORE.INTRA>
-1.73365

>  <SCORE.INTRA.DIHEDRAL>
-3.49254

>  <SCORE.INTRA.DIHEDRAL.0>
5.8785

>  <SCORE.INTRA.POLAR>
0

>  <SCORE.INTRA.POLAR.0>
0

>  <SCORE.INTRA.REPUL>
0

>  <SCORE.INTRA.REPUL.0>
0

>  <SCORE.INTRA.SOLV>
0.249324

>  <SCORE.INTRA.SOLV.lig_0>
-31.9559

>  <SCORE.INTRA.VDW>
-0.112046

>  <SCORE.INTRA.VDW.0>
-0.507645

>  <SCORE.INTRA.norm>
-0.173365

>  <SCORE.RESTR>
0

>  <SCORE.RESTR.CAVITY>
0

>  <SCORE.RESTR.norm>
0

>  <SCORE.SYSTEM>
0

>  <SCORE.SYSTEM.CONST>
0

>  <SCORE.SYSTEM.DIHEDRAL>
0

>  <SCORE.SYSTEM.SOLV>
0

>  <SCORE.SYSTEM.norm>
0

>  <SCORE.heavy>
10

>  <SCORE.norm>
-1.00058

>  <RMSD>
5.192

$$$$
ligand
 OpenBabel11021811473D
libRbt.so/2013.1/901 2013/11/27
 10  9  0  0  0  0  0  0  0  0999 V2000
   29.0138   14.3503   19.6892 N   0  0  0  0  0  0  0  0  0  0  0  0
   28.1039   14.1755   20.8519 C   0  0  2  0  0  0  0  0  0  0  0  0
   26.8657   15.0642   20.7294 C   0  0  0  0  0  0  0  0  0  0  0  0
   26.8680   16.0577   20.0093 O   0  0  0  0  0  0  0  0  0  0  0  0
   28.8621   14.4176   22.1620 C   0  0  0  0  0  0  0  0  0  0  0  0
   29.6769   15.7069   22.1489 C   0  0  0  0  0  0  0  0  0  0  0  0
   30.8928   15.6285   21.2362 C   0  0  0  0  0  0  0  0  0  0  0  0
   31.6754   16.9421   21.2517 C   0  0  0  0  0  0  0  0  0  0  0  0
   32.3581   17.2426   22.5691 N   0  0  0  0  0  0  0  0  0  0  0  0
   25.8084   14.8196   21.2991 O   0  0  0  0  0  0  0  0  0  0  0  0
  2  1  1  6  0  0  0
  2  3  1  0  0  0  0
  2  5  1  0  0  0  0
  3  4  1  0  0  0  0
  3 10  1  0  0  0  0
  5  6  1  0  0  0  0
  6  7  1  0  0  0  0
  7  8  1  0  0  0  0
  8  9  1  0  0  0  0
M  END
>  <CHROM.1>
-21.21694068,48.81813454,-70.94625378,179.83648213,68.01790134,28.97443183
15.45474414,21.18868623,-2.88206862,0.30331461,1.44078214

>  <Name>
ligand

>  <RI>
0

>  <Rbt.Current_Directory>
/home/itssahil/PROJECTS/Mol_Feturizer/New_Systems/rnas/3DIM

>  <Rbt.Executable>
rbdock ($Id: //depot/dev/client3/rdock/2013.1/src/exe/rbdock.cxx#4 $)

>  <Rbt.Library>
libRbt.so (2013.1, Build901 2013/11/27)

>  <Rbt.Parameter_File>
/export/apps/rDock/src/rDock_2013.1_src/data/scripts/dock_solv.prm

>  <Rbt.Receptor>
prm/pocket_docking_6.prm

>  <SCORE>
-9.15096

>  <SCORE.INTER>
-9.19773

>  <SCORE.INTER.CONST>
1

>  <SCORE.INTER.POLAR>
0

>  <SCORE.INTER.ROT>
5

>  <SCORE.INTER.SOLV>
12.3147

>  <SCORE.INTER.VDW>
-17.1701

>  <SCORE.INTER.norm>
-0.919773

>  <SCORE.INTRA>
0.0467755

>  <SCORE.INTRA.DIHEDRAL>
-3.06329

>  <SCORE.INTRA.DIHEDRAL.0>
5.8785

>  <SCORE.INTRA.POLAR>
0

>  <SCORE.INTRA.POLAR.0>
0

>  <SCORE.INTRA.REPUL>
0

>  <SCORE.INTRA.REPUL.0>
0

>  <SCORE.INTRA.SOLV>
1.64912

>  <SCORE.INTRA.SOLV.lig_0>
-31.9559

>  <SCORE.INTRA.VDW>
0.75386

>  <SCORE.INTRA.VDW.0>
-0.507645

>  <SCORE.INTRA.norm>
0.00467755

>  <SCORE.RESTR>
0

>  <SCORE.RESTR.CAVITY>
0

>  <SCORE.RESTR.norm>
0

>  <SCORE.SYSTEM>
0

>  <SCORE.SYSTEM.CONST>
0

>  <SCORE.SYSTEM.DIHEDRAL>
0

>  <SCORE.SYSTEM.SOLV>
0

>  <SCORE.SYSTEM.norm>
0

>  <SCORE.heavy>
10

>  <SCORE.norm>
-0.915096

>  <RMSD>
5.194

$$$$
ligand
 OpenBabel11021811473D
libRbt.so/2013.1/901 2013/11/27
 10  9  0  0  0  0  0  0  0  0999 V2000
   25.8629   14.7019   21.1008 N   0  0  0  0  0  0  0  0  0  0  0  0
   27.1607   15.3980   20.8968 C   0  0  2  0  0  0  0  0  0  0  0  0
   27.7152   15.1440   19.4947 C   0  0  0  0  0  0  0  0  0  0  0  0
   28.2384   16.0459   18.8477 O   0  0  0  0  0  0  0  0  0  0  0  0
   28.1559   15.0006   21.9930 C   0  0  0  0  0  0  0  0  0  0  0  0
   29.4267   15.8439   21.9776 C   0  0  0  0  0  0  0  0  0  0  0  0
   30.4128   15.4075   20.9031 C   0  0  0  0  0  0  0  0  0  0  0  0
   31.5799   16.3899   20.7986 C   0  0  0  0  0  0  0  0  0  0  0  0
   32.3877   16.5320   22.0710 N   0  0  0  0  0  0  0  0  0  0  0  0
   27.7065   14.0401   18.9624 O   0  0  0  0  0  0  0  0  0  0  0  0
  2  1  1  1  0  0  0
  2  3  1  0  0  0  0
  2  5  1  0  0  0  0
  3  4  1  0  0  0  0
  3 10  1  0  0  0  0
  5  6  1  0  0  0  0
  6  7  1  0  0  0  0
  7  8  1  0  0  0  0
  8  9  1  0  0  0  0
M  END
>  <CHROM.1>
138.84057534,-170.68549663,-79.03554659,172.35981693,60.32731485,28.86823880
15.44370583,20.66992004,2.83566306,-0.28867305,-1.61374643

>  <Name>
ligand

>  <RI>
0

>  <Rbt.Current_Directory>
/home/itssahil/PROJECTS/Mol_Feturizer/New_Systems/rnas/3DIM

>  <Rbt.Executable>
rbdock ($Id: //depot/dev/client3/rdock/2013.1/src/exe/rbdock.cxx#4 $)

>  <Rbt.Library>
libRbt.so (2013.1, Build901 2013/11/27)

>  <Rbt.Parameter_File>
/export/apps/rDock/src/rDock_2013.1_src/data/scripts/dock_solv.prm

>  <Rbt.Receptor>
prm/pocket_docking_7.prm

>  <SCORE>
-9.66978

>  <SCORE.INTER>
-7.7456

>  <SCORE.INTER.CONST>
1

>  <SCORE.INTER.POLAR>
0

>  <SCORE.INTER.ROT>
5

>  <SCORE.INTER.SOLV>
17.9111

>  <SCORE.INTER.VDW>
-18.0674

>  <SCORE.INTER.norm>
-0.77456

>  <SCORE.INTRA>
-1.92418

>  <SCORE.INTRA.DIHEDRAL>
-2.48277

>  <SCORE.INTRA.DIHEDRAL.0>
5.8785

>  <SCORE.INTRA.POLAR>
0

>  <SCORE.INTRA.POLAR.0>
0

>  <SCORE.INTRA.REPUL>
0

>  <SCORE.INTRA.REPUL.0>
0

>  <SCORE.INTRA.SOLV>
-0.900221

>  <SCORE.INTRA.SOLV.lig_0>
-31.9559

>  <SCORE.INTRA.VDW>
-0.232687

>  <SCORE.INTRA.VDW.0>
-0.507645

>  <SCORE.INTRA.norm>
-0.192418

>  <SCORE.RESTR>
0

>  <SCORE.RESTR.CAVITY>
0

>  <SCORE.RESTR.norm>
0

>  <SCORE.SYSTEM>
0

>  <SCORE.SYSTEM.CONST>
0

>  <SCORE.SYSTEM.DIHEDRAL>
0

>  <SCORE.SYSTEM.SOLV>
0

>  <SCORE.SYSTEM.norm>
0

>  <SCORE.heavy>
10

>  <SCORE.norm>
-0.966978

>  <RMSD>
5.211

$$$$
ligand
 OpenBabel11021811473D
libRbt.so/2013.1/901 2013/11/27
 10  9  0  0  0  0  0  0  0  0999 V2000
   26.1717   14.7547   20.8530 N   0  0  0  0  0  0  0  0  0  0  0  0
   27.1805   15.5611   20.1164 C   0  0  2  0  0  0  0  0  0  0  0  0
   27.6889   14.8220   18.8782 C   0  0  0  0  0  0  0  0  0  0  0  0
   27.4219   13.6387   18.6929 O   0  0  0  0  0  0  0  0  0  0  0  0
   28.3217   15.9711   21.0542 C   0  0  0  0  0  0  0  0  0  0  0  0
   29.0423   14.7773   21.6724 C   0  0  0  0  0  0  0  0  0  0  0  0
   30.0995   15.1864   22.6885 C   0  0  0  0  0  0  0  0  0  0  0  0
   31.2958   15.8447   22.0001 C   0  0  0  0  0  0  0  0  0  0  0  0
   30.9965   17.2011   21.3982 N   0  0  0  0  0  0  0  0  0  0  0  0
   28.3443   15.3663   17.9971 O   0  0  0  0  0  0  0  0  0  0  0  0
  2  1  1  1  0  0  0
  2  3  1  0  0  0  0
  2  5  1  0  0  0  0
  3  4  1  0  0  0  0
  3 10  1  0  0  0  0
  5  6  1  0  0  0  0
  6  7  1  0  0  0  0
  7  8  1  0  0  0  0
  8  9  1  0  0  0  0
M  END
>  <CHROM.1>
-10.59790397,59.34714948,-175.34055342,-70.37318616,68.72798236,28.65908110
15.29473145,20.50036229,2.47559806,-0.41972726,-1.54011366

>  <Name>
ligand

>  <RI>
0

>  <Rbt.Current_Directory>
/home/itssahil/PROJECTS/Mol_Feturizer/New_Systems/rnas/3DIM

>  <Rbt.Executable>
rbdock ($Id: //depot/dev/client3/rdock/2013.1/src/exe/rbdock.cxx#4 $)

>  <Rbt.Library>
libRbt.so (2013.1, Build901 2013/11/27)

>  <Rbt.Parameter_File>
/export/apps/rDock/src/rDock_2013.1_src/data/scripts/dock_solv.prm

>  <Rbt.Receptor>
prm/pocket_docking_3.prm

>  <SCORE>
-9.54351

>  <SCORE.INTER>
-8.87443

>  <SCORE.INTER.CONST>
1

>  <SCORE.INTER.POLAR>
0

>  <SCORE.INTER.ROT>
5

>  <SCORE.INTER.SOLV>
16.606

>  <SCORE.INTER.VDW>
-18.385

>  <SCORE.INTER.norm>
-0.887443

>  <SCORE.INTRA>
-0.669076

>  <SCORE.INTRA.DIHEDRAL>
-3.50527

>  <SCORE.INTRA.DIHEDRAL.0>
5.8785

>  <SCORE.INTRA.POLAR>
0

>  <SCORE.INTRA.POLAR.0>
0

>  <SCORE.INTRA.REPUL>
0

>  <SCORE.INTRA.REPUL.0>
0

>  <SCORE.INTRA.SOLV>
1.32864

>  <SCORE.INTRA.SOLV.lig_0>
-31.9559

>  <SCORE.INTRA.VDW>
0.419239

>  <SCORE.INTRA.VDW.0>
-0.507645

>  <SCORE.INTRA.norm>
-0.0669076

>  <SCORE.RESTR>
0

>  <SCORE.RESTR.CAVITY>
0

>  <SCORE.RESTR.norm>
0

>  <SCORE.SYSTEM>
0

>  <SCORE.SYSTEM.CONST>
0

>  <SCORE.SYSTEM.DIHEDRAL>
0

>  <SCORE.SYSTEM.SOLV>
0

>  <SCORE.SYSTEM.norm>
0

>  <SCORE.heavy>
10

>  <SCORE.norm>
-0.954351

>  <RMSD>
5.212

$$$$
ligand
 OpenBabel11021811473D
libRbt.so/2013.1/901 2013/11/27
 10  9  0  0  0  0  0  0  0  0999 V2000
   25.8611   14.8397   20.9552 N   0  0  0  0  0  0  0  0  0  0  0  0
   27.2090   15.4318   20.7483 C   0  0  2  0  0  0  0  0  0  0  0  0
   27.7785   15.0570   19.3796 C   0  0  0  0  0  0  0  0  0  0  0  0
   28.3237   15.8960   18.6693 O   0  0  0  0  0  0  0  0  0  0  0  0
   28.1468   15.0335   21.8936 C   0  0  0  0  0  0  0  0  0  0  0  0
   29.4451   15.8341   21.9058 C   0  0  0  0  0  0  0  0  0  0  0  0
   30.4395   15.3638   20.8534 C   0  0  0  0  0  0  0  0  0  0  0  0
   31.6364   16.3116   20.7679 C   0  0  0  0  0  0  0  0  0  0  0  0
   32.4227   16.4362   22.0555 N   0  0  0  0  0  0  0  0  0  0  0  0
   27.7606   13.9137   18.9386 O   0  0  0  0  0  0  0  0  0  0  0  0
  2  1  1  1  0  0  0
  2  3  1  0  0  0  0
  2  5  1  0  0  0  0
  3  4  1  0  0  0  0
  3 10  1  0  0  0  0
  5  6  1  0  0  0  0
  6  7  1  0  0  0  0
  7  8  1  0  0  0  0
  8  9  1  0  0  0  0
M  END
>  <CHROM.1>
135.36509995,-167.86296285,-77.18590927,172.00121125,60.35598096,28.90638370
15.40241965,20.58252316,2.79733776,-0.25224726,-1.67866306

>  <Name>
ligand

>  <RI>
0

>  <Rbt.Current_Directory>
/home/itssahil/PROJECTS/Mol_Feturizer/New_Systems/rnas/3DIM

>  <Rbt.Executable>
rbdock ($Id: //depot/dev/client3/rdock/2013.1/src/exe/rbdock.cxx#4 $)

>  <Rbt.Library>
libRbt.so (2013.1, Build901 2013/11/27)

>  <Rbt.Parameter_File>
/export/apps/rDock/src/rDock_2013.1_src/data/scripts/dock_solv.prm

>  <Rbt.Receptor>
prm/pocket_docking_7.prm

>  <SCORE>
-9.66193

>  <SCORE.INTER>
-7.7033

>  <SCORE.INTER.CONST>
1

>  <SCORE.INTER.POLAR>
0

>  <SCORE.INTER.ROT>
5

>  <SCORE.INTER.SOLV>
17.8992

>  <SCORE.INTER.VDW>
-18.0353

>  <SCORE.INTER.norm>
-0.77033

>  <SCORE.INTRA>
-1.95863

>  <SCORE.INTRA.DIHEDRAL>
-2.46958

>  <SCORE.INTRA.DIHEDRAL.0>
5.8785

>  <SCORE.INTRA.POLAR>
0

>  <SCORE.INTRA.POLAR.0>
0

>  <SCORE.INTRA.REPUL>
0

>  <SCORE.INTRA.REPUL.0>
0

>  <SCORE.INTRA.SOLV>
-0.899832

>  <SCORE.INTRA.SOLV.lig_0>
-31.9559

>  <SCORE.INTRA.VDW>
-0.27392

>  <SCORE.INTRA.VDW.0>
-0.507645

>  <SCORE.INTRA.norm>
-0.195863

>  <SCORE.RESTR>
0

>  <SCORE.RESTR.CAVITY>
0

>  <SCORE.RESTR.norm>
0

>  <SCORE.SYSTEM>
0

>  <SCORE.SYSTEM.CONST>
0

>  <SCORE.SYSTEM.DIHEDRAL>
0

>  <SCORE.SYSTEM.SOLV>
0

>  <SCORE.SYSTEM.norm>
0

>  <SCORE.heavy>
10

>  <SCORE.norm>
-0.966193

>  <RMSD>
5.212

$$$$
ligand
 OpenBabel11021811473D
libRbt.so/2013.1/901 2013/11/27
 10  9  0  0  0  0  0  0  0  0999 V2000
   25.8379   14.6877   21.1101 N   0  0  0  0  0  0  0  0  0  0  0  0
   27.1430   15.3754   20.9256 C   0  0  2  0  0  0  0  0  0  0  0  0
   27.6958   15.1537   19.5173 C   0  0  0  0  0  0  0  0  0  0  0  0
   27.6096   14.0598   18.9682 O   0  0  0  0  0  0  0  0  0  0  0  0
   28.1331   14.9380   22.0110 C   0  0  0  0  0  0  0  0  0  0  0  0
   29.4150   15.7647   22.0156 C   0  0  0  0  0  0  0  0  0  0  0  0
   30.3720   15.3775   20.8969 C   0  0  0  0  0  0  0  0  0  0  0  0
   31.5301   16.3712   20.7980 C   0  0  0  0  0  0  0  0  0  0  0  0
   32.3602   16.4847   22.0589 N   0  0  0  0  0  0  0  0  0  0  0  0
   28.2100   16.0461   18.8530 O   0  0  0  0  0  0  0  0  0  0  0  0
  2  1  1  6  0  0  0
  2  3  1  0  0  0  0
  2  5  1  0  0  0  0
  3  4  1  0  0  0  0
  3 10  1  0  0  0  0
  5  6  1  0  0  0  0
  6  7  1  0  0  0  0
  7  8  1  0  0  0  0
  8  9  1  0  0  0  0
M  END
>  <CHROM.1>
-40.47646233,-170.90318585,-76.83374234,170.81354532,59.39616893,28.83311959
15.41964838,20.68035999,-2.84642036,0.29211250,1.56022504

>  <Name>
ligand

>  <RI>
0

>  <Rbt.Current_Directory>
/home/itssahil/PROJECTS/Mol_Feturizer/New_Systems/rnas/3DIM

>  <Rbt.Executable>
rbdock ($Id: //depot/dev/client3/rdock/2013.1/src/exe/rbdock.cxx#4 $)

>  <Rbt.Library>
libRbt.so (2013.1, Build901 2013/11/27)

>  <Rbt.Parameter_File>
/export/apps/rDock/src/rDock_2013.1_src/data/scripts/dock_solv.prm

>  <Rbt.Receptor>
prm/blind_docking_60.prm

>  <SCORE>
-9.60128

>  <SCORE.INTER>
-7.79768

>  <SCORE.INTER.CONST>
1

>  <SCORE.INTER.POLAR>
0

>  <SCORE.INTER.ROT>
5

>  <SCORE.INTER.SOLV>
18.0294

>  <SCORE.INTER.VDW>
-18.1416

>  <SCORE.INTER.norm>
-0.779768

>  <SCORE.INTRA>
-1.8036

>  <SCORE.INTRA.DIHEDRAL>
-2.54492

>  <SCORE.INTRA.DIHEDRAL.0>
5.8785

>  <SCORE.INTRA.POLAR>
0

>  <SCORE.INTRA.POLAR.0>
0

>  <SCORE.INTRA.REPUL>
0

>  <SCORE.INTRA.REPUL.0>
0

>  <SCORE.INTRA.SOLV>
-0.851623

>  <SCORE.INTRA.SOLV.lig_0>
-31.9559

>  <SCORE.INTRA.VDW>
-0.105326

>  <SCORE.INTRA.VDW.0>
-0.507645

>  <SCORE.INTRA.norm>
-0.18036

>  <SCORE.RESTR>
0

>  <SCORE.RESTR.CAVITY>
0

>  <SCORE.RESTR.norm>
0

>  <SCORE.SYSTEM>
0

>  <SCORE.SYSTEM.CONST>
0

>  <SCORE.SYSTEM.DIHEDRAL>
0

>  <SCORE.SYSTEM.SOLV>
0

>  <SCORE.SYSTEM.norm>
0

>  <SCORE.heavy>
10

>  <SCORE.norm>
-0.960128

>  <RMSD>
5.219

$$$$
ligand
 OpenBabel11021811473D
libRbt.so/2013.1/901 2013/11/27
 10  9  0  0  0  0  0  0  0  0999 V2000
   26.0037   15.3802   20.1979 N   0  0  0  0  0  0  0  0  0  0  0  0
   27.4700   15.2768   20.4206 C   0  0  2  0  0  0  0  0  0  0  0  0
   28.1420   14.4422   19.3299 C   0  0  0  0  0  0  0  0  0  0  0  0
   27.4958   13.6528   18.6480 O   0  0  0  0  0  0  0  0  0  0  0  0
   27.7580   14.7330   21.8246 C   0  0  0  0  0  0  0  0  0  0  0  0
   29.2438   14.7322   22.1696 C   0  0  0  0  0  0  0  0  0  0  0  0
   29.8474   16.1297   22.1866 C   0  0  0  0  0  0  0  0  0  0  0  0
   31.3519   16.0737   22.4542 C   0  0  0  0  0  0  0  0  0  0  0  0
   32.0363   17.4239   22.4364 N   0  0  0  0  0  0  0  0  0  0  0  0
   29.3316   14.5397   19.0512 O   0  0  0  0  0  0  0  0  0  0  0  0
  2  1  1  6  0  0  0
  2  3  1  0  0  0  0
  2  5  1  0  0  0  0
  3  4  1  0  0  0  0
  3 10  1  0  0  0  0
  5  6  1  0  0  0  0
  6  7  1  0  0  0  0
  7  8  1  0  0  0  0
  8  9  1  0  0  0  0
M  END
>  <CHROM.1>
-20.70488780,-174.28279312,62.45046276,-176.62818612,177.88037590,28.87563918
15.21725918,20.84048279,2.40959245,-0.16843195,-2.00025431

>  <Name>
ligand

>  <RI>
0

>  <Rbt.Current_Directory>
/home/itssahil/PROJECTS/Mol_Feturizer/New_Systems/rnas/3DIM

>  <Rbt.Executable>
rbdock ($Id: //depot/dev/client3/rdock/2013.1/src/exe/rbdock.cxx#4 $)

>  <Rbt.Library>
libRbt.so (2013.1, Build901 2013/11/27)

>  <Rbt.Parameter_File>
/export/apps/rDock/src/rDock_2013.1_src/data/scripts/dock_solv.prm

>  <Rbt.Receptor>
prm/pocket_docking_4.prm

>  <SCORE>
-10.9801

>  <SCORE.INTER>
-8.05861

>  <SCORE.INTER.CONST>
1

>  <SCORE.INTER.POLAR>
0

>  <SCORE.INTER.ROT>
5

>  <SCORE.INTER.SOLV>
17.1962

>  <SCORE.INTER.VDW>
-18.0378

>  <SCORE.INTER.norm>
-0.805861

>  <SCORE.INTRA>
-2.92147

>  <SCORE.INTRA.DIHEDRAL>
-4.09194

>  <SCORE.INTRA.DIHEDRAL.0>
5.8785

>  <SCORE.INTRA.POLAR>
0

>  <SCORE.INTRA.POLAR.0>
0

>  <SCORE.INTRA.REPUL>
0

>  <SCORE.INTRA.REPUL.0>
0

>  <SCORE.INTRA.SOLV>
-1.58572

>  <SCORE.INTRA.SOLV.lig_0>
-31.9559

>  <SCORE.INTRA.VDW>
-0.082642

>  <SCORE.INTRA.VDW.0>
-0.507645

>  <SCORE.INTRA.norm>
-0.292147

>  <SCORE.RESTR>
0

>  <SCORE.RESTR.CAVITY>
0

>  <SCORE.RESTR.norm>
0

>  <SCORE.SYSTEM>
0

>  <SCORE.SYSTEM.CONST>
0

>  <SCORE.SYSTEM.DIHEDRAL>
0

>  <SCORE.SYSTEM.SOLV>
0

>  <SCORE.SYSTEM.norm>
0

>  <SCORE.heavy>
10

>  <SCORE.norm>
-1.09801

>  <RMSD>
5.230

$$$$
ligand
 OpenBabel11021811473D
libRbt.so/2013.1/901 2013/11/27
 10  9  0  0  0  0  0  0  0  0999 V2000
   26.1508   14.6941   20.8580 N   0  0  0  0  0  0  0  0  0  0  0  0
   27.1192   15.5289   20.0993 C   0  0  2  0  0  0  0  0  0  0  0  0
   27.6313   14.7989   18.8572 C   0  0  0  0  0  0  0  0  0  0  0  0
   28.2889   15.3860   18.0037 O   0  0  0  0  0  0  0  0  0  0  0  0
   28.2614   15.9837   21.0148 C   0  0  0  0  0  0  0  0  0  0  0  0
   29.0808   14.8215   21.5666 C   0  0  0  0  0  0  0  0  0  0  0  0
   30.1145   15.2622   22.5937 C   0  0  0  0  0  0  0  0  0  0  0  0
   31.1424   16.2050   21.9670 C   0  0  0  0  0  0  0  0  0  0  0  0
   31.9209   15.5998   20.8185 N   0  0  0  0  0  0  0  0  0  0  0  0
   27.4538   13.6015   18.6650 O   0  0  0  0  0  0  0  0  0  0  0  0
  2  1  1  1  0  0  0
  2  3  1  0  0  0  0
  2  5  1  0  0  0  0
  3  4  1  0  0  0  0
  3 10  1  0  0  0  0
  5  6  1  0  0  0  0
  6  7  1  0  0  0  0
  7  8  1  0  0  0  0
  8  9  1  0  0  0  0
M  END
>  <CHROM.1>
169.63416189,62.54786189,-173.64858289,-62.58514230,-60.02303438,28.71960638
15.17189550,20.41042274,2.51197337,-0.18163781,-1.70464242

>  <Name>
ligand

>  <RI>
0

>  <Rbt.Current_Directory>
/home/itssahil/PROJECTS/Mol_Feturizer/New_Systems/rnas/3DIM

>  <Rbt.Executable>
rbdock ($Id: //depot/dev/client3/rdock/2013.1/src/exe/rbdock.cxx#4 $)

>  <Rbt.Library>
libRbt.so (2013.1, Build901 2013/11/27)

>  <Rbt.Parameter_File>
/export/apps/rDock/src/rDock_2013.1_src/data/scripts/dock_solv.prm

>  <Rbt.Receptor>
prm/pocket_docking_6.prm

>  <SCORE>
-9.77803

>  <SCORE.INTER>
-8.53268

>  <SCORE.INTER.CONST>
1

>  <SCORE.INTER.POLAR>
0

>  <SCORE.INTER.ROT>
5

>  <SCORE.INTER.SOLV>
17.9991

>  <SCORE.INTER.VDW>
-18.6215

>  <SCORE.INTER.norm>
-0.853268

>  <SCORE.INTRA>
-1.24535

>  <SCORE.INTRA.DIHEDRAL>
-4.20682

>  <SCORE.INTRA.DIHEDRAL.0>
5.8785

>  <SCORE.INTRA.POLAR>
0

>  <SCORE.INTRA.POLAR.0>
0

>  <SCORE.INTRA.REPUL>
0

>  <SCORE.INTRA.REPUL.0>
0

>  <SCORE.INTRA.SOLV>
0.589286

>  <SCORE.INTRA.SOLV.lig_0>
-31.9559

>  <SCORE.INTRA.VDW>
0.563414

>  <SCORE.INTRA.VDW.0>
-0.507645

>  <SCORE.INTRA.norm>
-0.124535

>  <SCORE.RESTR>
0

>  <SCORE.RESTR.CAVITY>
0

>  <SCORE.RESTR.norm>
0

>  <SCORE.SYSTEM>
0

>  <SCORE.SYSTEM.CONST>
0

>  <SCORE.SYSTEM.DIHEDRAL>
0

>  <SCORE.SYSTEM.SOLV>
0

>  <SCORE.SYSTEM.norm>
0

>  <SCORE.heavy>
10

>  <SCORE.norm>
-0.977803

>  <RMSD>
5.230

$$$$
ligand
 OpenBabel11021811473D
libRbt.so/2013.1/901 2013/11/27
 10  9  0  0  0  0  0  0  0  0999 V2000
   25.8194   14.6652   21.1776 N   0  0  0  0  0  0  0  0  0  0  0  0
   27.1120   15.3605   20.9408 C   0  0  2  0  0  0  0  0  0  0  0  0
   27.6637   15.0526   19.5484 C   0  0  0  0  0  0  0  0  0  0  0  0
   28.1972   15.9259   18.8713 O   0  0  0  0  0  0  0  0  0  0  0  0
   28.1131   15.0146   22.0489 C   0  0  0  0  0  0  0  0  0  0  0  0
   29.3805   15.8613   21.9917 C   0  0  0  0  0  0  0  0  0  0  0  0
   30.3701   15.3740   20.9426 C   0  0  0  0  0  0  0  0  0  0  0  0
   31.5347   16.3533   20.7909 C   0  0  0  0  0  0  0  0  0  0  0  0
   32.3382   16.5633   22.0566 N   0  0  0  0  0  0  0  0  0  0  0  0
   27.6426   13.9313   19.0540 O   0  0  0  0  0  0  0  0  0  0  0  0
  2  1  1  1  0  0  0
  2  3  1  0  0  0  0
  2  5  1  0  0  0  0
  3  4  1  0  0  0  0
  3 10  1  0  0  0  0
  5  6  1  0  0  0  0
  6  7  1  0  0  0  0
  7  8  1  0  0  0  0
  8  9  1  0  0  0  0
M  END
>  <CHROM.1>
139.94879436,-170.88407506,-79.61224559,172.46337981,60.24375797,28.82063979
15.40214046,20.70790915,2.83753328,-0.29172365,-1.65542231

>  <Name>
ligand

>  <RI>
0

>  <Rbt.Current_Directory>
/home/itssahil/PROJECTS/Mol_Feturizer/New_Systems/rnas/3DIM

>  <Rbt.Executable>
rbdock ($Id: //depot/dev/client3/rdock/2013.1/src/exe/rbdock.cxx#4 $)

>  <Rbt.Library>
libRbt.so (2013.1, Build901 2013/11/27)

>  <Rbt.Parameter_File>
/export/apps/rDock/src/rDock_2013.1_src/data/scripts/dock_solv.prm

>  <Rbt.Receptor>
prm/pocket_docking_3.prm

>  <SCORE>
-9.68238

>  <SCORE.INTER>
-7.78069

>  <SCORE.INTER.CONST>
1

>  <SCORE.INTER.POLAR>
0

>  <SCORE.INTER.ROT>
5

>  <SCORE.INTER.SOLV>
17.9892

>  <SCORE.INTER.VDW>
-18.1168

>  <SCORE.INTER.norm>
-0.778069

>  <SCORE.INTRA>
-1.90169

>  <SCORE.INTRA.DIHEDRAL>
-2.4274

>  <SCORE.INTRA.DIHEDRAL.0>
5.8785

>  <SCORE.INTRA.POLAR>
0

>  <SCORE.INTRA.POLAR.0>
0

>  <SCORE.INTRA.REPUL>
0

>  <SCORE.INTRA.REPUL.0>
0

>  <SCORE.INTRA.SOLV>
-0.900843

>  <SCORE.INTRA.SOLV.lig_0>
-31.9559

>  <SCORE.INTRA.VDW>
-0.237567

>  <SCORE.INTRA.VDW.0>
-0.507645

>  <SCORE.INTRA.norm>
-0.190169

>  <SCORE.RESTR>
0

>  <SCORE.RESTR.CAVITY>
0

>  <SCORE.RESTR.norm>
0

>  <SCORE.SYSTEM>
0

>  <SCORE.SYSTEM.CONST>
0

>  <SCORE.SYSTEM.DIHEDRAL>
0

>  <SCORE.SYSTEM.SOLV>
0

>  <SCORE.SYSTEM.norm>
0

>  <SCORE.heavy>
10

>  <SCORE.norm>
-0.968238

>  <RMSD>
5.233

$$$$
ligand
 OpenBabel11021811473D
libRbt.so/2013.1/901 2013/11/27
 10  9  0  0  0  0  0  0  0  0999 V2000
   26.1517   14.7792   20.8556 N   0  0  0  0  0  0  0  0  0  0  0  0
   27.1511   15.5184   20.0401 C   0  0  2  0  0  0  0  0  0  0  0  0
   27.5983   14.6991   18.8291 C   0  0  0  0  0  0  0  0  0  0  0  0
   28.2979   15.1959   17.9518 O   0  0  0  0  0  0  0  0  0  0  0  0
   28.3340   15.9526   20.9132 C   0  0  0  0  0  0  0  0  0  0  0  0
   29.0347   14.7802   21.5922 C   0  0  0  0  0  0  0  0  0  0  0  0
   30.2574   15.2058   22.3930 C   0  0  0  0  0  0  0  0  0  0  0  0
   31.4087   15.6009   21.4673 C   0  0  0  0  0  0  0  0  0  0  0  0
   31.1684   16.8759   20.6873 N   0  0  0  0  0  0  0  0  0  0  0  0
   27.3243   13.5131   18.6864 O   0  0  0  0  0  0  0  0  0  0  0  0
  2  1  1  1  0  0  0
  2  3  1  0  0  0  0
  2  5  1  0  0  0  0
  3  4  1  0  0  0  0
  3 10  1  0  0  0  0
  5  6  1  0  0  0  0
  6  7  1  0  0  0  0
  7  8  1  0  0  0  0
  8  9  1  0  0  0  0
M  END
>  <CHROM.1>
171.34674218,58.35490526,176.65350656,-72.31296337,68.64284275,28.67479166
15.19308523,20.30869874,2.56682600,-0.32847703,-1.60714144

>  <Name>
ligand

>  <RI>
0

>  <Rbt.Current_Directory>
/home/itssahil/PROJECTS/Mol_Feturizer/New_Systems/rnas/3DIM

>  <Rbt.Executable>
rbdock ($Id: //depot/dev/client3/rdock/2013.1/src/exe/rbdock.cxx#4 $)

>  <Rbt.Library>
libRbt.so (2013.1, Build901 2013/11/27)

>  <Rbt.Parameter_File>
/export/apps/rDock/src/rDock_2013.1_src/data/scripts/dock_solv.prm

>  <Rbt.Receptor>
prm/pocket_docking_6.prm

>  <SCORE>
-9.74073

>  <SCORE.INTER>
-8.93862

>  <SCORE.INTER.CONST>
1

>  <SCORE.INTER.POLAR>
0

>  <SCORE.INTER.ROT>
5

>  <SCORE.INTER.SOLV>
16.6448

>  <SCORE.INTER.VDW>
-18.4407

>  <SCORE.INTER.norm>
-0.893862

>  <SCORE.INTRA>
-0.802111

>  <SCORE.INTRA.DIHEDRAL>
-3.46253

>  <SCORE.INTRA.DIHEDRAL.0>
5.8785

>  <SCORE.INTRA.POLAR>
0

>  <SCORE.INTRA.POLAR.0>
0

>  <SCORE.INTRA.REPUL>
0

>  <SCORE.INTRA.REPUL.0>
0

>  <SCORE.INTRA.SOLV>
1.30724

>  <SCORE.INTRA.SOLV.lig_0>
-31.9559

>  <SCORE.INTRA.VDW>
0.275535

>  <SCORE.INTRA.VDW.0>
-0.507645

>  <SCORE.INTRA.norm>
-0.0802111

>  <SCORE.RESTR>
0

>  <SCORE.RESTR.CAVITY>
0

>  <SCORE.RESTR.norm>
0

>  <SCORE.SYSTEM>
0

>  <SCORE.SYSTEM.CONST>
0

>  <SCORE.SYSTEM.DIHEDRAL>
0

>  <SCORE.SYSTEM.SOLV>
0

>  <SCORE.SYSTEM.norm>
0

>  <SCORE.heavy>
10

>  <SCORE.norm>
-0.974073

>  <RMSD>
5.233

$$$$
ligand
 OpenBabel11021811473D
libRbt.so/2013.1/901 2013/11/27
 10  9  0  0  0  0  0  0  0  0999 V2000
   28.2411   15.6207   19.2333 N   0  0  0  0  0  0  0  0  0  0  0  0
   28.4602   15.3370   20.6762 C   0  0  2  0  0  0  0  0  0  0  0  0
   27.1480   14.9957   21.3829 C   0  0  0  0  0  0  0  0  0  0  0  0
   26.1137   14.8187   20.7469 O   0  0  0  0  0  0  0  0  0  0  0  0
   29.1889   16.5087   21.3441 C   0  0  0  0  0  0  0  0  0  0  0  0
   30.5484   16.7997   20.7168 C   0  0  0  0  0  0  0  0  0  0  0  0
   31.5323   15.6492   20.8781 C   0  0  0  0  0  0  0  0  0  0  0  0
   32.9079   16.0228   20.3247 C   0  0  0  0  0  0  0  0  0  0  0  0
   33.6041   17.1300   21.0870 N   0  0  0  0  0  0  0  0  0  0  0  0
   27.0623   14.8423   22.5959 O   0  0  0  0  0  0  0  0  0  0  0  0
  2  1  1  6  0  0  0
  2  3  1  0  0  0  0
  2  5  1  0  0  0  0
  3  4  1  0  0  0  0
  3 10  1  0  0  0  0
  5  6  1  0  0  0  0
  6  7  1  0  0  0  0
  7  8  1  0  0  0  0
  8  9  1  0  0  0  0
M  END
>  <CHROM.1>
8.91566072,-59.38994736,-63.71185460,-175.93269252,65.79028475,29.44001614
15.76018031,20.91506428,3.05162625,0.25364773,1.61926422

>  <Name>
ligand

>  <RI>
0

>  <Rbt.Current_Directory>
/home/itssahil/PROJECTS/Mol_Feturizer/New_Systems/rnas/3DIM

>  <Rbt.Executable>
rbdock ($Id: //depot/dev/client3/rdock/2013.1/src/exe/rbdock.cxx#4 $)

>  <Rbt.Library>
libRbt.so (2013.1, Build901 2013/11/27)

>  <Rbt.Parameter_File>
/export/apps/rDock/src/rDock_2013.1_src/data/scripts/dock_solv.prm

>  <Rbt.Receptor>
prm/pocket_docking_4.prm

>  <SCORE>
-10.8358

>  <SCORE.INTER>
-9.2392

>  <SCORE.INTER.CONST>
1

>  <SCORE.INTER.POLAR>
0

>  <SCORE.INTER.ROT>
5

>  <SCORE.INTER.SOLV>
13.4065

>  <SCORE.INTER.VDW>
-17.5616

>  <SCORE.INTER.norm>
-0.92392

>  <SCORE.INTRA>
-1.5966

>  <SCORE.INTRA.DIHEDRAL>
-4.15015

>  <SCORE.INTRA.DIHEDRAL.0>
5.8785

>  <SCORE.INTRA.POLAR>
0

>  <SCORE.INTRA.POLAR.0>
0

>  <SCORE.INTRA.REPUL>
0

>  <SCORE.INTRA.REPUL.0>
0

>  <SCORE.INTRA.SOLV>
0.49294

>  <SCORE.INTRA.SOLV.lig_0>
-31.9559

>  <SCORE.INTRA.VDW>
0.232003

>  <SCORE.INTRA.VDW.0>
-0.507645

>  <SCORE.INTRA.norm>
-0.15966

>  <SCORE.RESTR>
0

>  <SCORE.RESTR.CAVITY>
0

>  <SCORE.RESTR.norm>
0

>  <SCORE.SYSTEM>
0

>  <SCORE.SYSTEM.CONST>
0

>  <SCORE.SYSTEM.DIHEDRAL>
0

>  <SCORE.SYSTEM.SOLV>
0

>  <SCORE.SYSTEM.norm>
0

>  <SCORE.heavy>
10

>  <SCORE.norm>
-1.08358

>  <RMSD>
5.234

$$$$
ligand
 OpenBabel11021811473D
libRbt.so/2013.1/901 2013/11/27
 10  9  0  0  0  0  0  0  0  0999 V2000
   27.4977   13.7419   18.6008 N   0  0  0  0  0  0  0  0  0  0  0  0
   28.1201   14.1905   19.8742 C   0  0  2  0  0  0  0  0  0  0  0  0
   27.1812   15.1049   20.6619 C   0  0  0  0  0  0  0  0  0  0  0  0
   26.7921   16.1694   20.1917 O   0  0  0  0  0  0  0  0  0  0  0  0
   29.4756   14.8517   19.6000 C   0  0  0  0  0  0  0  0  0  0  0  0
   30.2071   15.2608   20.8744 C   0  0  0  0  0  0  0  0  0  0  0  0
   31.5890   15.8390   20.6031 C   0  0  0  0  0  0  0  0  0  0  0  0
   32.2356   16.3425   21.8941 C   0  0  0  0  0  0  0  0  0  0  0  0
   31.4887   17.4781   22.5606 N   0  0  0  0  0  0  0  0  0  0  0  0
   26.7395   14.8161   21.7681 O   0  0  0  0  0  0  0  0  0  0  0  0
  2  1  1  6  0  0  0
  2  3  1  0  0  0  0
  2  5  1  0  0  0  0
  3  4  1  0  0  0  0
  3 10  1  0  0  0  0
  5  6  1  0  0  0  0
  6  7  1  0  0  0  0
  7  8  1  0  0  0  0
  8  9  1  0  0  0  0
M  END
>  <CHROM.1>
-60.93796918,-176.55609518,176.48393855,175.22031159,-62.86014784,29.10150379
15.39501306,20.67741041,-2.65860191,0.09120852,0.91871799

>  <Name>
ligand

>  <RI>
0

>  <Rbt.Current_Directory>
/home/itssahil/PROJECTS/Mol_Feturizer/New_Systems/rnas/3DIM

>  <Rbt.Executable>
rbdock ($Id: //depot/dev/client3/rdock/2013.1/src/exe/rbdock.cxx#4 $)

>  <Rbt.Library>
libRbt.so (2013.1, Build901 2013/11/27)

>  <Rbt.Parameter_File>
/export/apps/rDock/src/rDock_2013.1_src/data/scripts/dock_solv.prm

>  <Rbt.Receptor>
prm/pocket_docking_4.prm

>  <SCORE>
-9.56232

>  <SCORE.INTER>
-6.75735

>  <SCORE.INTER.CONST>
1

>  <SCORE.INTER.POLAR>
0

>  <SCORE.INTER.ROT>
5

>  <SCORE.INTER.SOLV>
15.4209

>  <SCORE.INTER.VDW>
-16.5785

>  <SCORE.INTER.norm>
-0.675735

>  <SCORE.INTRA>
-2.80497

>  <SCORE.INTRA.DIHEDRAL>
-4.16817

>  <SCORE.INTRA.DIHEDRAL.0>
5.8785

>  <SCORE.INTRA.POLAR>
0

>  <SCORE.INTRA.POLAR.0>
0

>  <SCORE.INTRA.REPUL>
0

>  <SCORE.INTRA.REPUL.0>
0

>  <SCORE.INTRA.SOLV>
-0.955932

>  <SCORE.INTRA.SOLV.lig_0>
-31.9559

>  <SCORE.INTRA.VDW>
-0.242913

>  <SCORE.INTRA.VDW.0>
-0.507645

>  <SCORE.INTRA.norm>
-0.280497

>  <SCORE.RESTR>
0

>  <SCORE.RESTR.CAVITY>
0

>  <SCORE.RESTR.norm>
0

>  <SCORE.SYSTEM>
0

>  <SCORE.SYSTEM.CONST>
0

>  <SCORE.SYSTEM.DIHEDRAL>
0

>  <SCORE.SYSTEM.SOLV>
0

>  <SCORE.SYSTEM.norm>
0

>  <SCORE.heavy>
10

>  <SCORE.norm>
-0.956232

>  <RMSD>
5.236

$$$$
ligand
 OpenBabel11021811473D
libRbt.so/2013.1/901 2013/11/27
 10  9  0  0  0  0  0  0  0  0999 V2000
   27.2824   14.5116   20.7439 N   0  0  0  0  0  0  0  0  0  0  0  0
   27.5984   15.4946   19.6742 C   0  0  2  0  0  0  0  0  0  0  0  0
   28.2428   14.8153   18.4654 C   0  0  0  0  0  0  0  0  0  0  0  0
   28.5774   13.6355   18.5058 O   0  0  0  0  0  0  0  0  0  0  0  0
   28.4674   16.6273   20.2324 C   0  0  0  0  0  0  0  0  0  0  0  0
   29.7577   16.1271   20.8739 C   0  0  0  0  0  0  0  0  0  0  0  0
   30.5644   17.2414   21.5257 C   0  0  0  0  0  0  0  0  0  0  0  0
   31.8539   16.6967   22.1411 C   0  0  0  0  0  0  0  0  0  0  0  0
   32.8247   16.1157   21.1353 N   0  0  0  0  0  0  0  0  0  0  0  0
   28.4221   15.3853   17.3953 O   0  0  0  0  0  0  0  0  0  0  0  0
  2  1  1  1  0  0  0
  2  3  1  0  0  0  0
  2  5  1  0  0  0  0
  3  4  1  0  0  0  0
  3 10  1  0  0  0  0
  5  6  1  0  0  0  0
  6  7  1  0  0  0  0
  7  8  1  0  0  0  0
  8  9  1  0  0  0  0
M  END
>  <CHROM.1>
-8.07391230,56.60996942,-175.37739882,-179.38145666,64.04634824,29.36342901
15.64621023,20.03555606,2.39041417,-0.10168768,-2.04093600

>  <Name>
ligand

>  <RI>
0

>  <Rbt.Current_Directory>
/home/itssahil/PROJECTS/Mol_Feturizer/New_Systems/rnas/3DIM

>  <Rbt.Executable>
rbdock ($Id: //depot/dev/client3/rdock/2013.1/src/exe/rbdock.cxx#4 $)

>  <Rbt.Library>
libRbt.so (2013.1, Build901 2013/11/27)

>  <Rbt.Parameter_File>
/export/apps/rDock/src/rDock_2013.1_src/data/scripts/dock_solv.prm

>  <Rbt.Receptor>
prm/pocket_docking_5.prm

>  <SCORE>
-10.166

>  <SCORE.INTER>
-8.0162

>  <SCORE.INTER.CONST>
1

>  <SCORE.INTER.POLAR>
0

>  <SCORE.INTER.ROT>
5

>  <SCORE.INTER.SOLV>
14.6533

>  <SCORE.INTER.VDW>
-17.1619

>  <SCORE.INTER.norm>
-0.80162

>  <SCORE.INTRA>
-2.14979

>  <SCORE.INTRA.DIHEDRAL>
-4.12623

>  <SCORE.INTRA.DIHEDRAL.0>
5.8785

>  <SCORE.INTRA.POLAR>
0

>  <SCORE.INTRA.POLAR.0>
0

>  <SCORE.INTRA.REPUL>
0

>  <SCORE.INTRA.REPUL.0>
0

>  <SCORE.INTRA.SOLV>
0.00380399

>  <SCORE.INTRA.SOLV.lig_0>
-31.9559

>  <SCORE.INTRA.VDW>
-0.0885733

>  <SCORE.INTRA.VDW.0>
-0.507645

>  <SCORE.INTRA.norm>
-0.214979

>  <SCORE.RESTR>
0

>  <SCORE.RESTR.CAVITY>
0

>  <SCORE.RESTR.norm>
0

>  <SCORE.SYSTEM>
0

>  <SCORE.SYSTEM.CONST>
0

>  <SCORE.SYSTEM.DIHEDRAL>
0

>  <SCORE.SYSTEM.SOLV>
0

>  <SCORE.SYSTEM.norm>
0

>  <SCORE.heavy>
10

>  <SCORE.norm>
-1.0166

>  <RMSD>
5.237

$$$$
ligand
 OpenBabel11021811473D
libRbt.so/2013.1/901 2013/11/27
 10  9  0  0  0  0  0  0  0  0999 V2000
   27.3431   14.3171   18.8994 N   0  0  0  0  0  0  0  0  0  0  0  0
   27.9606   14.3332   20.2517 C   0  0  2  0  0  0  0  0  0  0  0  0
   26.9594   14.7823   21.3165 C   0  0  0  0  0  0  0  0  0  0  0  0
   27.3290   15.0786   22.4484 O   0  0  0  0  0  0  0  0  0  0  0  0
   29.2272   15.1967   20.2481 C   0  0  0  0  0  0  0  0  0  0  0  0
   30.1140   14.9578   21.4659 C   0  0  0  0  0  0  0  0  0  0  0  0
   31.4918   15.5903   21.3269 C   0  0  0  0  0  0  0  0  0  0  0  0
   31.4085   17.1137   21.4298 C   0  0  0  0  0  0  0  0  0  0  0  0
   30.9881   17.6218   22.7924 N   0  0  0  0  0  0  0  0  0  0  0  0
   25.7605   14.9091   21.0955 O   0  0  0  0  0  0  0  0  0  0  0  0
  2  1  1  6  0  0  0
  2  3  1  0  0  0  0
  2  5  1  0  0  0  0
  3  4  1  0  0  0  0
  3 10  1  0  0  0  0
  5  6  1  0  0  0  0
  6  7  1  0  0  0  0
  7  8  1  0  0  0  0
  8  9  1  0  0  0  0
M  END
>  <CHROM.1>
-167.49217507,-164.12799310,168.17977128,71.48831060,66.38544948,28.82699402
15.39505172,21.14912438,-2.72609478,0.25589796,1.05337909

>  <Name>
ligand

>  <RI>
0

>  <Rbt.Current_Directory>
/home/itssahil/PROJECTS/Mol_Feturizer/New_Systems/rnas/3DIM

>  <Rbt.Executable>
rbdock ($Id: //depot/dev/client3/rdock/2013.1/src/exe/rbdock.cxx#4 $)

>  <Rbt.Library>
libRbt.so (2013.1, Build901 2013/11/27)

>  <Rbt.Parameter_File>
/export/apps/rDock/src/rDock_2013.1_src/data/scripts/dock_solv.prm

>  <Rbt.Receptor>
prm/pocket_docking_3.prm

>  <SCORE>
-9.03662

>  <SCORE.INTER>
-8.16121

>  <SCORE.INTER.CONST>
1

>  <SCORE.INTER.POLAR>
0

>  <SCORE.INTER.ROT>
5

>  <SCORE.INTER.SOLV>
15.9051

>  <SCORE.INTER.VDW>
-17.6758

>  <SCORE.INTER.norm>
-0.816121

>  <SCORE.INTRA>
-0.875412

>  <SCORE.INTRA.DIHEDRAL>
-2.16759

>  <SCORE.INTRA.DIHEDRAL.0>
5.8785

>  <SCORE.INTRA.POLAR>
0

>  <SCORE.INTRA.POLAR.0>
0

>  <SCORE.INTRA.REPUL>
0

>  <SCORE.INTRA.REPUL.0>
0

>  <SCORE.INTRA.SOLV>
-0.559178

>  <SCORE.INTRA.SOLV.lig_0>
-31.9559

>  <SCORE.INTRA.VDW>
0.487973

>  <SCORE.INTRA.VDW.0>
-0.507645

>  <SCORE.INTRA.norm>
-0.0875412

>  <SCORE.RESTR>
0

>  <SCORE.RESTR.CAVITY>
0

>  <SCORE.RESTR.norm>
0

>  <SCORE.SYSTEM>
0

>  <SCORE.SYSTEM.CONST>
0

>  <SCORE.SYSTEM.DIHEDRAL>
0

>  <SCORE.SYSTEM.SOLV>
0

>  <SCORE.SYSTEM.norm>
0

>  <SCORE.heavy>
10

>  <SCORE.norm>
-0.903662

>  <RMSD>
5.238

$$$$
ligand
 OpenBabel11021811473D
libRbt.so/2013.1/901 2013/11/27
 10  9  0  0  0  0  0  0  0  0999 V2000
   28.4568   15.3940   19.6859 N   0  0  0  0  0  0  0  0  0  0  0  0
   28.7097   14.6330   20.9377 C   0  0  2  0  0  0  0  0  0  0  0  0
   27.6423   14.9247   21.9929 C   0  0  0  0  0  0  0  0  0  0  0  0
   26.4597   14.6728   21.7837 O   0  0  0  0  0  0  0  0  0  0  0  0
   30.1254   14.9138   21.4544 C   0  0  0  0  0  0  0  0  0  0  0  0
   30.3856   16.3962   21.7020 C   0  0  0  0  0  0  0  0  0  0  0  0
   31.8019   16.6750   22.1856 C   0  0  0  0  0  0  0  0  0  0  0  0
   32.0136   18.1697   22.4294 C   0  0  0  0  0  0  0  0  0  0  0  0
   33.4067   18.5309   22.8991 N   0  0  0  0  0  0  0  0  0  0  0  0
   27.9040   15.3796   23.1004 O   0  0  0  0  0  0  0  0  0  0  0  0
  2  1  1  6  0  0  0
  2  3  1  0  0  0  0
  2  5  1  0  0  0  0
  3  4  1  0  0  0  0
  3 10  1  0  0  0  0
  5  6  1  0  0  0  0
  6  7  1  0  0  0  0
  7  8  1  0  0  0  0
  8  9  1  0  0  0  0
M  END
>  <CHROM.1>
60.68155210,57.23594831,-178.72954515,-179.60605845,-179.36256639,29.65634300
15.96681657,21.83849909,-2.80008771,0.46102337,1.20248305

>  <Name>
ligand

>  <RI>
0

>  <Rbt.Current_Directory>
/home/itssahil/PROJECTS/Mol_Feturizer/New_Systems/rnas/3DIM

>  <Rbt.Executable>
rbdock ($Id: //depot/dev/client3/rdock/2013.1/src/exe/rbdock.cxx#4 $)

>  <Rbt.Library>
libRbt.so (2013.1, Build901 2013/11/27)

>  <Rbt.Parameter_File>
/export/apps/rDock/src/rDock_2013.1_src/data/scripts/dock_solv.prm

>  <Rbt.Receptor>
prm/pocket_docking_4.prm

>  <SCORE>
-10.5063

>  <SCORE.INTER>
-8.26467

>  <SCORE.INTER.CONST>
1

>  <SCORE.INTER.POLAR>
0

>  <SCORE.INTER.ROT>
5

>  <SCORE.INTER.SOLV>
12.771

>  <SCORE.INTER.VDW>
-16.7001

>  <SCORE.INTER.norm>
-0.826467

>  <SCORE.INTRA>
-2.24164

>  <SCORE.INTRA.DIHEDRAL>
-4.33227

>  <SCORE.INTRA.DIHEDRAL.0>
5.8785

>  <SCORE.INTRA.POLAR>
0

>  <SCORE.INTRA.POLAR.0>
0

>  <SCORE.INTRA.REPUL>
0

>  <SCORE.INTRA.REPUL.0>
0

>  <SCORE.INTRA.SOLV>
-0.925475

>  <SCORE.INTRA.SOLV.lig_0>
-31.9559

>  <SCORE.INTRA.VDW>
0.387227

>  <SCORE.INTRA.VDW.0>
-0.507645

>  <SCORE.INTRA.norm>
-0.224164

>  <SCORE.RESTR>
0

>  <SCORE.RESTR.CAVITY>
0

>  <SCORE.RESTR.norm>
0

>  <SCORE.SYSTEM>
0

>  <SCORE.SYSTEM.CONST>
0

>  <SCORE.SYSTEM.DIHEDRAL>
0

>  <SCORE.SYSTEM.SOLV>
0

>  <SCORE.SYSTEM.norm>
0

>  <SCORE.heavy>
10

>  <SCORE.norm>
-1.05063

>  <RMSD>
5.238

$$$$
ligand
 OpenBabel11021811473D
libRbt.so/2013.1/901 2013/11/27
 10  9  0  0  0  0  0  0  0  0999 V2000
   27.5092   13.7125   18.5494 N   0  0  0  0  0  0  0  0  0  0  0  0
   28.1113   14.1569   19.8340 C   0  0  2  0  0  0  0  0  0  0  0  0
   27.1571   15.0627   20.6131 C   0  0  0  0  0  0  0  0  0  0  0  0
   26.7169   14.7261   21.7079 O   0  0  0  0  0  0  0  0  0  0  0  0
   29.4676   14.8258   19.5827 C   0  0  0  0  0  0  0  0  0  0  0  0
   30.1763   15.2364   20.8694 C   0  0  0  0  0  0  0  0  0  0  0  0
   31.5506   15.8420   20.6198 C   0  0  0  0  0  0  0  0  0  0  0  0
   32.1727   16.3452   21.9229 C   0  0  0  0  0  0  0  0  0  0  0  0
   31.3866   17.4469   22.6012 N   0  0  0  0  0  0  0  0  0  0  0  0
   26.8152   16.1712   20.2175 O   0  0  0  0  0  0  0  0  0  0  0  0
  2  1  1  6  0  0  0
  2  3  1  0  0  0  0
  2  5  1  0  0  0  0
  3  4  1  0  0  0  0
  3 10  1  0  0  0  0
  5  6  1  0  0  0  0
  6  7  1  0  0  0  0
  7  8  1  0  0  0  0
  8  9  1  0  0  0  0
M  END
>  <CHROM.1>
116.46476402,-176.79118378,177.35600166,175.22569112,-62.00204303,29.07578254
15.36786029,20.66689460,-2.63799325,0.09219979,0.91979425

>  <Name>
ligand

>  <RI>
0

>  <Rbt.Current_Directory>
/home/itssahil/PROJECTS/Mol_Feturizer/New_Systems/rnas/3DIM

>  <Rbt.Executable>
rbdock ($Id: //depot/dev/client3/rdock/2013.1/src/exe/rbdock.cxx#4 $)

>  <Rbt.Library>
libRbt.so (2013.1, Build901 2013/11/27)

>  <Rbt.Parameter_File>
/export/apps/rDock/src/rDock_2013.1_src/data/scripts/dock_solv.prm

>  <Rbt.Receptor>
prm/pocket_docking_6.prm

>  <SCORE>
-9.51345

>  <SCORE.INTER>
-6.70134

>  <SCORE.INTER.CONST>
1

>  <SCORE.INTER.POLAR>
0

>  <SCORE.INTER.ROT>
5

>  <SCORE.INTER.SOLV>
15.5147

>  <SCORE.INTER.VDW>
-16.5724

>  <SCORE.INTER.norm>
-0.670134

>  <SCORE.INTRA>
-2.81211

>  <SCORE.INTRA.DIHEDRAL>
-4.17732

>  <SCORE.INTRA.DIHEDRAL.0>
5.8785

>  <SCORE.INTRA.POLAR>
0

>  <SCORE.INTRA.POLAR.0>
0

>  <SCORE.INTRA.REPUL>
0

>  <SCORE.INTRA.REPUL.0>
0

>  <SCORE.INTRA.SOLV>
-0.971272

>  <SCORE.INTRA.SOLV.lig_0>
-31.9559

>  <SCORE.INTRA.VDW>
-0.237815

>  <SCORE.INTRA.VDW.0>
-0.507645

>  <SCORE.INTRA.norm>
-0.281211

>  <SCORE.RESTR>
0

>  <SCORE.RESTR.CAVITY>
0

>  <SCORE.RESTR.norm>
0

>  <SCORE.SYSTEM>
0

>  <SCORE.SYSTEM.CONST>
0

>  <SCORE.SYSTEM.DIHEDRAL>
0

>  <SCORE.SYSTEM.SOLV>
0

>  <SCORE.SYSTEM.norm>
0

>  <SCORE.heavy>
10

>  <SCORE.norm>
-0.951345

>  <RMSD>
5.238

$$$$
ligand
 OpenBabel11021811473D
libRbt.so/2013.1/901 2013/11/27
 10  9  0  0  0  0  0  0  0  0999 V2000
   28.0529   14.5592   19.0751 N   0  0  0  0  0  0  0  0  0  0  0  0
   28.3649   14.5411   20.5286 C   0  0  2  0  0  0  0  0  0  0  0  0
   27.1443   14.9253   21.3656 C   0  0  0  0  0  0  0  0  0  0  0  0
   26.0561   15.1353   20.8390 O   0  0  0  0  0  0  0  0  0  0  0  0
   29.5738   15.4360   20.8246 C   0  0  0  0  0  0  0  0  0  0  0  0
   30.0859   15.2912   22.2540 C   0  0  0  0  0  0  0  0  0  0  0  0
   31.4209   15.9880   22.4771 C   0  0  0  0  0  0  0  0  0  0  0  0
   31.2886   17.4995   22.2872 C   0  0  0  0  0  0  0  0  0  0  0  0
   32.5900   18.2595   22.4307 N   0  0  0  0  0  0  0  0  0  0  0  0
   27.1705   15.0047   22.5884 O   0  0  0  0  0  0  0  0  0  0  0  0
  2  1  1  6  0  0  0
  2  3  1  0  0  0  0
  2  5  1  0  0  0  0
  3  4  1  0  0  0  0
  3 10  1  0  0  0  0
  5  6  1  0  0  0  0
  6  7  1  0  0  0  0
  7  8  1  0  0  0  0
  8  9  1  0  0  0  0
M  END
>  <CHROM.1>
3.73991010,-170.80236579,169.99000602,63.90453415,-177.36501490,29.13764701
15.66573043,21.48227379,-2.71872100,0.36261317,1.23477316

>  <Name>
ligand

>  <RI>
0

>  <Rbt.Current_Directory>
/home/itssahil/PROJECTS/Mol_Feturizer/New_Systems/rnas/3DIM

>  <Rbt.Executable>
rbdock ($Id: //depot/dev/client3/rdock/2013.1/src/exe/rbdock.cxx#4 $)

>  <Rbt.Library>
libRbt.so (2013.1, Build901 2013/11/27)

>  <Rbt.Parameter_File>
/export/apps/rDock/src/rDock_2013.1_src/data/scripts/dock_solv.prm

>  <Rbt.Receptor>
prm/pocket_docking_7.prm

>  <SCORE>
-11.2709

>  <SCORE.INTER>
-9.40995

>  <SCORE.INTER.CONST>
1

>  <SCORE.INTER.POLAR>
0

>  <SCORE.INTER.ROT>
5

>  <SCORE.INTER.SOLV>
13.8143

>  <SCORE.INTER.VDW>
-17.8114

>  <SCORE.INTER.norm>
-0.940995

>  <SCORE.INTRA>
-1.86097

>  <SCORE.INTRA.DIHEDRAL>
-3.57413

>  <SCORE.INTRA.DIHEDRAL.0>
5.8785

>  <SCORE.INTRA.POLAR>
0

>  <SCORE.INTRA.POLAR.0>
0

>  <SCORE.INTRA.REPUL>
0

>  <SCORE.INTRA.REPUL.0>
0

>  <SCORE.INTRA.SOLV>
-1.6134

>  <SCORE.INTRA.SOLV.lig_0>
-31.9559

>  <SCORE.INTRA.VDW>
0.732794

>  <SCORE.INTRA.VDW.0>
-0.507645

>  <SCORE.INTRA.norm>
-0.186097

>  <SCORE.RESTR>
0

>  <SCORE.RESTR.CAVITY>
0

>  <SCORE.RESTR.norm>
0

>  <SCORE.SYSTEM>
0

>  <SCORE.SYSTEM.CONST>
0

>  <SCORE.SYSTEM.DIHEDRAL>
0

>  <SCORE.SYSTEM.SOLV>
0

>  <SCORE.SYSTEM.norm>
0

>  <SCORE.heavy>
10

>  <SCORE.norm>
-1.12709

>  <RMSD>
5.239

$$$$
ligand
 OpenBabel11021811473D
libRbt.so/2013.1/901 2013/11/27
 10  9  0  0  0  0  0  0  0  0999 V2000
   25.9192   15.2115   20.5295 N   0  0  0  0  0  0  0  0  0  0  0  0
   27.4011   15.3273   20.5609 C   0  0  2  0  0  0  0  0  0  0  0  0
   28.0242   14.8684   19.2421 C   0  0  0  0  0  0  0  0  0  0  0  0
   28.3875   15.6805   18.3970 O   0  0  0  0  0  0  0  0  0  0  0  0
   27.9690   14.5665   21.7644 C   0  0  0  0  0  0  0  0  0  0  0  0
   29.4852   14.6844   21.8818 C   0  0  0  0  0  0  0  0  0  0  0  0
   29.9454   16.1015   22.1939 C   0  0  0  0  0  0  0  0  0  0  0  0
   31.4705   16.1767   22.2770 C   0  0  0  0  0  0  0  0  0  0  0  0
   32.0100   17.5662   22.5414 N   0  0  0  0  0  0  0  0  0  0  0  0
   28.2302   13.6903   18.9744 O   0  0  0  0  0  0  0  0  0  0  0  0
  2  1  1  6  0  0  0
  2  3  1  0  0  0  0
  2  5  1  0  0  0  0
  3  4  1  0  0  0  0
  3 10  1  0  0  0  0
  5  6  1  0  0  0  0
  6  7  1  0  0  0  0
  7  8  1  0  0  0  0
  8  9  1  0  0  0  0
M  END
>  <CHROM.1>
100.39766757,-178.07699706,66.33017350,-178.96830751,178.14926290,28.89100941
15.37525599,20.80065751,2.51904074,-0.38561478,-1.66352351

>  <Name>
ligand

>  <RI>
0

>  <Rbt.Current_Directory>
/home/itssahil/PROJECTS/Mol_Feturizer/New_Systems/rnas/3DIM

>  <Rbt.Executable>
rbdock ($Id: //depot/dev/client3/rdock/2013.1/src/exe/rbdock.cxx#4 $)

>  <Rbt.Library>
libRbt.so (2013.1, Build901 2013/11/27)

>  <Rbt.Parameter_File>
/export/apps/rDock/src/rDock_2013.1_src/data/scripts/dock_solv.prm

>  <Rbt.Receptor>
prm/pocket_docking_7.prm

>  <SCORE>
-10.2414

>  <SCORE.INTER>
-7.35748

>  <SCORE.INTER.CONST>
1

>  <SCORE.INTER.POLAR>
0

>  <SCORE.INTER.ROT>
5

>  <SCORE.INTER.SOLV>
17.704

>  <SCORE.INTER.VDW>
-17.7396

>  <SCORE.INTER.norm>
-0.735748

>  <SCORE.INTRA>
-2.88395

>  <SCORE.INTRA.DIHEDRAL>
-4.1042

>  <SCORE.INTRA.DIHEDRAL.0>
5.8785

>  <SCORE.INTRA.POLAR>
0

>  <SCORE.INTRA.POLAR.0>
0

>  <SCORE.INTRA.REPUL>
0

>  <SCORE.INTRA.REPUL.0>
0

>  <SCORE.INTRA.SOLV>
-1.67601

>  <SCORE.INTRA.SOLV.lig_0>
-31.9559

>  <SCORE.INTRA.VDW>
0.00615759

>  <SCORE.INTRA.VDW.0>
-0.507645

>  <SCORE.INTRA.norm>
-0.288395

>  <SCORE.RESTR>
0

>  <SCORE.RESTR.CAVITY>
0

>  <SCORE.RESTR.norm>
0

>  <SCORE.SYSTEM>
0

>  <SCORE.SYSTEM.CONST>
0

>  <SCORE.SYSTEM.DIHEDRAL>
0

>  <SCORE.SYSTEM.SOLV>
0

>  <SCORE.SYSTEM.norm>
0

>  <SCORE.heavy>
10

>  <SCORE.norm>
-1.02414

>  <RMSD>
5.239

$$$$
ligand
 OpenBabel11021811473D
libRbt.so/2013.1/901 2013/11/27
 10  9  0  0  0  0  0  0  0  0999 V2000
   27.2716   14.5610   20.7776 N   0  0  0  0  0  0  0  0  0  0  0  0
   27.6126   15.5211   19.6950 C   0  0  2  0  0  0  0  0  0  0  0  0
   28.2221   14.8070   18.4881 C   0  0  0  0  0  0  0  0  0  0  0  0
   28.5590   13.6289   18.5530 O   0  0  0  0  0  0  0  0  0  0  0  0
   28.5259   16.6282   20.2337 C   0  0  0  0  0  0  0  0  0  0  0  0
   29.8246   16.0923   20.8276 C   0  0  0  0  0  0  0  0  0  0  0  0
   30.6926   17.1858   21.4344 C   0  0  0  0  0  0  0  0  0  0  0  0
   31.9957   16.6076   21.9873 C   0  0  0  0  0  0  0  0  0  0  0  0
   32.8862   15.9721   20.9409 N   0  0  0  0  0  0  0  0  0  0  0  0
   28.3694   15.3456   17.3970 O   0  0  0  0  0  0  0  0  0  0  0  0
  2  1  1  1  0  0  0
  2  3  1  0  0  0  0
  2  5  1  0  0  0  0
  3  4  1  0  0  0  0
  3 10  1  0  0  0  0
  5  6  1  0  0  0  0
  6  7  1  0  0  0  0
  7  8  1  0  0  0  0
  8  9  1  0  0  0  0
M  END
>  <CHROM.1>
-10.67635776,58.54072746,-176.65370809,-178.68672029,62.83582143,29.39923647
15.61561915,20.00018561,2.43833147,-0.08251973,-2.05686822

>  <Name>
ligand

>  <RI>
0

>  <Rbt.Current_Directory>
/home/itssahil/PROJECTS/Mol_Feturizer/New_Systems/rnas/3DIM

>  <Rbt.Executable>
rbdock ($Id: //depot/dev/client3/rdock/2013.1/src/exe/rbdock.cxx#4 $)

>  <Rbt.Library>
libRbt.so (2013.1, Build901 2013/11/27)

>  <Rbt.Parameter_File>
/export/apps/rDock/src/rDock_2013.1_src/data/scripts/dock_solv.prm

>  <Rbt.Receptor>
prm/pocket_docking_7.prm

>  <SCORE>
-10.2066

>  <SCORE.INTER>
-7.9877

>  <SCORE.INTER.CONST>
1

>  <SCORE.INTER.POLAR>
0

>  <SCORE.INTER.ROT>
5

>  <SCORE.INTER.SOLV>
15.1362

>  <SCORE.INTER.VDW>
-17.3038

>  <SCORE.INTER.norm>
-0.79877

>  <SCORE.INTRA>
-2.21888

>  <SCORE.INTRA.DIHEDRAL>
-4.22616

>  <SCORE.INTRA.DIHEDRAL.0>
5.8785

>  <SCORE.INTRA.POLAR>
0

>  <SCORE.INTRA.POLAR.0>
0

>  <SCORE.INTRA.REPUL>
0

>  <SCORE.INTRA.REPUL.0>
0

>  <SCORE.INTRA.SOLV>
-0.0066272

>  <SCORE.INTRA.SOLV.lig_0>
-31.9559

>  <SCORE.INTRA.VDW>
-0.102485

>  <SCORE.INTRA.VDW.0>
-0.507645

>  <SCORE.INTRA.norm>
-0.221888

>  <SCORE.RESTR>
0

>  <SCORE.RESTR.CAVITY>
0

>  <SCORE.RESTR.norm>
0

>  <SCORE.SYSTEM>
0

>  <SCORE.SYSTEM.CONST>
0

>  <SCORE.SYSTEM.DIHEDRAL>
0

>  <SCORE.SYSTEM.SOLV>
0

>  <SCORE.SYSTEM.norm>
0

>  <SCORE.heavy>
10

>  <SCORE.norm>
-1.02066

>  <RMSD>
5.242

$$$$
ligand
 OpenBabel11021811473D
libRbt.so/2013.1/901 2013/11/27
 10  9  0  0  0  0  0  0  0  0999 V2000
   27.3270   14.0293   18.8968 N   0  0  0  0  0  0  0  0  0  0  0  0
   27.9466   14.7845   20.0175 C   0  0  2  0  0  0  0  0  0  0  0  0
   27.0213   14.8367   21.2336 C   0  0  0  0  0  0  0  0  0  0  0  0
   25.8049   14.7349   21.1085 O   0  0  0  0  0  0  0  0  0  0  0  0
   28.3658   16.1828   19.5494 C   0  0  0  0  0  0  0  0  0  0  0  0
   29.3040   16.8818   20.5280 C   0  0  0  0  0  0  0  0  0  0  0  0
   30.6372   16.1637   20.6842 C   0  0  0  0  0  0  0  0  0  0  0  0
   31.5464   16.9032   21.6663 C   0  0  0  0  0  0  0  0  0  0  0  0
   30.9447   17.1005   23.0414 N   0  0  0  0  0  0  0  0  0  0  0  0
   27.4335   14.9404   22.3832 O   0  0  0  0  0  0  0  0  0  0  0  0
  2  1  1  6  0  0  0
  2  3  1  0  0  0  0
  2  5  1  0  0  0  0
  3  4  1  0  0  0  0
  3 10  1  0  0  0  0
  5  6  1  0  0  0  0
  6  7  1  0  0  0  0
  7  8  1  0  0  0  0
  8  9  1  0  0  0  0
M  END
>  <CHROM.1>
-25.42548444,-165.87441959,63.86715010,179.66773363,57.02846146,28.60461445
15.65086147,20.93598883,-2.80502793,0.45755211,1.43631546

>  <Name>
ligand

>  <RI>
0

>  <Rbt.Current_Directory>
/home/itssahil/PROJECTS/Mol_Feturizer/New_Systems/rnas/3DIM

>  <Rbt.Executable>
rbdock ($Id: //depot/dev/client3/rdock/2013.1/src/exe/rbdock.cxx#4 $)

>  <Rbt.Library>
libRbt.so (2013.1, Build901 2013/11/27)

>  <Rbt.Parameter_File>
/export/apps/rDock/src/rDock_2013.1_src/data/scripts/dock_solv.prm

>  <Rbt.Receptor>
prm/pocket_docking_6.prm

>  <SCORE>
-11.1231

>  <SCORE.INTER>
-8.92415

>  <SCORE.INTER.CONST>
1

>  <SCORE.INTER.POLAR>
0

>  <SCORE.INTER.ROT>
5

>  <SCORE.INTER.SOLV>
15.4061

>  <SCORE.INTER.VDW>
-18.0181

>  <SCORE.INTER.norm>
-0.892415

>  <SCORE.INTRA>
-2.19897

>  <SCORE.INTRA.DIHEDRAL>
-3.47372

>  <SCORE.INTRA.DIHEDRAL.0>
5.8785

>  <SCORE.INTRA.POLAR>
0

>  <SCORE.INTRA.POLAR.0>
0

>  <SCORE.INTRA.REPUL>
0

>  <SCORE.INTRA.REPUL.0>
0

>  <SCORE.INTRA.SOLV>
-0.563486

>  <SCORE.INTRA.SOLV.lig_0>
-31.9559

>  <SCORE.INTRA.VDW>
-0.180366

>  <SCORE.INTRA.VDW.0>
-0.507645

>  <SCORE.INTRA.norm>
-0.219897

>  <SCORE.RESTR>
0

>  <SCORE.RESTR.CAVITY>
0

>  <SCORE.RESTR.norm>
0

>  <SCORE.SYSTEM>
0

>  <SCORE.SYSTEM.CONST>
0

>  <SCORE.SYSTEM.DIHEDRAL>
0

>  <SCORE.SYSTEM.SOLV>
0

>  <SCORE.SYSTEM.norm>
0

>  <SCORE.heavy>
10

>  <SCORE.norm>
-1.11231

>  <RMSD>
5.243

$$$$
ligand
 OpenBabel11021811473D
libRbt.so/2013.1/901 2013/11/27
 10  9  0  0  0  0  0  0  0  0999 V2000
   28.4319   15.4490   19.7072 N   0  0  0  0  0  0  0  0  0  0  0  0
   28.7030   14.6425   20.9264 C   0  0  2  0  0  0  0  0  0  0  0  0
   27.6416   14.8821   22.0007 C   0  0  0  0  0  0  0  0  0  0  0  0
   26.4678   14.5800   21.8096 O   0  0  0  0  0  0  0  0  0  0  0  0
   30.1201   14.9175   21.4422 C   0  0  0  0  0  0  0  0  0  0  0  0
   30.3693   16.3925   21.7405 C   0  0  0  0  0  0  0  0  0  0  0  0
   31.7943   16.6704   22.1985 C   0  0  0  0  0  0  0  0  0  0  0  0
   32.0087   18.1639   22.4469 C   0  0  0  0  0  0  0  0  0  0  0  0
   33.4215   18.5297   22.8495 N   0  0  0  0  0  0  0  0  0  0  0  0
   27.9018   15.3423   23.1065 O   0  0  0  0  0  0  0  0  0  0  0  0
  2  1  1  6  0  0  0
  2  3  1  0  0  0  0
  2  5  1  0  0  0  0
  3  4  1  0  0  0  0
  3 10  1  0  0  0  0
  5  6  1  0  0  0  0
  6  7  1  0  0  0  0
  7  8  1  0  0  0  0
  8  9  1  0  0  0  0
M  END
>  <CHROM.1>
63.42959236,57.03176748,-177.66639517,178.37728221,-177.52349365,29.65195814
15.95359262,21.84456251,-2.82114541,0.47830415,1.23817929

>  <Name>
ligand

>  <RI>
0

>  <Rbt.Current_Directory>
/home/itssahil/PROJECTS/Mol_Feturizer/New_Systems/rnas/3DIM

>  <Rbt.Executable>
rbdock ($Id: //depot/dev/client3/rdock/2013.1/src/exe/rbdock.cxx#4 $)

>  <Rbt.Library>
libRbt.so (2013.1, Build901 2013/11/27)

>  <Rbt.Parameter_File>
/export/apps/rDock/src/rDock_2013.1_src/data/scripts/dock_solv.prm

>  <Rbt.Receptor>
prm/pocket_docking_3.prm

>  <SCORE>
-10.449

>  <SCORE.INTER>
-8.2511

>  <SCORE.INTER.CONST>
1

>  <SCORE.INTER.POLAR>
0

>  <SCORE.INTER.ROT>
5

>  <SCORE.INTER.SOLV>
12.7998

>  <SCORE.INTER.VDW>
-16.7007

>  <SCORE.INTER.norm>
-0.82511

>  <SCORE.INTRA>
-2.19794

>  <SCORE.INTRA.DIHEDRAL>
-4.26724

>  <SCORE.INTRA.DIHEDRAL.0>
5.8785

>  <SCORE.INTRA.POLAR>
0

>  <SCORE.INTRA.POLAR.0>
0

>  <SCORE.INTRA.REPUL>
0

>  <SCORE.INTRA.REPUL.0>
0

>  <SCORE.INTRA.SOLV>
-0.918842

>  <SCORE.INTRA.SOLV.lig_0>
-31.9559

>  <SCORE.INTRA.VDW>
0.395097

>  <SCORE.INTRA.VDW.0>
-0.507645

>  <SCORE.INTRA.norm>
-0.219794

>  <SCORE.RESTR>
0

>  <SCORE.RESTR.CAVITY>
0

>  <SCORE.RESTR.norm>
0

>  <SCORE.SYSTEM>
0

>  <SCORE.SYSTEM.CONST>
0

>  <SCORE.SYSTEM.DIHEDRAL>
0

>  <SCORE.SYSTEM.SOLV>
0

>  <SCORE.SYSTEM.norm>
0

>  <SCORE.heavy>
10

>  <SCORE.norm>
-1.0449

>  <RMSD>
5.244

$$$$
ligand
 OpenBabel11021811473D
libRbt.so/2013.1/901 2013/11/27
 10  9  0  0  0  0  0  0  0  0999 V2000
   28.6611   16.6796   20.3494 N   0  0  0  0  0  0  0  0  0  0  0  0
   28.6696   15.2938   20.8877 C   0  0  2  0  0  0  0  0  0  0  0  0
   27.3002   14.6298   20.7398 C   0  0  0  0  0  0  0  0  0  0  0  0
   26.4334   14.7684   21.5972 O   0  0  0  0  0  0  0  0  0  0  0  0
   29.1602   15.2901   22.3400 C   0  0  0  0  0  0  0  0  0  0  0  0
   30.6261   15.6897   22.4741 C   0  0  0  0  0  0  0  0  0  0  0  0
   30.8691   17.1595   22.1608 C   0  0  0  0  0  0  0  0  0  0  0  0
   32.3579   17.4986   22.2429 C   0  0  0  0  0  0  0  0  0  0  0  0
   33.2147   16.7842   21.2195 N   0  0  0  0  0  0  0  0  0  0  0  0
   26.9806   13.9682   19.7589 O   0  0  0  0  0  0  0  0  0  0  0  0
  2  1  1  1  0  0  0
  2  3  1  0  0  0  0
  2  5  1  0  0  0  0
  3  4  1  0  0  0  0
  3 10  1  0  0  0  0
  5  6  1  0  0  0  0
  6  7  1  0  0  0  0
  7  8  1  0  0  0  0
  8  9  1  0  0  0  0
M  END
>  <CHROM.1>
-86.80428254,-66.63868731,69.45044462,-177.29202500,64.00988221,29.38661146
15.75637929,21.37025453,-2.91369479,0.42899056,1.53103634

>  <Name>
ligand

>  <RI>
0

>  <Rbt.Current_Directory>
/home/itssahil/PROJECTS/Mol_Feturizer/New_Systems/rnas/3DIM

>  <Rbt.Executable>
rbdock ($Id: //depot/dev/client3/rdock/2013.1/src/exe/rbdock.cxx#4 $)

>  <Rbt.Library>
libRbt.so (2013.1, Build901 2013/11/27)

>  <Rbt.Parameter_File>
/export/apps/rDock/src/rDock_2013.1_src/data/scripts/dock_solv.prm

>  <Rbt.Receptor>
prm/pocket_docking_3.prm

>  <SCORE>
-9.33596

>  <SCORE.INTER>
-8.48686

>  <SCORE.INTER.CONST>
1

>  <SCORE.INTER.POLAR>
0

>  <SCORE.INTER.ROT>
5

>  <SCORE.INTER.SOLV>
14.6083

>  <SCORE.INTER.VDW>
-17.4607

>  <SCORE.INTER.norm>
-0.848686

>  <SCORE.INTRA>
-0.8491

>  <SCORE.INTRA.DIHEDRAL>
-3.80982

>  <SCORE.INTRA.DIHEDRAL.0>
5.8785

>  <SCORE.INTRA.POLAR>
0

>  <SCORE.INTRA.POLAR.0>
0

>  <SCORE.INTRA.REPUL>
0

>  <SCORE.INTRA.REPUL.0>
0

>  <SCORE.INTRA.SOLV>
1.33342

>  <SCORE.INTRA.SOLV.lig_0>
-31.9559

>  <SCORE.INTRA.VDW>
0.389102

>  <SCORE.INTRA.VDW.0>
-0.507645

>  <SCORE.INTRA.norm>
-0.08491

>  <SCORE.RESTR>
0

>  <SCORE.RESTR.CAVITY>
0

>  <SCORE.RESTR.norm>
0

>  <SCORE.SYSTEM>
0

>  <SCORE.SYSTEM.CONST>
0

>  <SCORE.SYSTEM.DIHEDRAL>
0

>  <SCORE.SYSTEM.SOLV>
0

>  <SCORE.SYSTEM.norm>
0

>  <SCORE.heavy>
10

>  <SCORE.norm>
-0.933596

>  <RMSD>
5.247

$$$$
ligand
 OpenBabel11021811473D
libRbt.so/2013.1/901 2013/11/27
 10  9  0  0  0  0  0  0  0  0999 V2000
   27.2662   14.0163   18.9132 N   0  0  0  0  0  0  0  0  0  0  0  0
   27.9152   14.7646   20.0218 C   0  0  2  0  0  0  0  0  0  0  0  0
   27.0126   14.8293   21.2543 C   0  0  0  0  0  0  0  0  0  0  0  0
   25.7922   14.7561   21.1499 O   0  0  0  0  0  0  0  0  0  0  0  0
   28.3433   16.1572   19.5449 C   0  0  0  0  0  0  0  0  0  0  0  0
   29.2823   16.8583   20.5213 C   0  0  0  0  0  0  0  0  0  0  0  0
   30.6239   16.1526   20.6612 C   0  0  0  0  0  0  0  0  0  0  0  0
   31.5320   16.8917   21.6446 C   0  0  0  0  0  0  0  0  0  0  0  0
   30.9616   17.0190   23.0411 N   0  0  0  0  0  0  0  0  0  0  0  0
   27.4470   14.9154   22.3971 O   0  0  0  0  0  0  0  0  0  0  0  0
  2  1  1  6  0  0  0
  2  3  1  0  0  0  0
  2  5  1  0  0  0  0
  3  4  1  0  0  0  0
  3 10  1  0  0  0  0
  5  6  1  0  0  0  0
  6  7  1  0  0  0  0
  7  8  1  0  0  0  0
  8  9  1  0  0  0  0
M  END
>  <CHROM.1>
-26.16876763,-167.19343516,65.25388629,179.82812744,59.40979333,28.58955491
15.63144946,20.94045992,-2.81846051,0.45500895,1.45291762

>  <Name>
ligand

>  <RI>
0

>  <Rbt.Current_Directory>
/home/itssahil/PROJECTS/Mol_Feturizer/New_Systems/rnas/3DIM

>  <Rbt.Executable>
rbdock ($Id: //depot/dev/client3/rdock/2013.1/src/exe/rbdock.cxx#4 $)

>  <Rbt.Library>
libRbt.so (2013.1, Build901 2013/11/27)

>  <Rbt.Parameter_File>
/export/apps/rDock/src/rDock_2013.1_src/data/scripts/dock_solv.prm

>  <Rbt.Receptor>
prm/pocket_docking_7.prm

>  <SCORE>
-11.207

>  <SCORE.INTER>
-8.8695

>  <SCORE.INTER.CONST>
1

>  <SCORE.INTER.POLAR>
0

>  <SCORE.INTER.ROT>
5

>  <SCORE.INTER.SOLV>
15.45

>  <SCORE.INTER.VDW>
-17.9963

>  <SCORE.INTER.norm>
-0.88695

>  <SCORE.INTRA>
-2.33751

>  <SCORE.INTRA.DIHEDRAL>
-3.57942

>  <SCORE.INTRA.DIHEDRAL.0>
5.8785

>  <SCORE.INTRA.POLAR>
0

>  <SCORE.INTRA.POLAR.0>
0

>  <SCORE.INTRA.REPUL>
0

>  <SCORE.INTRA.REPUL.0>
0

>  <SCORE.INTRA.SOLV>
-0.614502

>  <SCORE.INTRA.SOLV.lig_0>
-31.9559

>  <SCORE.INTRA.VDW>
-0.240549

>  <SCORE.INTRA.VDW.0>
-0.507645

>  <SCORE.INTRA.norm>
-0.233751

>  <SCORE.RESTR>
0

>  <SCORE.RESTR.CAVITY>
0

>  <SCORE.RESTR.norm>
0

>  <SCORE.SYSTEM>
0

>  <SCORE.SYSTEM.CONST>
0

>  <SCORE.SYSTEM.DIHEDRAL>
0

>  <SCORE.SYSTEM.SOLV>
0

>  <SCORE.SYSTEM.norm>
0

>  <SCORE.heavy>
10

>  <SCORE.norm>
-1.1207

>  <RMSD>
5.247

$$$$
ligand
 OpenBabel11021811473D
libRbt.so/2013.1/901 2013/11/27
 10  9  0  0  0  0  0  0  0  0999 V2000
   27.2918   14.0623   18.8867 N   0  0  0  0  0  0  0  0  0  0  0  0
   27.9177   14.8002   20.0155 C   0  0  2  0  0  0  0  0  0  0  0  0
   26.9966   14.8388   21.2353 C   0  0  0  0  0  0  0  0  0  0  0  0
   27.4499   14.9789   22.3669 O   0  0  0  0  0  0  0  0  0  0  0  0
   28.3398   16.2033   19.5651 C   0  0  0  0  0  0  0  0  0  0  0  0
   29.2888   16.8834   20.5466 C   0  0  0  0  0  0  0  0  0  0  0  0
   30.6256   16.1657   20.6699 C   0  0  0  0  0  0  0  0  0  0  0  0
   31.5631   16.9123   21.6196 C   0  0  0  0  0  0  0  0  0  0  0  0
   31.0146   17.0923   23.0191 N   0  0  0  0  0  0  0  0  0  0  0  0
   25.7754   14.7742   21.1531 O   0  0  0  0  0  0  0  0  0  0  0  0
  2  1  1  6  0  0  0
  2  3  1  0  0  0  0
  2  5  1  0  0  0  0
  3  4  1  0  0  0  0
  3 10  1  0  0  0  0
  5  6  1  0  0  0  0
  6  7  1  0  0  0  0
  7  8  1  0  0  0  0
  8  9  1  0  0  0  0
M  END
>  <CHROM.1>
155.22665588,-165.59912058,64.51557933,177.72627153,58.38136200,28.59821732
15.66706315,20.93329295,-2.81456827,0.44817774,1.43810165

>  <Name>
ligand

>  <RI>
0

>  <Rbt.Current_Directory>
/home/itssahil/PROJECTS/Mol_Feturizer/New_Systems/rnas/3DIM

>  <Rbt.Executable>
rbdock ($Id: //depot/dev/client3/rdock/2013.1/src/exe/rbdock.cxx#4 $)

>  <Rbt.Library>
libRbt.so (2013.1, Build901 2013/11/27)

>  <Rbt.Parameter_File>
/export/apps/rDock/src/rDock_2013.1_src/data/scripts/dock_solv.prm

>  <Rbt.Receptor>
prm/pocket_docking_3.prm

>  <SCORE>
-11.295

>  <SCORE.INTER>
-8.98317

>  <SCORE.INTER.CONST>
1

>  <SCORE.INTER.POLAR>
0

>  <SCORE.INTER.ROT>
5

>  <SCORE.INTER.SOLV>
15.2975

>  <SCORE.INTER.VDW>
-18.0213

>  <SCORE.INTER.norm>
-0.898317

>  <SCORE.INTRA>
-2.31187

>  <SCORE.INTRA.DIHEDRAL>
-3.58899

>  <SCORE.INTRA.DIHEDRAL.0>
5.8785

>  <SCORE.INTRA.POLAR>
0

>  <SCORE.INTRA.POLAR.0>
0

>  <SCORE.INTRA.REPUL>
0

>  <SCORE.INTRA.REPUL.0>
0

>  <SCORE.INTRA.SOLV>
-0.615272

>  <SCORE.INTRA.SOLV.lig_0>
-31.9559

>  <SCORE.INTRA.VDW>
-0.209739

>  <SCORE.INTRA.VDW.0>
-0.507645

>  <SCORE.INTRA.norm>
-0.231187

>  <SCORE.RESTR>
0

>  <SCORE.RESTR.CAVITY>
0

>  <SCORE.RESTR.norm>
0

>  <SCORE.SYSTEM>
0

>  <SCORE.SYSTEM.CONST>
0

>  <SCORE.SYSTEM.DIHEDRAL>
0

>  <SCORE.SYSTEM.SOLV>
0

>  <SCORE.SYSTEM.norm>
0

>  <SCORE.heavy>
10

>  <SCORE.norm>
-1.1295

>  <RMSD>
5.249

$$$$
ligand
 OpenBabel11021811473D
libRbt.so/2013.1/901 2013/11/27
 10  9  0  0  0  0  0  0  0  0999 V2000
   27.5066   14.4498   18.9906 N   0  0  0  0  0  0  0  0  0  0  0  0
   27.9500   15.0508   20.2761 C   0  0  2  0  0  0  0  0  0  0  0  0
   26.9045   14.8529   21.3741 C   0  0  0  0  0  0  0  0  0  0  0  0
   27.2094   14.9297   22.5602 O   0  0  0  0  0  0  0  0  0  0  0  0
   28.3076   16.5282   20.0776 C   0  0  0  0  0  0  0  0  0  0  0  0
   29.7402   16.8542   20.4872 C   0  0  0  0  0  0  0  0  0  0  0  0
   30.0088   16.5870   21.9616 C   0  0  0  0  0  0  0  0  0  0  0  0
   31.4264   17.0121   22.3463 C   0  0  0  0  0  0  0  0  0  0  0  0
   32.5192   16.2759   21.6009 N   0  0  0  0  0  0  0  0  0  0  0  0
   25.7187   14.6506   21.1392 O   0  0  0  0  0  0  0  0  0  0  0  0
  2  1  1  6  0  0  0
  2  3  1  0  0  0  0
  2  5  1  0  0  0  0
  3  4  1  0  0  0  0
  3 10  1  0  0  0  0
  5  6  1  0  0  0  0
  6  7  1  0  0  0  0
  7  8  1  0  0  0  0
  8  9  1  0  0  0  0
M  END
>  <CHROM.1>
159.49471705,-122.44688062,-61.48926202,-176.33081002,-61.12484693,28.69708095
15.71040330,21.10466272,-2.95586012,0.38029877,1.54358029

>  <Name>
ligand

>  <RI>
0

>  <Rbt.Current_Directory>
/home/itssahil/PROJECTS/Mol_Feturizer/New_Systems/rnas/3DIM

>  <Rbt.Executable>
rbdock ($Id: //depot/dev/client3/rdock/2013.1/src/exe/rbdock.cxx#4 $)

>  <Rbt.Library>
libRbt.so (2013.1, Build901 2013/11/27)

>  <Rbt.Parameter_File>
/export/apps/rDock/src/rDock_2013.1_src/data/scripts/dock_solv.prm

>  <Rbt.Receptor>
prm/pocket_docking_7.prm

>  <SCORE>
-9.43002

>  <SCORE.INTER>
-9.52717

>  <SCORE.INTER.CONST>
1

>  <SCORE.INTER.POLAR>
0

>  <SCORE.INTER.ROT>
5

>  <SCORE.INTER.SOLV>
14.0497

>  <SCORE.INTER.VDW>
-17.968

>  <SCORE.INTER.norm>
-0.952717

>  <SCORE.INTRA>
0.0971526

>  <SCORE.INTRA.DIHEDRAL>
1.34073

>  <SCORE.INTRA.DIHEDRAL.0>
5.8785

>  <SCORE.INTRA.POLAR>
0

>  <SCORE.INTRA.POLAR.0>
0

>  <SCORE.INTRA.REPUL>
0

>  <SCORE.INTRA.REPUL.0>
0

>  <SCORE.INTRA.SOLV>
-0.555973

>  <SCORE.INTRA.SOLV.lig_0>
-31.9559

>  <SCORE.INTRA.VDW>
-0.295226

>  <SCORE.INTRA.VDW.0>
-0.507645

>  <SCORE.INTRA.norm>
0.00971526

>  <SCORE.RESTR>
0

>  <SCORE.RESTR.CAVITY>
0

>  <SCORE.RESTR.norm>
0

>  <SCORE.SYSTEM>
0

>  <SCORE.SYSTEM.CONST>
0

>  <SCORE.SYSTEM.DIHEDRAL>
0

>  <SCORE.SYSTEM.SOLV>
0

>  <SCORE.SYSTEM.norm>
0

>  <SCORE.heavy>
10

>  <SCORE.norm>
-0.943002

>  <RMSD>
5.249

$$$$
ligand
 OpenBabel11021811473D
libRbt.so/2013.1/901 2013/11/27
 10  9  0  0  0  0  0  0  0  0999 V2000
   25.9536   15.3713   20.2154 N   0  0  0  0  0  0  0  0  0  0  0  0
   27.4213   15.2692   20.4297 C   0  0  2  0  0  0  0  0  0  0  0  0
   28.0861   14.4248   19.3422 C   0  0  0  0  0  0  0  0  0  0  0  0
   27.4310   13.6473   18.6551 O   0  0  0  0  0  0  0  0  0  0  0  0
   27.7179   14.7379   21.8367 C   0  0  0  0  0  0  0  0  0  0  0  0
   29.2063   14.7340   22.1700 C   0  0  0  0  0  0  0  0  0  0  0  0
   29.8093   16.1315   22.1988 C   0  0  0  0  0  0  0  0  0  0  0  0
   31.3122   16.0745   22.4751 C   0  0  0  0  0  0  0  0  0  0  0  0
   32.0025   17.4212   22.4336 N   0  0  0  0  0  0  0  0  0  0  0  0
   29.2789   14.5025   19.0713 O   0  0  0  0  0  0  0  0  0  0  0  0
  2  1  1  6  0  0  0
  2  3  1  0  0  0  0
  2  5  1  0  0  0  0
  3  4  1  0  0  0  0
  3 10  1  0  0  0  0
  5  6  1  0  0  0  0
  6  7  1  0  0  0  0
  7  8  1  0  0  0  0
  8  9  1  0  0  0  0
M  END
>  <CHROM.1>
-19.37267880,-174.52612195,63.70933628,-177.48794894,176.36666101,28.82933006
15.21000828,20.85145540,2.40991683,-0.16287749,-2.00895891

>  <Name>
ligand

>  <RI>
0

>  <Rbt.Current_Directory>
/home/itssahil/PROJECTS/Mol_Feturizer/New_Systems/rnas/3DIM

>  <Rbt.Executable>
rbdock ($Id: //depot/dev/client3/rdock/2013.1/src/exe/rbdock.cxx#4 $)

>  <Rbt.Library>
libRbt.so (2013.1, Build901 2013/11/27)

>  <Rbt.Parameter_File>
/export/apps/rDock/src/rDock_2013.1_src/data/scripts/dock_solv.prm

>  <Rbt.Receptor>
prm/pocket_docking_3.prm

>  <SCORE>
-10.9613

>  <SCORE.INTER>
-8.04878

>  <SCORE.INTER.CONST>
1

>  <SCORE.INTER.POLAR>
0

>  <SCORE.INTER.ROT>
5

>  <SCORE.INTER.SOLV>
17.2927

>  <SCORE.INTER.VDW>
-18.0634

>  <SCORE.INTER.norm>
-0.804878

>  <SCORE.INTRA>
-2.91247

>  <SCORE.INTRA.DIHEDRAL>
-4.06029

>  <SCORE.INTRA.DIHEDRAL.0>
5.8785

>  <SCORE.INTRA.POLAR>
0

>  <SCORE.INTRA.POLAR.0>
0

>  <SCORE.INTRA.REPUL>
0

>  <SCORE.INTRA.REPUL.0>
0

>  <SCORE.INTRA.SOLV>
-1.59342

>  <SCORE.INTRA.SOLV.lig_0>
-31.9559

>  <SCORE.INTRA.VDW>
-0.0856153

>  <SCORE.INTRA.VDW.0>
-0.507645

>  <SCORE.INTRA.norm>
-0.291247

>  <SCORE.RESTR>
0

>  <SCORE.RESTR.CAVITY>
0

>  <SCORE.RESTR.norm>
0

>  <SCORE.SYSTEM>
0

>  <SCORE.SYSTEM.CONST>
0

>  <SCORE.SYSTEM.DIHEDRAL>
0

>  <SCORE.SYSTEM.SOLV>
0

>  <SCORE.SYSTEM.norm>
0

>  <SCORE.heavy>
10

>  <SCORE.norm>
-1.09613

>  <RMSD>
5.253

$$$$
ligand
 OpenBabel11021811473D
libRbt.so/2013.1/901 2013/11/27
 10  9  0  0  0  0  0  0  0  0999 V2000
   27.2661   14.0042   18.9255 N   0  0  0  0  0  0  0  0  0  0  0  0
   27.8969   14.7786   20.0267 C   0  0  2  0  0  0  0  0  0  0  0  0
   26.9820   14.8555   21.2495 C   0  0  0  0  0  0  0  0  0  0  0  0
   25.7644   14.7546   21.1366 O   0  0  0  0  0  0  0  0  0  0  0  0
   28.3150   16.1670   19.5292 C   0  0  0  0  0  0  0  0  0  0  0  0
   29.2355   16.8959   20.5028 C   0  0  0  0  0  0  0  0  0  0  0  0
   30.5818   16.2058   20.6726 C   0  0  0  0  0  0  0  0  0  0  0  0
   31.4551   16.9493   21.6839 C   0  0  0  0  0  0  0  0  0  0  0  0
   30.8653   17.0255   23.0760 N   0  0  0  0  0  0  0  0  0  0  0  0
   27.4043   14.9790   22.3934 O   0  0  0  0  0  0  0  0  0  0  0  0
  2  1  1  6  0  0  0
  2  3  1  0  0  0  0
  2  5  1  0  0  0  0
  3  4  1  0  0  0  0
  3 10  1  0  0  0  0
  5  6  1  0  0  0  0
  6  7  1  0  0  0  0
  7  8  1  0  0  0  0
  8  9  1  0  0  0  0
M  END
>  <CHROM.1>
-25.45130214,-167.29076906,65.10593207,-178.46541457,61.07619428,28.54842136
15.65718132,20.94489299,-2.80434573,0.46157310,1.44279064

>  <Name>
ligand

>  <RI>
0

>  <Rbt.Current_Directory>
/home/itssahil/PROJECTS/Mol_Feturizer/New_Systems/rnas/3DIM

>  <Rbt.Executable>
rbdock ($Id: //depot/dev/client3/rdock/2013.1/src/exe/rbdock.cxx#4 $)

>  <Rbt.Library>
libRbt.so (2013.1, Build901 2013/11/27)

>  <Rbt.Parameter_File>
/export/apps/rDock/src/rDock_2013.1_src/data/scripts/dock_solv.prm

>  <Rbt.Receptor>
prm/pocket_docking_8.prm

>  <SCORE>
-11.1934

>  <SCORE.INTER>
-8.832

>  <SCORE.INTER.CONST>
1

>  <SCORE.INTER.POLAR>
0

>  <SCORE.INTER.ROT>
5

>  <SCORE.INTER.SOLV>
15.6796

>  <SCORE.INTER.VDW>
-18.0479

>  <SCORE.INTER.norm>
-0.8832

>  <SCORE.INTRA>
-2.36137

>  <SCORE.INTRA.DIHEDRAL>
-3.58224

>  <SCORE.INTRA.DIHEDRAL.0>
5.8785

>  <SCORE.INTRA.POLAR>
0

>  <SCORE.INTRA.POLAR.0>
0

>  <SCORE.INTRA.REPUL>
0

>  <SCORE.INTRA.REPUL.0>
0

>  <SCORE.INTRA.SOLV>
-0.628321

>  <SCORE.INTRA.SOLV.lig_0>
-31.9559

>  <SCORE.INTRA.VDW>
-0.256087

>  <SCORE.INTRA.VDW.0>
-0.507645

>  <SCORE.INTRA.norm>
-0.236137

>  <SCORE.RESTR>
0

>  <SCORE.RESTR.CAVITY>
0

>  <SCORE.RESTR.norm>
0

>  <SCORE.SYSTEM>
0

>  <SCORE.SYSTEM.CONST>
0

>  <SCORE.SYSTEM.DIHEDRAL>
0

>  <SCORE.SYSTEM.SOLV>
0

>  <SCORE.SYSTEM.norm>
0

>  <SCORE.heavy>
10

>  <SCORE.norm>
-1.11934

>  <RMSD>
5.253

$$$$
ligand
 OpenBabel11021811473D
libRbt.so/2013.1/901 2013/11/27
 10  9  0  0  0  0  0  0  0  0999 V2000
   25.9415   15.3726   20.2786 N   0  0  0  0  0  0  0  0  0  0  0  0
   27.4110   15.2702   20.4801 C   0  0  2  0  0  0  0  0  0  0  0  0
   28.0660   14.4249   19.3873 C   0  0  0  0  0  0  0  0  0  0  0  0
   27.4023   13.6577   18.6970 O   0  0  0  0  0  0  0  0  0  0  0  0
   27.7198   14.7396   21.8847 C   0  0  0  0  0  0  0  0  0  0  0  0
   29.2112   14.7349   22.2048 C   0  0  0  0  0  0  0  0  0  0  0  0
   29.8200   16.1302   22.2051 C   0  0  0  0  0  0  0  0  0  0  0  0
   31.3204   16.0734   22.4947 C   0  0  0  0  0  0  0  0  0  0  0  0
   32.0171   17.4157   22.4266 N   0  0  0  0  0  0  0  0  0  0  0  0
   29.2592   14.4921   19.1153 O   0  0  0  0  0  0  0  0  0  0  0  0
  2  1  1  6  0  0  0
  2  3  1  0  0  0  0
  2  5  1  0  0  0  0
  3  4  1  0  0  0  0
  3 10  1  0  0  0  0
  5  6  1  0  0  0  0
  6  7  1  0  0  0  0
  7  8  1  0  0  0  0
  8  9  1  0  0  0  0
M  END
>  <CHROM.1>
-18.59103210,-174.55100501,62.78333887,-178.54437474,176.36284750,28.82398568
15.20970600,20.88603772,2.42073135,-0.16580691,-2.00762768

>  <Name>
ligand

>  <RI>
0

>  <Rbt.Current_Directory>
/home/itssahil/PROJECTS/Mol_Feturizer/New_Systems/rnas/3DIM

>  <Rbt.Executable>
rbdock ($Id: //depot/dev/client3/rdock/2013.1/src/exe/rbdock.cxx#4 $)

>  <Rbt.Library>
libRbt.so (2013.1, Build901 2013/11/27)

>  <Rbt.Parameter_File>
/export/apps/rDock/src/rDock_2013.1_src/data/scripts/dock_solv.prm

>  <Rbt.Receptor>
prm/pocket_docking_5.prm

>  <SCORE>
-10.948

>  <SCORE.INTER>
-8.04466

>  <SCORE.INTER.CONST>
1

>  <SCORE.INTER.POLAR>
0

>  <SCORE.INTER.ROT>
5

>  <SCORE.INTER.SOLV>
17.3252

>  <SCORE.INTER.VDW>
-18.0715

>  <SCORE.INTER.norm>
-0.804466

>  <SCORE.INTRA>
-2.90332

>  <SCORE.INTRA.DIHEDRAL>
-4.1054

>  <SCORE.INTRA.DIHEDRAL.0>
5.8785

>  <SCORE.INTRA.POLAR>
0

>  <SCORE.INTRA.POLAR.0>
0

>  <SCORE.INTRA.REPUL>
0

>  <SCORE.INTRA.REPUL.0>
0

>  <SCORE.INTRA.SOLV>
-1.589

>  <SCORE.INTRA.SOLV.lig_0>
-31.9559

>  <SCORE.INTRA.VDW>
-0.0561232

>  <SCORE.INTRA.VDW.0>
-0.507645

>  <SCORE.INTRA.norm>
-0.290332

>  <SCORE.RESTR>
0

>  <SCORE.RESTR.CAVITY>
0

>  <SCORE.RESTR.norm>
0

>  <SCORE.SYSTEM>
0

>  <SCORE.SYSTEM.CONST>
0

>  <SCORE.SYSTEM.DIHEDRAL>
0

>  <SCORE.SYSTEM.SOLV>
0

>  <SCORE.SYSTEM.norm>
0

>  <SCORE.heavy>
10

>  <SCORE.norm>
-1.0948

>  <RMSD>
5.257

$$$$
ligand
 OpenBabel11021811473D
libRbt.so/2013.1/901 2013/11/27
 10  9  0  0  0  0  0  0  0  0999 V2000
   27.9878   15.0093   19.1021 N   0  0  0  0  0  0  0  0  0  0  0  0
   28.1859   14.4837   20.4787 C   0  0  2  0  0  0  0  0  0  0  0  0
   27.0048   14.8340   21.3845 C   0  0  0  0  0  0  0  0  0  0  0  0
   25.8672   14.9268   20.9341 O   0  0  0  0  0  0  0  0  0  0  0  0
   29.5195   14.9782   21.0503 C   0  0  0  0  0  0  0  0  0  0  0  0
   29.6310   16.4993   21.0711 C   0  0  0  0  0  0  0  0  0  0  0  0
   30.9588   16.9870   21.6336 C   0  0  0  0  0  0  0  0  0  0  0  0
   32.1205   16.5832   20.7249 C   0  0  0  0  0  0  0  0  0  0  0  0
   33.4796   17.0312   21.2185 N   0  0  0  0  0  0  0  0  0  0  0  0
   27.1160   14.9993   22.5938 O   0  0  0  0  0  0  0  0  0  0  0  0
  2  1  1  6  0  0  0
  2  3  1  0  0  0  0
  2  5  1  0  0  0  0
  3  4  1  0  0  0  0
  3 10  1  0  0  0  0
  5  6  1  0  0  0  0
  6  7  1  0  0  0  0
  7  8  1  0  0  0  0
  8  9  1  0  0  0  0
M  END
>  <CHROM.1>
31.75574820,57.36362012,-179.74632813,65.62174246,-179.91005015,29.14964212
15.63397229,21.03888317,-3.05359980,0.33603540,1.32534810

>  <Name>
ligand

>  <RI>
0

>  <Rbt.Current_Directory>
/home/itssahil/PROJECTS/Mol_Feturizer/New_Systems/rnas/3DIM

>  <Rbt.Executable>
rbdock ($Id: //depot/dev/client3/rdock/2013.1/src/exe/rbdock.cxx#4 $)

>  <Rbt.Library>
libRbt.so (2013.1, Build901 2013/11/27)

>  <Rbt.Parameter_File>
/export/apps/rDock/src/rDock_2013.1_src/data/scripts/dock_solv.prm

>  <Rbt.Receptor>
prm/pocket_docking_6.prm

>  <SCORE>
-11.2687

>  <SCORE.INTER>
-9.57832

>  <SCORE.INTER.CONST>
1

>  <SCORE.INTER.POLAR>
0

>  <SCORE.INTER.ROT>
5

>  <SCORE.INTER.SOLV>
13.6407

>  <SCORE.INTER.VDW>
-17.8658

>  <SCORE.INTER.norm>
-0.957832

>  <SCORE.INTRA>
-1.69033

>  <SCORE.INTRA.DIHEDRAL>
-4.29012

>  <SCORE.INTRA.DIHEDRAL.0>
5.8785

>  <SCORE.INTRA.POLAR>
0

>  <SCORE.INTRA.POLAR.0>
0

>  <SCORE.INTRA.REPUL>
0

>  <SCORE.INTRA.REPUL.0>
0

>  <SCORE.INTRA.SOLV>
-0.704069

>  <SCORE.INTRA.SOLV.lig_0>
-31.9559

>  <SCORE.INTRA.VDW>
0.806762

>  <SCORE.INTRA.VDW.0>
-0.507645

>  <SCORE.INTRA.norm>
-0.169033

>  <SCORE.RESTR>
0

>  <SCORE.RESTR.CAVITY>
0

>  <SCORE.RESTR.norm>
0

>  <SCORE.SYSTEM>
0

>  <SCORE.SYSTEM.CONST>
0

>  <SCORE.SYSTEM.DIHEDRAL>
0

>  <SCORE.SYSTEM.SOLV>
0

>  <SCORE.SYSTEM.norm>
0

>  <SCORE.heavy>
10

>  <SCORE.norm>
-1.12687

>  <RMSD>
5.261

$$$$
ligand
 OpenBabel11021811473D
libRbt.so/2013.1/901 2013/11/27
 10  9  0  0  0  0  0  0  0  0999 V2000
   28.1168   14.2647   19.0320 N   0  0  0  0  0  0  0  0  0  0  0  0
   28.2926   14.3442   20.5062 C   0  0  2  0  0  0  0  0  0  0  0  0
   27.0181   14.8348   21.1939 C   0  0  0  0  0  0  0  0  0  0  0  0
   26.9460   14.9068   22.4167 O   0  0  0  0  0  0  0  0  0  0  0  0
   29.5071   15.2136   20.8512 C   0  0  0  0  0  0  0  0  0  0  0  0
   29.8227   15.2302   22.3434 C   0  0  0  0  0  0  0  0  0  0  0  0
   31.1672   15.8722   22.6561 C   0  0  0  0  0  0  0  0  0  0  0  0
   31.1701   17.3525   22.2724 C   0  0  0  0  0  0  0  0  0  0  0  0
   32.5015   18.0438   22.4753 N   0  0  0  0  0  0  0  0  0  0  0  0
   26.0296   15.2148   20.5770 O   0  0  0  0  0  0  0  0  0  0  0  0
  2  1  1  6  0  0  0
  2  3  1  0  0  0  0
  2  5  1  0  0  0  0
  3  4  1  0  0  0  0
  3 10  1  0  0  0  0
  5  6  1  0  0  0  0
  6  7  1  0  0  0  0
  7  8  1  0  0  0  0
  8  9  1  0  0  0  0
M  END
>  <CHROM.1>
176.56107489,-174.58338687,169.25296528,64.25165805,-176.49501977,29.01957425
15.53288063,21.44443211,-2.65662616,0.31062321,1.16482983

>  <Name>
ligand

>  <RI>
0

>  <Rbt.Current_Directory>
/home/itssahil/PROJECTS/Mol_Feturizer/New_Systems/rnas/3DIM

>  <Rbt.Executable>
rbdock ($Id: //depot/dev/client3/rdock/2013.1/src/exe/rbdock.cxx#4 $)

>  <Rbt.Library>
libRbt.so (2013.1, Build901 2013/11/27)

>  <Rbt.Parameter_File>
/export/apps/rDock/src/rDock_2013.1_src/data/scripts/dock_solv.prm

>  <Rbt.Receptor>
prm/pocket_docking_7.prm

>  <SCORE>
-11.1633

>  <SCORE.INTER>
-9.33021

>  <SCORE.INTER.CONST>
1

>  <SCORE.INTER.POLAR>
0

>  <SCORE.INTER.ROT>
5

>  <SCORE.INTER.SOLV>
13.9395

>  <SCORE.INTER.VDW>
-17.8

>  <SCORE.INTER.norm>
-0.933021

>  <SCORE.INTRA>
-1.83314

>  <SCORE.INTRA.DIHEDRAL>
-3.69928

>  <SCORE.INTRA.DIHEDRAL.0>
5.8785

>  <SCORE.INTRA.POLAR>
0

>  <SCORE.INTRA.POLAR.0>
0

>  <SCORE.INTRA.REPUL>
0

>  <SCORE.INTRA.REPUL.0>
0

>  <SCORE.INTRA.SOLV>
-1.62993

>  <SCORE.INTRA.SOLV.lig_0>
-31.9559

>  <SCORE.INTRA.VDW>
0.831462

>  <SCORE.INTRA.VDW.0>
-0.507645

>  <SCORE.INTRA.norm>
-0.183314

>  <SCORE.RESTR>
0

>  <SCORE.RESTR.CAVITY>
0

>  <SCORE.RESTR.norm>
0

>  <SCORE.SYSTEM>
0

>  <SCORE.SYSTEM.CONST>
0

>  <SCORE.SYSTEM.DIHEDRAL>
0

>  <SCORE.SYSTEM.SOLV>
0

>  <SCORE.SYSTEM.norm>
0

>  <SCORE.heavy>
10

>  <SCORE.norm>
-1.11633

>  <RMSD>
5.265

$$$$
ligand
 OpenBabel11021811473D
libRbt.so/2013.1/901 2013/11/27
 10  9  0  0  0  0  0  0  0  0999 V2000
   27.9892   15.0285   19.1003 N   0  0  0  0  0  0  0  0  0  0  0  0
   28.1728   14.4909   20.4742 C   0  0  2  0  0  0  0  0  0  0  0  0
   26.9724   14.8142   21.3644 C   0  0  0  0  0  0  0  0  0  0  0  0
   27.1066   14.9801   22.5728 O   0  0  0  0  0  0  0  0  0  0  0  0
   29.4898   14.9984   21.0726 C   0  0  0  0  0  0  0  0  0  0  0  0
   29.5781   16.5206   21.1125 C   0  0  0  0  0  0  0  0  0  0  0  0
   30.8950   17.0214   21.6891 C   0  0  0  0  0  0  0  0  0  0  0  0
   32.0697   16.6331   20.7904 C   0  0  0  0  0  0  0  0  0  0  0  0
   33.4195   17.0906   21.3008 N   0  0  0  0  0  0  0  0  0  0  0  0
   25.8371   14.9633   20.9274 O   0  0  0  0  0  0  0  0  0  0  0  0
  2  1  1  6  0  0  0
  2  3  1  0  0  0  0
  2  5  1  0  0  0  0
  3  4  1  0  0  0  0
  3 10  1  0  0  0  0
  5  6  1  0  0  0  0
  6  7  1  0  0  0  0
  7  8  1  0  0  0  0
  8  9  1  0  0  0  0
M  END
>  <CHROM.1>
-149.39735620,57.41073614,-179.18873228,65.00862055,-179.70974926,29.11577478
15.65521030,21.05995561,-3.03703511,0.34128686,1.32511096

>  <Name>
ligand

>  <RI>
0

>  <Rbt.Current_Directory>
/home/itssahil/PROJECTS/Mol_Feturizer/New_Systems/rnas/3DIM

>  <Rbt.Executable>
rbdock ($Id: //depot/dev/client3/rdock/2013.1/src/exe/rbdock.cxx#4 $)

>  <Rbt.Library>
libRbt.so (2013.1, Build901 2013/11/27)

>  <Rbt.Parameter_File>
/export/apps/rDock/src/rDock_2013.1_src/data/scripts/dock_solv.prm

>  <Rbt.Receptor>
prm/pocket_docking_4.prm

>  <SCORE>
-11.0657

>  <SCORE.INTER>
-9.58435

>  <SCORE.INTER.CONST>
1

>  <SCORE.INTER.POLAR>
0

>  <SCORE.INTER.ROT>
5

>  <SCORE.INTER.SOLV>
13.4952

>  <SCORE.INTER.VDW>
-17.8213

>  <SCORE.INTER.norm>
-0.958435

>  <SCORE.INTRA>
-1.48132

>  <SCORE.INTRA.DIHEDRAL>
-4.15008

>  <SCORE.INTRA.DIHEDRAL.0>
5.8785

>  <SCORE.INTRA.POLAR>
0

>  <SCORE.INTRA.POLAR.0>
0

>  <SCORE.INTRA.REPUL>
0

>  <SCORE.INTRA.REPUL.0>
0

>  <SCORE.INTRA.SOLV>
-0.698442

>  <SCORE.INTRA.SOLV.lig_0>
-31.9559

>  <SCORE.INTRA.VDW>
0.942946

>  <SCORE.INTRA.VDW.0>
-0.507645

>  <SCORE.INTRA.norm>
-0.148132

>  <SCORE.RESTR>
0

>  <SCORE.RESTR.CAVITY>
0

>  <SCORE.RESTR.norm>
0

>  <SCORE.SYSTEM>
0

>  <SCORE.SYSTEM.CONST>
0

>  <SCORE.SYSTEM.DIHEDRAL>
0

>  <SCORE.SYSTEM.SOLV>
0

>  <SCORE.SYSTEM.norm>
0

>  <SCORE.heavy>
10

>  <SCORE.norm>
-1.10657

>  <RMSD>
5.266

$$$$
ligand
 OpenBabel11021811473D
libRbt.so/2013.1/901 2013/11/27
 10  9  0  0  0  0  0  0  0  0999 V2000
   25.9165   15.3473   20.3027 N   0  0  0  0  0  0  0  0  0  0  0  0
   27.3899   15.2563   20.4791 C   0  0  2  0  0  0  0  0  0  0  0  0
   28.0342   14.4264   19.3682 C   0  0  0  0  0  0  0  0  0  0  0  0
   29.2346   14.5120   19.1290 O   0  0  0  0  0  0  0  0  0  0  0  0
   27.7265   14.7163   21.8737 C   0  0  0  0  0  0  0  0  0  0  0  0
   29.2226   14.7258   22.1706 C   0  0  0  0  0  0  0  0  0  0  0  0
   29.8125   16.1291   22.1900 C   0  0  0  0  0  0  0  0  0  0  0  0
   31.3187   16.0869   22.4503 C   0  0  0  0  0  0  0  0  0  0  0  0
   31.9919   17.4425   22.4211 N   0  0  0  0  0  0  0  0  0  0  0  0
   27.4113   13.6149   18.6932 O   0  0  0  0  0  0  0  0  0  0  0  0
  2  1  1  6  0  0  0
  2  3  1  0  0  0  0
  2  5  1  0  0  0  0
  3  4  1  0  0  0  0
  3 10  1  0  0  0  0
  5  6  1  0  0  0  0
  6  7  1  0  0  0  0
  7  8  1  0  0  0  0
  8  9  1  0  0  0  0
M  END
>  <CHROM.1>
160.96947630,-174.39050492,63.42319354,-178.34230926,177.32039146,28.81344928
15.20412547,20.87687712,2.42232820,-0.17020639,-2.01575441

>  <Name>
ligand

>  <RI>
0

>  <Rbt.Current_Directory>
/home/itssahil/PROJECTS/Mol_Feturizer/New_Systems/rnas/3DIM

>  <Rbt.Executable>
rbdock ($Id: //depot/dev/client3/rdock/2013.1/src/exe/rbdock.cxx#4 $)

>  <Rbt.Library>
libRbt.so (2013.1, Build901 2013/11/27)

>  <Rbt.Parameter_File>
/export/apps/rDock/src/rDock_2013.1_src/data/scripts/dock_solv.prm

>  <Rbt.Receptor>
prm/pocket_docking_4.prm

>  <SCORE>
-10.9826

>  <SCORE.INTER>
-7.99572

>  <SCORE.INTER.CONST>
1

>  <SCORE.INTER.POLAR>
0

>  <SCORE.INTER.ROT>
5

>  <SCORE.INTER.SOLV>
17.3653

>  <SCORE.INTER.VDW>
-18.0523

>  <SCORE.INTER.norm>
-0.799572

>  <SCORE.INTRA>
-2.98692

>  <SCORE.INTRA.DIHEDRAL>
-4.24839

>  <SCORE.INTRA.DIHEDRAL.0>
5.8785

>  <SCORE.INTRA.POLAR>
0

>  <SCORE.INTRA.POLAR.0>
0

>  <SCORE.INTRA.REPUL>
0

>  <SCORE.INTRA.REPUL.0>
0

>  <SCORE.INTRA.SOLV>
-1.61323

>  <SCORE.INTRA.SOLV.lig_0>
-31.9559

>  <SCORE.INTRA.VDW>
-0.056109

>  <SCORE.INTRA.VDW.0>
-0.507645

>  <SCORE.INTRA.norm>
-0.298692

>  <SCORE.RESTR>
0

>  <SCORE.RESTR.CAVITY>
0

>  <SCORE.RESTR.norm>
0

>  <SCORE.SYSTEM>
0

>  <SCORE.SYSTEM.CONST>
0

>  <SCORE.SYSTEM.DIHEDRAL>
0

>  <SCORE.SYSTEM.SOLV>
0

>  <SCORE.SYSTEM.norm>
0

>  <SCORE.heavy>
10

>  <SCORE.norm>
-1.09826

>  <RMSD>
5.266

$$$$
ligand
 OpenBabel11021811473D
libRbt.so/2013.1/901 2013/11/27
 10  9  0  0  0  0  0  0  0  0999 V2000
   27.9936   15.0328   19.1117 N   0  0  0  0  0  0  0  0  0  0  0  0
   28.1769   14.4964   20.4861 C   0  0  2  0  0  0  0  0  0  0  0  0
   26.9843   14.8359   21.3808 C   0  0  0  0  0  0  0  0  0  0  0  0
   25.8499   14.9170   20.9200 O   0  0  0  0  0  0  0  0  0  0  0  0
   29.5023   14.9898   21.0776 C   0  0  0  0  0  0  0  0  0  0  0  0
   29.6156   16.5108   21.0979 C   0  0  0  0  0  0  0  0  0  0  0  0
   30.9476   16.9970   21.6518 C   0  0  0  0  0  0  0  0  0  0  0  0
   32.1018   16.6007   20.7304 C   0  0  0  0  0  0  0  0  0  0  0  0
   33.4690   17.0072   21.2378 N   0  0  0  0  0  0  0  0  0  0  0  0
   27.0828   15.0033   22.5909 O   0  0  0  0  0  0  0  0  0  0  0  0
  2  1  1  6  0  0  0
  2  3  1  0  0  0  0
  2  5  1  0  0  0  0
  3  4  1  0  0  0  0
  3 10  1  0  0  0  0
  5  6  1  0  0  0  0
  6  7  1  0  0  0  0
  7  8  1  0  0  0  0
  8  9  1  0  0  0  0
M  END
>  <CHROM.1>
32.43554401,56.72159328,-178.48635685,66.02675248,-177.97365439,29.13465996
15.63964458,21.04790728,-3.05291307,0.33476015,1.32952323

>  <Name>
ligand

>  <RI>
0

>  <Rbt.Current_Directory>
/home/itssahil/PROJECTS/Mol_Feturizer/New_Systems/rnas/3DIM

>  <Rbt.Executable>
rbdock ($Id: //depot/dev/client3/rdock/2013.1/src/exe/rbdock.cxx#4 $)

>  <Rbt.Library>
libRbt.so (2013.1, Build901 2013/11/27)

>  <Rbt.Parameter_File>
/export/apps/rDock/src/rDock_2013.1_src/data/scripts/dock_solv.prm

>  <Rbt.Receptor>
prm/pocket_docking_5.prm

>  <SCORE>
-11.3066

>  <SCORE.INTER>
-9.65324

>  <SCORE.INTER.CONST>
1

>  <SCORE.INTER.POLAR>
0

>  <SCORE.INTER.ROT>
5

>  <SCORE.INTER.SOLV>
13.5608

>  <SCORE.INTER.VDW>
-17.8891

>  <SCORE.INTER.norm>
-0.965324

>  <SCORE.INTRA>
-1.65334

>  <SCORE.INTRA.DIHEDRAL>
-4.22938

>  <SCORE.INTRA.DIHEDRAL.0>
5.8785

>  <SCORE.INTRA.POLAR>
0

>  <SCORE.INTRA.POLAR.0>
0

>  <SCORE.INTRA.REPUL>
0

>  <SCORE.INTRA.REPUL.0>
0

>  <SCORE.INTRA.SOLV>
-0.671003

>  <SCORE.INTRA.SOLV.lig_0>
-31.9559

>  <SCORE.INTRA.VDW>
0.796852

>  <SCORE.INTRA.VDW.0>
-0.507645

>  <SCORE.INTRA.norm>
-0.165334

>  <SCORE.RESTR>
0

>  <SCORE.RESTR.CAVITY>
0

>  <SCORE.RESTR.norm>
0

>  <SCORE.SYSTEM>
0

>  <SCORE.SYSTEM.CONST>
0

>  <SCORE.SYSTEM.DIHEDRAL>
0

>  <SCORE.SYSTEM.SOLV>
0

>  <SCORE.SYSTEM.norm>
0

>  <SCORE.heavy>
10

>  <SCORE.norm>
-1.13066

>  <RMSD>
5.266

$$$$
ligand
 OpenBabel11021811473D
libRbt.so/2013.1/901 2013/11/27
 10  9  0  0  0  0  0  0  0  0999 V2000
   25.8784   15.1046   20.8112 N   0  0  0  0  0  0  0  0  0  0  0  0
   27.3476   15.3286   20.7723 C   0  0  2  0  0  0  0  0  0  0  0  0
   27.9242   15.0073   19.3930 C   0  0  0  0  0  0  0  0  0  0  0  0
   27.8155   13.8859   18.9068 O   0  0  0  0  0  0  0  0  0  0  0  0
   28.0369   14.5331   21.8867 C   0  0  0  0  0  0  0  0  0  0  0  0
   29.5526   14.7040   21.8901 C   0  0  0  0  0  0  0  0  0  0  0  0
   29.9884   16.1068   22.2896 C   0  0  0  0  0  0  0  0  0  0  0  0
   31.5129   16.2133   22.3416 C   0  0  0  0  0  0  0  0  0  0  0  0
   32.0276   17.5972   22.6755 N   0  0  0  0  0  0  0  0  0  0  0  0
   28.4809   15.8429   18.6902 O   0  0  0  0  0  0  0  0  0  0  0  0
  2  1  1  6  0  0  0
  2  3  1  0  0  0  0
  2  5  1  0  0  0  0
  3  4  1  0  0  0  0
  3 10  1  0  0  0  0
  5  6  1  0  0  0  0
  6  7  1  0  0  0  0
  7  8  1  0  0  0  0
  8  9  1  0  0  0  0
M  END
>  <CHROM.1>
-59.65194061,179.18933303,68.54950791,177.38737884,177.54788457,28.86076554
15.42303417,20.92873600,2.58402455,-0.42673119,-1.57988449

>  <Name>
ligand

>  <RI>
0

>  <Rbt.Current_Directory>
/home/itssahil/PROJECTS/Mol_Feturizer/New_Systems/rnas/3DIM

>  <Rbt.Executable>
rbdock ($Id: //depot/dev/client3/rdock/2013.1/src/exe/rbdock.cxx#4 $)

>  <Rbt.Library>
libRbt.so (2013.1, Build901 2013/11/27)

>  <Rbt.Parameter_File>
/export/apps/rDock/src/rDock_2013.1_src/data/scripts/dock_solv.prm

>  <Rbt.Receptor>
prm/pocket_docking_6.prm

>  <SCORE>
-10.1813

>  <SCORE.INTER>
-7.19405

>  <SCORE.INTER.CONST>
1

>  <SCORE.INTER.POLAR>
0

>  <SCORE.INTER.ROT>
5

>  <SCORE.INTER.SOLV>
17.9413

>  <SCORE.INTER.VDW>
-17.7098

>  <SCORE.INTER.norm>
-0.719405

>  <SCORE.INTRA>
-2.98722

>  <SCORE.INTRA.DIHEDRAL>
-4.02185

>  <SCORE.INTRA.DIHEDRAL.0>
5.8785

>  <SCORE.INTRA.POLAR>
0

>  <SCORE.INTRA.POLAR.0>
0

>  <SCORE.INTRA.REPUL>
0

>  <SCORE.INTRA.REPUL.0>
0

>  <SCORE.INTRA.SOLV>
-1.6743

>  <SCORE.INTRA.SOLV.lig_0>
-31.9559

>  <SCORE.INTRA.VDW>
-0.139148

>  <SCORE.INTRA.VDW.0>
-0.507645

>  <SCORE.INTRA.norm>
-0.298722

>  <SCORE.RESTR>
0

>  <SCORE.RESTR.CAVITY>
0

>  <SCORE.RESTR.norm>
0

>  <SCORE.SYSTEM>
0

>  <SCORE.SYSTEM.CONST>
0

>  <SCORE.SYSTEM.DIHEDRAL>
0

>  <SCORE.SYSTEM.SOLV>
0

>  <SCORE.SYSTEM.norm>
0

>  <SCORE.heavy>
10

>  <SCORE.norm>
-1.01813

>  <RMSD>
5.266

$$$$
ligand
 OpenBabel11021811473D
libRbt.so/2013.1/901 2013/11/27
 10  9  0  0  0  0  0  0  0  0999 V2000
   27.3529   14.3758   18.8600 N   0  0  0  0  0  0  0  0  0  0  0  0
   27.9759   14.8225   20.1338 C   0  0  2  0  0  0  0  0  0  0  0  0
   26.9644   14.8194   21.2804 C   0  0  0  0  0  0  0  0  0  0  0  0
   27.3328   14.8638   22.4500 O   0  0  0  0  0  0  0  0  0  0  0  0
   28.6379   16.1930   19.9505 C   0  0  0  0  0  0  0  0  0  0  0  0
   29.4962   16.6038   21.1426 C   0  0  0  0  0  0  0  0  0  0  0  0
   30.6720   15.6654   21.3757 C   0  0  0  0  0  0  0  0  0  0  0  0
   31.5118   16.1248   22.5681 C   0  0  0  0  0  0  0  0  0  0  0  0
   32.1965   17.4600   22.3676 N   0  0  0  0  0  0  0  0  0  0  0  0
   25.7518   14.8134   21.1019 O   0  0  0  0  0  0  0  0  0  0  0  0
  2  1  1  6  0  0  0
  2  3  1  0  0  0  0
  2  5  1  0  0  0  0
  3  4  1  0  0  0  0
  3 10  1  0  0  0  0
  5  6  1  0  0  0  0
  6  7  1  0  0  0  0
  7  8  1  0  0  0  0
  8  9  1  0  0  0  0
M  END
>  <CHROM.1>
163.61661621,-170.21863222,62.83098852,179.33257318,-64.86300850,28.75799051
15.56967351,21.14627300,-2.83163639,0.37566366,1.51784650

>  <Name>
ligand

>  <RI>
0

>  <Rbt.Current_Directory>
/home/itssahil/PROJECTS/Mol_Feturizer/New_Systems/rnas/3DIM

>  <Rbt.Executable>
rbdock ($Id: //depot/dev/client3/rdock/2013.1/src/exe/rbdock.cxx#4 $)

>  <Rbt.Library>
libRbt.so (2013.1, Build901 2013/11/27)

>  <Rbt.Parameter_File>
/export/apps/rDock/src/rDock_2013.1_src/data/scripts/dock_solv.prm

>  <Rbt.Receptor>
prm/pocket_docking_4.prm

>  <SCORE>
-12.3807

>  <SCORE.INTER>
-9.99774

>  <SCORE.INTER.CONST>
1

>  <SCORE.INTER.POLAR>
0

>  <SCORE.INTER.ROT>
5

>  <SCORE.INTER.SOLV>
14.059

>  <SCORE.INTER.VDW>
-18.2848

>  <SCORE.INTER.norm>
-0.999774

>  <SCORE.INTRA>
-2.38296

>  <SCORE.INTRA.DIHEDRAL>
-3.96893

>  <SCORE.INTRA.DIHEDRAL.0>
5.8785

>  <SCORE.INTRA.POLAR>
0

>  <SCORE.INTRA.POLAR.0>
0

>  <SCORE.INTRA.REPUL>
0

>  <SCORE.INTRA.REPUL.0>
0

>  <SCORE.INTRA.SOLV>
-0.720087

>  <SCORE.INTRA.SOLV.lig_0>
-31.9559

>  <SCORE.INTRA.VDW>
-0.0384564

>  <SCORE.INTRA.VDW.0>
-0.507645

>  <SCORE.INTRA.norm>
-0.238296

>  <SCORE.RESTR>
0

>  <SCORE.RESTR.CAVITY>
0

>  <SCORE.RESTR.norm>
0

>  <SCORE.SYSTEM>
0

>  <SCORE.SYSTEM.CONST>
0

>  <SCORE.SYSTEM.DIHEDRAL>
0

>  <SCORE.SYSTEM.SOLV>
0

>  <SCORE.SYSTEM.norm>
0

>  <SCORE.heavy>
10

>  <SCORE.norm>
-1.23807

>  <RMSD>
5.267

$$$$
ligand
 OpenBabel11021811473D
libRbt.so/2013.1/901 2013/11/27
 10  9  0  0  0  0  0  0  0  0999 V2000
   27.9820   15.0202   19.1040 N   0  0  0  0  0  0  0  0  0  0  0  0
   28.1723   14.4890   20.4795 C   0  0  2  0  0  0  0  0  0  0  0  0
   26.9826   14.8289   21.3779 C   0  0  0  0  0  0  0  0  0  0  0  0
   25.8467   14.9096   20.9209 O   0  0  0  0  0  0  0  0  0  0  0  0
   29.4990   14.9875   21.0637 C   0  0  0  0  0  0  0  0  0  0  0  0
   29.6141   16.5085   21.0665 C   0  0  0  0  0  0  0  0  0  0  0  0
   30.9429   16.9996   21.6238 C   0  0  0  0  0  0  0  0  0  0  0  0
   32.1063   16.5615   20.7333 C   0  0  0  0  0  0  0  0  0  0  0  0
   33.4670   17.0050   21.2267 N   0  0  0  0  0  0  0  0  0  0  0  0
   27.0851   14.9972   22.5876 O   0  0  0  0  0  0  0  0  0  0  0  0
  2  1  1  6  0  0  0
  2  3  1  0  0  0  0
  2  5  1  0  0  0  0
  3  4  1  0  0  0  0
  3 10  1  0  0  0  0
  5  6  1  0  0  0  0
  6  7  1  0  0  0  0
  7  8  1  0  0  0  0
  8  9  1  0  0  0  0
M  END
>  <CHROM.1>
32.22882663,56.19700908,-178.95647940,64.64188333,-179.62289741,29.13212806
15.63125927,21.03792071,-3.05391311,0.33415041,1.32831971

>  <Name>
ligand

>  <RI>
0

>  <Rbt.Current_Directory>
/home/itssahil/PROJECTS/Mol_Feturizer/New_Systems/rnas/3DIM

>  <Rbt.Executable>
rbdock ($Id: //depot/dev/client3/rdock/2013.1/src/exe/rbdock.cxx#4 $)

>  <Rbt.Library>
libRbt.so (2013.1, Build901 2013/11/27)

>  <Rbt.Parameter_File>
/export/apps/rDock/src/rDock_2013.1_src/data/scripts/dock_solv.prm

>  <Rbt.Receptor>
prm/pocket_docking_5.prm

>  <SCORE>
-11.3092

>  <SCORE.INTER>
-9.67641

>  <SCORE.INTER.CONST>
1

>  <SCORE.INTER.POLAR>
0

>  <SCORE.INTER.ROT>
5

>  <SCORE.INTER.SOLV>
13.6143

>  <SCORE.INTER.VDW>
-17.9224

>  <SCORE.INTER.norm>
-0.967641

>  <SCORE.INTRA>
-1.63277

>  <SCORE.INTRA.DIHEDRAL>
-4.29482

>  <SCORE.INTRA.DIHEDRAL.0>
5.8785

>  <SCORE.INTRA.POLAR>
0

>  <SCORE.INTRA.POLAR.0>
0

>  <SCORE.INTRA.REPUL>
0

>  <SCORE.INTRA.REPUL.0>
0

>  <SCORE.INTRA.SOLV>
-0.673931

>  <SCORE.INTRA.SOLV.lig_0>
-31.9559

>  <SCORE.INTRA.VDW>
0.851603

>  <SCORE.INTRA.VDW.0>
-0.507645

>  <SCORE.INTRA.norm>
-0.163277

>  <SCORE.RESTR>
0

>  <SCORE.RESTR.CAVITY>
0

>  <SCORE.RESTR.norm>
0

>  <SCORE.SYSTEM>
0

>  <SCORE.SYSTEM.CONST>
0

>  <SCORE.SYSTEM.DIHEDRAL>
0

>  <SCORE.SYSTEM.SOLV>
0

>  <SCORE.SYSTEM.norm>
0

>  <SCORE.heavy>
10

>  <SCORE.norm>
-1.13092

>  <RMSD>
5.267

$$$$
ligand
 OpenBabel11021811473D
libRbt.so/2013.1/901 2013/11/27
 10  9  0  0  0  0  0  0  0  0999 V2000
   28.0663   14.3190   19.0718 N   0  0  0  0  0  0  0  0  0  0  0  0
   28.2766   14.3710   20.5427 C   0  0  2  0  0  0  0  0  0  0  0  0
   27.0259   14.8696   21.2674 C   0  0  0  0  0  0  0  0  0  0  0  0
   26.0136   15.1762   20.6455 O   0  0  0  0  0  0  0  0  0  0  0  0
   29.5122   15.2156   20.8740 C   0  0  0  0  0  0  0  0  0  0  0  0
   29.8286   15.2480   22.3658 C   0  0  0  0  0  0  0  0  0  0  0  0
   31.1756   15.8885   22.6706 C   0  0  0  0  0  0  0  0  0  0  0  0
   31.1791   17.3679   22.2838 C   0  0  0  0  0  0  0  0  0  0  0  0
   32.5048   18.0645   22.5054 N   0  0  0  0  0  0  0  0  0  0  0  0
   26.9489   14.9521   22.4878 O   0  0  0  0  0  0  0  0  0  0  0  0
  2  1  1  6  0  0  0
  2  3  1  0  0  0  0
  2  5  1  0  0  0  0
  3  4  1  0  0  0  0
  3 10  1  0  0  0  0
  5  6  1  0  0  0  0
  6  7  1  0  0  0  0
  7  8  1  0  0  0  0
  8  9  1  0  0  0  0
M  END
>  <CHROM.1>
-0.31505862,-176.90588231,170.47323202,64.85404169,-177.68190481,29.01540397
15.55162800,21.48389398,-2.66779628,0.31825959,1.17733522

>  <Name>
ligand

>  <RI>
0

>  <Rbt.Current_Directory>
/home/itssahil/PROJECTS/Mol_Feturizer/New_Systems/rnas/3DIM

>  <Rbt.Executable>
rbdock ($Id: //depot/dev/client3/rdock/2013.1/src/exe/rbdock.cxx#4 $)

>  <Rbt.Library>
libRbt.so (2013.1, Build901 2013/11/27)

>  <Rbt.Parameter_File>
/export/apps/rDock/src/rDock_2013.1_src/data/scripts/dock_solv.prm

>  <Rbt.Receptor>
prm/pocket_docking_4.prm

>  <SCORE>
-11.1955

>  <SCORE.INTER>
-9.32223

>  <SCORE.INTER.CONST>
1

>  <SCORE.INTER.POLAR>
0

>  <SCORE.INTER.ROT>
5

>  <SCORE.INTER.SOLV>
13.9422

>  <SCORE.INTER.VDW>
-17.7955

>  <SCORE.INTER.norm>
-0.932223

>  <SCORE.INTRA>
-1.8733

>  <SCORE.INTRA.DIHEDRAL>
-3.84163

>  <SCORE.INTRA.DIHEDRAL.0>
5.8785

>  <SCORE.INTRA.POLAR>
0

>  <SCORE.INTRA.POLAR.0>
0

>  <SCORE.INTRA.REPUL>
0

>  <SCORE.INTRA.REPUL.0>
0

>  <SCORE.INTRA.SOLV>
-1.62564

>  <SCORE.INTRA.SOLV.lig_0>
-31.9559

>  <SCORE.INTRA.VDW>
0.860339

>  <SCORE.INTRA.VDW.0>
-0.507645

>  <SCORE.INTRA.norm>
-0.18733

>  <SCORE.RESTR>
0

>  <SCORE.RESTR.CAVITY>
0

>  <SCORE.RESTR.norm>
0

>  <SCORE.SYSTEM>
0

>  <SCORE.SYSTEM.CONST>
0

>  <SCORE.SYSTEM.DIHEDRAL>
0

>  <SCORE.SYSTEM.SOLV>
0

>  <SCORE.SYSTEM.norm>
0

>  <SCORE.heavy>
10

>  <SCORE.norm>
-1.11955

>  <RMSD>
5.269

$$$$
ligand
 OpenBabel11021811473D
libRbt.so/2013.1/901 2013/11/27
 10  9  0  0  0  0  0  0  0  0999 V2000
   27.3539   14.3727   18.8714 N   0  0  0  0  0  0  0  0  0  0  0  0
   27.9759   14.8217   20.1450 C   0  0  2  0  0  0  0  0  0  0  0  0
   26.9657   14.8117   21.2927 C   0  0  0  0  0  0  0  0  0  0  0  0
   27.3313   14.9193   22.4590 O   0  0  0  0  0  0  0  0  0  0  0  0
   28.6299   16.1960   19.9623 C   0  0  0  0  0  0  0  0  0  0  0  0
   29.4998   16.6035   21.1470 C   0  0  0  0  0  0  0  0  0  0  0  0
   30.6827   15.6694   21.3607 C   0  0  0  0  0  0  0  0  0  0  0  0
   31.5265   16.1178   22.5545 C   0  0  0  0  0  0  0  0  0  0  0  0
   32.1960   17.4632   22.3712 N   0  0  0  0  0  0  0  0  0  0  0  0
   25.7550   14.7379   21.1168 O   0  0  0  0  0  0  0  0  0  0  0  0
  2  1  1  6  0  0  0
  2  3  1  0  0  0  0
  2  5  1  0  0  0  0
  3  4  1  0  0  0  0
  3 10  1  0  0  0  0
  5  6  1  0  0  0  0
  6  7  1  0  0  0  0
  7  8  1  0  0  0  0
  8  9  1  0  0  0  0
M  END
>  <CHROM.1>
167.02498501,-169.56731438,62.86797903,179.87351633,-64.56010668,28.76043445
15.56665668,21.15132943,-2.83277923,0.37652831,1.50965031

>  <Name>
ligand

>  <RI>
0

>  <Rbt.Current_Directory>
/home/itssahil/PROJECTS/Mol_Feturizer/New_Systems/rnas/3DIM

>  <Rbt.Executable>
rbdock ($Id: //depot/dev/client3/rdock/2013.1/src/exe/rbdock.cxx#4 $)

>  <Rbt.Library>
libRbt.so (2013.1, Build901 2013/11/27)

>  <Rbt.Parameter_File>
/export/apps/rDock/src/rDock_2013.1_src/data/scripts/dock_solv.prm

>  <Rbt.Receptor>
prm/pocket_docking_5.prm

>  <SCORE>
-12.3729

>  <SCORE.INTER>
-10.0561

>  <SCORE.INTER.CONST>
1

>  <SCORE.INTER.POLAR>
0

>  <SCORE.INTER.ROT>
5

>  <SCORE.INTER.SOLV>
14.0439

>  <SCORE.INTER.VDW>
-18.3187

>  <SCORE.INTER.norm>
-1.00561

>  <SCORE.INTRA>
-2.31677

>  <SCORE.INTRA.DIHEDRAL>
-3.92279

>  <SCORE.INTRA.DIHEDRAL.0>
5.8785

>  <SCORE.INTRA.POLAR>
0

>  <SCORE.INTRA.POLAR.0>
0

>  <SCORE.INTRA.REPUL>
0

>  <SCORE.INTRA.REPUL.0>
0

>  <SCORE.INTRA.SOLV>
-0.712016

>  <SCORE.INTRA.SOLV.lig_0>
-31.9559

>  <SCORE.INTRA.VDW>
0.000637577

>  <SCORE.INTRA.VDW.0>
-0.507645

>  <SCORE.INTRA.norm>
-0.231677

>  <SCORE.RESTR>
0

>  <SCORE.RESTR.CAVITY>
0

>  <SCORE.RESTR.norm>
0

>  <SCORE.SYSTEM>
0

>  <SCORE.SYSTEM.CONST>
0

>  <SCORE.SYSTEM.DIHEDRAL>
0

>  <SCORE.SYSTEM.SOLV>
0

>  <SCORE.SYSTEM.norm>
0

>  <SCORE.heavy>
10

>  <SCORE.norm>
-1.23729

>  <RMSD>
5.269

$$$$
ligand
 OpenBabel11021811473D
libRbt.so/2013.1/901 2013/11/27
 10  9  0  0  0  0  0  0  0  0999 V2000
   28.1177   14.2775   19.0264 N   0  0  0  0  0  0  0  0  0  0  0  0
   28.2900   14.3553   20.5010 C   0  0  2  0  0  0  0  0  0  0  0  0
   27.0102   14.8340   21.1873 C   0  0  0  0  0  0  0  0  0  0  0  0
   26.9430   14.9252   22.4091 O   0  0  0  0  0  0  0  0  0  0  0  0
   29.4967   15.2339   20.8502 C   0  0  0  0  0  0  0  0  0  0  0  0
   29.8173   15.2395   22.3414 C   0  0  0  0  0  0  0  0  0  0  0  0
   31.1621   15.8806   22.6544 C   0  0  0  0  0  0  0  0  0  0  0  0
   31.1677   17.3597   22.2664 C   0  0  0  0  0  0  0  0  0  0  0  0
   32.4968   18.0525   22.4797 N   0  0  0  0  0  0  0  0  0  0  0  0
   26.0118   15.1857   20.5694 O   0  0  0  0  0  0  0  0  0  0  0  0
  2  1  1  6  0  0  0
  2  3  1  0  0  0  0
  2  5  1  0  0  0  0
  3  4  1  0  0  0  0
  3 10  1  0  0  0  0
  5  6  1  0  0  0  0
  6  7  1  0  0  0  0
  7  8  1  0  0  0  0
  8  9  1  0  0  0  0
M  END
>  <CHROM.1>
177.84901970,-174.04482823,168.71230418,63.57115134,-176.94977192,29.01360318
15.53924649,21.44049755,-2.65700135,0.31320682,1.16878459

>  <Name>
ligand

>  <RI>
0

>  <Rbt.Current_Directory>
/home/itssahil/PROJECTS/Mol_Feturizer/New_Systems/rnas/3DIM

>  <Rbt.Executable>
rbdock ($Id: //depot/dev/client3/rdock/2013.1/src/exe/rbdock.cxx#4 $)

>  <Rbt.Library>
libRbt.so (2013.1, Build901 2013/11/27)

>  <Rbt.Parameter_File>
/export/apps/rDock/src/rDock_2013.1_src/data/scripts/dock_solv.prm

>  <Rbt.Receptor>
prm/pocket_docking_5.prm

>  <SCORE>
-11.1688

>  <SCORE.INTER>
-9.39684

>  <SCORE.INTER.CONST>
1

>  <SCORE.INTER.POLAR>
0

>  <SCORE.INTER.ROT>
5

>  <SCORE.INTER.SOLV>
13.9181

>  <SCORE.INTER.VDW>
-17.8373

>  <SCORE.INTER.norm>
-0.939684

>  <SCORE.INTRA>
-1.77193

>  <SCORE.INTRA.DIHEDRAL>
-3.65745

>  <SCORE.INTRA.DIHEDRAL.0>
5.8785

>  <SCORE.INTRA.POLAR>
0

>  <SCORE.INTRA.POLAR.0>
0

>  <SCORE.INTRA.REPUL>
0

>  <SCORE.INTRA.REPUL.0>
0

>  <SCORE.INTRA.SOLV>
-1.62797

>  <SCORE.INTRA.SOLV.lig_0>
-31.9559

>  <SCORE.INTRA.VDW>
0.87078

>  <SCORE.INTRA.VDW.0>
-0.507645

>  <SCORE.INTRA.norm>
-0.177193

>  <SCORE.RESTR>
0

>  <SCORE.RESTR.CAVITY>
0

>  <SCORE.RESTR.norm>
0

>  <SCORE.SYSTEM>
0

>  <SCORE.SYSTEM.CONST>
0

>  <SCORE.SYSTEM.DIHEDRAL>
0

>  <SCORE.SYSTEM.SOLV>
0

>  <SCORE.SYSTEM.norm>
0

>  <SCORE.heavy>
10

>  <SCORE.norm>
-1.11688

>  <RMSD>
5.269

$$$$
ligand
 OpenBabel11021811473D
libRbt.so/2013.1/901 2013/11/27
 10  9  0  0  0  0  0  0  0  0999 V2000
   27.9288   14.5212   19.0388 N   0  0  0  0  0  0  0  0  0  0  0  0
   28.2732   14.4936   20.4848 C   0  0  2  0  0  0  0  0  0  0  0  0
   27.0692   14.8630   21.3519 C   0  0  0  0  0  0  0  0  0  0  0  0
   25.9505   14.9857   20.8629 O   0  0  0  0  0  0  0  0  0  0  0  0
   29.4827   15.3941   20.7610 C   0  0  0  0  0  0  0  0  0  0  0  0
   30.0237   15.2459   22.1794 C   0  0  0  0  0  0  0  0  0  0  0  0
   31.3504   15.9639   22.3840 C   0  0  0  0  0  0  0  0  0  0  0  0
   31.1796   17.4780   22.2560 C   0  0  0  0  0  0  0  0  0  0  0  0
   32.4575   18.2657   22.4519 N   0  0  0  0  0  0  0  0  0  0  0  0
   27.1414   15.0152   22.5659 O   0  0  0  0  0  0  0  0  0  0  0  0
  2  1  1  6  0  0  0
  2  3  1  0  0  0  0
  2  5  1  0  0  0  0
  3  4  1  0  0  0  0
  3 10  1  0  0  0  0
  5  6  1  0  0  0  0
  6  7  1  0  0  0  0
  7  8  1  0  0  0  0
  8  9  1  0  0  0  0
M  END
>  <CHROM.1>
8.47729454,-171.06011793,170.70197575,65.78191369,179.80153618,29.04896242
15.62392683,21.44964420,-2.70419883,0.36239071,1.20639389

>  <Name>
ligand

>  <RI>
0

>  <Rbt.Current_Directory>
/home/itssahil/PROJECTS/Mol_Feturizer/New_Systems/rnas/3DIM

>  <Rbt.Executable>
rbdock ($Id: //depot/dev/client3/rdock/2013.1/src/exe/rbdock.cxx#4 $)

>  <Rbt.Library>
libRbt.so (2013.1, Build901 2013/11/27)

>  <Rbt.Parameter_File>
/export/apps/rDock/src/rDock_2013.1_src/data/scripts/dock_solv.prm

>  <Rbt.Receptor>
prm/pocket_docking_6.prm

>  <SCORE>
-11.2145

>  <SCORE.INTER>
-9.32989

>  <SCORE.INTER.CONST>
1

>  <SCORE.INTER.POLAR>
0

>  <SCORE.INTER.ROT>
5

>  <SCORE.INTER.SOLV>
14.4205

>  <SCORE.INTER.VDW>
-17.9601

>  <SCORE.INTER.norm>
-0.932989

>  <SCORE.INTRA>
-1.88461

>  <SCORE.INTRA.DIHEDRAL>
-3.61717

>  <SCORE.INTRA.DIHEDRAL.0>
5.8785

>  <SCORE.INTRA.POLAR>
0

>  <SCORE.INTRA.POLAR.0>
0

>  <SCORE.INTRA.REPUL>
0

>  <SCORE.INTRA.REPUL.0>
0

>  <SCORE.INTRA.SOLV>
-1.64343

>  <SCORE.INTRA.SOLV.lig_0>
-31.9559

>  <SCORE.INTRA.VDW>
0.745684

>  <SCORE.INTRA.VDW.0>
-0.507645

>  <SCORE.INTRA.norm>
-0.188461

>  <SCORE.RESTR>
0

>  <SCORE.RESTR.CAVITY>
0

>  <SCORE.RESTR.norm>
0

>  <SCORE.SYSTEM>
0

>  <SCORE.SYSTEM.CONST>
0

>  <SCORE.SYSTEM.DIHEDRAL>
0

>  <SCORE.SYSTEM.SOLV>
0

>  <SCORE.SYSTEM.norm>
0

>  <SCORE.heavy>
10

>  <SCORE.norm>
-1.12145

>  <RMSD>
5.269

$$$$
ligand
 OpenBabel11021811473D
libRbt.so/2013.1/901 2013/11/27
 10  9  0  0  0  0  0  0  0  0999 V2000
   25.9479   15.3768   20.2209 N   0  0  0  0  0  0  0  0  0  0  0  0
   27.4152   15.2546   20.4274 C   0  0  2  0  0  0  0  0  0  0  0  0
   28.0604   14.3891   19.3446 C   0  0  0  0  0  0  0  0  0  0  0  0
   27.3869   13.6265   18.6586 O   0  0  0  0  0  0  0  0  0  0  0  0
   27.7125   14.7332   21.8379 C   0  0  0  0  0  0  0  0  0  0  0  0
   29.2013   14.7284   22.1693 C   0  0  0  0  0  0  0  0  0  0  0  0
   29.8057   16.1254   22.1953 C   0  0  0  0  0  0  0  0  0  0  0  0
   31.3103   16.0668   22.4614 C   0  0  0  0  0  0  0  0  0  0  0  0
   31.9962   17.4163   22.4476 N   0  0  0  0  0  0  0  0  0  0  0  0
   29.2555   14.4346   19.0765 O   0  0  0  0  0  0  0  0  0  0  0  0
  2  1  1  6  0  0  0
  2  3  1  0  0  0  0
  2  5  1  0  0  0  0
  3  4  1  0  0  0  0
  3 10  1  0  0  0  0
  5  6  1  0  0  0  0
  6  7  1  0  0  0  0
  7  8  1  0  0  0  0
  8  9  1  0  0  0  0
M  END
>  <CHROM.1>
-18.48663819,-173.72625895,64.06918282,-177.14790624,177.68709491,28.81615546
15.19324063,20.85269540,2.40657108,-0.15006377,-2.02729588

>  <Name>
ligand

>  <RI>
0

>  <Rbt.Current_Directory>
/home/itssahil/PROJECTS/Mol_Feturizer/New_Systems/rnas/3DIM

>  <Rbt.Executable>
rbdock ($Id: //depot/dev/client3/rdock/2013.1/src/exe/rbdock.cxx#4 $)

>  <Rbt.Library>
libRbt.so (2013.1, Build901 2013/11/27)

>  <Rbt.Parameter_File>
/export/apps/rDock/src/rDock_2013.1_src/data/scripts/dock_solv.prm

>  <Rbt.Receptor>
prm/pocket_docking_8.prm

>  <SCORE>
-10.9825

>  <SCORE.INTER>
-8.07146

>  <SCORE.INTER.CONST>
1

>  <SCORE.INTER.POLAR>
0

>  <SCORE.INTER.ROT>
5

>  <SCORE.INTER.SOLV>
17.3383

>  <SCORE.INTER.VDW>
-18.0937

>  <SCORE.INTER.norm>
-0.807146

>  <SCORE.INTRA>
-2.91106

>  <SCORE.INTRA.DIHEDRAL>
-4.03772

>  <SCORE.INTRA.DIHEDRAL.0>
5.8785

>  <SCORE.INTRA.POLAR>
0

>  <SCORE.INTRA.POLAR.0>
0

>  <SCORE.INTRA.REPUL>
0

>  <SCORE.INTRA.REPUL.0>
0

>  <SCORE.INTRA.SOLV>
-1.59004

>  <SCORE.INTRA.SOLV.lig_0>
-31.9559

>  <SCORE.INTRA.VDW>
-0.097184

>  <SCORE.INTRA.VDW.0>
-0.507645

>  <SCORE.INTRA.norm>
-0.291106

>  <SCORE.RESTR>
0

>  <SCORE.RESTR.CAVITY>
0

>  <SCORE.RESTR.norm>
0

>  <SCORE.SYSTEM>
0

>  <SCORE.SYSTEM.CONST>
0

>  <SCORE.SYSTEM.DIHEDRAL>
0

>  <SCORE.SYSTEM.SOLV>
0

>  <SCORE.SYSTEM.norm>
0

>  <SCORE.heavy>
10

>  <SCORE.norm>
-1.09825

>  <RMSD>
5.269

$$$$
ligand
 OpenBabel11021811473D
libRbt.so/2013.1/901 2013/11/27
 10  9  0  0  0  0  0  0  0  0999 V2000
   27.3687   14.3673   18.8490 N   0  0  0  0  0  0  0  0  0  0  0  0
   27.9780   14.8257   20.1253 C   0  0  2  0  0  0  0  0  0  0  0  0
   26.9578   14.8189   21.2642 C   0  0  0  0  0  0  0  0  0  0  0  0
   27.3169   14.8737   22.4363 O   0  0  0  0  0  0  0  0  0  0  0  0
   28.6290   16.2012   19.9404 C   0  0  0  0  0  0  0  0  0  0  0  0
   29.4943   16.6146   21.1265 C   0  0  0  0  0  0  0  0  0  0  0  0
   30.6732   15.6784   21.3528 C   0  0  0  0  0  0  0  0  0  0  0  0
   31.5095   16.1299   22.5508 C   0  0  0  0  0  0  0  0  0  0  0  0
   32.1804   17.4746   22.3681 N   0  0  0  0  0  0  0  0  0  0  0  0
   25.7468   14.7996   21.0767 O   0  0  0  0  0  0  0  0  0  0  0  0
  2  1  1  6  0  0  0
  2  3  1  0  0  0  0
  2  5  1  0  0  0  0
  3  4  1  0  0  0  0
  3 10  1  0  0  0  0
  5  6  1  0  0  0  0
  6  7  1  0  0  0  0
  7  8  1  0  0  0  0
  8  9  1  0  0  0  0
M  END
>  <CHROM.1>
163.69985218,-169.20491795,62.45364804,-179.91502593,-64.38983457,28.75405462
15.57377896,21.13205109,-2.82906475,0.37690521,1.51120368

>  <Name>
ligand

>  <RI>
0

>  <Rbt.Current_Directory>
/home/itssahil/PROJECTS/Mol_Feturizer/New_Systems/rnas/3DIM

>  <Rbt.Executable>
rbdock ($Id: //depot/dev/client3/rdock/2013.1/src/exe/rbdock.cxx#4 $)

>  <Rbt.Library>
libRbt.so (2013.1, Build901 2013/11/27)

>  <Rbt.Parameter_File>
/export/apps/rDock/src/rDock_2013.1_src/data/scripts/dock_solv.prm

>  <Rbt.Receptor>
prm/pocket_docking_3.prm

>  <SCORE>
-12.4061

>  <SCORE.INTER>
-10.0478

>  <SCORE.INTER.CONST>
1

>  <SCORE.INTER.POLAR>
0

>  <SCORE.INTER.ROT>
5

>  <SCORE.INTER.SOLV>
14.0369

>  <SCORE.INTER.VDW>
-18.3108

>  <SCORE.INTER.norm>
-1.00478

>  <SCORE.INTRA>
-2.35827

>  <SCORE.INTRA.DIHEDRAL>
-3.91908

>  <SCORE.INTRA.DIHEDRAL.0>
5.8785

>  <SCORE.INTRA.POLAR>
0

>  <SCORE.INTRA.POLAR.0>
0

>  <SCORE.INTRA.REPUL>
0

>  <SCORE.INTRA.REPUL.0>
0

>  <SCORE.INTRA.SOLV>
-0.706823

>  <SCORE.INTRA.SOLV.lig_0>
-31.9559

>  <SCORE.INTRA.VDW>
-0.0453206

>  <SCORE.INTRA.VDW.0>
-0.507645

>  <SCORE.INTRA.norm>
-0.235827

>  <SCORE.RESTR>
0

>  <SCORE.RESTR.CAVITY>
0

>  <SCORE.RESTR.norm>
0

>  <SCORE.SYSTEM>
0

>  <SCORE.SYSTEM.CONST>
0

>  <SCORE.SYSTEM.DIHEDRAL>
0

>  <SCORE.SYSTEM.SOLV>
0

>  <SCORE.SYSTEM.norm>
0

>  <SCORE.heavy>
10

>  <SCORE.norm>
-1.24061

>  <RMSD>
5.271

$$$$
ligand
 OpenBabel11021811473D
libRbt.so/2013.1/901 2013/11/27
 10  9  0  0  0  0  0  0  0  0999 V2000
   27.4551   13.8305   18.7712 N   0  0  0  0  0  0  0  0  0  0  0  0
   28.1412   14.1755   20.0442 C   0  0  2  0  0  0  0  0  0  0  0  0
   27.1745   14.8105   21.0442 C   0  0  0  0  0  0  0  0  0  0  0  0
   27.4751   14.9287   22.2280 O   0  0  0  0  0  0  0  0  0  0  0  0
   29.3568   15.0679   19.7686 C   0  0  0  0  0  0  0  0  0  0  0  0
   30.2133   15.3065   21.0079 C   0  0  0  0  0  0  0  0  0  0  0  0
   31.5126   16.0364   20.6968 C   0  0  0  0  0  0  0  0  0  0  0  0
   32.2287   16.4527   21.9822 C   0  0  0  0  0  0  0  0  0  0  0  0
   31.4932   17.4996   22.7914 N   0  0  0  0  0  0  0  0  0  0  0  0
   26.0829   15.2655   20.7221 O   0  0  0  0  0  0  0  0  0  0  0  0
  2  1  1  6  0  0  0
  2  3  1  0  0  0  0
  2  5  1  0  0  0  0
  3  4  1  0  0  0  0
  3 10  1  0  0  0  0
  5  6  1  0  0  0  0
  6  7  1  0  0  0  0
  7  8  1  0  0  0  0
  8  9  1  0  0  0  0
M  END
>  <CHROM.1>
165.82452235,-172.31764621,172.42534139,170.85329674,-66.51597737,29.08262026
15.34639380,20.92578450,-2.68068884,0.21753759,1.06526759

>  <Name>
ligand

>  <RI>
0

>  <Rbt.Current_Directory>
/home/itssahil/PROJECTS/Mol_Feturizer/New_Systems/rnas/3DIM

>  <Rbt.Executable>
rbdock ($Id: //depot/dev/client3/rdock/2013.1/src/exe/rbdock.cxx#4 $)

>  <Rbt.Library>
libRbt.so (2013.1, Build901 2013/11/27)

>  <Rbt.Parameter_File>
/export/apps/rDock/src/rDock_2013.1_src/data/scripts/dock_solv.prm

>  <Rbt.Receptor>
prm/pocket_docking_7.prm

>  <SCORE>
-9.54342

>  <SCORE.INTER>
-7.16292

>  <SCORE.INTER.CONST>
1

>  <SCORE.INTER.POLAR>
0

>  <SCORE.INTER.ROT>
5

>  <SCORE.INTER.SOLV>
15.3541

>  <SCORE.INTER.VDW>
-16.8266

>  <SCORE.INTER.norm>
-0.716292

>  <SCORE.INTRA>
-2.38051

>  <SCORE.INTRA.DIHEDRAL>
-3.48146

>  <SCORE.INTRA.DIHEDRAL.0>
5.8785

>  <SCORE.INTRA.POLAR>
0

>  <SCORE.INTRA.POLAR.0>
0

>  <SCORE.INTRA.REPUL>
0

>  <SCORE.INTRA.REPUL.0>
0

>  <SCORE.INTRA.SOLV>
-0.979391

>  <SCORE.INTRA.SOLV.lig_0>
-31.9559

>  <SCORE.INTRA.VDW>
-0.150083

>  <SCORE.INTRA.VDW.0>
-0.507645

>  <SCORE.INTRA.norm>
-0.238051

>  <SCORE.RESTR>
0

>  <SCORE.RESTR.CAVITY>
0

>  <SCORE.RESTR.norm>
0

>  <SCORE.SYSTEM>
0

>  <SCORE.SYSTEM.CONST>
0

>  <SCORE.SYSTEM.DIHEDRAL>
0

>  <SCORE.SYSTEM.SOLV>
0

>  <SCORE.SYSTEM.norm>
0

>  <SCORE.heavy>
10

>  <SCORE.norm>
-0.954342

>  <RMSD>
5.271

$$$$
ligand
 OpenBabel11021811473D
libRbt.so/2013.1/901 2013/11/27
 10  9  0  0  0  0  0  0  0  0999 V2000
   28.8587   16.2022   20.1576 N   0  0  0  0  0  0  0  0  0  0  0  0
   28.3936   15.0857   21.0221 C   0  0  2  0  0  0  0  0  0  0  0  0
   26.8695   14.9644   21.0043 C   0  0  0  0  0  0  0  0  0  0  0  0
   26.2107   15.3983   20.0644 O   0  0  0  0  0  0  0  0  0  0  0  0
   28.9441   15.2483   22.4435 C   0  0  0  0  0  0  0  0  0  0  0  0
   30.4612   15.4016   22.4804 C   0  0  0  0  0  0  0  0  0  0  0  0
   30.9204   16.8170   22.1590 C   0  0  0  0  0  0  0  0  0  0  0  0
   32.4464   16.9000   22.1082 C   0  0  0  0  0  0  0  0  0  0  0  0
   33.0712   16.1445   20.9547 N   0  0  0  0  0  0  0  0  0  0  0  0
   26.2333   14.4031   21.8888 O   0  0  0  0  0  0  0  0  0  0  0  0
  2  1  1  6  0  0  0
  2  3  1  0  0  0  0
  2  5  1  0  0  0  0
  3  4  1  0  0  0  0
  3 10  1  0  0  0  0
  5  6  1  0  0  0  0
  6  7  1  0  0  0  0
  7  8  1  0  0  0  0
  8  9  1  0  0  0  0
M  END
>  <CHROM.1>
23.55064093,-53.95769769,80.47686776,-175.89781819,67.51282039,29.19592648
15.64920083,21.42488758,-3.09779319,0.28949662,1.90439073

>  <Name>
ligand

>  <RI>
0

>  <Rbt.Current_Directory>
/home/itssahil/PROJECTS/Mol_Feturizer/New_Systems/rnas/3DIM

>  <Rbt.Executable>
rbdock ($Id: //depot/dev/client3/rdock/2013.1/src/exe/rbdock.cxx#4 $)

>  <Rbt.Library>
libRbt.so (2013.1, Build901 2013/11/27)

>  <Rbt.Parameter_File>
/export/apps/rDock/src/rDock_2013.1_src/data/scripts/dock_solv.prm

>  <Rbt.Receptor>
prm/pocket_docking_8.prm

>  <SCORE>
-10.0906

>  <SCORE.INTER>
-10.0231

>  <SCORE.INTER.CONST>
1

>  <SCORE.INTER.POLAR>
0

>  <SCORE.INTER.ROT>
5

>  <SCORE.INTER.SOLV>
13.1784

>  <SCORE.INTER.VDW>
-18.0082

>  <SCORE.INTER.norm>
-1.00231

>  <SCORE.INTRA>
-0.0675596

>  <SCORE.INTRA.DIHEDRAL>
-2.44137

>  <SCORE.INTRA.DIHEDRAL.0>
5.8785

>  <SCORE.INTRA.POLAR>
0

>  <SCORE.INTRA.POLAR.0>
0

>  <SCORE.INTRA.REPUL>
0

>  <SCORE.INTRA.REPUL.0>
0

>  <SCORE.INTRA.SOLV>
1.56963

>  <SCORE.INTRA.SOLV.lig_0>
-31.9559

>  <SCORE.INTRA.VDW>
0.368314

>  <SCORE.INTRA.VDW.0>
-0.507645

>  <SCORE.INTRA.norm>
-0.00675596

>  <SCORE.RESTR>
0

>  <SCORE.RESTR.CAVITY>
0

>  <SCORE.RESTR.norm>
0

>  <SCORE.SYSTEM>
0

>  <SCORE.SYSTEM.CONST>
0

>  <SCORE.SYSTEM.DIHEDRAL>
0

>  <SCORE.SYSTEM.SOLV>
0

>  <SCORE.SYSTEM.norm>
0

>  <SCORE.heavy>
10

>  <SCORE.norm>
-1.00906

>  <RMSD>
5.271

$$$$
ligand
 OpenBabel11021811473D
libRbt.so/2013.1/901 2013/11/27
 10  9  0  0  0  0  0  0  0  0999 V2000
   27.3596   14.3648   18.8725 N   0  0  0  0  0  0  0  0  0  0  0  0
   27.9741   14.8250   20.1457 C   0  0  2  0  0  0  0  0  0  0  0  0
   26.9564   14.8278   21.2868 C   0  0  0  0  0  0  0  0  0  0  0  0
   27.3182   14.8891   22.4577 O   0  0  0  0  0  0  0  0  0  0  0  0
   28.6318   16.1963   19.9540 C   0  0  0  0  0  0  0  0  0  0  0  0
   29.4958   16.6132   21.1399 C   0  0  0  0  0  0  0  0  0  0  0  0
   30.6844   15.6877   21.3594 C   0  0  0  0  0  0  0  0  0  0  0  0
   31.5165   16.1397   22.5601 C   0  0  0  0  0  0  0  0  0  0  0  0
   32.1978   17.4788   22.3745 N   0  0  0  0  0  0  0  0  0  0  0  0
   25.7449   14.8103   21.1020 O   0  0  0  0  0  0  0  0  0  0  0  0
  2  1  1  6  0  0  0
  2  3  1  0  0  0  0
  2  5  1  0  0  0  0
  3  4  1  0  0  0  0
  3 10  1  0  0  0  0
  5  6  1  0  0  0  0
  6  7  1  0  0  0  0
  7  8  1  0  0  0  0
  8  9  1  0  0  0  0
M  END
>  <CHROM.1>
163.90947657,-169.51352106,63.51154808,-179.73106611,-65.65376070,28.75656063
15.57886168,21.14838424,-2.83026371,0.37403715,1.50489717

>  <Name>
ligand

>  <RI>
0

>  <Rbt.Current_Directory>
/home/itssahil/PROJECTS/Mol_Feturizer/New_Systems/rnas/3DIM

>  <Rbt.Executable>
rbdock ($Id: //depot/dev/client3/rdock/2013.1/src/exe/rbdock.cxx#4 $)

>  <Rbt.Library>
libRbt.so (2013.1, Build901 2013/11/27)

>  <Rbt.Parameter_File>
/export/apps/rDock/src/rDock_2013.1_src/data/scripts/dock_solv.prm

>  <Rbt.Receptor>
prm/pocket_docking_4.prm

>  <SCORE>
-12.399

>  <SCORE.INTER>
-10.0316

>  <SCORE.INTER.CONST>
1

>  <SCORE.INTER.POLAR>
0

>  <SCORE.INTER.ROT>
5

>  <SCORE.INTER.SOLV>
14.0261

>  <SCORE.INTER.VDW>
-18.2964

>  <SCORE.INTER.norm>
-1.00316

>  <SCORE.INTRA>
-2.36744

>  <SCORE.INTRA.DIHEDRAL>
-3.86839

>  <SCORE.INTRA.DIHEDRAL.0>
5.8785

>  <SCORE.INTRA.POLAR>
0

>  <SCORE.INTRA.POLAR.0>
0

>  <SCORE.INTRA.REPUL>
0

>  <SCORE.INTRA.REPUL.0>
0

>  <SCORE.INTRA.SOLV>
-0.733607

>  <SCORE.INTRA.SOLV.lig_0>
-31.9559

>  <SCORE.INTRA.VDW>
-0.0664397

>  <SCORE.INTRA.VDW.0>
-0.507645

>  <SCORE.INTRA.norm>
-0.236744

>  <SCORE.RESTR>
0

>  <SCORE.RESTR.CAVITY>
0

>  <SCORE.RESTR.norm>
0

>  <SCORE.SYSTEM>
0

>  <SCORE.SYSTEM.CONST>
0

>  <SCORE.SYSTEM.DIHEDRAL>
0

>  <SCORE.SYSTEM.SOLV>
0

>  <SCORE.SYSTEM.norm>
0

>  <SCORE.heavy>
10

>  <SCORE.norm>
-1.2399

>  <RMSD>
5.272

$$$$
ligand
 OpenBabel11021811473D
libRbt.so/2013.1/901 2013/11/27
 10  9  0  0  0  0  0  0  0  0999 V2000
   27.3664   14.3680   18.8387 N   0  0  0  0  0  0  0  0  0  0  0  0
   27.9776   14.8231   20.1152 C   0  0  2  0  0  0  0  0  0  0  0  0
   26.9582   14.8173   21.2548 C   0  0  0  0  0  0  0  0  0  0  0  0
   27.3185   14.8603   22.4269 O   0  0  0  0  0  0  0  0  0  0  0  0
   28.6320   16.1972   19.9317 C   0  0  0  0  0  0  0  0  0  0  0  0
   29.4939   16.6096   21.1207 C   0  0  0  0  0  0  0  0  0  0  0  0
   30.6791   15.6802   21.3422 C   0  0  0  0  0  0  0  0  0  0  0  0
   31.5080   16.1267   22.5472 C   0  0  0  0  0  0  0  0  0  0  0  0
   32.1957   17.4632   22.3667 N   0  0  0  0  0  0  0  0  0  0  0  0
   25.7469   14.8105   21.0679 O   0  0  0  0  0  0  0  0  0  0  0  0
  2  1  1  6  0  0  0
  2  3  1  0  0  0  0
  2  5  1  0  0  0  0
  3  4  1  0  0  0  0
  3 10  1  0  0  0  0
  5  6  1  0  0  0  0
  6  7  1  0  0  0  0
  7  8  1  0  0  0  0
  8  9  1  0  0  0  0
M  END
>  <CHROM.1>
163.19272369,-169.47203635,63.10072348,-179.64869373,-65.75594313,28.75622732
15.57103279,21.12425143,-2.82905738,0.37563464,1.51334090

>  <Name>
ligand

>  <RI>
0

>  <Rbt.Current_Directory>
/home/itssahil/PROJECTS/Mol_Feturizer/New_Systems/rnas/3DIM

>  <Rbt.Executable>
rbdock ($Id: //depot/dev/client3/rdock/2013.1/src/exe/rbdock.cxx#4 $)

>  <Rbt.Library>
libRbt.so (2013.1, Build901 2013/11/27)

>  <Rbt.Parameter_File>
/export/apps/rDock/src/rDock_2013.1_src/data/scripts/dock_solv.prm

>  <Rbt.Receptor>
prm/pocket_docking_7.prm

>  <SCORE>
-12.396

>  <SCORE.INTER>
-10.0224

>  <SCORE.INTER.CONST>
1

>  <SCORE.INTER.POLAR>
0

>  <SCORE.INTER.ROT>
5

>  <SCORE.INTER.SOLV>
14.0624

>  <SCORE.INTER.VDW>
-18.3024

>  <SCORE.INTER.norm>
-1.00224

>  <SCORE.INTRA>
-2.37357

>  <SCORE.INTRA.DIHEDRAL>
-3.87377

>  <SCORE.INTRA.DIHEDRAL.0>
5.8785

>  <SCORE.INTRA.POLAR>
0

>  <SCORE.INTRA.POLAR.0>
0

>  <SCORE.INTRA.REPUL>
0

>  <SCORE.INTRA.REPUL.0>
0

>  <SCORE.INTRA.SOLV>
-0.733379

>  <SCORE.INTRA.SOLV.lig_0>
-31.9559

>  <SCORE.INTRA.VDW>
-0.0699907

>  <SCORE.INTRA.VDW.0>
-0.507645

>  <SCORE.INTRA.norm>
-0.237357

>  <SCORE.RESTR>
0

>  <SCORE.RESTR.CAVITY>
0

>  <SCORE.RESTR.norm>
0

>  <SCORE.SYSTEM>
0

>  <SCORE.SYSTEM.CONST>
0

>  <SCORE.SYSTEM.DIHEDRAL>
0

>  <SCORE.SYSTEM.SOLV>
0

>  <SCORE.SYSTEM.norm>
0

>  <SCORE.heavy>
10

>  <SCORE.norm>
-1.2396

>  <RMSD>
5.272

$$$$
ligand
 OpenBabel11021811473D
libRbt.so/2013.1/901 2013/11/27
 10  9  0  0  0  0  0  0  0  0999 V2000
   27.3561   14.3770   18.8496 N   0  0  0  0  0  0  0  0  0  0  0  0
   27.9692   14.8278   20.1268 C   0  0  2  0  0  0  0  0  0  0  0  0
   26.9512   14.8188   21.2676 C   0  0  0  0  0  0  0  0  0  0  0  0
   27.3130   14.8571   22.4395 O   0  0  0  0  0  0  0  0  0  0  0  0
   28.6239   16.2021   19.9470 C   0  0  0  0  0  0  0  0  0  0  0  0
   29.4830   16.6129   21.1385 C   0  0  0  0  0  0  0  0  0  0  0  0
   30.6723   15.6879   21.3566 C   0  0  0  0  0  0  0  0  0  0  0  0
   31.4994   16.1336   22.5630 C   0  0  0  0  0  0  0  0  0  0  0  0
   32.1895   17.4690   22.3834 N   0  0  0  0  0  0  0  0  0  0  0  0
   25.7396   14.8138   21.0823 O   0  0  0  0  0  0  0  0  0  0  0  0
  2  1  1  6  0  0  0
  2  3  1  0  0  0  0
  2  5  1  0  0  0  0
  3  4  1  0  0  0  0
  3 10  1  0  0  0  0
  5  6  1  0  0  0  0
  6  7  1  0  0  0  0
  7  8  1  0  0  0  0
  8  9  1  0  0  0  0
M  END
>  <CHROM.1>
163.14918580,-169.70160480,63.43363778,-179.73567089,-66.18223178,28.74834418
15.57532471,21.13851322,-2.82939081,0.37692300,1.51619598

>  <Name>
ligand

>  <RI>
0

>  <Rbt.Current_Directory>
/home/itssahil/PROJECTS/Mol_Feturizer/New_Systems/rnas/3DIM

>  <Rbt.Executable>
rbdock ($Id: //depot/dev/client3/rdock/2013.1/src/exe/rbdock.cxx#4 $)

>  <Rbt.Library>
libRbt.so (2013.1, Build901 2013/11/27)

>  <Rbt.Parameter_File>
/export/apps/rDock/src/rDock_2013.1_src/data/scripts/dock_solv.prm

>  <Rbt.Receptor>
prm/blind_docking_60.prm

>  <SCORE>
-12.3904

>  <SCORE.INTER>
-10.0117

>  <SCORE.INTER.CONST>
1

>  <SCORE.INTER.POLAR>
0

>  <SCORE.INTER.ROT>
5

>  <SCORE.INTER.SOLV>
14.1

>  <SCORE.INTER.VDW>
-18.3078

>  <SCORE.INTER.norm>
-1.00117

>  <SCORE.INTRA>
-2.37872

>  <SCORE.INTRA.DIHEDRAL>
-3.86354

>  <SCORE.INTRA.DIHEDRAL.0>
5.8785

>  <SCORE.INTRA.POLAR>
0

>  <SCORE.INTRA.POLAR.0>
0

>  <SCORE.INTRA.REPUL>
0

>  <SCORE.INTRA.REPUL.0>
0

>  <SCORE.INTRA.SOLV>
-0.742678

>  <SCORE.INTRA.SOLV.lig_0>
-31.9559

>  <SCORE.INTRA.VDW>
-0.0756083

>  <SCORE.INTRA.VDW.0>
-0.507645

>  <SCORE.INTRA.norm>
-0.237872

>  <SCORE.RESTR>
0

>  <SCORE.RESTR.CAVITY>
0

>  <SCORE.RESTR.norm>
0

>  <SCORE.SYSTEM>
0

>  <SCORE.SYSTEM.CONST>
0

>  <SCORE.SYSTEM.DIHEDRAL>
0

>  <SCORE.SYSTEM.SOLV>
0

>  <SCORE.SYSTEM.norm>
0

>  <SCORE.heavy>
10

>  <SCORE.norm>
-1.23904

>  <RMSD>
5.275

$$$$
ligand
 OpenBabel11021811473D
libRbt.so/2013.1/901 2013/11/27
 10  9  0  0  0  0  0  0  0  0999 V2000
   27.3497   14.3565   18.8630 N   0  0  0  0  0  0  0  0  0  0  0  0
   27.9629   14.8198   20.1357 C   0  0  2  0  0  0  0  0  0  0  0  0
   26.9459   14.8181   21.2776 C   0  0  0  0  0  0  0  0  0  0  0  0
   27.3086   14.8713   22.4486 O   0  0  0  0  0  0  0  0  0  0  0  0
   28.6140   16.1942   19.9434 C   0  0  0  0  0  0  0  0  0  0  0  0
   29.4891   16.6086   21.1220 C   0  0  0  0  0  0  0  0  0  0  0  0
   30.6678   15.6706   21.3416 C   0  0  0  0  0  0  0  0  0  0  0  0
   31.5061   16.1153   22.5407 C   0  0  0  0  0  0  0  0  0  0  0  0
   32.1807   17.4588   22.3626 N   0  0  0  0  0  0  0  0  0  0  0  0
   25.7343   14.8048   21.0934 O   0  0  0  0  0  0  0  0  0  0  0  0
  2  1  1  6  0  0  0
  2  3  1  0  0  0  0
  2  5  1  0  0  0  0
  3  4  1  0  0  0  0
  3 10  1  0  0  0  0
  5  6  1  0  0  0  0
  6  7  1  0  0  0  0
  7  8  1  0  0  0  0
  8  9  1  0  0  0  0
M  END
>  <CHROM.1>
163.35834791,-168.88613063,62.39706742,-179.35422434,-64.55881119,28.74454441
15.56731890,21.13604216,-2.83331509,0.37383773,1.50986426

>  <Name>
ligand

>  <RI>
0

>  <Rbt.Current_Directory>
/home/itssahil/PROJECTS/Mol_Feturizer/New_Systems/rnas/3DIM

>  <Rbt.Executable>
rbdock ($Id: //depot/dev/client3/rdock/2013.1/src/exe/rbdock.cxx#4 $)

>  <Rbt.Library>
libRbt.so (2013.1, Build901 2013/11/27)

>  <Rbt.Parameter_File>
/export/apps/rDock/src/rDock_2013.1_src/data/scripts/dock_solv.prm

>  <Rbt.Receptor>
prm/pocket_docking_4.prm

>  <SCORE>
-12.4017

>  <SCORE.INTER>
-10.047

>  <SCORE.INTER.CONST>
1

>  <SCORE.INTER.POLAR>
0

>  <SCORE.INTER.ROT>
5

>  <SCORE.INTER.SOLV>
14.0758

>  <SCORE.INTER.VDW>
-18.3232

>  <SCORE.INTER.norm>
-1.0047

>  <SCORE.INTRA>
-2.35474

>  <SCORE.INTRA.DIHEDRAL>
-3.88828

>  <SCORE.INTRA.DIHEDRAL.0>
5.8785

>  <SCORE.INTRA.POLAR>
0

>  <SCORE.INTRA.POLAR.0>
0

>  <SCORE.INTRA.REPUL>
0

>  <SCORE.INTRA.REPUL.0>
0

>  <SCORE.INTRA.SOLV>
-0.709152

>  <SCORE.INTRA.SOLV.lig_0>
-31.9559

>  <SCORE.INTRA.VDW>
-0.0560239

>  <SCORE.INTRA.VDW.0>
-0.507645

>  <SCORE.INTRA.norm>
-0.235474

>  <SCORE.RESTR>
0

>  <SCORE.RESTR.CAVITY>
0

>  <SCORE.RESTR.norm>
0

>  <SCORE.SYSTEM>
0

>  <SCORE.SYSTEM.CONST>
0

>  <SCORE.SYSTEM.DIHEDRAL>
0

>  <SCORE.SYSTEM.SOLV>
0

>  <SCORE.SYSTEM.norm>
0

>  <SCORE.heavy>
10

>  <SCORE.norm>
-1.24017

>  <RMSD>
5.275

$$$$
ligand
 OpenBabel11021811473D
libRbt.so/2013.1/901 2013/11/27
 10  9  0  0  0  0  0  0  0  0999 V2000
   27.3443   14.3671   18.8630 N   0  0  0  0  0  0  0  0  0  0  0  0
   27.9637   14.8152   20.1381 C   0  0  2  0  0  0  0  0  0  0  0  0
   26.9486   14.8145   21.2815 C   0  0  0  0  0  0  0  0  0  0  0  0
   27.3119   14.8950   22.4508 O   0  0  0  0  0  0  0  0  0  0  0  0
   28.6272   16.1849   19.9548 C   0  0  0  0  0  0  0  0  0  0  0  0
   29.4953   16.5895   21.1420 C   0  0  0  0  0  0  0  0  0  0  0  0
   30.6799   15.6570   21.3531 C   0  0  0  0  0  0  0  0  0  0  0  0
   31.5299   16.1108   22.5404 C   0  0  0  0  0  0  0  0  0  0  0  0
   32.1846   17.4630   22.3545 N   0  0  0  0  0  0  0  0  0  0  0  0
   25.7371   14.7752   21.0998 O   0  0  0  0  0  0  0  0  0  0  0  0
  2  1  1  6  0  0  0
  2  3  1  0  0  0  0
  2  5  1  0  0  0  0
  3  4  1  0  0  0  0
  3 10  1  0  0  0  0
  5  6  1  0  0  0  0
  6  7  1  0  0  0  0
  7  8  1  0  0  0  0
  8  9  1  0  0  0  0
M  END
>  <CHROM.1>
165.51189382,-169.54260879,63.49798428,179.27753623,-63.89055336,28.75088340
15.56278002,21.14097703,-2.83303796,0.37207053,1.50616918

>  <Name>
ligand

>  <RI>
0

>  <Rbt.Current_Directory>
/home/itssahil/PROJECTS/Mol_Feturizer/New_Systems/rnas/3DIM

>  <Rbt.Executable>
rbdock ($Id: //depot/dev/client3/rdock/2013.1/src/exe/rbdock.cxx#4 $)

>  <Rbt.Library>
libRbt.so (2013.1, Build901 2013/11/27)

>  <Rbt.Parameter_File>
/export/apps/rDock/src/rDock_2013.1_src/data/scripts/dock_solv.prm

>  <Rbt.Receptor>
prm/pocket_docking_6.prm

>  <SCORE>
-12.3766

>  <SCORE.INTER>
-10.0323

>  <SCORE.INTER.CONST>
1

>  <SCORE.INTER.POLAR>
0

>  <SCORE.INTER.ROT>
5

>  <SCORE.INTER.SOLV>
14.0777

>  <SCORE.INTER.VDW>
-18.3141

>  <SCORE.INTER.norm>
-1.00323

>  <SCORE.INTRA>
-2.34434

>  <SCORE.INTRA.DIHEDRAL>
-3.92777

>  <SCORE.INTRA.DIHEDRAL.0>
5.8785

>  <SCORE.INTRA.POLAR>
0

>  <SCORE.INTRA.POLAR.0>
0

>  <SCORE.INTRA.REPUL>
0

>  <SCORE.INTRA.REPUL.0>
0

>  <SCORE.INTRA.SOLV>
-0.702968

>  <SCORE.INTRA.SOLV.lig_0>
-31.9559

>  <SCORE.INTRA.VDW>
-0.0289732

>  <SCORE.INTRA.VDW.0>
-0.507645

>  <SCORE.INTRA.norm>
-0.234434

>  <SCORE.RESTR>
0

>  <SCORE.RESTR.CAVITY>
0

>  <SCORE.RESTR.norm>
0

>  <SCORE.SYSTEM>
0

>  <SCORE.SYSTEM.CONST>
0

>  <SCORE.SYSTEM.DIHEDRAL>
0

>  <SCORE.SYSTEM.SOLV>
0

>  <SCORE.SYSTEM.norm>
0

>  <SCORE.heavy>
10

>  <SCORE.norm>
-1.23766

>  <RMSD>
5.275

$$$$
ligand
 OpenBabel11021811473D
libRbt.so/2013.1/901 2013/11/27
 10  9  0  0  0  0  0  0  0  0999 V2000
   27.9018   14.6278   18.9984 N   0  0  0  0  0  0  0  0  0  0  0  0
   28.2642   14.5473   20.4380 C   0  0  2  0  0  0  0  0  0  0  0  0
   27.0696   14.8787   21.3330 C   0  0  0  0  0  0  0  0  0  0  0  0
   25.9407   14.9928   20.8658 O   0  0  0  0  0  0  0  0  0  0  0  0
   29.4735   15.4419   20.7331 C   0  0  0  0  0  0  0  0  0  0  0  0
   30.0419   15.2320   22.1329 C   0  0  0  0  0  0  0  0  0  0  0  0
   31.3858   15.9181   22.3342 C   0  0  0  0  0  0  0  0  0  0  0  0
   31.2316   17.4394   22.3229 C   0  0  0  0  0  0  0  0  0  0  0  0
   32.5314   18.1964   22.4943 N   0  0  0  0  0  0  0  0  0  0  0  0
   27.1604   15.0071   22.5485 O   0  0  0  0  0  0  0  0  0  0  0  0
  2  1  1  6  0  0  0
  2  3  1  0  0  0  0
  2  5  1  0  0  0  0
  3  4  1  0  0  0  0
  3 10  1  0  0  0  0
  5  6  1  0  0  0  0
  6  7  1  0  0  0  0
  7  8  1  0  0  0  0
  8  9  1  0  0  0  0
M  END
>  <CHROM.1>
9.71505858,-170.44060367,169.19520610,68.12899060,-179.01752352,29.06346850
15.62880573,21.43657113,-2.71973606,0.35926802,1.24921256

>  <Name>
ligand

>  <RI>
0

>  <Rbt.Current_Directory>
/home/itssahil/PROJECTS/Mol_Feturizer/New_Systems/rnas/3DIM

>  <Rbt.Executable>
rbdock ($Id: //depot/dev/client3/rdock/2013.1/src/exe/rbdock.cxx#4 $)

>  <Rbt.Library>
libRbt.so (2013.1, Build901 2013/11/27)

>  <Rbt.Parameter_File>
/export/apps/rDock/src/rDock_2013.1_src/data/scripts/dock_solv.prm

>  <Rbt.Receptor>
prm/pocket_docking_3.prm

>  <SCORE>
-11.2481

>  <SCORE.INTER>
-9.41888

>  <SCORE.INTER.CONST>
1

>  <SCORE.INTER.POLAR>
0

>  <SCORE.INTER.ROT>
5

>  <SCORE.INTER.SOLV>
14.042

>  <SCORE.INTER.VDW>
-17.8933

>  <SCORE.INTER.norm>
-0.941888

>  <SCORE.INTRA>
-1.82924

>  <SCORE.INTRA.DIHEDRAL>
-3.32142

>  <SCORE.INTRA.DIHEDRAL.0>
5.8785

>  <SCORE.INTRA.POLAR>
0

>  <SCORE.INTRA.POLAR.0>
0

>  <SCORE.INTRA.REPUL>
0

>  <SCORE.INTRA.REPUL.0>
0

>  <SCORE.INTRA.SOLV>
-1.65167

>  <SCORE.INTRA.SOLV.lig_0>
-31.9559

>  <SCORE.INTRA.VDW>
0.657308

>  <SCORE.INTRA.VDW.0>
-0.507645

>  <SCORE.INTRA.norm>
-0.182924

>  <SCORE.RESTR>
0

>  <SCORE.RESTR.CAVITY>
0

>  <SCORE.RESTR.norm>
0

>  <SCORE.SYSTEM>
0

>  <SCORE.SYSTEM.CONST>
0

>  <SCORE.SYSTEM.DIHEDRAL>
0

>  <SCORE.SYSTEM.SOLV>
0

>  <SCORE.SYSTEM.norm>
0

>  <SCORE.heavy>
10

>  <SCORE.norm>
-1.12481

>  <RMSD>
5.276

$$$$
ligand
 OpenBabel11021811473D
libRbt.so/2013.1/901 2013/11/27
 10  9  0  0  0  0  0  0  0  0999 V2000
   27.3541   14.3571   18.8474 N   0  0  0  0  0  0  0  0  0  0  0  0
   27.9650   14.8177   20.1222 C   0  0  2  0  0  0  0  0  0  0  0  0
   26.9434   14.8239   21.2598 C   0  0  0  0  0  0  0  0  0  0  0  0
   27.3013   14.8829   22.4320 O   0  0  0  0  0  0  0  0  0  0  0  0
   28.6260   16.1875   19.9311 C   0  0  0  0  0  0  0  0  0  0  0  0
   29.4873   16.6038   21.1191 C   0  0  0  0  0  0  0  0  0  0  0  0
   30.6716   15.6743   21.3451 C   0  0  0  0  0  0  0  0  0  0  0  0
   31.4990   16.1237   22.5500 C   0  0  0  0  0  0  0  0  0  0  0  0
   32.1937   17.4558   22.3640 N   0  0  0  0  0  0  0  0  0  0  0  0
   25.7325   14.8116   21.0708 O   0  0  0  0  0  0  0  0  0  0  0  0
  2  1  1  6  0  0  0
  2  3  1  0  0  0  0
  2  5  1  0  0  0  0
  3  4  1  0  0  0  0
  3 10  1  0  0  0  0
  5  6  1  0  0  0  0
  6  7  1  0  0  0  0
  7  8  1  0  0  0  0
  8  9  1  0  0  0  0
M  END
>  <CHROM.1>
163.73748995,-169.48098248,63.37341148,-179.57861710,-66.05624512,28.74589620
15.56955309,21.12717346,-2.82704133,0.37095962,1.50402340

>  <Name>
ligand

>  <RI>
0

>  <Rbt.Current_Directory>
/home/itssahil/PROJECTS/Mol_Feturizer/New_Systems/rnas/3DIM

>  <Rbt.Executable>
rbdock ($Id: //depot/dev/client3/rdock/2013.1/src/exe/rbdock.cxx#4 $)

>  <Rbt.Library>
libRbt.so (2013.1, Build901 2013/11/27)

>  <Rbt.Parameter_File>
/export/apps/rDock/src/rDock_2013.1_src/data/scripts/dock_solv.prm

>  <Rbt.Receptor>
prm/pocket_docking_4.prm

>  <SCORE>
-12.3946

>  <SCORE.INTER>
-10.0292

>  <SCORE.INTER.CONST>
1

>  <SCORE.INTER.POLAR>
0

>  <SCORE.INTER.ROT>
5

>  <SCORE.INTER.SOLV>
14.0802

>  <SCORE.INTER.VDW>
-18.3128

>  <SCORE.INTER.norm>
-1.00292

>  <SCORE.INTRA>
-2.36546

>  <SCORE.INTRA.DIHEDRAL>
-3.8523

>  <SCORE.INTRA.DIHEDRAL.0>
5.8785

>  <SCORE.INTRA.POLAR>
0

>  <SCORE.INTRA.POLAR.0>
0

>  <SCORE.INTRA.REPUL>
0

>  <SCORE.INTRA.REPUL.0>
0

>  <SCORE.INTRA.SOLV>
-0.739268

>  <SCORE.INTRA.SOLV.lig_0>
-31.9559

>  <SCORE.INTRA.VDW>
-0.0696725

>  <SCORE.INTRA.VDW.0>
-0.507645

>  <SCORE.INTRA.norm>
-0.236546

>  <SCORE.RESTR>
0

>  <SCORE.RESTR.CAVITY>
0

>  <SCORE.RESTR.norm>
0

>  <SCORE.SYSTEM>
0

>  <SCORE.SYSTEM.CONST>
0

>  <SCORE.SYSTEM.DIHEDRAL>
0

>  <SCORE.SYSTEM.SOLV>
0

>  <SCORE.SYSTEM.norm>
0

>  <SCORE.heavy>
10

>  <SCORE.norm>
-1.23946

>  <RMSD>
5.277

$$$$
ligand
 OpenBabel11021811473D
libRbt.so/2013.1/901 2013/11/27
 10  9  0  0  0  0  0  0  0  0999 V2000
   27.2431   13.8166   18.9196 N   0  0  0  0  0  0  0  0  0  0  0  0
   27.8480   14.6289   20.0080 C   0  0  2  0  0  0  0  0  0  0  0  0
   26.9155   14.7250   21.2160 C   0  0  0  0  0  0  0  0  0  0  0  0
   27.3623   14.8240   22.3545 O   0  0  0  0  0  0  0  0  0  0  0  0
   28.2535   16.0094   19.4793 C   0  0  0  0  0  0  0  0  0  0  0  0
   29.1035   16.7998   20.4689 C   0  0  0  0  0  0  0  0  0  0  0  0
   30.4804   16.1878   20.6860 C   0  0  0  0  0  0  0  0  0  0  0  0
   31.2601   16.9570   21.7531 C   0  0  0  0  0  0  0  0  0  0  0  0
   30.6416   16.9026   23.1338 N   0  0  0  0  0  0  0  0  0  0  0  0
   25.6941   14.7491   21.1173 O   0  0  0  0  0  0  0  0  0  0  0  0
  2  1  1  6  0  0  0
  2  3  1  0  0  0  0
  2  5  1  0  0  0  0
  3  4  1  0  0  0  0
  3 10  1  0  0  0  0
  5  6  1  0  0  0  0
  6  7  1  0  0  0  0
  7  8  1  0  0  0  0
  8  9  1  0  0  0  0
M  END
>  <CHROM.1>
148.95443922,-169.62828176,67.58548058,-176.16410843,64.09356774,28.45237868
15.55703370,20.93875862,-2.76877888,0.47916685,1.42492552

>  <Name>
ligand

>  <RI>
0

>  <Rbt.Current_Directory>
/home/itssahil/PROJECTS/Mol_Feturizer/New_Systems/rnas/3DIM

>  <Rbt.Executable>
rbdock ($Id: //depot/dev/client3/rdock/2013.1/src/exe/rbdock.cxx#4 $)

>  <Rbt.Library>
libRbt.so (2013.1, Build901 2013/11/27)

>  <Rbt.Parameter_File>
/export/apps/rDock/src/rDock_2013.1_src/data/scripts/dock_solv.prm

>  <Rbt.Receptor>
prm/pocket_docking_5.prm

>  <SCORE>
-11.337

>  <SCORE.INTER>
-8.78674

>  <SCORE.INTER.CONST>
1

>  <SCORE.INTER.POLAR>
0

>  <SCORE.INTER.ROT>
5

>  <SCORE.INTER.SOLV>
16.4588

>  <SCORE.INTER.VDW>
-18.2774

>  <SCORE.INTER.norm>
-0.878674

>  <SCORE.INTRA>
-2.55027

>  <SCORE.INTRA.DIHEDRAL>
-3.70129

>  <SCORE.INTRA.DIHEDRAL.0>
5.8785

>  <SCORE.INTRA.POLAR>
0

>  <SCORE.INTRA.POLAR.0>
0

>  <SCORE.INTRA.REPUL>
0

>  <SCORE.INTRA.REPUL.0>
0

>  <SCORE.INTRA.SOLV>
-0.690646

>  <SCORE.INTRA.SOLV.lig_0>
-31.9559

>  <SCORE.INTRA.VDW>
-0.3543

>  <SCORE.INTRA.VDW.0>
-0.507645

>  <SCORE.INTRA.norm>
-0.255027

>  <SCORE.RESTR>
0

>  <SCORE.RESTR.CAVITY>
0

>  <SCORE.RESTR.norm>
0

>  <SCORE.SYSTEM>
0

>  <SCORE.SYSTEM.CONST>
0

>  <SCORE.SYSTEM.DIHEDRAL>
0

>  <SCORE.SYSTEM.SOLV>
0

>  <SCORE.SYSTEM.norm>
0

>  <SCORE.heavy>
10

>  <SCORE.norm>
-1.1337

>  <RMSD>
5.278

$$$$
ligand
 OpenBabel11021811473D
libRbt.so/2013.1/901 2013/11/27
 10  9  0  0  0  0  0  0  0  0999 V2000
   25.8422   15.0576   20.8494 N   0  0  0  0  0  0  0  0  0  0  0  0
   27.3053   15.3128   20.7834 C   0  0  2  0  0  0  0  0  0  0  0  0
   27.8591   15.0248   19.3875 C   0  0  0  0  0  0  0  0  0  0  0  0
   27.7048   13.9282   18.8589 O   0  0  0  0  0  0  0  0  0  0  0  0
   28.0342   14.5149   21.8706 C   0  0  0  0  0  0  0  0  0  0  0  0
   29.5468   14.7090   21.8384 C   0  0  0  0  0  0  0  0  0  0  0  0
   29.9691   16.1236   22.2100 C   0  0  0  0  0  0  0  0  0  0  0  0
   31.4923   16.2592   22.2079 C   0  0  0  0  0  0  0  0  0  0  0  0
   31.9919   17.6523   22.5265 N   0  0  0  0  0  0  0  0  0  0  0  0
   28.4415   15.8661   18.7129 O   0  0  0  0  0  0  0  0  0  0  0  0
  2  1  1  6  0  0  0
  2  3  1  0  0  0  0
  2  5  1  0  0  0  0
  3  4  1  0  0  0  0
  3 10  1  0  0  0  0
  5  6  1  0  0  0  0
  6  7  1  0  0  0  0
  7  8  1  0  0  0  0
  8  9  1  0  0  0  0
M  END
>  <CHROM.1>
-55.98672273,178.75511513,67.09718995,178.18634229,178.19175587,28.82238013
15.43622223,20.88749712,2.62547657,-0.44677104,-1.55409676

>  <Name>
ligand

>  <RI>
0

>  <Rbt.Current_Directory>
/home/itssahil/PROJECTS/Mol_Feturizer/New_Systems/rnas/3DIM

>  <Rbt.Executable>
rbdock ($Id: //depot/dev/client3/rdock/2013.1/src/exe/rbdock.cxx#4 $)

>  <Rbt.Library>
libRbt.so (2013.1, Build901 2013/11/27)

>  <Rbt.Parameter_File>
/export/apps/rDock/src/rDock_2013.1_src/data/scripts/dock_solv.prm

>  <Rbt.Receptor>
prm/pocket_docking_4.prm

>  <SCORE>
-10.4425

>  <SCORE.INTER>
-7.41684

>  <SCORE.INTER.CONST>
1

>  <SCORE.INTER.POLAR>
0

>  <SCORE.INTER.ROT>
5

>  <SCORE.INTER.SOLV>
18.0649

>  <SCORE.INTER.VDW>
-17.8995

>  <SCORE.INTER.norm>
-0.741684

>  <SCORE.INTRA>
-3.0257

>  <SCORE.INTRA.DIHEDRAL>
-4.11928

>  <SCORE.INTRA.DIHEDRAL.0>
5.8785

>  <SCORE.INTRA.POLAR>
0

>  <SCORE.INTRA.POLAR.0>
0

>  <SCORE.INTRA.REPUL>
0

>  <SCORE.INTRA.REPUL.0>
0

>  <SCORE.INTRA.SOLV>
-1.66703

>  <SCORE.INTRA.SOLV.lig_0>
-31.9559

>  <SCORE.INTRA.VDW>
-0.132542

>  <SCORE.INTRA.VDW.0>
-0.507645

>  <SCORE.INTRA.norm>
-0.30257

>  <SCORE.RESTR>
0

>  <SCORE.RESTR.CAVITY>
0

>  <SCORE.RESTR.norm>
0

>  <SCORE.SYSTEM>
0

>  <SCORE.SYSTEM.CONST>
0

>  <SCORE.SYSTEM.DIHEDRAL>
0

>  <SCORE.SYSTEM.SOLV>
0

>  <SCORE.SYSTEM.norm>
0

>  <SCORE.heavy>
10

>  <SCORE.norm>
-1.04425

>  <RMSD>
5.279

$$$$
ligand
 OpenBabel11021811473D
libRbt.so/2013.1/901 2013/11/27
 10  9  0  0  0  0  0  0  0  0999 V2000
   27.4626   13.8301   18.8224 N   0  0  0  0  0  0  0  0  0  0  0  0
   28.1184   14.2075   20.1021 C   0  0  2  0  0  0  0  0  0  0  0  0
   27.1302   14.8742   21.0596 C   0  0  0  0  0  0  0  0  0  0  0  0
   25.9990   15.1766   20.6928 O   0  0  0  0  0  0  0  0  0  0  0  0
   29.3449   15.0867   19.8324 C   0  0  0  0  0  0  0  0  0  0  0  0
   30.1710   15.3568   21.0859 C   0  0  0  0  0  0  0  0  0  0  0  0
   31.4873   16.0604   20.7861 C   0  0  0  0  0  0  0  0  0  0  0  0
   32.1683   16.5216   22.0752 C   0  0  0  0  0  0  0  0  0  0  0  0
   31.4458   17.6421   22.7923 N   0  0  0  0  0  0  0  0  0  0  0  0
   27.3901   15.1040   22.2351 O   0  0  0  0  0  0  0  0  0  0  0  0
  2  1  1  6  0  0  0
  2  3  1  0  0  0  0
  2  5  1  0  0  0  0
  3  4  1  0  0  0  0
  3 10  1  0  0  0  0
  5  6  1  0  0  0  0
  6  7  1  0  0  0  0
  7  8  1  0  0  0  0
  8  9  1  0  0  0  0
M  END
>  <CHROM.1>
-8.09263326,-172.35514482,171.88592026,170.38048904,-68.58797444,29.03973290
15.39475703,20.96729413,-2.66247939,0.20629114,1.02762036

>  <Name>
ligand

>  <RI>
0

>  <Rbt.Current_Directory>
/home/itssahil/PROJECTS/Mol_Feturizer/New_Systems/rnas/3DIM

>  <Rbt.Executable>
rbdock ($Id: //depot/dev/client3/rdock/2013.1/src/exe/rbdock.cxx#4 $)

>  <Rbt.Library>
libRbt.so (2013.1, Build901 2013/11/27)

>  <Rbt.Parameter_File>
/export/apps/rDock/src/rDock_2013.1_src/data/scripts/dock_solv.prm

>  <Rbt.Receptor>
prm/pocket_docking_3.prm

>  <SCORE>
-9.60582

>  <SCORE.INTER>
-7.4044

>  <SCORE.INTER.CONST>
1

>  <SCORE.INTER.POLAR>
0

>  <SCORE.INTER.ROT>
5

>  <SCORE.INTER.SOLV>
15.5732

>  <SCORE.INTER.VDW>
-17.0607

>  <SCORE.INTER.norm>
-0.74044

>  <SCORE.INTRA>
-2.20142

>  <SCORE.INTRA.DIHEDRAL>
-3.19551

>  <SCORE.INTRA.DIHEDRAL.0>
5.8785

>  <SCORE.INTRA.POLAR>
0

>  <SCORE.INTRA.POLAR.0>
0

>  <SCORE.INTRA.REPUL>
0

>  <SCORE.INTRA.REPUL.0>
0

>  <SCORE.INTRA.SOLV>
-0.984667

>  <SCORE.INTRA.SOLV.lig_0>
-31.9559

>  <SCORE.INTRA.VDW>
-0.111329

>  <SCORE.INTRA.VDW.0>
-0.507645

>  <SCORE.INTRA.norm>
-0.220142

>  <SCORE.RESTR>
0

>  <SCORE.RESTR.CAVITY>
0

>  <SCORE.RESTR.norm>
0

>  <SCORE.SYSTEM>
0

>  <SCORE.SYSTEM.CONST>
0

>  <SCORE.SYSTEM.DIHEDRAL>
0

>  <SCORE.SYSTEM.SOLV>
0

>  <SCORE.SYSTEM.norm>
0

>  <SCORE.heavy>
10

>  <SCORE.norm>
-0.960582

>  <RMSD>
5.284

$$$$
ligand
 OpenBabel11021811473D
libRbt.so/2013.1/901 2013/11/27
 10  9  0  0  0  0  0  0  0  0999 V2000
   27.3527   14.3530   18.8460 N   0  0  0  0  0  0  0  0  0  0  0  0
   27.9537   14.8178   20.1239 C   0  0  2  0  0  0  0  0  0  0  0  0
   26.9227   14.8298   21.2530 C   0  0  0  0  0  0  0  0  0  0  0  0
   27.2709   14.8968   22.4277 O   0  0  0  0  0  0  0  0  0  0  0  0
   28.6179   16.1861   19.9329 C   0  0  0  0  0  0  0  0  0  0  0  0
   29.4786   16.6012   21.1219 C   0  0  0  0  0  0  0  0  0  0  0  0
   30.6649   15.6737   21.3452 C   0  0  0  0  0  0  0  0  0  0  0  0
   31.4973   16.1278   22.5449 C   0  0  0  0  0  0  0  0  0  0  0  0
   32.1790   17.4663   22.3566 N   0  0  0  0  0  0  0  0  0  0  0  0
   25.7134   14.8143   21.0541 O   0  0  0  0  0  0  0  0  0  0  0  0
  2  1  1  6  0  0  0
  2  3  1  0  0  0  0
  2  5  1  0  0  0  0
  3  4  1  0  0  0  0
  3 10  1  0  0  0  0
  5  6  1  0  0  0  0
  6  7  1  0  0  0  0
  7  8  1  0  0  0  0
  8  9  1  0  0  0  0
M  END
>  <CHROM.1>
163.95404758,-169.03945528,63.69955631,-179.99926048,-65.50294396,28.73338333
15.57251458,21.12345072,-2.82464000,0.36774558,1.49442071

>  <Name>
ligand

>  <RI>
0

>  <Rbt.Current_Directory>
/home/itssahil/PROJECTS/Mol_Feturizer/New_Systems/rnas/3DIM

>  <Rbt.Executable>
rbdock ($Id: //depot/dev/client3/rdock/2013.1/src/exe/rbdock.cxx#4 $)

>  <Rbt.Library>
libRbt.so (2013.1, Build901 2013/11/27)

>  <Rbt.Parameter_File>
/export/apps/rDock/src/rDock_2013.1_src/data/scripts/dock_solv.prm

>  <Rbt.Receptor>
prm/blind_docking_60.prm

>  <SCORE>
-12.379

>  <SCORE.INTER>
-10.0235

>  <SCORE.INTER.CONST>
1

>  <SCORE.INTER.POLAR>
0

>  <SCORE.INTER.ROT>
5

>  <SCORE.INTER.SOLV>
14.0872

>  <SCORE.INTER.VDW>
-18.3114

>  <SCORE.INTER.norm>
-1.00235

>  <SCORE.INTRA>
-2.3555

>  <SCORE.INTRA.DIHEDRAL>
-3.83215

>  <SCORE.INTRA.DIHEDRAL.0>
5.8785

>  <SCORE.INTRA.POLAR>
0

>  <SCORE.INTRA.POLAR.0>
0

>  <SCORE.INTRA.REPUL>
0

>  <SCORE.INTRA.REPUL.0>
0

>  <SCORE.INTRA.SOLV>
-0.727042

>  <SCORE.INTRA.SOLV.lig_0>
-31.9559

>  <SCORE.INTRA.VDW>
-0.0759029

>  <SCORE.INTRA.VDW.0>
-0.507645

>  <SCORE.INTRA.norm>
-0.23555

>  <SCORE.RESTR>
0

>  <SCORE.RESTR.CAVITY>
0

>  <SCORE.RESTR.norm>
0

>  <SCORE.SYSTEM>
0

>  <SCORE.SYSTEM.CONST>
0

>  <SCORE.SYSTEM.DIHEDRAL>
0

>  <SCORE.SYSTEM.SOLV>
0

>  <SCORE.SYSTEM.norm>
0

>  <SCORE.heavy>
10

>  <SCORE.norm>
-1.2379

>  <RMSD>
5.285

$$$$
ligand
 OpenBabel11021811473D
libRbt.so/2013.1/901 2013/11/27
 10  9  0  0  0  0  0  0  0  0999 V2000
   25.8111   15.0488   20.8794 N   0  0  0  0  0  0  0  0  0  0  0  0
   27.2794   15.2712   20.8103 C   0  0  2  0  0  0  0  0  0  0  0  0
   27.8250   14.9628   19.4156 C   0  0  0  0  0  0  0  0  0  0  0  0
   28.5633   15.7528   18.8355 O   0  0  0  0  0  0  0  0  0  0  0  0
   27.9919   14.4639   21.9014 C   0  0  0  0  0  0  0  0  0  0  0  0
   29.5042   14.6625   21.8973 C   0  0  0  0  0  0  0  0  0  0  0  0
   29.9160   16.0747   22.2892 C   0  0  0  0  0  0  0  0  0  0  0  0
   31.4371   16.2292   22.2636 C   0  0  0  0  0  0  0  0  0  0  0  0
   31.9246   17.6268   22.5806 N   0  0  0  0  0  0  0  0  0  0  0  0
   27.5950   13.9138   18.8248 O   0  0  0  0  0  0  0  0  0  0  0  0
  2  1  1  6  0  0  0
  2  3  1  0  0  0  0
  2  5  1  0  0  0  0
  3  4  1  0  0  0  0
  3 10  1  0  0  0  0
  5  6  1  0  0  0  0
  6  7  1  0  0  0  0
  7  8  1  0  0  0  0
  8  9  1  0  0  0  0
M  END
>  <CHROM.1>
131.10329718,-179.24071075,67.02681334,-179.67851380,177.33012518,28.78946827
15.39170625,20.93306578,2.60207954,-0.43354064,-1.59490570

>  <Name>
ligand

>  <RI>
0

>  <Rbt.Current_Directory>
/home/itssahil/PROJECTS/Mol_Feturizer/New_Systems/rnas/3DIM

>  <Rbt.Executable>
rbdock ($Id: //depot/dev/client3/rdock/2013.1/src/exe/rbdock.cxx#4 $)

>  <Rbt.Library>
libRbt.so (2013.1, Build901 2013/11/27)

>  <Rbt.Parameter_File>
/export/apps/rDock/src/rDock_2013.1_src/data/scripts/dock_solv.prm

>  <Rbt.Receptor>
prm/pocket_docking_4.prm

>  <SCORE>
-10.284

>  <SCORE.INTER>
-7.13971

>  <SCORE.INTER.CONST>
1

>  <SCORE.INTER.POLAR>
0

>  <SCORE.INTER.ROT>
5

>  <SCORE.INTER.SOLV>
18.1665

>  <SCORE.INTER.VDW>
-17.7486

>  <SCORE.INTER.norm>
-0.713971

>  <SCORE.INTRA>
-3.14433

>  <SCORE.INTRA.DIHEDRAL>
-4.17878

>  <SCORE.INTRA.DIHEDRAL.0>
5.8785

>  <SCORE.INTRA.POLAR>
0

>  <SCORE.INTRA.POLAR.0>
0

>  <SCORE.INTRA.REPUL>
0

>  <SCORE.INTRA.REPUL.0>
0

>  <SCORE.INTRA.SOLV>
-1.67832

>  <SCORE.INTRA.SOLV.lig_0>
-31.9559

>  <SCORE.INTRA.VDW>
-0.215782

>  <SCORE.INTRA.VDW.0>
-0.507645

>  <SCORE.INTRA.norm>
-0.314433

>  <SCORE.RESTR>
0

>  <SCORE.RESTR.CAVITY>
0

>  <SCORE.RESTR.norm>
0

>  <SCORE.SYSTEM>
0

>  <SCORE.SYSTEM.CONST>
0

>  <SCORE.SYSTEM.DIHEDRAL>
0

>  <SCORE.SYSTEM.SOLV>
0

>  <SCORE.SYSTEM.norm>
0

>  <SCORE.heavy>
10

>  <SCORE.norm>
-1.0284

>  <RMSD>
5.285

$$$$
ligand
 OpenBabel11021811473D
libRbt.so/2013.1/901 2013/11/27
 10  9  0  0  0  0  0  0  0  0999 V2000
   28.5369   13.9569   19.2442 N   0  0  0  0  0  0  0  0  0  0  0  0
   28.3125   14.2040   20.6930 C   0  0  2  0  0  0  0  0  0  0  0  0
   26.9871   14.9265   20.9366 C   0  0  0  0  0  0  0  0  0  0  0  0
   26.6295   15.8534   20.2164 O   0  0  0  0  0  0  0  0  0  0  0  0
   29.5025   14.9603   21.2944 C   0  0  0  0  0  0  0  0  0  0  0  0
   29.7765   16.2895   20.5981 C   0  0  0  0  0  0  0  0  0  0  0  0
   31.1719   16.8283   20.8810 C   0  0  0  0  0  0  0  0  0  0  0  0
   31.2940   17.2995   22.3306 C   0  0  0  0  0  0  0  0  0  0  0  0
   32.6501   17.8713   22.6854 N   0  0  0  0  0  0  0  0  0  0  0  0
   26.2025   14.6034   21.8210 O   0  0  0  0  0  0  0  0  0  0  0  0
  2  1  1  6  0  0  0
  2  3  1  0  0  0  0
  2  5  1  0  0  0  0
  3  4  1  0  0  0  0
  3 10  1  0  0  0  0
  5  6  1  0  0  0  0
  6  7  1  0  0  0  0
  7  8  1  0  0  0  0
  8  9  1  0  0  0  0
M  END
>  <CHROM.1>
-42.22621076,57.60120304,-162.14167154,-70.36594595,-179.07719210,29.06664498
15.68791573,21.07325811,-2.64043681,0.24403401,0.88967632

>  <Name>
ligand

>  <RI>
0

>  <Rbt.Current_Directory>
/home/itssahil/PROJECTS/Mol_Feturizer/New_Systems/rnas/3DIM

>  <Rbt.Executable>
rbdock ($Id: //depot/dev/client3/rdock/2013.1/src/exe/rbdock.cxx#4 $)

>  <Rbt.Library>
libRbt.so (2013.1, Build901 2013/11/27)

>  <Rbt.Parameter_File>
/export/apps/rDock/src/rDock_2013.1_src/data/scripts/dock_solv.prm

>  <Rbt.Receptor>
prm/pocket_docking_8.prm

>  <SCORE>
-9.15097

>  <SCORE.INTER>
-7.78262

>  <SCORE.INTER.CONST>
1

>  <SCORE.INTER.POLAR>
0

>  <SCORE.INTER.ROT>
5

>  <SCORE.INTER.SOLV>
13.5276

>  <SCORE.INTER.VDW>
-16.6309

>  <SCORE.INTER.norm>
-0.778262

>  <SCORE.INTRA>
-1.36834

>  <SCORE.INTRA.DIHEDRAL>
-2.59714

>  <SCORE.INTRA.DIHEDRAL.0>
5.8785

>  <SCORE.INTRA.POLAR>
0

>  <SCORE.INTRA.POLAR.0>
0

>  <SCORE.INTRA.REPUL>
0

>  <SCORE.INTRA.REPUL.0>
0

>  <SCORE.INTRA.SOLV>
-0.63363

>  <SCORE.INTRA.SOLV.lig_0>
-31.9559

>  <SCORE.INTRA.VDW>
0.247042

>  <SCORE.INTRA.VDW.0>
-0.507645

>  <SCORE.INTRA.norm>
-0.136834

>  <SCORE.RESTR>
0

>  <SCORE.RESTR.CAVITY>
0

>  <SCORE.RESTR.norm>
0

>  <SCORE.SYSTEM>
0

>  <SCORE.SYSTEM.CONST>
0

>  <SCORE.SYSTEM.DIHEDRAL>
0

>  <SCORE.SYSTEM.SOLV>
0

>  <SCORE.SYSTEM.norm>
0

>  <SCORE.heavy>
10

>  <SCORE.norm>
-0.915097

>  <RMSD>
5.288

$$$$
ligand
 OpenBabel11021811473D
libRbt.so/2013.1/901 2013/11/27
 10  9  0  0  0  0  0  0  0  0999 V2000
   28.0867   14.2446   18.8258 N   0  0  0  0  0  0  0  0  0  0  0  0
   28.1871   14.3145   20.3074 C   0  0  2  0  0  0  0  0  0  0  0  0
   26.9074   14.8770   20.9270 C   0  0  0  0  0  0  0  0  0  0  0  0
   26.7059   14.8087   22.1355 O   0  0  0  0  0  0  0  0  0  0  0  0
   29.4288   15.1135   20.7196 C   0  0  0  0  0  0  0  0  0  0  0  0
   29.6443   15.1420   22.2293 C   0  0  0  0  0  0  0  0  0  0  0  0
   30.9954   15.7228   22.6226 C   0  0  0  0  0  0  0  0  0  0  0  0
   31.0875   17.2016   22.2442 C   0  0  0  0  0  0  0  0  0  0  0  0
   32.4333   17.8330   22.5302 N   0  0  0  0  0  0  0  0  0  0  0  0
   26.0452   15.4525   20.2732 O   0  0  0  0  0  0  0  0  0  0  0  0
  2  1  1  6  0  0  0
  2  3  1  0  0  0  0
  2  5  1  0  0  0  0
  3  4  1  0  0  0  0
  3 10  1  0  0  0  0
  5  6  1  0  0  0  0
  6  7  1  0  0  0  0
  7  8  1  0  0  0  0
  8  9  1  0  0  0  0
M  END
>  <CHROM.1>
167.82415034,-176.03130666,170.02744717,65.44479664,-176.62348208,28.91443400
15.47809199,21.29151500,-2.62489500,0.25461885,1.16715026

>  <Name>
ligand

>  <RI>
0

>  <Rbt.Current_Directory>
/home/itssahil/PROJECTS/Mol_Feturizer/New_Systems/rnas/3DIM

>  <Rbt.Executable>
rbdock ($Id: //depot/dev/client3/rdock/2013.1/src/exe/rbdock.cxx#4 $)

>  <Rbt.Library>
libRbt.so (2013.1, Build901 2013/11/27)

>  <Rbt.Parameter_File>
/export/apps/rDock/src/rDock_2013.1_src/data/scripts/dock_solv.prm

>  <Rbt.Receptor>
prm/pocket_docking_4.prm

>  <SCORE>
-11.1212

>  <SCORE.INTER>
-9.02856

>  <SCORE.INTER.CONST>
1

>  <SCORE.INTER.POLAR>
0

>  <SCORE.INTER.ROT>
5

>  <SCORE.INTER.SOLV>
13.9115

>  <SCORE.INTER.VDW>
-17.5896

>  <SCORE.INTER.norm>
-0.902856

>  <SCORE.INTRA>
-2.09261

>  <SCORE.INTRA.DIHEDRAL>
-3.80122

>  <SCORE.INTRA.DIHEDRAL.0>
5.8785

>  <SCORE.INTRA.POLAR>
0

>  <SCORE.INTRA.POLAR.0>
0

>  <SCORE.INTRA.REPUL>
0

>  <SCORE.INTRA.REPUL.0>
0

>  <SCORE.INTRA.SOLV>
-1.6418

>  <SCORE.INTRA.SOLV.lig_0>
-31.9559

>  <SCORE.INTRA.VDW>
0.628907

>  <SCORE.INTRA.VDW.0>
-0.507645

>  <SCORE.INTRA.norm>
-0.209261

>  <SCORE.RESTR>
0

>  <SCORE.RESTR.CAVITY>
0

>  <SCORE.RESTR.norm>
0

>  <SCORE.SYSTEM>
0

>  <SCORE.SYSTEM.CONST>
0

>  <SCORE.SYSTEM.DIHEDRAL>
0

>  <SCORE.SYSTEM.SOLV>
0

>  <SCORE.SYSTEM.norm>
0

>  <SCORE.heavy>
10

>  <SCORE.norm>
-1.11212

>  <RMSD>
5.289

$$$$
ligand
 OpenBabel11021811473D
libRbt.so/2013.1/901 2013/11/27
 10  9  0  0  0  0  0  0  0  0999 V2000
   28.1018   14.2914   18.7876 N   0  0  0  0  0  0  0  0  0  0  0  0
   28.2038   14.3248   20.2705 C   0  0  2  0  0  0  0  0  0  0  0  0
   26.9151   14.8472   20.9064 C   0  0  0  0  0  0  0  0  0  0  0  0
   26.7234   14.7564   22.1150 O   0  0  0  0  0  0  0  0  0  0  0  0
   29.4312   15.1357   20.7013 C   0  0  0  0  0  0  0  0  0  0  0  0
   29.6554   15.1202   22.2100 C   0  0  0  0  0  0  0  0  0  0  0  0
   31.0016   15.7052   22.6136 C   0  0  0  0  0  0  0  0  0  0  0  0
   31.0787   17.1928   22.2678 C   0  0  0  0  0  0  0  0  0  0  0  0
   32.4299   17.8223   22.5319 N   0  0  0  0  0  0  0  0  0  0  0  0
   26.0350   15.4113   20.2666 O   0  0  0  0  0  0  0  0  0  0  0  0
  2  1  1  6  0  0  0
  2  3  1  0  0  0  0
  2  5  1  0  0  0  0
  3  4  1  0  0  0  0
  3 10  1  0  0  0  0
  5  6  1  0  0  0  0
  6  7  1  0  0  0  0
  7  8  1  0  0  0  0
  8  9  1  0  0  0  0
M  END
>  <CHROM.1>
168.58745891,-175.59340639,169.54021279,64.87788681,-175.12644167,28.91969743
15.46689202,21.27737483,-2.63026768,0.27304082,1.20316682

>  <Name>
ligand

>  <RI>
0

>  <Rbt.Current_Directory>
/home/itssahil/PROJECTS/Mol_Feturizer/New_Systems/rnas/3DIM

>  <Rbt.Executable>
rbdock ($Id: //depot/dev/client3/rdock/2013.1/src/exe/rbdock.cxx#4 $)

>  <Rbt.Library>
libRbt.so (2013.1, Build901 2013/11/27)

>  <Rbt.Parameter_File>
/export/apps/rDock/src/rDock_2013.1_src/data/scripts/dock_solv.prm

>  <Rbt.Receptor>
prm/pocket_docking_7.prm

>  <SCORE>
-11.1735

>  <SCORE.INTER>
-9.15103

>  <SCORE.INTER.CONST>
1

>  <SCORE.INTER.POLAR>
0

>  <SCORE.INTER.ROT>
5

>  <SCORE.INTER.SOLV>
13.8261

>  <SCORE.INTER.VDW>
-17.6427

>  <SCORE.INTER.norm>
-0.915103

>  <SCORE.INTRA>
-2.02251

>  <SCORE.INTRA.DIHEDRAL>
-3.72349

>  <SCORE.INTRA.DIHEDRAL.0>
5.8785

>  <SCORE.INTRA.POLAR>
0

>  <SCORE.INTRA.POLAR.0>
0

>  <SCORE.INTRA.REPUL>
0

>  <SCORE.INTRA.REPUL.0>
0

>  <SCORE.INTRA.SOLV>
-1.6277

>  <SCORE.INTRA.SOLV.lig_0>
-31.9559

>  <SCORE.INTRA.VDW>
0.653084

>  <SCORE.INTRA.VDW.0>
-0.507645

>  <SCORE.INTRA.norm>
-0.202251

>  <SCORE.RESTR>
0

>  <SCORE.RESTR.CAVITY>
0

>  <SCORE.RESTR.norm>
0

>  <SCORE.SYSTEM>
0

>  <SCORE.SYSTEM.CONST>
0

>  <SCORE.SYSTEM.DIHEDRAL>
0

>  <SCORE.SYSTEM.SOLV>
0

>  <SCORE.SYSTEM.norm>
0

>  <SCORE.heavy>
10

>  <SCORE.norm>
-1.11735

>  <RMSD>
5.289

$$$$
ligand
 OpenBabel11021811473D
libRbt.so/2013.1/901 2013/11/27
 10  9  0  0  0  0  0  0  0  0999 V2000
   25.8230   15.0126   20.8676 N   0  0  0  0  0  0  0  0  0  0  0  0
   27.2840   15.2789   20.7984 C   0  0  2  0  0  0  0  0  0  0  0  0
   27.8268   15.0469   19.3879 C   0  0  0  0  0  0  0  0  0  0  0  0
   27.6527   13.9784   18.8102 O   0  0  0  0  0  0  0  0  0  0  0  0
   28.0273   14.4452   21.8483 C   0  0  0  0  0  0  0  0  0  0  0  0
   29.5326   14.6909   21.8470 C   0  0  0  0  0  0  0  0  0  0  0  0
   29.9026   16.0955   22.3028 C   0  0  0  0  0  0  0  0  0  0  0  0
   31.4177   16.3001   22.2731 C   0  0  0  0  0  0  0  0  0  0  0  0
   31.8628   17.6981   22.6462 N   0  0  0  0  0  0  0  0  0  0  0  0
   28.4195   15.9092   18.7496 O   0  0  0  0  0  0  0  0  0  0  0  0
  2  1  1  6  0  0  0
  2  3  1  0  0  0  0
  2  5  1  0  0  0  0
  3  4  1  0  0  0  0
  3 10  1  0  0  0  0
  5  6  1  0  0  0  0
  6  7  1  0  0  0  0
  7  8  1  0  0  0  0
  8  9  1  0  0  0  0
M  END
>  <CHROM.1>
-54.63123254,-178.97348000,67.07690773,-179.47313577,177.04104730,28.77842428
15.43819414,20.91556272,2.61573022,-0.47569090,-1.52337047

>  <Name>
ligand

>  <RI>
0

>  <Rbt.Current_Directory>
/home/itssahil/PROJECTS/Mol_Feturizer/New_Systems/rnas/3DIM

>  <Rbt.Executable>
rbdock ($Id: //depot/dev/client3/rdock/2013.1/src/exe/rbdock.cxx#4 $)

>  <Rbt.Library>
libRbt.so (2013.1, Build901 2013/11/27)

>  <Rbt.Parameter_File>
/export/apps/rDock/src/rDock_2013.1_src/data/scripts/dock_solv.prm

>  <Rbt.Receptor>
prm/pocket_docking_3.prm

>  <SCORE>
-10.3257

>  <SCORE.INTER>
-7.26028

>  <SCORE.INTER.CONST>
1

>  <SCORE.INTER.POLAR>
0

>  <SCORE.INTER.ROT>
5

>  <SCORE.INTER.SOLV>
18.3957

>  <SCORE.INTER.VDW>
-17.9054

>  <SCORE.INTER.norm>
-0.726028

>  <SCORE.INTRA>
-3.0654

>  <SCORE.INTRA.DIHEDRAL>
-4.11384

>  <SCORE.INTRA.DIHEDRAL.0>
5.8785

>  <SCORE.INTRA.POLAR>
0

>  <SCORE.INTRA.POLAR.0>
0

>  <SCORE.INTRA.REPUL>
0

>  <SCORE.INTRA.REPUL.0>
0

>  <SCORE.INTRA.SOLV>
-1.65302

>  <SCORE.INTRA.SOLV.lig_0>
-31.9559

>  <SCORE.INTRA.VDW>
-0.18197

>  <SCORE.INTRA.VDW.0>
-0.507645

>  <SCORE.INTRA.norm>
-0.30654

>  <SCORE.RESTR>
0

>  <SCORE.RESTR.CAVITY>
0

>  <SCORE.RESTR.norm>
0

>  <SCORE.SYSTEM>
0

>  <SCORE.SYSTEM.CONST>
0

>  <SCORE.SYSTEM.DIHEDRAL>
0

>  <SCORE.SYSTEM.SOLV>
0

>  <SCORE.SYSTEM.norm>
0

>  <SCORE.heavy>
10

>  <SCORE.norm>
-1.03257

>  <RMSD>
5.290

$$$$
ligand
 OpenBabel11021811473D
libRbt.so/2013.1/901 2013/11/27
 10  9  0  0  0  0  0  0  0  0999 V2000
   27.3361   14.3634   18.8400 N   0  0  0  0  0  0  0  0  0  0  0  0
   27.9448   14.8243   20.1157 C   0  0  2  0  0  0  0  0  0  0  0  0
   26.9164   14.8499   21.2469 C   0  0  0  0  0  0  0  0  0  0  0  0
   25.7127   14.8326   21.0090 O   0  0  0  0  0  0  0  0  0  0  0  0
   28.6236   16.1848   19.9205 C   0  0  0  0  0  0  0  0  0  0  0  0
   29.4803   16.5992   21.1126 C   0  0  0  0  0  0  0  0  0  0  0  0
   30.6513   15.6571   21.3549 C   0  0  0  0  0  0  0  0  0  0  0  0
   31.4866   16.1172   22.5502 C   0  0  0  0  0  0  0  0  0  0  0  0
   32.1858   17.4442   22.3450 N   0  0  0  0  0  0  0  0  0  0  0  0
   27.2268   14.8483   22.4326 O   0  0  0  0  0  0  0  0  0  0  0  0
  2  1  1  6  0  0  0
  2  3  1  0  0  0  0
  2  5  1  0  0  0  0
  3  4  1  0  0  0  0
  3 10  1  0  0  0  0
  5  6  1  0  0  0  0
  6  7  1  0  0  0  0
  7  8  1  0  0  0  0
  8  9  1  0  0  0  0
M  END
>  <CHROM.1>
-17.52938238,-169.60708883,63.36270137,179.54858752,-65.30582866,28.72430625
15.56719873,21.11521728,-2.82986671,0.36856486,1.51189587

>  <Name>
ligand

>  <RI>
0

>  <Rbt.Current_Directory>
/home/itssahil/PROJECTS/Mol_Feturizer/New_Systems/rnas/3DIM

>  <Rbt.Executable>
rbdock ($Id: //depot/dev/client3/rdock/2013.1/src/exe/rbdock.cxx#4 $)

>  <Rbt.Library>
libRbt.so (2013.1, Build901 2013/11/27)

>  <Rbt.Parameter_File>
/export/apps/rDock/src/rDock_2013.1_src/data/scripts/dock_solv.prm

>  <Rbt.Receptor>
prm/blind_docking_60.prm

>  <SCORE>
-12.3479

>  <SCORE.INTER>
-10.0273

>  <SCORE.INTER.CONST>
1

>  <SCORE.INTER.POLAR>
0

>  <SCORE.INTER.ROT>
5

>  <SCORE.INTER.SOLV>
14.1361

>  <SCORE.INTER.VDW>
-18.3302

>  <SCORE.INTER.norm>
-1.00273

>  <SCORE.INTRA>
-2.32059

>  <SCORE.INTRA.DIHEDRAL>
-3.75653

>  <SCORE.INTRA.DIHEDRAL.0>
5.8785

>  <SCORE.INTRA.POLAR>
0

>  <SCORE.INTRA.POLAR.0>
0

>  <SCORE.INTRA.REPUL>
0

>  <SCORE.INTRA.REPUL.0>
0

>  <SCORE.INTRA.SOLV>
-0.70412

>  <SCORE.INTRA.SOLV.lig_0>
-31.9559

>  <SCORE.INTRA.VDW>
-0.0902603

>  <SCORE.INTRA.VDW.0>
-0.507645

>  <SCORE.INTRA.norm>
-0.232059

>  <SCORE.RESTR>
0

>  <SCORE.RESTR.CAVITY>
0

>  <SCORE.RESTR.norm>
0

>  <SCORE.SYSTEM>
0

>  <SCORE.SYSTEM.CONST>
0

>  <SCORE.SYSTEM.DIHEDRAL>
0

>  <SCORE.SYSTEM.SOLV>
0

>  <SCORE.SYSTEM.norm>
0

>  <SCORE.heavy>
10

>  <SCORE.norm>
-1.23479

>  <RMSD>
5.291

$$$$
ligand
 OpenBabel11021811473D
libRbt.so/2013.1/901 2013/11/27
 10  9  0  0  0  0  0  0  0  0999 V2000
   27.3383   14.3734   18.8786 N   0  0  0  0  0  0  0  0  0  0  0  0
   27.9439   14.8373   20.1547 C   0  0  2  0  0  0  0  0  0  0  0  0
   26.9147   14.8577   21.2853 C   0  0  0  0  0  0  0  0  0  0  0  0
   25.7117   14.8169   21.0473 O   0  0  0  0  0  0  0  0  0  0  0  0
   28.6159   16.2012   19.9598 C   0  0  0  0  0  0  0  0  0  0  0  0
   29.4890   16.6091   21.1422 C   0  0  0  0  0  0  0  0  0  0  0  0
   30.6604   15.6630   21.3660 C   0  0  0  0  0  0  0  0  0  0  0  0
   31.5087   16.1130   22.5561 C   0  0  0  0  0  0  0  0  0  0  0  0
   32.2045   17.4423   22.3552 N   0  0  0  0  0  0  0  0  0  0  0  0
   27.2246   14.8747   22.4710 O   0  0  0  0  0  0  0  0  0  0  0  0
  2  1  1  6  0  0  0
  2  3  1  0  0  0  0
  2  5  1  0  0  0  0
  3  4  1  0  0  0  0
  3 10  1  0  0  0  0
  5  6  1  0  0  0  0
  6  7  1  0  0  0  0
  7  8  1  0  0  0  0
  8  9  1  0  0  0  0
M  END
>  <CHROM.1>
-16.57982014,-168.61499727,62.95254121,179.81206697,-65.09952577,28.72898536
15.57384495,21.14415089,-2.83693554,0.36647807,1.51117889

>  <Name>
ligand

>  <RI>
0

>  <Rbt.Current_Directory>
/home/itssahil/PROJECTS/Mol_Feturizer/New_Systems/rnas/3DIM

>  <Rbt.Executable>
rbdock ($Id: //depot/dev/client3/rdock/2013.1/src/exe/rbdock.cxx#4 $)

>  <Rbt.Library>
libRbt.so (2013.1, Build901 2013/11/27)

>  <Rbt.Parameter_File>
/export/apps/rDock/src/rDock_2013.1_src/data/scripts/dock_solv.prm

>  <Rbt.Receptor>
prm/pocket_docking_4.prm

>  <SCORE>
-12.3489

>  <SCORE.INTER>
-10.0677

>  <SCORE.INTER.CONST>
1

>  <SCORE.INTER.POLAR>
0

>  <SCORE.INTER.ROT>
5

>  <SCORE.INTER.SOLV>
14.0681

>  <SCORE.INTER.VDW>
-18.3345

>  <SCORE.INTER.norm>
-1.00677

>  <SCORE.INTRA>
-2.28125

>  <SCORE.INTRA.DIHEDRAL>
-3.69971

>  <SCORE.INTRA.DIHEDRAL.0>
5.8785

>  <SCORE.INTRA.POLAR>
0

>  <SCORE.INTRA.POLAR.0>
0

>  <SCORE.INTRA.REPUL>
0

>  <SCORE.INTRA.REPUL.0>
0

>  <SCORE.INTRA.SOLV>
-0.691965

>  <SCORE.INTRA.SOLV.lig_0>
-31.9559

>  <SCORE.INTRA.VDW>
-0.08541

>  <SCORE.INTRA.VDW.0>
-0.507645

>  <SCORE.INTRA.norm>
-0.228125

>  <SCORE.RESTR>
0

>  <SCORE.RESTR.CAVITY>
0

>  <SCORE.RESTR.norm>
0

>  <SCORE.SYSTEM>
0

>  <SCORE.SYSTEM.CONST>
0

>  <SCORE.SYSTEM.DIHEDRAL>
0

>  <SCORE.SYSTEM.SOLV>
0

>  <SCORE.SYSTEM.norm>
0

>  <SCORE.heavy>
10

>  <SCORE.norm>
-1.23489

>  <RMSD>
5.291

$$$$
ligand
 OpenBabel11021811473D
libRbt.so/2013.1/901 2013/11/27
 10  9  0  0  0  0  0  0  0  0999 V2000
   28.5193   14.1847   22.0193 N   0  0  0  0  0  0  0  0  0  0  0  0
   28.1909   15.5832   21.6362 C   0  0  2  0  0  0  0  0  0  0  0  0
   27.4378   15.6348   20.3065 C   0  0  0  0  0  0  0  0  0  0  0  0
   26.2441   15.3576   20.2437 O   0  0  0  0  0  0  0  0  0  0  0  0
   29.4610   16.4413   21.6150 C   0  0  0  0  0  0  0  0  0  0  0  0
   30.5891   15.8150   20.8016 C   0  0  0  0  0  0  0  0  0  0  0  0
   31.8420   16.6791   20.7656 C   0  0  0  0  0  0  0  0  0  0  0  0
   32.4613   16.8050   22.1580 C   0  0  0  0  0  0  0  0  0  0  0  0
   33.6497   17.7401   22.2267 N   0  0  0  0  0  0  0  0  0  0  0  0
   27.9605   15.9873   19.2555 O   0  0  0  0  0  0  0  0  0  0  0  0
  2  1  1  6  0  0  0
  2  3  1  0  0  0  0
  2  5  1  0  0  0  0
  3  4  1  0  0  0  0
  3 10  1  0  0  0  0
  5  6  1  0  0  0  0
  6  7  1  0  0  0  0
  7  8  1  0  0  0  0
  8  9  1  0  0  0  0
M  END
>  <CHROM.1>
77.49941452,50.63375029,179.15737232,65.33309466,-175.35642187,29.60605356
16.02170730,21.07226529,3.07533675,-0.37956282,-1.06024434

>  <Name>
ligand

>  <RI>
0

>  <Rbt.Current_Directory>
/home/itssahil/PROJECTS/Mol_Feturizer/New_Systems/rnas/3DIM

>  <Rbt.Executable>
rbdock ($Id: //depot/dev/client3/rdock/2013.1/src/exe/rbdock.cxx#4 $)

>  <Rbt.Library>
libRbt.so (2013.1, Build901 2013/11/27)

>  <Rbt.Parameter_File>
/export/apps/rDock/src/rDock_2013.1_src/data/scripts/dock_solv.prm

>  <Rbt.Receptor>
prm/blind_docking_60.prm

>  <SCORE>
-8.05131

>  <SCORE.INTER>
-6.82149

>  <SCORE.INTER.CONST>
1

>  <SCORE.INTER.POLAR>
0

>  <SCORE.INTER.ROT>
5

>  <SCORE.INTER.SOLV>
15.9806

>  <SCORE.INTER.VDW>
-16.8079

>  <SCORE.INTER.norm>
-0.682149

>  <SCORE.INTRA>
-1.22982

>  <SCORE.INTRA.DIHEDRAL>
-3.74973

>  <SCORE.INTRA.DIHEDRAL.0>
5.8785

>  <SCORE.INTRA.POLAR>
0

>  <SCORE.INTRA.POLAR.0>
0

>  <SCORE.INTRA.REPUL>
0

>  <SCORE.INTRA.REPUL.0>
0

>  <SCORE.INTRA.SOLV>
-0.623405

>  <SCORE.INTRA.SOLV.lig_0>
-31.9559

>  <SCORE.INTRA.VDW>
0.956749

>  <SCORE.INTRA.VDW.0>
-0.507645

>  <SCORE.INTRA.norm>
-0.122982

>  <SCORE.RESTR>
0

>  <SCORE.RESTR.CAVITY>
0

>  <SCORE.RESTR.norm>
0

>  <SCORE.SYSTEM>
0

>  <SCORE.SYSTEM.CONST>
0

>  <SCORE.SYSTEM.DIHEDRAL>
0

>  <SCORE.SYSTEM.SOLV>
0

>  <SCORE.SYSTEM.norm>
0

>  <SCORE.heavy>
10

>  <SCORE.norm>
-0.805131

>  <RMSD>
5.294

$$$$
ligand
 OpenBabel11021811473D
libRbt.so/2013.1/901 2013/11/27
 10  9  0  0  0  0  0  0  0  0999 V2000
   28.0330   14.7500   19.0224 N   0  0  0  0  0  0  0  0  0  0  0  0
   28.3578   14.6468   20.4696 C   0  0  2  0  0  0  0  0  0  0  0  0
   27.1205   14.8815   21.3368 C   0  0  0  0  0  0  0  0  0  0  0  0
   26.0012   14.9476   20.8383 O   0  0  0  0  0  0  0  0  0  0  0  0
   29.5037   15.6002   20.8271 C   0  0  0  0  0  0  0  0  0  0  0  0
   30.1270   15.2985   22.1862 C   0  0  0  0  0  0  0  0  0  0  0  0
   31.0407   16.4125   22.6778 C   0  0  0  0  0  0  0  0  0  0  0  0
   32.2602   16.5630   21.7676 C   0  0  0  0  0  0  0  0  0  0  0  0
   33.2218   17.6520   22.1931 N   0  0  0  0  0  0  0  0  0  0  0  0
   27.1681   14.9749   22.5579 O   0  0  0  0  0  0  0  0  0  0  0  0
  2  1  1  6  0  0  0
  2  3  1  0  0  0  0
  2  5  1  0  0  0  0
  3  4  1  0  0  0  0
  3 10  1  0  0  0  0
  5  6  1  0  0  0  0
  6  7  1  0  0  0  0
  7  8  1  0  0  0  0
  8  9  1  0  0  0  0
M  END
>  <CHROM.1>
9.54635275,-165.20360886,-167.25060963,-65.03728135,-179.86293113,29.24507999
15.57191251,21.40385323,-2.86216011,0.32981551,1.40738400

>  <Name>
ligand

>  <RI>
0

>  <Rbt.Current_Directory>
/home/itssahil/PROJECTS/Mol_Feturizer/New_Systems/rnas/3DIM

>  <Rbt.Executable>
rbdock ($Id: //depot/dev/client3/rdock/2013.1/src/exe/rbdock.cxx#4 $)

>  <Rbt.Library>
libRbt.so (2013.1, Build901 2013/11/27)

>  <Rbt.Parameter_File>
/export/apps/rDock/src/rDock_2013.1_src/data/scripts/dock_solv.prm

>  <Rbt.Receptor>
prm/pocket_docking_3.prm

>  <SCORE>
-11.2663

>  <SCORE.INTER>
-9.64772

>  <SCORE.INTER.CONST>
1

>  <SCORE.INTER.POLAR>
0

>  <SCORE.INTER.ROT>
5

>  <SCORE.INTER.SOLV>
13.3989

>  <SCORE.INTER.VDW>
-17.8315

>  <SCORE.INTER.norm>
-0.964772

>  <SCORE.INTRA>
-1.61854

>  <SCORE.INTRA.DIHEDRAL>
-2.85353

>  <SCORE.INTRA.DIHEDRAL.0>
5.8785

>  <SCORE.INTRA.POLAR>
0

>  <SCORE.INTRA.POLAR.0>
0

>  <SCORE.INTRA.REPUL>
0

>  <SCORE.INTRA.REPUL.0>
0

>  <SCORE.INTRA.SOLV>
-1.63083

>  <SCORE.INTRA.SOLV.lig_0>
-31.9559

>  <SCORE.INTRA.VDW>
0.623639

>  <SCORE.INTRA.VDW.0>
-0.507645

>  <SCORE.INTRA.norm>
-0.161854

>  <SCORE.RESTR>
0

>  <SCORE.RESTR.CAVITY>
0

>  <SCORE.RESTR.norm>
0

>  <SCORE.SYSTEM>
0

>  <SCORE.SYSTEM.CONST>
0

>  <SCORE.SYSTEM.DIHEDRAL>
0

>  <SCORE.SYSTEM.SOLV>
0

>  <SCORE.SYSTEM.norm>
0

>  <SCORE.heavy>
10

>  <SCORE.norm>
-1.12663

>  <RMSD>
5.294

$$$$
ligand
 OpenBabel11021811473D
libRbt.so/2013.1/901 2013/11/27
 10  9  0  0  0  0  0  0  0  0999 V2000
   27.3442   14.5733   18.9345 N   0  0  0  0  0  0  0  0  0  0  0  0
   27.9251   14.9825   20.2404 C   0  0  2  0  0  0  0  0  0  0  0  0
   26.8928   14.8871   21.3643 C   0  0  0  0  0  0  0  0  0  0  0  0
   25.6995   14.7432   21.1174 O   0  0  0  0  0  0  0  0  0  0  0  0
   28.5371   16.3840   20.1348 C   0  0  0  0  0  0  0  0  0  0  0  0
   29.9598   16.4551   20.6802 C   0  0  0  0  0  0  0  0  0  0  0  0
   30.0361   16.1630   22.1723 C   0  0  0  0  0  0  0  0  0  0  0  0
   31.4851   16.1794   22.6606 C   0  0  0  0  0  0  0  0  0  0  0  0
   32.1792   17.5152   22.5002 N   0  0  0  0  0  0  0  0  0  0  0  0
   27.1941   14.9075   22.5521 O   0  0  0  0  0  0  0  0  0  0  0  0
  2  1  1  6  0  0  0
  2  3  1  0  0  0  0
  2  5  1  0  0  0  0
  3  4  1  0  0  0  0
  3 10  1  0  0  0  0
  5  6  1  0  0  0  0
  6  7  1  0  0  0  0
  7  8  1  0  0  0  0
  8  9  1  0  0  0  0
M  END
>  <CHROM.1>
-12.99464091,-130.07285370,-63.81271752,177.28406667,62.19888476,28.69319442
15.67135409,21.25783895,-2.85527834,0.41195848,1.60289800

>  <Name>
ligand

>  <RI>
0

>  <Rbt.Current_Directory>
/home/itssahil/PROJECTS/Mol_Feturizer/New_Systems/rnas/3DIM

>  <Rbt.Executable>
rbdock ($Id: //depot/dev/client3/rdock/2013.1/src/exe/rbdock.cxx#4 $)

>  <Rbt.Library>
libRbt.so (2013.1, Build901 2013/11/27)

>  <Rbt.Parameter_File>
/export/apps/rDock/src/rDock_2013.1_src/data/scripts/dock_solv.prm

>  <Rbt.Receptor>
prm/pocket_docking_5.prm

>  <SCORE>
-9.75759

>  <SCORE.INTER>
-9.74809

>  <SCORE.INTER.CONST>
1

>  <SCORE.INTER.POLAR>
0

>  <SCORE.INTER.ROT>
5

>  <SCORE.INTER.SOLV>
14.0938

>  <SCORE.INTER.VDW>
-18.13

>  <SCORE.INTER.norm>
-0.974809

>  <SCORE.INTRA>
-0.00950095

>  <SCORE.INTRA.DIHEDRAL>
1.13058

>  <SCORE.INTRA.DIHEDRAL.0>
5.8785

>  <SCORE.INTRA.POLAR>
0

>  <SCORE.INTRA.POLAR.0>
0

>  <SCORE.INTRA.REPUL>
0

>  <SCORE.INTRA.REPUL.0>
0

>  <SCORE.INTRA.SOLV>
-0.640549

>  <SCORE.INTRA.SOLV.lig_0>
-31.9559

>  <SCORE.INTRA.VDW>
-0.254518

>  <SCORE.INTRA.VDW.0>
-0.507645

>  <SCORE.INTRA.norm>
-0.000950095

>  <SCORE.RESTR>
0

>  <SCORE.RESTR.CAVITY>
0

>  <SCORE.RESTR.norm>
0

>  <SCORE.SYSTEM>
0

>  <SCORE.SYSTEM.CONST>
0

>  <SCORE.SYSTEM.DIHEDRAL>
0

>  <SCORE.SYSTEM.SOLV>
0

>  <SCORE.SYSTEM.norm>
0

>  <SCORE.heavy>
10

>  <SCORE.norm>
-0.975759

>  <RMSD>
5.296

$$$$
ligand
 OpenBabel11021811473D
libRbt.so/2013.1/901 2013/11/27
 10  9  0  0  0  0  0  0  0  0999 V2000
   28.0427   14.7445   18.9978 N   0  0  0  0  0  0  0  0  0  0  0  0
   28.3553   14.6308   20.4469 C   0  0  2  0  0  0  0  0  0  0  0  0
   27.1089   14.8502   21.3050 C   0  0  0  0  0  0  0  0  0  0  0  0
   25.9940   14.9172   20.7968 O   0  0  0  0  0  0  0  0  0  0  0  0
   29.4919   15.5882   20.8228 C   0  0  0  0  0  0  0  0  0  0  0  0
   30.1066   15.2774   22.1837 C   0  0  0  0  0  0  0  0  0  0  0  0
   31.0435   16.3729   22.6733 C   0  0  0  0  0  0  0  0  0  0  0  0
   32.2593   16.5049   21.7553 C   0  0  0  0  0  0  0  0  0  0  0  0
   33.2244   17.6000   22.1569 N   0  0  0  0  0  0  0  0  0  0  0  0
   27.1446   14.9297   22.5275 O   0  0  0  0  0  0  0  0  0  0  0  0
  2  1  1  6  0  0  0
  2  3  1  0  0  0  0
  2  5  1  0  0  0  0
  3  4  1  0  0  0  0
  3 10  1  0  0  0  0
  5  6  1  0  0  0  0
  6  7  1  0  0  0  0
  7  8  1  0  0  0  0
  8  9  1  0  0  0  0
M  END
>  <CHROM.1>
9.34597141,-165.11124530,-169.07687549,-64.38064056,178.55812663,29.23858417
15.54050889,21.38253505,-2.86634083,0.32889689,1.42063577

>  <Name>
ligand

>  <RI>
0

>  <Rbt.Current_Directory>
/home/itssahil/PROJECTS/Mol_Feturizer/New_Systems/rnas/3DIM

>  <Rbt.Executable>
rbdock ($Id: //depot/dev/client3/rdock/2013.1/src/exe/rbdock.cxx#4 $)

>  <Rbt.Library>
libRbt.so (2013.1, Build901 2013/11/27)

>  <Rbt.Parameter_File>
/export/apps/rDock/src/rDock_2013.1_src/data/scripts/dock_solv.prm

>  <Rbt.Receptor>
prm/pocket_docking_6.prm

>  <SCORE>
-11.3271

>  <SCORE.INTER>
-9.65038

>  <SCORE.INTER.CONST>
1

>  <SCORE.INTER.POLAR>
0

>  <SCORE.INTER.ROT>
5

>  <SCORE.INTER.SOLV>
13.4727

>  <SCORE.INTER.VDW>
-17.8578

>  <SCORE.INTER.norm>
-0.965038

>  <SCORE.INTRA>
-1.6767

>  <SCORE.INTRA.DIHEDRAL>
-3.03091

>  <SCORE.INTRA.DIHEDRAL.0>
5.8785

>  <SCORE.INTRA.POLAR>
0

>  <SCORE.INTRA.POLAR.0>
0

>  <SCORE.INTRA.REPUL>
0

>  <SCORE.INTRA.REPUL.0>
0

>  <SCORE.INTRA.SOLV>
-1.61713

>  <SCORE.INTRA.SOLV.lig_0>
-31.9559

>  <SCORE.INTRA.VDW>
0.647324

>  <SCORE.INTRA.VDW.0>
-0.507645

>  <SCORE.INTRA.norm>
-0.16767

>  <SCORE.RESTR>
0

>  <SCORE.RESTR.CAVITY>
0

>  <SCORE.RESTR.norm>
0

>  <SCORE.SYSTEM>
0

>  <SCORE.SYSTEM.CONST>
0

>  <SCORE.SYSTEM.DIHEDRAL>
0

>  <SCORE.SYSTEM.SOLV>
0

>  <SCORE.SYSTEM.norm>
0

>  <SCORE.heavy>
10

>  <SCORE.norm>
-1.13271

>  <RMSD>
5.297

$$$$
ligand
 OpenBabel11021811473D
libRbt.so/2013.1/901 2013/11/27
 10  9  0  0  0  0  0  0  0  0999 V2000
   27.9219   14.9423   18.9933 N   0  0  0  0  0  0  0  0  0  0  0  0
   28.3067   14.7292   20.4134 C   0  0  2  0  0  0  0  0  0  0  0  0
   27.1029   14.8738   21.3450 C   0  0  0  0  0  0  0  0  0  0  0  0
   25.9577   14.8744   20.9043 O   0  0  0  0  0  0  0  0  0  0  0  0
   29.4538   15.6694   20.8008 C   0  0  0  0  0  0  0  0  0  0  0  0
   30.1343   15.2718   22.1067 C   0  0  0  0  0  0  0  0  0  0  0  0
   31.1142   16.3240   22.6068 C   0  0  0  0  0  0  0  0  0  0  0  0
   32.2822   16.4916   21.6341 C   0  0  0  0  0  0  0  0  0  0  0  0
   33.2889   17.5437   22.0482 N   0  0  0  0  0  0  0  0  0  0  0  0
   27.2067   14.9550   22.5635 O   0  0  0  0  0  0  0  0  0  0  0  0
  2  1  1  6  0  0  0
  2  3  1  0  0  0  0
  2  5  1  0  0  0  0
  3  4  1  0  0  0  0
  3 10  1  0  0  0  0
  5  6  1  0  0  0  0
  6  7  1  0  0  0  0
  7  8  1  0  0  0  0
  8  9  1  0  0  0  0
M  END
>  <CHROM.1>
14.30272377,-165.30402756,-170.60984301,-64.41067757,178.81750255,29.23919846
15.56498358,21.35940507,-2.91894989,0.33168398,1.49475421

>  <Name>
ligand

>  <RI>
0

>  <Rbt.Current_Directory>
/home/itssahil/PROJECTS/Mol_Feturizer/New_Systems/rnas/3DIM

>  <Rbt.Executable>
rbdock ($Id: //depot/dev/client3/rdock/2013.1/src/exe/rbdock.cxx#4 $)

>  <Rbt.Library>
libRbt.so (2013.1, Build901 2013/11/27)

>  <Rbt.Parameter_File>
/export/apps/rDock/src/rDock_2013.1_src/data/scripts/dock_solv.prm

>  <Rbt.Receptor>
prm/pocket_docking_7.prm

>  <SCORE>
-11.2968

>  <SCORE.INTER>
-9.60231

>  <SCORE.INTER.CONST>
1

>  <SCORE.INTER.POLAR>
0

>  <SCORE.INTER.ROT>
5

>  <SCORE.INTER.SOLV>
13.8555

>  <SCORE.INTER.VDW>
-17.9534

>  <SCORE.INTER.norm>
-0.960231

>  <SCORE.INTRA>
-1.69453

>  <SCORE.INTRA.DIHEDRAL>
-3.19541

>  <SCORE.INTRA.DIHEDRAL.0>
5.8785

>  <SCORE.INTRA.POLAR>
0

>  <SCORE.INTRA.POLAR.0>
0

>  <SCORE.INTRA.REPUL>
0

>  <SCORE.INTRA.REPUL.0>
0

>  <SCORE.INTRA.SOLV>
-1.62105

>  <SCORE.INTRA.SOLV.lig_0>
-31.9559

>  <SCORE.INTRA.VDW>
0.713703

>  <SCORE.INTRA.VDW.0>
-0.507645

>  <SCORE.INTRA.norm>
-0.169453

>  <SCORE.RESTR>
0

>  <SCORE.RESTR.CAVITY>
0

>  <SCORE.RESTR.norm>
0

>  <SCORE.SYSTEM>
0

>  <SCORE.SYSTEM.CONST>
0

>  <SCORE.SYSTEM.DIHEDRAL>
0

>  <SCORE.SYSTEM.SOLV>
0

>  <SCORE.SYSTEM.norm>
0

>  <SCORE.heavy>
10

>  <SCORE.norm>
-1.12968

>  <RMSD>
5.298

$$$$
ligand
 OpenBabel11021811473D
libRbt.so/2013.1/901 2013/11/27
 10  9  0  0  0  0  0  0  0  0999 V2000
   27.9795   15.0196   19.0222 N   0  0  0  0  0  0  0  0  0  0  0  0
   28.3402   14.7769   20.4439 C   0  0  2  0  0  0  0  0  0  0  0  0
   27.1156   14.8742   21.3543 C   0  0  0  0  0  0  0  0  0  0  0  0
   25.9795   14.8626   20.8908 O   0  0  0  0  0  0  0  0  0  0  0  0
   29.4609   15.7282   20.8785 C   0  0  0  0  0  0  0  0  0  0  0  0
   30.1238   15.3091   22.1867 C   0  0  0  0  0  0  0  0  0  0  0  0
   31.1162   16.3412   22.7037 C   0  0  0  0  0  0  0  0  0  0  0  0
   32.3030   16.4860   21.7503 C   0  0  0  0  0  0  0  0  0  0  0  0
   33.2941   17.5579   22.1510 N   0  0  0  0  0  0  0  0  0  0  0  0
   27.1937   14.9277   22.5763 O   0  0  0  0  0  0  0  0  0  0  0  0
  2  1  1  6  0  0  0
  2  3  1  0  0  0  0
  2  5  1  0  0  0  0
  3  4  1  0  0  0  0
  3 10  1  0  0  0  0
  5  6  1  0  0  0  0
  6  7  1  0  0  0  0
  7  8  1  0  0  0  0
  8  9  1  0  0  0  0
M  END
>  <CHROM.1>
14.41755661,-165.25855925,-172.98751450,-65.06705554,176.38524647,29.25252742
15.58475633,21.41284178,-2.91174847,0.33690305,1.51916681

>  <Name>
ligand

>  <RI>
0

>  <Rbt.Current_Directory>
/home/itssahil/PROJECTS/Mol_Feturizer/New_Systems/rnas/3DIM

>  <Rbt.Executable>
rbdock ($Id: //depot/dev/client3/rdock/2013.1/src/exe/rbdock.cxx#4 $)

>  <Rbt.Library>
libRbt.so (2013.1, Build901 2013/11/27)

>  <Rbt.Parameter_File>
/export/apps/rDock/src/rDock_2013.1_src/data/scripts/dock_solv.prm

>  <Rbt.Receptor>
prm/pocket_docking_5.prm

>  <SCORE>
-11.3066

>  <SCORE.INTER>
-9.55077

>  <SCORE.INTER.CONST>
1

>  <SCORE.INTER.POLAR>
0

>  <SCORE.INTER.ROT>
5

>  <SCORE.INTER.SOLV>
13.6129

>  <SCORE.INTER.VDW>
-17.8381

>  <SCORE.INTER.norm>
-0.955077

>  <SCORE.INTRA>
-1.75587

>  <SCORE.INTRA.DIHEDRAL>
-3.27979

>  <SCORE.INTRA.DIHEDRAL.0>
5.8785

>  <SCORE.INTRA.POLAR>
0

>  <SCORE.INTRA.POLAR.0>
0

>  <SCORE.INTRA.REPUL>
0

>  <SCORE.INTRA.REPUL.0>
0

>  <SCORE.INTRA.SOLV>
-1.6095

>  <SCORE.INTRA.SOLV.lig_0>
-31.9559

>  <SCORE.INTRA.VDW>
0.68878

>  <SCORE.INTRA.VDW.0>
-0.507645

>  <SCORE.INTRA.norm>
-0.175587

>  <SCORE.RESTR>
0

>  <SCORE.RESTR.CAVITY>
0

>  <SCORE.RESTR.norm>
0

>  <SCORE.SYSTEM>
0

>  <SCORE.SYSTEM.CONST>
0

>  <SCORE.SYSTEM.DIHEDRAL>
0

>  <SCORE.SYSTEM.SOLV>
0

>  <SCORE.SYSTEM.norm>
0

>  <SCORE.heavy>
10

>  <SCORE.norm>
-1.13066

>  <RMSD>
5.299

$$$$
ligand
 OpenBabel11021811473D
libRbt.so/2013.1/901 2013/11/27
 10  9  0  0  0  0  0  0  0  0999 V2000
   28.0450   14.7613   19.0161 N   0  0  0  0  0  0  0  0  0  0  0  0
   28.3628   14.6348   20.4629 C   0  0  2  0  0  0  0  0  0  0  0  0
   27.1170   14.8331   21.3268 C   0  0  0  0  0  0  0  0  0  0  0  0
   26.0016   14.9106   20.8212 O   0  0  0  0  0  0  0  0  0  0  0  0
   29.4916   15.5986   20.8460 C   0  0  0  0  0  0  0  0  0  0  0  0
   30.0950   15.2951   22.2136 C   0  0  0  0  0  0  0  0  0  0  0  0
   31.0040   16.4070   22.7186 C   0  0  0  0  0  0  0  0  0  0  0  0
   32.2396   16.5511   21.8294 C   0  0  0  0  0  0  0  0  0  0  0  0
   33.1864   17.6526   22.2561 N   0  0  0  0  0  0  0  0  0  0  0  0
   27.1536   14.8845   22.5508 O   0  0  0  0  0  0  0  0  0  0  0  0
  2  1  1  6  0  0  0
  2  3  1  0  0  0  0
  2  5  1  0  0  0  0
  3  4  1  0  0  0  0
  3 10  1  0  0  0  0
  5  6  1  0  0  0  0
  6  7  1  0  0  0  0
  7  8  1  0  0  0  0
  8  9  1  0  0  0  0
M  END
>  <CHROM.1>
8.49768237,-166.21602471,-168.11107037,-65.29250711,179.19340260,29.23125727
15.55121189,21.42007661,-2.85635978,0.34113015,1.42715283

>  <Name>
ligand

>  <RI>
0

>  <Rbt.Current_Directory>
/home/itssahil/PROJECTS/Mol_Feturizer/New_Systems/rnas/3DIM

>  <Rbt.Executable>
rbdock ($Id: //depot/dev/client3/rdock/2013.1/src/exe/rbdock.cxx#4 $)

>  <Rbt.Library>
libRbt.so (2013.1, Build901 2013/11/27)

>  <Rbt.Parameter_File>
/export/apps/rDock/src/rDock_2013.1_src/data/scripts/dock_solv.prm

>  <Rbt.Receptor>
prm/pocket_docking_6.prm

>  <SCORE>
-11.3262

>  <SCORE.INTER>
-9.63176

>  <SCORE.INTER.CONST>
1

>  <SCORE.INTER.POLAR>
0

>  <SCORE.INTER.ROT>
5

>  <SCORE.INTER.SOLV>
13.4275

>  <SCORE.INTER.VDW>
-17.8303

>  <SCORE.INTER.norm>
-0.963176

>  <SCORE.INTRA>
-1.69439

>  <SCORE.INTRA.DIHEDRAL>
-3.02078

>  <SCORE.INTRA.DIHEDRAL.0>
5.8785

>  <SCORE.INTRA.POLAR>
0

>  <SCORE.INTRA.POLAR.0>
0

>  <SCORE.INTRA.REPUL>
0

>  <SCORE.INTRA.REPUL.0>
0

>  <SCORE.INTRA.SOLV>
-1.6285

>  <SCORE.INTRA.SOLV.lig_0>
-31.9559

>  <SCORE.INTRA.VDW>
0.630252

>  <SCORE.INTRA.VDW.0>
-0.507645

>  <SCORE.INTRA.norm>
-0.169439

>  <SCORE.RESTR>
0

>  <SCORE.RESTR.CAVITY>
0

>  <SCORE.RESTR.norm>
0

>  <SCORE.SYSTEM>
0

>  <SCORE.SYSTEM.CONST>
0

>  <SCORE.SYSTEM.DIHEDRAL>
0

>  <SCORE.SYSTEM.SOLV>
0

>  <SCORE.SYSTEM.norm>
0

>  <SCORE.heavy>
10

>  <SCORE.norm>
-1.13262

>  <RMSD>
5.301

$$$$
ligand
 OpenBabel11021811473D
libRbt.so/2013.1/901 2013/11/27
 10  9  0  0  0  0  0  0  0  0999 V2000
   27.9677   14.8834   19.0383 N   0  0  0  0  0  0  0  0  0  0  0  0
   28.3259   14.6940   20.4687 C   0  0  2  0  0  0  0  0  0  0  0  0
   27.1030   14.8437   21.3742 C   0  0  0  0  0  0  0  0  0  0  0  0
   25.9676   14.8515   20.9089 O   0  0  0  0  0  0  0  0  0  0  0  0
   29.4587   15.6479   20.8644 C   0  0  0  0  0  0  0  0  0  0  0  0
   30.1106   15.2792   22.1931 C   0  0  0  0  0  0  0  0  0  0  0  0
   31.0813   16.3414   22.6902 C   0  0  0  0  0  0  0  0  0  0  0  0
   32.2704   16.4851   21.7397 C   0  0  0  0  0  0  0  0  0  0  0  0
   33.2493   17.5720   22.1299 N   0  0  0  0  0  0  0  0  0  0  0  0
   27.1808   14.9224   22.5948 O   0  0  0  0  0  0  0  0  0  0  0  0
  2  1  1  6  0  0  0
  2  3  1  0  0  0  0
  2  5  1  0  0  0  0
  3  4  1  0  0  0  0
  3 10  1  0  0  0  0
  5  6  1  0  0  0  0
  6  7  1  0  0  0  0
  7  8  1  0  0  0  0
  8  9  1  0  0  0  0
M  END
>  <CHROM.1>
13.11196418,-165.63672246,-171.05303197,-64.45300377,177.16121536,29.23345923
15.54952036,21.41730001,-2.90186803,0.33729011,1.47809950

>  <Name>
ligand

>  <RI>
0

>  <Rbt.Current_Directory>
/home/itssahil/PROJECTS/Mol_Feturizer/New_Systems/rnas/3DIM

>  <Rbt.Executable>
rbdock ($Id: //depot/dev/client3/rdock/2013.1/src/exe/rbdock.cxx#4 $)

>  <Rbt.Library>
libRbt.so (2013.1, Build901 2013/11/27)

>  <Rbt.Parameter_File>
/export/apps/rDock/src/rDock_2013.1_src/data/scripts/dock_solv.prm

>  <Rbt.Receptor>
prm/pocket_docking_4.prm

>  <SCORE>
-11.363

>  <SCORE.INTER>
-9.64965

>  <SCORE.INTER.CONST>
1

>  <SCORE.INTER.POLAR>
0

>  <SCORE.INTER.ROT>
5

>  <SCORE.INTER.SOLV>
13.5608

>  <SCORE.INTER.VDW>
-17.8867

>  <SCORE.INTER.norm>
-0.964965

>  <SCORE.INTRA>
-1.7133

>  <SCORE.INTRA.DIHEDRAL>
-3.23127

>  <SCORE.INTRA.DIHEDRAL.0>
5.8785

>  <SCORE.INTRA.POLAR>
0

>  <SCORE.INTRA.POLAR.0>
0

>  <SCORE.INTRA.REPUL>
0

>  <SCORE.INTRA.REPUL.0>
0

>  <SCORE.INTRA.SOLV>
-1.61122

>  <SCORE.INTRA.SOLV.lig_0>
-31.9559

>  <SCORE.INTRA.VDW>
0.707943

>  <SCORE.INTRA.VDW.0>
-0.507645

>  <SCORE.INTRA.norm>
-0.17133

>  <SCORE.RESTR>
0

>  <SCORE.RESTR.CAVITY>
0

>  <SCORE.RESTR.norm>
0

>  <SCORE.SYSTEM>
0

>  <SCORE.SYSTEM.CONST>
0

>  <SCORE.SYSTEM.DIHEDRAL>
0

>  <SCORE.SYSTEM.SOLV>
0

>  <SCORE.SYSTEM.norm>
0

>  <SCORE.heavy>
10

>  <SCORE.norm>
-1.1363

>  <RMSD>
5.302

$$$$
ligand
 OpenBabel11021811473D
libRbt.so/2013.1/901 2013/11/27
 10  9  0  0  0  0  0  0  0  0999 V2000
   34.1228   20.6605   23.9468 N   0  0  0  0  0  0  0  0  0  0  0  0
   35.1493   19.7373   23.3952 C   0  0  2  0  0  0  0  0  0  0  0  0
   36.4190   20.4898   22.9956 C   0  0  0  0  0  0  0  0  0  0  0  0
   36.5035   21.7063   23.1324 O   0  0  0  0  0  0  0  0  0  0  0  0
   34.5665   18.9277   22.2313 C   0  0  0  0  0  0  0  0  0  0  0  0
   33.4576   17.9746   22.6654 C   0  0  0  0  0  0  0  0  0  0  0  0
   32.0853   18.6334   22.6831 C   0  0  0  0  0  0  0  0  0  0  0  0
   31.0080   17.6694   22.1847 C   0  0  0  0  0  0  0  0  0  0  0  0
   30.8614   16.4161   23.0211 N   0  0  0  0  0  0  0  0  0  0  0  0
   37.4195   19.9299   22.5627 O   0  0  0  0  0  0  0  0  0  0  0  0
  2  1  1  6  0  0  0
  2  3  1  0  0  0  0
  2  5  1  0  0  0  0
  3  4  1  0  0  0  0
  3 10  1  0  0  0  0
  5  6  1  0  0  0  0
  6  7  1  0  0  0  0
  7  8  1  0  0  0  0
  8  9  1  0  0  0  0
M  END
>  <CHROM.1>
-0.53194647,-65.71767091,86.87708716,141.59834573,61.09536508,34.19876878
19.23757410,22.87540613,0.54644756,0.18953364,0.40732749

>  <Name>
ligand

>  <RI>
0

>  <Rbt.Current_Directory>
/home/itssahil/PROJECTS/Mol_Feturizer/New_Systems/rnas/3DIM

>  <Rbt.Executable>
rbdock ($Id: //depot/dev/client3/rdock/2013.1/src/exe/rbdock.cxx#4 $)

>  <Rbt.Library>
libRbt.so (2013.1, Build901 2013/11/27)

>  <Rbt.Parameter_File>
/export/apps/rDock/src/rDock_2013.1_src/data/scripts/dock_solv.prm

>  <Rbt.Receptor>
prm/blind_docking_60.prm

>  <SCORE>
0.59561

>  <SCORE.INTER>
-1.09039

>  <SCORE.INTER.CONST>
1

>  <SCORE.INTER.POLAR>
0

>  <SCORE.INTER.ROT>
5

>  <SCORE.INTER.SOLV>
16.014

>  <SCORE.INTER.VDW>
-12.9983

>  <SCORE.INTER.norm>
-0.109039

>  <SCORE.INTRA>
1.686

>  <SCORE.INTRA.DIHEDRAL>
2.70796

>  <SCORE.INTRA.DIHEDRAL.0>
5.8785

>  <SCORE.INTRA.POLAR>
0

>  <SCORE.INTRA.POLAR.0>
0

>  <SCORE.INTRA.REPUL>
0

>  <SCORE.INTRA.REPUL.0>
0

>  <SCORE.INTRA.SOLV>
0.837633

>  <SCORE.INTRA.SOLV.lig_0>
-31.9559

>  <SCORE.INTRA.VDW>
-0.0867967

>  <SCORE.INTRA.VDW.0>
-0.507645

>  <SCORE.INTRA.norm>
0.1686

>  <SCORE.RESTR>
0

>  <SCORE.RESTR.CAVITY>
0

>  <SCORE.RESTR.norm>
0

>  <SCORE.SYSTEM>
0

>  <SCORE.SYSTEM.CONST>
0

>  <SCORE.SYSTEM.DIHEDRAL>
0

>  <SCORE.SYSTEM.SOLV>
0

>  <SCORE.SYSTEM.norm>
0

>  <SCORE.heavy>
10

>  <SCORE.norm>
0.059561

>  <RMSD>
5.303

$$$$
ligand
 OpenBabel11021811473D
libRbt.so/2013.1/901 2013/11/27
 10  9  0  0  0  0  0  0  0  0999 V2000
   28.3809   15.6756   19.3102 N   0  0  0  0  0  0  0  0  0  0  0  0
   28.4587   15.0655   20.6637 C   0  0  2  0  0  0  0  0  0  0  0  0
   27.0816   14.9978   21.3248 C   0  0  0  0  0  0  0  0  0  0  0  0
   26.0546   15.0689   20.6572 O   0  0  0  0  0  0  0  0  0  0  0  0
   29.4787   15.8158   21.5278 C   0  0  0  0  0  0  0  0  0  0  0  0
   30.8574   15.9026   20.8811 C   0  0  0  0  0  0  0  0  0  0  0  0
   31.8781   16.6137   21.7585 C   0  0  0  0  0  0  0  0  0  0  0  0
   33.1411   16.9524   20.9658 C   0  0  0  0  0  0  0  0  0  0  0  0
   33.8387   15.7502   20.3659 N   0  0  0  0  0  0  0  0  0  0  0  0
   26.9258   14.8317   22.5291 O   0  0  0  0  0  0  0  0  0  0  0  0
  2  1  1  6  0  0  0
  2  3  1  0  0  0  0
  2  5  1  0  0  0  0
  3  4  1  0  0  0  0
  3 10  1  0  0  0  0
  5  6  1  0  0  0  0
  6  7  1  0  0  0  0
  7  8  1  0  0  0  0
  8  9  1  0  0  0  0
M  END
>  <CHROM.1>
19.66087107,-54.81216530,-178.37169334,-167.46047899,-59.09227015,29.56624805
15.66122482,21.01309553,3.09826761,0.21348126,1.56110824

>  <Name>
ligand

>  <RI>
0

>  <Rbt.Current_Directory>
/home/itssahil/PROJECTS/Mol_Feturizer/New_Systems/rnas/3DIM

>  <Rbt.Executable>
rbdock ($Id: //depot/dev/client3/rdock/2013.1/src/exe/rbdock.cxx#4 $)

>  <Rbt.Library>
libRbt.so (2013.1, Build901 2013/11/27)

>  <Rbt.Parameter_File>
/export/apps/rDock/src/rDock_2013.1_src/data/scripts/dock_solv.prm

>  <Rbt.Receptor>
prm/pocket_docking_3.prm

>  <SCORE>
-9.85048

>  <SCORE.INTER>
-8.21306

>  <SCORE.INTER.CONST>
1

>  <SCORE.INTER.POLAR>
0

>  <SCORE.INTER.ROT>
5

>  <SCORE.INTER.SOLV>
15.0685

>  <SCORE.INTER.VDW>
-17.4316

>  <SCORE.INTER.norm>
-0.821306

>  <SCORE.INTRA>
-1.63742

>  <SCORE.INTRA.DIHEDRAL>
-3.69547

>  <SCORE.INTRA.DIHEDRAL.0>
5.8785

>  <SCORE.INTRA.POLAR>
0

>  <SCORE.INTRA.POLAR.0>
0

>  <SCORE.INTRA.REPUL>
0

>  <SCORE.INTRA.REPUL.0>
0

>  <SCORE.INTRA.SOLV>
0.0126552

>  <SCORE.INTRA.SOLV.lig_0>
-31.9559

>  <SCORE.INTRA.VDW>
0.203988

>  <SCORE.INTRA.VDW.0>
-0.507645

>  <SCORE.INTRA.norm>
-0.163742

>  <SCORE.RESTR>
0

>  <SCORE.RESTR.CAVITY>
0

>  <SCORE.RESTR.norm>
0

>  <SCORE.SYSTEM>
0

>  <SCORE.SYSTEM.CONST>
0

>  <SCORE.SYSTEM.DIHEDRAL>
0

>  <SCORE.SYSTEM.SOLV>
0

>  <SCORE.SYSTEM.norm>
0

>  <SCORE.heavy>
10

>  <SCORE.norm>
-0.985048

>  <RMSD>
5.304

$$$$
ligand
 OpenBabel11021811473D
libRbt.so/2013.1/901 2013/11/27
 10  9  0  0  0  0  0  0  0  0999 V2000
   28.8725   15.0878   19.7614 N   0  0  0  0  0  0  0  0  0  0  0  0
   28.2200   14.7632   21.0573 C   0  0  2  0  0  0  0  0  0  0  0  0
   26.6991   14.8889   20.9626 C   0  0  0  0  0  0  0  0  0  0  0  0
   26.1693   15.4735   20.0228 O   0  0  0  0  0  0  0  0  0  0  0  0
   28.8032   15.6306   22.1786 C   0  0  0  0  0  0  0  0  0  0  0  0
   30.1804   15.1628   22.6381 C   0  0  0  0  0  0  0  0  0  0  0  0
   31.2706   15.4362   21.6113 C   0  0  0  0  0  0  0  0  0  0  0  0
   31.7957   16.8668   21.7372 C   0  0  0  0  0  0  0  0  0  0  0  0
   33.0510   17.1401   20.9365 N   0  0  0  0  0  0  0  0  0  0  0  0
   25.9350   14.3894   21.7804 O   0  0  0  0  0  0  0  0  0  0  0  0
  2  1  1  6  0  0  0
  2  3  1  0  0  0  0
  2  5  1  0  0  0  0
  3  4  1  0  0  0  0
  3 10  1  0  0  0  0
  5  6  1  0  0  0  0
  6  7  1  0  0  0  0
  7  8  1  0  0  0  0
  8  9  1  0  0  0  0
M  END
>  <CHROM.1>
-15.04216664,-76.45667265,71.38385546,83.91201962,169.07860467,29.05453884
15.48195204,21.26449294,-3.12993695,0.29891653,1.86510477

>  <Name>
ligand

>  <RI>
0

>  <Rbt.Current_Directory>
/home/itssahil/PROJECTS/Mol_Feturizer/New_Systems/rnas/3DIM

>  <Rbt.Executable>
rbdock ($Id: //depot/dev/client3/rdock/2013.1/src/exe/rbdock.cxx#4 $)

>  <Rbt.Library>
libRbt.so (2013.1, Build901 2013/11/27)

>  <Rbt.Parameter_File>
/export/apps/rDock/src/rDock_2013.1_src/data/scripts/dock_solv.prm

>  <Rbt.Receptor>
prm/pocket_docking_4.prm

>  <SCORE>
-8.95565

>  <SCORE.INTER>
-9.14637

>  <SCORE.INTER.CONST>
1

>  <SCORE.INTER.POLAR>
0

>  <SCORE.INTER.ROT>
5

>  <SCORE.INTER.SOLV>
12.4096

>  <SCORE.INTER.VDW>
-17.1675

>  <SCORE.INTER.norm>
-0.914637

>  <SCORE.INTRA>
0.190713

>  <SCORE.INTRA.DIHEDRAL>
-0.204508

>  <SCORE.INTRA.DIHEDRAL.0>
5.8785

>  <SCORE.INTRA.POLAR>
0

>  <SCORE.INTRA.POLAR.0>
0

>  <SCORE.INTRA.REPUL>
0

>  <SCORE.INTRA.REPUL.0>
0

>  <SCORE.INTRA.SOLV>
0.513575

>  <SCORE.INTRA.SOLV.lig_0>
-31.9559

>  <SCORE.INTRA.VDW>
0.0361793

>  <SCORE.INTRA.VDW.0>
-0.507645

>  <SCORE.INTRA.norm>
0.0190713

>  <SCORE.RESTR>
0

>  <SCORE.RESTR.CAVITY>
0

>  <SCORE.RESTR.norm>
0

>  <SCORE.SYSTEM>
0

>  <SCORE.SYSTEM.CONST>
0

>  <SCORE.SYSTEM.DIHEDRAL>
0

>  <SCORE.SYSTEM.SOLV>
0

>  <SCORE.SYSTEM.norm>
0

>  <SCORE.heavy>
10

>  <SCORE.norm>
-0.895565

>  <RMSD>
5.304

$$$$
ligand
 OpenBabel11021811473D
libRbt.so/2013.1/901 2013/11/27
 10  9  0  0  0  0  0  0  0  0999 V2000
   25.8557   14.7212   21.0441 N   0  0  0  0  0  0  0  0  0  0  0  0
   27.1211   15.4389   20.7375 C   0  0  2  0  0  0  0  0  0  0  0  0
   27.6031   15.1375   19.3181 C   0  0  0  0  0  0  0  0  0  0  0  0
   28.3354   15.9186   18.7188 O   0  0  0  0  0  0  0  0  0  0  0  0
   28.1861   15.1137   21.7910 C   0  0  0  0  0  0  0  0  0  0  0  0
   29.4472   15.9589   21.6434 C   0  0  0  0  0  0  0  0  0  0  0  0
   30.5247   15.5945   22.6551 C   0  0  0  0  0  0  0  0  0  0  0  0
   31.7470   16.5010   22.5045 C   0  0  0  0  0  0  0  0  0  0  0  0
   32.4459   16.3835   21.1668 N   0  0  0  0  0  0  0  0  0  0  0  0
   27.3256   14.1022   18.7237 O   0  0  0  0  0  0  0  0  0  0  0  0
  2  1  1  1  0  0  0
  2  3  1  0  0  0  0
  2  5  1  0  0  0  0
  3  4  1  0  0  0  0
  3 10  1  0  0  0  0
  5  6  1  0  0  0  0
  6  7  1  0  0  0  0
  7  8  1  0  0  0  0
  8  9  1  0  0  0  0
M  END
>  <CHROM.1>
155.86364613,-172.31346359,-177.65424739,-177.84597752,-62.82237759,28.86070409
15.47899548,20.79351897,2.67987484,-0.28338544,-1.59444514

>  <Name>
ligand

>  <RI>
0

>  <Rbt.Current_Directory>
/home/itssahil/PROJECTS/Mol_Feturizer/New_Systems/rnas/3DIM

>  <Rbt.Executable>
rbdock ($Id: //depot/dev/client3/rdock/2013.1/src/exe/rbdock.cxx#4 $)

>  <Rbt.Library>
libRbt.so (2013.1, Build901 2013/11/27)

>  <Rbt.Parameter_File>
/export/apps/rDock/src/rDock_2013.1_src/data/scripts/dock_solv.prm

>  <Rbt.Receptor>
prm/pocket_docking_5.prm

>  <SCORE>
-10.9383

>  <SCORE.INTER>
-8.11352

>  <SCORE.INTER.CONST>
1

>  <SCORE.INTER.POLAR>
0

>  <SCORE.INTER.ROT>
5

>  <SCORE.INTER.SOLV>
18.0174

>  <SCORE.INTER.VDW>
-18.3482

>  <SCORE.INTER.norm>
-0.811352

>  <SCORE.INTRA>
-2.82476

>  <SCORE.INTRA.DIHEDRAL>
-4.16894

>  <SCORE.INTRA.DIHEDRAL.0>
5.8785

>  <SCORE.INTRA.POLAR>
0

>  <SCORE.INTRA.POLAR.0>
0

>  <SCORE.INTRA.REPUL>
0

>  <SCORE.INTRA.REPUL.0>
0

>  <SCORE.INTRA.SOLV>
-0.997122

>  <SCORE.INTRA.SOLV.lig_0>
-31.9559

>  <SCORE.INTRA.VDW>
-0.241733

>  <SCORE.INTRA.VDW.0>
-0.507645

>  <SCORE.INTRA.norm>
-0.282476

>  <SCORE.RESTR>
0

>  <SCORE.RESTR.CAVITY>
0

>  <SCORE.RESTR.norm>
0

>  <SCORE.SYSTEM>
0

>  <SCORE.SYSTEM.CONST>
0

>  <SCORE.SYSTEM.DIHEDRAL>
0

>  <SCORE.SYSTEM.SOLV>
0

>  <SCORE.SYSTEM.norm>
0

>  <SCORE.heavy>
10

>  <SCORE.norm>
-1.09383

>  <RMSD>
5.305

$$$$
ligand
 OpenBabel11021811473D
libRbt.so/2013.1/901 2013/11/27
 10  9  0  0  0  0  0  0  0  0999 V2000
   28.8060   14.1102   19.5499 N   0  0  0  0  0  0  0  0  0  0  0  0
   28.3321   14.3129   20.9444 C   0  0  2  0  0  0  0  0  0  0  0  0
   26.9281   14.9176   20.9738 C   0  0  0  0  0  0  0  0  0  0  0  0
   26.6094   15.8163   20.2015 O   0  0  0  0  0  0  0  0  0  0  0  0
   29.3414   15.1559   21.7321 C   0  0  0  0  0  0  0  0  0  0  0  0
   29.5887   16.5256   21.1081 C   0  0  0  0  0  0  0  0  0  0  0  0
   30.6866   17.3078   21.8152 C   0  0  0  0  0  0  0  0  0  0  0  0
   32.0577   16.6806   21.5602 C   0  0  0  0  0  0  0  0  0  0  0  0
   33.2126   17.4411   22.1764 N   0  0  0  0  0  0  0  0  0  0  0  0
   26.0454   14.5216   21.7262 O   0  0  0  0  0  0  0  0  0  0  0  0
  2  1  1  6  0  0  0
  2  3  1  0  0  0  0
  2  5  1  0  0  0  0
  3  4  1  0  0  0  0
  3 10  1  0  0  0  0
  5  6  1  0  0  0  0
  6  7  1  0  0  0  0
  7  8  1  0  0  0  0
  8  9  1  0  0  0  0
M  END
>  <CHROM.1>
-41.65739161,58.70661556,-174.54591858,70.02358995,177.19552404,29.11887030
15.68529747,21.17745778,-2.70491068,0.08305944,0.58468461

>  <Name>
ligand

>  <RI>
0

>  <Rbt.Current_Directory>
/home/itssahil/PROJECTS/Mol_Feturizer/New_Systems/rnas/3DIM

>  <Rbt.Executable>
rbdock ($Id: //depot/dev/client3/rdock/2013.1/src/exe/rbdock.cxx#4 $)

>  <Rbt.Library>
libRbt.so (2013.1, Build901 2013/11/27)

>  <Rbt.Parameter_File>
/export/apps/rDock/src/rDock_2013.1_src/data/scripts/dock_solv.prm

>  <Rbt.Receptor>
prm/pocket_docking_5.prm

>  <SCORE>
-10.5803

>  <SCORE.INTER>
-8.62571

>  <SCORE.INTER.CONST>
1

>  <SCORE.INTER.POLAR>
0

>  <SCORE.INTER.ROT>
5

>  <SCORE.INTER.SOLV>
13.8365

>  <SCORE.INTER.VDW>
-17.296

>  <SCORE.INTER.norm>
-0.862571

>  <SCORE.INTRA>
-1.95462

>  <SCORE.INTRA.DIHEDRAL>
-3.7347

>  <SCORE.INTRA.DIHEDRAL.0>
5.8785

>  <SCORE.INTRA.POLAR>
0

>  <SCORE.INTRA.POLAR.0>
0

>  <SCORE.INTRA.REPUL>
0

>  <SCORE.INTRA.REPUL.0>
0

>  <SCORE.INTRA.SOLV>
-0.664592

>  <SCORE.INTRA.SOLV.lig_0>
-31.9559

>  <SCORE.INTRA.VDW>
0.24503

>  <SCORE.INTRA.VDW.0>
-0.507645

>  <SCORE.INTRA.norm>
-0.195462

>  <SCORE.RESTR>
0

>  <SCORE.RESTR.CAVITY>
0

>  <SCORE.RESTR.norm>
0

>  <SCORE.SYSTEM>
0

>  <SCORE.SYSTEM.CONST>
0

>  <SCORE.SYSTEM.DIHEDRAL>
0

>  <SCORE.SYSTEM.SOLV>
0

>  <SCORE.SYSTEM.norm>
0

>  <SCORE.heavy>
10

>  <SCORE.norm>
-1.05803

>  <RMSD>
5.306

$$$$
ligand
 OpenBabel11021811473D
libRbt.so/2013.1/901 2013/11/27
 10  9  0  0  0  0  0  0  0  0999 V2000
   28.5253   14.5968   19.0904 N   0  0  0  0  0  0  0  0  0  0  0  0
   28.3134   14.3466   20.5405 C   0  0  2  0  0  0  0  0  0  0  0  0
   26.9306   14.8184   20.9914 C   0  0  0  0  0  0  0  0  0  0  0  0
   26.1791   15.4057   20.2195 O   0  0  0  0  0  0  0  0  0  0  0  0
   29.4389   14.9868   21.3610 C   0  0  0  0  0  0  0  0  0  0  0  0
   29.5125   16.5008   21.1909 C   0  0  0  0  0  0  0  0  0  0  0  0
   30.6430   17.1313   21.9920 C   0  0  0  0  0  0  0  0  0  0  0  0
   32.0056   16.7399   21.4189 C   0  0  0  0  0  0  0  0  0  0  0  0
   33.1827   17.3791   22.1242 N   0  0  0  0  0  0  0  0  0  0  0  0
   26.4853   14.6068   22.1135 O   0  0  0  0  0  0  0  0  0  0  0  0
  2  1  1  6  0  0  0
  2  3  1  0  0  0  0
  2  5  1  0  0  0  0
  3  4  1  0  0  0  0
  3 10  1  0  0  0  0
  5  6  1  0  0  0  0
  6  7  1  0  0  0  0
  7  8  1  0  0  0  0
  8  9  1  0  0  0  0
M  END
>  <CHROM.1>
-4.59407216,61.02989291,-179.21342956,68.98673868,177.37387377,29.08022026
15.65431492,21.11175007,-2.80573309,0.29545306,1.13636188

>  <Name>
ligand

>  <RI>
0

>  <Rbt.Current_Directory>
/home/itssahil/PROJECTS/Mol_Feturizer/New_Systems/rnas/3DIM

>  <Rbt.Executable>
rbdock ($Id: //depot/dev/client3/rdock/2013.1/src/exe/rbdock.cxx#4 $)

>  <Rbt.Library>
libRbt.so (2013.1, Build901 2013/11/27)

>  <Rbt.Parameter_File>
/export/apps/rDock/src/rDock_2013.1_src/data/scripts/dock_solv.prm

>  <Rbt.Receptor>
prm/pocket_docking_8.prm

>  <SCORE>
-10.7176

>  <SCORE.INTER>
-8.72138

>  <SCORE.INTER.CONST>
1

>  <SCORE.INTER.POLAR>
0

>  <SCORE.INTER.ROT>
5

>  <SCORE.INTER.SOLV>
12.9174

>  <SCORE.INTER.VDW>
-17.0534

>  <SCORE.INTER.norm>
-0.872138

>  <SCORE.INTRA>
-1.99625

>  <SCORE.INTRA.DIHEDRAL>
-3.98252

>  <SCORE.INTRA.DIHEDRAL.0>
5.8785

>  <SCORE.INTRA.POLAR>
0

>  <SCORE.INTRA.POLAR.0>
0

>  <SCORE.INTRA.REPUL>
0

>  <SCORE.INTRA.REPUL.0>
0

>  <SCORE.INTRA.SOLV>
-0.770884

>  <SCORE.INTRA.SOLV.lig_0>
-31.9559

>  <SCORE.INTRA.VDW>
0.38045

>  <SCORE.INTRA.VDW.0>
-0.507645

>  <SCORE.INTRA.norm>
-0.199625

>  <SCORE.RESTR>
0

>  <SCORE.RESTR.CAVITY>
0

>  <SCORE.RESTR.norm>
0

>  <SCORE.SYSTEM>
0

>  <SCORE.SYSTEM.CONST>
0

>  <SCORE.SYSTEM.DIHEDRAL>
0

>  <SCORE.SYSTEM.SOLV>
0

>  <SCORE.SYSTEM.norm>
0

>  <SCORE.heavy>
10

>  <SCORE.norm>
-1.07176

>  <RMSD>
5.306

$$$$
ligand
 OpenBabel11021811473D
libRbt.so/2013.1/901 2013/11/27
 10  9  0  0  0  0  0  0  0  0999 V2000
   28.3940   15.7213   19.2956 N   0  0  0  0  0  0  0  0  0  0  0  0
   28.4724   15.0815   20.6353 C   0  0  2  0  0  0  0  0  0  0  0  0
   27.0934   14.9852   21.2887 C   0  0  0  0  0  0  0  0  0  0  0  0
   26.0686   15.1213   20.6277 O   0  0  0  0  0  0  0  0  0  0  0  0
   29.4812   15.8221   21.5206 C   0  0  0  0  0  0  0  0  0  0  0  0
   30.8604   15.9414   20.8800 C   0  0  0  0  0  0  0  0  0  0  0  0
   31.8790   16.6127   21.7906 C   0  0  0  0  0  0  0  0  0  0  0  0
   33.1592   16.9507   21.0257 C   0  0  0  0  0  0  0  0  0  0  0  0
   33.8479   15.7526   20.4078 N   0  0  0  0  0  0  0  0  0  0  0  0
   26.9331   14.7319   22.4771 O   0  0  0  0  0  0  0  0  0  0  0  0
  2  1  1  6  0  0  0
  2  3  1  0  0  0  0
  2  5  1  0  0  0  0
  3  4  1  0  0  0  0
  3 10  1  0  0  0  0
  5  6  1  0  0  0  0
  6  7  1  0  0  0  0
  7  8  1  0  0  0  0
  8  9  1  0  0  0  0
M  END
>  <CHROM.1>
16.34405309,-54.62343041,-177.00324466,-169.22943869,-59.21326040,29.57556746
15.66523671,21.00921363,3.10137961,0.21374749,1.60597570

>  <Name>
ligand

>  <RI>
0

>  <Rbt.Current_Directory>
/home/itssahil/PROJECTS/Mol_Feturizer/New_Systems/rnas/3DIM

>  <Rbt.Executable>
rbdock ($Id: //depot/dev/client3/rdock/2013.1/src/exe/rbdock.cxx#4 $)

>  <Rbt.Library>
libRbt.so (2013.1, Build901 2013/11/27)

>  <Rbt.Parameter_File>
/export/apps/rDock/src/rDock_2013.1_src/data/scripts/dock_solv.prm

>  <Rbt.Receptor>
prm/pocket_docking_8.prm

>  <SCORE>
-9.8192

>  <SCORE.INTER>
-8.0982

>  <SCORE.INTER.CONST>
1

>  <SCORE.INTER.POLAR>
0

>  <SCORE.INTER.ROT>
5

>  <SCORE.INTER.SOLV>
15.143

>  <SCORE.INTER.VDW>
-17.3798

>  <SCORE.INTER.norm>
-0.80982

>  <SCORE.INTRA>
-1.72099

>  <SCORE.INTRA.DIHEDRAL>
-3.8153

>  <SCORE.INTRA.DIHEDRAL.0>
5.8785

>  <SCORE.INTRA.POLAR>
0

>  <SCORE.INTRA.POLAR.0>
0

>  <SCORE.INTRA.REPUL>
0

>  <SCORE.INTRA.REPUL.0>
0

>  <SCORE.INTRA.SOLV>
0.0142673

>  <SCORE.INTRA.SOLV.lig_0>
-31.9559

>  <SCORE.INTRA.VDW>
0.179522

>  <SCORE.INTRA.VDW.0>
-0.507645

>  <SCORE.INTRA.norm>
-0.172099

>  <SCORE.RESTR>
0

>  <SCORE.RESTR.CAVITY>
0

>  <SCORE.RESTR.norm>
0

>  <SCORE.SYSTEM>
0

>  <SCORE.SYSTEM.CONST>
0

>  <SCORE.SYSTEM.DIHEDRAL>
0

>  <SCORE.SYSTEM.SOLV>
0

>  <SCORE.SYSTEM.norm>
0

>  <SCORE.heavy>
10

>  <SCORE.norm>
-0.98192

>  <RMSD>
5.308

$$$$
ligand
 OpenBabel11021811473D
libRbt.so/2013.1/901 2013/11/27
 10  9  0  0  0  0  0  0  0  0999 V2000
   28.3229   15.5940   19.2831 N   0  0  0  0  0  0  0  0  0  0  0  0
   28.4240   15.0356   20.6572 C   0  0  2  0  0  0  0  0  0  0  0  0
   27.0542   14.9666   21.3331 C   0  0  0  0  0  0  0  0  0  0  0  0
   26.9536   14.8848   22.5533 O   0  0  0  0  0  0  0  0  0  0  0  0
   29.4369   15.8360   21.4837 C   0  0  0  0  0  0  0  0  0  0  0  0
   30.8152   15.9031   20.8338 C   0  0  0  0  0  0  0  0  0  0  0  0
   31.8460   16.6070   21.7052 C   0  0  0  0  0  0  0  0  0  0  0  0
   33.1154   16.9169   20.9109 C   0  0  0  0  0  0  0  0  0  0  0  0
   33.8169   15.6939   20.3596 N   0  0  0  0  0  0  0  0  0  0  0  0
   25.9989   15.0284   20.7128 O   0  0  0  0  0  0  0  0  0  0  0  0
  2  1  1  6  0  0  0
  2  3  1  0  0  0  0
  2  5  1  0  0  0  0
  3  4  1  0  0  0  0
  3 10  1  0  0  0  0
  5  6  1  0  0  0  0
  6  7  1  0  0  0  0
  7  8  1  0  0  0  0
  8  9  1  0  0  0  0
M  END
>  <CHROM.1>
-160.19436550,-55.87265648,-175.62709699,-167.89196435,-60.81508695,29.53553321
15.64142331,20.99908719,3.09766636,0.21196575,1.52640496

>  <Name>
ligand

>  <RI>
0

>  <Rbt.Current_Directory>
/home/itssahil/PROJECTS/Mol_Feturizer/New_Systems/rnas/3DIM

>  <Rbt.Executable>
rbdock ($Id: //depot/dev/client3/rdock/2013.1/src/exe/rbdock.cxx#4 $)

>  <Rbt.Library>
libRbt.so (2013.1, Build901 2013/11/27)

>  <Rbt.Parameter_File>
/export/apps/rDock/src/rDock_2013.1_src/data/scripts/dock_solv.prm

>  <Rbt.Receptor>
prm/pocket_docking_5.prm

>  <SCORE>
-9.84177

>  <SCORE.INTER>
-8.28644

>  <SCORE.INTER.CONST>
1

>  <SCORE.INTER.POLAR>
0

>  <SCORE.INTER.ROT>
5

>  <SCORE.INTER.SOLV>
15.1194

>  <SCORE.INTER.VDW>
-17.4974

>  <SCORE.INTER.norm>
-0.828644

>  <SCORE.INTRA>
-1.55533

>  <SCORE.INTRA.DIHEDRAL>
-3.5716

>  <SCORE.INTRA.DIHEDRAL.0>
5.8785

>  <SCORE.INTRA.POLAR>
0

>  <SCORE.INTRA.POLAR.0>
0

>  <SCORE.INTRA.REPUL>
0

>  <SCORE.INTRA.REPUL.0>
0

>  <SCORE.INTRA.SOLV>
-0.043089

>  <SCORE.INTRA.SOLV.lig_0>
-31.9559

>  <SCORE.INTRA.VDW>
0.25202

>  <SCORE.INTRA.VDW.0>
-0.507645

>  <SCORE.INTRA.norm>
-0.155533

>  <SCORE.RESTR>
0

>  <SCORE.RESTR.CAVITY>
0

>  <SCORE.RESTR.norm>
0

>  <SCORE.SYSTEM>
0

>  <SCORE.SYSTEM.CONST>
0

>  <SCORE.SYSTEM.DIHEDRAL>
0

>  <SCORE.SYSTEM.SOLV>
0

>  <SCORE.SYSTEM.norm>
0

>  <SCORE.heavy>
10

>  <SCORE.norm>
-0.984177

>  <RMSD>
5.309

$$$$
ligand
 OpenBabel11021811473D
libRbt.so/2013.1/901 2013/11/27
 10  9  0  0  0  0  0  0  0  0999 V2000
   27.6576   14.6518   18.9729 N   0  0  0  0  0  0  0  0  0  0  0  0
   28.1240   14.5725   20.3823 C   0  0  2  0  0  0  0  0  0  0  0  0
   26.9790   14.8257   21.3635 C   0  0  0  0  0  0  0  0  0  0  0  0
   25.8122   14.8437   20.9841 O   0  0  0  0  0  0  0  0  0  0  0  0
   29.3009   15.5284   20.6079 C   0  0  0  0  0  0  0  0  0  0  0  0
   30.0287   15.2763   21.9245 C   0  0  0  0  0  0  0  0  0  0  0  0
   31.1647   16.2596   22.1696 C   0  0  0  0  0  0  0  0  0  0  0  0
   32.2570   16.1105   21.1099 C   0  0  0  0  0  0  0  0  0  0  0  0
   33.4025   17.0893   21.2570 N   0  0  0  0  0  0  0  0  0  0  0  0
   27.1521   14.9820   22.5668 O   0  0  0  0  0  0  0  0  0  0  0  0
  2  1  1  6  0  0  0
  2  3  1  0  0  0  0
  2  5  1  0  0  0  0
  3  4  1  0  0  0  0
  3 10  1  0  0  0  0
  5  6  1  0  0  0  0
  6  7  1  0  0  0  0
  7  8  1  0  0  0  0
  8  9  1  0  0  0  0
M  END
>  <CHROM.1>
11.92422838,-166.99283017,-177.89091030,-63.75528823,177.98391802,29.15100397
15.41424099,21.15415736,-3.01691263,0.28271431,1.43045475

>  <Name>
ligand

>  <RI>
0

>  <Rbt.Current_Directory>
/home/itssahil/PROJECTS/Mol_Feturizer/New_Systems/rnas/3DIM

>  <Rbt.Executable>
rbdock ($Id: //depot/dev/client3/rdock/2013.1/src/exe/rbdock.cxx#4 $)

>  <Rbt.Library>
libRbt.so (2013.1, Build901 2013/11/27)

>  <Rbt.Parameter_File>
/export/apps/rDock/src/rDock_2013.1_src/data/scripts/dock_solv.prm

>  <Rbt.Receptor>
prm/pocket_docking_5.prm

>  <SCORE>
-11.3621

>  <SCORE.INTER>
-9.4747

>  <SCORE.INTER.CONST>
1

>  <SCORE.INTER.POLAR>
0

>  <SCORE.INTER.ROT>
5

>  <SCORE.INTER.SOLV>
14.8784

>  <SCORE.INTER.VDW>
-18.2093

>  <SCORE.INTER.norm>
-0.94747

>  <SCORE.INTRA>
-1.88745

>  <SCORE.INTRA.DIHEDRAL>
-3.70847

>  <SCORE.INTRA.DIHEDRAL.0>
5.8785

>  <SCORE.INTRA.POLAR>
0

>  <SCORE.INTRA.POLAR.0>
0

>  <SCORE.INTRA.REPUL>
0

>  <SCORE.INTRA.REPUL.0>
0

>  <SCORE.INTRA.SOLV>
-1.6122

>  <SCORE.INTRA.SOLV.lig_0>
-31.9559

>  <SCORE.INTRA.VDW>
0.77289

>  <SCORE.INTRA.VDW.0>
-0.507645

>  <SCORE.INTRA.norm>
-0.188745

>  <SCORE.RESTR>
0

>  <SCORE.RESTR.CAVITY>
0

>  <SCORE.RESTR.norm>
0

>  <SCORE.SYSTEM>
0

>  <SCORE.SYSTEM.CONST>
0

>  <SCORE.SYSTEM.DIHEDRAL>
0

>  <SCORE.SYSTEM.SOLV>
0

>  <SCORE.SYSTEM.norm>
0

>  <SCORE.heavy>
10

>  <SCORE.norm>
-1.13621

>  <RMSD>
5.314

$$$$
ligand
 OpenBabel11021811473D
libRbt.so/2013.1/901 2013/11/27
 10  9  0  0  0  0  0  0  0  0999 V2000
   25.8288   14.6959   21.0717 N   0  0  0  0  0  0  0  0  0  0  0  0
   27.0878   15.4288   20.7745 C   0  0  2  0  0  0  0  0  0  0  0  0
   27.5530   15.1786   19.3396 C   0  0  0  0  0  0  0  0  0  0  0  0
   28.2770   15.9818   18.7596 O   0  0  0  0  0  0  0  0  0  0  0  0
   28.1670   15.0714   21.8029 C   0  0  0  0  0  0  0  0  0  0  0  0
   29.4350   15.9052   21.6493 C   0  0  0  0  0  0  0  0  0  0  0  0
   30.5160   15.5271   22.6523 C   0  0  0  0  0  0  0  0  0  0  0  0
   31.7336   16.4423   22.5168 C   0  0  0  0  0  0  0  0  0  0  0  0
   32.4324   16.3515   21.1770 N   0  0  0  0  0  0  0  0  0  0  0  0
   27.2698   14.1645   18.7124 O   0  0  0  0  0  0  0  0  0  0  0  0
  2  1  1  1  0  0  0
  2  3  1  0  0  0  0
  2  5  1  0  0  0  0
  3  4  1  0  0  0  0
  3 10  1  0  0  0  0
  5  6  1  0  0  0  0
  6  7  1  0  0  0  0
  7  8  1  0  0  0  0
  8  9  1  0  0  0  0
M  END
>  <CHROM.1>
155.99532095,-173.58593121,-178.74266879,-176.59714106,-62.93584081,28.83111333
15.46802548,20.80858632,2.69386505,-0.28339047,-1.55647707

>  <Name>
ligand

>  <RI>
0

>  <Rbt.Current_Directory>
/home/itssahil/PROJECTS/Mol_Feturizer/New_Systems/rnas/3DIM

>  <Rbt.Executable>
rbdock ($Id: //depot/dev/client3/rdock/2013.1/src/exe/rbdock.cxx#4 $)

>  <Rbt.Library>
libRbt.so (2013.1, Build901 2013/11/27)

>  <Rbt.Parameter_File>
/export/apps/rDock/src/rDock_2013.1_src/data/scripts/dock_solv.prm

>  <Rbt.Receptor>
prm/pocket_docking_7.prm

>  <SCORE>
-10.9874

>  <SCORE.INTER>
-8.16142

>  <SCORE.INTER.CONST>
1

>  <SCORE.INTER.POLAR>
0

>  <SCORE.INTER.ROT>
5

>  <SCORE.INTER.SOLV>
18.1665

>  <SCORE.INTER.VDW>
-18.4298

>  <SCORE.INTER.norm>
-0.816142

>  <SCORE.INTRA>
-2.82602

>  <SCORE.INTRA.DIHEDRAL>
-4.22009

>  <SCORE.INTRA.DIHEDRAL.0>
5.8785

>  <SCORE.INTRA.POLAR>
0

>  <SCORE.INTRA.POLAR.0>
0

>  <SCORE.INTRA.REPUL>
0

>  <SCORE.INTRA.REPUL.0>
0

>  <SCORE.INTRA.SOLV>
-1.00575

>  <SCORE.INTRA.SOLV.lig_0>
-31.9559

>  <SCORE.INTRA.VDW>
-0.213101

>  <SCORE.INTRA.VDW.0>
-0.507645

>  <SCORE.INTRA.norm>
-0.282602

>  <SCORE.RESTR>
0

>  <SCORE.RESTR.CAVITY>
0

>  <SCORE.RESTR.norm>
0

>  <SCORE.SYSTEM>
0

>  <SCORE.SYSTEM.CONST>
0

>  <SCORE.SYSTEM.DIHEDRAL>
0

>  <SCORE.SYSTEM.SOLV>
0

>  <SCORE.SYSTEM.norm>
0

>  <SCORE.heavy>
10

>  <SCORE.norm>
-1.09874

>  <RMSD>
5.315

$$$$
ligand
 OpenBabel11021811473D
libRbt.so/2013.1/901 2013/11/27
 10  9  0  0  0  0  0  0  0  0999 V2000
   25.8139   14.7862   20.9627 N   0  0  0  0  0  0  0  0  0  0  0  0
   27.1086   15.4574   20.6735 C   0  0  2  0  0  0  0  0  0  0  0  0
   27.6216   15.1014   19.2777 C   0  0  0  0  0  0  0  0  0  0  0  0
   27.3518   14.0221   18.7601 O   0  0  0  0  0  0  0  0  0  0  0  0
   28.1328   15.1314   21.7665 C   0  0  0  0  0  0  0  0  0  0  0  0
   29.4378   15.9054   21.6095 C   0  0  0  0  0  0  0  0  0  0  0  0
   30.4621   15.5607   22.6816 C   0  0  0  0  0  0  0  0  0  0  0  0
   31.7286   16.4024   22.5205 C   0  0  0  0  0  0  0  0  0  0  0  0
   32.4735   16.1613   21.2248 N   0  0  0  0  0  0  0  0  0  0  0  0
   28.2840   15.8720   18.5924 O   0  0  0  0  0  0  0  0  0  0  0  0
  2  1  1  1  0  0  0
  2  3  1  0  0  0  0
  2  5  1  0  0  0  0
  3  4  1  0  0  0  0
  3 10  1  0  0  0  0
  5  6  1  0  0  0  0
  6  7  1  0  0  0  0
  7  8  1  0  0  0  0
  8  9  1  0  0  0  0
M  END
>  <CHROM.1>
-29.42470304,-173.95748629,-178.95113600,-177.55292876,-63.30020193,28.84256910
15.43095585,20.77008005,2.65465821,-0.24337199,-1.62161444

>  <Name>
ligand

>  <RI>
0

>  <Rbt.Current_Directory>
/home/itssahil/PROJECTS/Mol_Feturizer/New_Systems/rnas/3DIM

>  <Rbt.Executable>
rbdock ($Id: //depot/dev/client3/rdock/2013.1/src/exe/rbdock.cxx#4 $)

>  <Rbt.Library>
libRbt.so (2013.1, Build901 2013/11/27)

>  <Rbt.Parameter_File>
/export/apps/rDock/src/rDock_2013.1_src/data/scripts/dock_solv.prm

>  <Rbt.Receptor>
prm/pocket_docking_3.prm

>  <SCORE>
-10.9128

>  <SCORE.INTER>
-8.11685

>  <SCORE.INTER.CONST>
1

>  <SCORE.INTER.POLAR>
0

>  <SCORE.INTER.ROT>
5

>  <SCORE.INTER.SOLV>
18.246

>  <SCORE.INTER.VDW>
-18.4266

>  <SCORE.INTER.norm>
-0.811685

>  <SCORE.INTRA>
-2.79591

>  <SCORE.INTRA.DIHEDRAL>
-4.09065

>  <SCORE.INTRA.DIHEDRAL.0>
5.8785

>  <SCORE.INTRA.POLAR>
0

>  <SCORE.INTRA.POLAR.0>
0

>  <SCORE.INTRA.REPUL>
0

>  <SCORE.INTRA.REPUL.0>
0

>  <SCORE.INTRA.SOLV>
-0.985215

>  <SCORE.INTRA.SOLV.lig_0>
-31.9559

>  <SCORE.INTRA.VDW>
-0.257978

>  <SCORE.INTRA.VDW.0>
-0.507645

>  <SCORE.INTRA.norm>
-0.279591

>  <SCORE.RESTR>
0

>  <SCORE.RESTR.CAVITY>
0

>  <SCORE.RESTR.norm>
0

>  <SCORE.SYSTEM>
0

>  <SCORE.SYSTEM.CONST>
0

>  <SCORE.SYSTEM.DIHEDRAL>
0

>  <SCORE.SYSTEM.SOLV>
0

>  <SCORE.SYSTEM.norm>
0

>  <SCORE.heavy>
10

>  <SCORE.norm>
-1.09128

>  <RMSD>
5.316

$$$$
ligand
 OpenBabel11021811473D
libRbt.so/2013.1/901 2013/11/27
 10  9  0  0  0  0  0  0  0  0999 V2000
   25.8061   14.7980   20.9496 N   0  0  0  0  0  0  0  0  0  0  0  0
   27.1097   15.4508   20.6585 C   0  0  2  0  0  0  0  0  0  0  0  0
   27.6102   15.0963   19.2578 C   0  0  0  0  0  0  0  0  0  0  0  0
   28.2886   15.8865   18.6090 O   0  0  0  0  0  0  0  0  0  0  0  0
   28.1340   15.1013   21.7441 C   0  0  0  0  0  0  0  0  0  0  0  0
   29.4285   15.8985   21.6200 C   0  0  0  0  0  0  0  0  0  0  0  0
   30.4653   15.5084   22.6642 C   0  0  0  0  0  0  0  0  0  0  0  0
   31.7089   16.3919   22.5586 C   0  0  0  0  0  0  0  0  0  0  0  0
   32.4746   16.2336   21.2623 N   0  0  0  0  0  0  0  0  0  0  0  0
   27.4021   14.0106   18.7286 O   0  0  0  0  0  0  0  0  0  0  0  0
  2  1  1  1  0  0  0
  2  3  1  0  0  0  0
  2  5  1  0  0  0  0
  3  4  1  0  0  0  0
  3 10  1  0  0  0  0
  5  6  1  0  0  0  0
  6  7  1  0  0  0  0
  7  8  1  0  0  0  0
  8  9  1  0  0  0  0
M  END
>  <CHROM.1>
148.89459413,-171.55365514,-177.62308158,-176.38917927,-64.76356813,28.84481842
15.42867749,20.76860034,2.64942059,-0.24893638,-1.61514614

>  <Name>
ligand

>  <RI>
0

>  <Rbt.Current_Directory>
/home/itssahil/PROJECTS/Mol_Feturizer/New_Systems/rnas/3DIM

>  <Rbt.Executable>
rbdock ($Id: //depot/dev/client3/rdock/2013.1/src/exe/rbdock.cxx#4 $)

>  <Rbt.Library>
libRbt.so (2013.1, Build901 2013/11/27)

>  <Rbt.Parameter_File>
/export/apps/rDock/src/rDock_2013.1_src/data/scripts/dock_solv.prm

>  <Rbt.Receptor>
prm/pocket_docking_3.prm

>  <SCORE>
-11.0216

>  <SCORE.INTER>
-8.17761

>  <SCORE.INTER.CONST>
1

>  <SCORE.INTER.POLAR>
0

>  <SCORE.INTER.ROT>
5

>  <SCORE.INTER.SOLV>
18.074

>  <SCORE.INTER.VDW>
-18.4097

>  <SCORE.INTER.norm>
-0.817761

>  <SCORE.INTRA>
-2.84398

>  <SCORE.INTRA.DIHEDRAL>
-4.03354

>  <SCORE.INTRA.DIHEDRAL.0>
5.8785

>  <SCORE.INTRA.POLAR>
0

>  <SCORE.INTRA.POLAR.0>
0

>  <SCORE.INTRA.REPUL>
0

>  <SCORE.INTRA.REPUL.0>
0

>  <SCORE.INTRA.SOLV>
-1.03454

>  <SCORE.INTRA.SOLV.lig_0>
-31.9559

>  <SCORE.INTRA.VDW>
-0.309937

>  <SCORE.INTRA.VDW.0>
-0.507645

>  <SCORE.INTRA.norm>
-0.284398

>  <SCORE.RESTR>
0

>  <SCORE.RESTR.CAVITY>
0

>  <SCORE.RESTR.norm>
0

>  <SCORE.SYSTEM>
0

>  <SCORE.SYSTEM.CONST>
0

>  <SCORE.SYSTEM.DIHEDRAL>
0

>  <SCORE.SYSTEM.SOLV>
0

>  <SCORE.SYSTEM.norm>
0

>  <SCORE.heavy>
10

>  <SCORE.norm>
-1.10216

>  <RMSD>
5.318

$$$$
ligand
 OpenBabel11021811473D
libRbt.so/2013.1/901 2013/11/27
 10  9  0  0  0  0  0  0  0  0999 V2000
   27.8928   14.7886   19.0180 N   0  0  0  0  0  0  0  0  0  0  0  0
   28.2509   14.6437   20.4537 C   0  0  2  0  0  0  0  0  0  0  0  0
   27.0265   14.8136   21.3536 C   0  0  0  0  0  0  0  0  0  0  0  0
   27.1428   14.8947   22.5724 O   0  0  0  0  0  0  0  0  0  0  0  0
   29.3782   15.6152   20.8216 C   0  0  0  0  0  0  0  0  0  0  0  0
   30.0385   15.2832   22.1558 C   0  0  0  0  0  0  0  0  0  0  0  0
   31.0126   16.3583   22.6170 C   0  0  0  0  0  0  0  0  0  0  0  0
   32.2165   16.4463   21.6783 C   0  0  0  0  0  0  0  0  0  0  0  0
   33.2137   17.5239   22.0471 N   0  0  0  0  0  0  0  0  0  0  0  0
   25.8857   14.9171   20.9176 O   0  0  0  0  0  0  0  0  0  0  0  0
  2  1  1  6  0  0  0
  2  3  1  0  0  0  0
  2  5  1  0  0  0  0
  3  4  1  0  0  0  0
  3 10  1  0  0  0  0
  5  6  1  0  0  0  0
  6  7  1  0  0  0  0
  7  8  1  0  0  0  0
  8  9  1  0  0  0  0
M  END
>  <CHROM.1>
-170.83570828,-165.18016444,-171.57051828,-66.14816380,178.26115857,29.16813033
15.52740648,21.38105723,-2.90427578,0.32868746,1.45303799

>  <Name>
ligand

>  <RI>
0

>  <Rbt.Current_Directory>
/home/itssahil/PROJECTS/Mol_Feturizer/New_Systems/rnas/3DIM

>  <Rbt.Executable>
rbdock ($Id: //depot/dev/client3/rdock/2013.1/src/exe/rbdock.cxx#4 $)

>  <Rbt.Library>
libRbt.so (2013.1, Build901 2013/11/27)

>  <Rbt.Parameter_File>
/export/apps/rDock/src/rDock_2013.1_src/data/scripts/dock_solv.prm

>  <Rbt.Receptor>
prm/pocket_docking_7.prm

>  <SCORE>
-11.2578

>  <SCORE.INTER>
-9.58036

>  <SCORE.INTER.CONST>
1

>  <SCORE.INTER.POLAR>
0

>  <SCORE.INTER.ROT>
5

>  <SCORE.INTER.SOLV>
13.7365

>  <SCORE.INTER.VDW>
-17.8991

>  <SCORE.INTER.norm>
-0.958036

>  <SCORE.INTRA>
-1.6774

>  <SCORE.INTRA.DIHEDRAL>
-3.0884

>  <SCORE.INTRA.DIHEDRAL.0>
5.8785

>  <SCORE.INTRA.POLAR>
0

>  <SCORE.INTRA.POLAR.0>
0

>  <SCORE.INTRA.REPUL>
0

>  <SCORE.INTRA.REPUL.0>
0

>  <SCORE.INTRA.SOLV>
-1.63872

>  <SCORE.INTRA.SOLV.lig_0>
-31.9559

>  <SCORE.INTRA.VDW>
0.686161

>  <SCORE.INTRA.VDW.0>
-0.507645

>  <SCORE.INTRA.norm>
-0.16774

>  <SCORE.RESTR>
0

>  <SCORE.RESTR.CAVITY>
0

>  <SCORE.RESTR.norm>
0

>  <SCORE.SYSTEM>
0

>  <SCORE.SYSTEM.CONST>
0

>  <SCORE.SYSTEM.DIHEDRAL>
0

>  <SCORE.SYSTEM.SOLV>
0

>  <SCORE.SYSTEM.norm>
0

>  <SCORE.heavy>
10

>  <SCORE.norm>
-1.12578

>  <RMSD>
5.320

$$$$
ligand
 OpenBabel11021811473D
libRbt.so/2013.1/901 2013/11/27
 10  9  0  0  0  0  0  0  0  0999 V2000
   25.8384   14.7526   20.9887 N   0  0  0  0  0  0  0  0  0  0  0  0
   27.1241   15.4385   20.6939 C   0  0  2  0  0  0  0  0  0  0  0  0
   27.6088   15.1297   19.2770 C   0  0  0  0  0  0  0  0  0  0  0  0
   27.2961   14.0849   18.7145 O   0  0  0  0  0  0  0  0  0  0  0  0
   28.1725   15.0825   21.7541 C   0  0  0  0  0  0  0  0  0  0  0  0
   29.4544   15.8982   21.6212 C   0  0  0  0  0  0  0  0  0  0  0  0
   30.4868   15.5547   22.6859 C   0  0  0  0  0  0  0  0  0  0  0  0
   31.7370   16.4225   22.5375 C   0  0  0  0  0  0  0  0  0  0  0  0
   32.4913   16.2082   21.2425 N   0  0  0  0  0  0  0  0  0  0  0  0
   28.2894   15.9080   18.6189 O   0  0  0  0  0  0  0  0  0  0  0  0
  2  1  1  1  0  0  0
  2  3  1  0  0  0  0
  2  5  1  0  0  0  0
  3  4  1  0  0  0  0
  3 10  1  0  0  0  0
  5  6  1  0  0  0  0
  6  7  1  0  0  0  0
  7  8  1  0  0  0  0
  8  9  1  0  0  0  0
M  END
>  <CHROM.1>
-27.03473233,-172.15647327,179.28298296,-178.41293560,-63.83511291,28.85029682
15.43997599,20.77613671,2.65968170,-0.25942776,-1.59288317

>  <Name>
ligand

>  <RI>
0

>  <Rbt.Current_Directory>
/home/itssahil/PROJECTS/Mol_Feturizer/New_Systems/rnas/3DIM

>  <Rbt.Executable>
rbdock ($Id: //depot/dev/client3/rdock/2013.1/src/exe/rbdock.cxx#4 $)

>  <Rbt.Library>
libRbt.so (2013.1, Build901 2013/11/27)

>  <Rbt.Parameter_File>
/export/apps/rDock/src/rDock_2013.1_src/data/scripts/dock_solv.prm

>  <Rbt.Receptor>
prm/pocket_docking_6.prm

>  <SCORE>
-10.8978

>  <SCORE.INTER>
-8.14492

>  <SCORE.INTER.CONST>
1

>  <SCORE.INTER.POLAR>
0

>  <SCORE.INTER.ROT>
5

>  <SCORE.INTER.SOLV>
18.1813

>  <SCORE.INTER.VDW>
-18.4237

>  <SCORE.INTER.norm>
-0.814492

>  <SCORE.INTRA>
-2.75286

>  <SCORE.INTRA.DIHEDRAL>
-4.00084

>  <SCORE.INTRA.DIHEDRAL.0>
5.8785

>  <SCORE.INTRA.POLAR>
0

>  <SCORE.INTRA.POLAR.0>
0

>  <SCORE.INTRA.REPUL>
0

>  <SCORE.INTRA.REPUL.0>
0

>  <SCORE.INTRA.SOLV>
-0.986221

>  <SCORE.INTRA.SOLV.lig_0>
-31.9559

>  <SCORE.INTRA.VDW>
-0.259332

>  <SCORE.INTRA.VDW.0>
-0.507645

>  <SCORE.INTRA.norm>
-0.275286

>  <SCORE.RESTR>
0

>  <SCORE.RESTR.CAVITY>
0

>  <SCORE.RESTR.norm>
0

>  <SCORE.SYSTEM>
0

>  <SCORE.SYSTEM.CONST>
0

>  <SCORE.SYSTEM.DIHEDRAL>
0

>  <SCORE.SYSTEM.SOLV>
0

>  <SCORE.SYSTEM.norm>
0

>  <SCORE.heavy>
10

>  <SCORE.norm>
-1.08978

>  <RMSD>
5.321

$$$$
ligand
 OpenBabel11021811473D
libRbt.so/2013.1/901 2013/11/27
 10  9  0  0  0  0  0  0  0  0999 V2000
   27.3017   14.3900   20.8377 N   0  0  0  0  0  0  0  0  0  0  0  0
   27.5005   15.3651   19.7331 C   0  0  2  0  0  0  0  0  0  0  0  0
   28.0839   14.6897   18.4916 C   0  0  0  0  0  0  0  0  0  0  0  0
   28.2741   15.3219   17.4573 O   0  0  0  0  0  0  0  0  0  0  0  0
   28.3607   16.5410   20.2098 C   0  0  0  0  0  0  0  0  0  0  0  0
   29.7089   16.1028   20.7726 C   0  0  0  0  0  0  0  0  0  0  0  0
   30.5752   17.2749   21.2120 C   0  0  0  0  0  0  0  0  0  0  0  0
   31.9233   16.7901   21.7466 C   0  0  0  0  0  0  0  0  0  0  0  0
   31.8271   15.9460   22.9996 N   0  0  0  0  0  0  0  0  0  0  0  0
   28.4261   13.5130   18.4693 O   0  0  0  0  0  0  0  0  0  0  0  0
  2  1  1  1  0  0  0
  2  3  1  0  0  0  0
  2  5  1  0  0  0  0
  3  4  1  0  0  0  0
  3 10  1  0  0  0  0
  5  6  1  0  0  0  0
  6  7  1  0  0  0  0
  7  8  1  0  0  0  0
  8  9  1  0  0  0  0
M  END
>  <CHROM.1>
177.32631643,56.23694743,178.52285944,-179.05357304,-63.97482115,29.20237643
15.57524337,20.15771964,2.49499705,-0.60324596,-1.44419491

>  <Name>
ligand

>  <RI>
0

>  <Rbt.Current_Directory>
/home/itssahil/PROJECTS/Mol_Feturizer/New_Systems/rnas/3DIM

>  <Rbt.Executable>
rbdock ($Id: //depot/dev/client3/rdock/2013.1/src/exe/rbdock.cxx#4 $)

>  <Rbt.Library>
libRbt.so (2013.1, Build901 2013/11/27)

>  <Rbt.Parameter_File>
/export/apps/rDock/src/rDock_2013.1_src/data/scripts/dock_solv.prm

>  <Rbt.Receptor>
prm/pocket_docking_5.prm

>  <SCORE>
-9.26733

>  <SCORE.INTER>
-7.0661

>  <SCORE.INTER.CONST>
1

>  <SCORE.INTER.POLAR>
0

>  <SCORE.INTER.ROT>
5

>  <SCORE.INTER.SOLV>
16.4139

>  <SCORE.INTER.VDW>
-17.1154

>  <SCORE.INTER.norm>
-0.70661

>  <SCORE.INTRA>
-2.20123

>  <SCORE.INTRA.DIHEDRAL>
-4.25525

>  <SCORE.INTRA.DIHEDRAL.0>
5.8785

>  <SCORE.INTRA.POLAR>
0

>  <SCORE.INTRA.POLAR.0>
0

>  <SCORE.INTRA.REPUL>
0

>  <SCORE.INTRA.REPUL.0>
0

>  <SCORE.INTRA.SOLV>
-0.0446817

>  <SCORE.INTRA.SOLV.lig_0>
-31.9559

>  <SCORE.INTRA.VDW>
-0.051266

>  <SCORE.INTRA.VDW.0>
-0.507645

>  <SCORE.INTRA.norm>
-0.220123

>  <SCORE.RESTR>
0

>  <SCORE.RESTR.CAVITY>
0

>  <SCORE.RESTR.norm>
0

>  <SCORE.SYSTEM>
0

>  <SCORE.SYSTEM.CONST>
0

>  <SCORE.SYSTEM.DIHEDRAL>
0

>  <SCORE.SYSTEM.SOLV>
0

>  <SCORE.SYSTEM.norm>
0

>  <SCORE.heavy>
10

>  <SCORE.norm>
-0.926733

>  <RMSD>
5.322

$$$$
ligand
 OpenBabel11021811473D
libRbt.so/2013.1/901 2013/11/27
 10  9  0  0  0  0  0  0  0  0999 V2000
   27.5949   16.5243   19.9506 N   0  0  0  0  0  0  0  0  0  0  0  0
   28.5156   15.4435   19.5097 C   0  0  2  0  0  0  0  0  0  0  0  0
   28.0675   14.8375   18.1794 C   0  0  0  0  0  0  0  0  0  0  0  0
   27.3654   13.8316   18.1463 O   0  0  0  0  0  0  0  0  0  0  0  0
   28.6580   14.3844   20.6088 C   0  0  0  0  0  0  0  0  0  0  0  0
   29.3760   14.9065   21.8492 C   0  0  0  0  0  0  0  0  0  0  0  0
   30.7373   15.5105   21.5339 C   0  0  0  0  0  0  0  0  0  0  0  0
   31.3194   16.2189   22.7577 C   0  0  0  0  0  0  0  0  0  0  0  0
   32.5377   17.0677   22.4626 N   0  0  0  0  0  0  0  0  0  0  0  0
   28.3432   15.3327   17.0927 O   0  0  0  0  0  0  0  0  0  0  0  0
  2  1  1  1  0  0  0
  2  3  1  0  0  0  0
  2  5  1  0  0  0  0
  3  4  1  0  0  0  0
  3 10  1  0  0  0  0
  5  6  1  0  0  0  0
  6  7  1  0  0  0  0
  7  8  1  0  0  0  0
  8  9  1  0  0  0  0
M  END
>  <CHROM.1>
-94.41176593,-67.24396646,-54.63123613,170.85649289,-168.89441404,29.23436362
15.39018789,20.17038094,-2.49844693,0.67171210,1.93147499

>  <Name>
ligand

>  <RI>
0

>  <Rbt.Current_Directory>
/home/itssahil/PROJECTS/Mol_Feturizer/New_Systems/rnas/3DIM

>  <Rbt.Executable>
rbdock ($Id: //depot/dev/client3/rdock/2013.1/src/exe/rbdock.cxx#4 $)

>  <Rbt.Library>
libRbt.so (2013.1, Build901 2013/11/27)

>  <Rbt.Parameter_File>
/export/apps/rDock/src/rDock_2013.1_src/data/scripts/dock_solv.prm

>  <Rbt.Receptor>
prm/pocket_docking_7.prm

>  <SCORE>
-8.56961

>  <SCORE.INTER>
-7.19711

>  <SCORE.INTER.CONST>
1

>  <SCORE.INTER.POLAR>
0

>  <SCORE.INTER.ROT>
5

>  <SCORE.INTER.SOLV>
16.0935

>  <SCORE.INTER.VDW>
-17.0959

>  <SCORE.INTER.norm>
-0.719711

>  <SCORE.INTRA>
-1.3725

>  <SCORE.INTRA.DIHEDRAL>
-3.31256

>  <SCORE.INTRA.DIHEDRAL.0>
5.8785

>  <SCORE.INTRA.POLAR>
0

>  <SCORE.INTRA.POLAR.0>
0

>  <SCORE.INTRA.REPUL>
0

>  <SCORE.INTRA.REPUL.0>
0

>  <SCORE.INTRA.SOLV>
-0.4102

>  <SCORE.INTRA.SOLV.lig_0>
-31.9559

>  <SCORE.INTRA.VDW>
0.488879

>  <SCORE.INTRA.VDW.0>
-0.507645

>  <SCORE.INTRA.norm>
-0.13725

>  <SCORE.RESTR>
0

>  <SCORE.RESTR.CAVITY>
0

>  <SCORE.RESTR.norm>
0

>  <SCORE.SYSTEM>
0

>  <SCORE.SYSTEM.CONST>
0

>  <SCORE.SYSTEM.DIHEDRAL>
0

>  <SCORE.SYSTEM.SOLV>
0

>  <SCORE.SYSTEM.norm>
0

>  <SCORE.heavy>
10

>  <SCORE.norm>
-0.856961

>  <RMSD>
5.322

$$$$
ligand
 OpenBabel11021811473D
libRbt.so/2013.1/901 2013/11/27
 10  9  0  0  0  0  0  0  0  0999 V2000
   28.3997   15.9751   19.3000 N   0  0  0  0  0  0  0  0  0  0  0  0
   28.4498   15.1767   20.5531 C   0  0  2  0  0  0  0  0  0  0  0  0
   27.0545   14.9860   21.1488 C   0  0  0  0  0  0  0  0  0  0  0  0
   26.0476   15.1371   20.4641 O   0  0  0  0  0  0  0  0  0  0  0  0
   29.4227   15.8141   21.5517 C   0  0  0  0  0  0  0  0  0  0  0  0
   30.8187   16.0213   20.9732 C   0  0  0  0  0  0  0  0  0  0  0  0
   31.8150   16.5353   22.0031 C   0  0  0  0  0  0  0  0  0  0  0  0
   33.1212   16.9660   21.3348 C   0  0  0  0  0  0  0  0  0  0  0  0
   33.7770   15.8866   20.5002 N   0  0  0  0  0  0  0  0  0  0  0  0
   26.8648   14.6391   22.3089 O   0  0  0  0  0  0  0  0  0  0  0  0
  2  1  1  6  0  0  0
  2  3  1  0  0  0  0
  2  5  1  0  0  0  0
  3  4  1  0  0  0  0
  3 10  1  0  0  0  0
  5  6  1  0  0  0  0
  6  7  1  0  0  0  0
  7  8  1  0  0  0  0
  8  9  1  0  0  0  0
M  END
>  <CHROM.1>
19.39631552,-54.83596253,-174.74832632,-169.77659817,-55.90957783,29.53350943
15.70482762,21.02589751,3.13577133,0.22242815,1.69453362

>  <Name>
ligand

>  <RI>
0

>  <Rbt.Current_Directory>
/home/itssahil/PROJECTS/Mol_Feturizer/New_Systems/rnas/3DIM

>  <Rbt.Executable>
rbdock ($Id: //depot/dev/client3/rdock/2013.1/src/exe/rbdock.cxx#4 $)

>  <Rbt.Library>
libRbt.so (2013.1, Build901 2013/11/27)

>  <Rbt.Parameter_File>
/export/apps/rDock/src/rDock_2013.1_src/data/scripts/dock_solv.prm

>  <Rbt.Receptor>
prm/pocket_docking_8.prm

>  <SCORE>
-9.72169

>  <SCORE.INTER>
-8.11228

>  <SCORE.INTER.CONST>
1

>  <SCORE.INTER.POLAR>
0

>  <SCORE.INTER.ROT>
5

>  <SCORE.INTER.SOLV>
15.5389

>  <SCORE.INTER.VDW>
-17.5212

>  <SCORE.INTER.norm>
-0.811228

>  <SCORE.INTRA>
-1.60942

>  <SCORE.INTRA.DIHEDRAL>
-3.74006

>  <SCORE.INTRA.DIHEDRAL.0>
5.8785

>  <SCORE.INTRA.POLAR>
0

>  <SCORE.INTRA.POLAR.0>
0

>  <SCORE.INTRA.REPUL>
0

>  <SCORE.INTRA.REPUL.0>
0

>  <SCORE.INTRA.SOLV>
0.0499183

>  <SCORE.INTRA.SOLV.lig_0>
-31.9559

>  <SCORE.INTRA.VDW>
0.235653

>  <SCORE.INTRA.VDW.0>
-0.507645

>  <SCORE.INTRA.norm>
-0.160942

>  <SCORE.RESTR>
0

>  <SCORE.RESTR.CAVITY>
0

>  <SCORE.RESTR.norm>
0

>  <SCORE.SYSTEM>
0

>  <SCORE.SYSTEM.CONST>
0

>  <SCORE.SYSTEM.DIHEDRAL>
0

>  <SCORE.SYSTEM.SOLV>
0

>  <SCORE.SYSTEM.norm>
0

>  <SCORE.heavy>
10

>  <SCORE.norm>
-0.972169

>  <RMSD>
5.325

$$$$
ligand
 OpenBabel11021811473D
libRbt.so/2013.1/901 2013/11/27
 10  9  0  0  0  0  0  0  0  0999 V2000
   27.9586   14.6405   19.0611 N   0  0  0  0  0  0  0  0  0  0  0  0
   28.2746   14.6040   20.5134 C   0  0  2  0  0  0  0  0  0  0  0  0
   27.0228   14.8288   21.3621 C   0  0  0  0  0  0  0  0  0  0  0  0
   25.9132   14.9102   20.8448 O   0  0  0  0  0  0  0  0  0  0  0  0
   29.3843   15.6093   20.8419 C   0  0  0  0  0  0  0  0  0  0  0  0
   29.9368   15.4456   22.2542 C   0  0  0  0  0  0  0  0  0  0  0  0
   30.9012   16.5571   22.6441 C   0  0  0  0  0  0  0  0  0  0  0  0
   32.1813   16.4897   21.8104 C   0  0  0  0  0  0  0  0  0  0  0  0
   33.1824   17.5821   22.1205 N   0  0  0  0  0  0  0  0  0  0  0  0
   27.0485   14.8990   22.5855 O   0  0  0  0  0  0  0  0  0  0  0  0
  2  1  1  6  0  0  0
  2  3  1  0  0  0  0
  2  5  1  0  0  0  0
  3  4  1  0  0  0  0
  3 10  1  0  0  0  0
  5  6  1  0  0  0  0
  6  7  1  0  0  0  0
  7  8  1  0  0  0  0
  8  9  1  0  0  0  0
M  END
>  <CHROM.1>
5.51460878,-169.35903583,-172.26493450,-67.01073506,178.83887710,29.14179642
15.55542336,21.41968097,-2.86112262,0.33117128,1.37554623

>  <Name>
ligand

>  <RI>
0

>  <Rbt.Current_Directory>
/home/itssahil/PROJECTS/Mol_Feturizer/New_Systems/rnas/3DIM

>  <Rbt.Executable>
rbdock ($Id: //depot/dev/client3/rdock/2013.1/src/exe/rbdock.cxx#4 $)

>  <Rbt.Library>
libRbt.so (2013.1, Build901 2013/11/27)

>  <Rbt.Parameter_File>
/export/apps/rDock/src/rDock_2013.1_src/data/scripts/dock_solv.prm

>  <Rbt.Receptor>
prm/pocket_docking_3.prm

>  <SCORE>
-11.2946

>  <SCORE.INTER>
-9.34161

>  <SCORE.INTER.CONST>
1

>  <SCORE.INTER.POLAR>
0

>  <SCORE.INTER.ROT>
5

>  <SCORE.INTER.SOLV>
13.5286

>  <SCORE.INTER.VDW>
-17.6706

>  <SCORE.INTER.norm>
-0.934161

>  <SCORE.INTRA>
-1.95299

>  <SCORE.INTRA.DIHEDRAL>
-3.52108

>  <SCORE.INTRA.DIHEDRAL.0>
5.8785

>  <SCORE.INTRA.POLAR>
0

>  <SCORE.INTRA.POLAR.0>
0

>  <SCORE.INTRA.REPUL>
0

>  <SCORE.INTRA.REPUL.0>
0

>  <SCORE.INTRA.SOLV>
-1.64056

>  <SCORE.INTRA.SOLV.lig_0>
-31.9559

>  <SCORE.INTRA.VDW>
0.627832

>  <SCORE.INTRA.VDW.0>
-0.507645

>  <SCORE.INTRA.norm>
-0.195299

>  <SCORE.RESTR>
0

>  <SCORE.RESTR.CAVITY>
0

>  <SCORE.RESTR.norm>
0

>  <SCORE.SYSTEM>
0

>  <SCORE.SYSTEM.CONST>
0

>  <SCORE.SYSTEM.DIHEDRAL>
0

>  <SCORE.SYSTEM.SOLV>
0

>  <SCORE.SYSTEM.norm>
0

>  <SCORE.heavy>
10

>  <SCORE.norm>
-1.12946

>  <RMSD>
5.328

$$$$
ligand
 OpenBabel11021811473D
libRbt.so/2013.1/901 2013/11/27
 10  9  0  0  0  0  0  0  0  0999 V2000
   25.8502   14.8637   20.8908 N   0  0  0  0  0  0  0  0  0  0  0  0
   27.1848   15.4306   20.5623 C   0  0  2  0  0  0  0  0  0  0  0  0
   27.6507   14.9913   19.1739 C   0  0  0  0  0  0  0  0  0  0  0  0
   28.2794   15.7535   18.4463 O   0  0  0  0  0  0  0  0  0  0  0  0
   28.1993   15.0704   21.6536 C   0  0  0  0  0  0  0  0  0  0  0  0
   29.4950   15.8682   21.5486 C   0  0  0  0  0  0  0  0  0  0  0  0
   30.4966   15.5152   22.6394 C   0  0  0  0  0  0  0  0  0  0  0  0
   31.7472   16.3893   22.5390 C   0  0  0  0  0  0  0  0  0  0  0  0
   32.5020   16.2456   21.2346 N   0  0  0  0  0  0  0  0  0  0  0  0
   27.4631   13.8637   18.7316 O   0  0  0  0  0  0  0  0  0  0  0  0
  2  1  1  1  0  0  0
  2  3  1  0  0  0  0
  2  5  1  0  0  0  0
  3  4  1  0  0  0  0
  3 10  1  0  0  0  0
  5  6  1  0  0  0  0
  6  7  1  0  0  0  0
  7  8  1  0  0  0  0
  8  9  1  0  0  0  0
M  END
>  <CHROM.1>
143.32503475,-167.12540873,179.59659406,-177.01474717,-60.88209534,28.88816920
15.38819953,20.70541881,2.62491417,-0.24279792,-1.65022914

>  <Name>
ligand

>  <RI>
0

>  <Rbt.Current_Directory>
/home/itssahil/PROJECTS/Mol_Feturizer/New_Systems/rnas/3DIM

>  <Rbt.Executable>
rbdock ($Id: //depot/dev/client3/rdock/2013.1/src/exe/rbdock.cxx#4 $)

>  <Rbt.Library>
libRbt.so (2013.1, Build901 2013/11/27)

>  <Rbt.Parameter_File>
/export/apps/rDock/src/rDock_2013.1_src/data/scripts/dock_solv.prm

>  <Rbt.Receptor>
prm/pocket_docking_4.prm

>  <SCORE>
-10.9928

>  <SCORE.INTER>
-8.23704

>  <SCORE.INTER.CONST>
1

>  <SCORE.INTER.POLAR>
0

>  <SCORE.INTER.ROT>
5

>  <SCORE.INTER.SOLV>
17.9118

>  <SCORE.INTER.VDW>
-18.3953

>  <SCORE.INTER.norm>
-0.823704

>  <SCORE.INTRA>
-2.75579

>  <SCORE.INTRA.DIHEDRAL>
-3.80571

>  <SCORE.INTRA.DIHEDRAL.0>
5.8785

>  <SCORE.INTRA.POLAR>
0

>  <SCORE.INTRA.POLAR.0>
0

>  <SCORE.INTRA.REPUL>
0

>  <SCORE.INTRA.REPUL.0>
0

>  <SCORE.INTRA.SOLV>
-0.972955

>  <SCORE.INTRA.SOLV.lig_0>
-31.9559

>  <SCORE.INTRA.VDW>
-0.366455

>  <SCORE.INTRA.VDW.0>
-0.507645

>  <SCORE.INTRA.norm>
-0.275579

>  <SCORE.RESTR>
0

>  <SCORE.RESTR.CAVITY>
0

>  <SCORE.RESTR.norm>
0

>  <SCORE.SYSTEM>
0

>  <SCORE.SYSTEM.CONST>
0

>  <SCORE.SYSTEM.DIHEDRAL>
0

>  <SCORE.SYSTEM.SOLV>
0

>  <SCORE.SYSTEM.norm>
0

>  <SCORE.heavy>
10

>  <SCORE.norm>
-1.09928

>  <RMSD>
5.328

$$$$
ligand
 OpenBabel11021811473D
libRbt.so/2013.1/901 2013/11/27
 10  9  0  0  0  0  0  0  0  0999 V2000
   28.0271   14.5982   19.0337 N   0  0  0  0  0  0  0  0  0  0  0  0
   28.2921   14.5828   20.4965 C   0  0  2  0  0  0  0  0  0  0  0  0
   27.0078   14.7979   21.2980 C   0  0  0  0  0  0  0  0  0  0  0  0
   27.0250   14.8317   22.5245 O   0  0  0  0  0  0  0  0  0  0  0  0
   29.3743   15.6085   20.8522 C   0  0  0  0  0  0  0  0  0  0  0  0
   29.9263   15.4268   22.2624 C   0  0  0  0  0  0  0  0  0  0  0  0
   30.8943   16.5307   22.6651 C   0  0  0  0  0  0  0  0  0  0  0  0
   32.1615   16.4870   21.8104 C   0  0  0  0  0  0  0  0  0  0  0  0
   33.1709   17.5656   22.1414 N   0  0  0  0  0  0  0  0  0  0  0  0
   25.9161   14.9856   20.7735 O   0  0  0  0  0  0  0  0  0  0  0  0
  2  1  1  6  0  0  0
  2  3  1  0  0  0  0
  2  5  1  0  0  0  0
  3  4  1  0  0  0  0
  3 10  1  0  0  0  0
  5  6  1  0  0  0  0
  6  7  1  0  0  0  0
  7  8  1  0  0  0  0
  8  9  1  0  0  0  0
M  END
>  <CHROM.1>
-179.21148357,-166.61263769,-174.06270962,-65.80400913,179.40298333,29.14077326
15.54111534,21.40094660,-2.84994392,0.32767423,1.37314743

>  <Name>
ligand

>  <RI>
0

>  <Rbt.Current_Directory>
/home/itssahil/PROJECTS/Mol_Feturizer/New_Systems/rnas/3DIM

>  <Rbt.Executable>
rbdock ($Id: //depot/dev/client3/rdock/2013.1/src/exe/rbdock.cxx#4 $)

>  <Rbt.Library>
libRbt.so (2013.1, Build901 2013/11/27)

>  <Rbt.Parameter_File>
/export/apps/rDock/src/rDock_2013.1_src/data/scripts/dock_solv.prm

>  <Rbt.Receptor>
prm/pocket_docking_6.prm

>  <SCORE>
-11.2506

>  <SCORE.INTER>
-9.30983

>  <SCORE.INTER.CONST>
1

>  <SCORE.INTER.POLAR>
0

>  <SCORE.INTER.ROT>
5

>  <SCORE.INTER.SOLV>
13.4642

>  <SCORE.INTER.VDW>
-17.6279

>  <SCORE.INTER.norm>
-0.930983

>  <SCORE.INTRA>
-1.94082

>  <SCORE.INTRA.DIHEDRAL>
-3.44014

>  <SCORE.INTRA.DIHEDRAL.0>
5.8785

>  <SCORE.INTRA.POLAR>
0

>  <SCORE.INTRA.POLAR.0>
0

>  <SCORE.INTRA.REPUL>
0

>  <SCORE.INTRA.REPUL.0>
0

>  <SCORE.INTRA.SOLV>
-1.64598

>  <SCORE.INTRA.SOLV.lig_0>
-31.9559

>  <SCORE.INTRA.VDW>
0.602242

>  <SCORE.INTRA.VDW.0>
-0.507645

>  <SCORE.INTRA.norm>
-0.194082

>  <SCORE.RESTR>
0

>  <SCORE.RESTR.CAVITY>
0

>  <SCORE.RESTR.norm>
0

>  <SCORE.SYSTEM>
0

>  <SCORE.SYSTEM.CONST>
0

>  <SCORE.SYSTEM.DIHEDRAL>
0

>  <SCORE.SYSTEM.SOLV>
0

>  <SCORE.SYSTEM.norm>
0

>  <SCORE.heavy>
10

>  <SCORE.norm>
-1.12506

>  <RMSD>
5.328

$$$$
ligand
 OpenBabel11021811473D
libRbt.so/2013.1/901 2013/11/27
 10  9  0  0  0  0  0  0  0  0999 V2000
   28.0527   14.5184   18.9323 N   0  0  0  0  0  0  0  0  0  0  0  0
   28.2885   14.5775   20.3990 C   0  0  2  0  0  0  0  0  0  0  0  0
   26.9877   14.8262   21.1632 C   0  0  0  0  0  0  0  0  0  0  0  0
   26.9477   14.7490   22.3872 O   0  0  0  0  0  0  0  0  0  0  0  0
   29.3594   15.6250   20.7240 C   0  0  0  0  0  0  0  0  0  0  0  0
   29.8088   15.5847   22.1811 C   0  0  0  0  0  0  0  0  0  0  0  0
   30.7889   16.6966   22.5283 C   0  0  0  0  0  0  0  0  0  0  0  0
   32.1180   16.5039   21.7970 C   0  0  0  0  0  0  0  0  0  0  0  0
   33.1522   17.5676   22.0981 N   0  0  0  0  0  0  0  0  0  0  0  0
   25.9411   15.1498   20.6137 O   0  0  0  0  0  0  0  0  0  0  0  0
  2  1  1  6  0  0  0
  2  3  1  0  0  0  0
  2  5  1  0  0  0  0
  3  4  1  0  0  0  0
  3 10  1  0  0  0  0
  5  6  1  0  0  0  0
  6  7  1  0  0  0  0
  7  8  1  0  0  0  0
  8  9  1  0  0  0  0
M  END
>  <CHROM.1>
171.21315127,-170.90616683,-175.40057074,-66.96364240,-179.61267926,29.10553434
15.58002009,21.29673173,-2.82157607,0.31974631,1.32831775

>  <Name>
ligand

>  <RI>
0

>  <Rbt.Current_Directory>
/home/itssahil/PROJECTS/Mol_Feturizer/New_Systems/rnas/3DIM

>  <Rbt.Executable>
rbdock ($Id: //depot/dev/client3/rdock/2013.1/src/exe/rbdock.cxx#4 $)

>  <Rbt.Library>
libRbt.so (2013.1, Build901 2013/11/27)

>  <Rbt.Parameter_File>
/export/apps/rDock/src/rDock_2013.1_src/data/scripts/dock_solv.prm

>  <Rbt.Receptor>
prm/pocket_docking_5.prm

>  <SCORE>
-11.2815

>  <SCORE.INTER>
-9.0486

>  <SCORE.INTER.CONST>
1

>  <SCORE.INTER.POLAR>
0

>  <SCORE.INTER.ROT>
5

>  <SCORE.INTER.SOLV>
13.5324

>  <SCORE.INTER.VDW>
-17.4765

>  <SCORE.INTER.norm>
-0.90486

>  <SCORE.INTRA>
-2.23287

>  <SCORE.INTRA.DIHEDRAL>
-3.82714

>  <SCORE.INTRA.DIHEDRAL.0>
5.8785

>  <SCORE.INTRA.POLAR>
0

>  <SCORE.INTRA.POLAR.0>
0

>  <SCORE.INTRA.REPUL>
0

>  <SCORE.INTRA.REPUL.0>
0

>  <SCORE.INTRA.SOLV>
-1.66719

>  <SCORE.INTRA.SOLV.lig_0>
-31.9559

>  <SCORE.INTRA.VDW>
0.514289

>  <SCORE.INTRA.VDW.0>
-0.507645

>  <SCORE.INTRA.norm>
-0.223287

>  <SCORE.RESTR>
0

>  <SCORE.RESTR.CAVITY>
0

>  <SCORE.RESTR.norm>
0

>  <SCORE.SYSTEM>
0

>  <SCORE.SYSTEM.CONST>
0

>  <SCORE.SYSTEM.DIHEDRAL>
0

>  <SCORE.SYSTEM.SOLV>
0

>  <SCORE.SYSTEM.norm>
0

>  <SCORE.heavy>
10

>  <SCORE.norm>
-1.12815

>  <RMSD>
5.329

$$$$
ligand
 OpenBabel11021811473D
libRbt.so/2013.1/901 2013/11/27
 10  9  0  0  0  0  0  0  0  0999 V2000
   27.4355   13.7247   19.0045 N   0  0  0  0  0  0  0  0  0  0  0  0
   27.9550   14.6299   20.0633 C   0  0  2  0  0  0  0  0  0  0  0  0
   26.9633   14.7624   21.2195 C   0  0  0  0  0  0  0  0  0  0  0  0
   27.3523   14.8683   22.3784 O   0  0  0  0  0  0  0  0  0  0  0  0
   28.3294   15.9902   19.4639 C   0  0  0  0  0  0  0  0  0  0  0  0
   28.9666   16.9332   20.4794 C   0  0  0  0  0  0  0  0  0  0  0  0
   30.3560   16.4854   20.9113 C   0  0  0  0  0  0  0  0  0  0  0  0
   30.9424   17.4426   21.9496 C   0  0  0  0  0  0  0  0  0  0  0  0
   32.3456   17.0910   22.3957 N   0  0  0  0  0  0  0  0  0  0  0  0
   25.7495   14.8103   21.0567 O   0  0  0  0  0  0  0  0  0  0  0  0
  2  1  1  6  0  0  0
  2  3  1  0  0  0  0
  2  5  1  0  0  0  0
  3  4  1  0  0  0  0
  3 10  1  0  0  0  0
  5  6  1  0  0  0  0
  6  7  1  0  0  0  0
  7  8  1  0  0  0  0
  8  9  1  0  0  0  0
M  END
>  <CHROM.1>
144.31274423,-175.75048870,69.24886046,-178.80096680,-178.01394711,28.60965021
15.67101172,20.91660155,-2.81183094,0.47479103,1.39546486

>  <Name>
ligand

>  <RI>
0

>  <Rbt.Current_Directory>
/home/itssahil/PROJECTS/Mol_Feturizer/New_Systems/rnas/3DIM

>  <Rbt.Executable>
rbdock ($Id: //depot/dev/client3/rdock/2013.1/src/exe/rbdock.cxx#4 $)

>  <Rbt.Library>
libRbt.so (2013.1, Build901 2013/11/27)

>  <Rbt.Parameter_File>
/export/apps/rDock/src/rDock_2013.1_src/data/scripts/dock_solv.prm

>  <Rbt.Receptor>
prm/pocket_docking_3.prm

>  <SCORE>
-12.1316

>  <SCORE.INTER>
-9.00916

>  <SCORE.INTER.CONST>
1

>  <SCORE.INTER.POLAR>
0

>  <SCORE.INTER.ROT>
5

>  <SCORE.INTER.SOLV>
15.358

>  <SCORE.INTER.VDW>
-18.0588

>  <SCORE.INTER.norm>
-0.900916

>  <SCORE.INTRA>
-3.12241

>  <SCORE.INTRA.DIHEDRAL>
-4.01542

>  <SCORE.INTRA.DIHEDRAL.0>
5.8785

>  <SCORE.INTRA.POLAR>
0

>  <SCORE.INTRA.POLAR.0>
0

>  <SCORE.INTRA.REPUL>
0

>  <SCORE.INTRA.REPUL.0>
0

>  <SCORE.INTRA.SOLV>
-1.66213

>  <SCORE.INTRA.SOLV.lig_0>
-31.9559

>  <SCORE.INTRA.VDW>
-0.283637

>  <SCORE.INTRA.VDW.0>
-0.507645

>  <SCORE.INTRA.norm>
-0.312241

>  <SCORE.RESTR>
0

>  <SCORE.RESTR.CAVITY>
0

>  <SCORE.RESTR.norm>
0

>  <SCORE.SYSTEM>
0

>  <SCORE.SYSTEM.CONST>
0

>  <SCORE.SYSTEM.DIHEDRAL>
0

>  <SCORE.SYSTEM.SOLV>
0

>  <SCORE.SYSTEM.norm>
0

>  <SCORE.heavy>
10

>  <SCORE.norm>
-1.21316

>  <RMSD>
5.330

$$$$
ligand
 OpenBabel11021811473D
libRbt.so/2013.1/901 2013/11/27
 10  9  0  0  0  0  0  0  0  0999 V2000
   25.8106   14.8856   20.8483 N   0  0  0  0  0  0  0  0  0  0  0  0
   27.1555   15.4371   20.5360 C   0  0  2  0  0  0  0  0  0  0  0  0
   27.6513   14.9581   19.1713 C   0  0  0  0  0  0  0  0  0  0  0  0
   28.3226   15.6887   18.4493 O   0  0  0  0  0  0  0  0  0  0  0  0
   28.1423   15.1017   21.6601 C   0  0  0  0  0  0  0  0  0  0  0  0
   29.4593   15.8622   21.5427 C   0  0  0  0  0  0  0  0  0  0  0  0
   30.4560   15.4898   22.6314 C   0  0  0  0  0  0  0  0  0  0  0  0
   31.7076   16.3647   22.5514 C   0  0  0  0  0  0  0  0  0  0  0  0
   32.4814   16.2243   21.2578 N   0  0  0  0  0  0  0  0  0  0  0  0
   27.4465   13.8274   18.7449 O   0  0  0  0  0  0  0  0  0  0  0  0
  2  1  1  1  0  0  0
  2  3  1  0  0  0  0
  2  5  1  0  0  0  0
  3  4  1  0  0  0  0
  3 10  1  0  0  0  0
  5  6  1  0  0  0  0
  6  7  1  0  0  0  0
  7  8  1  0  0  0  0
  8  9  1  0  0  0  0
M  END
>  <CHROM.1>
144.72728408,-168.69269690,-177.92684366,-174.82577906,-61.92385061,28.86536267
15.37211583,20.70319976,2.61729269,-0.22956314,-1.67489766

>  <Name>
ligand

>  <RI>
0

>  <Rbt.Current_Directory>
/home/itssahil/PROJECTS/Mol_Feturizer/New_Systems/rnas/3DIM

>  <Rbt.Executable>
rbdock ($Id: //depot/dev/client3/rdock/2013.1/src/exe/rbdock.cxx#4 $)

>  <Rbt.Library>
libRbt.so (2013.1, Build901 2013/11/27)

>  <Rbt.Parameter_File>
/export/apps/rDock/src/rDock_2013.1_src/data/scripts/dock_solv.prm

>  <Rbt.Receptor>
prm/pocket_docking_8.prm

>  <SCORE>
-11.0896

>  <SCORE.INTER>
-8.31715

>  <SCORE.INTER.CONST>
1

>  <SCORE.INTER.POLAR>
0

>  <SCORE.INTER.ROT>
5

>  <SCORE.INTER.SOLV>
17.9212

>  <SCORE.INTER.VDW>
-18.4518

>  <SCORE.INTER.norm>
-0.831715

>  <SCORE.INTRA>
-2.77243

>  <SCORE.INTRA.DIHEDRAL>
-3.84199

>  <SCORE.INTRA.DIHEDRAL.0>
5.8785

>  <SCORE.INTRA.POLAR>
0

>  <SCORE.INTRA.POLAR.0>
0

>  <SCORE.INTRA.REPUL>
0

>  <SCORE.INTRA.REPUL.0>
0

>  <SCORE.INTRA.SOLV>
-0.999058

>  <SCORE.INTRA.SOLV.lig_0>
-31.9559

>  <SCORE.INTRA.VDW>
-0.351908

>  <SCORE.INTRA.VDW.0>
-0.507645

>  <SCORE.INTRA.norm>
-0.277243

>  <SCORE.RESTR>
0

>  <SCORE.RESTR.CAVITY>
0

>  <SCORE.RESTR.norm>
0

>  <SCORE.SYSTEM>
0

>  <SCORE.SYSTEM.CONST>
0

>  <SCORE.SYSTEM.DIHEDRAL>
0

>  <SCORE.SYSTEM.SOLV>
0

>  <SCORE.SYSTEM.norm>
0

>  <SCORE.heavy>
10

>  <SCORE.norm>
-1.10896

>  <RMSD>
5.330

$$$$
ligand
 OpenBabel11021811473D
libRbt.so/2013.1/901 2013/11/27
 10  9  0  0  0  0  0  0  0  0999 V2000
   28.9287   14.2541   20.0849 N   0  0  0  0  0  0  0  0  0  0  0  0
   28.2691   15.2306   20.9913 C   0  0  2  0  0  0  0  0  0  0  0  0
   26.7553   15.0190   21.0323 C   0  0  0  0  0  0  0  0  0  0  0  0
   26.0295   15.4652   20.1493 O   0  0  0  0  0  0  0  0  0  0  0  0
   28.6421   16.6630   20.5925 C   0  0  0  0  0  0  0  0  0  0  0  0
   30.1380   16.9406   20.7005 C   0  0  0  0  0  0  0  0  0  0  0  0
   30.6540   16.8519   22.1300 C   0  0  0  0  0  0  0  0  0  0  0  0
   32.1402   17.2049   22.1992 C   0  0  0  0  0  0  0  0  0  0  0  0
   33.0262   16.3329   21.3353 N   0  0  0  0  0  0  0  0  0  0  0  0
   26.1945   14.3711   21.9086 O   0  0  0  0  0  0  0  0  0  0  0  0
  2  1  1  6  0  0  0
  2  3  1  0  0  0  0
  2  5  1  0  0  0  0
  3  4  1  0  0  0  0
  3 10  1  0  0  0  0
  5  6  1  0  0  0  0
  6  7  1  0  0  0  0
  7  8  1  0  0  0  0
  8  9  1  0  0  0  0
M  END
>  <CHROM.1>
-80.93721842,-61.81415558,-64.30573387,-177.18535000,-58.02000234,29.03326194
15.82383728,21.11218282,-2.78354555,-0.00732746,0.35771642

>  <Name>
ligand

>  <RI>
0

>  <Rbt.Current_Directory>
/home/itssahil/PROJECTS/Mol_Feturizer/New_Systems/rnas/3DIM

>  <Rbt.Executable>
rbdock ($Id: //depot/dev/client3/rdock/2013.1/src/exe/rbdock.cxx#4 $)

>  <Rbt.Library>
libRbt.so (2013.1, Build901 2013/11/27)

>  <Rbt.Parameter_File>
/export/apps/rDock/src/rDock_2013.1_src/data/scripts/dock_solv.prm

>  <Rbt.Receptor>
prm/pocket_docking_5.prm

>  <SCORE>
-9.55249

>  <SCORE.INTER>
-7.86796

>  <SCORE.INTER.CONST>
1

>  <SCORE.INTER.POLAR>
0

>  <SCORE.INTER.ROT>
5

>  <SCORE.INTER.SOLV>
13.4698

>  <SCORE.INTER.VDW>
-16.6686

>  <SCORE.INTER.norm>
-0.786796

>  <SCORE.INTRA>
-1.68453

>  <SCORE.INTRA.DIHEDRAL>
-4.30702

>  <SCORE.INTRA.DIHEDRAL.0>
5.8785

>  <SCORE.INTRA.POLAR>
0

>  <SCORE.INTRA.POLAR.0>
0

>  <SCORE.INTRA.REPUL>
0

>  <SCORE.INTRA.REPUL.0>
0

>  <SCORE.INTRA.SOLV>
0.490191

>  <SCORE.INTRA.SOLV.lig_0>
-31.9559

>  <SCORE.INTRA.VDW>
0.223884

>  <SCORE.INTRA.VDW.0>
-0.507645

>  <SCORE.INTRA.norm>
-0.168453

>  <SCORE.RESTR>
0

>  <SCORE.RESTR.CAVITY>
0

>  <SCORE.RESTR.norm>
0

>  <SCORE.SYSTEM>
0

>  <SCORE.SYSTEM.CONST>
0

>  <SCORE.SYSTEM.DIHEDRAL>
0

>  <SCORE.SYSTEM.SOLV>
0

>  <SCORE.SYSTEM.norm>
0

>  <SCORE.heavy>
10

>  <SCORE.norm>
-0.955249

>  <RMSD>
5.332

$$$$
ligand
 OpenBabel11021811473D
libRbt.so/2013.1/901 2013/11/27
 10  9  0  0  0  0  0  0  0  0999 V2000
   27.3551   13.7824   19.0279 N   0  0  0  0  0  0  0  0  0  0  0  0
   27.9212   14.6608   20.0854 C   0  0  2  0  0  0  0  0  0  0  0  0
   26.9646   14.7940   21.2707 C   0  0  0  0  0  0  0  0  0  0  0  0
   25.7486   14.7592   21.1101 O   0  0  0  0  0  0  0  0  0  0  0  0
   28.3052   16.0230   19.4964 C   0  0  0  0  0  0  0  0  0  0  0  0
   29.0066   16.9302   20.5022 C   0  0  0  0  0  0  0  0  0  0  0  0
   30.3904   16.4264   20.8881 C   0  0  0  0  0  0  0  0  0  0  0  0
   31.0516   17.3620   21.9008 C   0  0  0  0  0  0  0  0  0  0  0  0
   32.4605   16.9641   22.2859 N   0  0  0  0  0  0  0  0  0  0  0  0
   27.3476   14.9004   22.4301 O   0  0  0  0  0  0  0  0  0  0  0  0
  2  1  1  6  0  0  0
  2  3  1  0  0  0  0
  2  5  1  0  0  0  0
  3  4  1  0  0  0  0
  3 10  1  0  0  0  0
  5  6  1  0  0  0  0
  6  7  1  0  0  0  0
  7  8  1  0  0  0  0
  8  9  1  0  0  0  0
M  END
>  <CHROM.1>
-32.13627785,-174.91678812,68.18649160,-179.74630322,-177.23943176,28.62527082
15.65660833,20.92469398,-2.85800391,0.45915048,1.43254215

>  <Name>
ligand

>  <RI>
0

>  <Rbt.Current_Directory>
/home/itssahil/PROJECTS/Mol_Feturizer/New_Systems/rnas/3DIM

>  <Rbt.Executable>
rbdock ($Id: //depot/dev/client3/rdock/2013.1/src/exe/rbdock.cxx#4 $)

>  <Rbt.Library>
libRbt.so (2013.1, Build901 2013/11/27)

>  <Rbt.Parameter_File>
/export/apps/rDock/src/rDock_2013.1_src/data/scripts/dock_solv.prm

>  <Rbt.Receptor>
prm/pocket_docking_4.prm

>  <SCORE>
-12.0886

>  <SCORE.INTER>
-9.07773

>  <SCORE.INTER.CONST>
1

>  <SCORE.INTER.POLAR>
0

>  <SCORE.INTER.ROT>
5

>  <SCORE.INTER.SOLV>
15.619

>  <SCORE.INTER.VDW>
-18.1915

>  <SCORE.INTER.norm>
-0.907773

>  <SCORE.INTRA>
-3.01088

>  <SCORE.INTRA.DIHEDRAL>
-3.89646

>  <SCORE.INTRA.DIHEDRAL.0>
5.8785

>  <SCORE.INTRA.POLAR>
0

>  <SCORE.INTRA.POLAR.0>
0

>  <SCORE.INTRA.REPUL>
0

>  <SCORE.INTRA.REPUL.0>
0

>  <SCORE.INTRA.SOLV>
-1.62422

>  <SCORE.INTRA.SOLV.lig_0>
-31.9559

>  <SCORE.INTRA.VDW>
-0.250542

>  <SCORE.INTRA.VDW.0>
-0.507645

>  <SCORE.INTRA.norm>
-0.301088

>  <SCORE.RESTR>
0

>  <SCORE.RESTR.CAVITY>
0

>  <SCORE.RESTR.norm>
0

>  <SCORE.SYSTEM>
0

>  <SCORE.SYSTEM.CONST>
0

>  <SCORE.SYSTEM.DIHEDRAL>
0

>  <SCORE.SYSTEM.SOLV>
0

>  <SCORE.SYSTEM.norm>
0

>  <SCORE.heavy>
10

>  <SCORE.norm>
-1.20886

>  <RMSD>
5.333

$$$$
ligand
 OpenBabel11021811473D
libRbt.so/2013.1/901 2013/11/27
 10  9  0  0  0  0  0  0  0  0999 V2000
   28.2417   14.5619   19.1403 N   0  0  0  0  0  0  0  0  0  0  0  0
   28.4803   14.6344   20.6059 C   0  0  2  0  0  0  0  0  0  0  0  0
   27.1787   14.8751   21.3714 C   0  0  0  0  0  0  0  0  0  0  0  0
   26.0988   14.9074   20.7898 O   0  0  0  0  0  0  0  0  0  0  0  0
   29.5408   15.6957   20.9206 C   0  0  0  0  0  0  0  0  0  0  0  0
   30.9401   15.2915   20.4676 C   0  0  0  0  0  0  0  0  0  0  0  0
   31.9691   16.3948   20.6715 C   0  0  0  0  0  0  0  0  0  0  0  0
   32.2095   16.6518   22.1596 C   0  0  0  0  0  0  0  0  0  0  0  0
   33.2329   17.7300   22.4460 N   0  0  0  0  0  0  0  0  0  0  0  0
   27.1340   15.0066   22.5892 O   0  0  0  0  0  0  0  0  0  0  0  0
  2  1  1  6  0  0  0
  2  3  1  0  0  0  0
  2  5  1  0  0  0  0
  3  4  1  0  0  0  0
  3 10  1  0  0  0  0
  5  6  1  0  0  0  0
  6  7  1  0  0  0  0
  7  8  1  0  0  0  0
  8  9  1  0  0  0  0
M  END
>  <CHROM.1>
4.25326140,-70.09502592,175.02882306,67.55734269,179.46279146,29.46204556
15.57418781,21.13231346,-2.89248306,0.29816512,1.20579989

>  <Name>
ligand

>  <RI>
0

>  <Rbt.Current_Directory>
/home/itssahil/PROJECTS/Mol_Feturizer/New_Systems/rnas/3DIM

>  <Rbt.Executable>
rbdock ($Id: //depot/dev/client3/rdock/2013.1/src/exe/rbdock.cxx#4 $)

>  <Rbt.Library>
libRbt.so (2013.1, Build901 2013/11/27)

>  <Rbt.Parameter_File>
/export/apps/rDock/src/rDock_2013.1_src/data/scripts/dock_solv.prm

>  <Rbt.Receptor>
prm/pocket_docking_5.prm

>  <SCORE>
-10.7934

>  <SCORE.INTER>
-8.94104

>  <SCORE.INTER.CONST>
1

>  <SCORE.INTER.POLAR>
0

>  <SCORE.INTER.ROT>
5

>  <SCORE.INTER.SOLV>
13.0449

>  <SCORE.INTER.VDW>
-17.2423

>  <SCORE.INTER.norm>
-0.894104

>  <SCORE.INTRA>
-1.85235

>  <SCORE.INTRA.DIHEDRAL>
-3.62786

>  <SCORE.INTRA.DIHEDRAL.0>
5.8785

>  <SCORE.INTRA.POLAR>
0

>  <SCORE.INTRA.POLAR.0>
0

>  <SCORE.INTRA.REPUL>
0

>  <SCORE.INTRA.REPUL.0>
0

>  <SCORE.INTRA.SOLV>
-0.844917

>  <SCORE.INTRA.SOLV.lig_0>
-31.9559

>  <SCORE.INTRA.VDW>
0.384037

>  <SCORE.INTRA.VDW.0>
-0.507645

>  <SCORE.INTRA.norm>
-0.185235

>  <SCORE.RESTR>
0

>  <SCORE.RESTR.CAVITY>
0

>  <SCORE.RESTR.norm>
0

>  <SCORE.SYSTEM>
0

>  <SCORE.SYSTEM.CONST>
0

>  <SCORE.SYSTEM.DIHEDRAL>
0

>  <SCORE.SYSTEM.SOLV>
0

>  <SCORE.SYSTEM.norm>
0

>  <SCORE.heavy>
10

>  <SCORE.norm>
-1.07934

>  <RMSD>
5.335

$$$$
ligand
 OpenBabel11021811473D
libRbt.so/2013.1/901 2013/11/27
 10  9  0  0  0  0  0  0  0  0999 V2000
   27.3635   13.6863   18.9573 N   0  0  0  0  0  0  0  0  0  0  0  0
   27.9082   14.5980   19.9977 C   0  0  2  0  0  0  0  0  0  0  0  0
   26.9419   14.7422   21.1739 C   0  0  0  0  0  0  0  0  0  0  0  0
   27.3555   14.8362   22.3253 O   0  0  0  0  0  0  0  0  0  0  0  0
   28.2734   15.9526   19.3799 C   0  0  0  0  0  0  0  0  0  0  0  0
   28.9195   16.9076   20.3785 C   0  0  0  0  0  0  0  0  0  0  0  0
   30.3002   16.4489   20.8267 C   0  0  0  0  0  0  0  0  0  0  0  0
   30.8850   17.4058   21.8662 C   0  0  0  0  0  0  0  0  0  0  0  0
   32.2807   17.0437   22.3275 N   0  0  0  0  0  0  0  0  0  0  0  0
   25.7261   14.8116   21.0355 O   0  0  0  0  0  0  0  0  0  0  0  0
  2  1  1  6  0  0  0
  2  3  1  0  0  0  0
  2  5  1  0  0  0  0
  3  4  1  0  0  0  0
  3 10  1  0  0  0  0
  5  6  1  0  0  0  0
  6  7  1  0  0  0  0
  7  8  1  0  0  0  0
  8  9  1  0  0  0  0
M  END
>  <CHROM.1>
143.23655010,-176.44654819,67.81536607,-177.78104190,-177.97829843,28.56614820
15.64081737,20.85173557,-2.82087288,0.48005521,1.41167866

>  <Name>
ligand

>  <RI>
0

>  <Rbt.Current_Directory>
/home/itssahil/PROJECTS/Mol_Feturizer/New_Systems/rnas/3DIM

>  <Rbt.Executable>
rbdock ($Id: //depot/dev/client3/rdock/2013.1/src/exe/rbdock.cxx#4 $)

>  <Rbt.Library>
libRbt.so (2013.1, Build901 2013/11/27)

>  <Rbt.Parameter_File>
/export/apps/rDock/src/rDock_2013.1_src/data/scripts/dock_solv.prm

>  <Rbt.Receptor>
prm/pocket_docking_4.prm

>  <SCORE>
-12.2552

>  <SCORE.INTER>
-9.1062

>  <SCORE.INTER.CONST>
1

>  <SCORE.INTER.POLAR>
0

>  <SCORE.INTER.ROT>
5

>  <SCORE.INTER.SOLV>
15.4118

>  <SCORE.INTER.VDW>
-18.1414

>  <SCORE.INTER.norm>
-0.91062

>  <SCORE.INTRA>
-3.14904

>  <SCORE.INTRA.DIHEDRAL>
-4.11723

>  <SCORE.INTRA.DIHEDRAL.0>
5.8785

>  <SCORE.INTRA.POLAR>
0

>  <SCORE.INTRA.POLAR.0>
0

>  <SCORE.INTRA.REPUL>
0

>  <SCORE.INTRA.REPUL.0>
0

>  <SCORE.INTRA.SOLV>
-1.65926

>  <SCORE.INTRA.SOLV.lig_0>
-31.9559

>  <SCORE.INTRA.VDW>
-0.260794

>  <SCORE.INTRA.VDW.0>
-0.507645

>  <SCORE.INTRA.norm>
-0.314904

>  <SCORE.RESTR>
0

>  <SCORE.RESTR.CAVITY>
0

>  <SCORE.RESTR.norm>
0

>  <SCORE.SYSTEM>
0

>  <SCORE.SYSTEM.CONST>
0

>  <SCORE.SYSTEM.DIHEDRAL>
0

>  <SCORE.SYSTEM.SOLV>
0

>  <SCORE.SYSTEM.norm>
0

>  <SCORE.heavy>
10

>  <SCORE.norm>
-1.22552

>  <RMSD>
5.337

$$$$
ligand
 OpenBabel11021811473D
libRbt.so/2013.1/901 2013/11/27
 10  9  0  0  0  0  0  0  0  0999 V2000
   25.8024   14.8566   20.8845 N   0  0  0  0  0  0  0  0  0  0  0  0
   27.1377   15.4321   20.5746 C   0  0  2  0  0  0  0  0  0  0  0  0
   27.6331   14.9825   19.1997 C   0  0  0  0  0  0  0  0  0  0  0  0
   27.3377   13.8799   18.7496 O   0  0  0  0  0  0  0  0  0  0  0  0
   28.1350   15.0923   21.6881 C   0  0  0  0  0  0  0  0  0  0  0  0
   29.4446   15.8656   21.5707 C   0  0  0  0  0  0  0  0  0  0  0  0
   30.4451   15.5023   22.6591 C   0  0  0  0  0  0  0  0  0  0  0  0
   31.7085   16.3567   22.5495 C   0  0  0  0  0  0  0  0  0  0  0  0
   32.4756   16.1679   21.2581 N   0  0  0  0  0  0  0  0  0  0  0  0
   28.3059   15.6968   18.4652 O   0  0  0  0  0  0  0  0  0  0  0  0
  2  1  1  1  0  0  0
  2  3  1  0  0  0  0
  2  5  1  0  0  0  0
  3  4  1  0  0  0  0
  3 10  1  0  0  0  0
  5  6  1  0  0  0  0
  6  7  1  0  0  0  0
  7  8  1  0  0  0  0
  8  9  1  0  0  0  0
M  END
>  <CHROM.1>
-32.08297827,-169.11246786,-178.66633836,-176.77617473,-62.43130908,28.84337921
15.37198271,20.72325407,2.62464086,-0.23093008,-1.66057564

>  <Name>
ligand

>  <RI>
0

>  <Rbt.Current_Directory>
/home/itssahil/PROJECTS/Mol_Feturizer/New_Systems/rnas/3DIM

>  <Rbt.Executable>
rbdock ($Id: //depot/dev/client3/rdock/2013.1/src/exe/rbdock.cxx#4 $)

>  <Rbt.Library>
libRbt.so (2013.1, Build901 2013/11/27)

>  <Rbt.Parameter_File>
/export/apps/rDock/src/rDock_2013.1_src/data/scripts/dock_solv.prm

>  <Rbt.Receptor>
prm/pocket_docking_4.prm

>  <SCORE>
-10.9431

>  <SCORE.INTER>
-8.23781

>  <SCORE.INTER.CONST>
1

>  <SCORE.INTER.POLAR>
0

>  <SCORE.INTER.ROT>
5

>  <SCORE.INTER.SOLV>
18.0956

>  <SCORE.INTER.VDW>
-18.4571

>  <SCORE.INTER.norm>
-0.823781

>  <SCORE.INTRA>
-2.70534

>  <SCORE.INTRA.DIHEDRAL>
-3.78806

>  <SCORE.INTRA.DIHEDRAL.0>
5.8785

>  <SCORE.INTRA.POLAR>
0

>  <SCORE.INTRA.POLAR.0>
0

>  <SCORE.INTRA.REPUL>
0

>  <SCORE.INTRA.REPUL.0>
0

>  <SCORE.INTRA.SOLV>
-0.971841

>  <SCORE.INTRA.SOLV.lig_0>
-31.9559

>  <SCORE.INTRA.VDW>
-0.325386

>  <SCORE.INTRA.VDW.0>
-0.507645

>  <SCORE.INTRA.norm>
-0.270534

>  <SCORE.RESTR>
0

>  <SCORE.RESTR.CAVITY>
0

>  <SCORE.RESTR.norm>
0

>  <SCORE.SYSTEM>
0

>  <SCORE.SYSTEM.CONST>
0

>  <SCORE.SYSTEM.DIHEDRAL>
0

>  <SCORE.SYSTEM.SOLV>
0

>  <SCORE.SYSTEM.norm>
0

>  <SCORE.heavy>
10

>  <SCORE.norm>
-1.09431

>  <RMSD>
5.339

$$$$
ligand
 OpenBabel11021811473D
libRbt.so/2013.1/901 2013/11/27
 10  9  0  0  0  0  0  0  0  0999 V2000
   27.3597   13.6587   18.8277 N   0  0  0  0  0  0  0  0  0  0  0  0
   27.9202   14.5371   19.8882 C   0  0  2  0  0  0  0  0  0  0  0  0
   26.9680   14.6506   21.0791 C   0  0  0  0  0  0  0  0  0  0  0  0
   27.3867   14.6023   22.2315 O   0  0  0  0  0  0  0  0  0  0  0  0
   28.2845   15.9077   19.3064 C   0  0  0  0  0  0  0  0  0  0  0  0
   28.9040   16.8463   20.3368 C   0  0  0  0  0  0  0  0  0  0  0  0
   30.2759   16.3842   20.8078 C   0  0  0  0  0  0  0  0  0  0  0  0
   30.8607   17.3580   21.8315 C   0  0  0  0  0  0  0  0  0  0  0  0
   32.2526   16.9985   22.3058 N   0  0  0  0  0  0  0  0  0  0  0  0
   25.7623   14.8332   20.9558 O   0  0  0  0  0  0  0  0  0  0  0  0
  2  1  1  6  0  0  0
  2  3  1  0  0  0  0
  2  5  1  0  0  0  0
  3  4  1  0  0  0  0
  3 10  1  0  0  0  0
  5  6  1  0  0  0  0
  6  7  1  0  0  0  0
  7  8  1  0  0  0  0
  8  9  1  0  0  0  0
M  END
>  <CHROM.1>
137.39739455,-178.34636279,67.38250518,179.65951698,-177.52926593,28.56867592
15.57436667,20.78210654,-2.82247541,0.49745611,1.45452014

>  <Name>
ligand

>  <RI>
0

>  <Rbt.Current_Directory>
/home/itssahil/PROJECTS/Mol_Feturizer/New_Systems/rnas/3DIM

>  <Rbt.Executable>
rbdock ($Id: //depot/dev/client3/rdock/2013.1/src/exe/rbdock.cxx#4 $)

>  <Rbt.Library>
libRbt.so (2013.1, Build901 2013/11/27)

>  <Rbt.Parameter_File>
/export/apps/rDock/src/rDock_2013.1_src/data/scripts/dock_solv.prm

>  <Rbt.Receptor>
prm/pocket_docking_6.prm

>  <SCORE>
-12.1861

>  <SCORE.INTER>
-9.02607

>  <SCORE.INTER.CONST>
1

>  <SCORE.INTER.POLAR>
0

>  <SCORE.INTER.ROT>
5

>  <SCORE.INTER.SOLV>
15.4904

>  <SCORE.INTER.VDW>
-18.1142

>  <SCORE.INTER.norm>
-0.902607

>  <SCORE.INTRA>
-3.16001

>  <SCORE.INTRA.DIHEDRAL>
-4.17679

>  <SCORE.INTRA.DIHEDRAL.0>
5.8785

>  <SCORE.INTRA.POLAR>
0

>  <SCORE.INTRA.POLAR.0>
0

>  <SCORE.INTRA.REPUL>
0

>  <SCORE.INTRA.REPUL.0>
0

>  <SCORE.INTRA.SOLV>
-1.67227

>  <SCORE.INTRA.SOLV.lig_0>
-31.9559

>  <SCORE.INTRA.VDW>
-0.235487

>  <SCORE.INTRA.VDW.0>
-0.507645

>  <SCORE.INTRA.norm>
-0.316001

>  <SCORE.RESTR>
0

>  <SCORE.RESTR.CAVITY>
0

>  <SCORE.RESTR.norm>
0

>  <SCORE.SYSTEM>
0

>  <SCORE.SYSTEM.CONST>
0

>  <SCORE.SYSTEM.DIHEDRAL>
0

>  <SCORE.SYSTEM.SOLV>
0

>  <SCORE.SYSTEM.norm>
0

>  <SCORE.heavy>
10

>  <SCORE.norm>
-1.21861

>  <RMSD>
5.339

$$$$
ligand
 OpenBabel11021811473D
libRbt.so/2013.1/901 2013/11/27
 10  9  0  0  0  0  0  0  0  0999 V2000
   28.1020   14.5093   18.8136 N   0  0  0  0  0  0  0  0  0  0  0  0
   28.2797   14.5754   20.2882 C   0  0  2  0  0  0  0  0  0  0  0  0
   26.9485   14.8199   20.9997 C   0  0  0  0  0  0  0  0  0  0  0  0
   26.8351   14.6440   22.2088 O   0  0  0  0  0  0  0  0  0  0  0  0
   29.3313   15.6301   20.6507 C   0  0  0  0  0  0  0  0  0  0  0  0
   29.7516   15.5727   22.1159 C   0  0  0  0  0  0  0  0  0  0  0  0
   30.7399   16.6683   22.4907 C   0  0  0  0  0  0  0  0  0  0  0  0
   32.0722   16.4763   21.7652 C   0  0  0  0  0  0  0  0  0  0  0  0
   33.1127   17.5269   22.0894 N   0  0  0  0  0  0  0  0  0  0  0  0
   25.9495   15.2356   20.4241 O   0  0  0  0  0  0  0  0  0  0  0  0
  2  1  1  6  0  0  0
  2  3  1  0  0  0  0
  2  5  1  0  0  0  0
  3  4  1  0  0  0  0
  3 10  1  0  0  0  0
  5  6  1  0  0  0  0
  6  7  1  0  0  0  0
  7  8  1  0  0  0  0
  8  9  1  0  0  0  0
M  END
>  <CHROM.1>
165.36512109,-169.32204790,-176.92150591,-65.98282312,-179.83032423,29.07262639
15.56594823,21.19757387,-2.80448937,0.31331296,1.33614482

>  <Name>
ligand

>  <RI>
0

>  <Rbt.Current_Directory>
/home/itssahil/PROJECTS/Mol_Feturizer/New_Systems/rnas/3DIM

>  <Rbt.Executable>
rbdock ($Id: //depot/dev/client3/rdock/2013.1/src/exe/rbdock.cxx#4 $)

>  <Rbt.Library>
libRbt.so (2013.1, Build901 2013/11/27)

>  <Rbt.Parameter_File>
/export/apps/rDock/src/rDock_2013.1_src/data/scripts/dock_solv.prm

>  <Rbt.Receptor>
prm/pocket_docking_4.prm

>  <SCORE>
-11.2736

>  <SCORE.INTER>
-8.94209

>  <SCORE.INTER.CONST>
1

>  <SCORE.INTER.POLAR>
0

>  <SCORE.INTER.ROT>
5

>  <SCORE.INTER.SOLV>
13.5448

>  <SCORE.INTER.VDW>
-17.4096

>  <SCORE.INTER.norm>
-0.894209

>  <SCORE.INTRA>
-2.3315

>  <SCORE.INTRA.DIHEDRAL>
-3.83293

>  <SCORE.INTRA.DIHEDRAL.0>
5.8785

>  <SCORE.INTRA.POLAR>
0

>  <SCORE.INTRA.POLAR.0>
0

>  <SCORE.INTRA.REPUL>
0

>  <SCORE.INTRA.REPUL.0>
0

>  <SCORE.INTRA.SOLV>
-1.65939

>  <SCORE.INTRA.SOLV.lig_0>
-31.9559

>  <SCORE.INTRA.VDW>
0.414663

>  <SCORE.INTRA.VDW.0>
-0.507645

>  <SCORE.INTRA.norm>
-0.23315

>  <SCORE.RESTR>
0

>  <SCORE.RESTR.CAVITY>
0

>  <SCORE.RESTR.norm>
0

>  <SCORE.SYSTEM>
0

>  <SCORE.SYSTEM.CONST>
0

>  <SCORE.SYSTEM.DIHEDRAL>
0

>  <SCORE.SYSTEM.SOLV>
0

>  <SCORE.SYSTEM.norm>
0

>  <SCORE.heavy>
10

>  <SCORE.norm>
-1.12736

>  <RMSD>
5.340

$$$$
ligand
 OpenBabel11021811473D
libRbt.so/2013.1/901 2013/11/27
 10  9  0  0  0  0  0  0  0  0999 V2000
   28.3762   14.2580   19.1613 N   0  0  0  0  0  0  0  0  0  0  0  0
   28.4971   14.5719   20.6095 C   0  0  2  0  0  0  0  0  0  0  0  0
   27.1373   14.9085   21.2223 C   0  0  0  0  0  0  0  0  0  0  0  0
   26.1625   15.1379   20.5133 O   0  0  0  0  0  0  0  0  0  0  0  0
   29.5225   15.6902   20.8278 C   0  0  0  0  0  0  0  0  0  0  0  0
   30.9446   15.2725   20.4676 C   0  0  0  0  0  0  0  0  0  0  0  0
   31.9606   16.3851   20.6858 C   0  0  0  0  0  0  0  0  0  0  0  0
   32.1470   16.6727   22.1760 C   0  0  0  0  0  0  0  0  0  0  0  0
   33.0957   17.8140   22.4742 N   0  0  0  0  0  0  0  0  0  0  0  0
   26.9356   14.9289   22.4311 O   0  0  0  0  0  0  0  0  0  0  0  0
  2  1  1  6  0  0  0
  2  3  1  0  0  0  0
  2  5  1  0  0  0  0
  3  4  1  0  0  0  0
  3 10  1  0  0  0  0
  5  6  1  0  0  0  0
  6  7  1  0  0  0  0
  7  8  1  0  0  0  0
  8  9  1  0  0  0  0
M  END
>  <CHROM.1>
-13.31681492,-66.26442599,-179.98785570,69.07921265,-177.27248557,29.43611526
15.56543058,21.06940100,-2.83848941,0.26871507,1.10768739

>  <Name>
ligand

>  <RI>
0

>  <Rbt.Current_Directory>
/home/itssahil/PROJECTS/Mol_Feturizer/New_Systems/rnas/3DIM

>  <Rbt.Executable>
rbdock ($Id: //depot/dev/client3/rdock/2013.1/src/exe/rbdock.cxx#4 $)

>  <Rbt.Library>
libRbt.so (2013.1, Build901 2013/11/27)

>  <Rbt.Parameter_File>
/export/apps/rDock/src/rDock_2013.1_src/data/scripts/dock_solv.prm

>  <Rbt.Receptor>
prm/pocket_docking_5.prm

>  <SCORE>
-10.7282

>  <SCORE.INTER>
-8.68408

>  <SCORE.INTER.CONST>
1

>  <SCORE.INTER.POLAR>
0

>  <SCORE.INTER.ROT>
5

>  <SCORE.INTER.SOLV>
13.3658

>  <SCORE.INTER.VDW>
-17.178

>  <SCORE.INTER.norm>
-0.868408

>  <SCORE.INTRA>
-2.0441

>  <SCORE.INTRA.DIHEDRAL>
-3.77881

>  <SCORE.INTRA.DIHEDRAL.0>
5.8785

>  <SCORE.INTRA.POLAR>
0

>  <SCORE.INTRA.POLAR.0>
0

>  <SCORE.INTRA.REPUL>
0

>  <SCORE.INTRA.REPUL.0>
0

>  <SCORE.INTRA.SOLV>
-0.808297

>  <SCORE.INTRA.SOLV.lig_0>
-31.9559

>  <SCORE.INTRA.VDW>
0.249449

>  <SCORE.INTRA.VDW.0>
-0.507645

>  <SCORE.INTRA.norm>
-0.20441

>  <SCORE.RESTR>
0

>  <SCORE.RESTR.CAVITY>
0

>  <SCORE.RESTR.norm>
0

>  <SCORE.SYSTEM>
0

>  <SCORE.SYSTEM.CONST>
0

>  <SCORE.SYSTEM.DIHEDRAL>
0

>  <SCORE.SYSTEM.SOLV>
0

>  <SCORE.SYSTEM.norm>
0

>  <SCORE.heavy>
10

>  <SCORE.norm>
-1.07282

>  <RMSD>
5.340

$$$$
ligand
 OpenBabel11021811473D
libRbt.so/2013.1/901 2013/11/27
 10  9  0  0  0  0  0  0  0  0999 V2000
   27.3698   13.6969   18.9280 N   0  0  0  0  0  0  0  0  0  0  0  0
   27.9171   14.6000   19.9745 C   0  0  2  0  0  0  0  0  0  0  0  0
   26.9597   14.7243   21.1602 C   0  0  0  0  0  0  0  0  0  0  0  0
   25.7464   14.7931   20.9898 O   0  0  0  0  0  0  0  0  0  0  0  0
   28.2686   15.9640   19.3697 C   0  0  0  0  0  0  0  0  0  0  0  0
   28.9142   16.9124   20.3748 C   0  0  0  0  0  0  0  0  0  0  0  0
   30.2915   16.4470   20.8262 C   0  0  0  0  0  0  0  0  0  0  0  0
   30.8840   17.4080   21.8576 C   0  0  0  0  0  0  0  0  0  0  0  0
   32.2835   17.0484   22.3092 N   0  0  0  0  0  0  0  0  0  0  0  0
   27.3362   14.7217   22.3265 O   0  0  0  0  0  0  0  0  0  0  0  0
  2  1  1  6  0  0  0
  2  3  1  0  0  0  0
  2  5  1  0  0  0  0
  3  4  1  0  0  0  0
  3 10  1  0  0  0  0
  5  6  1  0  0  0  0
  6  7  1  0  0  0  0
  7  8  1  0  0  0  0
  8  9  1  0  0  0  0
M  END
>  <CHROM.1>
-39.45410738,-176.56195117,66.87894047,-178.57211378,-177.29176760,28.56753217
15.62755049,20.83637528,-2.83806283,0.49630892,1.44997028

>  <Name>
ligand

>  <RI>
0

>  <Rbt.Current_Directory>
/home/itssahil/PROJECTS/Mol_Feturizer/New_Systems/rnas/3DIM

>  <Rbt.Executable>
rbdock ($Id: //depot/dev/client3/rdock/2013.1/src/exe/rbdock.cxx#4 $)

>  <Rbt.Library>
libRbt.so (2013.1, Build901 2013/11/27)

>  <Rbt.Parameter_File>
/export/apps/rDock/src/rDock_2013.1_src/data/scripts/dock_solv.prm

>  <Rbt.Receptor>
prm/pocket_docking_3.prm

>  <SCORE>
-12.1191

>  <SCORE.INTER>
-9.05131

>  <SCORE.INTER.CONST>
1

>  <SCORE.INTER.POLAR>
0

>  <SCORE.INTER.ROT>
5

>  <SCORE.INTER.SOLV>
15.4067

>  <SCORE.INTER.VDW>
-18.1031

>  <SCORE.INTER.norm>
-0.905131

>  <SCORE.INTRA>
-3.06781

>  <SCORE.INTRA.DIHEDRAL>
-4.03299

>  <SCORE.INTRA.DIHEDRAL.0>
5.8785

>  <SCORE.INTRA.POLAR>
0

>  <SCORE.INTRA.POLAR.0>
0

>  <SCORE.INTRA.REPUL>
0

>  <SCORE.INTRA.REPUL.0>
0

>  <SCORE.INTRA.SOLV>
-1.63066

>  <SCORE.INTRA.SOLV.lig_0>
-31.9559

>  <SCORE.INTRA.VDW>
-0.235984

>  <SCORE.INTRA.VDW.0>
-0.507645

>  <SCORE.INTRA.norm>
-0.306781

>  <SCORE.RESTR>
0

>  <SCORE.RESTR.CAVITY>
0

>  <SCORE.RESTR.norm>
0

>  <SCORE.SYSTEM>
0

>  <SCORE.SYSTEM.CONST>
0

>  <SCORE.SYSTEM.DIHEDRAL>
0

>  <SCORE.SYSTEM.SOLV>
0

>  <SCORE.SYSTEM.norm>
0

>  <SCORE.heavy>
10

>  <SCORE.norm>
-1.21191

>  <RMSD>
5.342

$$$$
ligand
 OpenBabel11021811473D
libRbt.so/2013.1/901 2013/11/27
 10  9  0  0  0  0  0  0  0  0999 V2000
   27.4012   13.6823   18.9268 N   0  0  0  0  0  0  0  0  0  0  0  0
   27.9292   14.5950   19.9749 C   0  0  2  0  0  0  0  0  0  0  0  0
   26.9605   14.7117   21.1521 C   0  0  0  0  0  0  0  0  0  0  0  0
   25.7475   14.7548   20.9721 O   0  0  0  0  0  0  0  0  0  0  0  0
   28.2696   15.9612   19.3686 C   0  0  0  0  0  0  0  0  0  0  0  0
   28.9109   16.9146   20.3717 C   0  0  0  0  0  0  0  0  0  0  0  0
   30.2752   16.4385   20.8508 C   0  0  0  0  0  0  0  0  0  0  0  0
   30.8749   17.4191   21.8593 C   0  0  0  0  0  0  0  0  0  0  0  0
   32.2717   17.0598   22.3193 N   0  0  0  0  0  0  0  0  0  0  0  0
   27.3282   14.7278   22.3212 O   0  0  0  0  0  0  0  0  0  0  0  0
  2  1  1  6  0  0  0
  2  3  1  0  0  0  0
  2  5  1  0  0  0  0
  3  4  1  0  0  0  0
  3 10  1  0  0  0  0
  5  6  1  0  0  0  0
  6  7  1  0  0  0  0
  7  8  1  0  0  0  0
  8  9  1  0  0  0  0
M  END
>  <CHROM.1>
-38.86085230,-175.87464496,65.20613962,-179.65142081,-176.38740723,28.56713532
15.62224422,20.83617734,-2.83157562,0.50014584,1.44379755

>  <Name>
ligand

>  <RI>
0

>  <Rbt.Current_Directory>
/home/itssahil/PROJECTS/Mol_Feturizer/New_Systems/rnas/3DIM

>  <Rbt.Executable>
rbdock ($Id: //depot/dev/client3/rdock/2013.1/src/exe/rbdock.cxx#4 $)

>  <Rbt.Library>
libRbt.so (2013.1, Build901 2013/11/27)

>  <Rbt.Parameter_File>
/export/apps/rDock/src/rDock_2013.1_src/data/scripts/dock_solv.prm

>  <Rbt.Receptor>
prm/pocket_docking_5.prm

>  <SCORE>
-12.1227

>  <SCORE.INTER>
-9.05621

>  <SCORE.INTER.CONST>
1

>  <SCORE.INTER.POLAR>
0

>  <SCORE.INTER.ROT>
5

>  <SCORE.INTER.SOLV>
15.3459

>  <SCORE.INTER.VDW>
-18.0861

>  <SCORE.INTER.norm>
-0.905621

>  <SCORE.INTRA>
-3.06646

>  <SCORE.INTRA.DIHEDRAL>
-4.0827

>  <SCORE.INTRA.DIHEDRAL.0>
5.8785

>  <SCORE.INTRA.POLAR>
0

>  <SCORE.INTRA.POLAR.0>
0

>  <SCORE.INTRA.REPUL>
0

>  <SCORE.INTRA.REPUL.0>
0

>  <SCORE.INTRA.SOLV>
-1.61701

>  <SCORE.INTRA.SOLV.lig_0>
-31.9559

>  <SCORE.INTRA.VDW>
-0.216606

>  <SCORE.INTRA.VDW.0>
-0.507645

>  <SCORE.INTRA.norm>
-0.306646

>  <SCORE.RESTR>
0

>  <SCORE.RESTR.CAVITY>
0

>  <SCORE.RESTR.norm>
0

>  <SCORE.SYSTEM>
0

>  <SCORE.SYSTEM.CONST>
0

>  <SCORE.SYSTEM.DIHEDRAL>
0

>  <SCORE.SYSTEM.SOLV>
0

>  <SCORE.SYSTEM.norm>
0

>  <SCORE.heavy>
10

>  <SCORE.norm>
-1.21227

>  <RMSD>
5.342

$$$$
ligand
 OpenBabel11021811473D
libRbt.so/2013.1/901 2013/11/27
 10  9  0  0  0  0  0  0  0  0999 V2000
   27.9644   14.5909   18.9208 N   0  0  0  0  0  0  0  0  0  0  0  0
   28.2435   14.6118   20.3809 C   0  0  2  0  0  0  0  0  0  0  0  0
   26.9662   14.8412   21.1895 C   0  0  0  0  0  0  0  0  0  0  0  0
   25.9006   15.0883   20.6335 O   0  0  0  0  0  0  0  0  0  0  0  0
   29.3249   15.6499   20.7012 C   0  0  0  0  0  0  0  0  0  0  0  0
   29.7941   15.5929   22.1514 C   0  0  0  0  0  0  0  0  0  0  0  0
   30.7915   16.6908   22.4936 C   0  0  0  0  0  0  0  0  0  0  0  0
   32.1123   16.4821   21.7518 C   0  0  0  0  0  0  0  0  0  0  0  0
   33.1676   17.5234   22.0581 N   0  0  0  0  0  0  0  0  0  0  0  0
   26.9239   14.7537   22.4112 O   0  0  0  0  0  0  0  0  0  0  0  0
  2  1  1  6  0  0  0
  2  3  1  0  0  0  0
  2  5  1  0  0  0  0
  3  4  1  0  0  0  0
  3 10  1  0  0  0  0
  5  6  1  0  0  0  0
  6  7  1  0  0  0  0
  7  8  1  0  0  0  0
  8  9  1  0  0  0  0
M  END
>  <CHROM.1>
-5.88292258,-172.23647370,-175.73084931,-67.47315404,-179.02719527,29.07982311
15.58140816,21.28397829,-2.84287951,0.32382957,1.35911596

>  <Name>
ligand

>  <RI>
0

>  <Rbt.Current_Directory>
/home/itssahil/PROJECTS/Mol_Feturizer/New_Systems/rnas/3DIM

>  <Rbt.Executable>
rbdock ($Id: //depot/dev/client3/rdock/2013.1/src/exe/rbdock.cxx#4 $)

>  <Rbt.Library>
libRbt.so (2013.1, Build901 2013/11/27)

>  <Rbt.Parameter_File>
/export/apps/rDock/src/rDock_2013.1_src/data/scripts/dock_solv.prm

>  <Rbt.Receptor>
prm/pocket_docking_6.prm

>  <SCORE>
-11.2048

>  <SCORE.INTER>
-8.99326

>  <SCORE.INTER.CONST>
1

>  <SCORE.INTER.POLAR>
0

>  <SCORE.INTER.ROT>
5

>  <SCORE.INTER.SOLV>
13.6848

>  <SCORE.INTER.VDW>
-17.4904

>  <SCORE.INTER.norm>
-0.899326

>  <SCORE.INTRA>
-2.21155

>  <SCORE.INTRA.DIHEDRAL>
-3.81274

>  <SCORE.INTRA.DIHEDRAL.0>
5.8785

>  <SCORE.INTRA.POLAR>
0

>  <SCORE.INTRA.POLAR.0>
0

>  <SCORE.INTRA.REPUL>
0

>  <SCORE.INTRA.REPUL.0>
0

>  <SCORE.INTRA.SOLV>
-1.65605

>  <SCORE.INTRA.SOLV.lig_0>
-31.9559

>  <SCORE.INTRA.VDW>
0.522847

>  <SCORE.INTRA.VDW.0>
-0.507645

>  <SCORE.INTRA.norm>
-0.221155

>  <SCORE.RESTR>
0

>  <SCORE.RESTR.CAVITY>
0

>  <SCORE.RESTR.norm>
0

>  <SCORE.SYSTEM>
0

>  <SCORE.SYSTEM.CONST>
0

>  <SCORE.SYSTEM.DIHEDRAL>
0

>  <SCORE.SYSTEM.SOLV>
0

>  <SCORE.SYSTEM.norm>
0

>  <SCORE.heavy>
10

>  <SCORE.norm>
-1.12048

>  <RMSD>
5.342

$$$$
ligand
 OpenBabel11021811473D
libRbt.so/2013.1/901 2013/11/27
 10  9  0  0  0  0  0  0  0  0999 V2000
   27.3231   13.7226   19.0499 N   0  0  0  0  0  0  0  0  0  0  0  0
   27.8927   14.6235   20.0863 C   0  0  2  0  0  0  0  0  0  0  0  0
   26.9402   14.7822   21.2718 C   0  0  0  0  0  0  0  0  0  0  0  0
   25.7235   14.7677   21.1129 O   0  0  0  0  0  0  0  0  0  0  0  0
   28.2748   15.9727   19.4670 C   0  0  0  0  0  0  0  0  0  0  0  0
   28.9319   16.9211   20.4646 C   0  0  0  0  0  0  0  0  0  0  0  0
   30.3103   16.4507   20.9076 C   0  0  0  0  0  0  0  0  0  0  0  0
   30.9291   17.4302   21.9056 C   0  0  0  0  0  0  0  0  0  0  0  0
   32.3200   17.0504   22.3670 N   0  0  0  0  0  0  0  0  0  0  0  0
   27.3265   14.8901   22.4299 O   0  0  0  0  0  0  0  0  0  0  0  0
  2  1  1  6  0  0  0
  2  3  1  0  0  0  0
  2  5  1  0  0  0  0
  3  4  1  0  0  0  0
  3 10  1  0  0  0  0
  5  6  1  0  0  0  0
  6  7  1  0  0  0  0
  7  8  1  0  0  0  0
  8  9  1  0  0  0  0
M  END
>  <CHROM.1>
-33.44286634,-177.10010679,68.17774098,-179.98466911,-178.46091322,28.56763393
15.65788863,20.93113970,-2.83565324,0.47840109,1.41799389

>  <Name>
ligand

>  <RI>
0

>  <Rbt.Current_Directory>
/home/itssahil/PROJECTS/Mol_Feturizer/New_Systems/rnas/3DIM

>  <Rbt.Executable>
rbdock ($Id: //depot/dev/client3/rdock/2013.1/src/exe/rbdock.cxx#4 $)

>  <Rbt.Library>
libRbt.so (2013.1, Build901 2013/11/27)

>  <Rbt.Parameter_File>
/export/apps/rDock/src/rDock_2013.1_src/data/scripts/dock_solv.prm

>  <Rbt.Receptor>
prm/pocket_docking_6.prm

>  <SCORE>
-12.0438

>  <SCORE.INTER>
-9.01001

>  <SCORE.INTER.CONST>
1

>  <SCORE.INTER.POLAR>
0

>  <SCORE.INTER.ROT>
5

>  <SCORE.INTER.SOLV>
15.5473

>  <SCORE.INTER.VDW>
-18.1224

>  <SCORE.INTER.norm>
-0.901001

>  <SCORE.INTRA>
-3.03381

>  <SCORE.INTRA.DIHEDRAL>
-3.98163

>  <SCORE.INTRA.DIHEDRAL.0>
5.8785

>  <SCORE.INTRA.POLAR>
0

>  <SCORE.INTRA.POLAR.0>
0

>  <SCORE.INTRA.REPUL>
0

>  <SCORE.INTRA.REPUL.0>
0

>  <SCORE.INTRA.SOLV>
-1.63952

>  <SCORE.INTRA.SOLV.lig_0>
-31.9559

>  <SCORE.INTRA.VDW>
-0.223237

>  <SCORE.INTRA.VDW.0>
-0.507645

>  <SCORE.INTRA.norm>
-0.303381

>  <SCORE.RESTR>
0

>  <SCORE.RESTR.CAVITY>
0

>  <SCORE.RESTR.norm>
0

>  <SCORE.SYSTEM>
0

>  <SCORE.SYSTEM.CONST>
0

>  <SCORE.SYSTEM.DIHEDRAL>
0

>  <SCORE.SYSTEM.SOLV>
0

>  <SCORE.SYSTEM.norm>
0

>  <SCORE.heavy>
10

>  <SCORE.norm>
-1.20438

>  <RMSD>
5.343

$$$$
ligand
 OpenBabel11021811473D
libRbt.so/2013.1/901 2013/11/27
 10  9  0  0  0  0  0  0  0  0999 V2000
   28.2684   14.6022   19.1707 N   0  0  0  0  0  0  0  0  0  0  0  0
   28.4761   14.6743   20.6410 C   0  0  2  0  0  0  0  0  0  0  0  0
   27.1549   14.8860   21.3810 C   0  0  0  0  0  0  0  0  0  0  0  0
   26.0875   14.9116   20.7763 O   0  0  0  0  0  0  0  0  0  0  0  0
   29.5085   15.7555   20.9803 C   0  0  0  0  0  0  0  0  0  0  0  0
   30.9174   15.3998   20.5164 C   0  0  0  0  0  0  0  0  0  0  0  0
   31.9115   16.5341   20.7225 C   0  0  0  0  0  0  0  0  0  0  0  0
   32.2044   16.7431   22.2087 C   0  0  0  0  0  0  0  0  0  0  0  0
   33.1135   17.9171   22.5032 N   0  0  0  0  0  0  0  0  0  0  0  0
   27.0818   14.9996   22.5992 O   0  0  0  0  0  0  0  0  0  0  0  0
  2  1  1  6  0  0  0
  2  3  1  0  0  0  0
  2  5  1  0  0  0  0
  3  4  1  0  0  0  0
  3 10  1  0  0  0  0
  5  6  1  0  0  0  0
  6  7  1  0  0  0  0
  7  8  1  0  0  0  0
  8  9  1  0  0  0  0
M  END
>  <CHROM.1>
3.54277092,-68.35247183,173.97080406,70.32436095,-176.04380659,29.43153825
15.64065093,21.16537433,-2.87680339,0.31743505,1.20073278

>  <Name>
ligand

>  <RI>
0

>  <Rbt.Current_Directory>
/home/itssahil/PROJECTS/Mol_Feturizer/New_Systems/rnas/3DIM

>  <Rbt.Executable>
rbdock ($Id: //depot/dev/client3/rdock/2013.1/src/exe/rbdock.cxx#4 $)

>  <Rbt.Library>
libRbt.so (2013.1, Build901 2013/11/27)

>  <Rbt.Parameter_File>
/export/apps/rDock/src/rDock_2013.1_src/data/scripts/dock_solv.prm

>  <Rbt.Receptor>
prm/pocket_docking_7.prm

>  <SCORE>
-10.6762

>  <SCORE.INTER>
-8.86868

>  <SCORE.INTER.CONST>
1

>  <SCORE.INTER.POLAR>
0

>  <SCORE.INTER.ROT>
5

>  <SCORE.INTER.SOLV>
12.8423

>  <SCORE.INTER.VDW>
-17.1265

>  <SCORE.INTER.norm>
-0.886868

>  <SCORE.INTRA>
-1.80752

>  <SCORE.INTRA.DIHEDRAL>
-3.44423

>  <SCORE.INTRA.DIHEDRAL.0>
5.8785

>  <SCORE.INTRA.POLAR>
0

>  <SCORE.INTRA.POLAR.0>
0

>  <SCORE.INTRA.REPUL>
0

>  <SCORE.INTRA.REPUL.0>
0

>  <SCORE.INTRA.SOLV>
-0.805461

>  <SCORE.INTRA.SOLV.lig_0>
-31.9559

>  <SCORE.INTRA.VDW>
0.317327

>  <SCORE.INTRA.VDW.0>
-0.507645

>  <SCORE.INTRA.norm>
-0.180752

>  <SCORE.RESTR>
0

>  <SCORE.RESTR.CAVITY>
0

>  <SCORE.RESTR.norm>
0

>  <SCORE.SYSTEM>
0

>  <SCORE.SYSTEM.CONST>
0

>  <SCORE.SYSTEM.DIHEDRAL>
0

>  <SCORE.SYSTEM.SOLV>
0

>  <SCORE.SYSTEM.norm>
0

>  <SCORE.heavy>
10

>  <SCORE.norm>
-1.06762

>  <RMSD>
5.344

$$$$
ligand
 OpenBabel11021811473D
libRbt.so/2013.1/901 2013/11/27
 10  9  0  0  0  0  0  0  0  0999 V2000
   27.3747   13.7790   19.0295 N   0  0  0  0  0  0  0  0  0  0  0  0
   27.9163   14.6681   20.0909 C   0  0  2  0  0  0  0  0  0  0  0  0
   26.9343   14.8096   21.2544 C   0  0  0  0  0  0  0  0  0  0  0  0
   25.7220   14.7861   21.0663 O   0  0  0  0  0  0  0  0  0  0  0  0
   28.3098   16.0259   19.4981 C   0  0  0  0  0  0  0  0  0  0  0  0
   29.0119   16.9333   20.5032 C   0  0  0  0  0  0  0  0  0  0  0  0
   30.3888   16.4204   20.9015 C   0  0  0  0  0  0  0  0  0  0  0  0
   31.0529   17.3590   21.9095 C   0  0  0  0  0  0  0  0  0  0  0  0
   32.4599   16.9576   22.2981 N   0  0  0  0  0  0  0  0  0  0  0  0
   27.2921   14.9117   22.4222 O   0  0  0  0  0  0  0  0  0  0  0  0
  2  1  1  6  0  0  0
  2  3  1  0  0  0  0
  2  5  1  0  0  0  0
  3  4  1  0  0  0  0
  3 10  1  0  0  0  0
  5  6  1  0  0  0  0
  6  7  1  0  0  0  0
  7  8  1  0  0  0  0
  8  9  1  0  0  0  0
M  END
>  <CHROM.1>
-32.99595833,-173.80032920,67.91490473,-179.93117838,-176.78814158,28.61576845
15.66168851,20.92178295,-2.84923582,0.44913820,1.41573634

>  <Name>
ligand

>  <RI>
0

>  <Rbt.Current_Directory>
/home/itssahil/PROJECTS/Mol_Feturizer/New_Systems/rnas/3DIM

>  <Rbt.Executable>
rbdock ($Id: //depot/dev/client3/rdock/2013.1/src/exe/rbdock.cxx#4 $)

>  <Rbt.Library>
libRbt.so (2013.1, Build901 2013/11/27)

>  <Rbt.Parameter_File>
/export/apps/rDock/src/rDock_2013.1_src/data/scripts/dock_solv.prm

>  <Rbt.Receptor>
prm/pocket_docking_6.prm

>  <SCORE>
-12.063

>  <SCORE.INTER>
-9.06018

>  <SCORE.INTER.CONST>
1

>  <SCORE.INTER.POLAR>
0

>  <SCORE.INTER.ROT>
5

>  <SCORE.INTER.SOLV>
15.6037

>  <SCORE.INTER.VDW>
-18.1747

>  <SCORE.INTER.norm>
-0.906018

>  <SCORE.INTRA>
-3.00278

>  <SCORE.INTRA.DIHEDRAL>
-3.8588

>  <SCORE.INTRA.DIHEDRAL.0>
5.8785

>  <SCORE.INTRA.POLAR>
0

>  <SCORE.INTRA.POLAR.0>
0

>  <SCORE.INTRA.REPUL>
0

>  <SCORE.INTRA.REPUL.0>
0

>  <SCORE.INTRA.SOLV>
-1.61502

>  <SCORE.INTRA.SOLV.lig_0>
-31.9559

>  <SCORE.INTRA.VDW>
-0.265869

>  <SCORE.INTRA.VDW.0>
-0.507645

>  <SCORE.INTRA.norm>
-0.300278

>  <SCORE.RESTR>
0

>  <SCORE.RESTR.CAVITY>
0

>  <SCORE.RESTR.norm>
0

>  <SCORE.SYSTEM>
0

>  <SCORE.SYSTEM.CONST>
0

>  <SCORE.SYSTEM.DIHEDRAL>
0

>  <SCORE.SYSTEM.SOLV>
0

>  <SCORE.SYSTEM.norm>
0

>  <SCORE.heavy>
10

>  <SCORE.norm>
-1.2063

>  <RMSD>
5.345

$$$$
ligand
 OpenBabel11021811473D
libRbt.so/2013.1/901 2013/11/27
 10  9  0  0  0  0  0  0  0  0999 V2000
   27.3266   13.6987   18.9477 N   0  0  0  0  0  0  0  0  0  0  0  0
   27.8957   14.6061   19.9788 C   0  0  2  0  0  0  0  0  0  0  0  0
   26.9403   14.7760   21.1605 C   0  0  0  0  0  0  0  0  0  0  0  0
   25.7274   14.8469   20.9890 O   0  0  0  0  0  0  0  0  0  0  0  0
   28.2825   15.9497   19.3502 C   0  0  0  0  0  0  0  0  0  0  0  0
   28.9216   16.9113   20.3469 C   0  0  0  0  0  0  0  0  0  0  0  0
   30.2887   16.4435   20.8262 C   0  0  0  0  0  0  0  0  0  0  0  0
   30.8862   17.4323   21.8280 C   0  0  0  0  0  0  0  0  0  0  0  0
   32.2794   17.0733   22.2990 N   0  0  0  0  0  0  0  0  0  0  0  0
   27.3182   14.8099   22.3259 O   0  0  0  0  0  0  0  0  0  0  0  0
  2  1  1  6  0  0  0
  2  3  1  0  0  0  0
  2  5  1  0  0  0  0
  3  4  1  0  0  0  0
  3 10  1  0  0  0  0
  5  6  1  0  0  0  0
  6  7  1  0  0  0  0
  7  8  1  0  0  0  0
  8  9  1  0  0  0  0
M  END
>  <CHROM.1>
-38.03841067,-177.89637659,67.59847371,-179.66292431,-177.02150642,28.55705864
15.65178573,20.82993267,-2.82687389,0.48299997,1.42016426

>  <Name>
ligand

>  <RI>
0

>  <Rbt.Current_Directory>
/home/itssahil/PROJECTS/Mol_Feturizer/New_Systems/rnas/3DIM

>  <Rbt.Executable>
rbdock ($Id: //depot/dev/client3/rdock/2013.1/src/exe/rbdock.cxx#4 $)

>  <Rbt.Library>
libRbt.so (2013.1, Build901 2013/11/27)

>  <Rbt.Parameter_File>
/export/apps/rDock/src/rDock_2013.1_src/data/scripts/dock_solv.prm

>  <Rbt.Receptor>
prm/pocket_docking_3.prm

>  <SCORE>
-12.1782

>  <SCORE.INTER>
-9.12873

>  <SCORE.INTER.CONST>
1

>  <SCORE.INTER.POLAR>
0

>  <SCORE.INTER.ROT>
5

>  <SCORE.INTER.SOLV>
15.3794

>  <SCORE.INTER.VDW>
-18.1456

>  <SCORE.INTER.norm>
-0.912873

>  <SCORE.INTRA>
-3.0495

>  <SCORE.INTRA.DIHEDRAL>
-4.01533

>  <SCORE.INTRA.DIHEDRAL.0>
5.8785

>  <SCORE.INTRA.POLAR>
0

>  <SCORE.INTRA.POLAR.0>
0

>  <SCORE.INTRA.REPUL>
0

>  <SCORE.INTRA.REPUL.0>
0

>  <SCORE.INTRA.SOLV>
-1.64252

>  <SCORE.INTRA.SOLV.lig_0>
-31.9559

>  <SCORE.INTRA.VDW>
-0.220574

>  <SCORE.INTRA.VDW.0>
-0.507645

>  <SCORE.INTRA.norm>
-0.30495

>  <SCORE.RESTR>
0

>  <SCORE.RESTR.CAVITY>
0

>  <SCORE.RESTR.norm>
0

>  <SCORE.SYSTEM>
0

>  <SCORE.SYSTEM.CONST>
0

>  <SCORE.SYSTEM.DIHEDRAL>
0

>  <SCORE.SYSTEM.SOLV>
0

>  <SCORE.SYSTEM.norm>
0

>  <SCORE.heavy>
10

>  <SCORE.norm>
-1.21782

>  <RMSD>
5.346

$$$$
ligand
 OpenBabel11021811473D
libRbt.so/2013.1/901 2013/11/27
 10  9  0  0  0  0  0  0  0  0999 V2000
   27.3736   13.6879   18.9392 N   0  0  0  0  0  0  0  0  0  0  0  0
   27.9026   14.5991   19.9881 C   0  0  2  0  0  0  0  0  0  0  0  0
   26.9177   14.7445   21.1486 C   0  0  0  0  0  0  0  0  0  0  0  0
   27.3121   14.8215   22.3080 O   0  0  0  0  0  0  0  0  0  0  0  0
   28.2791   15.9532   19.3761 C   0  0  0  0  0  0  0  0  0  0  0  0
   28.9202   16.9036   20.3822 C   0  0  0  0  0  0  0  0  0  0  0  0
   30.2853   16.4270   20.8587 C   0  0  0  0  0  0  0  0  0  0  0  0
   30.8890   17.4093   21.8631 C   0  0  0  0  0  0  0  0  0  0  0  0
   32.2822   17.0434   22.3287 N   0  0  0  0  0  0  0  0  0  0  0  0
   25.7055   14.8316   20.9896 O   0  0  0  0  0  0  0  0  0  0  0  0
  2  1  1  6  0  0  0
  2  3  1  0  0  0  0
  2  5  1  0  0  0  0
  3  4  1  0  0  0  0
  3 10  1  0  0  0  0
  5  6  1  0  0  0  0
  6  7  1  0  0  0  0
  7  8  1  0  0  0  0
  8  9  1  0  0  0  0
M  END
>  <CHROM.1>
142.32362410,-175.99144296,66.90523362,179.96362197,-176.86256002,28.55701101
15.63964690,20.84270697,-2.81279365,0.47321190,1.40136344

>  <Name>
ligand

>  <RI>
0

>  <Rbt.Current_Directory>
/home/itssahil/PROJECTS/Mol_Feturizer/New_Systems/rnas/3DIM

>  <Rbt.Executable>
rbdock ($Id: //depot/dev/client3/rdock/2013.1/src/exe/rbdock.cxx#4 $)

>  <Rbt.Library>
libRbt.so (2013.1, Build901 2013/11/27)

>  <Rbt.Parameter_File>
/export/apps/rDock/src/rDock_2013.1_src/data/scripts/dock_solv.prm

>  <Rbt.Receptor>
prm/pocket_docking_3.prm

>  <SCORE>
-12.2781

>  <SCORE.INTER>
-9.11965

>  <SCORE.INTER.CONST>
1

>  <SCORE.INTER.POLAR>
0

>  <SCORE.INTER.ROT>
5

>  <SCORE.INTER.SOLV>
15.4064

>  <SCORE.INTER.VDW>
-18.1486

>  <SCORE.INTER.norm>
-0.911965

>  <SCORE.INTRA>
-3.15843

>  <SCORE.INTRA.DIHEDRAL>
-4.15672

>  <SCORE.INTRA.DIHEDRAL.0>
5.8785

>  <SCORE.INTRA.POLAR>
0

>  <SCORE.INTRA.POLAR.0>
0

>  <SCORE.INTRA.REPUL>
0

>  <SCORE.INTRA.REPUL.0>
0

>  <SCORE.INTRA.SOLV>
-1.6521

>  <SCORE.INTRA.SOLV.lig_0>
-31.9559

>  <SCORE.INTRA.VDW>
-0.254017

>  <SCORE.INTRA.VDW.0>
-0.507645

>  <SCORE.INTRA.norm>
-0.315843

>  <SCORE.RESTR>
0

>  <SCORE.RESTR.CAVITY>
0

>  <SCORE.RESTR.norm>
0

>  <SCORE.SYSTEM>
0

>  <SCORE.SYSTEM.CONST>
0

>  <SCORE.SYSTEM.DIHEDRAL>
0

>  <SCORE.SYSTEM.SOLV>
0

>  <SCORE.SYSTEM.norm>
0

>  <SCORE.heavy>
10

>  <SCORE.norm>
-1.22781

>  <RMSD>
5.348

$$$$
ligand
 OpenBabel11021811473D
libRbt.so/2013.1/901 2013/11/27
 10  9  0  0  0  0  0  0  0  0999 V2000
   28.9469   15.3132   19.9209 N   0  0  0  0  0  0  0  0  0  0  0  0
   28.2376   14.7766   21.1123 C   0  0  2  0  0  0  0  0  0  0  0  0
   26.7204   14.8679   20.9459 C   0  0  0  0  0  0  0  0  0  0  0  0
   25.9617   14.3729   21.7735 O   0  0  0  0  0  0  0  0  0  0  0  0
   28.7234   15.4822   22.3834 C   0  0  0  0  0  0  0  0  0  0  0  0
   30.1609   15.1268   22.7493 C   0  0  0  0  0  0  0  0  0  0  0  0
   31.1871   15.9049   21.9376 C   0  0  0  0  0  0  0  0  0  0  0  0
   31.2737   17.3565   22.4106 C   0  0  0  0  0  0  0  0  0  0  0  0
   32.5176   18.0863   21.9502 N   0  0  0  0  0  0  0  0  0  0  0  0
   26.1844   15.4627   20.0180 O   0  0  0  0  0  0  0  0  0  0  0  0
  2  1  1  6  0  0  0
  2  3  1  0  0  0  0
  2  5  1  0  0  0  0
  3  4  1  0  0  0  0
  3 10  1  0  0  0  0
  5  6  1  0  0  0  0
  6  7  1  0  0  0  0
  7  8  1  0  0  0  0
  8  9  1  0  0  0  0
M  END
>  <CHROM.1>
173.79024310,-69.04668544,80.17484076,74.29690960,163.28160509,28.94711460
15.67147462,21.51398140,-3.12509974,0.46207180,2.05007199

>  <Name>
ligand

>  <RI>
0

>  <Rbt.Current_Directory>
/home/itssahil/PROJECTS/Mol_Feturizer/New_Systems/rnas/3DIM

>  <Rbt.Executable>
rbdock ($Id: //depot/dev/client3/rdock/2013.1/src/exe/rbdock.cxx#4 $)

>  <Rbt.Library>
libRbt.so (2013.1, Build901 2013/11/27)

>  <Rbt.Parameter_File>
/export/apps/rDock/src/rDock_2013.1_src/data/scripts/dock_solv.prm

>  <Rbt.Receptor>
prm/pocket_docking_5.prm

>  <SCORE>
-8.94961

>  <SCORE.INTER>
-9.0667

>  <SCORE.INTER.CONST>
1

>  <SCORE.INTER.POLAR>
0

>  <SCORE.INTER.ROT>
5

>  <SCORE.INTER.SOLV>
11.8343

>  <SCORE.INTER.VDW>
-16.9226

>  <SCORE.INTER.norm>
-0.90667

>  <SCORE.INTRA>
0.117091

>  <SCORE.INTRA.DIHEDRAL>
-0.705656

>  <SCORE.INTRA.DIHEDRAL.0>
5.8785

>  <SCORE.INTRA.POLAR>
0

>  <SCORE.INTRA.POLAR.0>
0

>  <SCORE.INTRA.REPUL>
0

>  <SCORE.INTRA.REPUL.0>
0

>  <SCORE.INTRA.SOLV>
0.575208

>  <SCORE.INTRA.SOLV.lig_0>
-31.9559

>  <SCORE.INTRA.VDW>
0.182315

>  <SCORE.INTRA.VDW.0>
-0.507645

>  <SCORE.INTRA.norm>
0.0117091

>  <SCORE.RESTR>
0

>  <SCORE.RESTR.CAVITY>
0

>  <SCORE.RESTR.norm>
0

>  <SCORE.SYSTEM>
0

>  <SCORE.SYSTEM.CONST>
0

>  <SCORE.SYSTEM.DIHEDRAL>
0

>  <SCORE.SYSTEM.SOLV>
0

>  <SCORE.SYSTEM.norm>
0

>  <SCORE.heavy>
10

>  <SCORE.norm>
-0.894961

>  <RMSD>
5.348

$$$$
ligand
 OpenBabel11021811473D
libRbt.so/2013.1/901 2013/11/27
 10  9  0  0  0  0  0  0  0  0999 V2000
   27.3384   13.7296   19.0299 N   0  0  0  0  0  0  0  0  0  0  0  0
   27.8836   14.6466   20.0654 C   0  0  2  0  0  0  0  0  0  0  0  0
   26.9197   14.7937   21.2432 C   0  0  0  0  0  0  0  0  0  0  0  0
   25.7049   14.8030   21.0699 O   0  0  0  0  0  0  0  0  0  0  0  0
   28.2446   15.9994   19.4413 C   0  0  0  0  0  0  0  0  0  0  0  0
   28.9156   16.9500   20.4275 C   0  0  0  0  0  0  0  0  0  0  0  0
   30.2912   16.4698   20.8687 C   0  0  0  0  0  0  0  0  0  0  0  0
   30.9178   17.4441   21.8668 C   0  0  0  0  0  0  0  0  0  0  0  0
   32.3013   17.0476   22.3364 N   0  0  0  0  0  0  0  0  0  0  0  0
   27.2939   14.8686   22.4078 O   0  0  0  0  0  0  0  0  0  0  0  0
  2  1  1  6  0  0  0
  2  3  1  0  0  0  0
  2  5  1  0  0  0  0
  3  4  1  0  0  0  0
  3 10  1  0  0  0  0
  5  6  1  0  0  0  0
  6  7  1  0  0  0  0
  7  8  1  0  0  0  0
  8  9  1  0  0  0  0
M  END
>  <CHROM.1>
-36.05193685,-175.33102082,66.73509570,-179.36857253,-179.00013577,28.55127101
15.67179102,20.90040516,-2.84346821,0.48016561,1.42715324

>  <Name>
ligand

>  <RI>
0

>  <Rbt.Current_Directory>
/home/itssahil/PROJECTS/Mol_Feturizer/New_Systems/rnas/3DIM

>  <Rbt.Executable>
rbdock ($Id: //depot/dev/client3/rdock/2013.1/src/exe/rbdock.cxx#4 $)

>  <Rbt.Library>
libRbt.so (2013.1, Build901 2013/11/27)

>  <Rbt.Parameter_File>
/export/apps/rDock/src/rDock_2013.1_src/data/scripts/dock_solv.prm

>  <Rbt.Receptor>
prm/pocket_docking_7.prm

>  <SCORE>
-12.0477

>  <SCORE.INTER>
-8.98191

>  <SCORE.INTER.CONST>
1

>  <SCORE.INTER.POLAR>
0

>  <SCORE.INTER.ROT>
5

>  <SCORE.INTER.SOLV>
15.448

>  <SCORE.INTER.VDW>
-18.0706

>  <SCORE.INTER.norm>
-0.898191

>  <SCORE.INTRA>
-3.06583

>  <SCORE.INTRA.DIHEDRAL>
-4.02855

>  <SCORE.INTRA.DIHEDRAL.0>
5.8785

>  <SCORE.INTRA.POLAR>
0

>  <SCORE.INTRA.POLAR.0>
0

>  <SCORE.INTRA.REPUL>
0

>  <SCORE.INTRA.REPUL.0>
0

>  <SCORE.INTRA.SOLV>
-1.62106

>  <SCORE.INTRA.SOLV.lig_0>
-31.9559

>  <SCORE.INTRA.VDW>
-0.241018

>  <SCORE.INTRA.VDW.0>
-0.507645

>  <SCORE.INTRA.norm>
-0.306583

>  <SCORE.RESTR>
0

>  <SCORE.RESTR.CAVITY>
0

>  <SCORE.RESTR.norm>
0

>  <SCORE.SYSTEM>
0

>  <SCORE.SYSTEM.CONST>
0

>  <SCORE.SYSTEM.DIHEDRAL>
0

>  <SCORE.SYSTEM.SOLV>
0

>  <SCORE.SYSTEM.norm>
0

>  <SCORE.heavy>
10

>  <SCORE.norm>
-1.20477

>  <RMSD>
5.350

$$$$
ligand
 OpenBabel11021811473D
libRbt.so/2013.1/901 2013/11/27
 10  9  0  0  0  0  0  0  0  0999 V2000
   28.2331   15.3383   19.2459 N   0  0  0  0  0  0  0  0  0  0  0  0
   28.2669   14.5565   20.5099 C   0  0  2  0  0  0  0  0  0  0  0  0
   27.0421   14.8468   21.3780 C   0  0  0  0  0  0  0  0  0  0  0  0
   27.1497   15.0163   22.5885 O   0  0  0  0  0  0  0  0  0  0  0  0
   29.5799   14.8119   21.2587 C   0  0  0  0  0  0  0  0  0  0  0  0
   29.8366   16.2921   21.5225 C   0  0  0  0  0  0  0  0  0  0  0  0
   31.2183   16.5581   22.1035 C   0  0  0  0  0  0  0  0  0  0  0  0
   31.4305   18.0520   22.3513 C   0  0  0  0  0  0  0  0  0  0  0  0
   32.8258   18.4124   22.8150 N   0  0  0  0  0  0  0  0  0  0  0  0
   25.9113   14.9648   20.9203 O   0  0  0  0  0  0  0  0  0  0  0  0
  2  1  1  6  0  0  0
  2  3  1  0  0  0  0
  2  5  1  0  0  0  0
  3  4  1  0  0  0  0
  3 10  1  0  0  0  0
  5  6  1  0  0  0  0
  6  7  1  0  0  0  0
  7  8  1  0  0  0  0
  8  9  1  0  0  0  0
M  END
>  <CHROM.1>
-136.64857341,55.02219673,-172.61798395,-179.98813125,-174.88833209,29.11220644
15.88395154,21.48559973,-2.72932698,0.42092373,1.21499573

>  <Name>
ligand

>  <RI>
0

>  <Rbt.Current_Directory>
/home/itssahil/PROJECTS/Mol_Feturizer/New_Systems/rnas/3DIM

>  <Rbt.Executable>
rbdock ($Id: //depot/dev/client3/rdock/2013.1/src/exe/rbdock.cxx#4 $)

>  <Rbt.Library>
libRbt.so (2013.1, Build901 2013/11/27)

>  <Rbt.Parameter_File>
/export/apps/rDock/src/rDock_2013.1_src/data/scripts/dock_solv.prm

>  <Rbt.Receptor>
prm/blind_docking_60.prm

>  <SCORE>
-10.8113

>  <SCORE.INTER>
-8.90168

>  <SCORE.INTER.CONST>
1

>  <SCORE.INTER.POLAR>
0

>  <SCORE.INTER.ROT>
5

>  <SCORE.INTER.SOLV>
13.5377

>  <SCORE.INTER.VDW>
-17.3804

>  <SCORE.INTER.norm>
-0.890168

>  <SCORE.INTRA>
-1.90959

>  <SCORE.INTRA.DIHEDRAL>
-3.87205

>  <SCORE.INTRA.DIHEDRAL.0>
5.8785

>  <SCORE.INTRA.POLAR>
0

>  <SCORE.INTRA.POLAR.0>
0

>  <SCORE.INTRA.REPUL>
0

>  <SCORE.INTRA.REPUL.0>
0

>  <SCORE.INTRA.SOLV>
-0.849185

>  <SCORE.INTRA.SOLV.lig_0>
-31.9559

>  <SCORE.INTRA.VDW>
0.451031

>  <SCORE.INTRA.VDW.0>
-0.507645

>  <SCORE.INTRA.norm>
-0.190959

>  <SCORE.RESTR>
0

>  <SCORE.RESTR.CAVITY>
0

>  <SCORE.RESTR.norm>
0

>  <SCORE.SYSTEM>
0

>  <SCORE.SYSTEM.CONST>
0

>  <SCORE.SYSTEM.DIHEDRAL>
0

>  <SCORE.SYSTEM.SOLV>
0

>  <SCORE.SYSTEM.norm>
0

>  <SCORE.heavy>
10

>  <SCORE.norm>
-1.08113

>  <RMSD>
5.351

$$$$
ligand
 OpenBabel11021811473D
libRbt.so/2013.1/901 2013/11/27
 10  9  0  0  0  0  0  0  0  0999 V2000
   27.3167   13.6805   18.9386 N   0  0  0  0  0  0  0  0  0  0  0  0
   27.8757   14.5850   19.9776 C   0  0  2  0  0  0  0  0  0  0  0  0
   26.9132   14.7439   21.1550 C   0  0  0  0  0  0  0  0  0  0  0  0
   27.3281   14.8068   22.3081 O   0  0  0  0  0  0  0  0  0  0  0  0
   28.2594   15.9338   19.3583 C   0  0  0  0  0  0  0  0  0  0  0  0
   28.8861   16.8940   20.3642 C   0  0  0  0  0  0  0  0  0  0  0  0
   30.2702   16.4529   20.8193 C   0  0  0  0  0  0  0  0  0  0  0  0
   30.8521   17.4360   21.8358 C   0  0  0  0  0  0  0  0  0  0  0  0
   32.2533   17.0956   22.2968 N   0  0  0  0  0  0  0  0  0  0  0  0
   25.7006   14.8561   21.0165 O   0  0  0  0  0  0  0  0  0  0  0  0
  2  1  1  6  0  0  0
  2  3  1  0  0  0  0
  2  5  1  0  0  0  0
  3  4  1  0  0  0  0
  3 10  1  0  0  0  0
  5  6  1  0  0  0  0
  6  7  1  0  0  0  0
  7  8  1  0  0  0  0
  8  9  1  0  0  0  0
M  END
>  <CHROM.1>
141.80666571,-178.00376769,69.31766305,-179.41962755,-177.69967968,28.53637357
15.64622284,20.83194067,-2.81654242,0.48218321,1.40162349

>  <Name>
ligand

>  <RI>
0

>  <Rbt.Current_Directory>
/home/itssahil/PROJECTS/Mol_Feturizer/New_Systems/rnas/3DIM

>  <Rbt.Executable>
rbdock ($Id: //depot/dev/client3/rdock/2013.1/src/exe/rbdock.cxx#4 $)

>  <Rbt.Library>
libRbt.so (2013.1, Build901 2013/11/27)

>  <Rbt.Parameter_File>
/export/apps/rDock/src/rDock_2013.1_src/data/scripts/dock_solv.prm

>  <Rbt.Receptor>
prm/pocket_docking_8.prm

>  <SCORE>
-12.2681

>  <SCORE.INTER>
-9.1437

>  <SCORE.INTER.CONST>
1

>  <SCORE.INTER.POLAR>
0

>  <SCORE.INTER.ROT>
5

>  <SCORE.INTER.SOLV>
15.3835

>  <SCORE.INTER.VDW>
-18.157

>  <SCORE.INTER.norm>
-0.91437

>  <SCORE.INTRA>
-3.12444

>  <SCORE.INTRA.DIHEDRAL>
-4.05496

>  <SCORE.INTRA.DIHEDRAL.0>
5.8785

>  <SCORE.INTRA.POLAR>
0

>  <SCORE.INTRA.POLAR.0>
0

>  <SCORE.INTRA.REPUL>
0

>  <SCORE.INTRA.REPUL.0>
0

>  <SCORE.INTRA.SOLV>
-1.67833

>  <SCORE.INTRA.SOLV.lig_0>
-31.9559

>  <SCORE.INTRA.VDW>
-0.257788

>  <SCORE.INTRA.VDW.0>
-0.507645

>  <SCORE.INTRA.norm>
-0.312444

>  <SCORE.RESTR>
0

>  <SCORE.RESTR.CAVITY>
0

>  <SCORE.RESTR.norm>
0

>  <SCORE.SYSTEM>
0

>  <SCORE.SYSTEM.CONST>
0

>  <SCORE.SYSTEM.DIHEDRAL>
0

>  <SCORE.SYSTEM.SOLV>
0

>  <SCORE.SYSTEM.norm>
0

>  <SCORE.heavy>
10

>  <SCORE.norm>
-1.22681

>  <RMSD>
5.352

$$$$
ligand
 OpenBabel11021811473D
libRbt.so/2013.1/901 2013/11/27
 10  9  0  0  0  0  0  0  0  0999 V2000
   27.3760   13.6649   18.9417 N   0  0  0  0  0  0  0  0  0  0  0  0
   27.8980   14.5931   19.9791 C   0  0  2  0  0  0  0  0  0  0  0  0
   26.9027   14.7625   21.1273 C   0  0  0  0  0  0  0  0  0  0  0  0
   27.2867   14.8669   22.2881 O   0  0  0  0  0  0  0  0  0  0  0  0
   28.2849   15.9348   19.3465 C   0  0  0  0  0  0  0  0  0  0  0  0
   28.9102   16.9048   20.3438 C   0  0  0  0  0  0  0  0  0  0  0  0
   30.2607   16.4306   20.8623 C   0  0  0  0  0  0  0  0  0  0  0  0
   30.8598   17.4440   21.8381 C   0  0  0  0  0  0  0  0  0  0  0  0
   32.2396   17.0791   22.3428 N   0  0  0  0  0  0  0  0  0  0  0  0
   25.6918   14.8430   20.9559 O   0  0  0  0  0  0  0  0  0  0  0  0
  2  1  1  6  0  0  0
  2  3  1  0  0  0  0
  2  5  1  0  0  0  0
  3  4  1  0  0  0  0
  3 10  1  0  0  0  0
  5  6  1  0  0  0  0
  6  7  1  0  0  0  0
  7  8  1  0  0  0  0
  8  9  1  0  0  0  0
M  END
>  <CHROM.1>
142.75000279,-176.41455476,66.31045726,179.00061995,-176.90596901,28.54112616
15.65043613,20.82674386,-2.79684992,0.47164837,1.37784740

>  <Name>
ligand

>  <RI>
0

>  <Rbt.Current_Directory>
/home/itssahil/PROJECTS/Mol_Feturizer/New_Systems/rnas/3DIM

>  <Rbt.Executable>
rbdock ($Id: //depot/dev/client3/rdock/2013.1/src/exe/rbdock.cxx#4 $)

>  <Rbt.Library>
libRbt.so (2013.1, Build901 2013/11/27)

>  <Rbt.Parameter_File>
/export/apps/rDock/src/rDock_2013.1_src/data/scripts/dock_solv.prm

>  <Rbt.Receptor>
prm/pocket_docking_3.prm

>  <SCORE>
-12.2064

>  <SCORE.INTER>
-9.04609

>  <SCORE.INTER.CONST>
1

>  <SCORE.INTER.POLAR>
0

>  <SCORE.INTER.ROT>
5

>  <SCORE.INTER.SOLV>
15.3077

>  <SCORE.INTER.VDW>
-18.0666

>  <SCORE.INTER.norm>
-0.904609

>  <SCORE.INTRA>
-3.16033

>  <SCORE.INTRA.DIHEDRAL>
-4.19834

>  <SCORE.INTRA.DIHEDRAL.0>
5.8785

>  <SCORE.INTRA.POLAR>
0

>  <SCORE.INTRA.POLAR.0>
0

>  <SCORE.INTRA.REPUL>
0

>  <SCORE.INTRA.REPUL.0>
0

>  <SCORE.INTRA.SOLV>
-1.65176

>  <SCORE.INTRA.SOLV.lig_0>
-31.9559

>  <SCORE.INTRA.VDW>
-0.235283

>  <SCORE.INTRA.VDW.0>
-0.507645

>  <SCORE.INTRA.norm>
-0.316033

>  <SCORE.RESTR>
0

>  <SCORE.RESTR.CAVITY>
0

>  <SCORE.RESTR.norm>
0

>  <SCORE.SYSTEM>
0

>  <SCORE.SYSTEM.CONST>
0

>  <SCORE.SYSTEM.DIHEDRAL>
0

>  <SCORE.SYSTEM.SOLV>
0

>  <SCORE.SYSTEM.norm>
0

>  <SCORE.heavy>
10

>  <SCORE.norm>
-1.22064

>  <RMSD>
5.353

$$$$
ligand
 OpenBabel11021811473D
libRbt.so/2013.1/901 2013/11/27
 10  9  0  0  0  0  0  0  0  0999 V2000
   27.3351   13.7252   19.0243 N   0  0  0  0  0  0  0  0  0  0  0  0
   27.8779   14.6423   20.0609 C   0  0  2  0  0  0  0  0  0  0  0  0
   26.9131   14.7860   21.2385 C   0  0  0  0  0  0  0  0  0  0  0  0
   25.6982   14.7791   21.0662 O   0  0  0  0  0  0  0  0  0  0  0  0
   28.2362   15.9965   19.4385 C   0  0  0  0  0  0  0  0  0  0  0  0
   28.9062   16.9469   20.4257 C   0  0  0  0  0  0  0  0  0  0  0  0
   30.2778   16.4624   20.8745 C   0  0  0  0  0  0  0  0  0  0  0  0
   30.9083   17.4425   21.8645 C   0  0  0  0  0  0  0  0  0  0  0  0
   32.3015   17.0589   22.3158 N   0  0  0  0  0  0  0  0  0  0  0  0
   27.2874   14.8738   22.4023 O   0  0  0  0  0  0  0  0  0  0  0  0
  2  1  1  6  0  0  0
  2  3  1  0  0  0  0
  2  5  1  0  0  0  0
  3  4  1  0  0  0  0
  3 10  1  0  0  0  0
  5  6  1  0  0  0  0
  6  7  1  0  0  0  0
  7  8  1  0  0  0  0
  8  9  1  0  0  0  0
M  END
>  <CHROM.1>
-35.29954704,-175.26562178,66.24342134,-179.83137348,-177.62523445,28.54432694
15.66780434,20.89584496,-2.84232592,0.48113699,1.42290102

>  <Name>
ligand

>  <RI>
0

>  <Rbt.Current_Directory>
/home/itssahil/PROJECTS/Mol_Feturizer/New_Systems/rnas/3DIM

>  <Rbt.Executable>
rbdock ($Id: //depot/dev/client3/rdock/2013.1/src/exe/rbdock.cxx#4 $)

>  <Rbt.Library>
libRbt.so (2013.1, Build901 2013/11/27)

>  <Rbt.Parameter_File>
/export/apps/rDock/src/rDock_2013.1_src/data/scripts/dock_solv.prm

>  <Rbt.Receptor>
prm/pocket_docking_5.prm

>  <SCORE>
-12.032

>  <SCORE.INTER>
-8.9745

>  <SCORE.INTER.CONST>
1

>  <SCORE.INTER.POLAR>
0

>  <SCORE.INTER.ROT>
5

>  <SCORE.INTER.SOLV>
15.4275

>  <SCORE.INTER.VDW>
-18.0588

>  <SCORE.INTER.norm>
-0.89745

>  <SCORE.INTRA>
-3.05754

>  <SCORE.INTRA.DIHEDRAL>
-4.03534

>  <SCORE.INTRA.DIHEDRAL.0>
5.8785

>  <SCORE.INTRA.POLAR>
0

>  <SCORE.INTRA.POLAR.0>
0

>  <SCORE.INTRA.REPUL>
0

>  <SCORE.INTRA.REPUL.0>
0

>  <SCORE.INTRA.SOLV>
-1.61756

>  <SCORE.INTRA.SOLV.lig_0>
-31.9559

>  <SCORE.INTRA.VDW>
-0.231087

>  <SCORE.INTRA.VDW.0>
-0.507645

>  <SCORE.INTRA.norm>
-0.305754

>  <SCORE.RESTR>
0

>  <SCORE.RESTR.CAVITY>
0

>  <SCORE.RESTR.norm>
0

>  <SCORE.SYSTEM>
0

>  <SCORE.SYSTEM.CONST>
0

>  <SCORE.SYSTEM.DIHEDRAL>
0

>  <SCORE.SYSTEM.SOLV>
0

>  <SCORE.SYSTEM.norm>
0

>  <SCORE.heavy>
10

>  <SCORE.norm>
-1.2032

>  <RMSD>
5.353

$$$$
ligand
 OpenBabel11021811473D
libRbt.so/2013.1/901 2013/11/27
 10  9  0  0  0  0  0  0  0  0999 V2000
   26.2875   15.3720   20.3817 N   0  0  0  0  0  0  0  0  0  0  0  0
   27.6891   15.1886   19.9212 C   0  0  2  0  0  0  0  0  0  0  0  0
   27.7411   14.7087   18.4704 C   0  0  0  0  0  0  0  0  0  0  0  0
   28.3682   15.3317   17.6194 O   0  0  0  0  0  0  0  0  0  0  0  0
   28.4417   14.2476   20.8688 C   0  0  0  0  0  0  0  0  0  0  0  0
   28.6100   14.8243   22.2709 C   0  0  0  0  0  0  0  0  0  0  0  0
   29.5474   16.0232   22.3083 C   0  0  0  0  0  0  0  0  0  0  0  0
   30.9846   15.6052   21.9955 C   0  0  0  0  0  0  0  0  0  0  0  0
   31.9676   16.7552   21.9406 N   0  0  0  0  0  0  0  0  0  0  0  0
   27.2049   13.6746   18.0888 O   0  0  0  0  0  0  0  0  0  0  0  0
  2  1  1  1  0  0  0
  2  3  1  0  0  0  0
  2  5  1  0  0  0  0
  3  4  1  0  0  0  0
  3 10  1  0  0  0  0
  5  6  1  0  0  0  0
  6  7  1  0  0  0  0
  7  8  1  0  0  0  0
  8  9  1  0  0  0  0
M  END
>  <CHROM.1>
123.98553440,-65.15119753,-68.02649209,-67.66999304,176.90724231,28.67956558
15.16066504,20.34624397,2.33475922,-0.34162790,-1.63590193

>  <Name>
ligand

>  <RI>
0

>  <Rbt.Current_Directory>
/home/itssahil/PROJECTS/Mol_Feturizer/New_Systems/rnas/3DIM

>  <Rbt.Executable>
rbdock ($Id: //depot/dev/client3/rdock/2013.1/src/exe/rbdock.cxx#4 $)

>  <Rbt.Library>
libRbt.so (2013.1, Build901 2013/11/27)

>  <Rbt.Parameter_File>
/export/apps/rDock/src/rDock_2013.1_src/data/scripts/dock_solv.prm

>  <Rbt.Receptor>
prm/blind_docking_60.prm

>  <SCORE>
-10.8002

>  <SCORE.INTER>
-9.07262

>  <SCORE.INTER.CONST>
1

>  <SCORE.INTER.POLAR>
0

>  <SCORE.INTER.ROT>
5

>  <SCORE.INTER.SOLV>
15.59

>  <SCORE.INTER.VDW>
-18.1784

>  <SCORE.INTER.norm>
-0.907262

>  <SCORE.INTRA>
-1.72755

>  <SCORE.INTRA.DIHEDRAL>
-3.72045

>  <SCORE.INTRA.DIHEDRAL.0>
5.8785

>  <SCORE.INTRA.POLAR>
0

>  <SCORE.INTRA.POLAR.0>
0

>  <SCORE.INTRA.REPUL>
0

>  <SCORE.INTRA.REPUL.0>
0

>  <SCORE.INTRA.SOLV>
-0.354916

>  <SCORE.INTRA.SOLV.lig_0>
-31.9559

>  <SCORE.INTRA.VDW>
0.310134

>  <SCORE.INTRA.VDW.0>
-0.507645

>  <SCORE.INTRA.norm>
-0.172755

>  <SCORE.RESTR>
0

>  <SCORE.RESTR.CAVITY>
0

>  <SCORE.RESTR.norm>
0

>  <SCORE.SYSTEM>
0

>  <SCORE.SYSTEM.CONST>
0

>  <SCORE.SYSTEM.DIHEDRAL>
0

>  <SCORE.SYSTEM.SOLV>
0

>  <SCORE.SYSTEM.norm>
0

>  <SCORE.heavy>
10

>  <SCORE.norm>
-1.08002

>  <RMSD>
5.356

$$$$
ligand
 OpenBabel11021811473D
libRbt.so/2013.1/901 2013/11/27
 10  9  0  0  0  0  0  0  0  0999 V2000
   27.3536   13.6963   18.9303 N   0  0  0  0  0  0  0  0  0  0  0  0
   27.8867   14.6010   19.9828 C   0  0  2  0  0  0  0  0  0  0  0  0
   26.8972   14.7560   21.1382 C   0  0  0  0  0  0  0  0  0  0  0  0
   27.2869   14.8403   22.2986 O   0  0  0  0  0  0  0  0  0  0  0  0
   28.2810   15.9514   19.3740 C   0  0  0  0  0  0  0  0  0  0  0  0
   28.9120   16.9001   20.3882 C   0  0  0  0  0  0  0  0  0  0  0  0
   30.2757   16.4267   20.8716 C   0  0  0  0  0  0  0  0  0  0  0  0
   30.8773   17.4166   21.8698 C   0  0  0  0  0  0  0  0  0  0  0  0
   32.2682   17.0525   22.3436 N   0  0  0  0  0  0  0  0  0  0  0  0
   25.6859   14.8441   20.9735 O   0  0  0  0  0  0  0  0  0  0  0  0
  2  1  1  6  0  0  0
  2  3  1  0  0  0  0
  2  5  1  0  0  0  0
  3  4  1  0  0  0  0
  3 10  1  0  0  0  0
  5  6  1  0  0  0  0
  6  7  1  0  0  0  0
  7  8  1  0  0  0  0
  8  9  1  0  0  0  0
M  END
>  <CHROM.1>
143.00405165,-176.66926043,67.75679892,179.20699643,-176.96665911,28.54259325
15.64627074,20.84139312,-2.80424495,0.46809713,1.39150252

>  <Name>
ligand

>  <RI>
0

>  <Rbt.Current_Directory>
/home/itssahil/PROJECTS/Mol_Feturizer/New_Systems/rnas/3DIM

>  <Rbt.Executable>
rbdock ($Id: //depot/dev/client3/rdock/2013.1/src/exe/rbdock.cxx#4 $)

>  <Rbt.Library>
libRbt.so (2013.1, Build901 2013/11/27)

>  <Rbt.Parameter_File>
/export/apps/rDock/src/rDock_2013.1_src/data/scripts/dock_solv.prm

>  <Rbt.Receptor>
prm/pocket_docking_4.prm

>  <SCORE>
-12.2492

>  <SCORE.INTER>
-9.10444

>  <SCORE.INTER.CONST>
1

>  <SCORE.INTER.POLAR>
0

>  <SCORE.INTER.ROT>
5

>  <SCORE.INTER.SOLV>
15.423

>  <SCORE.INTER.VDW>
-18.144

>  <SCORE.INTER.norm>
-0.910444

>  <SCORE.INTRA>
-3.14472

>  <SCORE.INTRA.DIHEDRAL>
-4.1247

>  <SCORE.INTRA.DIHEDRAL.0>
5.8785

>  <SCORE.INTRA.POLAR>
0

>  <SCORE.INTRA.POLAR.0>
0

>  <SCORE.INTRA.REPUL>
0

>  <SCORE.INTRA.REPUL.0>
0

>  <SCORE.INTRA.SOLV>
-1.66099

>  <SCORE.INTRA.SOLV.lig_0>
-31.9559

>  <SCORE.INTRA.VDW>
-0.251875

>  <SCORE.INTRA.VDW.0>
-0.507645

>  <SCORE.INTRA.norm>
-0.314472

>  <SCORE.RESTR>
0

>  <SCORE.RESTR.CAVITY>
0

>  <SCORE.RESTR.norm>
0

>  <SCORE.SYSTEM>
0

>  <SCORE.SYSTEM.CONST>
0

>  <SCORE.SYSTEM.DIHEDRAL>
0

>  <SCORE.SYSTEM.SOLV>
0

>  <SCORE.SYSTEM.norm>
0

>  <SCORE.heavy>
10

>  <SCORE.norm>
-1.22492

>  <RMSD>
5.357

$$$$
ligand
 OpenBabel11021811473D
libRbt.so/2013.1/901 2013/11/27
 10  9  0  0  0  0  0  0  0  0999 V2000
   28.7546   14.6082   19.2893 N   0  0  0  0  0  0  0  0  0  0  0  0
   28.2661   14.2422   20.6449 C   0  0  2  0  0  0  0  0  0  0  0  0
   26.9164   14.8945   20.9461 C   0  0  0  0  0  0  0  0  0  0  0  0
   26.2955   14.6220   21.9688 O   0  0  0  0  0  0  0  0  0  0  0  0
   29.3225   14.5849   21.7016 C   0  0  0  0  0  0  0  0  0  0  0  0
   29.7843   16.0369   21.6328 C   0  0  0  0  0  0  0  0  0  0  0  0
   31.0608   16.2893   22.4230 C   0  0  0  0  0  0  0  0  0  0  0  0
   31.5468   17.7269   22.2347 C   0  0  0  0  0  0  0  0  0  0  0  0
   32.9098   18.0046   22.8320 N   0  0  0  0  0  0  0  0  0  0  0  0
   26.4054   15.7393   20.2199 O   0  0  0  0  0  0  0  0  0  0  0  0
  2  1  1  6  0  0  0
  2  3  1  0  0  0  0
  2  5  1  0  0  0  0
  3  4  1  0  0  0  0
  3 10  1  0  0  0  0
  5  6  1  0  0  0  0
  6  7  1  0  0  0  0
  7  8  1  0  0  0  0
  8  9  1  0  0  0  0
M  END
>  <CHROM.1>
173.67957262,53.75779036,-165.41953508,175.45695538,-172.01465112,29.08586260
15.68225799,21.39281035,-2.62892904,0.22894832,0.97488673

>  <Name>
ligand

>  <RI>
0

>  <Rbt.Current_Directory>
/home/itssahil/PROJECTS/Mol_Feturizer/New_Systems/rnas/3DIM

>  <Rbt.Executable>
rbdock ($Id: //depot/dev/client3/rdock/2013.1/src/exe/rbdock.cxx#4 $)

>  <Rbt.Library>
libRbt.so (2013.1, Build901 2013/11/27)

>  <Rbt.Parameter_File>
/export/apps/rDock/src/rDock_2013.1_src/data/scripts/dock_solv.prm

>  <Rbt.Receptor>
prm/blind_docking_60.prm

>  <SCORE>
-10.3447

>  <SCORE.INTER>
-8.30381

>  <SCORE.INTER.CONST>
1

>  <SCORE.INTER.POLAR>
0

>  <SCORE.INTER.ROT>
5

>  <SCORE.INTER.SOLV>
13.3891

>  <SCORE.INTER.VDW>
-16.9322

>  <SCORE.INTER.norm>
-0.830381

>  <SCORE.INTRA>
-2.04093

>  <SCORE.INTRA.DIHEDRAL>
-3.06732

>  <SCORE.INTRA.DIHEDRAL.0>
5.8785

>  <SCORE.INTRA.POLAR>
0

>  <SCORE.INTRA.POLAR.0>
0

>  <SCORE.INTRA.REPUL>
0

>  <SCORE.INTRA.REPUL.0>
0

>  <SCORE.INTRA.SOLV>
-0.784211

>  <SCORE.INTRA.SOLV.lig_0>
-31.9559

>  <SCORE.INTRA.VDW>
-0.115161

>  <SCORE.INTRA.VDW.0>
-0.507645

>  <SCORE.INTRA.norm>
-0.204093

>  <SCORE.RESTR>
0

>  <SCORE.RESTR.CAVITY>
0

>  <SCORE.RESTR.norm>
0

>  <SCORE.SYSTEM>
0

>  <SCORE.SYSTEM.CONST>
0

>  <SCORE.SYSTEM.DIHEDRAL>
0

>  <SCORE.SYSTEM.SOLV>
0

>  <SCORE.SYSTEM.norm>
0

>  <SCORE.heavy>
10

>  <SCORE.norm>
-1.03447

>  <RMSD>
5.358

$$$$
ligand
 OpenBabel11021811473D
libRbt.so/2013.1/901 2013/11/27
 10  9  0  0  0  0  0  0  0  0999 V2000
   28.8610   14.2207   19.4828 N   0  0  0  0  0  0  0  0  0  0  0  0
   28.1870   14.2039   20.8078 C   0  0  2  0  0  0  0  0  0  0  0  0
   26.9015   15.0316   20.7900 C   0  0  0  0  0  0  0  0  0  0  0  0
   25.9118   14.6779   21.4233 O   0  0  0  0  0  0  0  0  0  0  0  0
   29.1557   14.6638   21.9033 C   0  0  0  0  0  0  0  0  0  0  0  0
   29.7715   16.0299   21.6184 C   0  0  0  0  0  0  0  0  0  0  0  0
   30.9570   16.3436   22.5205 C   0  0  0  0  0  0  0  0  0  0  0  0
   31.5773   17.6942   22.1606 C   0  0  0  0  0  0  0  0  0  0  0  0
   32.8891   17.9809   22.8596 N   0  0  0  0  0  0  0  0  0  0  0  0
   26.7991   16.0944   20.1882 O   0  0  0  0  0  0  0  0  0  0  0  0
  2  1  1  6  0  0  0
  2  3  1  0  0  0  0
  2  5  1  0  0  0  0
  3  4  1  0  0  0  0
  3 10  1  0  0  0  0
  5  6  1  0  0  0  0
  6  7  1  0  0  0  0
  7  8  1  0  0  0  0
  8  9  1  0  0  0  0
M  END
>  <CHROM.1>
143.44527636,55.01588648,-166.73156855,177.62155319,-170.78953006,29.06178301
15.70547099,21.37198981,-2.58505307,-0.07932352,0.49288696

>  <Name>
ligand

>  <RI>
0

>  <Rbt.Current_Directory>
/home/itssahil/PROJECTS/Mol_Feturizer/New_Systems/rnas/3DIM

>  <Rbt.Executable>
rbdock ($Id: //depot/dev/client3/rdock/2013.1/src/exe/rbdock.cxx#4 $)

>  <Rbt.Library>
libRbt.so (2013.1, Build901 2013/11/27)

>  <Rbt.Parameter_File>
/export/apps/rDock/src/rDock_2013.1_src/data/scripts/dock_solv.prm

>  <Rbt.Receptor>
prm/pocket_docking_5.prm

>  <SCORE>
-10.7151

>  <SCORE.INTER>
-8.3955

>  <SCORE.INTER.CONST>
1

>  <SCORE.INTER.POLAR>
0

>  <SCORE.INTER.ROT>
5

>  <SCORE.INTER.SOLV>
14.2427

>  <SCORE.INTER.VDW>
-17.2779

>  <SCORE.INTER.norm>
-0.83955

>  <SCORE.INTRA>
-2.31958

>  <SCORE.INTRA.DIHEDRAL>
-3.29113

>  <SCORE.INTRA.DIHEDRAL.0>
5.8785

>  <SCORE.INTRA.POLAR>
0

>  <SCORE.INTRA.POLAR.0>
0

>  <SCORE.INTRA.REPUL>
0

>  <SCORE.INTRA.REPUL.0>
0

>  <SCORE.INTRA.SOLV>
-0.819464

>  <SCORE.INTRA.SOLV.lig_0>
-31.9559

>  <SCORE.INTRA.VDW>
-0.264286

>  <SCORE.INTRA.VDW.0>
-0.507645

>  <SCORE.INTRA.norm>
-0.231958

>  <SCORE.RESTR>
0

>  <SCORE.RESTR.CAVITY>
0

>  <SCORE.RESTR.norm>
0

>  <SCORE.SYSTEM>
0

>  <SCORE.SYSTEM.CONST>
0

>  <SCORE.SYSTEM.DIHEDRAL>
0

>  <SCORE.SYSTEM.SOLV>
0

>  <SCORE.SYSTEM.norm>
0

>  <SCORE.heavy>
10

>  <SCORE.norm>
-1.07151

>  <RMSD>
5.359

$$$$
ligand
 OpenBabel11021811473D
libRbt.so/2013.1/901 2013/11/27
 10  9  0  0  0  0  0  0  0  0999 V2000
   28.8007   15.7337   19.6429 N   0  0  0  0  0  0  0  0  0  0  0  0
   28.4104   15.0126   20.8831 C   0  0  2  0  0  0  0  0  0  0  0  0
   26.8903   14.9382   21.0298 C   0  0  0  0  0  0  0  0  0  0  0  0
   26.1477   15.3604   20.1489 O   0  0  0  0  0  0  0  0  0  0  0  0
   29.0785   15.6545   22.1044 C   0  0  0  0  0  0  0  0  0  0  0  0
   30.6019   15.6173   22.0378 C   0  0  0  0  0  0  0  0  0  0  0  0
   31.1715   16.5710   20.9969 C   0  0  0  0  0  0  0  0  0  0  0  0
   32.7003   16.5381   21.0018 C   0  0  0  0  0  0  0  0  0  0  0  0
   33.3297   17.1135   22.2526 N   0  0  0  0  0  0  0  0  0  0  0  0
   26.3363   14.4272   21.9963 O   0  0  0  0  0  0  0  0  0  0  0  0
  2  1  1  6  0  0  0
  2  3  1  0  0  0  0
  2  5  1  0  0  0  0
  3  4  1  0  0  0  0
  3 10  1  0  0  0  0
  5  6  1  0  0  0  0
  6  7  1  0  0  0  0
  7  8  1  0  0  0  0
  8  9  1  0  0  0  0
M  END
>  <CHROM.1>
4.59469642,-60.72473169,71.37758152,177.89104335,-68.05105333,29.30121157
15.68971387,21.21058148,-3.10353799,0.30518289,1.81039602

>  <Name>
ligand

>  <RI>
0

>  <Rbt.Current_Directory>
/home/itssahil/PROJECTS/Mol_Feturizer/New_Systems/rnas/3DIM

>  <Rbt.Executable>
rbdock ($Id: //depot/dev/client3/rdock/2013.1/src/exe/rbdock.cxx#4 $)

>  <Rbt.Library>
libRbt.so (2013.1, Build901 2013/11/27)

>  <Rbt.Parameter_File>
/export/apps/rDock/src/rDock_2013.1_src/data/scripts/dock_solv.prm

>  <Rbt.Receptor>
prm/pocket_docking_5.prm

>  <SCORE>
-10.3039

>  <SCORE.INTER>
-9.66573

>  <SCORE.INTER.CONST>
1

>  <SCORE.INTER.POLAR>
0

>  <SCORE.INTER.ROT>
5

>  <SCORE.INTER.SOLV>
11.9446

>  <SCORE.INTER.VDW>
-17.3587

>  <SCORE.INTER.norm>
-0.966573

>  <SCORE.INTRA>
-0.638169

>  <SCORE.INTRA.DIHEDRAL>
-3.5936

>  <SCORE.INTRA.DIHEDRAL.0>
5.8785

>  <SCORE.INTRA.POLAR>
0

>  <SCORE.INTRA.POLAR.0>
0

>  <SCORE.INTRA.REPUL>
0

>  <SCORE.INTRA.REPUL.0>
0

>  <SCORE.INTRA.SOLV>
1.38374

>  <SCORE.INTRA.SOLV.lig_0>
-31.9559

>  <SCORE.INTRA.VDW>
0.466763

>  <SCORE.INTRA.VDW.0>
-0.507645

>  <SCORE.INTRA.norm>
-0.0638169

>  <SCORE.RESTR>
0

>  <SCORE.RESTR.CAVITY>
0

>  <SCORE.RESTR.norm>
0

>  <SCORE.SYSTEM>
0

>  <SCORE.SYSTEM.CONST>
0

>  <SCORE.SYSTEM.DIHEDRAL>
0

>  <SCORE.SYSTEM.SOLV>
0

>  <SCORE.SYSTEM.norm>
0

>  <SCORE.heavy>
10

>  <SCORE.norm>
-1.03039

>  <RMSD>
5.362

$$$$
ligand
 OpenBabel11021811473D
libRbt.so/2013.1/901 2013/11/27
 10  9  0  0  0  0  0  0  0  0999 V2000
   28.7915   15.7376   19.6382 N   0  0  0  0  0  0  0  0  0  0  0  0
   28.4042   15.0227   20.8829 C   0  0  2  0  0  0  0  0  0  0  0  0
   26.8844   14.9473   21.0327 C   0  0  0  0  0  0  0  0  0  0  0  0
   26.1398   15.3616   20.1498 O   0  0  0  0  0  0  0  0  0  0  0  0
   29.0736   15.6718   22.0996 C   0  0  0  0  0  0  0  0  0  0  0  0
   30.5969   15.6282   22.0349 C   0  0  0  0  0  0  0  0  0  0  0  0
   31.1714   16.5743   20.9897 C   0  0  0  0  0  0  0  0  0  0  0  0
   32.7002   16.5417   21.0021 C   0  0  0  0  0  0  0  0  0  0  0  0
   33.3230   17.1089   22.2599 N   0  0  0  0  0  0  0  0  0  0  0  0
   26.3327   14.4428   22.0039 O   0  0  0  0  0  0  0  0  0  0  0  0
  2  1  1  6  0  0  0
  2  3  1  0  0  0  0
  2  5  1  0  0  0  0
  3  4  1  0  0  0  0
  3 10  1  0  0  0  0
  5  6  1  0  0  0  0
  6  7  1  0  0  0  0
  7  8  1  0  0  0  0
  8  9  1  0  0  0  0
M  END
>  <CHROM.1>
4.73006074,-61.08878642,71.54730060,177.54523488,-67.24563567,29.29628709
15.69674674,21.21058831,-3.10152783,0.30357747,1.80463973

>  <Name>
ligand

>  <RI>
0

>  <Rbt.Current_Directory>
/home/itssahil/PROJECTS/Mol_Feturizer/New_Systems/rnas/3DIM

>  <Rbt.Executable>
rbdock ($Id: //depot/dev/client3/rdock/2013.1/src/exe/rbdock.cxx#4 $)

>  <Rbt.Library>
libRbt.so (2013.1, Build901 2013/11/27)

>  <Rbt.Parameter_File>
/export/apps/rDock/src/rDock_2013.1_src/data/scripts/dock_solv.prm

>  <Rbt.Receptor>
prm/pocket_docking_4.prm

>  <SCORE>
-10.3167

>  <SCORE.INTER>
-9.65048

>  <SCORE.INTER.CONST>
1

>  <SCORE.INTER.POLAR>
0

>  <SCORE.INTER.ROT>
5

>  <SCORE.INTER.SOLV>
11.9515

>  <SCORE.INTER.VDW>
-17.3508

>  <SCORE.INTER.norm>
-0.965048

>  <SCORE.INTRA>
-0.666175

>  <SCORE.INTRA.DIHEDRAL>
-3.61414

>  <SCORE.INTRA.DIHEDRAL.0>
5.8785

>  <SCORE.INTRA.POLAR>
0

>  <SCORE.INTRA.POLAR.0>
0

>  <SCORE.INTRA.REPUL>
0

>  <SCORE.INTRA.REPUL.0>
0

>  <SCORE.INTRA.SOLV>
1.38312

>  <SCORE.INTRA.SOLV.lig_0>
-31.9559

>  <SCORE.INTRA.VDW>
0.449335

>  <SCORE.INTRA.VDW.0>
-0.507645

>  <SCORE.INTRA.norm>
-0.0666175

>  <SCORE.RESTR>
0

>  <SCORE.RESTR.CAVITY>
0

>  <SCORE.RESTR.norm>
0

>  <SCORE.SYSTEM>
0

>  <SCORE.SYSTEM.CONST>
0

>  <SCORE.SYSTEM.DIHEDRAL>
0

>  <SCORE.SYSTEM.SOLV>
0

>  <SCORE.SYSTEM.norm>
0

>  <SCORE.heavy>
10

>  <SCORE.norm>
-1.03167

>  <RMSD>
5.363

$$$$
ligand
 OpenBabel11021811473D
libRbt.so/2013.1/901 2013/11/27
 10  9  0  0  0  0  0  0  0  0999 V2000
   25.8708   14.8355   20.8616 N   0  0  0  0  0  0  0  0  0  0  0  0
   27.1811   15.4501   20.5218 C   0  0  2  0  0  0  0  0  0  0  0  0
   27.6534   15.0231   19.1316 C   0  0  0  0  0  0  0  0  0  0  0  0
   28.3879   15.7438   18.4633 O   0  0  0  0  0  0  0  0  0  0  0  0
   28.2157   15.1318   21.6071 C   0  0  0  0  0  0  0  0  0  0  0  0
   29.5464   15.8446   21.3885 C   0  0  0  0  0  0  0  0  0  0  0  0
   30.5798   15.5072   22.4543 C   0  0  0  0  0  0  0  0  0  0  0  0
   31.8964   16.2394   22.1924 C   0  0  0  0  0  0  0  0  0  0  0  0
   31.7990   17.7468   22.2921 N   0  0  0  0  0  0  0  0  0  0  0  0
   27.3657   13.9421   18.6308 O   0  0  0  0  0  0  0  0  0  0  0  0
  2  1  1  1  0  0  0
  2  3  1  0  0  0  0
  2  5  1  0  0  0  0
  3  4  1  0  0  0  0
  3 10  1  0  0  0  0
  5  6  1  0  0  0  0
  6  7  1  0  0  0  0
  7  8  1  0  0  0  0
  8  9  1  0  0  0  0
M  END
>  <CHROM.1>
152.39262419,-174.44895179,-178.98223682,179.81690180,64.59530655,28.85142231
15.53473532,20.71724213,2.58276747,-0.37549593,-1.62291274

>  <Name>
ligand

>  <RI>
0

>  <Rbt.Current_Directory>
/home/itssahil/PROJECTS/Mol_Feturizer/New_Systems/rnas/3DIM

>  <Rbt.Executable>
rbdock ($Id: //depot/dev/client3/rdock/2013.1/src/exe/rbdock.cxx#4 $)

>  <Rbt.Library>
libRbt.so (2013.1, Build901 2013/11/27)

>  <Rbt.Parameter_File>
/export/apps/rDock/src/rDock_2013.1_src/data/scripts/dock_solv.prm

>  <Rbt.Receptor>
prm/pocket_docking_7.prm

>  <SCORE>
-10.803

>  <SCORE.INTER>
-7.91826

>  <SCORE.INTER.CONST>
1

>  <SCORE.INTER.POLAR>
0

>  <SCORE.INTER.ROT>
5

>  <SCORE.INTER.SOLV>
18.059

>  <SCORE.INTER.VDW>
-18.2318

>  <SCORE.INTER.norm>
-0.791826

>  <SCORE.INTRA>
-2.88471

>  <SCORE.INTRA.DIHEDRAL>
-4.26374

>  <SCORE.INTRA.DIHEDRAL.0>
5.8785

>  <SCORE.INTRA.POLAR>
0

>  <SCORE.INTRA.POLAR.0>
0

>  <SCORE.INTRA.REPUL>
0

>  <SCORE.INTRA.REPUL.0>
0

>  <SCORE.INTRA.SOLV>
-1.01632

>  <SCORE.INTRA.SOLV.lig_0>
-31.9559

>  <SCORE.INTRA.VDW>
-0.244682

>  <SCORE.INTRA.VDW.0>
-0.507645

>  <SCORE.INTRA.norm>
-0.288471

>  <SCORE.RESTR>
0

>  <SCORE.RESTR.CAVITY>
0

>  <SCORE.RESTR.norm>
0

>  <SCORE.SYSTEM>
0

>  <SCORE.SYSTEM.CONST>
0

>  <SCORE.SYSTEM.DIHEDRAL>
0

>  <SCORE.SYSTEM.SOLV>
0

>  <SCORE.SYSTEM.norm>
0

>  <SCORE.heavy>
10

>  <SCORE.norm>
-1.0803

>  <RMSD>
5.376

$$$$
ligand
 OpenBabel11021811473D
libRbt.so/2013.1/901 2013/11/27
 10  9  0  0  0  0  0  0  0  0999 V2000
   26.3550   14.5859   21.1681 N   0  0  0  0  0  0  0  0  0  0  0  0
   27.2147   15.3026   20.1896 C   0  0  2  0  0  0  0  0  0  0  0  0
   27.7881   14.3449   19.1447 C   0  0  0  0  0  0  0  0  0  0  0  0
   28.8697   13.7921   19.3184 O   0  0  0  0  0  0  0  0  0  0  0  0
   28.3116   16.0866   20.9191 C   0  0  0  0  0  0  0  0  0  0  0  0
   29.1344   15.2186   21.8657 C   0  0  0  0  0  0  0  0  0  0  0  0
   30.2226   16.0000   22.5887 C   0  0  0  0  0  0  0  0  0  0  0  0
   31.2714   16.5185   21.6040 C   0  0  0  0  0  0  0  0  0  0  0  0
   32.3473   17.3750   22.2369 N   0  0  0  0  0  0  0  0  0  0  0  0
   27.1957   14.0482   18.1136 O   0  0  0  0  0  0  0  0  0  0  0  0
  2  1  1  1  0  0  0
  2  3  1  0  0  0  0
  2  5  1  0  0  0  0
  3  4  1  0  0  0  0
  3 10  1  0  0  0  0
  5  6  1  0  0  0  0
  6  7  1  0  0  0  0
  7  8  1  0  0  0  0
  8  9  1  0  0  0  0
M  END
>  <CHROM.1>
-90.80299344,54.09175793,-179.98982943,-65.13190561,176.66491352,28.87478789
15.30192789,20.68490578,2.42496535,-0.23558003,-2.00724452

>  <Name>
ligand

>  <RI>
0

>  <Rbt.Current_Directory>
/home/itssahil/PROJECTS/Mol_Feturizer/New_Systems/rnas/3DIM

>  <Rbt.Executable>
rbdock ($Id: //depot/dev/client3/rdock/2013.1/src/exe/rbdock.cxx#4 $)

>  <Rbt.Library>
libRbt.so (2013.1, Build901 2013/11/27)

>  <Rbt.Parameter_File>
/export/apps/rDock/src/rDock_2013.1_src/data/scripts/dock_solv.prm

>  <Rbt.Receptor>
prm/pocket_docking_4.prm

>  <SCORE>
-9.78339

>  <SCORE.INTER>
-8.34311

>  <SCORE.INTER.CONST>
1

>  <SCORE.INTER.POLAR>
0

>  <SCORE.INTER.ROT>
5

>  <SCORE.INTER.SOLV>
16.0541

>  <SCORE.INTER.VDW>
-17.8468

>  <SCORE.INTER.norm>
-0.834311

>  <SCORE.INTRA>
-1.44028

>  <SCORE.INTRA.DIHEDRAL>
-4.15291

>  <SCORE.INTRA.DIHEDRAL.0>
5.8785

>  <SCORE.INTRA.POLAR>
0

>  <SCORE.INTRA.POLAR.0>
0

>  <SCORE.INTRA.REPUL>
0

>  <SCORE.INTRA.REPUL.0>
0

>  <SCORE.INTRA.SOLV>
-0.653407

>  <SCORE.INTRA.SOLV.lig_0>
-31.9559

>  <SCORE.INTRA.VDW>
0.962875

>  <SCORE.INTRA.VDW.0>
-0.507645

>  <SCORE.INTRA.norm>
-0.144028

>  <SCORE.RESTR>
0

>  <SCORE.RESTR.CAVITY>
0

>  <SCORE.RESTR.norm>
0

>  <SCORE.SYSTEM>
0

>  <SCORE.SYSTEM.CONST>
0

>  <SCORE.SYSTEM.DIHEDRAL>
0

>  <SCORE.SYSTEM.SOLV>
0

>  <SCORE.SYSTEM.norm>
0

>  <SCORE.heavy>
10

>  <SCORE.norm>
-0.978339

>  <RMSD>
5.378

$$$$
ligand
 OpenBabel11021811473D
libRbt.so/2013.1/901 2013/11/27
 10  9  0  0  0  0  0  0  0  0999 V2000
   25.8668   14.8634   20.8586 N   0  0  0  0  0  0  0  0  0  0  0  0
   27.1855   15.4580   20.5153 C   0  0  2  0  0  0  0  0  0  0  0  0
   27.6591   15.0042   19.1341 C   0  0  0  0  0  0  0  0  0  0  0  0
   27.3233   13.9168   18.6752 O   0  0  0  0  0  0  0  0  0  0  0  0
   28.2117   15.1447   21.6101 C   0  0  0  0  0  0  0  0  0  0  0  0
   29.5527   15.8358   21.3845 C   0  0  0  0  0  0  0  0  0  0  0  0
   30.5772   15.5037   22.4605 C   0  0  0  0  0  0  0  0  0  0  0  0
   31.9061   16.2094   22.1884 C   0  0  0  0  0  0  0  0  0  0  0  0
   31.8345   17.7196   22.2663 N   0  0  0  0  0  0  0  0  0  0  0  0
   28.3534   15.7013   18.4032 O   0  0  0  0  0  0  0  0  0  0  0  0
  2  1  1  1  0  0  0
  2  3  1  0  0  0  0
  2  5  1  0  0  0  0
  3  4  1  0  0  0  0
  3 10  1  0  0  0  0
  5  6  1  0  0  0  0
  6  7  1  0  0  0  0
  7  8  1  0  0  0  0
  8  9  1  0  0  0  0
M  END
>  <CHROM.1>
-28.80404333,-174.61472662,-179.01348560,179.60315289,64.98760878,28.84766650
15.52331036,20.71234925,2.58390526,-0.36824027,-1.62572691

>  <Name>
ligand

>  <RI>
0

>  <Rbt.Current_Directory>
/home/itssahil/PROJECTS/Mol_Feturizer/New_Systems/rnas/3DIM

>  <Rbt.Executable>
rbdock ($Id: //depot/dev/client3/rdock/2013.1/src/exe/rbdock.cxx#4 $)

>  <Rbt.Library>
libRbt.so (2013.1, Build901 2013/11/27)

>  <Rbt.Parameter_File>
/export/apps/rDock/src/rDock_2013.1_src/data/scripts/dock_solv.prm

>  <Rbt.Receptor>
prm/pocket_docking_5.prm

>  <SCORE>
-10.7043

>  <SCORE.INTER>
-7.90463

>  <SCORE.INTER.CONST>
1

>  <SCORE.INTER.POLAR>
0

>  <SCORE.INTER.ROT>
5

>  <SCORE.INTER.SOLV>
17.9169

>  <SCORE.INTER.VDW>
-18.1754

>  <SCORE.INTER.norm>
-0.790463

>  <SCORE.INTRA>
-2.79965

>  <SCORE.INTRA.DIHEDRAL>
-4.09067

>  <SCORE.INTRA.DIHEDRAL.0>
5.8785

>  <SCORE.INTRA.POLAR>
0

>  <SCORE.INTRA.POLAR.0>
0

>  <SCORE.INTRA.REPUL>
0

>  <SCORE.INTRA.REPUL.0>
0

>  <SCORE.INTRA.SOLV>
-0.999546

>  <SCORE.INTRA.SOLV.lig_0>
-31.9559

>  <SCORE.INTRA.VDW>
-0.254538

>  <SCORE.INTRA.VDW.0>
-0.507645

>  <SCORE.INTRA.norm>
-0.279965

>  <SCORE.RESTR>
0

>  <SCORE.RESTR.CAVITY>
0

>  <SCORE.RESTR.norm>
0

>  <SCORE.SYSTEM>
0

>  <SCORE.SYSTEM.CONST>
0

>  <SCORE.SYSTEM.DIHEDRAL>
0

>  <SCORE.SYSTEM.SOLV>
0

>  <SCORE.SYSTEM.norm>
0

>  <SCORE.heavy>
10

>  <SCORE.norm>
-1.07043

>  <RMSD>
5.385

$$$$
ligand
 OpenBabel11021811473D
libRbt.so/2013.1/901 2013/11/27
 10  9  0  0  0  0  0  0  0  0999 V2000
   25.8292   14.8970   20.8702 N   0  0  0  0  0  0  0  0  0  0  0  0
   27.1573   15.4611   20.5120 C   0  0  2  0  0  0  0  0  0  0  0  0
   27.6405   14.9345   19.1603 C   0  0  0  0  0  0  0  0  0  0  0  0
   28.2993   15.6415   18.4041 O   0  0  0  0  0  0  0  0  0  0  0  0
   28.1689   15.1931   21.6321 C   0  0  0  0  0  0  0  0  0  0  0  0
   29.5205   15.8552   21.3846 C   0  0  0  0  0  0  0  0  0  0  0  0
   30.5489   15.5178   22.4551 C   0  0  0  0  0  0  0  0  0  0  0  0
   31.8883   16.1944   22.1612 C   0  0  0  0  0  0  0  0  0  0  0  0
   31.8488   17.7061   22.2316 N   0  0  0  0  0  0  0  0  0  0  0  0
   27.4374   13.7878   18.7784 O   0  0  0  0  0  0  0  0  0  0  0  0
  2  1  1  1  0  0  0
  2  3  1  0  0  0  0
  2  5  1  0  0  0  0
  3  4  1  0  0  0  0
  3 10  1  0  0  0  0
  5  6  1  0  0  0  0
  6  7  1  0  0  0  0
  7  8  1  0  0  0  0
  8  9  1  0  0  0  0
M  END
>  <CHROM.1>
145.65688558,-174.81278987,-176.48901748,179.61729925,65.48697413,28.83594882
15.50489576,20.72272684,2.57448900,-0.34347701,-1.68403675

>  <Name>
ligand

>  <RI>
0

>  <Rbt.Current_Directory>
/home/itssahil/PROJECTS/Mol_Feturizer/New_Systems/rnas/3DIM

>  <Rbt.Executable>
rbdock ($Id: //depot/dev/client3/rdock/2013.1/src/exe/rbdock.cxx#4 $)

>  <Rbt.Library>
libRbt.so (2013.1, Build901 2013/11/27)

>  <Rbt.Parameter_File>
/export/apps/rDock/src/rDock_2013.1_src/data/scripts/dock_solv.prm

>  <Rbt.Receptor>
prm/pocket_docking_4.prm

>  <SCORE>
-10.8656

>  <SCORE.INTER>
-7.93725

>  <SCORE.INTER.CONST>
1

>  <SCORE.INTER.POLAR>
0

>  <SCORE.INTER.ROT>
5

>  <SCORE.INTER.SOLV>
17.9119

>  <SCORE.INTER.VDW>
-18.1955

>  <SCORE.INTER.norm>
-0.793725

>  <SCORE.INTRA>
-2.92831

>  <SCORE.INTRA.DIHEDRAL>
-4.19257

>  <SCORE.INTRA.DIHEDRAL.0>
5.8785

>  <SCORE.INTRA.POLAR>
0

>  <SCORE.INTRA.POLAR.0>
0

>  <SCORE.INTRA.REPUL>
0

>  <SCORE.INTRA.REPUL.0>
0

>  <SCORE.INTRA.SOLV>
-1.03396

>  <SCORE.INTRA.SOLV.lig_0>
-31.9559

>  <SCORE.INTRA.VDW>
-0.315051

>  <SCORE.INTRA.VDW.0>
-0.507645

>  <SCORE.INTRA.norm>
-0.292831

>  <SCORE.RESTR>
0

>  <SCORE.RESTR.CAVITY>
0

>  <SCORE.RESTR.norm>
0

>  <SCORE.SYSTEM>
0

>  <SCORE.SYSTEM.CONST>
0

>  <SCORE.SYSTEM.DIHEDRAL>
0

>  <SCORE.SYSTEM.SOLV>
0

>  <SCORE.SYSTEM.norm>
0

>  <SCORE.heavy>
10

>  <SCORE.norm>
-1.08656

>  <RMSD>
5.387

$$$$
ligand
 OpenBabel11021811473D
libRbt.so/2013.1/901 2013/11/27
 10  9  0  0  0  0  0  0  0  0999 V2000
   25.8639   14.8629   20.8905 N   0  0  0  0  0  0  0  0  0  0  0  0
   27.1871   15.4334   20.5244 C   0  0  2  0  0  0  0  0  0  0  0  0
   27.6532   14.9289   19.1583 C   0  0  0  0  0  0  0  0  0  0  0  0
   28.3185   15.6417   18.4133 O   0  0  0  0  0  0  0  0  0  0  0  0
   28.2131   15.1479   21.6270 C   0  0  0  0  0  0  0  0  0  0  0  0
   29.5500   15.8432   21.3907 C   0  0  0  0  0  0  0  0  0  0  0  0
   30.5865   15.5085   22.4543 C   0  0  0  0  0  0  0  0  0  0  0  0
   31.9052   16.2331   22.1817 C   0  0  0  0  0  0  0  0  0  0  0  0
   31.8214   17.7400   22.2991 N   0  0  0  0  0  0  0  0  0  0  0  0
   27.4292   13.7942   18.7529 O   0  0  0  0  0  0  0  0  0  0  0  0
  2  1  1  1  0  0  0
  2  3  1  0  0  0  0
  2  5  1  0  0  0  0
  3  4  1  0  0  0  0
  3 10  1  0  0  0  0
  5  6  1  0  0  0  0
  6  7  1  0  0  0  0
  7  8  1  0  0  0  0
  8  9  1  0  0  0  0
M  END
>  <CHROM.1>
146.71975778,-173.36988253,-177.44515988,-179.65270912,65.77348341,28.85446200
15.49982626,20.73263473,2.57033009,-0.35798893,-1.67359247

>  <Name>
ligand

>  <RI>
0

>  <Rbt.Current_Directory>
/home/itssahil/PROJECTS/Mol_Feturizer/New_Systems/rnas/3DIM

>  <Rbt.Executable>
rbdock ($Id: //depot/dev/client3/rdock/2013.1/src/exe/rbdock.cxx#4 $)

>  <Rbt.Library>
libRbt.so (2013.1, Build901 2013/11/27)

>  <Rbt.Parameter_File>
/export/apps/rDock/src/rDock_2013.1_src/data/scripts/dock_solv.prm

>  <Rbt.Receptor>
prm/pocket_docking_6.prm

>  <SCORE>
-10.8318

>  <SCORE.INTER>
-7.92604

>  <SCORE.INTER.CONST>
1

>  <SCORE.INTER.POLAR>
0

>  <SCORE.INTER.ROT>
5

>  <SCORE.INTER.SOLV>
18.028

>  <SCORE.INTER.VDW>
-18.2267

>  <SCORE.INTER.norm>
-0.792604

>  <SCORE.INTRA>
-2.90572

>  <SCORE.INTRA.DIHEDRAL>
-4.14332

>  <SCORE.INTRA.DIHEDRAL.0>
5.8785

>  <SCORE.INTRA.POLAR>
0

>  <SCORE.INTRA.POLAR.0>
0

>  <SCORE.INTRA.REPUL>
0

>  <SCORE.INTRA.REPUL.0>
0

>  <SCORE.INTRA.SOLV>
-1.03249

>  <SCORE.INTRA.SOLV.lig_0>
-31.9559

>  <SCORE.INTRA.VDW>
-0.317817

>  <SCORE.INTRA.VDW.0>
-0.507645

>  <SCORE.INTRA.norm>
-0.290572

>  <SCORE.RESTR>
0

>  <SCORE.RESTR.CAVITY>
0

>  <SCORE.RESTR.norm>
0

>  <SCORE.SYSTEM>
0

>  <SCORE.SYSTEM.CONST>
0

>  <SCORE.SYSTEM.DIHEDRAL>
0

>  <SCORE.SYSTEM.SOLV>
0

>  <SCORE.SYSTEM.norm>
0

>  <SCORE.heavy>
10

>  <SCORE.norm>
-1.08318

>  <RMSD>
5.388

$$$$
ligand
 OpenBabel11021811473D
libRbt.so/2013.1/901 2013/11/27
 10  9  0  0  0  0  0  0  0  0999 V2000
   28.8203   14.9243   19.4176 N   0  0  0  0  0  0  0  0  0  0  0  0
   28.4004   14.9173   20.8437 C   0  0  2  0  0  0  0  0  0  0  0  0
   26.8777   14.9591   20.9768 C   0  0  0  0  0  0  0  0  0  0  0  0
   26.3172   14.5211   21.9765 O   0  0  0  0  0  0  0  0  0  0  0  0
   29.0789   16.0626   21.6038 C   0  0  0  0  0  0  0  0  0  0  0  0
   30.6000   15.9506   21.6155 C   0  0  0  0  0  0  0  0  0  0  0  0
   31.2733   17.1183   22.3231 C   0  0  0  0  0  0  0  0  0  0  0  0
   32.7948   16.9664   22.3051 C   0  0  0  0  0  0  0  0  0  0  0  0
   33.4077   17.0192   20.9219 N   0  0  0  0  0  0  0  0  0  0  0  0
   26.1462   15.4582   20.1294 O   0  0  0  0  0  0  0  0  0  0  0  0
  2  1  1  6  0  0  0
  2  3  1  0  0  0  0
  2  5  1  0  0  0  0
  3  4  1  0  0  0  0
  3 10  1  0  0  0  0
  5  6  1  0  0  0  0
  6  7  1  0  0  0  0
  7  8  1  0  0  0  0
  8  9  1  0  0  0  0
M  END
>  <CHROM.1>
155.21753298,-61.68500573,177.70911038,-179.76969678,64.54883234,29.32594335
15.78539484,21.21318344,-2.93359420,0.29175520,1.36233732

>  <Name>
ligand

>  <RI>
0

>  <Rbt.Current_Directory>
/home/itssahil/PROJECTS/Mol_Feturizer/New_Systems/rnas/3DIM

>  <Rbt.Executable>
rbdock ($Id: //depot/dev/client3/rdock/2013.1/src/exe/rbdock.cxx#4 $)

>  <Rbt.Library>
libRbt.so (2013.1, Build901 2013/11/27)

>  <Rbt.Parameter_File>
/export/apps/rDock/src/rDock_2013.1_src/data/scripts/dock_solv.prm

>  <Rbt.Receptor>
prm/pocket_docking_6.prm

>  <SCORE>
-11.2668

>  <SCORE.INTER>
-8.80208

>  <SCORE.INTER.CONST>
1

>  <SCORE.INTER.POLAR>
0

>  <SCORE.INTER.ROT>
5

>  <SCORE.INTER.SOLV>
12.7933

>  <SCORE.INTER.VDW>
-17.0658

>  <SCORE.INTER.norm>
-0.880208

>  <SCORE.INTRA>
-2.4647

>  <SCORE.INTRA.DIHEDRAL>
-4.33897

>  <SCORE.INTRA.DIHEDRAL.0>
5.8785

>  <SCORE.INTRA.POLAR>
0

>  <SCORE.INTRA.POLAR.0>
0

>  <SCORE.INTRA.REPUL>
0

>  <SCORE.INTRA.REPUL.0>
0

>  <SCORE.INTRA.SOLV>
-0.100506

>  <SCORE.INTRA.SOLV.lig_0>
-31.9559

>  <SCORE.INTRA.VDW>
-0.244958

>  <SCORE.INTRA.VDW.0>
-0.507645

>  <SCORE.INTRA.norm>
-0.24647

>  <SCORE.RESTR>
0

>  <SCORE.RESTR.CAVITY>
0

>  <SCORE.RESTR.norm>
0

>  <SCORE.SYSTEM>
0

>  <SCORE.SYSTEM.CONST>
0

>  <SCORE.SYSTEM.DIHEDRAL>
0

>  <SCORE.SYSTEM.SOLV>
0

>  <SCORE.SYSTEM.norm>
0

>  <SCORE.heavy>
10

>  <SCORE.norm>
-1.12668

>  <RMSD>
5.390

$$$$
ligand
 OpenBabel11021811473D
libRbt.so/2013.1/901 2013/11/27
 10  9  0  0  0  0  0  0  0  0999 V2000
   25.8342   14.8864   20.8828 N   0  0  0  0  0  0  0  0  0  0  0  0
   27.1599   15.4508   20.5163 C   0  0  2  0  0  0  0  0  0  0  0  0
   27.6240   14.9426   19.1509 C   0  0  0  0  0  0  0  0  0  0  0  0
   28.3017   15.6476   18.4097 O   0  0  0  0  0  0  0  0  0  0  0  0
   28.1845   15.1625   21.6194 C   0  0  0  0  0  0  0  0  0  0  0  0
   29.5257   15.8484   21.3803 C   0  0  0  0  0  0  0  0  0  0  0  0
   30.5570   15.5194   22.4507 C   0  0  0  0  0  0  0  0  0  0  0  0
   31.8848   16.2227   22.1671 C   0  0  0  0  0  0  0  0  0  0  0  0
   31.8127   17.7336   22.2290 N   0  0  0  0  0  0  0  0  0  0  0  0
   27.3861   13.8118   18.7424 O   0  0  0  0  0  0  0  0  0  0  0  0
  2  1  1  1  0  0  0
  2  3  1  0  0  0  0
  2  5  1  0  0  0  0
  3  4  1  0  0  0  0
  3 10  1  0  0  0  0
  5  6  1  0  0  0  0
  6  7  1  0  0  0  0
  7  8  1  0  0  0  0
  8  9  1  0  0  0  0
M  END
>  <CHROM.1>
147.32382745,-173.54008158,-177.90396461,179.75857500,64.52426032,28.82867635
15.50899044,20.71834380,2.57744524,-0.35565462,-1.66945789

>  <Name>
ligand

>  <RI>
0

>  <Rbt.Current_Directory>
/home/itssahil/PROJECTS/Mol_Feturizer/New_Systems/rnas/3DIM

>  <Rbt.Executable>
rbdock ($Id: //depot/dev/client3/rdock/2013.1/src/exe/rbdock.cxx#4 $)

>  <Rbt.Library>
libRbt.so (2013.1, Build901 2013/11/27)

>  <Rbt.Parameter_File>
/export/apps/rDock/src/rDock_2013.1_src/data/scripts/dock_solv.prm

>  <Rbt.Receptor>
prm/pocket_docking_3.prm

>  <SCORE>
-10.8365

>  <SCORE.INTER>
-7.92092

>  <SCORE.INTER.CONST>
1

>  <SCORE.INTER.POLAR>
0

>  <SCORE.INTER.ROT>
5

>  <SCORE.INTER.SOLV>
18.059

>  <SCORE.INTER.VDW>
-18.2336

>  <SCORE.INTER.norm>
-0.792092

>  <SCORE.INTRA>
-2.91555

>  <SCORE.INTRA.DIHEDRAL>
-4.20947

>  <SCORE.INTRA.DIHEDRAL.0>
5.8785

>  <SCORE.INTRA.POLAR>
0

>  <SCORE.INTRA.POLAR.0>
0

>  <SCORE.INTRA.REPUL>
0

>  <SCORE.INTRA.REPUL.0>
0

>  <SCORE.INTRA.SOLV>
-1.0175

>  <SCORE.INTRA.SOLV.lig_0>
-31.9559

>  <SCORE.INTRA.VDW>
-0.302063

>  <SCORE.INTRA.VDW.0>
-0.507645

>  <SCORE.INTRA.norm>
-0.291555

>  <SCORE.RESTR>
0

>  <SCORE.RESTR.CAVITY>
0

>  <SCORE.RESTR.norm>
0

>  <SCORE.SYSTEM>
0

>  <SCORE.SYSTEM.CONST>
0

>  <SCORE.SYSTEM.DIHEDRAL>
0

>  <SCORE.SYSTEM.SOLV>
0

>  <SCORE.SYSTEM.norm>
0

>  <SCORE.heavy>
10

>  <SCORE.norm>
-1.08365

>  <RMSD>
5.393

$$$$
ligand
 OpenBabel11021811473D
libRbt.so/2013.1/901 2013/11/27
 10  9  0  0  0  0  0  0  0  0999 V2000
   26.4762   14.7568   20.5743 N   0  0  0  0  0  0  0  0  0  0  0  0
   27.6706   15.2643   19.8490 C   0  0  2  0  0  0  0  0  0  0  0  0
   27.7181   14.7361   18.4149 C   0  0  0  0  0  0  0  0  0  0  0  0
   27.1408   13.6994   18.1025 O   0  0  0  0  0  0  0  0  0  0  0  0
   28.9477   14.9334   20.6296 C   0  0  0  0  0  0  0  0  0  0  0  0
   29.0078   15.6188   21.9909 C   0  0  0  0  0  0  0  0  0  0  0  0
   30.2975   15.3249   22.7444 C   0  0  0  0  0  0  0  0  0  0  0  0
   31.4950   15.9841   22.0590 C   0  0  0  0  0  0  0  0  0  0  0  0
   31.5015   17.4958   22.1391 N   0  0  0  0  0  0  0  0  0  0  0  0
   28.2890   15.3251   17.5042 O   0  0  0  0  0  0  0  0  0  0  0  0
  2  1  1  1  0  0  0
  2  3  1  0  0  0  0
  2  5  1  0  0  0  0
  3  4  1  0  0  0  0
  3 10  1  0  0  0  0
  5  6  1  0  0  0  0
  6  7  1  0  0  0  0
  7  8  1  0  0  0  0
  8  9  1  0  0  0  0
M  END
>  <CHROM.1>
-23.69504045,-63.45137553,-178.11511788,68.55031729,68.64496747,28.84721485
15.29982914,20.36020697,2.37394043,-0.47431773,-1.55724790

>  <Name>
ligand

>  <RI>
0

>  <Rbt.Current_Directory>
/home/itssahil/PROJECTS/Mol_Feturizer/New_Systems/rnas/3DIM

>  <Rbt.Executable>
rbdock ($Id: //depot/dev/client3/rdock/2013.1/src/exe/rbdock.cxx#4 $)

>  <Rbt.Library>
libRbt.so (2013.1, Build901 2013/11/27)

>  <Rbt.Parameter_File>
/export/apps/rDock/src/rDock_2013.1_src/data/scripts/dock_solv.prm

>  <Rbt.Receptor>
prm/pocket_docking_8.prm

>  <SCORE>
-9.90209

>  <SCORE.INTER>
-8.46034

>  <SCORE.INTER.CONST>
1

>  <SCORE.INTER.POLAR>
0

>  <SCORE.INTER.ROT>
5

>  <SCORE.INTER.SOLV>
15.5321

>  <SCORE.INTER.VDW>
-17.7509

>  <SCORE.INTER.norm>
-0.846034

>  <SCORE.INTRA>
-1.44176

>  <SCORE.INTRA.DIHEDRAL>
-3.64305

>  <SCORE.INTRA.DIHEDRAL.0>
5.8785

>  <SCORE.INTRA.POLAR>
0

>  <SCORE.INTRA.POLAR.0>
0

>  <SCORE.INTRA.REPUL>
0

>  <SCORE.INTRA.REPUL.0>
0

>  <SCORE.INTRA.SOLV>
0.299139

>  <SCORE.INTRA.SOLV.lig_0>
-31.9559

>  <SCORE.INTRA.VDW>
0.230199

>  <SCORE.INTRA.VDW.0>
-0.507645

>  <SCORE.INTRA.norm>
-0.144176

>  <SCORE.RESTR>
0

>  <SCORE.RESTR.CAVITY>
0

>  <SCORE.RESTR.norm>
0

>  <SCORE.SYSTEM>
0

>  <SCORE.SYSTEM.CONST>
0

>  <SCORE.SYSTEM.DIHEDRAL>
0

>  <SCORE.SYSTEM.SOLV>
0

>  <SCORE.SYSTEM.norm>
0

>  <SCORE.heavy>
10

>  <SCORE.norm>
-0.990209

>  <RMSD>
5.395

$$$$
ligand
 OpenBabel11021811473D
libRbt.so/2013.1/901 2013/11/27
 10  9  0  0  0  0  0  0  0  0999 V2000
   28.8285   14.8859   19.4714 N   0  0  0  0  0  0  0  0  0  0  0  0
   28.3777   14.8593   20.8879 C   0  0  2  0  0  0  0  0  0  0  0  0
   26.8530   14.9155   20.9888 C   0  0  0  0  0  0  0  0  0  0  0  0
   26.2672   14.4788   21.9746 O   0  0  0  0  0  0  0  0  0  0  0  0
   29.0516   15.9841   21.6820 C   0  0  0  0  0  0  0  0  0  0  0  0
   30.5725   15.8703   21.7017 C   0  0  0  0  0  0  0  0  0  0  0  0
   31.2426   17.0293   22.4264 C   0  0  0  0  0  0  0  0  0  0  0  0
   32.7654   16.8989   22.3781 C   0  0  0  0  0  0  0  0  0  0  0  0
   33.3549   17.0168   20.9887 N   0  0  0  0  0  0  0  0  0  0  0  0
   26.1445   15.4253   20.1284 O   0  0  0  0  0  0  0  0  0  0  0  0
  2  1  1  6  0  0  0
  2  3  1  0  0  0  0
  2  5  1  0  0  0  0
  3  4  1  0  0  0  0
  3 10  1  0  0  0  0
  5  6  1  0  0  0  0
  6  7  1  0  0  0  0
  7  8  1  0  0  0  0
  8  9  1  0  0  0  0
M  END
>  <CHROM.1>
155.95064672,-60.57072741,176.87772578,-177.98906709,65.48928509,29.30004068
15.73242695,21.26377047,-2.92842287,0.29296389,1.38122149

>  <Name>
ligand

>  <RI>
0

>  <Rbt.Current_Directory>
/home/itssahil/PROJECTS/Mol_Feturizer/New_Systems/rnas/3DIM

>  <Rbt.Executable>
rbdock ($Id: //depot/dev/client3/rdock/2013.1/src/exe/rbdock.cxx#4 $)

>  <Rbt.Library>
libRbt.so (2013.1, Build901 2013/11/27)

>  <Rbt.Parameter_File>
/export/apps/rDock/src/rDock_2013.1_src/data/scripts/dock_solv.prm

>  <Rbt.Receptor>
prm/blind_docking_60.prm

>  <SCORE>
-11.2518

>  <SCORE.INTER>
-8.83338

>  <SCORE.INTER.CONST>
1

>  <SCORE.INTER.POLAR>
0

>  <SCORE.INTER.ROT>
5

>  <SCORE.INTER.SOLV>
12.6357

>  <SCORE.INTER.VDW>
-17.0342

>  <SCORE.INTER.norm>
-0.883338

>  <SCORE.INTRA>
-2.4184

>  <SCORE.INTRA.DIHEDRAL>
-4.28001

>  <SCORE.INTRA.DIHEDRAL.0>
5.8785

>  <SCORE.INTRA.POLAR>
0

>  <SCORE.INTRA.POLAR.0>
0

>  <SCORE.INTRA.REPUL>
0

>  <SCORE.INTRA.REPUL.0>
0

>  <SCORE.INTRA.SOLV>
-0.0850787

>  <SCORE.INTRA.SOLV.lig_0>
-31.9559

>  <SCORE.INTRA.VDW>
-0.235858

>  <SCORE.INTRA.VDW.0>
-0.507645

>  <SCORE.INTRA.norm>
-0.24184

>  <SCORE.RESTR>
0

>  <SCORE.RESTR.CAVITY>
0

>  <SCORE.RESTR.norm>
0

>  <SCORE.SYSTEM>
0

>  <SCORE.SYSTEM.CONST>
0

>  <SCORE.SYSTEM.DIHEDRAL>
0

>  <SCORE.SYSTEM.SOLV>
0

>  <SCORE.SYSTEM.norm>
0

>  <SCORE.heavy>
10

>  <SCORE.norm>
-1.12518

>  <RMSD>
5.397

$$$$
ligand
 OpenBabel11021811473D
libRbt.so/2013.1/901 2013/11/27
 10  9  0  0  0  0  0  0  0  0999 V2000
   27.2730   14.5808   20.8046 N   0  0  0  0  0  0  0  0  0  0  0  0
   27.6023   15.5295   19.7083 C   0  0  2  0  0  0  0  0  0  0  0  0
   28.1908   14.8016   18.4992 C   0  0  0  0  0  0  0  0  0  0  0  0
   28.3667   15.3839   17.4336 O   0  0  0  0  0  0  0  0  0  0  0  0
   28.5281   16.6373   20.2234 C   0  0  0  0  0  0  0  0  0  0  0  0
   29.8080   16.0982   20.8542 C   0  0  0  0  0  0  0  0  0  0  0  0
   30.7208   17.2003   21.3733 C   0  0  0  0  0  0  0  0  0  0  0  0
   32.0187   16.6182   21.9344 C   0  0  0  0  0  0  0  0  0  0  0  0
   32.9966   17.6565   22.4416 N   0  0  0  0  0  0  0  0  0  0  0  0
   28.5513   13.6307   18.5343 O   0  0  0  0  0  0  0  0  0  0  0  0
  2  1  1  1  0  0  0
  2  3  1  0  0  0  0
  2  5  1  0  0  0  0
  3  4  1  0  0  0  0
  3 10  1  0  0  0  0
  5  6  1  0  0  0  0
  6  7  1  0  0  0  0
  7  8  1  0  0  0  0
  8  9  1  0  0  0  0
M  END
>  <CHROM.1>
170.57177477,56.21197340,-179.60587543,-177.25311784,178.60686154,29.40919301
15.79358498,20.14625452,2.40260179,-0.32770937,-1.87629692

>  <Name>
ligand

>  <RI>
0

>  <Rbt.Current_Directory>
/home/itssahil/PROJECTS/Mol_Feturizer/New_Systems/rnas/3DIM

>  <Rbt.Executable>
rbdock ($Id: //depot/dev/client3/rdock/2013.1/src/exe/rbdock.cxx#4 $)

>  <Rbt.Library>
libRbt.so (2013.1, Build901 2013/11/27)

>  <Rbt.Parameter_File>
/export/apps/rDock/src/rDock_2013.1_src/data/scripts/dock_solv.prm

>  <Rbt.Receptor>
prm/pocket_docking_3.prm

>  <SCORE>
-10.8334

>  <SCORE.INTER>
-8.06858

>  <SCORE.INTER.CONST>
1

>  <SCORE.INTER.POLAR>
0

>  <SCORE.INTER.ROT>
5

>  <SCORE.INTER.SOLV>
14.3512

>  <SCORE.INTER.VDW>
-17.0961

>  <SCORE.INTER.norm>
-0.806858

>  <SCORE.INTRA>
-2.76485

>  <SCORE.INTRA.DIHEDRAL>
-4.31401

>  <SCORE.INTRA.DIHEDRAL.0>
5.8785

>  <SCORE.INTRA.POLAR>
0

>  <SCORE.INTRA.POLAR.0>
0

>  <SCORE.INTRA.REPUL>
0

>  <SCORE.INTRA.REPUL.0>
0

>  <SCORE.INTRA.SOLV>
-0.90117

>  <SCORE.INTRA.SOLV.lig_0>
-31.9559

>  <SCORE.INTRA.VDW>
-0.157267

>  <SCORE.INTRA.VDW.0>
-0.507645

>  <SCORE.INTRA.norm>
-0.276485

>  <SCORE.RESTR>
0

>  <SCORE.RESTR.CAVITY>
0

>  <SCORE.RESTR.norm>
0

>  <SCORE.SYSTEM>
0

>  <SCORE.SYSTEM.CONST>
0

>  <SCORE.SYSTEM.DIHEDRAL>
0

>  <SCORE.SYSTEM.SOLV>
0

>  <SCORE.SYSTEM.norm>
0

>  <SCORE.heavy>
10

>  <SCORE.norm>
-1.08334

>  <RMSD>
5.397

$$$$
ligand
 OpenBabel11021811473D
libRbt.so/2013.1/901 2013/11/27
 10  9  0  0  0  0  0  0  0  0999 V2000
   27.2287   14.6168   20.8155 N   0  0  0  0  0  0  0  0  0  0  0  0
   27.5813   15.5530   19.7157 C   0  0  2  0  0  0  0  0  0  0  0  0
   28.1721   14.8087   18.5178 C   0  0  0  0  0  0  0  0  0  0  0  0
   28.3551   15.3777   17.4462 O   0  0  0  0  0  0  0  0  0  0  0  0
   28.5167   16.6523   20.2320 C   0  0  0  0  0  0  0  0  0  0  0  0
   29.7936   16.1016   20.8586 C   0  0  0  0  0  0  0  0  0  0  0  0
   30.7314   17.1963   21.3484 C   0  0  0  0  0  0  0  0  0  0  0  0
   32.0188   16.6003   21.9190 C   0  0  0  0  0  0  0  0  0  0  0  0
   33.0350   17.6299   22.3652 N   0  0  0  0  0  0  0  0  0  0  0  0
   28.5274   13.6367   18.5681 O   0  0  0  0  0  0  0  0  0  0  0  0
  2  1  1  1  0  0  0
  2  3  1  0  0  0  0
  2  5  1  0  0  0  0
  3  4  1  0  0  0  0
  3 10  1  0  0  0  0
  5  6  1  0  0  0  0
  6  7  1  0  0  0  0
  7  8  1  0  0  0  0
  8  9  1  0  0  0  0
M  END
>  <CHROM.1>
169.91789943,57.16311623,178.99726703,-177.82882527,177.10825484,29.39954987
15.79690962,20.14456182,2.41253627,-0.30881570,-1.89255539

>  <Name>
ligand

>  <RI>
0

>  <Rbt.Current_Directory>
/home/itssahil/PROJECTS/Mol_Feturizer/New_Systems/rnas/3DIM

>  <Rbt.Executable>
rbdock ($Id: //depot/dev/client3/rdock/2013.1/src/exe/rbdock.cxx#4 $)

>  <Rbt.Library>
libRbt.so (2013.1, Build901 2013/11/27)

>  <Rbt.Parameter_File>
/export/apps/rDock/src/rDock_2013.1_src/data/scripts/dock_solv.prm

>  <Rbt.Receptor>
prm/pocket_docking_5.prm

>  <SCORE>
-10.8427

>  <SCORE.INTER>
-8.05183

>  <SCORE.INTER.CONST>
1

>  <SCORE.INTER.POLAR>
0

>  <SCORE.INTER.ROT>
5

>  <SCORE.INTER.SOLV>
14.5147

>  <SCORE.INTER.VDW>
-17.1395

>  <SCORE.INTER.norm>
-0.805183

>  <SCORE.INTRA>
-2.7909

>  <SCORE.INTRA.DIHEDRAL>
-4.32727

>  <SCORE.INTRA.DIHEDRAL.0>
5.8785

>  <SCORE.INTRA.POLAR>
0

>  <SCORE.INTRA.POLAR.0>
0

>  <SCORE.INTRA.REPUL>
0

>  <SCORE.INTRA.REPUL.0>
0

>  <SCORE.INTRA.SOLV>
-0.919546

>  <SCORE.INTRA.SOLV.lig_0>
-31.9559

>  <SCORE.INTRA.VDW>
-0.167491

>  <SCORE.INTRA.VDW.0>
-0.507645

>  <SCORE.INTRA.norm>
-0.27909

>  <SCORE.RESTR>
0

>  <SCORE.RESTR.CAVITY>
0

>  <SCORE.RESTR.norm>
0

>  <SCORE.SYSTEM>
0

>  <SCORE.SYSTEM.CONST>
0

>  <SCORE.SYSTEM.DIHEDRAL>
0

>  <SCORE.SYSTEM.SOLV>
0

>  <SCORE.SYSTEM.norm>
0

>  <SCORE.heavy>
10

>  <SCORE.norm>
-1.08427

>  <RMSD>
5.398

$$$$
ligand
 OpenBabel11021811473D
libRbt.so/2013.1/901 2013/11/27
 10  9  0  0  0  0  0  0  0  0999 V2000
   28.6880   15.3709   23.0011 N   0  0  0  0  0  0  0  0  0  0  0  0
   28.4392   15.6212   21.5569 C   0  0  2  0  0  0  0  0  0  0  0  0
   27.0226   15.2087   21.1555 C   0  0  0  0  0  0  0  0  0  0  0  0
   26.3507   14.4725   21.8713 O   0  0  0  0  0  0  0  0  0  0  0  0
   29.5071   14.9262   20.7046 C   0  0  0  0  0  0  0  0  0  0  0  0
   30.9293   15.2704   21.1352 C   0  0  0  0  0  0  0  0  0  0  0  0
   31.2733   16.7376   20.9198 C   0  0  0  0  0  0  0  0  0  0  0  0
   32.7218   17.0250   21.3167 C   0  0  0  0  0  0  0  0  0  0  0  0
   33.0157   16.8162   22.7870 N   0  0  0  0  0  0  0  0  0  0  0  0
   26.4718   15.6126   20.1378 O   0  0  0  0  0  0  0  0  0  0  0  0
  2  1  1  1  0  0  0
  2  3  1  0  0  0  0
  2  5  1  0  0  0  0
  3  4  1  0  0  0  0
  3 10  1  0  0  0  0
  5  6  1  0  0  0  0
  6  7  1  0  0  0  0
  7  8  1  0  0  0  0
  8  9  1  0  0  0  0
M  END
>  <CHROM.1>
-16.65762586,-52.31780532,-65.45807628,-177.92545539,-63.98408898,29.39854524
15.69518363,21.44911236,3.09858521,-0.28999283,-1.38765277

>  <Name>
ligand

>  <RI>
0

>  <Rbt.Current_Directory>
/home/itssahil/PROJECTS/Mol_Feturizer/New_Systems/rnas/3DIM

>  <Rbt.Executable>
rbdock ($Id: //depot/dev/client3/rdock/2013.1/src/exe/rbdock.cxx#4 $)

>  <Rbt.Library>
libRbt.so (2013.1, Build901 2013/11/27)

>  <Rbt.Parameter_File>
/export/apps/rDock/src/rDock_2013.1_src/data/scripts/dock_solv.prm

>  <Rbt.Receptor>
prm/pocket_docking_4.prm

>  <SCORE>
-9.00808

>  <SCORE.INTER>
-7.48728

>  <SCORE.INTER.CONST>
1

>  <SCORE.INTER.POLAR>
0

>  <SCORE.INTER.ROT>
5

>  <SCORE.INTER.SOLV>
16.7735

>  <SCORE.INTER.VDW>
-17.516

>  <SCORE.INTER.norm>
-0.748728

>  <SCORE.INTRA>
-1.5208

>  <SCORE.INTRA.DIHEDRAL>
-3.89074

>  <SCORE.INTRA.DIHEDRAL.0>
5.8785

>  <SCORE.INTRA.POLAR>
0

>  <SCORE.INTRA.POLAR.0>
0

>  <SCORE.INTRA.REPUL>
0

>  <SCORE.INTRA.REPUL.0>
0

>  <SCORE.INTRA.SOLV>
0.625426

>  <SCORE.INTRA.SOLV.lig_0>
-31.9559

>  <SCORE.INTRA.VDW>
0.111859

>  <SCORE.INTRA.VDW.0>
-0.507645

>  <SCORE.INTRA.norm>
-0.15208

>  <SCORE.RESTR>
0

>  <SCORE.RESTR.CAVITY>
0

>  <SCORE.RESTR.norm>
0

>  <SCORE.SYSTEM>
0

>  <SCORE.SYSTEM.CONST>
0

>  <SCORE.SYSTEM.DIHEDRAL>
0

>  <SCORE.SYSTEM.SOLV>
0

>  <SCORE.SYSTEM.norm>
0

>  <SCORE.heavy>
10

>  <SCORE.norm>
-0.900808

>  <RMSD>
5.399

$$$$
ligand
 OpenBabel11021811473D
libRbt.so/2013.1/901 2013/11/27
 10  9  0  0  0  0  0  0  0  0999 V2000
   25.8742   14.8356   20.9151 N   0  0  0  0  0  0  0  0  0  0  0  0
   27.1909   15.4205   20.5483 C   0  0  2  0  0  0  0  0  0  0  0  0
   27.6510   14.9385   19.1720 C   0  0  0  0  0  0  0  0  0  0  0  0
   27.3438   13.8261   18.7553 O   0  0  0  0  0  0  0  0  0  0  0  0
   28.2264   15.1267   21.6398 C   0  0  0  0  0  0  0  0  0  0  0  0
   29.5587   15.8301   21.4013 C   0  0  0  0  0  0  0  0  0  0  0  0
   30.5878   15.5289   22.4818 C   0  0  0  0  0  0  0  0  0  0  0  0
   31.9083   16.2452   22.1961 C   0  0  0  0  0  0  0  0  0  0  0  0
   31.8356   17.7525   22.3166 N   0  0  0  0  0  0  0  0  0  0  0  0
   28.3053   15.6348   18.4044 O   0  0  0  0  0  0  0  0  0  0  0  0
  2  1  1  1  0  0  0
  2  3  1  0  0  0  0
  2  5  1  0  0  0  0
  3  4  1  0  0  0  0
  3 10  1  0  0  0  0
  5  6  1  0  0  0  0
  6  7  1  0  0  0  0
  7  8  1  0  0  0  0
  8  9  1  0  0  0  0
M  END
>  <CHROM.1>
-31.11933170,-173.60251211,-179.61328721,179.56337369,67.93184862,28.84851197
15.50065505,20.74591998,2.57939578,-0.37355752,-1.64829165

>  <Name>
ligand

>  <RI>
0

>  <Rbt.Current_Directory>
/home/itssahil/PROJECTS/Mol_Feturizer/New_Systems/rnas/3DIM

>  <Rbt.Executable>
rbdock ($Id: //depot/dev/client3/rdock/2013.1/src/exe/rbdock.cxx#4 $)

>  <Rbt.Library>
libRbt.so (2013.1, Build901 2013/11/27)

>  <Rbt.Parameter_File>
/export/apps/rDock/src/rDock_2013.1_src/data/scripts/dock_solv.prm

>  <Rbt.Receptor>
prm/pocket_docking_5.prm

>  <SCORE>
-10.7015

>  <SCORE.INTER>
-7.91928

>  <SCORE.INTER.CONST>
1

>  <SCORE.INTER.POLAR>
0

>  <SCORE.INTER.ROT>
5

>  <SCORE.INTER.SOLV>
18.0882

>  <SCORE.INTER.VDW>
-18.2423

>  <SCORE.INTER.norm>
-0.791928

>  <SCORE.INTRA>
-2.78221

>  <SCORE.INTRA.DIHEDRAL>
-3.90989

>  <SCORE.INTRA.DIHEDRAL.0>
5.8785

>  <SCORE.INTRA.POLAR>
0

>  <SCORE.INTRA.POLAR.0>
0

>  <SCORE.INTRA.REPUL>
0

>  <SCORE.INTRA.REPUL.0>
0

>  <SCORE.INTRA.SOLV>
-1.04228

>  <SCORE.INTRA.SOLV.lig_0>
-31.9559

>  <SCORE.INTRA.VDW>
-0.306121

>  <SCORE.INTRA.VDW.0>
-0.507645

>  <SCORE.INTRA.norm>
-0.278221

>  <SCORE.RESTR>
0

>  <SCORE.RESTR.CAVITY>
0

>  <SCORE.RESTR.norm>
0

>  <SCORE.SYSTEM>
0

>  <SCORE.SYSTEM.CONST>
0

>  <SCORE.SYSTEM.DIHEDRAL>
0

>  <SCORE.SYSTEM.SOLV>
0

>  <SCORE.SYSTEM.norm>
0

>  <SCORE.heavy>
10

>  <SCORE.norm>
-1.07015

>  <RMSD>
5.399

$$$$
ligand
 OpenBabel11021811473D
libRbt.so/2013.1/901 2013/11/27
 10  9  0  0  0  0  0  0  0  0999 V2000
   26.3313   14.6308   20.8991 N   0  0  0  0  0  0  0  0  0  0  0  0
   27.1897   15.4869   20.0386 C   0  0  2  0  0  0  0  0  0  0  0  0
   27.6189   14.7495   18.7697 C   0  0  0  0  0  0  0  0  0  0  0  0
   27.3078   13.5774   18.5827 O   0  0  0  0  0  0  0  0  0  0  0  0
   28.3891   16.0106   20.8367 C   0  0  0  0  0  0  0  0  0  0  0  0
   29.2665   14.8943   21.3941 C   0  0  0  0  0  0  0  0  0  0  0  0
   30.5183   15.4159   22.0858 C   0  0  0  0  0  0  0  0  0  0  0  0
   31.4843   16.0365   21.0759 C   0  0  0  0  0  0  0  0  0  0  0  0
   32.7438   16.6077   21.6917 N   0  0  0  0  0  0  0  0  0  0  0  0
   28.2502   15.2856   17.8663 O   0  0  0  0  0  0  0  0  0  0  0  0
  2  1  1  1  0  0  0
  2  3  1  0  0  0  0
  2  5  1  0  0  0  0
  3  4  1  0  0  0  0
  3 10  1  0  0  0  0
  5  6  1  0  0  0  0
  6  7  1  0  0  0  0
  7  8  1  0  0  0  0
  8  9  1  0  0  0  0
M  END
>  <CHROM.1>
-3.12814778,59.64704725,175.19057903,-68.58461581,178.70496127,28.90892854
15.25185963,20.28932607,2.62031599,-0.27800209,-1.67056844

>  <Name>
ligand

>  <RI>
0

>  <Rbt.Current_Directory>
/home/itssahil/PROJECTS/Mol_Feturizer/New_Systems/rnas/3DIM

>  <Rbt.Executable>
rbdock ($Id: //depot/dev/client3/rdock/2013.1/src/exe/rbdock.cxx#4 $)

>  <Rbt.Library>
libRbt.so (2013.1, Build901 2013/11/27)

>  <Rbt.Parameter_File>
/export/apps/rDock/src/rDock_2013.1_src/data/scripts/dock_solv.prm

>  <Rbt.Receptor>
prm/pocket_docking_5.prm

>  <SCORE>
-10.6772

>  <SCORE.INTER>
-8.68075

>  <SCORE.INTER.CONST>
1

>  <SCORE.INTER.POLAR>
0

>  <SCORE.INTER.ROT>
5

>  <SCORE.INTER.SOLV>
16.8263

>  <SCORE.INTER.VDW>
-18.3293

>  <SCORE.INTER.norm>
-0.868075

>  <SCORE.INTRA>
-1.99649

>  <SCORE.INTRA.DIHEDRAL>
-3.94344

>  <SCORE.INTRA.DIHEDRAL.0>
5.8785

>  <SCORE.INTRA.POLAR>
0

>  <SCORE.INTRA.POLAR.0>
0

>  <SCORE.INTRA.REPUL>
0

>  <SCORE.INTRA.REPUL.0>
0

>  <SCORE.INTRA.SOLV>
-0.75282

>  <SCORE.INTRA.SOLV.lig_0>
-31.9559

>  <SCORE.INTRA.VDW>
0.351641

>  <SCORE.INTRA.VDW.0>
-0.507645

>  <SCORE.INTRA.norm>
-0.199649

>  <SCORE.RESTR>
0

>  <SCORE.RESTR.CAVITY>
0

>  <SCORE.RESTR.norm>
0

>  <SCORE.SYSTEM>
0

>  <SCORE.SYSTEM.CONST>
0

>  <SCORE.SYSTEM.DIHEDRAL>
0

>  <SCORE.SYSTEM.SOLV>
0

>  <SCORE.SYSTEM.norm>
0

>  <SCORE.heavy>
10

>  <SCORE.norm>
-1.06772

>  <RMSD>
5.400

$$$$
ligand
 OpenBabel11021811473D
libRbt.so/2013.1/901 2013/11/27
 10  9  0  0  0  0  0  0  0  0999 V2000
   28.8491   14.7399   19.4906 N   0  0  0  0  0  0  0  0  0  0  0  0
   28.3872   14.8606   20.8986 C   0  0  2  0  0  0  0  0  0  0  0  0
   26.8619   14.9261   20.9813 C   0  0  0  0  0  0  0  0  0  0  0  0
   26.2604   14.4751   21.9511 O   0  0  0  0  0  0  0  0  0  0  0  0
   29.0552   16.0624   21.5766 C   0  0  0  0  0  0  0  0  0  0  0  0
   30.5706   15.9224   21.6778 C   0  0  0  0  0  0  0  0  0  0  0  0
   31.2358   17.1382   22.3078 C   0  0  0  0  0  0  0  0  0  0  0  0
   32.7519   16.9548   22.3855 C   0  0  0  0  0  0  0  0  0  0  0  0
   33.4332   16.8393   21.0386 N   0  0  0  0  0  0  0  0  0  0  0  0
   26.1680   15.4572   20.1219 O   0  0  0  0  0  0  0  0  0  0  0  0
  2  1  1  6  0  0  0
  2  3  1  0  0  0  0
  2  5  1  0  0  0  0
  3  4  1  0  0  0  0
  3 10  1  0  0  0  0
  5  6  1  0  0  0  0
  6  7  1  0  0  0  0
  7  8  1  0  0  0  0
  8  9  1  0  0  0  0
M  END
>  <CHROM.1>
148.87361887,-63.24230534,178.01048475,-179.86747487,63.53372373,29.31152081
15.73388264,21.24368636,-2.89824001,0.26541165,1.26967717

>  <Name>
ligand

>  <RI>
0

>  <Rbt.Current_Directory>
/home/itssahil/PROJECTS/Mol_Feturizer/New_Systems/rnas/3DIM

>  <Rbt.Executable>
rbdock ($Id: //depot/dev/client3/rdock/2013.1/src/exe/rbdock.cxx#4 $)

>  <Rbt.Library>
libRbt.so (2013.1, Build901 2013/11/27)

>  <Rbt.Parameter_File>
/export/apps/rDock/src/rDock_2013.1_src/data/scripts/dock_solv.prm

>  <Rbt.Receptor>
prm/pocket_docking_8.prm

>  <SCORE>
-11.2989

>  <SCORE.INTER>
-8.79401

>  <SCORE.INTER.CONST>
1

>  <SCORE.INTER.POLAR>
0

>  <SCORE.INTER.ROT>
5

>  <SCORE.INTER.SOLV>
12.8444

>  <SCORE.INTER.VDW>
-17.0775

>  <SCORE.INTER.norm>
-0.879401

>  <SCORE.INTRA>
-2.50485

>  <SCORE.INTRA.DIHEDRAL>
-4.34189

>  <SCORE.INTRA.DIHEDRAL.0>
5.8785

>  <SCORE.INTRA.POLAR>
0

>  <SCORE.INTRA.POLAR.0>
0

>  <SCORE.INTRA.REPUL>
0

>  <SCORE.INTRA.REPUL.0>
0

>  <SCORE.INTRA.SOLV>
-0.11168

>  <SCORE.INTRA.SOLV.lig_0>
-31.9559

>  <SCORE.INTRA.VDW>
-0.278064

>  <SCORE.INTRA.VDW.0>
-0.507645

>  <SCORE.INTRA.norm>
-0.250485

>  <SCORE.RESTR>
0

>  <SCORE.RESTR.CAVITY>
0

>  <SCORE.RESTR.norm>
0

>  <SCORE.SYSTEM>
0

>  <SCORE.SYSTEM.CONST>
0

>  <SCORE.SYSTEM.DIHEDRAL>
0

>  <SCORE.SYSTEM.SOLV>
0

>  <SCORE.SYSTEM.norm>
0

>  <SCORE.heavy>
10

>  <SCORE.norm>
-1.12989

>  <RMSD>
5.400

$$$$
ligand
 OpenBabel11021811473D
libRbt.so/2013.1/901 2013/11/27
 10  9  0  0  0  0  0  0  0  0999 V2000
   26.2376   14.6353   20.9797 N   0  0  0  0  0  0  0  0  0  0  0  0
   27.1370   15.4461   20.1170 C   0  0  2  0  0  0  0  0  0  0  0  0
   27.5824   14.6611   18.8828 C   0  0  0  0  0  0  0  0  0  0  0  0
   27.2297   13.4985   18.7104 O   0  0  0  0  0  0  0  0  0  0  0  0
   28.3267   15.9680   20.9307 C   0  0  0  0  0  0  0  0  0  0  0  0
   29.1363   14.8525   21.5841 C   0  0  0  0  0  0  0  0  0  0  0  0
   30.4028   15.3593   22.2598 C   0  0  0  0  0  0  0  0  0  0  0  0
   31.3987   15.8917   21.2288 C   0  0  0  0  0  0  0  0  0  0  0  0
   32.6514   16.4936   21.8290 N   0  0  0  0  0  0  0  0  0  0  0  0
   28.2694   15.1486   17.9926 O   0  0  0  0  0  0  0  0  0  0  0  0
  2  1  1  1  0  0  0
  2  3  1  0  0  0  0
  2  5  1  0  0  0  0
  3  4  1  0  0  0  0
  3 10  1  0  0  0  0
  5  6  1  0  0  0  0
  6  7  1  0  0  0  0
  7  8  1  0  0  0  0
  8  9  1  0  0  0  0
M  END
>  <CHROM.1>
-1.75302832,57.67338747,173.55380550,-66.94913925,176.41358674,28.83669232
15.17683519,20.41730820,2.59904383,-0.25246140,-1.70630832

>  <Name>
ligand

>  <RI>
0

>  <Rbt.Current_Directory>
/home/itssahil/PROJECTS/Mol_Feturizer/New_Systems/rnas/3DIM

>  <Rbt.Executable>
rbdock ($Id: //depot/dev/client3/rdock/2013.1/src/exe/rbdock.cxx#4 $)

>  <Rbt.Library>
libRbt.so (2013.1, Build901 2013/11/27)

>  <Rbt.Parameter_File>
/export/apps/rDock/src/rDock_2013.1_src/data/scripts/dock_solv.prm

>  <Rbt.Receptor>
prm/pocket_docking_7.prm

>  <SCORE>
-10.7544

>  <SCORE.INTER>
-8.86125

>  <SCORE.INTER.CONST>
1

>  <SCORE.INTER.POLAR>
0

>  <SCORE.INTER.ROT>
5

>  <SCORE.INTER.SOLV>
17.1541

>  <SCORE.INTER.VDW>
-18.5589

>  <SCORE.INTER.norm>
-0.886125

>  <SCORE.INTRA>
-1.89317

>  <SCORE.INTRA.DIHEDRAL>
-3.90914

>  <SCORE.INTRA.DIHEDRAL.0>
5.8785

>  <SCORE.INTRA.POLAR>
0

>  <SCORE.INTRA.POLAR.0>
0

>  <SCORE.INTRA.REPUL>
0

>  <SCORE.INTRA.REPUL.0>
0

>  <SCORE.INTRA.SOLV>
-0.707731

>  <SCORE.INTRA.SOLV.lig_0>
-31.9559

>  <SCORE.INTRA.VDW>
0.415265

>  <SCORE.INTRA.VDW.0>
-0.507645

>  <SCORE.INTRA.norm>
-0.189317

>  <SCORE.RESTR>
0

>  <SCORE.RESTR.CAVITY>
0

>  <SCORE.RESTR.norm>
0

>  <SCORE.SYSTEM>
0

>  <SCORE.SYSTEM.CONST>
0

>  <SCORE.SYSTEM.DIHEDRAL>
0

>  <SCORE.SYSTEM.SOLV>
0

>  <SCORE.SYSTEM.norm>
0

>  <SCORE.heavy>
10

>  <SCORE.norm>
-1.07544

>  <RMSD>
5.402

$$$$
ligand
 OpenBabel11021811473D
libRbt.so/2013.1/901 2013/11/27
 10  9  0  0  0  0  0  0  0  0999 V2000
   28.8774   15.9169   20.0489 N   0  0  0  0  0  0  0  0  0  0  0  0
   28.3069   15.0369   21.1027 C   0  0  2  0  0  0  0  0  0  0  0  0
   26.7854   14.9411   20.9856 C   0  0  0  0  0  0  0  0  0  0  0  0
   26.1156   14.4027   21.8615 O   0  0  0  0  0  0  0  0  0  0  0  0
   28.7513   15.5119   22.4908 C   0  0  0  0  0  0  0  0  0  0  0  0
   30.2642   15.4663   22.6795 C   0  0  0  0  0  0  0  0  0  0  0  0
   30.9849   16.5925   21.9516 C   0  0  0  0  0  0  0  0  0  0  0  0
   32.4905   16.5392   22.2135 C   0  0  0  0  0  0  0  0  0  0  0  0
   33.2874   17.5906   21.4711 N   0  0  0  0  0  0  0  0  0  0  0  0
   26.1554   15.4216   20.0505 O   0  0  0  0  0  0  0  0  0  0  0  0
  2  1  1  6  0  0  0
  2  3  1  0  0  0  0
  2  5  1  0  0  0  0
  3  4  1  0  0  0  0
  3 10  1  0  0  0  0
  5  6  1  0  0  0  0
  6  7  1  0  0  0  0
  7  8  1  0  0  0  0
  8  9  1  0  0  0  0
M  END
>  <CHROM.1>
-170.63154174,-61.59970680,75.11314645,177.77064615,177.30858968,29.15656444
15.73496072,21.48084793,-3.11816369,0.35331484,1.96191291

>  <Name>
ligand

>  <RI>
0

>  <Rbt.Current_Directory>
/home/itssahil/PROJECTS/Mol_Feturizer/New_Systems/rnas/3DIM

>  <Rbt.Executable>
rbdock ($Id: //depot/dev/client3/rdock/2013.1/src/exe/rbdock.cxx#4 $)

>  <Rbt.Library>
libRbt.so (2013.1, Build901 2013/11/27)

>  <Rbt.Parameter_File>
/export/apps/rDock/src/rDock_2013.1_src/data/scripts/dock_solv.prm

>  <Rbt.Receptor>
prm/pocket_docking_4.prm

>  <SCORE>
-10.4871

>  <SCORE.INTER>
-9.34438

>  <SCORE.INTER.CONST>
1

>  <SCORE.INTER.POLAR>
0

>  <SCORE.INTER.ROT>
5

>  <SCORE.INTER.SOLV>
12.4412

>  <SCORE.INTER.VDW>
-17.31

>  <SCORE.INTER.norm>
-0.934438

>  <SCORE.INTRA>
-1.14274

>  <SCORE.INTRA.DIHEDRAL>
-3.36982

>  <SCORE.INTRA.DIHEDRAL.0>
5.8785

>  <SCORE.INTRA.POLAR>
0

>  <SCORE.INTRA.POLAR.0>
0

>  <SCORE.INTRA.REPUL>
0

>  <SCORE.INTRA.REPUL.0>
0

>  <SCORE.INTRA.SOLV>
0.461264

>  <SCORE.INTRA.SOLV.lig_0>
-31.9559

>  <SCORE.INTRA.VDW>
0.311539

>  <SCORE.INTRA.VDW.0>
-0.507645

>  <SCORE.INTRA.norm>
-0.114274

>  <SCORE.RESTR>
0

>  <SCORE.RESTR.CAVITY>
0

>  <SCORE.RESTR.norm>
0

>  <SCORE.SYSTEM>
0

>  <SCORE.SYSTEM.CONST>
0

>  <SCORE.SYSTEM.DIHEDRAL>
0

>  <SCORE.SYSTEM.SOLV>
0

>  <SCORE.SYSTEM.norm>
0

>  <SCORE.heavy>
10

>  <SCORE.norm>
-1.04871

>  <RMSD>
5.403

$$$$
ligand
 OpenBabel11021811473D
libRbt.so/2013.1/901 2013/11/27
 10  9  0  0  0  0  0  0  0  0999 V2000
   27.5774   13.7904   18.3979 N   0  0  0  0  0  0  0  0  0  0  0  0
   28.0349   14.2052   19.7503 C   0  0  2  0  0  0  0  0  0  0  0  0
   26.9826   15.0604   20.4568 C   0  0  0  0  0  0  0  0  0  0  0  0
   26.8312   16.2437   20.1694 O   0  0  0  0  0  0  0  0  0  0  0  0
   29.3906   14.9149   19.6591 C   0  0  0  0  0  0  0  0  0  0  0  0
   29.9368   15.3324   21.0206 C   0  0  0  0  0  0  0  0  0  0  0  0
   31.2055   16.1674   20.9178 C   0  0  0  0  0  0  0  0  0  0  0  0
   31.6864   16.6065   22.3013 C   0  0  0  0  0  0  0  0  0  0  0  0
   32.8869   17.5284   22.2777 N   0  0  0  0  0  0  0  0  0  0  0  0
   26.2178   14.6142   21.3044 O   0  0  0  0  0  0  0  0  0  0  0  0
  2  1  1  6  0  0  0
  2  3  1  0  0  0  0
  2  5  1  0  0  0  0
  3  4  1  0  0  0  0
  3 10  1  0  0  0  0
  5  6  1  0  0  0  0
  6  7  1  0  0  0  0
  7  8  1  0  0  0  0
  8  9  1  0  0  0  0
M  END
>  <CHROM.1>
-77.68355432,-178.36286786,-173.78178300,177.86103358,-175.67788359,29.04069806
15.46017053,20.63738764,-2.62999527,0.11124619,0.93561189

>  <Name>
ligand

>  <RI>
0

>  <Rbt.Current_Directory>
/home/itssahil/PROJECTS/Mol_Feturizer/New_Systems/rnas/3DIM

>  <Rbt.Executable>
rbdock ($Id: //depot/dev/client3/rdock/2013.1/src/exe/rbdock.cxx#4 $)

>  <Rbt.Library>
libRbt.so (2013.1, Build901 2013/11/27)

>  <Rbt.Parameter_File>
/export/apps/rDock/src/rDock_2013.1_src/data/scripts/dock_solv.prm

>  <Rbt.Receptor>
prm/pocket_docking_7.prm

>  <SCORE>
-9.85807

>  <SCORE.INTER>
-6.71702

>  <SCORE.INTER.CONST>
1

>  <SCORE.INTER.POLAR>
0

>  <SCORE.INTER.ROT>
5

>  <SCORE.INTER.SOLV>
15.9157

>  <SCORE.INTER.VDW>
-16.7166

>  <SCORE.INTER.norm>
-0.671702

>  <SCORE.INTRA>
-3.14105

>  <SCORE.INTRA.DIHEDRAL>
-4.1863

>  <SCORE.INTRA.DIHEDRAL.0>
5.8785

>  <SCORE.INTRA.POLAR>
0

>  <SCORE.INTRA.POLAR.0>
0

>  <SCORE.INTRA.REPUL>
0

>  <SCORE.INTRA.REPUL.0>
0

>  <SCORE.INTRA.SOLV>
-1.87256

>  <SCORE.INTRA.SOLV.lig_0>
-31.9559

>  <SCORE.INTRA.VDW>
-0.111621

>  <SCORE.INTRA.VDW.0>
-0.507645

>  <SCORE.INTRA.norm>
-0.314105

>  <SCORE.RESTR>
0

>  <SCORE.RESTR.CAVITY>
0

>  <SCORE.RESTR.norm>
0

>  <SCORE.SYSTEM>
0

>  <SCORE.SYSTEM.CONST>
0

>  <SCORE.SYSTEM.DIHEDRAL>
0

>  <SCORE.SYSTEM.SOLV>
0

>  <SCORE.SYSTEM.norm>
0

>  <SCORE.heavy>
10

>  <SCORE.norm>
-0.985807

>  <RMSD>
5.404

$$$$
ligand
 OpenBabel11021811473D
libRbt.so/2013.1/901 2013/11/27
 10  9  0  0  0  0  0  0  0  0999 V2000
   25.8355   14.8592   20.8817 N   0  0  0  0  0  0  0  0  0  0  0  0
   27.1554   15.4402   20.5203 C   0  0  2  0  0  0  0  0  0  0  0  0
   27.6273   14.9445   19.1530 C   0  0  0  0  0  0  0  0  0  0  0  0
   27.2911   13.8436   18.7281 O   0  0  0  0  0  0  0  0  0  0  0  0
   28.1814   15.1573   21.6236 C   0  0  0  0  0  0  0  0  0  0  0  0
   29.5188   15.8508   21.3849 C   0  0  0  0  0  0  0  0  0  0  0  0
   30.5588   15.5094   22.4430 C   0  0  0  0  0  0  0  0  0  0  0  0
   31.8813   16.2238   22.1621 C   0  0  0  0  0  0  0  0  0  0  0  0
   31.8150   17.7299   22.3004 N   0  0  0  0  0  0  0  0  0  0  0  0
   28.3206   15.6190   18.4003 O   0  0  0  0  0  0  0  0  0  0  0  0
  2  1  1  1  0  0  0
  2  3  1  0  0  0  0
  2  5  1  0  0  0  0
  3  4  1  0  0  0  0
  3 10  1  0  0  0  0
  5  6  1  0  0  0  0
  6  7  1  0  0  0  0
  7  8  1  0  0  0  0
  8  9  1  0  0  0  0
M  END
>  <CHROM.1>
-28.95938399,-173.97498966,-176.96978730,179.90294282,66.71659886,28.81911515
15.50431660,20.72278935,2.57531617,-0.35748330,-1.66585403

>  <Name>
ligand

>  <RI>
0

>  <Rbt.Current_Directory>
/home/itssahil/PROJECTS/Mol_Feturizer/New_Systems/rnas/3DIM

>  <Rbt.Executable>
rbdock ($Id: //depot/dev/client3/rdock/2013.1/src/exe/rbdock.cxx#4 $)

>  <Rbt.Library>
libRbt.so (2013.1, Build901 2013/11/27)

>  <Rbt.Parameter_File>
/export/apps/rDock/src/rDock_2013.1_src/data/scripts/dock_solv.prm

>  <Rbt.Receptor>
prm/pocket_docking_7.prm

>  <SCORE>
-10.716

>  <SCORE.INTER>
-7.94651

>  <SCORE.INTER.CONST>
1

>  <SCORE.INTER.POLAR>
0

>  <SCORE.INTER.ROT>
5

>  <SCORE.INTER.SOLV>
18.0669

>  <SCORE.INTER.VDW>
-18.2533

>  <SCORE.INTER.norm>
-0.794651

>  <SCORE.INTRA>
-2.76945

>  <SCORE.INTRA.DIHEDRAL>
-3.95472

>  <SCORE.INTRA.DIHEDRAL.0>
5.8785

>  <SCORE.INTRA.POLAR>
0

>  <SCORE.INTRA.POLAR.0>
0

>  <SCORE.INTRA.REPUL>
0

>  <SCORE.INTRA.REPUL.0>
0

>  <SCORE.INTRA.SOLV>
-1.02241

>  <SCORE.INTRA.SOLV.lig_0>
-31.9559

>  <SCORE.INTRA.VDW>
-0.280886

>  <SCORE.INTRA.VDW.0>
-0.507645

>  <SCORE.INTRA.norm>
-0.276945

>  <SCORE.RESTR>
0

>  <SCORE.RESTR.CAVITY>
0

>  <SCORE.RESTR.norm>
0

>  <SCORE.SYSTEM>
0

>  <SCORE.SYSTEM.CONST>
0

>  <SCORE.SYSTEM.DIHEDRAL>
0

>  <SCORE.SYSTEM.SOLV>
0

>  <SCORE.SYSTEM.norm>
0

>  <SCORE.heavy>
10

>  <SCORE.norm>
-1.0716

>  <RMSD>
5.405

$$$$
ligand
 OpenBabel11021811473D
libRbt.so/2013.1/901 2013/11/27
 10  9  0  0  0  0  0  0  0  0999 V2000
   27.2946   14.4615   20.7946 N   0  0  0  0  0  0  0  0  0  0  0  0
   27.5826   15.4480   19.7202 C   0  0  2  0  0  0  0  0  0  0  0  0
   28.1798   14.7703   18.4865 C   0  0  0  0  0  0  0  0  0  0  0  0
   28.4292   13.5689   18.4824 O   0  0  0  0  0  0  0  0  0  0  0  0
   28.4797   16.5702   20.2548 C   0  0  0  0  0  0  0  0  0  0  0  0
   29.7880   16.0557   20.8465 C   0  0  0  0  0  0  0  0  0  0  0  0
   30.6678   17.1707   21.3944 C   0  0  0  0  0  0  0  0  0  0  0  0
   32.0087   16.6211   21.8825 C   0  0  0  0  0  0  0  0  0  0  0  0
   32.9874   17.6837   22.3352 N   0  0  0  0  0  0  0  0  0  0  0  0
   28.4020   15.3658   17.4386 O   0  0  0  0  0  0  0  0  0  0  0  0
  2  1  1  1  0  0  0
  2  3  1  0  0  0  0
  2  5  1  0  0  0  0
  3  4  1  0  0  0  0
  3 10  1  0  0  0  0
  5  6  1  0  0  0  0
  6  7  1  0  0  0  0
  7  8  1  0  0  0  0
  8  9  1  0  0  0  0
M  END
>  <CHROM.1>
-3.55407178,56.74216394,-179.17778691,-175.83543379,175.10449084,29.38475762
15.75163752,20.12870508,2.42299904,-0.37768630,-1.84159609

>  <Name>
ligand

>  <RI>
0

>  <Rbt.Current_Directory>
/home/itssahil/PROJECTS/Mol_Feturizer/New_Systems/rnas/3DIM

>  <Rbt.Executable>
rbdock ($Id: //depot/dev/client3/rdock/2013.1/src/exe/rbdock.cxx#4 $)

>  <Rbt.Library>
libRbt.so (2013.1, Build901 2013/11/27)

>  <Rbt.Parameter_File>
/export/apps/rDock/src/rDock_2013.1_src/data/scripts/dock_solv.prm

>  <Rbt.Receptor>
prm/pocket_docking_3.prm

>  <SCORE>
-10.7628

>  <SCORE.INTER>
-8.15654

>  <SCORE.INTER.CONST>
1

>  <SCORE.INTER.POLAR>
0

>  <SCORE.INTER.ROT>
5

>  <SCORE.INTER.SOLV>
14.3818

>  <SCORE.INTER.VDW>
-17.1649

>  <SCORE.INTER.norm>
-0.815654

>  <SCORE.INTRA>
-2.60624

>  <SCORE.INTRA.DIHEDRAL>
-4.13501

>  <SCORE.INTRA.DIHEDRAL.0>
5.8785

>  <SCORE.INTRA.POLAR>
0

>  <SCORE.INTRA.POLAR.0>
0

>  <SCORE.INTRA.REPUL>
0

>  <SCORE.INTRA.REPUL.0>
0

>  <SCORE.INTRA.SOLV>
-0.88652

>  <SCORE.INTRA.SOLV.lig_0>
-31.9559

>  <SCORE.INTRA.VDW>
-0.0954709

>  <SCORE.INTRA.VDW.0>
-0.507645

>  <SCORE.INTRA.norm>
-0.260624

>  <SCORE.RESTR>
0

>  <SCORE.RESTR.CAVITY>
0

>  <SCORE.RESTR.norm>
0

>  <SCORE.SYSTEM>
0

>  <SCORE.SYSTEM.CONST>
0

>  <SCORE.SYSTEM.DIHEDRAL>
0

>  <SCORE.SYSTEM.SOLV>
0

>  <SCORE.SYSTEM.norm>
0

>  <SCORE.heavy>
10

>  <SCORE.norm>
-1.07628

>  <RMSD>
5.407

$$$$
ligand
 OpenBabel11021811473D
libRbt.so/2013.1/901 2013/11/27
 10  9  0  0  0  0  0  0  0  0999 V2000
   25.8119   14.8721   20.8441 N   0  0  0  0  0  0  0  0  0  0  0  0
   27.2105   15.2368   20.4961 C   0  0  2  0  0  0  0  0  0  0  0  0
   27.5713   14.7774   19.0830 C   0  0  0  0  0  0  0  0  0  0  0  0
   27.2248   13.6761   18.6674 O   0  0  0  0  0  0  0  0  0  0  0  0
   28.1811   14.6879   21.5480 C   0  0  0  0  0  0  0  0  0  0  0  0
   29.6267   15.1064   21.3001 C   0  0  0  0  0  0  0  0  0  0  0  0
   29.8168   16.6166   21.3210 C   0  0  0  0  0  0  0  0  0  0  0  0
   31.2713   16.9901   21.0322 C   0  0  0  0  0  0  0  0  0  0  0  0
   32.2543   16.5141   22.0805 N   0  0  0  0  0  0  0  0  0  0  0  0
   28.1794   15.4824   18.2859 O   0  0  0  0  0  0  0  0  0  0  0  0
  2  1  1  1  0  0  0
  2  3  1  0  0  0  0
  2  5  1  0  0  0  0
  3  4  1  0  0  0  0
  3 10  1  0  0  0  0
  5  6  1  0  0  0  0
  6  7  1  0  0  0  0
  7  8  1  0  0  0  0
  8  9  1  0  0  0  0
M  END
>  <CHROM.1>
-41.78931071,-176.17132177,60.46183989,-178.51696880,-64.36819130,28.71349086
15.38306102,20.42947291,2.68499359,-0.38894589,-1.66701466

>  <Name>
ligand

>  <RI>
0

>  <Rbt.Current_Directory>
/home/itssahil/PROJECTS/Mol_Feturizer/New_Systems/rnas/3DIM

>  <Rbt.Executable>
rbdock ($Id: //depot/dev/client3/rdock/2013.1/src/exe/rbdock.cxx#4 $)

>  <Rbt.Library>
libRbt.so (2013.1, Build901 2013/11/27)

>  <Rbt.Parameter_File>
/export/apps/rDock/src/rDock_2013.1_src/data/scripts/dock_solv.prm

>  <Rbt.Receptor>
prm/pocket_docking_4.prm

>  <SCORE>
-10.3172

>  <SCORE.INTER>
-7.77917

>  <SCORE.INTER.CONST>
1

>  <SCORE.INTER.POLAR>
0

>  <SCORE.INTER.ROT>
5

>  <SCORE.INTER.SOLV>
17.3451

>  <SCORE.INTER.VDW>
-17.9012

>  <SCORE.INTER.norm>
-0.777917

>  <SCORE.INTRA>
-2.538

>  <SCORE.INTRA.DIHEDRAL>
-4.17951

>  <SCORE.INTRA.DIHEDRAL.0>
5.8785

>  <SCORE.INTRA.POLAR>
0

>  <SCORE.INTRA.POLAR.0>
0

>  <SCORE.INTRA.REPUL>
0

>  <SCORE.INTRA.REPUL.0>
0

>  <SCORE.INTRA.SOLV>
-0.740999

>  <SCORE.INTRA.SOLV.lig_0>
-31.9559

>  <SCORE.INTRA.VDW>
-0.0777474

>  <SCORE.INTRA.VDW.0>
-0.507645

>  <SCORE.INTRA.norm>
-0.2538

>  <SCORE.RESTR>
0

>  <SCORE.RESTR.CAVITY>
0

>  <SCORE.RESTR.norm>
0

>  <SCORE.SYSTEM>
0

>  <SCORE.SYSTEM.CONST>
0

>  <SCORE.SYSTEM.DIHEDRAL>
0

>  <SCORE.SYSTEM.SOLV>
0

>  <SCORE.SYSTEM.norm>
0

>  <SCORE.heavy>
10

>  <SCORE.norm>
-1.03172

>  <RMSD>
5.408

$$$$
ligand
 OpenBabel11021811473D
libRbt.so/2013.1/901 2013/11/27
 10  9  0  0  0  0  0  0  0  0999 V2000
   25.8001   14.8442   20.9195 N   0  0  0  0  0  0  0  0  0  0  0  0
   27.1172   15.4266   20.5502 C   0  0  2  0  0  0  0  0  0  0  0  0
   27.5821   14.9303   19.1807 C   0  0  0  0  0  0  0  0  0  0  0  0
   28.2760   15.6346   18.4540 O   0  0  0  0  0  0  0  0  0  0  0  0
   28.1497   15.1460   21.6480 C   0  0  0  0  0  0  0  0  0  0  0  0
   29.4833   15.8449   21.4037 C   0  0  0  0  0  0  0  0  0  0  0  0
   30.5329   15.4981   22.4504 C   0  0  0  0  0  0  0  0  0  0  0  0
   31.8573   16.2022   22.1527 C   0  0  0  0  0  0  0  0  0  0  0  0
   31.8011   17.7097   22.2793 N   0  0  0  0  0  0  0  0  0  0  0  0
   27.3286   13.8094   18.7547 O   0  0  0  0  0  0  0  0  0  0  0  0
  2  1  1  1  0  0  0
  2  3  1  0  0  0  0
  2  5  1  0  0  0  0
  3  4  1  0  0  0  0
  3 10  1  0  0  0  0
  5  6  1  0  0  0  0
  6  7  1  0  0  0  0
  7  8  1  0  0  0  0
  8  9  1  0  0  0  0
M  END
>  <CHROM.1>
149.15610141,-173.77725179,-176.55533422,179.07357019,66.32132890,28.79439710
15.49127206,20.74274220,2.58259598,-0.35469992,-1.67047966

>  <Name>
ligand

>  <RI>
0

>  <Rbt.Current_Directory>
/home/itssahil/PROJECTS/Mol_Feturizer/New_Systems/rnas/3DIM

>  <Rbt.Executable>
rbdock ($Id: //depot/dev/client3/rdock/2013.1/src/exe/rbdock.cxx#4 $)

>  <Rbt.Library>
libRbt.so (2013.1, Build901 2013/11/27)

>  <Rbt.Parameter_File>
/export/apps/rDock/src/rDock_2013.1_src/data/scripts/dock_solv.prm

>  <Rbt.Receptor>
prm/pocket_docking_4.prm

>  <SCORE>
-10.7927

>  <SCORE.INTER>
-7.91361

>  <SCORE.INTER.CONST>
1

>  <SCORE.INTER.POLAR>
0

>  <SCORE.INTER.ROT>
5

>  <SCORE.INTER.SOLV>
18.1503

>  <SCORE.INTER.VDW>
-18.2592

>  <SCORE.INTER.norm>
-0.791361

>  <SCORE.INTRA>
-2.87906

>  <SCORE.INTRA.DIHEDRAL>
-4.11475

>  <SCORE.INTRA.DIHEDRAL.0>
5.8785

>  <SCORE.INTRA.POLAR>
0

>  <SCORE.INTRA.POLAR.0>
0

>  <SCORE.INTRA.REPUL>
0

>  <SCORE.INTRA.REPUL.0>
0

>  <SCORE.INTRA.SOLV>
-1.0461

>  <SCORE.INTRA.SOLV.lig_0>
-31.9559

>  <SCORE.INTRA.VDW>
-0.298633

>  <SCORE.INTRA.VDW.0>
-0.507645

>  <SCORE.INTRA.norm>
-0.287906

>  <SCORE.RESTR>
0

>  <SCORE.RESTR.CAVITY>
0

>  <SCORE.RESTR.norm>
0

>  <SCORE.SYSTEM>
0

>  <SCORE.SYSTEM.CONST>
0

>  <SCORE.SYSTEM.DIHEDRAL>
0

>  <SCORE.SYSTEM.SOLV>
0

>  <SCORE.SYSTEM.norm>
0

>  <SCORE.heavy>
10

>  <SCORE.norm>
-1.07927

>  <RMSD>
5.409

$$$$
ligand
 OpenBabel11021811473D
libRbt.so/2013.1/901 2013/11/27
 10  9  0  0  0  0  0  0  0  0999 V2000
   25.8196   14.9350   20.8531 N   0  0  0  0  0  0  0  0  0  0  0  0
   27.2268   15.2479   20.4896 C   0  0  2  0  0  0  0  0  0  0  0  0
   27.5667   14.7398   19.0880 C   0  0  0  0  0  0  0  0  0  0  0  0
   27.2171   13.6236   18.7170 O   0  0  0  0  0  0  0  0  0  0  0  0
   28.1856   14.6986   21.5520 C   0  0  0  0  0  0  0  0  0  0  0  0
   29.6448   15.0441   21.2727 C   0  0  0  0  0  0  0  0  0  0  0  0
   29.9050   16.5439   21.2593 C   0  0  0  0  0  0  0  0  0  0  0  0
   31.3599   16.8446   20.8975 C   0  0  0  0  0  0  0  0  0  0  0  0
   32.3661   16.3673   21.9230 N   0  0  0  0  0  0  0  0  0  0  0  0
   28.1598   15.4177   18.2569 O   0  0  0  0  0  0  0  0  0  0  0  0
  2  1  1  1  0  0  0
  2  3  1  0  0  0  0
  2  5  1  0  0  0  0
  3  4  1  0  0  0  0
  3 10  1  0  0  0  0
  5  6  1  0  0  0  0
  6  7  1  0  0  0  0
  7  8  1  0  0  0  0
  8  9  1  0  0  0  0
M  END
>  <CHROM.1>
-43.83996298,-177.25510950,61.57940100,-176.76128361,-65.72350906,28.74318027
15.33244800,20.39506158,2.71045625,-0.35110394,-1.68766120

>  <Name>
ligand

>  <RI>
0

>  <Rbt.Current_Directory>
/home/itssahil/PROJECTS/Mol_Feturizer/New_Systems/rnas/3DIM

>  <Rbt.Executable>
rbdock ($Id: //depot/dev/client3/rdock/2013.1/src/exe/rbdock.cxx#4 $)

>  <Rbt.Library>
libRbt.so (2013.1, Build901 2013/11/27)

>  <Rbt.Parameter_File>
/export/apps/rDock/src/rDock_2013.1_src/data/scripts/dock_solv.prm

>  <Rbt.Receptor>
prm/pocket_docking_8.prm

>  <SCORE>
-10.2499

>  <SCORE.INTER>
-7.70178

>  <SCORE.INTER.CONST>
1

>  <SCORE.INTER.POLAR>
0

>  <SCORE.INTER.ROT>
5

>  <SCORE.INTER.SOLV>
17.4791

>  <SCORE.INTER.VDW>
-17.8942

>  <SCORE.INTER.norm>
-0.770178

>  <SCORE.INTRA>
-2.54811

>  <SCORE.INTRA.DIHEDRAL>
-4.11573

>  <SCORE.INTRA.DIHEDRAL.0>
5.8785

>  <SCORE.INTRA.POLAR>
0

>  <SCORE.INTRA.POLAR.0>
0

>  <SCORE.INTRA.REPUL>
0

>  <SCORE.INTRA.REPUL.0>
0

>  <SCORE.INTRA.SOLV>
-0.78181

>  <SCORE.INTRA.SOLV.lig_0>
-31.9559

>  <SCORE.INTRA.VDW>
-0.0993394

>  <SCORE.INTRA.VDW.0>
-0.507645

>  <SCORE.INTRA.norm>
-0.254811

>  <SCORE.RESTR>
0

>  <SCORE.RESTR.CAVITY>
0

>  <SCORE.RESTR.norm>
0

>  <SCORE.SYSTEM>
0

>  <SCORE.SYSTEM.CONST>
0

>  <SCORE.SYSTEM.DIHEDRAL>
0

>  <SCORE.SYSTEM.SOLV>
0

>  <SCORE.SYSTEM.norm>
0

>  <SCORE.heavy>
10

>  <SCORE.norm>
-1.02499

>  <RMSD>
5.410

$$$$
ligand
 OpenBabel11021811473D
libRbt.so/2013.1/901 2013/11/27
 10  9  0  0  0  0  0  0  0  0999 V2000
   27.2850   14.5086   20.7710 N   0  0  0  0  0  0  0  0  0  0  0  0
   27.5867   15.4690   19.6769 C   0  0  2  0  0  0  0  0  0  0  0  0
   28.1706   14.7576   18.4559 C   0  0  0  0  0  0  0  0  0  0  0  0
   28.3494   15.3561   17.3997 O   0  0  0  0  0  0  0  0  0  0  0  0
   28.5028   16.5869   20.1877 C   0  0  0  0  0  0  0  0  0  0  0  0
   29.7820   16.0611   20.8309 C   0  0  0  0  0  0  0  0  0  0  0  0
   30.6609   17.1705   21.3916 C   0  0  0  0  0  0  0  0  0  0  0  0
   32.0202   16.6243   21.8298 C   0  0  0  0  0  0  0  0  0  0  0  0
   32.9714   17.6770   22.3577 N   0  0  0  0  0  0  0  0  0  0  0  0
   28.5243   13.5842   18.4717 O   0  0  0  0  0  0  0  0  0  0  0  0
  2  1  1  1  0  0  0
  2  3  1  0  0  0  0
  2  5  1  0  0  0  0
  3  4  1  0  0  0  0
  3 10  1  0  0  0  0
  5  6  1  0  0  0  0
  6  7  1  0  0  0  0
  7  8  1  0  0  0  0
  8  9  1  0  0  0  0
M  END
>  <CHROM.1>
172.03528966,54.75567783,-177.48465617,-171.27827287,178.06942012,29.38879787
15.75966324,20.10265192,2.40542508,-0.34504655,-1.87316647

>  <Name>
ligand

>  <RI>
0

>  <Rbt.Current_Directory>
/home/itssahil/PROJECTS/Mol_Feturizer/New_Systems/rnas/3DIM

>  <Rbt.Executable>
rbdock ($Id: //depot/dev/client3/rdock/2013.1/src/exe/rbdock.cxx#4 $)

>  <Rbt.Library>
libRbt.so (2013.1, Build901 2013/11/27)

>  <Rbt.Parameter_File>
/export/apps/rDock/src/rDock_2013.1_src/data/scripts/dock_solv.prm

>  <Rbt.Receptor>
prm/blind_docking_60.prm

>  <SCORE>
-10.7083

>  <SCORE.INTER>
-8.16649

>  <SCORE.INTER.CONST>
1

>  <SCORE.INTER.POLAR>
0

>  <SCORE.INTER.ROT>
5

>  <SCORE.INTER.SOLV>
14.301

>  <SCORE.INTER.VDW>
-17.1447

>  <SCORE.INTER.norm>
-0.816649

>  <SCORE.INTRA>
-2.54178

>  <SCORE.INTRA.DIHEDRAL>
-3.93939

>  <SCORE.INTRA.DIHEDRAL.0>
5.8785

>  <SCORE.INTRA.POLAR>
0

>  <SCORE.INTRA.POLAR.0>
0

>  <SCORE.INTRA.REPUL>
0

>  <SCORE.INTRA.REPUL.0>
0

>  <SCORE.INTRA.SOLV>
-0.872038

>  <SCORE.INTRA.SOLV.lig_0>
-31.9559

>  <SCORE.INTRA.VDW>
-0.136069

>  <SCORE.INTRA.VDW.0>
-0.507645

>  <SCORE.INTRA.norm>
-0.254178

>  <SCORE.RESTR>
0

>  <SCORE.RESTR.CAVITY>
0

>  <SCORE.RESTR.norm>
0

>  <SCORE.SYSTEM>
0

>  <SCORE.SYSTEM.CONST>
0

>  <SCORE.SYSTEM.DIHEDRAL>
0

>  <SCORE.SYSTEM.SOLV>
0

>  <SCORE.SYSTEM.norm>
0

>  <SCORE.heavy>
10

>  <SCORE.norm>
-1.07083

>  <RMSD>
5.411

$$$$
ligand
 OpenBabel11021811473D
libRbt.so/2013.1/901 2013/11/27
 10  9  0  0  0  0  0  0  0  0999 V2000
   26.0163   15.0793   20.6535 N   0  0  0  0  0  0  0  0  0  0  0  0
   27.3449   15.4216   20.0807 C   0  0  2  0  0  0  0  0  0  0  0  0
   27.5769   14.7109   18.7469 C   0  0  0  0  0  0  0  0  0  0  0  0
   27.1817   13.5638   18.5634 O   0  0  0  0  0  0  0  0  0  0  0  0
   28.4546   15.1234   21.0954 C   0  0  0  0  0  0  0  0  0  0  0  0
   29.8483   15.4438   20.5647 C   0  0  0  0  0  0  0  0  0  0  0  0
   30.9520   15.0930   21.5528 C   0  0  0  0  0  0  0  0  0  0  0  0
   30.9286   16.0342   22.7577 C   0  0  0  0  0  0  0  0  0  0  0  0
   31.2547   17.4749   22.4265 N   0  0  0  0  0  0  0  0  0  0  0  0
   28.1232   15.2474   17.7899 O   0  0  0  0  0  0  0  0  0  0  0  0
  2  1  1  1  0  0  0
  2  3  1  0  0  0  0
  2  5  1  0  0  0  0
  3  4  1  0  0  0  0
  3 10  1  0  0  0  0
  5  6  1  0  0  0  0
  6  7  1  0  0  0  0
  7  8  1  0  0  0  0
  8  9  1  0  0  0  0
M  END
>  <CHROM.1>
-37.40525611,179.57453360,-177.62748608,-69.72916168,-65.57554319,28.76415650
15.30137698,20.38642696,2.37503300,-0.17272082,-1.87480534

>  <Name>
ligand

>  <RI>
0

>  <Rbt.Current_Directory>
/home/itssahil/PROJECTS/Mol_Feturizer/New_Systems/rnas/3DIM

>  <Rbt.Executable>
rbdock ($Id: //depot/dev/client3/rdock/2013.1/src/exe/rbdock.cxx#4 $)

>  <Rbt.Library>
libRbt.so (2013.1, Build901 2013/11/27)

>  <Rbt.Parameter_File>
/export/apps/rDock/src/rDock_2013.1_src/data/scripts/dock_solv.prm

>  <Rbt.Receptor>
prm/pocket_docking_3.prm

>  <SCORE>
-9.3001

>  <SCORE.INTER>
-7.42563

>  <SCORE.INTER.CONST>
1

>  <SCORE.INTER.POLAR>
0

>  <SCORE.INTER.ROT>
5

>  <SCORE.INTER.SOLV>
17.2634

>  <SCORE.INTER.VDW>
-17.6382

>  <SCORE.INTER.norm>
-0.742563

>  <SCORE.INTRA>
-1.87448

>  <SCORE.INTRA.DIHEDRAL>
-3.7689

>  <SCORE.INTRA.DIHEDRAL.0>
5.8785

>  <SCORE.INTRA.POLAR>
0

>  <SCORE.INTRA.POLAR.0>
0

>  <SCORE.INTRA.REPUL>
0

>  <SCORE.INTRA.REPUL.0>
0

>  <SCORE.INTRA.SOLV>
-0.526707

>  <SCORE.INTRA.SOLV.lig_0>
-31.9559

>  <SCORE.INTRA.VDW>
0.273328

>  <SCORE.INTRA.VDW.0>
-0.507645

>  <SCORE.INTRA.norm>
-0.187448

>  <SCORE.RESTR>
0

>  <SCORE.RESTR.CAVITY>
0

>  <SCORE.RESTR.norm>
0

>  <SCORE.SYSTEM>
0

>  <SCORE.SYSTEM.CONST>
0

>  <SCORE.SYSTEM.DIHEDRAL>
0

>  <SCORE.SYSTEM.SOLV>
0

>  <SCORE.SYSTEM.norm>
0

>  <SCORE.heavy>
10

>  <SCORE.norm>
-0.93001

>  <RMSD>
5.414

$$$$
ligand
 OpenBabel11021811473D
libRbt.so/2013.1/901 2013/11/27
 10  9  0  0  0  0  0  0  0  0999 V2000
   27.2228   14.8233   20.9349 N   0  0  0  0  0  0  0  0  0  0  0  0
   27.6677   15.7311   19.8448 C   0  0  2  0  0  0  0  0  0  0  0  0
   27.8555   14.9734   18.5301 C   0  0  0  0  0  0  0  0  0  0  0  0
   27.4301   13.8308   18.3913 O   0  0  0  0  0  0  0  0  0  0  0  0
   28.9350   16.4848   20.2640 C   0  0  0  0  0  0  0  0  0  0  0  0
   30.1163   15.5587   20.5350 C   0  0  0  0  0  0  0  0  0  0  0  0
   31.3969   16.3143   20.8614 C   0  0  0  0  0  0  0  0  0  0  0  0
   31.2843   17.0274   22.2094 C   0  0  0  0  0  0  0  0  0  0  0  0
   32.5200   17.8077   22.6041 N   0  0  0  0  0  0  0  0  0  0  0  0
   28.3944   15.4662   17.5457 O   0  0  0  0  0  0  0  0  0  0  0  0
  2  1  1  1  0  0  0
  2  3  1  0  0  0  0
  2  5  1  0  0  0  0
  3  4  1  0  0  0  0
  3 10  1  0  0  0  0
  5  6  1  0  0  0  0
  6  7  1  0  0  0  0
  7  8  1  0  0  0  0
  8  9  1  0  0  0  0
M  END
>  <CHROM.1>
12.86489773,62.04417182,176.20782593,67.96897762,-179.79235363,29.27572823
15.78171797,20.13578154,2.45581800,-0.42455789,-1.72517663

>  <Name>
ligand

>  <RI>
0

>  <Rbt.Current_Directory>
/home/itssahil/PROJECTS/Mol_Feturizer/New_Systems/rnas/3DIM

>  <Rbt.Executable>
rbdock ($Id: //depot/dev/client3/rdock/2013.1/src/exe/rbdock.cxx#4 $)

>  <Rbt.Library>
libRbt.so (2013.1, Build901 2013/11/27)

>  <Rbt.Parameter_File>
/export/apps/rDock/src/rDock_2013.1_src/data/scripts/dock_solv.prm

>  <Rbt.Receptor>
prm/pocket_docking_8.prm

>  <SCORE>
-10.2648

>  <SCORE.INTER>
-8.38822

>  <SCORE.INTER.CONST>
1

>  <SCORE.INTER.POLAR>
0

>  <SCORE.INTER.ROT>
5

>  <SCORE.INTER.SOLV>
14.0572

>  <SCORE.INTER.VDW>
-17.2112

>  <SCORE.INTER.norm>
-0.838822

>  <SCORE.INTRA>
-1.87659

>  <SCORE.INTRA.DIHEDRAL>
-4.0835

>  <SCORE.INTRA.DIHEDRAL.0>
5.8785

>  <SCORE.INTRA.POLAR>
0

>  <SCORE.INTRA.POLAR.0>
0

>  <SCORE.INTRA.REPUL>
0

>  <SCORE.INTRA.REPUL.0>
0

>  <SCORE.INTRA.SOLV>
-0.789293

>  <SCORE.INTRA.SOLV.lig_0>
-31.9559

>  <SCORE.INTRA.VDW>
0.559802

>  <SCORE.INTRA.VDW.0>
-0.507645

>  <SCORE.INTRA.norm>
-0.187659

>  <SCORE.RESTR>
0

>  <SCORE.RESTR.CAVITY>
0

>  <SCORE.RESTR.norm>
0

>  <SCORE.SYSTEM>
0

>  <SCORE.SYSTEM.CONST>
0

>  <SCORE.SYSTEM.DIHEDRAL>
0

>  <SCORE.SYSTEM.SOLV>
0

>  <SCORE.SYSTEM.norm>
0

>  <SCORE.heavy>
10

>  <SCORE.norm>
-1.02648

>  <RMSD>
5.417

$$$$
ligand
 OpenBabel11021811473D
libRbt.so/2013.1/901 2013/11/27
 10  9  0  0  0  0  0  0  0  0999 V2000
   27.2232   14.8235   20.9357 N   0  0  0  0  0  0  0  0  0  0  0  0
   27.6646   15.7308   19.8438 C   0  0  2  0  0  0  0  0  0  0  0  0
   27.8586   14.9706   18.5314 C   0  0  0  0  0  0  0  0  0  0  0  0
   27.4242   13.8319   18.3891 O   0  0  0  0  0  0  0  0  0  0  0  0
   28.9270   16.4928   20.2627 C   0  0  0  0  0  0  0  0  0  0  0  0
   30.1117   15.5738   20.5429 C   0  0  0  0  0  0  0  0  0  0  0  0
   31.3934   16.3372   20.8461 C   0  0  0  0  0  0  0  0  0  0  0  0
   31.2959   17.0602   22.1900 C   0  0  0  0  0  0  0  0  0  0  0  0
   32.5344   17.8468   22.5630 N   0  0  0  0  0  0  0  0  0  0  0  0
   28.4117   15.4579   17.5522 O   0  0  0  0  0  0  0  0  0  0  0  0
  2  1  1  1  0  0  0
  2  3  1  0  0  0  0
  2  5  1  0  0  0  0
  3  4  1  0  0  0  0
  3 10  1  0  0  0  0
  5  6  1  0  0  0  0
  6  7  1  0  0  0  0
  7  8  1  0  0  0  0
  8  9  1  0  0  0  0
M  END
>  <CHROM.1>
13.84399906,61.83398352,175.23984811,68.72766190,-179.89823851,29.27802570
15.79238466,20.12952116,2.45982268,-0.42794519,-1.73097317

>  <Name>
ligand

>  <RI>
0

>  <Rbt.Current_Directory>
/home/itssahil/PROJECTS/Mol_Feturizer/New_Systems/rnas/3DIM

>  <Rbt.Executable>
rbdock ($Id: //depot/dev/client3/rdock/2013.1/src/exe/rbdock.cxx#4 $)

>  <Rbt.Library>
libRbt.so (2013.1, Build901 2013/11/27)

>  <Rbt.Parameter_File>
/export/apps/rDock/src/rDock_2013.1_src/data/scripts/dock_solv.prm

>  <Rbt.Receptor>
prm/pocket_docking_4.prm

>  <SCORE>
-10.2467

>  <SCORE.INTER>
-8.3876

>  <SCORE.INTER.CONST>
1

>  <SCORE.INTER.POLAR>
0

>  <SCORE.INTER.ROT>
5

>  <SCORE.INTER.SOLV>
14.1042

>  <SCORE.INTER.VDW>
-17.2265

>  <SCORE.INTER.norm>
-0.83876

>  <SCORE.INTRA>
-1.85907

>  <SCORE.INTRA.DIHEDRAL>
-4.00395

>  <SCORE.INTRA.DIHEDRAL.0>
5.8785

>  <SCORE.INTRA.POLAR>
0

>  <SCORE.INTRA.POLAR.0>
0

>  <SCORE.INTRA.REPUL>
0

>  <SCORE.INTRA.REPUL.0>
0

>  <SCORE.INTRA.SOLV>
-0.796644

>  <SCORE.INTRA.SOLV.lig_0>
-31.9559

>  <SCORE.INTRA.VDW>
0.541226

>  <SCORE.INTRA.VDW.0>
-0.507645

>  <SCORE.INTRA.norm>
-0.185907

>  <SCORE.RESTR>
0

>  <SCORE.RESTR.CAVITY>
0

>  <SCORE.RESTR.norm>
0

>  <SCORE.SYSTEM>
0

>  <SCORE.SYSTEM.CONST>
0

>  <SCORE.SYSTEM.DIHEDRAL>
0

>  <SCORE.SYSTEM.SOLV>
0

>  <SCORE.SYSTEM.norm>
0

>  <SCORE.heavy>
10

>  <SCORE.norm>
-1.02467

>  <RMSD>
5.419

$$$$
ligand
 OpenBabel11021811473D
libRbt.so/2013.1/901 2013/11/27
 10  9  0  0  0  0  0  0  0  0999 V2000
   26.1518   14.6257   21.0450 N   0  0  0  0  0  0  0  0  0  0  0  0
   27.0468   15.4433   20.1843 C   0  0  2  0  0  0  0  0  0  0  0  0
   27.4597   14.6799   18.9254 C   0  0  0  0  0  0  0  0  0  0  0  0
   28.1311   15.2177   18.0505 O   0  0  0  0  0  0  0  0  0  0  0  0
   28.2576   15.9314   20.9878 C   0  0  0  0  0  0  0  0  0  0  0  0
   29.0842   14.7900   21.5714 C   0  0  0  0  0  0  0  0  0  0  0  0
   30.3882   15.2645   22.1974 C   0  0  0  0  0  0  0  0  0  0  0  0
   31.3373   15.8178   21.1338 C   0  0  0  0  0  0  0  0  0  0  0  0
   32.6162   16.4074   21.6892 N   0  0  0  0  0  0  0  0  0  0  0  0
   27.1849   13.5002   18.7389 O   0  0  0  0  0  0  0  0  0  0  0  0
  2  1  1  1  0  0  0
  2  3  1  0  0  0  0
  2  5  1  0  0  0  0
  3  4  1  0  0  0  0
  3 10  1  0  0  0  0
  5  6  1  0  0  0  0
  6  7  1  0  0  0  0
  7  8  1  0  0  0  0
  8  9  1  0  0  0  0
M  END
>  <CHROM.1>
175.47151895,59.18248222,171.82424066,-66.74092498,175.59818572,28.76556375
15.15009146,20.41831532,2.64026790,-0.24356548,-1.68353515

>  <Name>
ligand

>  <RI>
0

>  <Rbt.Current_Directory>
/home/itssahil/PROJECTS/Mol_Feturizer/New_Systems/rnas/3DIM

>  <Rbt.Executable>
rbdock ($Id: //depot/dev/client3/rdock/2013.1/src/exe/rbdock.cxx#4 $)

>  <Rbt.Library>
libRbt.so (2013.1, Build901 2013/11/27)

>  <Rbt.Parameter_File>
/export/apps/rDock/src/rDock_2013.1_src/data/scripts/dock_solv.prm

>  <Rbt.Receptor>
prm/pocket_docking_8.prm

>  <SCORE>
-10.8101

>  <SCORE.INTER>
-8.90124

>  <SCORE.INTER.CONST>
1

>  <SCORE.INTER.POLAR>
0

>  <SCORE.INTER.ROT>
5

>  <SCORE.INTER.SOLV>
17.3757

>  <SCORE.INTER.VDW>
-18.6594

>  <SCORE.INTER.norm>
-0.890124

>  <SCORE.INTRA>
-1.9089

>  <SCORE.INTRA.DIHEDRAL>
-3.8575

>  <SCORE.INTRA.DIHEDRAL.0>
5.8785

>  <SCORE.INTRA.POLAR>
0

>  <SCORE.INTRA.POLAR.0>
0

>  <SCORE.INTRA.REPUL>
0

>  <SCORE.INTRA.REPUL.0>
0

>  <SCORE.INTRA.SOLV>
-0.742878

>  <SCORE.INTRA.SOLV.lig_0>
-31.9559

>  <SCORE.INTRA.VDW>
0.391292

>  <SCORE.INTRA.VDW.0>
-0.507645

>  <SCORE.INTRA.norm>
-0.19089

>  <SCORE.RESTR>
0

>  <SCORE.RESTR.CAVITY>
0

>  <SCORE.RESTR.norm>
0

>  <SCORE.SYSTEM>
0

>  <SCORE.SYSTEM.CONST>
0

>  <SCORE.SYSTEM.DIHEDRAL>
0

>  <SCORE.SYSTEM.SOLV>
0

>  <SCORE.SYSTEM.norm>
0

>  <SCORE.heavy>
10

>  <SCORE.norm>
-1.08101

>  <RMSD>
5.420

$$$$
ligand
 OpenBabel11021811473D
libRbt.so/2013.1/901 2013/11/27
 10  9  0  0  0  0  0  0  0  0999 V2000
   26.7860   15.9071   20.2605 N   0  0  0  0  0  0  0  0  0  0  0  0
   28.0747   15.3963   19.7233 C   0  0  2  0  0  0  0  0  0  0  0  0
   27.9010   14.8087   18.3224 C   0  0  0  0  0  0  0  0  0  0  0  0
   27.2472   13.7863   18.1411 O   0  0  0  0  0  0  0  0  0  0  0  0
   28.6967   14.3908   20.6990 C   0  0  0  0  0  0  0  0  0  0  0  0
   29.4040   15.0600   21.8731 C   0  0  0  0  0  0  0  0  0  0  0  0
   30.6167   15.8750   21.4459 C   0  0  0  0  0  0  0  0  0  0  0  0
   31.2552   16.5771   22.6449 C   0  0  0  0  0  0  0  0  0  0  0  0
   32.4552   17.4320   22.2970 N   0  0  0  0  0  0  0  0  0  0  0  0
   28.3604   15.3348   17.3153 O   0  0  0  0  0  0  0  0  0  0  0  0
  2  1  1  1  0  0  0
  2  3  1  0  0  0  0
  2  5  1  0  0  0  0
  3  4  1  0  0  0  0
  3 10  1  0  0  0  0
  5  6  1  0  0  0  0
  6  7  1  0  0  0  0
  7  8  1  0  0  0  0
  8  9  1  0  0  0  0
M  END
>  <CHROM.1>
-67.09922576,-79.15537638,-65.03881508,177.44120472,-178.87617421,29.06789813
15.44111380,20.23259546,2.40350900,-0.46665521,-1.56287497

>  <Name>
ligand

>  <RI>
0

>  <Rbt.Current_Directory>
/home/itssahil/PROJECTS/Mol_Feturizer/New_Systems/rnas/3DIM

>  <Rbt.Executable>
rbdock ($Id: //depot/dev/client3/rdock/2013.1/src/exe/rbdock.cxx#4 $)

>  <Rbt.Library>
libRbt.so (2013.1, Build901 2013/11/27)

>  <Rbt.Parameter_File>
/export/apps/rDock/src/rDock_2013.1_src/data/scripts/dock_solv.prm

>  <Rbt.Receptor>
prm/pocket_docking_6.prm

>  <SCORE>
-9.74172

>  <SCORE.INTER>
-7.7481

>  <SCORE.INTER.CONST>
1

>  <SCORE.INTER.POLAR>
0

>  <SCORE.INTER.ROT>
5

>  <SCORE.INTER.SOLV>
15.3858

>  <SCORE.INTER.VDW>
-17.2273

>  <SCORE.INTER.norm>
-0.77481

>  <SCORE.INTRA>
-1.99361

>  <SCORE.INTRA.DIHEDRAL>
-2.90579

>  <SCORE.INTRA.DIHEDRAL.0>
5.8785

>  <SCORE.INTRA.POLAR>
0

>  <SCORE.INTRA.POLAR.0>
0

>  <SCORE.INTRA.REPUL>
0

>  <SCORE.INTRA.REPUL.0>
0

>  <SCORE.INTRA.SOLV>
-0.792452

>  <SCORE.INTRA.SOLV.lig_0>
-31.9559

>  <SCORE.INTRA.VDW>
-0.14449

>  <SCORE.INTRA.VDW.0>
-0.507645

>  <SCORE.INTRA.norm>
-0.199361

>  <SCORE.RESTR>
0

>  <SCORE.RESTR.CAVITY>
0

>  <SCORE.RESTR.norm>
0

>  <SCORE.SYSTEM>
0

>  <SCORE.SYSTEM.CONST>
0

>  <SCORE.SYSTEM.DIHEDRAL>
0

>  <SCORE.SYSTEM.SOLV>
0

>  <SCORE.SYSTEM.norm>
0

>  <SCORE.heavy>
10

>  <SCORE.norm>
-0.974172

>  <RMSD>
5.421

$$$$
ligand
 OpenBabel11021811473D
libRbt.so/2013.1/901 2013/11/27
 10  9  0  0  0  0  0  0  0  0999 V2000
   26.2391   14.6625   21.0024 N   0  0  0  0  0  0  0  0  0  0  0  0
   27.1094   15.4568   20.0958 C   0  0  2  0  0  0  0  0  0  0  0  0
   27.5098   14.6507   18.8597 C   0  0  0  0  0  0  0  0  0  0  0  0
   28.1881   15.1527   17.9688 O   0  0  0  0  0  0  0  0  0  0  0  0
   28.3279   15.9887   20.8589 C   0  0  0  0  0  0  0  0  0  0  0  0
   29.1658   14.8809   21.4891 C   0  0  0  0  0  0  0  0  0  0  0  0
   30.4289   15.4035   22.1592 C   0  0  0  0  0  0  0  0  0  0  0  0
   31.4247   15.9236   21.1218 C   0  0  0  0  0  0  0  0  0  0  0  0
   32.6678   16.5518   21.7149 N   0  0  0  0  0  0  0  0  0  0  0  0
   27.2177   13.4701   18.7082 O   0  0  0  0  0  0  0  0  0  0  0  0
  2  1  1  1  0  0  0
  2  3  1  0  0  0  0
  2  5  1  0  0  0  0
  3  4  1  0  0  0  0
  3 10  1  0  0  0  0
  5  6  1  0  0  0  0
  6  7  1  0  0  0  0
  7  8  1  0  0  0  0
  8  9  1  0  0  0  0
M  END
>  <CHROM.1>
177.30504636,58.28936964,175.80618850,-68.97031461,175.87331657,28.82737969
15.19510166,20.36416364,2.61883785,-0.25521298,-1.71850546

>  <Name>
ligand

>  <RI>
0

>  <Rbt.Current_Directory>
/home/itssahil/PROJECTS/Mol_Feturizer/New_Systems/rnas/3DIM

>  <Rbt.Executable>
rbdock ($Id: //depot/dev/client3/rdock/2013.1/src/exe/rbdock.cxx#4 $)

>  <Rbt.Library>
libRbt.so (2013.1, Build901 2013/11/27)

>  <Rbt.Parameter_File>
/export/apps/rDock/src/rDock_2013.1_src/data/scripts/dock_solv.prm

>  <Rbt.Receptor>
prm/blind_docking_60.prm

>  <SCORE>
-10.726

>  <SCORE.INTER>
-8.75093

>  <SCORE.INTER.CONST>
1

>  <SCORE.INTER.POLAR>
0

>  <SCORE.INTER.ROT>
5

>  <SCORE.INTER.SOLV>
17.0171

>  <SCORE.INTER.VDW>
-18.4397

>  <SCORE.INTER.norm>
-0.875093

>  <SCORE.INTRA>
-1.97508

>  <SCORE.INTRA.DIHEDRAL>
-3.90762

>  <SCORE.INTRA.DIHEDRAL.0>
5.8785

>  <SCORE.INTRA.POLAR>
0

>  <SCORE.INTRA.POLAR.0>
0

>  <SCORE.INTRA.REPUL>
0

>  <SCORE.INTRA.REPUL.0>
0

>  <SCORE.INTRA.SOLV>
-0.733012

>  <SCORE.INTRA.SOLV.lig_0>
-31.9559

>  <SCORE.INTRA.VDW>
0.34524

>  <SCORE.INTRA.VDW.0>
-0.507645

>  <SCORE.INTRA.norm>
-0.197508

>  <SCORE.RESTR>
0

>  <SCORE.RESTR.CAVITY>
0

>  <SCORE.RESTR.norm>
0

>  <SCORE.SYSTEM>
0

>  <SCORE.SYSTEM.CONST>
0

>  <SCORE.SYSTEM.DIHEDRAL>
0

>  <SCORE.SYSTEM.SOLV>
0

>  <SCORE.SYSTEM.norm>
0

>  <SCORE.heavy>
10

>  <SCORE.norm>
-1.0726

>  <RMSD>
5.426

$$$$
ligand
 OpenBabel11021811473D
libRbt.so/2013.1/901 2013/11/27
 10  9  0  0  0  0  0  0  0  0999 V2000
   26.0913   14.8769   20.8021 N   0  0  0  0  0  0  0  0  0  0  0  0
   27.3741   15.2985   20.1799 C   0  0  2  0  0  0  0  0  0  0  0  0
   27.5739   14.6410   18.8140 C   0  0  0  0  0  0  0  0  0  0  0  0
   27.1621   13.5069   18.5908 O   0  0  0  0  0  0  0  0  0  0  0  0
   28.5435   15.0214   21.1316 C   0  0  0  0  0  0  0  0  0  0  0  0
   29.8860   15.4855   20.5760 C   0  0  0  0  0  0  0  0  0  0  0  0
   31.0561   15.1273   21.4816 C   0  0  0  0  0  0  0  0  0  0  0  0
   31.0348   15.9638   22.7615 C   0  0  0  0  0  0  0  0  0  0  0  0
   31.2774   17.4417   22.5413 N   0  0  0  0  0  0  0  0  0  0  0  0
   28.1094   15.2105   17.8700 O   0  0  0  0  0  0  0  0  0  0  0  0
  2  1  1  1  0  0  0
  2  3  1  0  0  0  0
  2  5  1  0  0  0  0
  3  4  1  0  0  0  0
  3 10  1  0  0  0  0
  5  6  1  0  0  0  0
  6  7  1  0  0  0  0
  7  8  1  0  0  0  0
  8  9  1  0  0  0  0
M  END
>  <CHROM.1>
-33.67296199,-177.60177820,-176.22320230,-70.30981698,-66.45887347,28.80598404
15.24046954,20.43763393,2.39613008,-0.22732461,-1.83620752

>  <Name>
ligand

>  <RI>
0

>  <Rbt.Current_Directory>
/home/itssahil/PROJECTS/Mol_Feturizer/New_Systems/rnas/3DIM

>  <Rbt.Executable>
rbdock ($Id: //depot/dev/client3/rdock/2013.1/src/exe/rbdock.cxx#4 $)

>  <Rbt.Library>
libRbt.so (2013.1, Build901 2013/11/27)

>  <Rbt.Parameter_File>
/export/apps/rDock/src/rDock_2013.1_src/data/scripts/dock_solv.prm

>  <Rbt.Receptor>
prm/pocket_docking_6.prm

>  <SCORE>
-9.353

>  <SCORE.INTER>
-7.50732

>  <SCORE.INTER.CONST>
1

>  <SCORE.INTER.POLAR>
0

>  <SCORE.INTER.ROT>
5

>  <SCORE.INTER.SOLV>
17.1443

>  <SCORE.INTER.VDW>
-17.653

>  <SCORE.INTER.norm>
-0.750732

>  <SCORE.INTRA>
-1.84568

>  <SCORE.INTRA.DIHEDRAL>
-3.6253

>  <SCORE.INTRA.DIHEDRAL.0>
5.8785

>  <SCORE.INTRA.POLAR>
0

>  <SCORE.INTRA.POLAR.0>
0

>  <SCORE.INTRA.REPUL>
0

>  <SCORE.INTRA.REPUL.0>
0

>  <SCORE.INTRA.SOLV>
-0.550567

>  <SCORE.INTRA.SOLV.lig_0>
-31.9559

>  <SCORE.INTRA.VDW>
0.242254

>  <SCORE.INTRA.VDW.0>
-0.507645

>  <SCORE.INTRA.norm>
-0.184568

>  <SCORE.RESTR>
0

>  <SCORE.RESTR.CAVITY>
0

>  <SCORE.RESTR.norm>
0

>  <SCORE.SYSTEM>
0

>  <SCORE.SYSTEM.CONST>
0

>  <SCORE.SYSTEM.DIHEDRAL>
0

>  <SCORE.SYSTEM.SOLV>
0

>  <SCORE.SYSTEM.norm>
0

>  <SCORE.heavy>
10

>  <SCORE.norm>
-0.9353

>  <RMSD>
5.426

$$$$
ligand
 OpenBabel11021811473D
libRbt.so/2013.1/901 2013/11/27
 10  9  0  0  0  0  0  0  0  0999 V2000
   26.7930   15.8669   20.2793 N   0  0  0  0  0  0  0  0  0  0  0  0
   28.0847   15.3983   19.7116 C   0  0  2  0  0  0  0  0  0  0  0  0
   27.8999   14.8197   18.3084 C   0  0  0  0  0  0  0  0  0  0  0  0
   27.2233   13.8130   18.1227 O   0  0  0  0  0  0  0  0  0  0  0  0
   28.7543   14.4015   20.6645 C   0  0  0  0  0  0  0  0  0  0  0  0
   29.4332   15.0770   21.8517 C   0  0  0  0  0  0  0  0  0  0  0  0
   30.6197   15.9385   21.4425 C   0  0  0  0  0  0  0  0  0  0  0  0
   31.2456   16.6227   22.6584 C   0  0  0  0  0  0  0  0  0  0  0  0
   32.4264   17.5117   22.3311 N   0  0  0  0  0  0  0  0  0  0  0  0
   28.3726   15.3387   17.3038 O   0  0  0  0  0  0  0  0  0  0  0  0
  2  1  1  1  0  0  0
  2  3  1  0  0  0  0
  2  5  1  0  0  0  0
  3  4  1  0  0  0  0
  3 10  1  0  0  0  0
  5  6  1  0  0  0  0
  6  7  1  0  0  0  0
  7  8  1  0  0  0  0
  8  9  1  0  0  0  0
M  END
>  <CHROM.1>
-63.90416784,-77.59227012,-65.92233056,178.54754787,-179.38588763,29.07320250
15.46319777,20.22765414,2.40264543,-0.48085814,-1.56133877

>  <Name>
ligand

>  <RI>
0

>  <Rbt.Current_Directory>
/home/itssahil/PROJECTS/Mol_Feturizer/New_Systems/rnas/3DIM

>  <Rbt.Executable>
rbdock ($Id: //depot/dev/client3/rdock/2013.1/src/exe/rbdock.cxx#4 $)

>  <Rbt.Library>
libRbt.so (2013.1, Build901 2013/11/27)

>  <Rbt.Parameter_File>
/export/apps/rDock/src/rDock_2013.1_src/data/scripts/dock_solv.prm

>  <Rbt.Receptor>
prm/pocket_docking_7.prm

>  <SCORE>
-9.73831

>  <SCORE.INTER>
-7.64038

>  <SCORE.INTER.CONST>
1

>  <SCORE.INTER.POLAR>
0

>  <SCORE.INTER.ROT>
5

>  <SCORE.INTER.SOLV>
15.3095

>  <SCORE.INTER.VDW>
-17.1301

>  <SCORE.INTER.norm>
-0.764038

>  <SCORE.INTRA>
-2.09793

>  <SCORE.INTRA.DIHEDRAL>
-3.06986

>  <SCORE.INTRA.DIHEDRAL.0>
5.8785

>  <SCORE.INTRA.POLAR>
0

>  <SCORE.INTRA.POLAR.0>
0

>  <SCORE.INTRA.REPUL>
0

>  <SCORE.INTRA.REPUL.0>
0

>  <SCORE.INTRA.SOLV>
-0.771594

>  <SCORE.INTRA.SOLV.lig_0>
-31.9559

>  <SCORE.INTRA.VDW>
-0.177207

>  <SCORE.INTRA.VDW.0>
-0.507645

>  <SCORE.INTRA.norm>
-0.209793

>  <SCORE.RESTR>
0

>  <SCORE.RESTR.CAVITY>
0

>  <SCORE.RESTR.norm>
0

>  <SCORE.SYSTEM>
0

>  <SCORE.SYSTEM.CONST>
0

>  <SCORE.SYSTEM.DIHEDRAL>
0

>  <SCORE.SYSTEM.SOLV>
0

>  <SCORE.SYSTEM.norm>
0

>  <SCORE.heavy>
10

>  <SCORE.norm>
-0.973831

>  <RMSD>
5.426

$$$$
ligand
 OpenBabel11021811473D
libRbt.so/2013.1/901 2013/11/27
 10  9  0  0  0  0  0  0  0  0999 V2000
   26.0831   14.8611   20.8414 N   0  0  0  0  0  0  0  0  0  0  0  0
   27.3463   15.3159   20.2028 C   0  0  2  0  0  0  0  0  0  0  0  0
   27.5453   14.6638   18.8342 C   0  0  0  0  0  0  0  0  0  0  0  0
   28.1390   15.2495   17.9340 O   0  0  0  0  0  0  0  0  0  0  0  0
   28.5347   15.0694   21.1391 C   0  0  0  0  0  0  0  0  0  0  0  0
   29.8613   15.5444   20.5551 C   0  0  0  0  0  0  0  0  0  0  0  0
   31.0479   15.2397   21.4588 C   0  0  0  0  0  0  0  0  0  0  0  0
   31.0404   16.1393   22.6953 C   0  0  0  0  0  0  0  0  0  0  0  0
   31.3405   17.5946   22.4061 N   0  0  0  0  0  0  0  0  0  0  0  0
   27.1677   13.5272   18.5740 O   0  0  0  0  0  0  0  0  0  0  0  0
  2  1  1  1  0  0  0
  2  3  1  0  0  0  0
  2  5  1  0  0  0  0
  3  4  1  0  0  0  0
  3 10  1  0  0  0  0
  5  6  1  0  0  0  0
  6  7  1  0  0  0  0
  7  8  1  0  0  0  0
  8  9  1  0  0  0  0
M  END
>  <CHROM.1>
149.04659307,-178.68806266,-177.32187423,-71.71732978,-69.49446602,28.80681958
15.30359095,20.42710758,2.41798567,-0.26713038,-1.83533929

>  <Name>
ligand

>  <RI>
0

>  <Rbt.Current_Directory>
/home/itssahil/PROJECTS/Mol_Feturizer/New_Systems/rnas/3DIM

>  <Rbt.Executable>
rbdock ($Id: //depot/dev/client3/rdock/2013.1/src/exe/rbdock.cxx#4 $)

>  <Rbt.Library>
libRbt.so (2013.1, Build901 2013/11/27)

>  <Rbt.Parameter_File>
/export/apps/rDock/src/rDock_2013.1_src/data/scripts/dock_solv.prm

>  <Rbt.Receptor>
prm/pocket_docking_6.prm

>  <SCORE>
-9.4598

>  <SCORE.INTER>
-7.59776

>  <SCORE.INTER.CONST>
1

>  <SCORE.INTER.POLAR>
0

>  <SCORE.INTER.ROT>
5

>  <SCORE.INTER.SOLV>
17.4399

>  <SCORE.INTER.VDW>
-17.8118

>  <SCORE.INTER.norm>
-0.759776

>  <SCORE.INTRA>
-1.86203

>  <SCORE.INTRA.DIHEDRAL>
-3.52876

>  <SCORE.INTRA.DIHEDRAL.0>
5.8785

>  <SCORE.INTRA.POLAR>
0

>  <SCORE.INTRA.POLAR.0>
0

>  <SCORE.INTRA.REPUL>
0

>  <SCORE.INTRA.REPUL.0>
0

>  <SCORE.INTRA.SOLV>
-0.654153

>  <SCORE.INTRA.SOLV.lig_0>
-31.9559

>  <SCORE.INTRA.VDW>
0.22942

>  <SCORE.INTRA.VDW.0>
-0.507645

>  <SCORE.INTRA.norm>
-0.186203

>  <SCORE.RESTR>
0

>  <SCORE.RESTR.CAVITY>
0

>  <SCORE.RESTR.norm>
0

>  <SCORE.SYSTEM>
0

>  <SCORE.SYSTEM.CONST>
0

>  <SCORE.SYSTEM.DIHEDRAL>
0

>  <SCORE.SYSTEM.SOLV>
0

>  <SCORE.SYSTEM.norm>
0

>  <SCORE.heavy>
10

>  <SCORE.norm>
-0.94598

>  <RMSD>
5.427

$$$$
ligand
 OpenBabel11021811473D
libRbt.so/2013.1/901 2013/11/27
 10  9  0  0  0  0  0  0  0  0999 V2000
   25.7818   14.9051   20.8536 N   0  0  0  0  0  0  0  0  0  0  0  0
   27.1865   15.2155   20.4786 C   0  0  2  0  0  0  0  0  0  0  0  0
   27.5146   14.7054   19.0750 C   0  0  0  0  0  0  0  0  0  0  0  0
   28.1485   15.3953   18.2826 O   0  0  0  0  0  0  0  0  0  0  0  0
   28.1530   14.6661   21.5341 C   0  0  0  0  0  0  0  0  0  0  0  0
   29.6020   15.0705   21.2825 C   0  0  0  0  0  0  0  0  0  0  0  0
   29.8069   16.5789   21.3036 C   0  0  0  0  0  0  0  0  0  0  0  0
   31.2587   16.9393   20.9865 C   0  0  0  0  0  0  0  0  0  0  0  0
   32.2600   16.4352   22.0039 N   0  0  0  0  0  0  0  0  0  0  0  0
   27.2058   13.5866   18.6813 O   0  0  0  0  0  0  0  0  0  0  0  0
  2  1  1  1  0  0  0
  2  3  1  0  0  0  0
  2  5  1  0  0  0  0
  3  4  1  0  0  0  0
  3 10  1  0  0  0  0
  5  6  1  0  0  0  0
  6  7  1  0  0  0  0
  7  8  1  0  0  0  0
  8  9  1  0  0  0  0
M  END
>  <CHROM.1>
136.68030024,-174.25900489,60.93184126,-177.50330230,-63.60134108,28.69088670
15.33585422,20.41231876,2.68064690,-0.36684666,-1.70870537

>  <Name>
ligand

>  <RI>
0

>  <Rbt.Current_Directory>
/home/itssahil/PROJECTS/Mol_Feturizer/New_Systems/rnas/3DIM

>  <Rbt.Executable>
rbdock ($Id: //depot/dev/client3/rdock/2013.1/src/exe/rbdock.cxx#4 $)

>  <Rbt.Library>
libRbt.so (2013.1, Build901 2013/11/27)

>  <Rbt.Parameter_File>
/export/apps/rDock/src/rDock_2013.1_src/data/scripts/dock_solv.prm

>  <Rbt.Receptor>
prm/pocket_docking_6.prm

>  <SCORE>
-10.4692

>  <SCORE.INTER>
-7.84507

>  <SCORE.INTER.CONST>
1

>  <SCORE.INTER.POLAR>
0

>  <SCORE.INTER.ROT>
5

>  <SCORE.INTER.SOLV>
17.4048

>  <SCORE.INTER.VDW>
-17.965

>  <SCORE.INTER.norm>
-0.784507

>  <SCORE.INTRA>
-2.62412

>  <SCORE.INTRA.DIHEDRAL>
-4.23652

>  <SCORE.INTRA.DIHEDRAL.0>
5.8785

>  <SCORE.INTRA.POLAR>
0

>  <SCORE.INTRA.POLAR.0>
0

>  <SCORE.INTRA.REPUL>
0

>  <SCORE.INTRA.REPUL.0>
0

>  <SCORE.INTRA.SOLV>
-0.750927

>  <SCORE.INTRA.SOLV.lig_0>
-31.9559

>  <SCORE.INTRA.VDW>
-0.130398

>  <SCORE.INTRA.VDW.0>
-0.507645

>  <SCORE.INTRA.norm>
-0.262412

>  <SCORE.RESTR>
0

>  <SCORE.RESTR.CAVITY>
0

>  <SCORE.RESTR.norm>
0

>  <SCORE.SYSTEM>
0

>  <SCORE.SYSTEM.CONST>
0

>  <SCORE.SYSTEM.DIHEDRAL>
0

>  <SCORE.SYSTEM.SOLV>
0

>  <SCORE.SYSTEM.norm>
0

>  <SCORE.heavy>
10

>  <SCORE.norm>
-1.04692

>  <RMSD>
5.428

$$$$
ligand
 OpenBabel11021811473D
libRbt.so/2013.1/901 2013/11/27
 10  9  0  0  0  0  0  0  0  0999 V2000
   27.2490   14.7628   20.9113 N   0  0  0  0  0  0  0  0  0  0  0  0
   27.6573   15.6931   19.8259 C   0  0  2  0  0  0  0  0  0  0  0  0
   27.8410   14.9556   18.4992 C   0  0  0  0  0  0  0  0  0  0  0  0
   27.4416   13.8045   18.3540 O   0  0  0  0  0  0  0  0  0  0  0  0
   28.9145   16.4690   20.2350 C   0  0  0  0  0  0  0  0  0  0  0  0
   30.1119   15.5632   20.5041 C   0  0  0  0  0  0  0  0  0  0  0  0
   31.3815   16.3407   20.8222 C   0  0  0  0  0  0  0  0  0  0  0  0
   31.2680   17.0461   22.1742 C   0  0  0  0  0  0  0  0  0  0  0  0
   32.4949   17.8427   22.5637 N   0  0  0  0  0  0  0  0  0  0  0  0
   28.3504   15.4730   17.5117 O   0  0  0  0  0  0  0  0  0  0  0  0
  2  1  1  1  0  0  0
  2  3  1  0  0  0  0
  2  5  1  0  0  0  0
  3  4  1  0  0  0  0
  3 10  1  0  0  0  0
  5  6  1  0  0  0  0
  6  7  1  0  0  0  0
  7  8  1  0  0  0  0
  8  9  1  0  0  0  0
M  END
>  <CHROM.1>
12.64801602,60.87542851,176.28753175,68.48946396,179.97408799,29.26434051
15.77532179,20.10364065,2.46533904,-0.45131261,-1.70362529

>  <Name>
ligand

>  <RI>
0

>  <Rbt.Current_Directory>
/home/itssahil/PROJECTS/Mol_Feturizer/New_Systems/rnas/3DIM

>  <Rbt.Executable>
rbdock ($Id: //depot/dev/client3/rdock/2013.1/src/exe/rbdock.cxx#4 $)

>  <Rbt.Library>
libRbt.so (2013.1, Build901 2013/11/27)

>  <Rbt.Parameter_File>
/export/apps/rDock/src/rDock_2013.1_src/data/scripts/dock_solv.prm

>  <Rbt.Receptor>
prm/pocket_docking_6.prm

>  <SCORE>
-10.2651

>  <SCORE.INTER>
-8.38261

>  <SCORE.INTER.CONST>
1

>  <SCORE.INTER.POLAR>
0

>  <SCORE.INTER.ROT>
5

>  <SCORE.INTER.SOLV>
13.9787

>  <SCORE.INTER.VDW>
-17.1813

>  <SCORE.INTER.norm>
-0.838261

>  <SCORE.INTRA>
-1.88252

>  <SCORE.INTRA.DIHEDRAL>
-4.06124

>  <SCORE.INTRA.DIHEDRAL.0>
5.8785

>  <SCORE.INTRA.POLAR>
0

>  <SCORE.INTRA.POLAR.0>
0

>  <SCORE.INTRA.REPUL>
0

>  <SCORE.INTRA.REPUL.0>
0

>  <SCORE.INTRA.SOLV>
-0.777902

>  <SCORE.INTRA.SOLV.lig_0>
-31.9559

>  <SCORE.INTRA.VDW>
0.537052

>  <SCORE.INTRA.VDW.0>
-0.507645

>  <SCORE.INTRA.norm>
-0.188252

>  <SCORE.RESTR>
0

>  <SCORE.RESTR.CAVITY>
0

>  <SCORE.RESTR.norm>
0

>  <SCORE.SYSTEM>
0

>  <SCORE.SYSTEM.CONST>
0

>  <SCORE.SYSTEM.DIHEDRAL>
0

>  <SCORE.SYSTEM.SOLV>
0

>  <SCORE.SYSTEM.norm>
0

>  <SCORE.heavy>
10

>  <SCORE.norm>
-1.02651

>  <RMSD>
5.429

$$$$
ligand
 OpenBabel11021811473D
libRbt.so/2013.1/901 2013/11/27
 10  9  0  0  0  0  0  0  0  0999 V2000
   28.9281   14.3337   22.5632 N   0  0  0  0  0  0  0  0  0  0  0  0
   28.5392   15.3703   21.5709 C   0  0  2  0  0  0  0  0  0  0  0  0
   27.0960   15.1802   21.1027 C   0  0  0  0  0  0  0  0  0  0  0  0
   26.2857   14.5600   21.7841 O   0  0  0  0  0  0  0  0  0  0  0  0
   29.5295   15.3850   20.4009 C   0  0  0  0  0  0  0  0  0  0  0  0
   30.9747   15.5826   20.8467 C   0  0  0  0  0  0  0  0  0  0  0  0
   31.2061   16.9266   21.5233 C   0  0  0  0  0  0  0  0  0  0  0  0
   32.6648   17.0782   21.9566 C   0  0  0  0  0  0  0  0  0  0  0  0
   32.9717   18.3846   22.6571 N   0  0  0  0  0  0  0  0  0  0  0  0
   26.6625   15.6600   20.0615 O   0  0  0  0  0  0  0  0  0  0  0  0
  2  1  1  1  0  0  0
  2  3  1  0  0  0  0
  2  5  1  0  0  0  0
  3  4  1  0  0  0  0
  3 10  1  0  0  0  0
  5  6  1  0  0  0  0
  6  7  1  0  0  0  0
  7  8  1  0  0  0  0
  8  9  1  0  0  0  0
M  END
>  <CHROM.1>
22.19786141,-55.57420735,-63.08581532,179.80820144,-179.17802431,29.44212502
15.83829443,21.43574749,-3.06354769,-0.43258599,-1.03663687

>  <Name>
ligand

>  <RI>
0

>  <Rbt.Current_Directory>
/home/itssahil/PROJECTS/Mol_Feturizer/New_Systems/rnas/3DIM

>  <Rbt.Executable>
rbdock ($Id: //depot/dev/client3/rdock/2013.1/src/exe/rbdock.cxx#4 $)

>  <Rbt.Library>
libRbt.so (2013.1, Build901 2013/11/27)

>  <Rbt.Parameter_File>
/export/apps/rDock/src/rDock_2013.1_src/data/scripts/dock_solv.prm

>  <Rbt.Receptor>
prm/pocket_docking_5.prm

>  <SCORE>
-9.46248

>  <SCORE.INTER>
-7.51794

>  <SCORE.INTER.CONST>
1

>  <SCORE.INTER.POLAR>
0

>  <SCORE.INTER.ROT>
5

>  <SCORE.INTER.SOLV>
16.7691

>  <SCORE.INTER.VDW>
-17.535

>  <SCORE.INTER.norm>
-0.751794

>  <SCORE.INTRA>
-1.94454

>  <SCORE.INTRA.DIHEDRAL>
-4.3361

>  <SCORE.INTRA.DIHEDRAL.0>
5.8785

>  <SCORE.INTRA.POLAR>
0

>  <SCORE.INTRA.POLAR.0>
0

>  <SCORE.INTRA.REPUL>
0

>  <SCORE.INTRA.REPUL.0>
0

>  <SCORE.INTRA.SOLV>
-0.275096

>  <SCORE.INTRA.SOLV.lig_0>
-31.9559

>  <SCORE.INTRA.VDW>
0.361053

>  <SCORE.INTRA.VDW.0>
-0.507645

>  <SCORE.INTRA.norm>
-0.194454

>  <SCORE.RESTR>
0

>  <SCORE.RESTR.CAVITY>
0

>  <SCORE.RESTR.norm>
0

>  <SCORE.SYSTEM>
0

>  <SCORE.SYSTEM.CONST>
0

>  <SCORE.SYSTEM.DIHEDRAL>
0

>  <SCORE.SYSTEM.SOLV>
0

>  <SCORE.SYSTEM.norm>
0

>  <SCORE.heavy>
10

>  <SCORE.norm>
-0.946248

>  <RMSD>
5.432

$$$$
ligand
 OpenBabel11021811473D
libRbt.so/2013.1/901 2013/11/27
 10  9  0  0  0  0  0  0  0  0999 V2000
   28.8809   16.0896   20.1489 N   0  0  0  0  0  0  0  0  0  0  0  0
   28.3383   15.0659   21.0805 C   0  0  2  0  0  0  0  0  0  0  0  0
   26.8155   14.9718   20.9800 C   0  0  0  0  0  0  0  0  0  0  0  0
   26.2127   15.4552   20.0268 O   0  0  0  0  0  0  0  0  0  0  0  0
   28.8070   15.3479   22.5125 C   0  0  0  0  0  0  0  0  0  0  0  0
   30.3260   15.3614   22.6500 C   0  0  0  0  0  0  0  0  0  0  0  0
   30.9509   16.6659   22.1752 C   0  0  0  0  0  0  0  0  0  0  0  0
   32.4671   16.6513   22.3732 C   0  0  0  0  0  0  0  0  0  0  0  0
   33.1530   17.9514   22.0112 N   0  0  0  0  0  0  0  0  0  0  0  0
   26.1260   14.3859   21.8068 O   0  0  0  0  0  0  0  0  0  0  0  0
  2  1  1  6  0  0  0
  2  3  1  0  0  0  0
  2  5  1  0  0  0  0
  3  4  1  0  0  0  0
  3 10  1  0  0  0  0
  5  6  1  0  0  0  0
  6  7  1  0  0  0  0
  7  8  1  0  0  0  0
  8  9  1  0  0  0  0
M  END
>  <CHROM.1>
15.92859363,-58.70023055,79.14650829,178.17492942,-176.08343457,29.16268539
15.78680611,21.57027043,-3.13112459,0.40677420,2.09706422

>  <Name>
ligand

>  <RI>
0

>  <Rbt.Current_Directory>
/home/itssahil/PROJECTS/Mol_Feturizer/New_Systems/rnas/3DIM

>  <Rbt.Executable>
rbdock ($Id: //depot/dev/client3/rdock/2013.1/src/exe/rbdock.cxx#4 $)

>  <Rbt.Library>
libRbt.so (2013.1, Build901 2013/11/27)

>  <Rbt.Parameter_File>
/export/apps/rDock/src/rDock_2013.1_src/data/scripts/dock_solv.prm

>  <Rbt.Receptor>
prm/pocket_docking_8.prm

>  <SCORE>
-10.6877

>  <SCORE.INTER>
-9.70086

>  <SCORE.INTER.CONST>
1

>  <SCORE.INTER.POLAR>
0

>  <SCORE.INTER.ROT>
5

>  <SCORE.INTER.SOLV>
12.638

>  <SCORE.INTER.VDW>
-17.6132

>  <SCORE.INTER.norm>
-0.970086

>  <SCORE.INTRA>
-0.986802

>  <SCORE.INTRA.DIHEDRAL>
-2.93993

>  <SCORE.INTRA.DIHEDRAL.0>
5.8785

>  <SCORE.INTRA.POLAR>
0

>  <SCORE.INTRA.POLAR.0>
0

>  <SCORE.INTRA.REPUL>
0

>  <SCORE.INTRA.REPUL.0>
0

>  <SCORE.INTRA.SOLV>
0.463333

>  <SCORE.INTRA.SOLV.lig_0>
-31.9559

>  <SCORE.INTRA.VDW>
0.251498

>  <SCORE.INTRA.VDW.0>
-0.507645

>  <SCORE.INTRA.norm>
-0.0986802

>  <SCORE.RESTR>
0

>  <SCORE.RESTR.CAVITY>
0

>  <SCORE.RESTR.norm>
0

>  <SCORE.SYSTEM>
0

>  <SCORE.SYSTEM.CONST>
0

>  <SCORE.SYSTEM.DIHEDRAL>
0

>  <SCORE.SYSTEM.SOLV>
0

>  <SCORE.SYSTEM.norm>
0

>  <SCORE.heavy>
10

>  <SCORE.norm>
-1.06877

>  <RMSD>
5.433

$$$$
ligand
 OpenBabel11021811473D
libRbt.so/2013.1/901 2013/11/27
 10  9  0  0  0  0  0  0  0  0999 V2000
   26.1527   14.6931   20.9033 N   0  0  0  0  0  0  0  0  0  0  0  0
   27.0785   15.4724   20.0396 C   0  0  2  0  0  0  0  0  0  0  0  0
   27.5054   14.6678   18.8115 C   0  0  0  0  0  0  0  0  0  0  0  0
   28.2000   15.1717   17.9344 O   0  0  0  0  0  0  0  0  0  0  0  0
   28.2798   15.9641   20.8550 C   0  0  0  0  0  0  0  0  0  0  0  0
   29.0895   14.8258   21.4677 C   0  0  0  0  0  0  0  0  0  0  0  0
   30.3306   15.3123   22.2030 C   0  0  0  0  0  0  0  0  0  0  0  0
   31.3460   15.9101   21.2284 C   0  0  0  0  0  0  0  0  0  0  0  0
   32.5657   16.5111   21.8938 N   0  0  0  0  0  0  0  0  0  0  0  0
   27.2193   13.4865   18.6538 O   0  0  0  0  0  0  0  0  0  0  0  0
  2  1  1  1  0  0  0
  2  3  1  0  0  0  0
  2  5  1  0  0  0  0
  3  4  1  0  0  0  0
  3 10  1  0  0  0  0
  5  6  1  0  0  0  0
  6  7  1  0  0  0  0
  7  8  1  0  0  0  0
  8  9  1  0  0  0  0
M  END
>  <CHROM.1>
175.23396317,60.17343076,176.38095387,-67.12433696,175.67600454,28.77703735
15.18267653,20.36516300,2.58363527,-0.24354197,-1.71149654

>  <Name>
ligand

>  <RI>
0

>  <Rbt.Current_Directory>
/home/itssahil/PROJECTS/Mol_Feturizer/New_Systems/rnas/3DIM

>  <Rbt.Executable>
rbdock ($Id: //depot/dev/client3/rdock/2013.1/src/exe/rbdock.cxx#4 $)

>  <Rbt.Library>
libRbt.so (2013.1, Build901 2013/11/27)

>  <Rbt.Parameter_File>
/export/apps/rDock/src/rDock_2013.1_src/data/scripts/dock_solv.prm

>  <Rbt.Receptor>
prm/pocket_docking_6.prm

>  <SCORE>
-10.7219

>  <SCORE.INTER>
-8.70908

>  <SCORE.INTER.CONST>
1

>  <SCORE.INTER.POLAR>
0

>  <SCORE.INTER.ROT>
5

>  <SCORE.INTER.SOLV>
17.1409

>  <SCORE.INTER.VDW>
-18.453

>  <SCORE.INTER.norm>
-0.870908

>  <SCORE.INTRA>
-2.01285

>  <SCORE.INTRA.DIHEDRAL>
-4.06539

>  <SCORE.INTRA.DIHEDRAL.0>
5.8785

>  <SCORE.INTRA.POLAR>
0

>  <SCORE.INTRA.POLAR.0>
0

>  <SCORE.INTRA.REPUL>
0

>  <SCORE.INTRA.REPUL.0>
0

>  <SCORE.INTRA.SOLV>
-0.743138

>  <SCORE.INTRA.SOLV.lig_0>
-31.9559

>  <SCORE.INTRA.VDW>
0.391413

>  <SCORE.INTRA.VDW.0>
-0.507645

>  <SCORE.INTRA.norm>
-0.201285

>  <SCORE.RESTR>
0

>  <SCORE.RESTR.CAVITY>
0

>  <SCORE.RESTR.norm>
0

>  <SCORE.SYSTEM>
0

>  <SCORE.SYSTEM.CONST>
0

>  <SCORE.SYSTEM.DIHEDRAL>
0

>  <SCORE.SYSTEM.SOLV>
0

>  <SCORE.SYSTEM.norm>
0

>  <SCORE.heavy>
10

>  <SCORE.norm>
-1.07219

>  <RMSD>
5.434

$$$$
ligand
 OpenBabel11021811473D
libRbt.so/2013.1/901 2013/11/27
 10  9  0  0  0  0  0  0  0  0999 V2000
   27.1321   14.7693   20.8951 N   0  0  0  0  0  0  0  0  0  0  0  0
   27.6308   15.6294   19.7897 C   0  0  2  0  0  0  0  0  0  0  0  0
   27.8039   14.8314   18.4970 C   0  0  0  0  0  0  0  0  0  0  0  0
   28.3275   15.3343   17.5077 O   0  0  0  0  0  0  0  0  0  0  0  0
   28.9236   16.3385   20.2090 C   0  0  0  0  0  0  0  0  0  0  0  0
   30.0592   15.3698   20.5225 C   0  0  0  0  0  0  0  0  0  0  0  0
   31.3683   16.0775   20.8435 C   0  0  0  0  0  0  0  0  0  0  0  0
   31.2893   16.7900   22.1942 C   0  0  0  0  0  0  0  0  0  0  0  0
   32.5155   17.6090   22.5367 N   0  0  0  0  0  0  0  0  0  0  0  0
   27.4741   13.6561   18.3878 O   0  0  0  0  0  0  0  0  0  0  0  0
  2  1  1  1  0  0  0
  2  3  1  0  0  0  0
  2  5  1  0  0  0  0
  3  4  1  0  0  0  0
  3 10  1  0  0  0  0
  5  6  1  0  0  0  0
  6  7  1  0  0  0  0
  7  8  1  0  0  0  0
  8  9  1  0  0  0  0
M  END
>  <CHROM.1>
-172.89914022,61.95221794,175.96721539,70.15557188,-175.43885172,29.24674730
15.62000072,20.10255093,2.44888195,-0.38976712,-1.74465312

>  <Name>
ligand

>  <RI>
0

>  <Rbt.Current_Directory>
/home/itssahil/PROJECTS/Mol_Feturizer/New_Systems/rnas/3DIM

>  <Rbt.Executable>
rbdock ($Id: //depot/dev/client3/rdock/2013.1/src/exe/rbdock.cxx#4 $)

>  <Rbt.Library>
libRbt.so (2013.1, Build901 2013/11/27)

>  <Rbt.Parameter_File>
/export/apps/rDock/src/rDock_2013.1_src/data/scripts/dock_solv.prm

>  <Rbt.Receptor>
prm/pocket_docking_7.prm

>  <SCORE>
-10.0913

>  <SCORE.INTER>
-8.28472

>  <SCORE.INTER.CONST>
1

>  <SCORE.INTER.POLAR>
0

>  <SCORE.INTER.ROT>
5

>  <SCORE.INTER.SOLV>
14.0048

>  <SCORE.INTER.VDW>
-17.1247

>  <SCORE.INTER.norm>
-0.828472

>  <SCORE.INTRA>
-1.8066

>  <SCORE.INTRA.DIHEDRAL>
-3.77094

>  <SCORE.INTRA.DIHEDRAL.0>
5.8785

>  <SCORE.INTRA.POLAR>
0

>  <SCORE.INTRA.POLAR.0>
0

>  <SCORE.INTRA.REPUL>
0

>  <SCORE.INTRA.REPUL.0>
0

>  <SCORE.INTRA.SOLV>
-0.786301

>  <SCORE.INTRA.SOLV.lig_0>
-31.9559

>  <SCORE.INTRA.VDW>
0.472022

>  <SCORE.INTRA.VDW.0>
-0.507645

>  <SCORE.INTRA.norm>
-0.18066

>  <SCORE.RESTR>
0

>  <SCORE.RESTR.CAVITY>
0

>  <SCORE.RESTR.norm>
0

>  <SCORE.SYSTEM>
0

>  <SCORE.SYSTEM.CONST>
0

>  <SCORE.SYSTEM.DIHEDRAL>
0

>  <SCORE.SYSTEM.SOLV>
0

>  <SCORE.SYSTEM.norm>
0

>  <SCORE.heavy>
10

>  <SCORE.norm>
-1.00913

>  <RMSD>
5.434

$$$$
ligand
 OpenBabel11021811473D
libRbt.so/2013.1/901 2013/11/27
 10  9  0  0  0  0  0  0  0  0999 V2000
   27.1723   14.2320   18.8900 N   0  0  0  0  0  0  0  0  0  0  0  0
   27.8163   14.5566   20.1901 C   0  0  2  0  0  0  0  0  0  0  0  0
   26.7756   14.7737   21.2890 C   0  0  0  0  0  0  0  0  0  0  0  0
   25.5761   14.7898   21.0309 O   0  0  0  0  0  0  0  0  0  0  0  0
   28.7524   15.7605   20.0343 C   0  0  0  0  0  0  0  0  0  0  0  0
   29.5927   16.0263   21.2792 C   0  0  0  0  0  0  0  0  0  0  0  0
   30.4436   17.2831   21.1607 C   0  0  0  0  0  0  0  0  0  0  0  0
   31.3116   17.4766   22.4046 C   0  0  0  0  0  0  0  0  0  0  0  0
   32.3654   16.4072   22.5988 N   0  0  0  0  0  0  0  0  0  0  0  0
   27.0694   14.9013   22.4720 O   0  0  0  0  0  0  0  0  0  0  0  0
  2  1  1  6  0  0  0
  2  3  1  0  0  0  0
  2  5  1  0  0  0  0
  3  4  1  0  0  0  0
  3 10  1  0  0  0  0
  5  6  1  0  0  0  0
  6  7  1  0  0  0  0
  7  8  1  0  0  0  0
  8  9  1  0  0  0  0
M  END
>  <CHROM.1>
-6.34279848,-171.94413215,-175.66647374,-177.58072677,65.65047162,28.65465296
15.61881658,21.15686003,-2.79591078,0.39439126,1.39104783

>  <Name>
ligand

>  <RI>
0

>  <Rbt.Current_Directory>
/home/itssahil/PROJECTS/Mol_Feturizer/New_Systems/rnas/3DIM

>  <Rbt.Executable>
rbdock ($Id: //depot/dev/client3/rdock/2013.1/src/exe/rbdock.cxx#4 $)

>  <Rbt.Library>
libRbt.so (2013.1, Build901 2013/11/27)

>  <Rbt.Parameter_File>
/export/apps/rDock/src/rDock_2013.1_src/data/scripts/dock_solv.prm

>  <Rbt.Receptor>
prm/pocket_docking_7.prm

>  <SCORE>
-10.2987

>  <SCORE.INTER>
-7.77912

>  <SCORE.INTER.CONST>
1

>  <SCORE.INTER.POLAR>
0

>  <SCORE.INTER.ROT>
5

>  <SCORE.INTER.SOLV>
16.7442

>  <SCORE.INTER.VDW>
-17.7008

>  <SCORE.INTER.norm>
-0.777912

>  <SCORE.INTRA>
-2.51961

>  <SCORE.INTRA.DIHEDRAL>
-3.88197

>  <SCORE.INTRA.DIHEDRAL.0>
5.8785

>  <SCORE.INTRA.POLAR>
0

>  <SCORE.INTRA.POLAR.0>
0

>  <SCORE.INTRA.REPUL>
0

>  <SCORE.INTRA.REPUL.0>
0

>  <SCORE.INTRA.SOLV>
-0.987775

>  <SCORE.INTRA.SOLV.lig_0>
-31.9559

>  <SCORE.INTRA.VDW>
-0.0847345

>  <SCORE.INTRA.VDW.0>
-0.507645

>  <SCORE.INTRA.norm>
-0.251961

>  <SCORE.RESTR>
0

>  <SCORE.RESTR.CAVITY>
0

>  <SCORE.RESTR.norm>
0

>  <SCORE.SYSTEM>
0

>  <SCORE.SYSTEM.CONST>
0

>  <SCORE.SYSTEM.DIHEDRAL>
0

>  <SCORE.SYSTEM.SOLV>
0

>  <SCORE.SYSTEM.norm>
0

>  <SCORE.heavy>
10

>  <SCORE.norm>
-1.02987

>  <RMSD>
5.439

$$$$
ligand
 OpenBabel11021811473D
libRbt.so/2013.1/901 2013/11/27
 10  9  0  0  0  0  0  0  0  0999 V2000
   27.3181   14.3604   18.9489 N   0  0  0  0  0  0  0  0  0  0  0  0
   28.0286   14.5221   20.2448 C   0  0  2  0  0  0  0  0  0  0  0  0
   27.0491   14.7890   21.3881 C   0  0  0  0  0  0  0  0  0  0  0  0
   25.8366   14.7681   21.2011 O   0  0  0  0  0  0  0  0  0  0  0  0
   29.0982   15.6145   20.1327 C   0  0  0  0  0  0  0  0  0  0  0  0
   30.0971   15.5903   21.2851 C   0  0  0  0  0  0  0  0  0  0  0  0
   31.1574   16.6766   21.1712 C   0  0  0  0  0  0  0  0  0  0  0  0
   32.1503   16.5973   22.3315 C   0  0  0  0  0  0  0  0  0  0  0  0
   33.1952   17.6926   22.3304 N   0  0  0  0  0  0  0  0  0  0  0  0
   27.4084   14.9951   22.5417 O   0  0  0  0  0  0  0  0  0  0  0  0
  2  1  1  6  0  0  0
  2  3  1  0  0  0  0
  2  5  1  0  0  0  0
  3  4  1  0  0  0  0
  3 10  1  0  0  0  0
  5  6  1  0  0  0  0
  6  7  1  0  0  0  0
  7  8  1  0  0  0  0
  8  9  1  0  0  0  0
M  END
>  <CHROM.1>
4.48238608,-165.08473310,-179.97474085,-178.92543455,-176.89646727,29.10105424
15.55993630,21.18086297,-2.85575485,0.36135907,1.36940738

>  <Name>
ligand

>  <RI>
0

>  <Rbt.Current_Directory>
/home/itssahil/PROJECTS/Mol_Feturizer/New_Systems/rnas/3DIM

>  <Rbt.Executable>
rbdock ($Id: //depot/dev/client3/rdock/2013.1/src/exe/rbdock.cxx#4 $)

>  <Rbt.Library>
libRbt.so (2013.1, Build901 2013/11/27)

>  <Rbt.Parameter_File>
/export/apps/rDock/src/rDock_2013.1_src/data/scripts/dock_solv.prm

>  <Rbt.Receptor>
prm/pocket_docking_8.prm

>  <SCORE>
-11.1112

>  <SCORE.INTER>
-8.2892

>  <SCORE.INTER.CONST>
1

>  <SCORE.INTER.POLAR>
0

>  <SCORE.INTER.ROT>
5

>  <SCORE.INTER.SOLV>
15.5391

>  <SCORE.INTER.VDW>
-17.6392

>  <SCORE.INTER.norm>
-0.82892

>  <SCORE.INTRA>
-2.82202

>  <SCORE.INTRA.DIHEDRAL>
-3.54165

>  <SCORE.INTRA.DIHEDRAL.0>
5.8785

>  <SCORE.INTRA.POLAR>
0

>  <SCORE.INTRA.POLAR.0>
0

>  <SCORE.INTRA.REPUL>
0

>  <SCORE.INTRA.REPUL.0>
0

>  <SCORE.INTRA.SOLV>
-1.83616

>  <SCORE.INTRA.SOLV.lig_0>
-31.9559

>  <SCORE.INTRA.VDW>
-0.13311

>  <SCORE.INTRA.VDW.0>
-0.507645

>  <SCORE.INTRA.norm>
-0.282202

>  <SCORE.RESTR>
0

>  <SCORE.RESTR.CAVITY>
0

>  <SCORE.RESTR.norm>
0

>  <SCORE.SYSTEM>
0

>  <SCORE.SYSTEM.CONST>
0

>  <SCORE.SYSTEM.DIHEDRAL>
0

>  <SCORE.SYSTEM.SOLV>
0

>  <SCORE.SYSTEM.norm>
0

>  <SCORE.heavy>
10

>  <SCORE.norm>
-1.11112

>  <RMSD>
5.439

$$$$
ligand
 OpenBabel11021811473D
libRbt.so/2013.1/901 2013/11/27
 10  9  0  0  0  0  0  0  0  0999 V2000
   28.6864   14.5396   19.4553 N   0  0  0  0  0  0  0  0  0  0  0  0
   28.1917   14.5512   20.8572 C   0  0  2  0  0  0  0  0  0  0  0  0
   26.6917   14.8419   20.9168 C   0  0  0  0  0  0  0  0  0  0  0  0
   26.0048   14.4373   21.8496 O   0  0  0  0  0  0  0  0  0  0  0  0
   29.0059   15.5389   21.7007 C   0  0  0  0  0  0  0  0  0  0  0  0
   30.4348   15.0688   21.9536 C   0  0  0  0  0  0  0  0  0  0  0  0
   31.2620   16.0834   22.7308 C   0  0  0  0  0  0  0  0  0  0  0  0
   31.5972   17.2972   21.8632 C   0  0  0  0  0  0  0  0  0  0  0  0
   32.5332   18.2897   22.5193 N   0  0  0  0  0  0  0  0  0  0  0  0
   26.1075   15.5155   20.0758 O   0  0  0  0  0  0  0  0  0  0  0  0
  2  1  1  6  0  0  0
  2  3  1  0  0  0  0
  2  5  1  0  0  0  0
  3  4  1  0  0  0  0
  3 10  1  0  0  0  0
  5  6  1  0  0  0  0
  6  7  1  0  0  0  0
  7  8  1  0  0  0  0
  8  9  1  0  0  0  0
M  END
>  <CHROM.1>
153.27686819,-70.14373546,177.07678272,-71.53394470,-174.25079651,29.00717707
15.61690495,21.39094300,-2.75730688,0.33193053,1.26463367

>  <Name>
ligand

>  <RI>
0

>  <Rbt.Current_Directory>
/home/itssahil/PROJECTS/Mol_Feturizer/New_Systems/rnas/3DIM

>  <Rbt.Executable>
rbdock ($Id: //depot/dev/client3/rdock/2013.1/src/exe/rbdock.cxx#4 $)

>  <Rbt.Library>
libRbt.so (2013.1, Build901 2013/11/27)

>  <Rbt.Parameter_File>
/export/apps/rDock/src/rDock_2013.1_src/data/scripts/dock_solv.prm

>  <Rbt.Receptor>
prm/pocket_docking_5.prm

>  <SCORE>
-11.1559

>  <SCORE.INTER>
-9.07915

>  <SCORE.INTER.CONST>
1

>  <SCORE.INTER.POLAR>
0

>  <SCORE.INTER.ROT>
5

>  <SCORE.INTER.SOLV>
13.4567

>  <SCORE.INTER.VDW>
-17.4717

>  <SCORE.INTER.norm>
-0.907915

>  <SCORE.INTRA>
-2.07678

>  <SCORE.INTRA.DIHEDRAL>
-3.33554

>  <SCORE.INTRA.DIHEDRAL.0>
5.8785

>  <SCORE.INTRA.POLAR>
0

>  <SCORE.INTRA.POLAR.0>
0

>  <SCORE.INTRA.REPUL>
0

>  <SCORE.INTRA.REPUL.0>
0

>  <SCORE.INTRA.SOLV>
-0.913209

>  <SCORE.INTRA.SOLV.lig_0>
-31.9559

>  <SCORE.INTRA.VDW>
0.0475979

>  <SCORE.INTRA.VDW.0>
-0.507645

>  <SCORE.INTRA.norm>
-0.207678

>  <SCORE.RESTR>
0

>  <SCORE.RESTR.CAVITY>
0

>  <SCORE.RESTR.norm>
0

>  <SCORE.SYSTEM>
0

>  <SCORE.SYSTEM.CONST>
0

>  <SCORE.SYSTEM.DIHEDRAL>
0

>  <SCORE.SYSTEM.SOLV>
0

>  <SCORE.SYSTEM.norm>
0

>  <SCORE.heavy>
10

>  <SCORE.norm>
-1.11559

>  <RMSD>
5.441

$$$$
ligand
 OpenBabel11021811473D
libRbt.so/2013.1/901 2013/11/27
 10  9  0  0  0  0  0  0  0  0999 V2000
   28.7126   14.5436   19.4897 N   0  0  0  0  0  0  0  0  0  0  0  0
   28.2050   14.5425   20.8870 C   0  0  2  0  0  0  0  0  0  0  0  0
   26.7067   14.8432   20.9361 C   0  0  0  0  0  0  0  0  0  0  0  0
   26.0069   14.4262   21.8538 O   0  0  0  0  0  0  0  0  0  0  0  0
   29.0184   15.5143   21.7495 C   0  0  0  0  0  0  0  0  0  0  0  0
   30.4627   15.0668   21.9497 C   0  0  0  0  0  0  0  0  0  0  0  0
   31.2922   16.0780   22.7289 C   0  0  0  0  0  0  0  0  0  0  0  0
   31.6587   17.2771   21.8536 C   0  0  0  0  0  0  0  0  0  0  0  0
   32.6204   18.2491   22.5032 N   0  0  0  0  0  0  0  0  0  0  0  0
   26.1365   15.5368   20.1020 O   0  0  0  0  0  0  0  0  0  0  0  0
  2  1  1  6  0  0  0
  2  3  1  0  0  0  0
  2  5  1  0  0  0  0
  3  4  1  0  0  0  0
  3 10  1  0  0  0  0
  5  6  1  0  0  0  0
  6  7  1  0  0  0  0
  7  8  1  0  0  0  0
  8  9  1  0  0  0  0
M  END
>  <CHROM.1>
152.85551330,-67.15802034,176.22099624,-75.35880063,-173.08927449,29.03758284
15.60856524,21.40391917,-2.78742650,0.34933425,1.32574558

>  <Name>
ligand

>  <RI>
0

>  <Rbt.Current_Directory>
/home/itssahil/PROJECTS/Mol_Feturizer/New_Systems/rnas/3DIM

>  <Rbt.Executable>
rbdock ($Id: //depot/dev/client3/rdock/2013.1/src/exe/rbdock.cxx#4 $)

>  <Rbt.Library>
libRbt.so (2013.1, Build901 2013/11/27)

>  <Rbt.Parameter_File>
/export/apps/rDock/src/rDock_2013.1_src/data/scripts/dock_solv.prm

>  <Rbt.Receptor>
prm/pocket_docking_6.prm

>  <SCORE>
-11.1288

>  <SCORE.INTER>
-9.12138

>  <SCORE.INTER.CONST>
1

>  <SCORE.INTER.POLAR>
0

>  <SCORE.INTER.ROT>
5

>  <SCORE.INTER.SOLV>
13.2115

>  <SCORE.INTER.VDW>
-17.4181

>  <SCORE.INTER.norm>
-0.912138

>  <SCORE.INTRA>
-2.00743

>  <SCORE.INTRA.DIHEDRAL>
-3.06381

>  <SCORE.INTRA.DIHEDRAL.0>
5.8785

>  <SCORE.INTRA.POLAR>
0

>  <SCORE.INTRA.POLAR.0>
0

>  <SCORE.INTRA.REPUL>
0

>  <SCORE.INTRA.REPUL.0>
0

>  <SCORE.INTRA.SOLV>
-0.887698

>  <SCORE.INTRA.SOLV.lig_0>
-31.9559

>  <SCORE.INTRA.VDW>
-0.0316763

>  <SCORE.INTRA.VDW.0>
-0.507645

>  <SCORE.INTRA.norm>
-0.200743

>  <SCORE.RESTR>
0

>  <SCORE.RESTR.CAVITY>
0

>  <SCORE.RESTR.norm>
0

>  <SCORE.SYSTEM>
0

>  <SCORE.SYSTEM.CONST>
0

>  <SCORE.SYSTEM.DIHEDRAL>
0

>  <SCORE.SYSTEM.SOLV>
0

>  <SCORE.SYSTEM.norm>
0

>  <SCORE.heavy>
10

>  <SCORE.norm>
-1.11288

>  <RMSD>
5.441

$$$$
ligand
 OpenBabel11021811473D
libRbt.so/2013.1/901 2013/11/27
 10  9  0  0  0  0  0  0  0  0999 V2000
   25.7154   14.8423   20.9041 N   0  0  0  0  0  0  0  0  0  0  0  0
   27.0542   15.3718   20.5332 C   0  0  2  0  0  0  0  0  0  0  0  0
   27.5105   14.8333   19.1768 C   0  0  0  0  0  0  0  0  0  0  0  0
   28.2218   15.5046   18.4358 O   0  0  0  0  0  0  0  0  0  0  0  0
   28.0693   15.0771   21.6435 C   0  0  0  0  0  0  0  0  0  0  0  0
   29.4167   15.7538   21.4131 C   0  0  0  0  0  0  0  0  0  0  0  0
   30.4332   15.4321   22.4998 C   0  0  0  0  0  0  0  0  0  0  0  0
   31.7673   16.1272   22.2255 C   0  0  0  0  0  0  0  0  0  0  0  0
   31.6978   17.6391   22.2584 N   0  0  0  0  0  0  0  0  0  0  0  0
   27.2325   13.7089   18.7762 O   0  0  0  0  0  0  0  0  0  0  0  0
  2  1  1  1  0  0  0
  2  3  1  0  0  0  0
  2  5  1  0  0  0  0
  3  4  1  0  0  0  0
  3 10  1  0  0  0  0
  5  6  1  0  0  0  0
  6  7  1  0  0  0  0
  7  8  1  0  0  0  0
  8  9  1  0  0  0  0
M  END
>  <CHROM.1>
148.40000943,-172.32310948,-178.60653512,179.83146562,64.00579481,28.71332158
15.41471937,20.75027783,2.56657087,-0.34341947,-1.68998664

>  <Name>
ligand

>  <RI>
0

>  <Rbt.Current_Directory>
/home/itssahil/PROJECTS/Mol_Feturizer/New_Systems/rnas/3DIM

>  <Rbt.Executable>
rbdock ($Id: //depot/dev/client3/rdock/2013.1/src/exe/rbdock.cxx#4 $)

>  <Rbt.Library>
libRbt.so (2013.1, Build901 2013/11/27)

>  <Rbt.Parameter_File>
/export/apps/rDock/src/rDock_2013.1_src/data/scripts/dock_solv.prm

>  <Rbt.Receptor>
prm/pocket_docking_7.prm

>  <SCORE>
-10.7996

>  <SCORE.INTER>
-7.89603

>  <SCORE.INTER.CONST>
1

>  <SCORE.INTER.POLAR>
0

>  <SCORE.INTER.ROT>
5

>  <SCORE.INTER.SOLV>
18.2367

>  <SCORE.INTER.VDW>
-18.2762

>  <SCORE.INTER.norm>
-0.789603

>  <SCORE.INTRA>
-2.90353

>  <SCORE.INTRA.DIHEDRAL>
-4.17383

>  <SCORE.INTRA.DIHEDRAL.0>
5.8785

>  <SCORE.INTRA.POLAR>
0

>  <SCORE.INTRA.POLAR.0>
0

>  <SCORE.INTRA.REPUL>
0

>  <SCORE.INTRA.REPUL.0>
0

>  <SCORE.INTRA.SOLV>
-1.00796

>  <SCORE.INTRA.SOLV.lig_0>
-31.9559

>  <SCORE.INTRA.VDW>
-0.312637

>  <SCORE.INTRA.VDW.0>
-0.507645

>  <SCORE.INTRA.norm>
-0.290353

>  <SCORE.RESTR>
0

>  <SCORE.RESTR.CAVITY>
0

>  <SCORE.RESTR.norm>
0

>  <SCORE.SYSTEM>
0

>  <SCORE.SYSTEM.CONST>
0

>  <SCORE.SYSTEM.DIHEDRAL>
0

>  <SCORE.SYSTEM.SOLV>
0

>  <SCORE.SYSTEM.norm>
0

>  <SCORE.heavy>
10

>  <SCORE.norm>
-1.07996

>  <RMSD>
5.443

$$$$
ligand
 OpenBabel11021811473D
libRbt.so/2013.1/901 2013/11/27
 10  9  0  0  0  0  0  0  0  0999 V2000
   27.3342   14.3500   18.9423 N   0  0  0  0  0  0  0  0  0  0  0  0
   28.0280   14.5243   20.2456 C   0  0  2  0  0  0  0  0  0  0  0  0
   27.0333   14.7933   21.3752 C   0  0  0  0  0  0  0  0  0  0  0  0
   25.8237   14.7845   21.1692 O   0  0  0  0  0  0  0  0  0  0  0  0
   29.0926   15.6222   20.1390 C   0  0  0  0  0  0  0  0  0  0  0  0
   30.1027   15.5848   21.2813 C   0  0  0  0  0  0  0  0  0  0  0  0
   31.1383   16.6971   21.1912 C   0  0  0  0  0  0  0  0  0  0  0  0
   32.1720   16.5756   22.3114 C   0  0  0  0  0  0  0  0  0  0  0  0
   33.1905   17.6952   22.3404 N   0  0  0  0  0  0  0  0  0  0  0  0
   27.3764   14.9890   22.5355 O   0  0  0  0  0  0  0  0  0  0  0  0
  2  1  1  6  0  0  0
  2  3  1  0  0  0  0
  2  5  1  0  0  0  0
  3  4  1  0  0  0  0
  3 10  1  0  0  0  0
  5  6  1  0  0  0  0
  6  7  1  0  0  0  0
  7  8  1  0  0  0  0
  8  9  1  0  0  0  0
M  END
>  <CHROM.1>
3.34389446,-163.33856898,-178.59237049,-176.94785082,-176.51632931,29.09594169
15.56098366,21.17611517,-2.85274423,0.35766896,1.36344172

>  <Name>
ligand

>  <RI>
0

>  <Rbt.Current_Directory>
/home/itssahil/PROJECTS/Mol_Feturizer/New_Systems/rnas/3DIM

>  <Rbt.Executable>
rbdock ($Id: //depot/dev/client3/rdock/2013.1/src/exe/rbdock.cxx#4 $)

>  <Rbt.Library>
libRbt.so (2013.1, Build901 2013/11/27)

>  <Rbt.Parameter_File>
/export/apps/rDock/src/rDock_2013.1_src/data/scripts/dock_solv.prm

>  <Rbt.Receptor>
prm/pocket_docking_5.prm

>  <SCORE>
-11.1458

>  <SCORE.INTER>
-8.39536

>  <SCORE.INTER.CONST>
1

>  <SCORE.INTER.POLAR>
0

>  <SCORE.INTER.ROT>
5

>  <SCORE.INTER.SOLV>
15.5019

>  <SCORE.INTER.VDW>
-17.6975

>  <SCORE.INTER.norm>
-0.839536

>  <SCORE.INTRA>
-2.75042

>  <SCORE.INTRA.DIHEDRAL>
-3.29437

>  <SCORE.INTRA.DIHEDRAL.0>
5.8785

>  <SCORE.INTRA.POLAR>
0

>  <SCORE.INTRA.POLAR.0>
0

>  <SCORE.INTRA.REPUL>
0

>  <SCORE.INTRA.REPUL.0>
0

>  <SCORE.INTRA.SOLV>
-1.83221

>  <SCORE.INTRA.SOLV.lig_0>
-31.9559

>  <SCORE.INTRA.VDW>
-0.187134

>  <SCORE.INTRA.VDW.0>
-0.507645

>  <SCORE.INTRA.norm>
-0.275042

>  <SCORE.RESTR>
0

>  <SCORE.RESTR.CAVITY>
0

>  <SCORE.RESTR.norm>
0

>  <SCORE.SYSTEM>
0

>  <SCORE.SYSTEM.CONST>
0

>  <SCORE.SYSTEM.DIHEDRAL>
0

>  <SCORE.SYSTEM.SOLV>
0

>  <SCORE.SYSTEM.norm>
0

>  <SCORE.heavy>
10

>  <SCORE.norm>
-1.11458

>  <RMSD>
5.445

$$$$
ligand
 OpenBabel11021811473D
libRbt.so/2013.1/901 2013/11/27
 10  9  0  0  0  0  0  0  0  0999 V2000
   27.2115   14.2063   18.8509 N   0  0  0  0  0  0  0  0  0  0  0  0
   27.8221   14.5447   20.1635 C   0  0  2  0  0  0  0  0  0  0  0  0
   26.7562   14.7200   21.2456 C   0  0  0  0  0  0  0  0  0  0  0  0
   27.0631   14.7864   22.4318 O   0  0  0  0  0  0  0  0  0  0  0  0
   28.7195   15.7803   20.0302 C   0  0  0  0  0  0  0  0  0  0  0  0
   29.5687   16.0360   21.2712 C   0  0  0  0  0  0  0  0  0  0  0  0
   30.4442   17.2748   21.1434 C   0  0  0  0  0  0  0  0  0  0  0  0
   31.3126   17.4631   22.3879 C   0  0  0  0  0  0  0  0  0  0  0  0
   32.3675   16.3938   22.5764 N   0  0  0  0  0  0  0  0  0  0  0  0
   25.5628   14.8424   20.9947 O   0  0  0  0  0  0  0  0  0  0  0  0
  2  1  1  6  0  0  0
  2  3  1  0  0  0  0
  2  5  1  0  0  0  0
  3  4  1  0  0  0  0
  3 10  1  0  0  0  0
  5  6  1  0  0  0  0
  6  7  1  0  0  0  0
  7  8  1  0  0  0  0
  8  9  1  0  0  0  0
M  END
>  <CHROM.1>
168.07418741,-169.75523094,-179.19438745,-177.97637357,67.09327164,28.64992361
15.60297053,21.13137352,-2.80034806,0.39985650,1.40525253

>  <Name>
ligand

>  <RI>
0

>  <Rbt.Current_Directory>
/home/itssahil/PROJECTS/Mol_Feturizer/New_Systems/rnas/3DIM

>  <Rbt.Executable>
rbdock ($Id: //depot/dev/client3/rdock/2013.1/src/exe/rbdock.cxx#4 $)

>  <Rbt.Library>
libRbt.so (2013.1, Build901 2013/11/27)

>  <Rbt.Parameter_File>
/export/apps/rDock/src/rDock_2013.1_src/data/scripts/dock_solv.prm

>  <Rbt.Receptor>
prm/pocket_docking_7.prm

>  <SCORE>
-10.4774

>  <SCORE.INTER>
-7.87646

>  <SCORE.INTER.CONST>
1

>  <SCORE.INTER.POLAR>
0

>  <SCORE.INTER.ROT>
5

>  <SCORE.INTER.SOLV>
16.7107

>  <SCORE.INTER.VDW>
-17.7545

>  <SCORE.INTER.norm>
-0.787646

>  <SCORE.INTRA>
-2.60093

>  <SCORE.INTRA.DIHEDRAL>
-3.8384

>  <SCORE.INTRA.DIHEDRAL.0>
5.8785

>  <SCORE.INTRA.POLAR>
0

>  <SCORE.INTRA.POLAR.0>
0

>  <SCORE.INTRA.REPUL>
0

>  <SCORE.INTRA.REPUL.0>
0

>  <SCORE.INTRA.SOLV>
-1.02821

>  <SCORE.INTRA.SOLV.lig_0>
-31.9559

>  <SCORE.INTRA.VDW>
-0.167628

>  <SCORE.INTRA.VDW.0>
-0.507645

>  <SCORE.INTRA.norm>
-0.260093

>  <SCORE.RESTR>
0

>  <SCORE.RESTR.CAVITY>
0

>  <SCORE.RESTR.norm>
0

>  <SCORE.SYSTEM>
0

>  <SCORE.SYSTEM.CONST>
0

>  <SCORE.SYSTEM.DIHEDRAL>
0

>  <SCORE.SYSTEM.SOLV>
0

>  <SCORE.SYSTEM.norm>
0

>  <SCORE.heavy>
10

>  <SCORE.norm>
-1.04774

>  <RMSD>
5.447

$$$$
ligand
 OpenBabel11021811473D
libRbt.so/2013.1/901 2013/11/27
 10  9  0  0  0  0  0  0  0  0999 V2000
   27.2720   14.2862   18.8118 N   0  0  0  0  0  0  0  0  0  0  0  0
   27.9551   14.4496   20.1222 C   0  0  2  0  0  0  0  0  0  0  0  0
   26.9610   14.8032   21.2289 C   0  0  0  0  0  0  0  0  0  0  0  0
   25.7657   14.9384   20.9868 O   0  0  0  0  0  0  0  0  0  0  0  0
   29.0846   15.4798   20.0087 C   0  0  0  0  0  0  0  0  0  0  0  0
   29.9762   15.5243   21.2454 C   0  0  0  0  0  0  0  0  0  0  0  0
   31.0566   16.5932   21.1570 C   0  0  0  0  0  0  0  0  0  0  0  0
   31.9116   16.6144   22.4246 C   0  0  0  0  0  0  0  0  0  0  0  0
   32.9762   17.6907   22.4374 N   0  0  0  0  0  0  0  0  0  0  0  0
   27.2860   14.9298   22.4038 O   0  0  0  0  0  0  0  0  0  0  0  0
  2  1  1  6  0  0  0
  2  3  1  0  0  0  0
  2  5  1  0  0  0  0
  3  4  1  0  0  0  0
  3 10  1  0  0  0  0
  5  6  1  0  0  0  0
  6  7  1  0  0  0  0
  7  8  1  0  0  0  0
  8  9  1  0  0  0  0
M  END
>  <CHROM.1>
-0.99007150,-170.23808254,-177.29156279,179.18254406,-177.66575608,28.99144711
15.53226258,21.10467936,-2.79049242,0.33929911,1.31890514

>  <Name>
ligand

>  <RI>
0

>  <Rbt.Current_Directory>
/home/itssahil/PROJECTS/Mol_Feturizer/New_Systems/rnas/3DIM

>  <Rbt.Executable>
rbdock ($Id: //depot/dev/client3/rdock/2013.1/src/exe/rbdock.cxx#4 $)

>  <Rbt.Library>
libRbt.so (2013.1, Build901 2013/11/27)

>  <Rbt.Parameter_File>
/export/apps/rDock/src/rDock_2013.1_src/data/scripts/dock_solv.prm

>  <Rbt.Receptor>
prm/pocket_docking_7.prm

>  <SCORE>
-11.0386

>  <SCORE.INTER>
-8.06427

>  <SCORE.INTER.CONST>
1

>  <SCORE.INTER.POLAR>
0

>  <SCORE.INTER.ROT>
5

>  <SCORE.INTER.SOLV>
15.703

>  <SCORE.INTER.VDW>
-17.5439

>  <SCORE.INTER.norm>
-0.806427

>  <SCORE.INTRA>
-2.97434

>  <SCORE.INTRA.DIHEDRAL>
-3.96102

>  <SCORE.INTRA.DIHEDRAL.0>
5.8785

>  <SCORE.INTRA.POLAR>
0

>  <SCORE.INTRA.POLAR.0>
0

>  <SCORE.INTRA.REPUL>
0

>  <SCORE.INTRA.REPUL.0>
0

>  <SCORE.INTRA.SOLV>
-1.84351

>  <SCORE.INTRA.SOLV.lig_0>
-31.9559

>  <SCORE.INTRA.VDW>
-0.0720753

>  <SCORE.INTRA.VDW.0>
-0.507645

>  <SCORE.INTRA.norm>
-0.297434

>  <SCORE.RESTR>
0

>  <SCORE.RESTR.CAVITY>
0

>  <SCORE.RESTR.norm>
0

>  <SCORE.SYSTEM>
0

>  <SCORE.SYSTEM.CONST>
0

>  <SCORE.SYSTEM.DIHEDRAL>
0

>  <SCORE.SYSTEM.SOLV>
0

>  <SCORE.SYSTEM.norm>
0

>  <SCORE.heavy>
10

>  <SCORE.norm>
-1.10386

>  <RMSD>
5.453

$$$$
ligand
 OpenBabel11021811473D
libRbt.so/2013.1/901 2013/11/27
 10  9  0  0  0  0  0  0  0  0999 V2000
   26.7555   14.3824   20.7670 N   0  0  0  0  0  0  0  0  0  0  0  0
   27.6971   15.2090   19.9667 C   0  0  2  0  0  0  0  0  0  0  0  0
   27.7768   14.7203   18.5200 C   0  0  0  0  0  0  0  0  0  0  0  0
   27.2145   13.6879   18.1685 O   0  0  0  0  0  0  0  0  0  0  0  0
   29.0737   15.2499   20.6399 C   0  0  0  0  0  0  0  0  0  0  0  0
   29.0263   15.8085   22.0584 C   0  0  0  0  0  0  0  0  0  0  0  0
   30.4101   16.0560   22.6428 C   0  0  0  0  0  0  0  0  0  0  0  0
   31.0923   17.2387   21.9542 C   0  0  0  0  0  0  0  0  0  0  0  0
   32.4769   17.5496   22.4814 N   0  0  0  0  0  0  0  0  0  0  0  0
   28.3602   15.3383   17.6370 O   0  0  0  0  0  0  0  0  0  0  0  0
  2  1  1  1  0  0  0
  2  3  1  0  0  0  0
  2  5  1  0  0  0  0
  3  4  1  0  0  0  0
  3 10  1  0  0  0  0
  5  6  1  0  0  0  0
  6  7  1  0  0  0  0
  7  8  1  0  0  0  0
  8  9  1  0  0  0  0
M  END
>  <CHROM.1>
-6.79249750,-58.41668855,-170.83898652,70.40248384,179.98023397,28.98112250
15.50940424,20.44285990,2.43324927,-0.55302838,-1.60874033

>  <Name>
ligand

>  <RI>
0

>  <Rbt.Current_Directory>
/home/itssahil/PROJECTS/Mol_Feturizer/New_Systems/rnas/3DIM

>  <Rbt.Executable>
rbdock ($Id: //depot/dev/client3/rdock/2013.1/src/exe/rbdock.cxx#4 $)

>  <Rbt.Library>
libRbt.so (2013.1, Build901 2013/11/27)

>  <Rbt.Parameter_File>
/export/apps/rDock/src/rDock_2013.1_src/data/scripts/dock_solv.prm

>  <Rbt.Receptor>
prm/pocket_docking_3.prm

>  <SCORE>
-10.1868

>  <SCORE.INTER>
-8.36685

>  <SCORE.INTER.CONST>
1

>  <SCORE.INTER.POLAR>
0

>  <SCORE.INTER.ROT>
5

>  <SCORE.INTER.SOLV>
14.9327

>  <SCORE.INTER.VDW>
-17.4888

>  <SCORE.INTER.norm>
-0.836685

>  <SCORE.INTRA>
-1.81993

>  <SCORE.INTRA.DIHEDRAL>
-3.54241

>  <SCORE.INTRA.DIHEDRAL.0>
5.8785

>  <SCORE.INTRA.POLAR>
0

>  <SCORE.INTRA.POLAR.0>
0

>  <SCORE.INTRA.REPUL>
0

>  <SCORE.INTRA.REPUL.0>
0

>  <SCORE.INTRA.SOLV>
-0.763382

>  <SCORE.INTRA.SOLV.lig_0>
-31.9559

>  <SCORE.INTRA.VDW>
0.332966

>  <SCORE.INTRA.VDW.0>
-0.507645

>  <SCORE.INTRA.norm>
-0.181993

>  <SCORE.RESTR>
0

>  <SCORE.RESTR.CAVITY>
0

>  <SCORE.RESTR.norm>
0

>  <SCORE.SYSTEM>
0

>  <SCORE.SYSTEM.CONST>
0

>  <SCORE.SYSTEM.DIHEDRAL>
0

>  <SCORE.SYSTEM.SOLV>
0

>  <SCORE.SYSTEM.norm>
0

>  <SCORE.heavy>
10

>  <SCORE.norm>
-1.01868

>  <RMSD>
5.455

$$$$
ligand
 OpenBabel11021811473D
libRbt.so/2013.1/901 2013/11/27
 10  9  0  0  0  0  0  0  0  0999 V2000
   27.2927   14.2394   18.8849 N   0  0  0  0  0  0  0  0  0  0  0  0
   27.9655   14.4348   20.1961 C   0  0  2  0  0  0  0  0  0  0  0  0
   26.9567   14.7650   21.2967 C   0  0  0  0  0  0  0  0  0  0  0  0
   25.7558   14.8351   21.0546 O   0  0  0  0  0  0  0  0  0  0  0  0
   29.0618   15.4998   20.0782 C   0  0  0  0  0  0  0  0  0  0  0  0
   29.9602   15.5682   21.3090 C   0  0  0  0  0  0  0  0  0  0  0  0
   31.0536   16.6202   21.1849 C   0  0  0  0  0  0  0  0  0  0  0  0
   31.9419   16.6368   22.4295 C   0  0  0  0  0  0  0  0  0  0  0  0
   33.0697   17.6452   22.3738 N   0  0  0  0  0  0  0  0  0  0  0  0
   27.2766   14.9354   22.4675 O   0  0  0  0  0  0  0  0  0  0  0  0
  2  1  1  6  0  0  0
  2  3  1  0  0  0  0
  2  5  1  0  0  0  0
  3  4  1  0  0  0  0
  3 10  1  0  0  0  0
  5  6  1  0  0  0  0
  6  7  1  0  0  0  0
  7  8  1  0  0  0  0
  8  9  1  0  0  0  0
M  END
>  <CHROM.1>
0.39588807,-169.37013966,179.61218015,-179.05769254,179.11080729,29.00003942
15.51864943,21.14959759,-2.81105719,0.34956159,1.32526987

>  <Name>
ligand

>  <RI>
0

>  <Rbt.Current_Directory>
/home/itssahil/PROJECTS/Mol_Feturizer/New_Systems/rnas/3DIM

>  <Rbt.Executable>
rbdock ($Id: //depot/dev/client3/rdock/2013.1/src/exe/rbdock.cxx#4 $)

>  <Rbt.Library>
libRbt.so (2013.1, Build901 2013/11/27)

>  <Rbt.Parameter_File>
/export/apps/rDock/src/rDock_2013.1_src/data/scripts/dock_solv.prm

>  <Rbt.Receptor>
prm/blind_docking_60.prm

>  <SCORE>
-11.1055

>  <SCORE.INTER>
-8.13694

>  <SCORE.INTER.CONST>
1

>  <SCORE.INTER.POLAR>
0

>  <SCORE.INTER.ROT>
5

>  <SCORE.INTER.SOLV>
15.7689

>  <SCORE.INTER.VDW>
-17.6142

>  <SCORE.INTER.norm>
-0.813694

>  <SCORE.INTRA>
-2.96861

>  <SCORE.INTRA.DIHEDRAL>
-3.94904

>  <SCORE.INTRA.DIHEDRAL.0>
5.8785

>  <SCORE.INTRA.POLAR>
0

>  <SCORE.INTRA.POLAR.0>
0

>  <SCORE.INTRA.REPUL>
0

>  <SCORE.INTRA.REPUL.0>
0

>  <SCORE.INTRA.SOLV>
-1.84288

>  <SCORE.INTRA.SOLV.lig_0>
-31.9559

>  <SCORE.INTRA.VDW>
-0.0726486

>  <SCORE.INTRA.VDW.0>
-0.507645

>  <SCORE.INTRA.norm>
-0.296861

>  <SCORE.RESTR>
0

>  <SCORE.RESTR.CAVITY>
0

>  <SCORE.RESTR.norm>
0

>  <SCORE.SYSTEM>
0

>  <SCORE.SYSTEM.CONST>
0

>  <SCORE.SYSTEM.DIHEDRAL>
0

>  <SCORE.SYSTEM.SOLV>
0

>  <SCORE.SYSTEM.norm>
0

>  <SCORE.heavy>
10

>  <SCORE.norm>
-1.11055

>  <RMSD>
5.461

$$$$
ligand
 OpenBabel11021811473D
libRbt.so/2013.1/901 2013/11/27
 10  9  0  0  0  0  0  0  0  0999 V2000
   27.2945   14.2610   18.7985 N   0  0  0  0  0  0  0  0  0  0  0  0
   27.9660   14.4356   20.1134 C   0  0  2  0  0  0  0  0  0  0  0  0
   26.9562   14.7494   21.2178 C   0  0  0  0  0  0  0  0  0  0  0  0
   25.7632   14.8853   20.9651 O   0  0  0  0  0  0  0  0  0  0  0  0
   29.0632   15.5014   20.0132 C   0  0  0  0  0  0  0  0  0  0  0  0
   29.9732   15.5359   21.2369 C   0  0  0  0  0  0  0  0  0  0  0  0
   31.0067   16.6519   21.1737 C   0  0  0  0  0  0  0  0  0  0  0  0
   31.9088   16.6340   22.4082 C   0  0  0  0  0  0  0  0  0  0  0  0
   32.9269   17.7537   22.4494 N   0  0  0  0  0  0  0  0  0  0  0  0
   27.2659   14.8416   22.4001 O   0  0  0  0  0  0  0  0  0  0  0  0
  2  1  1  6  0  0  0
  2  3  1  0  0  0  0
  2  5  1  0  0  0  0
  3  4  1  0  0  0  0
  3 10  1  0  0  0  0
  5  6  1  0  0  0  0
  6  7  1  0  0  0  0
  7  8  1  0  0  0  0
  8  9  1  0  0  0  0
M  END
>  <CHROM.1>
-3.01000882,-168.51339670,-176.39685035,-179.10327469,-177.45924453,28.97915483
15.52520729,21.09957272,-2.79045324,0.36047374,1.33239160

>  <Name>
ligand

>  <RI>
0

>  <Rbt.Current_Directory>
/home/itssahil/PROJECTS/Mol_Feturizer/New_Systems/rnas/3DIM

>  <Rbt.Executable>
rbdock ($Id: //depot/dev/client3/rdock/2013.1/src/exe/rbdock.cxx#4 $)

>  <Rbt.Library>
libRbt.so (2013.1, Build901 2013/11/27)

>  <Rbt.Parameter_File>
/export/apps/rDock/src/rDock_2013.1_src/data/scripts/dock_solv.prm

>  <Rbt.Receptor>
prm/pocket_docking_8.prm

>  <SCORE>
-11.0708

>  <SCORE.INTER>
-8.10523

>  <SCORE.INTER.CONST>
1

>  <SCORE.INTER.POLAR>
0

>  <SCORE.INTER.ROT>
5

>  <SCORE.INTER.SOLV>
15.7001

>  <SCORE.INTER.VDW>
-17.5702

>  <SCORE.INTER.norm>
-0.810523

>  <SCORE.INTRA>
-2.96561

>  <SCORE.INTRA.DIHEDRAL>
-3.79092

>  <SCORE.INTRA.DIHEDRAL.0>
5.8785

>  <SCORE.INTRA.POLAR>
0

>  <SCORE.INTRA.POLAR.0>
0

>  <SCORE.INTRA.REPUL>
0

>  <SCORE.INTRA.REPUL.0>
0

>  <SCORE.INTRA.SOLV>
-1.84074

>  <SCORE.INTRA.SOLV.lig_0>
-31.9559

>  <SCORE.INTRA.VDW>
-0.149778

>  <SCORE.INTRA.VDW.0>
-0.507645

>  <SCORE.INTRA.norm>
-0.296561

>  <SCORE.RESTR>
0

>  <SCORE.RESTR.CAVITY>
0

>  <SCORE.RESTR.norm>
0

>  <SCORE.SYSTEM>
0

>  <SCORE.SYSTEM.CONST>
0

>  <SCORE.SYSTEM.DIHEDRAL>
0

>  <SCORE.SYSTEM.SOLV>
0

>  <SCORE.SYSTEM.norm>
0

>  <SCORE.heavy>
10

>  <SCORE.norm>
-1.10708

>  <RMSD>
5.463

$$$$
ligand
 OpenBabel11021811473D
libRbt.so/2013.1/901 2013/11/27
 10  9  0  0  0  0  0  0  0  0999 V2000
   27.2614   14.2717   18.8135 N   0  0  0  0  0  0  0  0  0  0  0  0
   27.9466   14.4396   20.1222 C   0  0  2  0  0  0  0  0  0  0  0  0
   26.9491   14.7536   21.2376 C   0  0  0  0  0  0  0  0  0  0  0  0
   25.7518   14.8785   20.9997 O   0  0  0  0  0  0  0  0  0  0  0  0
   29.0467   15.5018   20.0144 C   0  0  0  0  0  0  0  0  0  0  0  0
   29.9644   15.5341   21.2323 C   0  0  0  0  0  0  0  0  0  0  0  0
   31.0273   16.6203   21.1429 C   0  0  0  0  0  0  0  0  0  0  0  0
   31.9530   16.5829   22.3594 C   0  0  0  0  0  0  0  0  0  0  0  0
   33.0241   17.6526   22.3576 N   0  0  0  0  0  0  0  0  0  0  0  0
   27.2736   14.8567   22.4150 O   0  0  0  0  0  0  0  0  0  0  0  0
  2  1  1  6  0  0  0
  2  3  1  0  0  0  0
  2  5  1  0  0  0  0
  3  4  1  0  0  0  0
  3 10  1  0  0  0  0
  5  6  1  0  0  0  0
  6  7  1  0  0  0  0
  7  8  1  0  0  0  0
  8  9  1  0  0  0  0
M  END
>  <CHROM.1>
-2.10846629,-168.82234139,-178.10232969,-177.97591138,-178.89071632,28.98663354
15.50952960,21.09179873,-2.81483417,0.35246640,1.34681806

>  <Name>
ligand

>  <RI>
0

>  <Rbt.Current_Directory>
/home/itssahil/PROJECTS/Mol_Feturizer/New_Systems/rnas/3DIM

>  <Rbt.Executable>
rbdock ($Id: //depot/dev/client3/rdock/2013.1/src/exe/rbdock.cxx#4 $)

>  <Rbt.Library>
libRbt.so (2013.1, Build901 2013/11/27)

>  <Rbt.Parameter_File>
/export/apps/rDock/src/rDock_2013.1_src/data/scripts/dock_solv.prm

>  <Rbt.Receptor>
prm/pocket_docking_3.prm

>  <SCORE>
-11.1371

>  <SCORE.INTER>
-8.1568

>  <SCORE.INTER.CONST>
1

>  <SCORE.INTER.POLAR>
0

>  <SCORE.INTER.ROT>
5

>  <SCORE.INTER.SOLV>
15.8393

>  <SCORE.INTER.VDW>
-17.651

>  <SCORE.INTER.norm>
-0.81568

>  <SCORE.INTRA>
-2.98034

>  <SCORE.INTRA.DIHEDRAL>
-3.86526

>  <SCORE.INTRA.DIHEDRAL.0>
5.8785

>  <SCORE.INTRA.POLAR>
0

>  <SCORE.INTRA.POLAR.0>
0

>  <SCORE.INTRA.REPUL>
0

>  <SCORE.INTRA.REPUL.0>
0

>  <SCORE.INTRA.SOLV>
-1.84167

>  <SCORE.INTRA.SOLV.lig_0>
-31.9559

>  <SCORE.INTRA.VDW>
-0.126872

>  <SCORE.INTRA.VDW.0>
-0.507645

>  <SCORE.INTRA.norm>
-0.298034

>  <SCORE.RESTR>
0

>  <SCORE.RESTR.CAVITY>
0

>  <SCORE.RESTR.norm>
0

>  <SCORE.SYSTEM>
0

>  <SCORE.SYSTEM.CONST>
0

>  <SCORE.SYSTEM.DIHEDRAL>
0

>  <SCORE.SYSTEM.SOLV>
0

>  <SCORE.SYSTEM.norm>
0

>  <SCORE.heavy>
10

>  <SCORE.norm>
-1.11371

>  <RMSD>
5.466

$$$$
ligand
 OpenBabel11021811473D
libRbt.so/2013.1/901 2013/11/27
 10  9  0  0  0  0  0  0  0  0999 V2000
   27.3138   14.3006   18.8230 N   0  0  0  0  0  0  0  0  0  0  0  0
   27.9657   14.4634   20.1492 C   0  0  2  0  0  0  0  0  0  0  0  0
   26.9363   14.7353   21.2467 C   0  0  0  0  0  0  0  0  0  0  0  0
   27.2787   14.8653   22.4178 O   0  0  0  0  0  0  0  0  0  0  0  0
   29.0419   15.5530   20.0831 C   0  0  0  0  0  0  0  0  0  0  0  0
   29.9670   15.5504   21.2958 C   0  0  0  0  0  0  0  0  0  0  0  0
   30.9726   16.6932   21.2745 C   0  0  0  0  0  0  0  0  0  0  0  0
   31.9169   16.6147   22.4747 C   0  0  0  0  0  0  0  0  0  0  0  0
   32.8941   17.7668   22.5721 N   0  0  0  0  0  0  0  0  0  0  0  0
   25.7400   14.8766   21.0209 O   0  0  0  0  0  0  0  0  0  0  0  0
  2  1  1  6  0  0  0
  2  3  1  0  0  0  0
  2  5  1  0  0  0  0
  3  4  1  0  0  0  0
  3 10  1  0  0  0  0
  5  6  1  0  0  0  0
  6  7  1  0  0  0  0
  7  8  1  0  0  0  0
  8  9  1  0  0  0  0
M  END
>  <CHROM.1>
178.17016689,-166.47612857,-175.98491603,-177.48803486,-176.41417213,28.96961259
15.54227130,21.15768353,-2.78183133,0.36025238,1.33869227

>  <Name>
ligand

>  <RI>
0

>  <Rbt.Current_Directory>
/home/itssahil/PROJECTS/Mol_Feturizer/New_Systems/rnas/3DIM

>  <Rbt.Executable>
rbdock ($Id: //depot/dev/client3/rdock/2013.1/src/exe/rbdock.cxx#4 $)

>  <Rbt.Library>
libRbt.so (2013.1, Build901 2013/11/27)

>  <Rbt.Parameter_File>
/export/apps/rDock/src/rDock_2013.1_src/data/scripts/dock_solv.prm

>  <Rbt.Receptor>
prm/pocket_docking_5.prm

>  <SCORE>
-11.0666

>  <SCORE.INTER>
-8.22622

>  <SCORE.INTER.CONST>
1

>  <SCORE.INTER.POLAR>
0

>  <SCORE.INTER.ROT>
5

>  <SCORE.INTER.SOLV>
15.5068

>  <SCORE.INTER.VDW>
-17.5864

>  <SCORE.INTER.norm>
-0.822622

>  <SCORE.INTRA>
-2.84036

>  <SCORE.INTRA.DIHEDRAL>
-3.58426

>  <SCORE.INTRA.DIHEDRAL.0>
5.8785

>  <SCORE.INTRA.POLAR>
0

>  <SCORE.INTRA.POLAR.0>
0

>  <SCORE.INTRA.REPUL>
0

>  <SCORE.INTRA.REPUL.0>
0

>  <SCORE.INTRA.SOLV>
-1.85391

>  <SCORE.INTRA.SOLV.lig_0>
-31.9559

>  <SCORE.INTRA.VDW>
-0.121269

>  <SCORE.INTRA.VDW.0>
-0.507645

>  <SCORE.INTRA.norm>
-0.284036

>  <SCORE.RESTR>
0

>  <SCORE.RESTR.CAVITY>
0

>  <SCORE.RESTR.norm>
0

>  <SCORE.SYSTEM>
0

>  <SCORE.SYSTEM.CONST>
0

>  <SCORE.SYSTEM.DIHEDRAL>
0

>  <SCORE.SYSTEM.SOLV>
0

>  <SCORE.SYSTEM.norm>
0

>  <SCORE.heavy>
10

>  <SCORE.norm>
-1.10666

>  <RMSD>
5.466

$$$$
ligand
 OpenBabel11021811473D
libRbt.so/2013.1/901 2013/11/27
 10  9  0  0  0  0  0  0  0  0999 V2000
   27.3606   14.3542   18.9012 N   0  0  0  0  0  0  0  0  0  0  0  0
   28.0045   14.5361   20.2288 C   0  0  2  0  0  0  0  0  0  0  0  0
   26.9639   14.7489   21.3287 C   0  0  0  0  0  0  0  0  0  0  0  0
   27.3017   14.9131   22.4968 O   0  0  0  0  0  0  0  0  0  0  0  0
   29.0275   15.6763   20.1723 C   0  0  0  0  0  0  0  0  0  0  0  0
   29.9962   15.6660   21.3505 C   0  0  0  0  0  0  0  0  0  0  0  0
   31.0474   16.7635   21.2611 C   0  0  0  0  0  0  0  0  0  0  0  0
   32.0796   16.6264   22.3809 C   0  0  0  0  0  0  0  0  0  0  0  0
   33.1461   17.7007   22.3772 N   0  0  0  0  0  0  0  0  0  0  0  0
   25.7598   14.8072   21.1073 O   0  0  0  0  0  0  0  0  0  0  0  0
  2  1  1  6  0  0  0
  2  3  1  0  0  0  0
  2  5  1  0  0  0  0
  3  4  1  0  0  0  0
  3 10  1  0  0  0  0
  5  6  1  0  0  0  0
  6  7  1  0  0  0  0
  7  8  1  0  0  0  0
  8  9  1  0  0  0  0
M  END
>  <CHROM.1>
179.73258970,-163.65067195,177.56322930,-174.12063960,-178.82667765,29.03509966
15.57831624,21.18281848,-2.84193131,0.36814753,1.37857001

>  <Name>
ligand

>  <RI>
0

>  <Rbt.Current_Directory>
/home/itssahil/PROJECTS/Mol_Feturizer/New_Systems/rnas/3DIM

>  <Rbt.Executable>
rbdock ($Id: //depot/dev/client3/rdock/2013.1/src/exe/rbdock.cxx#4 $)

>  <Rbt.Library>
libRbt.so (2013.1, Build901 2013/11/27)

>  <Rbt.Parameter_File>
/export/apps/rDock/src/rDock_2013.1_src/data/scripts/dock_solv.prm

>  <Rbt.Receptor>
prm/pocket_docking_7.prm

>  <SCORE>
-11.009

>  <SCORE.INTER>
-8.29801

>  <SCORE.INTER.CONST>
1

>  <SCORE.INTER.POLAR>
0

>  <SCORE.INTER.ROT>
5

>  <SCORE.INTER.SOLV>
15.442

>  <SCORE.INTER.VDW>
-17.6127

>  <SCORE.INTER.norm>
-0.829801

>  <SCORE.INTRA>
-2.71097

>  <SCORE.INTRA.DIHEDRAL>
-3.25123

>  <SCORE.INTRA.DIHEDRAL.0>
5.8785

>  <SCORE.INTRA.POLAR>
0

>  <SCORE.INTRA.POLAR.0>
0

>  <SCORE.INTRA.REPUL>
0

>  <SCORE.INTRA.REPUL.0>
0

>  <SCORE.INTRA.SOLV>
-1.84887

>  <SCORE.INTRA.SOLV.lig_0>
-31.9559

>  <SCORE.INTRA.VDW>
-0.160923

>  <SCORE.INTRA.VDW.0>
-0.507645

>  <SCORE.INTRA.norm>
-0.271097

>  <SCORE.RESTR>
0

>  <SCORE.RESTR.CAVITY>
0

>  <SCORE.RESTR.norm>
0

>  <SCORE.SYSTEM>
0

>  <SCORE.SYSTEM.CONST>
0

>  <SCORE.SYSTEM.DIHEDRAL>
0

>  <SCORE.SYSTEM.SOLV>
0

>  <SCORE.SYSTEM.norm>
0

>  <SCORE.heavy>
10

>  <SCORE.norm>
-1.1009

>  <RMSD>
5.466

$$$$
ligand
 OpenBabel11021811473D
libRbt.so/2013.1/901 2013/11/27
 10  9  0  0  0  0  0  0  0  0999 V2000
   27.2723   14.2458   18.8500 N   0  0  0  0  0  0  0  0  0  0  0  0
   27.9524   14.4320   20.1589 C   0  0  2  0  0  0  0  0  0  0  0  0
   26.9486   14.7439   21.2694 C   0  0  0  0  0  0  0  0  0  0  0  0
   25.7488   14.8383   21.0302 O   0  0  0  0  0  0  0  0  0  0  0  0
   29.0409   15.5054   20.0451 C   0  0  0  0  0  0  0  0  0  0  0  0
   29.9624   15.5498   21.2597 C   0  0  0  0  0  0  0  0  0  0  0  0
   31.0325   16.6272   21.1508 C   0  0  0  0  0  0  0  0  0  0  0  0
   31.9628   16.6004   22.3640 C   0  0  0  0  0  0  0  0  0  0  0  0
   33.0411   17.6627   22.3431 N   0  0  0  0  0  0  0  0  0  0  0  0
   27.2712   14.8749   22.4445 O   0  0  0  0  0  0  0  0  0  0  0  0
  2  1  1  6  0  0  0
  2  3  1  0  0  0  0
  2  5  1  0  0  0  0
  3  4  1  0  0  0  0
  3 10  1  0  0  0  0
  5  6  1  0  0  0  0
  6  7  1  0  0  0  0
  7  8  1  0  0  0  0
  8  9  1  0  0  0  0
M  END
>  <CHROM.1>
-1.26637175,-168.33006534,-179.34971100,-177.88989809,-178.87450493,28.99000306
15.50831013,21.11387832,-2.81913951,0.35614028,1.34081530

>  <Name>
ligand

>  <RI>
0

>  <Rbt.Current_Directory>
/home/itssahil/PROJECTS/Mol_Feturizer/New_Systems/rnas/3DIM

>  <Rbt.Executable>
rbdock ($Id: //depot/dev/client3/rdock/2013.1/src/exe/rbdock.cxx#4 $)

>  <Rbt.Library>
libRbt.so (2013.1, Build901 2013/11/27)

>  <Rbt.Parameter_File>
/export/apps/rDock/src/rDock_2013.1_src/data/scripts/dock_solv.prm

>  <Rbt.Receptor>
prm/pocket_docking_3.prm

>  <SCORE>
-11.1496

>  <SCORE.INTER>
-8.18254

>  <SCORE.INTER.CONST>
1

>  <SCORE.INTER.POLAR>
0

>  <SCORE.INTER.ROT>
5

>  <SCORE.INTER.SOLV>
15.8247

>  <SCORE.INTER.VDW>
-17.6633

>  <SCORE.INTER.norm>
-0.818254

>  <SCORE.INTRA>
-2.96704

>  <SCORE.INTRA.DIHEDRAL>
-3.83977

>  <SCORE.INTRA.DIHEDRAL.0>
5.8785

>  <SCORE.INTRA.POLAR>
0

>  <SCORE.INTRA.POLAR.0>
0

>  <SCORE.INTRA.REPUL>
0

>  <SCORE.INTRA.REPUL.0>
0

>  <SCORE.INTRA.SOLV>
-1.84105

>  <SCORE.INTRA.SOLV.lig_0>
-31.9559

>  <SCORE.INTRA.VDW>
-0.126629

>  <SCORE.INTRA.VDW.0>
-0.507645

>  <SCORE.INTRA.norm>
-0.296704

>  <SCORE.RESTR>
0

>  <SCORE.RESTR.CAVITY>
0

>  <SCORE.RESTR.norm>
0

>  <SCORE.SYSTEM>
0

>  <SCORE.SYSTEM.CONST>
0

>  <SCORE.SYSTEM.DIHEDRAL>
0

>  <SCORE.SYSTEM.SOLV>
0

>  <SCORE.SYSTEM.norm>
0

>  <SCORE.heavy>
10

>  <SCORE.norm>
-1.11496

>  <RMSD>
5.468

$$$$
ligand
 OpenBabel11021811473D
libRbt.so/2013.1/901 2013/11/27
 10  9  0  0  0  0  0  0  0  0999 V2000
   27.3137   14.2293   18.7785 N   0  0  0  0  0  0  0  0  0  0  0  0
   27.9553   14.4144   20.1068 C   0  0  2  0  0  0  0  0  0  0  0  0
   26.9184   14.7134   21.1900 C   0  0  0  0  0  0  0  0  0  0  0  0
   27.2395   14.7816   22.3723 O   0  0  0  0  0  0  0  0  0  0  0  0
   29.0383   15.4966   20.0285 C   0  0  0  0  0  0  0  0  0  0  0  0
   29.9353   15.5314   21.2616 C   0  0  0  0  0  0  0  0  0  0  0  0
   30.9756   16.6414   21.2047 C   0  0  0  0  0  0  0  0  0  0  0  0
   31.8783   16.6105   22.4385 C   0  0  0  0  0  0  0  0  0  0  0  0
   32.8809   17.7429   22.5028 N   0  0  0  0  0  0  0  0  0  0  0  0
   25.7391   14.9375   20.9427 O   0  0  0  0  0  0  0  0  0  0  0  0
  2  1  1  6  0  0  0
  2  3  1  0  0  0  0
  2  5  1  0  0  0  0
  3  4  1  0  0  0  0
  3 10  1  0  0  0  0
  5  6  1  0  0  0  0
  6  7  1  0  0  0  0
  7  8  1  0  0  0  0
  8  9  1  0  0  0  0
M  END
>  <CHROM.1>
173.56935063,-167.65626570,-177.79741419,-178.22342054,-176.05121788,28.95421622
15.51077893,21.10427504,-2.77761437,0.35684138,1.32665103

>  <Name>
ligand

>  <RI>
0

>  <Rbt.Current_Directory>
/home/itssahil/PROJECTS/Mol_Feturizer/New_Systems/rnas/3DIM

>  <Rbt.Executable>
rbdock ($Id: //depot/dev/client3/rdock/2013.1/src/exe/rbdock.cxx#4 $)

>  <Rbt.Library>
libRbt.so (2013.1, Build901 2013/11/27)

>  <Rbt.Parameter_File>
/export/apps/rDock/src/rDock_2013.1_src/data/scripts/dock_solv.prm

>  <Rbt.Receptor>
prm/blind_docking_60.prm

>  <SCORE>
-11.0978

>  <SCORE.INTER>
-8.12364

>  <SCORE.INTER.CONST>
1

>  <SCORE.INTER.POLAR>
0

>  <SCORE.INTER.ROT>
5

>  <SCORE.INTER.SOLV>
15.6494

>  <SCORE.INTER.VDW>
-17.5656

>  <SCORE.INTER.norm>
-0.812364

>  <SCORE.INTRA>
-2.97417

>  <SCORE.INTRA.DIHEDRAL>
-3.76228

>  <SCORE.INTRA.DIHEDRAL.0>
5.8785

>  <SCORE.INTRA.POLAR>
0

>  <SCORE.INTRA.POLAR.0>
0

>  <SCORE.INTRA.REPUL>
0

>  <SCORE.INTRA.REPUL.0>
0

>  <SCORE.INTRA.SOLV>
-1.85686

>  <SCORE.INTRA.SOLV.lig_0>
-31.9559

>  <SCORE.INTRA.VDW>
-0.164596

>  <SCORE.INTRA.VDW.0>
-0.507645

>  <SCORE.INTRA.norm>
-0.297417

>  <SCORE.RESTR>
0

>  <SCORE.RESTR.CAVITY>
0

>  <SCORE.RESTR.norm>
0

>  <SCORE.SYSTEM>
0

>  <SCORE.SYSTEM.CONST>
0

>  <SCORE.SYSTEM.DIHEDRAL>
0

>  <SCORE.SYSTEM.SOLV>
0

>  <SCORE.SYSTEM.norm>
0

>  <SCORE.heavy>
10

>  <SCORE.norm>
-1.10978

>  <RMSD>
5.471

$$$$
ligand
 OpenBabel11021811473D
libRbt.so/2013.1/901 2013/11/27
 10  9  0  0  0  0  0  0  0  0999 V2000
   27.2857   14.2429   18.8745 N   0  0  0  0  0  0  0  0  0  0  0  0
   27.9481   14.4266   20.1928 C   0  0  2  0  0  0  0  0  0  0  0  0
   26.9269   14.7078   21.2955 C   0  0  0  0  0  0  0  0  0  0  0  0
   27.2811   14.8802   22.4576 O   0  0  0  0  0  0  0  0  0  0  0  0
   29.0180   15.5208   20.1028 C   0  0  0  0  0  0  0  0  0  0  0  0
   29.9753   15.5165   21.2903 C   0  0  0  0  0  0  0  0  0  0  0  0
   30.9683   16.6697   21.2532 C   0  0  0  0  0  0  0  0  0  0  0  0
   31.9145   16.6171   22.4534 C   0  0  0  0  0  0  0  0  0  0  0  0
   32.9066   17.7590   22.5123 N   0  0  0  0  0  0  0  0  0  0  0  0
   25.7249   14.8153   21.0817 O   0  0  0  0  0  0  0  0  0  0  0  0
  2  1  1  6  0  0  0
  2  3  1  0  0  0  0
  2  5  1  0  0  0  0
  3  4  1  0  0  0  0
  3 10  1  0  0  0  0
  5  6  1  0  0  0  0
  6  7  1  0  0  0  0
  7  8  1  0  0  0  0
  8  9  1  0  0  0  0
M  END
>  <CHROM.1>
179.56528830,-165.02163366,-175.52861087,-179.45012455,-178.14172102,28.96196785
15.51610175,21.17362016,-2.79254946,0.36321284,1.32684635

>  <Name>
ligand

>  <RI>
0

>  <Rbt.Current_Directory>
/home/itssahil/PROJECTS/Mol_Feturizer/New_Systems/rnas/3DIM

>  <Rbt.Executable>
rbdock ($Id: //depot/dev/client3/rdock/2013.1/src/exe/rbdock.cxx#4 $)

>  <Rbt.Library>
libRbt.so (2013.1, Build901 2013/11/27)

>  <Rbt.Parameter_File>
/export/apps/rDock/src/rDock_2013.1_src/data/scripts/dock_solv.prm

>  <Rbt.Receptor>
prm/pocket_docking_6.prm

>  <SCORE>
-11.0081

>  <SCORE.INTER>
-8.20546

>  <SCORE.INTER.CONST>
1

>  <SCORE.INTER.POLAR>
0

>  <SCORE.INTER.ROT>
5

>  <SCORE.INTER.SOLV>
15.6556

>  <SCORE.INTER.VDW>
-17.6222

>  <SCORE.INTER.norm>
-0.820546

>  <SCORE.INTRA>
-2.80264

>  <SCORE.INTRA.DIHEDRAL>
-3.47673

>  <SCORE.INTRA.DIHEDRAL.0>
5.8785

>  <SCORE.INTRA.POLAR>
0

>  <SCORE.INTRA.POLAR.0>
0

>  <SCORE.INTRA.REPUL>
0

>  <SCORE.INTRA.REPUL.0>
0

>  <SCORE.INTRA.SOLV>
-1.85158

>  <SCORE.INTRA.SOLV.lig_0>
-31.9559

>  <SCORE.INTRA.VDW>
-0.138487

>  <SCORE.INTRA.VDW.0>
-0.507645

>  <SCORE.INTRA.norm>
-0.280264

>  <SCORE.RESTR>
0

>  <SCORE.RESTR.CAVITY>
0

>  <SCORE.RESTR.norm>
0

>  <SCORE.SYSTEM>
0

>  <SCORE.SYSTEM.CONST>
0

>  <SCORE.SYSTEM.DIHEDRAL>
0

>  <SCORE.SYSTEM.SOLV>
0

>  <SCORE.SYSTEM.norm>
0

>  <SCORE.heavy>
10

>  <SCORE.norm>
-1.10081

>  <RMSD>
5.472

$$$$
ligand
 OpenBabel11021811473D
libRbt.so/2013.1/901 2013/11/27
 10  9  0  0  0  0  0  0  0  0999 V2000
   28.8384   14.0876   22.4939 N   0  0  0  0  0  0  0  0  0  0  0  0
   28.4559   15.3626   21.8319 C   0  0  2  0  0  0  0  0  0  0  0  0
   27.0910   15.2501   21.1518 C   0  0  0  0  0  0  0  0  0  0  0  0
   26.1951   14.5678   21.6390 O   0  0  0  0  0  0  0  0  0  0  0  0
   29.5528   15.8061   20.8572 C   0  0  0  0  0  0  0  0  0  0  0  0
   30.8995   16.0288   21.5378 C   0  0  0  0  0  0  0  0  0  0  0  0
   31.9746   16.5152   20.5760 C   0  0  0  0  0  0  0  0  0  0  0  0
   33.2891   16.7792   21.3113 C   0  0  0  0  0  0  0  0  0  0  0  0
   33.2029   17.8589   22.3689 N   0  0  0  0  0  0  0  0  0  0  0  0
   26.8045   15.8536   20.1242 O   0  0  0  0  0  0  0  0  0  0  0  0
  2  1  1  6  0  0  0
  2  3  1  0  0  0  0
  2  5  1  0  0  0  0
  3  4  1  0  0  0  0
  3 10  1  0  0  0  0
  5  6  1  0  0  0  0
  6  7  1  0  0  0  0
  7  8  1  0  0  0  0
  8  9  1  0  0  0  0
M  END
>  <CHROM.1>
34.91655473,-59.65661628,-178.01960248,177.67563268,-61.92724243,29.58712585
15.80537559,21.37494383,-2.97960935,-0.29455237,-0.90592487

>  <Name>
ligand

>  <RI>
0

>  <Rbt.Current_Directory>
/home/itssahil/PROJECTS/Mol_Feturizer/New_Systems/rnas/3DIM

>  <Rbt.Executable>
rbdock ($Id: //depot/dev/client3/rdock/2013.1/src/exe/rbdock.cxx#4 $)

>  <Rbt.Library>
libRbt.so (2013.1, Build901 2013/11/27)

>  <Rbt.Parameter_File>
/export/apps/rDock/src/rDock_2013.1_src/data/scripts/dock_solv.prm

>  <Rbt.Receptor>
prm/pocket_docking_7.prm

>  <SCORE>
-9.97147

>  <SCORE.INTER>
-7.97923

>  <SCORE.INTER.CONST>
1

>  <SCORE.INTER.POLAR>
0

>  <SCORE.INTER.ROT>
5

>  <SCORE.INTER.SOLV>
17.0838

>  <SCORE.INTER.VDW>
-17.9474

>  <SCORE.INTER.norm>
-0.797923

>  <SCORE.INTRA>
-1.99224

>  <SCORE.INTRA.DIHEDRAL>
-4.40166

>  <SCORE.INTRA.DIHEDRAL.0>
5.8785

>  <SCORE.INTRA.POLAR>
0

>  <SCORE.INTRA.POLAR.0>
0

>  <SCORE.INTRA.REPUL>
0

>  <SCORE.INTRA.REPUL.0>
0

>  <SCORE.INTRA.SOLV>
-0.0382683

>  <SCORE.INTRA.SOLV.lig_0>
-31.9559

>  <SCORE.INTRA.VDW>
0.227724

>  <SCORE.INTRA.VDW.0>
-0.507645

>  <SCORE.INTRA.norm>
-0.199224

>  <SCORE.RESTR>
0

>  <SCORE.RESTR.CAVITY>
0

>  <SCORE.RESTR.norm>
0

>  <SCORE.SYSTEM>
0

>  <SCORE.SYSTEM.CONST>
0

>  <SCORE.SYSTEM.DIHEDRAL>
0

>  <SCORE.SYSTEM.SOLV>
0

>  <SCORE.SYSTEM.norm>
0

>  <SCORE.heavy>
10

>  <SCORE.norm>
-0.997147

>  <RMSD>
5.472

$$$$
ligand
 OpenBabel11021811473D
libRbt.so/2013.1/901 2013/11/27
 10  9  0  0  0  0  0  0  0  0999 V2000
   27.2906   14.2518   18.8903 N   0  0  0  0  0  0  0  0  0  0  0  0
   27.9529   14.4447   20.2073 C   0  0  2  0  0  0  0  0  0  0  0  0
   26.9326   14.7465   21.3055 C   0  0  0  0  0  0  0  0  0  0  0  0
   25.7336   14.8156   21.0542 O   0  0  0  0  0  0  0  0  0  0  0  0
   29.0319   15.5289   20.1066 C   0  0  0  0  0  0  0  0  0  0  0  0
   29.9389   15.5817   21.3318 C   0  0  0  0  0  0  0  0  0  0  0  0
   31.0043   16.6645   21.2322 C   0  0  0  0  0  0  0  0  0  0  0  0
   31.9327   16.6333   22.4469 C   0  0  0  0  0  0  0  0  0  0  0  0
   33.0084   17.6984   22.4337 N   0  0  0  0  0  0  0  0  0  0  0  0
   27.2414   14.8940   22.4824 O   0  0  0  0  0  0  0  0  0  0  0  0
  2  1  1  6  0  0  0
  2  3  1  0  0  0  0
  2  5  1  0  0  0  0
  3  4  1  0  0  0  0
  3 10  1  0  0  0  0
  5  6  1  0  0  0  0
  6  7  1  0  0  0  0
  7  8  1  0  0  0  0
  8  9  1  0  0  0  0
M  END
>  <CHROM.1>
-0.51453384,-168.28125446,-179.67281731,-177.08650492,-179.01264789,28.97312354
15.52588936,21.17102275,-2.80836566,0.36009332,1.33689613

>  <Name>
ligand

>  <RI>
0

>  <Rbt.Current_Directory>
/home/itssahil/PROJECTS/Mol_Feturizer/New_Systems/rnas/3DIM

>  <Rbt.Executable>
rbdock ($Id: //depot/dev/client3/rdock/2013.1/src/exe/rbdock.cxx#4 $)

>  <Rbt.Library>
libRbt.so (2013.1, Build901 2013/11/27)

>  <Rbt.Parameter_File>
/export/apps/rDock/src/rDock_2013.1_src/data/scripts/dock_solv.prm

>  <Rbt.Receptor>
prm/pocket_docking_3.prm

>  <SCORE>
-11.1377

>  <SCORE.INTER>
-8.18807

>  <SCORE.INTER.CONST>
1

>  <SCORE.INTER.POLAR>
0

>  <SCORE.INTER.ROT>
5

>  <SCORE.INTER.SOLV>
15.6988

>  <SCORE.INTER.VDW>
-17.625

>  <SCORE.INTER.norm>
-0.818807

>  <SCORE.INTRA>
-2.94967

>  <SCORE.INTRA.DIHEDRAL>
-3.82442

>  <SCORE.INTRA.DIHEDRAL.0>
5.8785

>  <SCORE.INTRA.POLAR>
0

>  <SCORE.INTRA.POLAR.0>
0

>  <SCORE.INTRA.REPUL>
0

>  <SCORE.INTRA.REPUL.0>
0

>  <SCORE.INTRA.SOLV>
-1.8411

>  <SCORE.INTRA.SOLV.lig_0>
-31.9559

>  <SCORE.INTRA.VDW>
-0.116907

>  <SCORE.INTRA.VDW.0>
-0.507645

>  <SCORE.INTRA.norm>
-0.294967

>  <SCORE.RESTR>
0

>  <SCORE.RESTR.CAVITY>
0

>  <SCORE.RESTR.norm>
0

>  <SCORE.SYSTEM>
0

>  <SCORE.SYSTEM.CONST>
0

>  <SCORE.SYSTEM.DIHEDRAL>
0

>  <SCORE.SYSTEM.SOLV>
0

>  <SCORE.SYSTEM.norm>
0

>  <SCORE.heavy>
10

>  <SCORE.norm>
-1.11377

>  <RMSD>
5.473

$$$$
ligand
 OpenBabel11021811473D
libRbt.so/2013.1/901 2013/11/27
 10  9  0  0  0  0  0  0  0  0999 V2000
   27.2814   14.2517   18.8620 N   0  0  0  0  0  0  0  0  0  0  0  0
   27.9450   14.4392   20.1791 C   0  0  2  0  0  0  0  0  0  0  0  0
   26.9274   14.7528   21.2765 C   0  0  0  0  0  0  0  0  0  0  0  0
   25.7284   14.8251   21.0263 O   0  0  0  0  0  0  0  0  0  0  0  0
   29.0352   15.5121   20.0778 C   0  0  0  0  0  0  0  0  0  0  0  0
   29.9698   15.5268   21.2831 C   0  0  0  0  0  0  0  0  0  0  0  0
   30.9951   16.6505   21.2224 C   0  0  0  0  0  0  0  0  0  0  0  0
   31.9313   16.6042   22.4306 C   0  0  0  0  0  0  0  0  0  0  0  0
   32.9776   17.6981   22.4475 N   0  0  0  0  0  0  0  0  0  0  0  0
   27.2383   14.9070   22.4520 O   0  0  0  0  0  0  0  0  0  0  0  0
  2  1  1  6  0  0  0
  2  3  1  0  0  0  0
  2  5  1  0  0  0  0
  3  4  1  0  0  0  0
  3 10  1  0  0  0  0
  5  6  1  0  0  0  0
  6  7  1  0  0  0  0
  7  8  1  0  0  0  0
  8  9  1  0  0  0  0
M  END
>  <CHROM.1>
-0.02031202,-166.42454679,-176.28089165,-178.53205450,-179.65405964,28.96939611
15.51704473,21.14762857,-2.80053145,0.35313269,1.32814916

>  <Name>
ligand

>  <RI>
0

>  <Rbt.Current_Directory>
/home/itssahil/PROJECTS/Mol_Feturizer/New_Systems/rnas/3DIM

>  <Rbt.Executable>
rbdock ($Id: //depot/dev/client3/rdock/2013.1/src/exe/rbdock.cxx#4 $)

>  <Rbt.Library>
libRbt.so (2013.1, Build901 2013/11/27)

>  <Rbt.Parameter_File>
/export/apps/rDock/src/rDock_2013.1_src/data/scripts/dock_solv.prm

>  <Rbt.Receptor>
prm/pocket_docking_5.prm

>  <SCORE>
-11.0964

>  <SCORE.INTER>
-8.20036

>  <SCORE.INTER.CONST>
1

>  <SCORE.INTER.POLAR>
0

>  <SCORE.INTER.ROT>
5

>  <SCORE.INTER.SOLV>
15.7122

>  <SCORE.INTER.VDW>
-17.6376

>  <SCORE.INTER.norm>
-0.820036

>  <SCORE.INTRA>
-2.89607

>  <SCORE.INTRA.DIHEDRAL>
-3.63058

>  <SCORE.INTRA.DIHEDRAL.0>
5.8785

>  <SCORE.INTRA.POLAR>
0

>  <SCORE.INTRA.POLAR.0>
0

>  <SCORE.INTRA.REPUL>
0

>  <SCORE.INTRA.REPUL.0>
0

>  <SCORE.INTRA.SOLV>
-1.83816

>  <SCORE.INTRA.SOLV.lig_0>
-31.9559

>  <SCORE.INTRA.VDW>
-0.161696

>  <SCORE.INTRA.VDW.0>
-0.507645

>  <SCORE.INTRA.norm>
-0.289607

>  <SCORE.RESTR>
0

>  <SCORE.RESTR.CAVITY>
0

>  <SCORE.RESTR.norm>
0

>  <SCORE.SYSTEM>
0

>  <SCORE.SYSTEM.CONST>
0

>  <SCORE.SYSTEM.DIHEDRAL>
0

>  <SCORE.SYSTEM.SOLV>
0

>  <SCORE.SYSTEM.norm>
0

>  <SCORE.heavy>
10

>  <SCORE.norm>
-1.10964

>  <RMSD>
5.473

$$$$
ligand
 OpenBabel11021811473D
libRbt.so/2013.1/901 2013/11/27
 10  9  0  0  0  0  0  0  0  0999 V2000
   27.3103   14.2407   18.7828 N   0  0  0  0  0  0  0  0  0  0  0  0
   27.9414   14.4219   20.1166 C   0  0  2  0  0  0  0  0  0  0  0  0
   26.8973   14.7318   21.1899 C   0  0  0  0  0  0  0  0  0  0  0  0
   27.2123   14.8218   22.3724 O   0  0  0  0  0  0  0  0  0  0  0  0
   29.0346   15.4942   20.0468 C   0  0  0  0  0  0  0  0  0  0  0  0
   29.9340   15.5085   21.2787 C   0  0  0  0  0  0  0  0  0  0  0  0
   30.9668   16.6263   21.2436 C   0  0  0  0  0  0  0  0  0  0  0  0
   31.8513   16.5947   22.4906 C   0  0  0  0  0  0  0  0  0  0  0  0
   32.8582   17.7227   22.5663 N   0  0  0  0  0  0  0  0  0  0  0  0
   25.7177   14.9437   20.9334 O   0  0  0  0  0  0  0  0  0  0  0  0
  2  1  1  6  0  0  0
  2  3  1  0  0  0  0
  2  5  1  0  0  0  0
  3  4  1  0  0  0  0
  3 10  1  0  0  0  0
  5  6  1  0  0  0  0
  6  7  1  0  0  0  0
  7  8  1  0  0  0  0
  8  9  1  0  0  0  0
M  END
>  <CHROM.1>
174.85337006,-166.77640527,-176.64196806,-179.54158600,-176.88842184,28.93897212
15.51185081,21.12340583,-2.76612643,0.34581932,1.31750575

>  <Name>
ligand

>  <RI>
0

>  <Rbt.Current_Directory>
/home/itssahil/PROJECTS/Mol_Feturizer/New_Systems/rnas/3DIM

>  <Rbt.Executable>
rbdock ($Id: //depot/dev/client3/rdock/2013.1/src/exe/rbdock.cxx#4 $)

>  <Rbt.Library>
libRbt.so (2013.1, Build901 2013/11/27)

>  <Rbt.Parameter_File>
/export/apps/rDock/src/rDock_2013.1_src/data/scripts/dock_solv.prm

>  <Rbt.Receptor>
prm/pocket_docking_5.prm

>  <SCORE>
-11.0917

>  <SCORE.INTER>
-8.15388

>  <SCORE.INTER.CONST>
1

>  <SCORE.INTER.POLAR>
0

>  <SCORE.INTER.ROT>
5

>  <SCORE.INTER.SOLV>
15.5716

>  <SCORE.INTER.VDW>
-17.5598

>  <SCORE.INTER.norm>
-0.815388

>  <SCORE.INTRA>
-2.93786

>  <SCORE.INTRA.DIHEDRAL>
-3.68434

>  <SCORE.INTRA.DIHEDRAL.0>
5.8785

>  <SCORE.INTRA.POLAR>
0

>  <SCORE.INTRA.POLAR.0>
0

>  <SCORE.INTRA.REPUL>
0

>  <SCORE.INTRA.REPUL.0>
0

>  <SCORE.INTRA.SOLV>
-1.8554

>  <SCORE.INTRA.SOLV.lig_0>
-31.9559

>  <SCORE.INTRA.VDW>
-0.167992

>  <SCORE.INTRA.VDW.0>
-0.507645

>  <SCORE.INTRA.norm>
-0.293786

>  <SCORE.RESTR>
0

>  <SCORE.RESTR.CAVITY>
0

>  <SCORE.RESTR.norm>
0

>  <SCORE.SYSTEM>
0

>  <SCORE.SYSTEM.CONST>
0

>  <SCORE.SYSTEM.DIHEDRAL>
0

>  <SCORE.SYSTEM.SOLV>
0

>  <SCORE.SYSTEM.norm>
0

>  <SCORE.heavy>
10

>  <SCORE.norm>
-1.10917

>  <RMSD>
5.475

$$$$
ligand
 OpenBabel11021811473D
libRbt.so/2013.1/901 2013/11/27
 10  9  0  0  0  0  0  0  0  0999 V2000
   26.7581   14.3288   20.7215 N   0  0  0  0  0  0  0  0  0  0  0  0
   27.6767   15.1727   19.9126 C   0  0  2  0  0  0  0  0  0  0  0  0
   27.7353   14.6988   18.4601 C   0  0  0  0  0  0  0  0  0  0  0  0
   27.2018   13.6492   18.1144 O   0  0  0  0  0  0  0  0  0  0  0  0
   29.0647   15.2213   20.5614 C   0  0  0  0  0  0  0  0  0  0  0  0
   29.0316   15.7238   22.0012 C   0  0  0  0  0  0  0  0  0  0  0  0
   30.4213   15.9352   22.5856 C   0  0  0  0  0  0  0  0  0  0  0  0
   31.1436   17.0837   21.8803 C   0  0  0  0  0  0  0  0  0  0  0  0
   32.5186   17.3871   22.4364 N   0  0  0  0  0  0  0  0  0  0  0  0
   28.2719   15.3448   17.5674 O   0  0  0  0  0  0  0  0  0  0  0  0
  2  1  1  1  0  0  0
  2  3  1  0  0  0  0
  2  5  1  0  0  0  0
  3  4  1  0  0  0  0
  3 10  1  0  0  0  0
  5  6  1  0  0  0  0
  6  7  1  0  0  0  0
  7  8  1  0  0  0  0
  8  9  1  0  0  0  0
M  END
>  <CHROM.1>
-8.38814287,-56.58713177,-172.87985970,66.91377119,178.08262966,28.97449079
15.44045897,20.38324941,2.44632247,-0.54246862,-1.58022398

>  <Name>
ligand

>  <RI>
0

>  <Rbt.Current_Directory>
/home/itssahil/PROJECTS/Mol_Feturizer/New_Systems/rnas/3DIM

>  <Rbt.Executable>
rbdock ($Id: //depot/dev/client3/rdock/2013.1/src/exe/rbdock.cxx#4 $)

>  <Rbt.Library>
libRbt.so (2013.1, Build901 2013/11/27)

>  <Rbt.Parameter_File>
/export/apps/rDock/src/rDock_2013.1_src/data/scripts/dock_solv.prm

>  <Rbt.Receptor>
prm/pocket_docking_7.prm

>  <SCORE>
-10.2751

>  <SCORE.INTER>
-8.44726

>  <SCORE.INTER.CONST>
1

>  <SCORE.INTER.POLAR>
0

>  <SCORE.INTER.ROT>
5

>  <SCORE.INTER.SOLV>
14.9894

>  <SCORE.INTER.VDW>
-17.5613

>  <SCORE.INTER.norm>
-0.844726

>  <SCORE.INTRA>
-1.82788

>  <SCORE.INTRA.DIHEDRAL>
-3.87037

>  <SCORE.INTRA.DIHEDRAL.0>
5.8785

>  <SCORE.INTRA.POLAR>
0

>  <SCORE.INTRA.POLAR.0>
0

>  <SCORE.INTRA.REPUL>
0

>  <SCORE.INTRA.REPUL.0>
0

>  <SCORE.INTRA.SOLV>
-0.72068

>  <SCORE.INTRA.SOLV.lig_0>
-31.9559

>  <SCORE.INTRA.VDW>
0.467648

>  <SCORE.INTRA.VDW.0>
-0.507645

>  <SCORE.INTRA.norm>
-0.182788

>  <SCORE.RESTR>
0

>  <SCORE.RESTR.CAVITY>
0

>  <SCORE.RESTR.norm>
0

>  <SCORE.SYSTEM>
0

>  <SCORE.SYSTEM.CONST>
0

>  <SCORE.SYSTEM.DIHEDRAL>
0

>  <SCORE.SYSTEM.SOLV>
0

>  <SCORE.SYSTEM.norm>
0

>  <SCORE.heavy>
10

>  <SCORE.norm>
-1.02751

>  <RMSD>
5.475

$$$$
ligand
 OpenBabel11021811473D
libRbt.so/2013.1/901 2013/11/27
 10  9  0  0  0  0  0  0  0  0999 V2000
   27.3112   14.1730   18.7827 N   0  0  0  0  0  0  0  0  0  0  0  0
   27.9436   14.3939   20.1099 C   0  0  2  0  0  0  0  0  0  0  0  0
   26.9009   14.7377   21.1741 C   0  0  0  0  0  0  0  0  0  0  0  0
   27.2138   14.8459   22.3556 O   0  0  0  0  0  0  0  0  0  0  0  0
   29.0383   15.4620   20.0066 C   0  0  0  0  0  0  0  0  0  0  0  0
   29.9363   15.5151   21.2384 C   0  0  0  0  0  0  0  0  0  0  0  0
   31.0050   16.5952   21.1446 C   0  0  0  0  0  0  0  0  0  0  0  0
   31.9032   16.5866   22.3821 C   0  0  0  0  0  0  0  0  0  0  0  0
   33.0045   17.6250   22.3572 N   0  0  0  0  0  0  0  0  0  0  0  0
   25.7249   14.9604   20.9102 O   0  0  0  0  0  0  0  0  0  0  0  0
  2  1  1  6  0  0  0
  2  3  1  0  0  0  0
  2  5  1  0  0  0  0
  3  4  1  0  0  0  0
  3 10  1  0  0  0  0
  5  6  1  0  0  0  0
  6  7  1  0  0  0  0
  7  8  1  0  0  0  0
  8  9  1  0  0  0  0
M  END
>  <CHROM.1>
173.87831302,-166.93104115,-178.85808238,-178.47275271,179.33576952,28.96463695
15.49151077,21.06752769,-2.79047826,0.33546300,1.30446565

>  <Name>
ligand

>  <RI>
0

>  <Rbt.Current_Directory>
/home/itssahil/PROJECTS/Mol_Feturizer/New_Systems/rnas/3DIM

>  <Rbt.Executable>
rbdock ($Id: //depot/dev/client3/rdock/2013.1/src/exe/rbdock.cxx#4 $)

>  <Rbt.Library>
libRbt.so (2013.1, Build901 2013/11/27)

>  <Rbt.Parameter_File>
/export/apps/rDock/src/rDock_2013.1_src/data/scripts/dock_solv.prm

>  <Rbt.Receptor>
prm/pocket_docking_7.prm

>  <SCORE>
-11.1039

>  <SCORE.INTER>
-8.11358

>  <SCORE.INTER.CONST>
1

>  <SCORE.INTER.POLAR>
0

>  <SCORE.INTER.ROT>
5

>  <SCORE.INTER.SOLV>
15.8217

>  <SCORE.INTER.VDW>
-17.6163

>  <SCORE.INTER.norm>
-0.811358

>  <SCORE.INTRA>
-2.99036

>  <SCORE.INTRA.DIHEDRAL>
-3.77045

>  <SCORE.INTRA.DIHEDRAL.0>
5.8785

>  <SCORE.INTRA.POLAR>
0

>  <SCORE.INTRA.POLAR.0>
0

>  <SCORE.INTRA.REPUL>
0

>  <SCORE.INTRA.REPUL.0>
0

>  <SCORE.INTRA.SOLV>
-1.85656

>  <SCORE.INTRA.SOLV.lig_0>
-31.9559

>  <SCORE.INTRA.VDW>
-0.176853

>  <SCORE.INTRA.VDW.0>
-0.507645

>  <SCORE.INTRA.norm>
-0.299036

>  <SCORE.RESTR>
0

>  <SCORE.RESTR.CAVITY>
0

>  <SCORE.RESTR.norm>
0

>  <SCORE.SYSTEM>
0

>  <SCORE.SYSTEM.CONST>
0

>  <SCORE.SYSTEM.DIHEDRAL>
0

>  <SCORE.SYSTEM.SOLV>
0

>  <SCORE.SYSTEM.norm>
0

>  <SCORE.heavy>
10

>  <SCORE.norm>
-1.11039

>  <RMSD>
5.475

$$$$
ligand
 OpenBabel11021811473D
libRbt.so/2013.1/901 2013/11/27
 10  9  0  0  0  0  0  0  0  0999 V2000
   28.9041   14.7838   19.5559 N   0  0  0  0  0  0  0  0  0  0  0  0
   28.3989   15.0304   20.9322 C   0  0  2  0  0  0  0  0  0  0  0  0
   26.8721   14.9672   20.9853 C   0  0  0  0  0  0  0  0  0  0  0  0
   26.1881   15.3942   20.0604 O   0  0  0  0  0  0  0  0  0  0  0  0
   28.9416   16.3601   21.4680 C   0  0  0  0  0  0  0  0  0  0  0  0
   30.4652   16.4012   21.5259 C   0  0  0  0  0  0  0  0  0  0  0  0
   30.9995   17.6985   22.1168 C   0  0  0  0  0  0  0  0  0  0  0  0
   32.5283   17.7220   22.0951 C   0  0  0  0  0  0  0  0  0  0  0  0
   33.1776   16.6109   22.8922 N   0  0  0  0  0  0  0  0  0  0  0  0
   26.2560   14.4609   21.9161 O   0  0  0  0  0  0  0  0  0  0  0  0
  2  1  1  6  0  0  0
  2  3  1  0  0  0  0
  2  5  1  0  0  0  0
  3  4  1  0  0  0  0
  3 10  1  0  0  0  0
  5  6  1  0  0  0  0
  6  7  1  0  0  0  0
  7  8  1  0  0  0  0
  8  9  1  0  0  0  0
M  END
>  <CHROM.1>
-36.77995837,-59.72690013,-177.41244441,-177.35849253,-60.63129741,29.22785902
15.93506241,21.35286346,-2.79120420,0.30765737,1.28202650

>  <Name>
ligand

>  <RI>
0

>  <Rbt.Current_Directory>
/home/itssahil/PROJECTS/Mol_Feturizer/New_Systems/rnas/3DIM

>  <Rbt.Executable>
rbdock ($Id: //depot/dev/client3/rdock/2013.1/src/exe/rbdock.cxx#4 $)

>  <Rbt.Library>
libRbt.so (2013.1, Build901 2013/11/27)

>  <Rbt.Parameter_File>
/export/apps/rDock/src/rDock_2013.1_src/data/scripts/dock_solv.prm

>  <Rbt.Receptor>
prm/pocket_docking_8.prm

>  <SCORE>
-9.68331

>  <SCORE.INTER>
-7.3354

>  <SCORE.INTER.CONST>
1

>  <SCORE.INTER.POLAR>
0

>  <SCORE.INTER.ROT>
5

>  <SCORE.INTER.SOLV>
14.2615

>  <SCORE.INTER.VDW>
-16.5774

>  <SCORE.INTER.norm>
-0.73354

>  <SCORE.INTRA>
-2.34791

>  <SCORE.INTRA.DIHEDRAL>
-4.23986

>  <SCORE.INTRA.DIHEDRAL.0>
5.8785

>  <SCORE.INTRA.POLAR>
0

>  <SCORE.INTRA.POLAR.0>
0

>  <SCORE.INTRA.REPUL>
0

>  <SCORE.INTRA.REPUL.0>
0

>  <SCORE.INTRA.SOLV>
-0.0390741

>  <SCORE.INTRA.SOLV.lig_0>
-31.9559

>  <SCORE.INTRA.VDW>
-0.208443

>  <SCORE.INTRA.VDW.0>
-0.507645

>  <SCORE.INTRA.norm>
-0.234791

>  <SCORE.RESTR>
0

>  <SCORE.RESTR.CAVITY>
0

>  <SCORE.RESTR.norm>
0

>  <SCORE.SYSTEM>
0

>  <SCORE.SYSTEM.CONST>
0

>  <SCORE.SYSTEM.DIHEDRAL>
0

>  <SCORE.SYSTEM.SOLV>
0

>  <SCORE.SYSTEM.norm>
0

>  <SCORE.heavy>
10

>  <SCORE.norm>
-0.968331

>  <RMSD>
5.476

$$$$
ligand
 OpenBabel11021811473D
libRbt.so/2013.1/901 2013/11/27
 10  9  0  0  0  0  0  0  0  0999 V2000
   27.3093   14.2002   18.7861 N   0  0  0  0  0  0  0  0  0  0  0  0
   27.9431   14.4129   20.1140 C   0  0  2  0  0  0  0  0  0  0  0  0
   26.8994   14.7292   21.1857 C   0  0  0  0  0  0  0  0  0  0  0  0
   27.2145   14.8248   22.3678 O   0  0  0  0  0  0  0  0  0  0  0  0
   29.0230   15.4969   20.0208 C   0  0  0  0  0  0  0  0  0  0  0  0
   29.9370   15.5332   21.2413 C   0  0  0  0  0  0  0  0  0  0  0  0
   31.0073   16.6117   21.1464 C   0  0  0  0  0  0  0  0  0  0  0  0
   31.9147   16.5931   22.3770 C   0  0  0  0  0  0  0  0  0  0  0  0
   33.0112   17.6367   22.3557 N   0  0  0  0  0  0  0  0  0  0  0  0
   25.7200   14.9412   20.9282 O   0  0  0  0  0  0  0  0  0  0  0  0
  2  1  1  6  0  0  0
  2  3  1  0  0  0  0
  2  5  1  0  0  0  0
  3  4  1  0  0  0  0
  3 10  1  0  0  0  0
  5  6  1  0  0  0  0
  6  7  1  0  0  0  0
  7  8  1  0  0  0  0
  8  9  1  0  0  0  0
M  END
>  <CHROM.1>
173.77152711,-166.09679390,-179.93896133,-178.90759114,179.80821095,28.96436787
15.49940449,21.07388991,-2.79960143,0.34345994,1.32186312

>  <Name>
ligand

>  <RI>
0

>  <Rbt.Current_Directory>
/home/itssahil/PROJECTS/Mol_Feturizer/New_Systems/rnas/3DIM

>  <Rbt.Executable>
rbdock ($Id: //depot/dev/client3/rdock/2013.1/src/exe/rbdock.cxx#4 $)

>  <Rbt.Library>
libRbt.so (2013.1, Build901 2013/11/27)

>  <Rbt.Parameter_File>
/export/apps/rDock/src/rDock_2013.1_src/data/scripts/dock_solv.prm

>  <Rbt.Receptor>
prm/pocket_docking_4.prm

>  <SCORE>
-11.1266

>  <SCORE.INTER>
-8.14999

>  <SCORE.INTER.CONST>
1

>  <SCORE.INTER.POLAR>
0

>  <SCORE.INTER.ROT>
5

>  <SCORE.INTER.SOLV>
15.802

>  <SCORE.INTER.VDW>
-17.634

>  <SCORE.INTER.norm>
-0.814999

>  <SCORE.INTRA>
-2.97666

>  <SCORE.INTRA.DIHEDRAL>
-3.70265

>  <SCORE.INTRA.DIHEDRAL.0>
5.8785

>  <SCORE.INTRA.POLAR>
0

>  <SCORE.INTRA.POLAR.0>
0

>  <SCORE.INTRA.REPUL>
0

>  <SCORE.INTRA.REPUL.0>
0

>  <SCORE.INTRA.SOLV>
-1.85515

>  <SCORE.INTRA.SOLV.lig_0>
-31.9559

>  <SCORE.INTRA.VDW>
-0.197757

>  <SCORE.INTRA.VDW.0>
-0.507645

>  <SCORE.INTRA.norm>
-0.297666

>  <SCORE.RESTR>
0

>  <SCORE.RESTR.CAVITY>
0

>  <SCORE.RESTR.norm>
0

>  <SCORE.SYSTEM>
0

>  <SCORE.SYSTEM.CONST>
0

>  <SCORE.SYSTEM.DIHEDRAL>
0

>  <SCORE.SYSTEM.SOLV>
0

>  <SCORE.SYSTEM.norm>
0

>  <SCORE.heavy>
10

>  <SCORE.norm>
-1.11266

>  <RMSD>
5.478

$$$$
ligand
 OpenBabel11021811473D
libRbt.so/2013.1/901 2013/11/27
 10  9  0  0  0  0  0  0  0  0999 V2000
   27.3051   14.2200   18.8611 N   0  0  0  0  0  0  0  0  0  0  0  0
   27.9424   14.4222   20.1890 C   0  0  2  0  0  0  0  0  0  0  0  0
   26.8999   14.7120   21.2693 C   0  0  0  0  0  0  0  0  0  0  0  0
   27.2273   14.8546   22.4432 O   0  0  0  0  0  0  0  0  0  0  0  0
   29.0093   15.5198   20.1057 C   0  0  0  0  0  0  0  0  0  0  0  0
   29.9133   15.5657   21.3334 C   0  0  0  0  0  0  0  0  0  0  0  0
   30.9540   16.6743   21.2599 C   0  0  0  0  0  0  0  0  0  0  0  0
   31.8795   16.6388   22.4767 C   0  0  0  0  0  0  0  0  0  0  0  0
   32.9028   17.7538   22.5111 N   0  0  0  0  0  0  0  0  0  0  0  0
   25.7073   14.8560   21.0259 O   0  0  0  0  0  0  0  0  0  0  0  0
  2  1  1  6  0  0  0
  2  3  1  0  0  0  0
  2  5  1  0  0  0  0
  3  4  1  0  0  0  0
  3 10  1  0  0  0  0
  5  6  1  0  0  0  0
  6  7  1  0  0  0  0
  7  8  1  0  0  0  0
  8  9  1  0  0  0  0
M  END
>  <CHROM.1>
177.05763090,-167.07303643,-178.86005723,-177.19746226,-177.20192827,28.94066977
15.52237725,21.16916772,-2.78529336,0.36127022,1.32130608

>  <Name>
ligand

>  <RI>
0

>  <Rbt.Current_Directory>
/home/itssahil/PROJECTS/Mol_Feturizer/New_Systems/rnas/3DIM

>  <Rbt.Executable>
rbdock ($Id: //depot/dev/client3/rdock/2013.1/src/exe/rbdock.cxx#4 $)

>  <Rbt.Library>
libRbt.so (2013.1, Build901 2013/11/27)

>  <Rbt.Parameter_File>
/export/apps/rDock/src/rDock_2013.1_src/data/scripts/dock_solv.prm

>  <Rbt.Receptor>
prm/pocket_docking_6.prm

>  <SCORE>
-11.0429

>  <SCORE.INTER>
-8.13544

>  <SCORE.INTER.CONST>
1

>  <SCORE.INTER.POLAR>
0

>  <SCORE.INTER.ROT>
5

>  <SCORE.INTER.SOLV>
15.6268

>  <SCORE.INTER.VDW>
-17.5659

>  <SCORE.INTER.norm>
-0.813544

>  <SCORE.INTRA>
-2.9075

>  <SCORE.INTRA.DIHEDRAL>
-3.71965

>  <SCORE.INTRA.DIHEDRAL.0>
5.8785

>  <SCORE.INTRA.POLAR>
0

>  <SCORE.INTRA.POLAR.0>
0

>  <SCORE.INTRA.REPUL>
0

>  <SCORE.INTRA.REPUL.0>
0

>  <SCORE.INTRA.SOLV>
-1.85547

>  <SCORE.INTRA.SOLV.lig_0>
-31.9559

>  <SCORE.INTRA.VDW>
-0.119942

>  <SCORE.INTRA.VDW.0>
-0.507645

>  <SCORE.INTRA.norm>
-0.29075

>  <SCORE.RESTR>
0

>  <SCORE.RESTR.CAVITY>
0

>  <SCORE.RESTR.norm>
0

>  <SCORE.SYSTEM>
0

>  <SCORE.SYSTEM.CONST>
0

>  <SCORE.SYSTEM.DIHEDRAL>
0

>  <SCORE.SYSTEM.SOLV>
0

>  <SCORE.SYSTEM.norm>
0

>  <SCORE.heavy>
10

>  <SCORE.norm>
-1.10429

>  <RMSD>
5.479

$$$$
ligand
 OpenBabel11021811473D
libRbt.so/2013.1/901 2013/11/27
 10  9  0  0  0  0  0  0  0  0999 V2000
   27.3148   14.2441   18.7866 N   0  0  0  0  0  0  0  0  0  0  0  0
   27.9442   14.4325   20.1203 C   0  0  2  0  0  0  0  0  0  0  0  0
   26.8958   14.7166   21.1965 C   0  0  0  0  0  0  0  0  0  0  0  0
   27.2078   14.7889   22.3810 O   0  0  0  0  0  0  0  0  0  0  0  0
   29.0154   15.5269   20.0534 C   0  0  0  0  0  0  0  0  0  0  0  0
   29.9161   15.5545   21.2841 C   0  0  0  0  0  0  0  0  0  0  0  0
   30.9558   16.6651   21.2309 C   0  0  0  0  0  0  0  0  0  0  0  0
   31.8745   16.6149   22.4523 C   0  0  0  0  0  0  0  0  0  0  0  0
   32.8852   17.7401   22.5156 N   0  0  0  0  0  0  0  0  0  0  0  0
   25.7152   14.9243   20.9411 O   0  0  0  0  0  0  0  0  0  0  0  0
  2  1  1  6  0  0  0
  2  3  1  0  0  0  0
  2  5  1  0  0  0  0
  3  4  1  0  0  0  0
  3 10  1  0  0  0  0
  5  6  1  0  0  0  0
  6  7  1  0  0  0  0
  7  8  1  0  0  0  0
  8  9  1  0  0  0  0
M  END
>  <CHROM.1>
173.79270731,-166.78757408,-178.52266117,-177.43259955,-176.49442339,28.93894537
15.52134885,21.11765125,-2.78030070,0.35823262,1.33315043

>  <Name>
ligand

>  <RI>
0

>  <Rbt.Current_Directory>
/home/itssahil/PROJECTS/Mol_Feturizer/New_Systems/rnas/3DIM

>  <Rbt.Executable>
rbdock ($Id: //depot/dev/client3/rdock/2013.1/src/exe/rbdock.cxx#4 $)

>  <Rbt.Library>
libRbt.so (2013.1, Build901 2013/11/27)

>  <Rbt.Parameter_File>
/export/apps/rDock/src/rDock_2013.1_src/data/scripts/dock_solv.prm

>  <Rbt.Receptor>
prm/pocket_docking_8.prm

>  <SCORE>
-11.1007

>  <SCORE.INTER>
-8.1453

>  <SCORE.INTER.CONST>
1

>  <SCORE.INTER.POLAR>
0

>  <SCORE.INTER.ROT>
5

>  <SCORE.INTER.SOLV>
15.6067

>  <SCORE.INTER.VDW>
-17.5658

>  <SCORE.INTER.norm>
-0.81453

>  <SCORE.INTRA>
-2.95538

>  <SCORE.INTRA.DIHEDRAL>
-3.69113

>  <SCORE.INTRA.DIHEDRAL.0>
5.8785

>  <SCORE.INTRA.POLAR>
0

>  <SCORE.INTRA.POLAR.0>
0

>  <SCORE.INTRA.REPUL>
0

>  <SCORE.INTRA.REPUL.0>
0

>  <SCORE.INTRA.SOLV>
-1.85556

>  <SCORE.INTRA.SOLV.lig_0>
-31.9559

>  <SCORE.INTRA.VDW>
-0.182037

>  <SCORE.INTRA.VDW.0>
-0.507645

>  <SCORE.INTRA.norm>
-0.295538

>  <SCORE.RESTR>
0

>  <SCORE.RESTR.CAVITY>
0

>  <SCORE.RESTR.norm>
0

>  <SCORE.SYSTEM>
0

>  <SCORE.SYSTEM.CONST>
0

>  <SCORE.SYSTEM.DIHEDRAL>
0

>  <SCORE.SYSTEM.SOLV>
0

>  <SCORE.SYSTEM.norm>
0

>  <SCORE.heavy>
10

>  <SCORE.norm>
-1.11007

>  <RMSD>
5.480

$$$$
ligand
 OpenBabel11021811473D
libRbt.so/2013.1/901 2013/11/27
 10  9  0  0  0  0  0  0  0  0999 V2000
   28.7184   14.3169   22.6145 N   0  0  0  0  0  0  0  0  0  0  0  0
   28.3638   15.4855   21.7665 C   0  0  2  0  0  0  0  0  0  0  0  0
   27.0452   15.2578   21.0267 C   0  0  0  0  0  0  0  0  0  0  0  0
   26.1752   14.5289   21.4930 O   0  0  0  0  0  0  0  0  0  0  0  0
   29.5142   15.8169   20.8091 C   0  0  0  0  0  0  0  0  0  0  0  0
   30.8224   16.1197   21.5326 C   0  0  0  0  0  0  0  0  0  0  0  0
   31.9622   16.4507   20.5793 C   0  0  0  0  0  0  0  0  0  0  0  0
   33.2498   16.7509   21.3477 C   0  0  0  0  0  0  0  0  0  0  0  0
   33.1228   17.8708   22.3583 N   0  0  0  0  0  0  0  0  0  0  0  0
   26.7691   15.8094   19.9676 O   0  0  0  0  0  0  0  0  0  0  0  0
  2  1  1  6  0  0  0
  2  3  1  0  0  0  0
  2  5  1  0  0  0  0
  3  4  1  0  0  0  0
  3 10  1  0  0  0  0
  5  6  1  0  0  0  0
  6  7  1  0  0  0  0
  7  8  1  0  0  0  0
  8  9  1  0  0  0  0
M  END
>  <CHROM.1>
28.23381741,-58.23248698,-179.90289144,179.82124312,-56.73666185,29.53198224
15.83276773,21.33354656,-3.04088248,-0.31953194,-1.04105368

>  <Name>
ligand

>  <RI>
0

>  <Rbt.Current_Directory>
/home/itssahil/PROJECTS/Mol_Feturizer/New_Systems/rnas/3DIM

>  <Rbt.Executable>
rbdock ($Id: //depot/dev/client3/rdock/2013.1/src/exe/rbdock.cxx#4 $)

>  <Rbt.Library>
libRbt.so (2013.1, Build901 2013/11/27)

>  <Rbt.Parameter_File>
/export/apps/rDock/src/rDock_2013.1_src/data/scripts/dock_solv.prm

>  <Rbt.Receptor>
prm/pocket_docking_5.prm

>  <SCORE>
-9.8682

>  <SCORE.INTER>
-7.9366

>  <SCORE.INTER.CONST>
1

>  <SCORE.INTER.POLAR>
0

>  <SCORE.INTER.ROT>
5

>  <SCORE.INTER.SOLV>
16.7192

>  <SCORE.INTER.VDW>
-17.7975

>  <SCORE.INTER.norm>
-0.79366

>  <SCORE.INTRA>
-1.9316

>  <SCORE.INTRA.DIHEDRAL>
-4.40552

>  <SCORE.INTRA.DIHEDRAL.0>
5.8785

>  <SCORE.INTRA.POLAR>
0

>  <SCORE.INTRA.POLAR.0>
0

>  <SCORE.INTRA.REPUL>
0

>  <SCORE.INTRA.REPUL.0>
0

>  <SCORE.INTRA.SOLV>
0.0531983

>  <SCORE.INTRA.SOLV.lig_0>
-31.9559

>  <SCORE.INTRA.VDW>
0.244564

>  <SCORE.INTRA.VDW.0>
-0.507645

>  <SCORE.INTRA.norm>
-0.19316

>  <SCORE.RESTR>
0

>  <SCORE.RESTR.CAVITY>
0

>  <SCORE.RESTR.norm>
0

>  <SCORE.SYSTEM>
0

>  <SCORE.SYSTEM.CONST>
0

>  <SCORE.SYSTEM.DIHEDRAL>
0

>  <SCORE.SYSTEM.SOLV>
0

>  <SCORE.SYSTEM.norm>
0

>  <SCORE.heavy>
10

>  <SCORE.norm>
-0.98682

>  <RMSD>
5.490

$$$$
ligand
 OpenBabel11021811473D
libRbt.so/2013.1/901 2013/11/27
 10  9  0  0  0  0  0  0  0  0999 V2000
   26.6434   14.4149   20.7341 N   0  0  0  0  0  0  0  0  0  0  0  0
   27.6270   15.1638   19.9083 C   0  0  2  0  0  0  0  0  0  0  0  0
   27.7010   14.6058   18.4867 C   0  0  0  0  0  0  0  0  0  0  0  0
   28.2706   15.2239   17.5927 O   0  0  0  0  0  0  0  0  0  0  0  0
   28.9971   15.1785   20.5957 C   0  0  0  0  0  0  0  0  0  0  0  0
   28.9518   15.7695   22.0011 C   0  0  0  0  0  0  0  0  0  0  0  0
   30.3345   15.9458   22.6131 C   0  0  0  0  0  0  0  0  0  0  0  0
   31.1075   17.0614   21.9087 C   0  0  0  0  0  0  0  0  0  0  0  0
   32.4664   17.3504   22.5099 N   0  0  0  0  0  0  0  0  0  0  0  0
   27.2412   13.5141   18.1723 O   0  0  0  0  0  0  0  0  0  0  0  0
  2  1  1  1  0  0  0
  2  3  1  0  0  0  0
  2  5  1  0  0  0  0
  3  4  1  0  0  0  0
  3 10  1  0  0  0  0
  5  6  1  0  0  0  0
  6  7  1  0  0  0  0
  7  8  1  0  0  0  0
  8  9  1  0  0  0  0
M  END
>  <CHROM.1>
167.06960380,-56.88032325,-172.72969222,69.87323574,176.80841681,28.92789267
15.40673536,20.41205014,2.41008048,-0.50904997,-1.64825296

>  <Name>
ligand

>  <RI>
0

>  <Rbt.Current_Directory>
/home/itssahil/PROJECTS/Mol_Feturizer/New_Systems/rnas/3DIM

>  <Rbt.Executable>
rbdock ($Id: //depot/dev/client3/rdock/2013.1/src/exe/rbdock.cxx#4 $)

>  <Rbt.Library>
libRbt.so (2013.1, Build901 2013/11/27)

>  <Rbt.Parameter_File>
/export/apps/rDock/src/rDock_2013.1_src/data/scripts/dock_solv.prm

>  <Rbt.Receptor>
prm/pocket_docking_8.prm

>  <SCORE>
-10.3441

>  <SCORE.INTER>
-8.43273

>  <SCORE.INTER.CONST>
1

>  <SCORE.INTER.POLAR>
0

>  <SCORE.INTER.ROT>
5

>  <SCORE.INTER.SOLV>
15.3114

>  <SCORE.INTER.VDW>
-17.659

>  <SCORE.INTER.norm>
-0.843273

>  <SCORE.INTRA>
-1.91135

>  <SCORE.INTRA.DIHEDRAL>
-3.74216

>  <SCORE.INTRA.DIHEDRAL.0>
5.8785

>  <SCORE.INTRA.POLAR>
0

>  <SCORE.INTRA.POLAR.0>
0

>  <SCORE.INTRA.REPUL>
0

>  <SCORE.INTRA.REPUL.0>
0

>  <SCORE.INTRA.SOLV>
-0.769623

>  <SCORE.INTRA.SOLV.lig_0>
-31.9559

>  <SCORE.INTRA.VDW>
0.344541

>  <SCORE.INTRA.VDW.0>
-0.507645

>  <SCORE.INTRA.norm>
-0.191135

>  <SCORE.RESTR>
0

>  <SCORE.RESTR.CAVITY>
0

>  <SCORE.RESTR.norm>
0

>  <SCORE.SYSTEM>
0

>  <SCORE.SYSTEM.CONST>
0

>  <SCORE.SYSTEM.DIHEDRAL>
0

>  <SCORE.SYSTEM.SOLV>
0

>  <SCORE.SYSTEM.norm>
0

>  <SCORE.heavy>
10

>  <SCORE.norm>
-1.03441

>  <RMSD>
5.493

$$$$
ligand
 OpenBabel11021811473D
libRbt.so/2013.1/901 2013/11/27
 10  9  0  0  0  0  0  0  0  0999 V2000
   26.1405   14.5923   20.9334 N   0  0  0  0  0  0  0  0  0  0  0  0
   27.0834   15.4303   20.1466 C   0  0  2  0  0  0  0  0  0  0  0  0
   27.5060   14.7307   18.8543 C   0  0  0  0  0  0  0  0  0  0  0  0
   27.2035   13.5611   18.6394 O   0  0  0  0  0  0  0  0  0  0  0  0
   28.2868   15.8294   21.0082 C   0  0  0  0  0  0  0  0  0  0  0  0
   29.1475   16.9114   20.3641 C   0  0  0  0  0  0  0  0  0  0  0  0
   30.4131   17.2093   21.1559 C   0  0  0  0  0  0  0  0  0  0  0  0
   31.4598   16.1139   20.9488 C   0  0  0  0  0  0  0  0  0  0  0  0
   32.7788   16.3762   21.6441 N   0  0  0  0  0  0  0  0  0  0  0  0
   28.1232   15.2962   17.9591 O   0  0  0  0  0  0  0  0  0  0  0  0
  2  1  1  1  0  0  0
  2  3  1  0  0  0  0
  2  5  1  0  0  0  0
  3  4  1  0  0  0  0
  3 10  1  0  0  0  0
  5  6  1  0  0  0  0
  6  7  1  0  0  0  0
  7  8  1  0  0  0  0
  8  9  1  0  0  0  0
M  END
>  <CHROM.1>
-8.37853389,-168.37898729,-174.40717892,76.29308212,176.78873724,28.81295369
15.58594502,20.13175643,2.62448026,-0.23194623,-1.99013622

>  <Name>
ligand

>  <RI>
0

>  <Rbt.Current_Directory>
/home/itssahil/PROJECTS/Mol_Feturizer/New_Systems/rnas/3DIM

>  <Rbt.Executable>
rbdock ($Id: //depot/dev/client3/rdock/2013.1/src/exe/rbdock.cxx#4 $)

>  <Rbt.Library>
libRbt.so (2013.1, Build901 2013/11/27)

>  <Rbt.Parameter_File>
/export/apps/rDock/src/rDock_2013.1_src/data/scripts/dock_solv.prm

>  <Rbt.Receptor>
prm/pocket_docking_4.prm

>  <SCORE>
-9.95854

>  <SCORE.INTER>
-7.84241

>  <SCORE.INTER.CONST>
1

>  <SCORE.INTER.POLAR>
0

>  <SCORE.INTER.ROT>
5

>  <SCORE.INTER.SOLV>
18.0101

>  <SCORE.INTER.VDW>
-18.165

>  <SCORE.INTER.norm>
-0.784241

>  <SCORE.INTRA>
-2.11612

>  <SCORE.INTRA.DIHEDRAL>
-2.62353

>  <SCORE.INTRA.DIHEDRAL.0>
5.8785

>  <SCORE.INTRA.POLAR>
0

>  <SCORE.INTRA.POLAR.0>
0

>  <SCORE.INTRA.REPUL>
0

>  <SCORE.INTRA.REPUL.0>
0

>  <SCORE.INTRA.SOLV>
-1.71767

>  <SCORE.INTRA.SOLV.lig_0>
-31.9559

>  <SCORE.INTRA.VDW>
0.0544768

>  <SCORE.INTRA.VDW.0>
-0.507645

>  <SCORE.INTRA.norm>
-0.211612

>  <SCORE.RESTR>
0

>  <SCORE.RESTR.CAVITY>
0

>  <SCORE.RESTR.norm>
0

>  <SCORE.SYSTEM>
0

>  <SCORE.SYSTEM.CONST>
0

>  <SCORE.SYSTEM.DIHEDRAL>
0

>  <SCORE.SYSTEM.SOLV>
0

>  <SCORE.SYSTEM.norm>
0

>  <SCORE.heavy>
10

>  <SCORE.norm>
-0.995854

>  <RMSD>
5.497

$$$$
ligand
 OpenBabel11021811473D
libRbt.so/2013.1/901 2013/11/27
 10  9  0  0  0  0  0  0  0  0999 V2000
   26.0768   14.8816   20.8729 N   0  0  0  0  0  0  0  0  0  0  0  0
   27.2971   15.5359   20.3317 C   0  0  2  0  0  0  0  0  0  0  0  0
   27.7103   14.9246   18.9924 C   0  0  0  0  0  0  0  0  0  0  0  0
   28.3358   15.5787   18.1639 O   0  0  0  0  0  0  0  0  0  0  0  0
   28.4296   15.4866   21.3637 C   0  0  0  0  0  0  0  0  0  0  0  0
   29.6662   16.2661   20.9283 C   0  0  0  0  0  0  0  0  0  0  0  0
   30.7862   16.2213   21.9584 C   0  0  0  0  0  0  0  0  0  0  0  0
   31.9990   17.0231   21.4846 C   0  0  0  0  0  0  0  0  0  0  0  0
   33.1342   17.0808   22.4845 N   0  0  0  0  0  0  0  0  0  0  0  0
   27.4814   13.7589   18.6909 O   0  0  0  0  0  0  0  0  0  0  0  0
  2  1  1  1  0  0  0
  2  3  1  0  0  0  0
  2  5  1  0  0  0  0
  3  4  1  0  0  0  0
  3 10  1  0  0  0  0
  5  6  1  0  0  0  0
  6  7  1  0  0  0  0
  7  8  1  0  0  0  0
  8  9  1  0  0  0  0
M  END
>  <CHROM.1>
153.00753461,-174.10165078,179.69530580,-179.58002953,177.30241295,29.09098672
15.65923937,20.49140545,2.61353192,-0.30802883,-1.76942203

>  <Name>
ligand

>  <RI>
0

>  <Rbt.Current_Directory>
/home/itssahil/PROJECTS/Mol_Feturizer/New_Systems/rnas/3DIM

>  <Rbt.Executable>
rbdock ($Id: //depot/dev/client3/rdock/2013.1/src/exe/rbdock.cxx#4 $)

>  <Rbt.Library>
libRbt.so (2013.1, Build901 2013/11/27)

>  <Rbt.Parameter_File>
/export/apps/rDock/src/rDock_2013.1_src/data/scripts/dock_solv.prm

>  <Rbt.Receptor>
prm/pocket_docking_5.prm

>  <SCORE>
-10.4218

>  <SCORE.INTER>
-7.03969

>  <SCORE.INTER.CONST>
1

>  <SCORE.INTER.POLAR>
0

>  <SCORE.INTER.ROT>
5

>  <SCORE.INTER.SOLV>
18.5574

>  <SCORE.INTER.VDW>
-17.8122

>  <SCORE.INTER.norm>
-0.703969

>  <SCORE.INTRA>
-3.38207

>  <SCORE.INTRA.DIHEDRAL>
-4.30434

>  <SCORE.INTRA.DIHEDRAL.0>
5.8785

>  <SCORE.INTRA.POLAR>
0

>  <SCORE.INTRA.POLAR.0>
0

>  <SCORE.INTRA.REPUL>
0

>  <SCORE.INTRA.REPUL.0>
0

>  <SCORE.INTRA.SOLV>
-1.87382

>  <SCORE.INTRA.SOLV.lig_0>
-31.9559

>  <SCORE.INTRA.VDW>
-0.292991

>  <SCORE.INTRA.VDW.0>
-0.507645

>  <SCORE.INTRA.norm>
-0.338207

>  <SCORE.RESTR>
0

>  <SCORE.RESTR.CAVITY>
0

>  <SCORE.RESTR.norm>
0

>  <SCORE.SYSTEM>
0

>  <SCORE.SYSTEM.CONST>
0

>  <SCORE.SYSTEM.DIHEDRAL>
0

>  <SCORE.SYSTEM.SOLV>
0

>  <SCORE.SYSTEM.norm>
0

>  <SCORE.heavy>
10

>  <SCORE.norm>
-1.04218

>  <RMSD>
5.498

$$$$
ligand
 OpenBabel11021811473D
libRbt.so/2013.1/901 2013/11/27
 10  9  0  0  0  0  0  0  0  0999 V2000
   25.9910   14.7970   20.9046 N   0  0  0  0  0  0  0  0  0  0  0  0
   27.1847   15.5327   20.4107 C   0  0  2  0  0  0  0  0  0  0  0  0
   27.6717   14.9719   19.0741 C   0  0  0  0  0  0  0  0  0  0  0  0
   27.3832   13.8322   18.7228 O   0  0  0  0  0  0  0  0  0  0  0  0
   28.2883   15.5317   21.4747 C   0  0  0  0  0  0  0  0  0  0  0  0
   29.4880   16.3910   21.0888 C   0  0  0  0  0  0  0  0  0  0  0  0
   30.5987   16.3567   22.1294 C   0  0  0  0  0  0  0  0  0  0  0  0
   31.8130   17.1597   21.6616 C   0  0  0  0  0  0  0  0  0  0  0  0
   32.9492   17.2060   22.6610 N   0  0  0  0  0  0  0  0  0  0  0  0
   28.3303   15.6270   18.2746 O   0  0  0  0  0  0  0  0  0  0  0  0
  2  1  1  1  0  0  0
  2  3  1  0  0  0  0
  2  5  1  0  0  0  0
  3  4  1  0  0  0  0
  3 10  1  0  0  0  0
  5  6  1  0  0  0  0
  6  7  1  0  0  0  0
  7  8  1  0  0  0  0
  8  9  1  0  0  0  0
M  END
>  <CHROM.1>
-21.61786334,-174.12102851,-178.37663086,176.45741127,178.38516579,28.96984315
15.72470510,20.60403347,2.59024463,-0.33811267,-1.76251241

>  <Name>
ligand

>  <RI>
0

>  <Rbt.Current_Directory>
/home/itssahil/PROJECTS/Mol_Feturizer/New_Systems/rnas/3DIM

>  <Rbt.Executable>
rbdock ($Id: //depot/dev/client3/rdock/2013.1/src/exe/rbdock.cxx#4 $)

>  <Rbt.Library>
libRbt.so (2013.1, Build901 2013/11/27)

>  <Rbt.Parameter_File>
/export/apps/rDock/src/rDock_2013.1_src/data/scripts/dock_solv.prm

>  <Rbt.Receptor>
prm/pocket_docking_4.prm

>  <SCORE>
-10.4737

>  <SCORE.INTER>
-7.23106

>  <SCORE.INTER.CONST>
1

>  <SCORE.INTER.POLAR>
0

>  <SCORE.INTER.ROT>
5

>  <SCORE.INTER.SOLV>
18.4961

>  <SCORE.INTER.VDW>
-17.9194

>  <SCORE.INTER.norm>
-0.723106

>  <SCORE.INTRA>
-3.24264

>  <SCORE.INTRA.DIHEDRAL>
-4.0999

>  <SCORE.INTRA.DIHEDRAL.0>
5.8785

>  <SCORE.INTRA.POLAR>
0

>  <SCORE.INTRA.POLAR.0>
0

>  <SCORE.INTRA.REPUL>
0

>  <SCORE.INTRA.REPUL.0>
0

>  <SCORE.INTRA.SOLV>
-1.84878

>  <SCORE.INTRA.SOLV.lig_0>
-31.9559

>  <SCORE.INTRA.VDW>
-0.268296

>  <SCORE.INTRA.VDW.0>
-0.507645

>  <SCORE.INTRA.norm>
-0.324264

>  <SCORE.RESTR>
0

>  <SCORE.RESTR.CAVITY>
0

>  <SCORE.RESTR.norm>
0

>  <SCORE.SYSTEM>
0

>  <SCORE.SYSTEM.CONST>
0

>  <SCORE.SYSTEM.DIHEDRAL>
0

>  <SCORE.SYSTEM.SOLV>
0

>  <SCORE.SYSTEM.norm>
0

>  <SCORE.heavy>
10

>  <SCORE.norm>
-1.04737

>  <RMSD>
5.506

$$$$
ligand
 OpenBabel11021811473D
libRbt.so/2013.1/901 2013/11/27
 10  9  0  0  0  0  0  0  0  0999 V2000
   25.9369   14.8393   20.8693 N   0  0  0  0  0  0  0  0  0  0  0  0
   27.1511   15.5464   20.3836 C   0  0  2  0  0  0  0  0  0  0  0  0
   27.6416   14.9651   19.0571 C   0  0  0  0  0  0  0  0  0  0  0  0
   28.3153   15.6367   18.2821 O   0  0  0  0  0  0  0  0  0  0  0  0
   28.2422   15.5312   21.4602 C   0  0  0  0  0  0  0  0  0  0  0  0
   29.4617   16.3664   21.0838 C   0  0  0  0  0  0  0  0  0  0  0  0
   30.5643   16.3083   22.1318 C   0  0  0  0  0  0  0  0  0  0  0  0
   31.7769   17.1328   21.6980 C   0  0  0  0  0  0  0  0  0  0  0  0
   32.9058   17.1546   22.7065 N   0  0  0  0  0  0  0  0  0  0  0  0
   27.4298   13.8072   18.7158 O   0  0  0  0  0  0  0  0  0  0  0  0
  2  1  1  1  0  0  0
  2  3  1  0  0  0  0
  2  5  1  0  0  0  0
  3  4  1  0  0  0  0
  3 10  1  0  0  0  0
  5  6  1  0  0  0  0
  6  7  1  0  0  0  0
  7  8  1  0  0  0  0
  8  9  1  0  0  0  0
M  END
>  <CHROM.1>
155.70257410,-173.92242069,-177.89706033,178.70380615,178.49231471,28.94387866
15.71277336,20.60309032,2.57719676,-0.31908960,-1.77802580

>  <Name>
ligand

>  <RI>
0

>  <Rbt.Current_Directory>
/home/itssahil/PROJECTS/Mol_Feturizer/New_Systems/rnas/3DIM

>  <Rbt.Executable>
rbdock ($Id: //depot/dev/client3/rdock/2013.1/src/exe/rbdock.cxx#4 $)

>  <Rbt.Library>
libRbt.so (2013.1, Build901 2013/11/27)

>  <Rbt.Parameter_File>
/export/apps/rDock/src/rDock_2013.1_src/data/scripts/dock_solv.prm

>  <Rbt.Receptor>
prm/pocket_docking_5.prm

>  <SCORE>
-10.6025

>  <SCORE.INTER>
-7.23116

>  <SCORE.INTER.CONST>
1

>  <SCORE.INTER.POLAR>
0

>  <SCORE.INTER.ROT>
5

>  <SCORE.INTER.SOLV>
18.6228

>  <SCORE.INTER.VDW>
-17.9617

>  <SCORE.INTER.norm>
-0.723116

>  <SCORE.INTRA>
-3.37136

>  <SCORE.INTRA.DIHEDRAL>
-4.28932

>  <SCORE.INTRA.DIHEDRAL.0>
5.8785

>  <SCORE.INTRA.POLAR>
0

>  <SCORE.INTRA.POLAR.0>
0

>  <SCORE.INTRA.REPUL>
0

>  <SCORE.INTRA.REPUL.0>
0

>  <SCORE.INTRA.SOLV>
-1.87264

>  <SCORE.INTRA.SOLV.lig_0>
-31.9559

>  <SCORE.INTRA.VDW>
-0.290384

>  <SCORE.INTRA.VDW.0>
-0.507645

>  <SCORE.INTRA.norm>
-0.337136

>  <SCORE.RESTR>
0

>  <SCORE.RESTR.CAVITY>
0

>  <SCORE.RESTR.norm>
0

>  <SCORE.SYSTEM>
0

>  <SCORE.SYSTEM.CONST>
0

>  <SCORE.SYSTEM.DIHEDRAL>
0

>  <SCORE.SYSTEM.SOLV>
0

>  <SCORE.SYSTEM.norm>
0

>  <SCORE.heavy>
10

>  <SCORE.norm>
-1.06025

>  <RMSD>
5.508

$$$$
ligand
 OpenBabel11021811473D
libRbt.so/2013.1/901 2013/11/27
 10  9  0  0  0  0  0  0  0  0999 V2000
   26.9019   14.2198   20.9929 N   0  0  0  0  0  0  0  0  0  0  0  0
   27.0690   15.1677   19.8598 C   0  0  2  0  0  0  0  0  0  0  0  0
   27.5740   14.4539   18.6055 C   0  0  0  0  0  0  0  0  0  0  0  0
   27.2120   13.3125   18.3374 O   0  0  0  0  0  0  0  0  0  0  0  0
   27.9794   16.3312   20.2690 C   0  0  0  0  0  0  0  0  0  0  0  0
   29.3756   15.8774   20.6828 C   0  0  0  0  0  0  0  0  0  0  0  0
   30.3071   17.0406   20.9940 C   0  0  0  0  0  0  0  0  0  0  0  0
   31.6897   16.5389   21.4121 C   0  0  0  0  0  0  0  0  0  0  0  0
   31.7218   15.8637   22.7666 N   0  0  0  0  0  0  0  0  0  0  0  0
   28.3216   14.9825   17.7908 O   0  0  0  0  0  0  0  0  0  0  0  0
  2  1  1  1  0  0  0
  2  3  1  0  0  0  0
  2  5  1  0  0  0  0
  3  4  1  0  0  0  0
  3 10  1  0  0  0  0
  5  6  1  0  0  0  0
  6  7  1  0  0  0  0
  7  8  1  0  0  0  0
  8  9  1  0  0  0  0
M  END
>  <CHROM.1>
35.67450511,60.20488134,175.94387822,179.63258090,-69.95281570,28.81595210
15.35921153,20.13628714,2.50934090,-0.45557946,-1.65011006

>  <Name>
ligand

>  <RI>
0

>  <Rbt.Current_Directory>
/home/itssahil/PROJECTS/Mol_Feturizer/New_Systems/rnas/3DIM

>  <Rbt.Executable>
rbdock ($Id: //depot/dev/client3/rdock/2013.1/src/exe/rbdock.cxx#4 $)

>  <Rbt.Library>
libRbt.so (2013.1, Build901 2013/11/27)

>  <Rbt.Parameter_File>
/export/apps/rDock/src/rDock_2013.1_src/data/scripts/dock_solv.prm

>  <Rbt.Receptor>
prm/pocket_docking_6.prm

>  <SCORE>
-9.29868

>  <SCORE.INTER>
-7.43197

>  <SCORE.INTER.CONST>
1

>  <SCORE.INTER.POLAR>
0

>  <SCORE.INTER.ROT>
5

>  <SCORE.INTER.SOLV>
17.6439

>  <SCORE.INTER.VDW>
-17.7693

>  <SCORE.INTER.norm>
-0.743197

>  <SCORE.INTRA>
-1.8667

>  <SCORE.INTRA.DIHEDRAL>
-4.01847

>  <SCORE.INTRA.DIHEDRAL.0>
5.8785

>  <SCORE.INTRA.POLAR>
0

>  <SCORE.INTRA.POLAR.0>
0

>  <SCORE.INTRA.REPUL>
0

>  <SCORE.INTRA.REPUL.0>
0

>  <SCORE.INTRA.SOLV>
-0.187372

>  <SCORE.INTRA.SOLV.lig_0>
-31.9559

>  <SCORE.INTRA.VDW>
0.236217

>  <SCORE.INTRA.VDW.0>
-0.507645

>  <SCORE.INTRA.norm>
-0.18667

>  <SCORE.RESTR>
0

>  <SCORE.RESTR.CAVITY>
0

>  <SCORE.RESTR.norm>
0

>  <SCORE.SYSTEM>
0

>  <SCORE.SYSTEM.CONST>
0

>  <SCORE.SYSTEM.DIHEDRAL>
0

>  <SCORE.SYSTEM.SOLV>
0

>  <SCORE.SYSTEM.norm>
0

>  <SCORE.heavy>
10

>  <SCORE.norm>
-0.929868

>  <RMSD>
5.509

$$$$
ligand
 OpenBabel11021811473D
libRbt.so/2013.1/901 2013/11/27
 10  9  0  0  0  0  0  0  0  0999 V2000
   26.0067   14.8036   20.9333 N   0  0  0  0  0  0  0  0  0  0  0  0
   27.1914   15.5380   20.4161 C   0  0  2  0  0  0  0  0  0  0  0  0
   27.6645   14.9629   19.0807 C   0  0  0  0  0  0  0  0  0  0  0  0
   28.3186   15.6417   18.2951 O   0  0  0  0  0  0  0  0  0  0  0  0
   28.3076   15.5545   21.4666 C   0  0  0  0  0  0  0  0  0  0  0  0
   29.4764   16.4547   21.0793 C   0  0  0  0  0  0  0  0  0  0  0  0
   30.5939   16.4502   22.1131 C   0  0  0  0  0  0  0  0  0  0  0  0
   31.7480   17.3534   21.6766 C   0  0  0  0  0  0  0  0  0  0  0  0
   32.8763   17.4482   22.6814 N   0  0  0  0  0  0  0  0  0  0  0  0
   27.4577   13.8035   18.7414 O   0  0  0  0  0  0  0  0  0  0  0  0
  2  1  1  1  0  0  0
  2  3  1  0  0  0  0
  2  5  1  0  0  0  0
  3  4  1  0  0  0  0
  3 10  1  0  0  0  0
  5  6  1  0  0  0  0
  6  7  1  0  0  0  0
  7  8  1  0  0  0  0
  8  9  1  0  0  0  0
M  END
>  <CHROM.1>
156.70362283,-171.98399732,-179.00610286,179.41211547,177.56372606,28.96512742
15.78467596,20.61253191,2.57783723,-0.36852957,-1.78101351

>  <Name>
ligand

>  <RI>
0

>  <Rbt.Current_Directory>
/home/itssahil/PROJECTS/Mol_Feturizer/New_Systems/rnas/3DIM

>  <Rbt.Executable>
rbdock ($Id: //depot/dev/client3/rdock/2013.1/src/exe/rbdock.cxx#4 $)

>  <Rbt.Library>
libRbt.so (2013.1, Build901 2013/11/27)

>  <Rbt.Parameter_File>
/export/apps/rDock/src/rDock_2013.1_src/data/scripts/dock_solv.prm

>  <Rbt.Receptor>
prm/pocket_docking_7.prm

>  <SCORE>
-10.6571

>  <SCORE.INTER>
-7.30662

>  <SCORE.INTER.CONST>
1

>  <SCORE.INTER.POLAR>
0

>  <SCORE.INTER.ROT>
5

>  <SCORE.INTER.SOLV>
18.0522

>  <SCORE.INTER.VDW>
-17.8218

>  <SCORE.INTER.norm>
-0.730662

>  <SCORE.INTRA>
-3.35048

>  <SCORE.INTRA.DIHEDRAL>
-4.19355

>  <SCORE.INTRA.DIHEDRAL.0>
5.8785

>  <SCORE.INTRA.POLAR>
0

>  <SCORE.INTRA.POLAR.0>
0

>  <SCORE.INTRA.REPUL>
0

>  <SCORE.INTRA.REPUL.0>
0

>  <SCORE.INTRA.SOLV>
-1.87005

>  <SCORE.INTRA.SOLV.lig_0>
-31.9559

>  <SCORE.INTRA.VDW>
-0.318687

>  <SCORE.INTRA.VDW.0>
-0.507645

>  <SCORE.INTRA.norm>
-0.335048

>  <SCORE.RESTR>
0

>  <SCORE.RESTR.CAVITY>
0

>  <SCORE.RESTR.norm>
0

>  <SCORE.SYSTEM>
0

>  <SCORE.SYSTEM.CONST>
0

>  <SCORE.SYSTEM.DIHEDRAL>
0

>  <SCORE.SYSTEM.SOLV>
0

>  <SCORE.SYSTEM.norm>
0

>  <SCORE.heavy>
10

>  <SCORE.norm>
-1.06571

>  <RMSD>
5.509

$$$$
ligand
 OpenBabel11021811473D
libRbt.so/2013.1/901 2013/11/27
 10  9  0  0  0  0  0  0  0  0999 V2000
   25.9889   14.8190   20.9453 N   0  0  0  0  0  0  0  0  0  0  0  0
   27.1750   15.5581   20.4382 C   0  0  2  0  0  0  0  0  0  0  0  0
   27.6499   14.9975   19.0972 C   0  0  0  0  0  0  0  0  0  0  0  0
   28.2974   15.6875   18.3160 O   0  0  0  0  0  0  0  0  0  0  0  0
   28.2895   15.5619   21.4906 C   0  0  0  0  0  0  0  0  0  0  0  0
   29.4679   16.4511   21.1067 C   0  0  0  0  0  0  0  0  0  0  0  0
   30.5746   16.4498   22.1520 C   0  0  0  0  0  0  0  0  0  0  0  0
   31.7231   17.3694   21.7354 C   0  0  0  0  0  0  0  0  0  0  0  0
   32.8766   17.4049   22.7151 N   0  0  0  0  0  0  0  0  0  0  0  0
   27.4511   13.8393   18.7489 O   0  0  0  0  0  0  0  0  0  0  0  0
  2  1  1  1  0  0  0
  2  3  1  0  0  0  0
  2  5  1  0  0  0  0
  3  4  1  0  0  0  0
  3 10  1  0  0  0  0
  5  6  1  0  0  0  0
  6  7  1  0  0  0  0
  7  8  1  0  0  0  0
  8  9  1  0  0  0  0
M  END
>  <CHROM.1>
156.15903650,-172.74278071,-179.84159943,-179.14016609,-179.03804136,28.95042960
15.79787214,20.63855454,2.57820762,-0.36578539,-1.76913226

>  <Name>
ligand

>  <RI>
0

>  <Rbt.Current_Directory>
/home/itssahil/PROJECTS/Mol_Feturizer/New_Systems/rnas/3DIM

>  <Rbt.Executable>
rbdock ($Id: //depot/dev/client3/rdock/2013.1/src/exe/rbdock.cxx#4 $)

>  <Rbt.Library>
libRbt.so (2013.1, Build901 2013/11/27)

>  <Rbt.Parameter_File>
/export/apps/rDock/src/rDock_2013.1_src/data/scripts/dock_solv.prm

>  <Rbt.Receptor>
prm/pocket_docking_8.prm

>  <SCORE>
-10.5849

>  <SCORE.INTER>
-7.23018

>  <SCORE.INTER.CONST>
1

>  <SCORE.INTER.POLAR>
0

>  <SCORE.INTER.ROT>
5

>  <SCORE.INTER.SOLV>
18.222

>  <SCORE.INTER.VDW>
-17.8274

>  <SCORE.INTER.norm>
-0.723018

>  <SCORE.INTRA>
-3.35475

>  <SCORE.INTRA.DIHEDRAL>
-4.25824

>  <SCORE.INTRA.DIHEDRAL.0>
5.8785

>  <SCORE.INTRA.POLAR>
0

>  <SCORE.INTRA.POLAR.0>
0

>  <SCORE.INTRA.REPUL>
0

>  <SCORE.INTRA.REPUL.0>
0

>  <SCORE.INTRA.SOLV>
-1.87143

>  <SCORE.INTRA.SOLV.lig_0>
-31.9559

>  <SCORE.INTRA.VDW>
-0.289913

>  <SCORE.INTRA.VDW.0>
-0.507645

>  <SCORE.INTRA.norm>
-0.335475

>  <SCORE.RESTR>
0

>  <SCORE.RESTR.CAVITY>
0

>  <SCORE.RESTR.norm>
0

>  <SCORE.SYSTEM>
0

>  <SCORE.SYSTEM.CONST>
0

>  <SCORE.SYSTEM.DIHEDRAL>
0

>  <SCORE.SYSTEM.SOLV>
0

>  <SCORE.SYSTEM.norm>
0

>  <SCORE.heavy>
10

>  <SCORE.norm>
-1.05849

>  <RMSD>
5.509

$$$$
ligand
 OpenBabel11021811473D
libRbt.so/2013.1/901 2013/11/27
 10  9  0  0  0  0  0  0  0  0999 V2000
   28.2861   15.4038   19.1656 N   0  0  0  0  0  0  0  0  0  0  0  0
   28.3196   14.9521   20.5816 C   0  0  2  0  0  0  0  0  0  0  0  0
   26.9168   14.9164   21.1888 C   0  0  0  0  0  0  0  0  0  0  0  0
   26.7480   14.6694   22.3789 O   0  0  0  0  0  0  0  0  0  0  0  0
   29.2803   15.8257   21.3963 C   0  0  0  0  0  0  0  0  0  0  0  0
   30.7185   15.7585   20.8926 C   0  0  0  0  0  0  0  0  0  0  0  0
   31.6652   16.6474   21.6871 C   0  0  0  0  0  0  0  0  0  0  0  0
   33.0726   16.6211   21.0898 C   0  0  0  0  0  0  0  0  0  0  0  0
   34.0741   17.4887   21.8220 N   0  0  0  0  0  0  0  0  0  0  0  0
   25.9037   15.1668   20.5461 O   0  0  0  0  0  0  0  0  0  0  0  0
  2  1  1  6  0  0  0
  2  3  1  0  0  0  0
  2  5  1  0  0  0  0
  3  4  1  0  0  0  0
  3 10  1  0  0  0  0
  5  6  1  0  0  0  0
  6  7  1  0  0  0  0
  7  8  1  0  0  0  0
  8  9  1  0  0  0  0
M  END
>  <CHROM.1>
-174.27040783,-61.24469381,178.91175534,-176.16946170,179.70399423,29.45460051
15.73917279,21.08776747,-3.06766694,0.30007818,1.57576304

>  <Name>
ligand

>  <RI>
0

>  <Rbt.Current_Directory>
/home/itssahil/PROJECTS/Mol_Feturizer/New_Systems/rnas/3DIM

>  <Rbt.Executable>
rbdock ($Id: //depot/dev/client3/rdock/2013.1/src/exe/rbdock.cxx#4 $)

>  <Rbt.Library>
libRbt.so (2013.1, Build901 2013/11/27)

>  <Rbt.Parameter_File>
/export/apps/rDock/src/rDock_2013.1_src/data/scripts/dock_solv.prm

>  <Rbt.Receptor>
prm/pocket_docking_3.prm

>  <SCORE>
-10.9246

>  <SCORE.INTER>
-8.24753

>  <SCORE.INTER.CONST>
1

>  <SCORE.INTER.POLAR>
0

>  <SCORE.INTER.ROT>
5

>  <SCORE.INTER.SOLV>
13.8779

>  <SCORE.INTER.VDW>
-17.0576

>  <SCORE.INTER.norm>
-0.824753

>  <SCORE.INTRA>
-2.67704

>  <SCORE.INTRA.DIHEDRAL>
-4.28031

>  <SCORE.INTRA.DIHEDRAL.0>
5.8785

>  <SCORE.INTRA.POLAR>
0

>  <SCORE.INTRA.POLAR.0>
0

>  <SCORE.INTRA.REPUL>
0

>  <SCORE.INTRA.REPUL.0>
0

>  <SCORE.INTRA.SOLV>
-0.952802

>  <SCORE.INTRA.SOLV.lig_0>
-31.9559

>  <SCORE.INTRA.VDW>
-0.0604794

>  <SCORE.INTRA.VDW.0>
-0.507645

>  <SCORE.INTRA.norm>
-0.267704

>  <SCORE.RESTR>
0

>  <SCORE.RESTR.CAVITY>
0

>  <SCORE.RESTR.norm>
0

>  <SCORE.SYSTEM>
0

>  <SCORE.SYSTEM.CONST>
0

>  <SCORE.SYSTEM.DIHEDRAL>
0

>  <SCORE.SYSTEM.SOLV>
0

>  <SCORE.SYSTEM.norm>
0

>  <SCORE.heavy>
10

>  <SCORE.norm>
-1.09246

>  <RMSD>
5.514

$$$$
ligand
 OpenBabel11021811473D
libRbt.so/2013.1/901 2013/11/27
 10  9  0  0  0  0  0  0  0  0999 V2000
   26.0926   14.5525   20.9681 N   0  0  0  0  0  0  0  0  0  0  0  0
   27.0369   15.3725   20.1642 C   0  0  2  0  0  0  0  0  0  0  0  0
   27.4463   14.6521   18.8792 C   0  0  0  0  0  0  0  0  0  0  0  0
   28.0726   15.2341   17.9990 O   0  0  0  0  0  0  0  0  0  0  0  0
   28.2485   15.7741   21.0131 C   0  0  0  0  0  0  0  0  0  0  0  0
   29.0992   16.8590   20.3606 C   0  0  0  0  0  0  0  0  0  0  0  0
   30.3563   17.1826   21.1559 C   0  0  0  0  0  0  0  0  0  0  0  0
   31.4027   16.0785   21.0002 C   0  0  0  0  0  0  0  0  0  0  0  0
   32.7244   16.3760   21.6759 N   0  0  0  0  0  0  0  0  0  0  0  0
   27.2137   13.4662   18.6746 O   0  0  0  0  0  0  0  0  0  0  0  0
  2  1  1  1  0  0  0
  2  3  1  0  0  0  0
  2  5  1  0  0  0  0
  3  4  1  0  0  0  0
  3 10  1  0  0  0  0
  5  6  1  0  0  0  0
  6  7  1  0  0  0  0
  7  8  1  0  0  0  0
  8  9  1  0  0  0  0
M  END
>  <CHROM.1>
169.99581879,-167.32495647,-175.74393392,74.66604168,175.54566978,28.76892317
15.53529319,20.15586668,2.61674686,-0.23228661,-2.00791897

>  <Name>
ligand

>  <RI>
0

>  <Rbt.Current_Directory>
/home/itssahil/PROJECTS/Mol_Feturizer/New_Systems/rnas/3DIM

>  <Rbt.Executable>
rbdock ($Id: //depot/dev/client3/rdock/2013.1/src/exe/rbdock.cxx#4 $)

>  <Rbt.Library>
libRbt.so (2013.1, Build901 2013/11/27)

>  <Rbt.Parameter_File>
/export/apps/rDock/src/rDock_2013.1_src/data/scripts/dock_solv.prm

>  <Rbt.Receptor>
prm/pocket_docking_7.prm

>  <SCORE>
-10.0531

>  <SCORE.INTER>
-7.86247

>  <SCORE.INTER.CONST>
1

>  <SCORE.INTER.POLAR>
0

>  <SCORE.INTER.ROT>
5

>  <SCORE.INTER.SOLV>
18.0478

>  <SCORE.INTER.VDW>
-18.1909

>  <SCORE.INTER.norm>
-0.786247

>  <SCORE.INTRA>
-2.19063

>  <SCORE.INTRA.DIHEDRAL>
-2.82909

>  <SCORE.INTRA.DIHEDRAL.0>
5.8785

>  <SCORE.INTRA.POLAR>
0

>  <SCORE.INTRA.POLAR.0>
0

>  <SCORE.INTRA.REPUL>
0

>  <SCORE.INTRA.REPUL.0>
0

>  <SCORE.INTRA.SOLV>
-1.73078

>  <SCORE.INTRA.SOLV.lig_0>
-31.9559

>  <SCORE.INTRA.VDW>
0.0893016

>  <SCORE.INTRA.VDW.0>
-0.507645

>  <SCORE.INTRA.norm>
-0.219063

>  <SCORE.RESTR>
0

>  <SCORE.RESTR.CAVITY>
0

>  <SCORE.RESTR.norm>
0

>  <SCORE.SYSTEM>
0

>  <SCORE.SYSTEM.CONST>
0

>  <SCORE.SYSTEM.DIHEDRAL>
0

>  <SCORE.SYSTEM.SOLV>
0

>  <SCORE.SYSTEM.norm>
0

>  <SCORE.heavy>
10

>  <SCORE.norm>
-1.00531

>  <RMSD>
5.514

$$$$
ligand
 OpenBabel11021811473D
libRbt.so/2013.1/901 2013/11/27
 10  9  0  0  0  0  0  0  0  0999 V2000
   25.9813   14.8061   20.9349 N   0  0  0  0  0  0  0  0  0  0  0  0
   27.1706   15.5453   20.4355 C   0  0  2  0  0  0  0  0  0  0  0  0
   27.6297   15.0111   19.0784 C   0  0  0  0  0  0  0  0  0  0  0  0
   27.2892   13.8989   18.6876 O   0  0  0  0  0  0  0  0  0  0  0  0
   28.2932   15.5144   21.4789 C   0  0  0  0  0  0  0  0  0  0  0  0
   29.4694   16.4147   21.1148 C   0  0  0  0  0  0  0  0  0  0  0  0
   30.5967   16.3564   22.1362 C   0  0  0  0  0  0  0  0  0  0  0  0
   31.7823   17.2146   21.6935 C   0  0  0  0  0  0  0  0  0  0  0  0
   32.9369   17.2307   22.6725 N   0  0  0  0  0  0  0  0  0  0  0  0
   28.3163   15.6637   18.3007 O   0  0  0  0  0  0  0  0  0  0  0  0
  2  1  1  1  0  0  0
  2  3  1  0  0  0  0
  2  5  1  0  0  0  0
  3  4  1  0  0  0  0
  3 10  1  0  0  0  0
  5  6  1  0  0  0  0
  6  7  1  0  0  0  0
  7  8  1  0  0  0  0
  8  9  1  0  0  0  0
M  END
>  <CHROM.1>
-19.06489113,-172.00338786,-178.62830148,176.97200424,178.85370106,28.94594089
15.75034182,20.61666983,2.59673581,-0.34881644,-1.74042611

>  <Name>
ligand

>  <RI>
0

>  <Rbt.Current_Directory>
/home/itssahil/PROJECTS/Mol_Feturizer/New_Systems/rnas/3DIM

>  <Rbt.Executable>
rbdock ($Id: //depot/dev/client3/rdock/2013.1/src/exe/rbdock.cxx#4 $)

>  <Rbt.Library>
libRbt.so (2013.1, Build901 2013/11/27)

>  <Rbt.Parameter_File>
/export/apps/rDock/src/rDock_2013.1_src/data/scripts/dock_solv.prm

>  <Rbt.Receptor>
prm/pocket_docking_5.prm

>  <SCORE>
-10.4346

>  <SCORE.INTER>
-7.21695

>  <SCORE.INTER.CONST>
1

>  <SCORE.INTER.POLAR>
0

>  <SCORE.INTER.ROT>
5

>  <SCORE.INTER.SOLV>
18.5254

>  <SCORE.INTER.VDW>
-17.9198

>  <SCORE.INTER.norm>
-0.721695

>  <SCORE.INTRA>
-3.21767

>  <SCORE.INTRA.DIHEDRAL>
-4.01791

>  <SCORE.INTRA.DIHEDRAL.0>
5.8785

>  <SCORE.INTRA.POLAR>
0

>  <SCORE.INTRA.POLAR.0>
0

>  <SCORE.INTRA.REPUL>
0

>  <SCORE.INTRA.REPUL.0>
0

>  <SCORE.INTRA.SOLV>
-1.84631

>  <SCORE.INTRA.SOLV.lig_0>
-31.9559

>  <SCORE.INTRA.VDW>
-0.285558

>  <SCORE.INTRA.VDW.0>
-0.507645

>  <SCORE.INTRA.norm>
-0.321767

>  <SCORE.RESTR>
0

>  <SCORE.RESTR.CAVITY>
0

>  <SCORE.RESTR.norm>
0

>  <SCORE.SYSTEM>
0

>  <SCORE.SYSTEM.CONST>
0

>  <SCORE.SYSTEM.DIHEDRAL>
0

>  <SCORE.SYSTEM.SOLV>
0

>  <SCORE.SYSTEM.norm>
0

>  <SCORE.heavy>
10

>  <SCORE.norm>
-1.04346

>  <RMSD>
5.518

$$$$
ligand
 OpenBabel11021811473D
libRbt.so/2013.1/901 2013/11/27
 10  9  0  0  0  0  0  0  0  0999 V2000
   25.9656   14.8106   20.8969 N   0  0  0  0  0  0  0  0  0  0  0  0
   27.1543   15.5461   20.3908 C   0  0  2  0  0  0  0  0  0  0  0  0
   27.6368   14.9754   19.0568 C   0  0  0  0  0  0  0  0  0  0  0  0
   27.3908   13.8163   18.7380 O   0  0  0  0  0  0  0  0  0  0  0  0
   28.2630   15.5583   21.4493 C   0  0  0  0  0  0  0  0  0  0  0  0
   29.4677   16.3996   21.0401 C   0  0  0  0  0  0  0  0  0  0  0  0
   30.5815   16.3811   22.0776 C   0  0  0  0  0  0  0  0  0  0  0  0
   31.7924   17.1813   21.5962 C   0  0  0  0  0  0  0  0  0  0  0  0
   32.9364   17.2321   22.5863 N   0  0  0  0  0  0  0  0  0  0  0  0
   28.2490   15.6391   18.2281 O   0  0  0  0  0  0  0  0  0  0  0  0
  2  1  1  1  0  0  0
  2  3  1  0  0  0  0
  2  5  1  0  0  0  0
  3  4  1  0  0  0  0
  3 10  1  0  0  0  0
  5  6  1  0  0  0  0
  6  7  1  0  0  0  0
  7  8  1  0  0  0  0
  8  9  1  0  0  0  0
M  END
>  <CHROM.1>
-24.23397504,-175.07762723,-178.53759068,177.28769863,178.92714457,28.94364067
15.73782723,20.57000926,2.59831493,-0.34034523,-1.76513226

>  <Name>
ligand

>  <RI>
0

>  <Rbt.Current_Directory>
/home/itssahil/PROJECTS/Mol_Feturizer/New_Systems/rnas/3DIM

>  <Rbt.Executable>
rbdock ($Id: //depot/dev/client3/rdock/2013.1/src/exe/rbdock.cxx#4 $)

>  <Rbt.Library>
libRbt.so (2013.1, Build901 2013/11/27)

>  <Rbt.Parameter_File>
/export/apps/rDock/src/rDock_2013.1_src/data/scripts/dock_solv.prm

>  <Rbt.Receptor>
prm/pocket_docking_3.prm

>  <SCORE>
-10.4781

>  <SCORE.INTER>
-7.19827

>  <SCORE.INTER.CONST>
1

>  <SCORE.INTER.POLAR>
0

>  <SCORE.INTER.ROT>
5

>  <SCORE.INTER.SOLV>
18.4199

>  <SCORE.INTER.VDW>
-17.8721

>  <SCORE.INTER.norm>
-0.719827

>  <SCORE.INTRA>
-3.27981

>  <SCORE.INTRA.DIHEDRAL>
-4.16411

>  <SCORE.INTRA.DIHEDRAL.0>
5.8785

>  <SCORE.INTRA.POLAR>
0

>  <SCORE.INTRA.POLAR.0>
0

>  <SCORE.INTRA.REPUL>
0

>  <SCORE.INTRA.REPUL.0>
0

>  <SCORE.INTRA.SOLV>
-1.85027

>  <SCORE.INTRA.SOLV.lig_0>
-31.9559

>  <SCORE.INTRA.VDW>
-0.272619

>  <SCORE.INTRA.VDW.0>
-0.507645

>  <SCORE.INTRA.norm>
-0.327981

>  <SCORE.RESTR>
0

>  <SCORE.RESTR.CAVITY>
0

>  <SCORE.RESTR.norm>
0

>  <SCORE.SYSTEM>
0

>  <SCORE.SYSTEM.CONST>
0

>  <SCORE.SYSTEM.DIHEDRAL>
0

>  <SCORE.SYSTEM.SOLV>
0

>  <SCORE.SYSTEM.norm>
0

>  <SCORE.heavy>
10

>  <SCORE.norm>
-1.04781

>  <RMSD>
5.519

$$$$
ligand
 OpenBabel11021811473D
libRbt.so/2013.1/901 2013/11/27
 10  9  0  0  0  0  0  0  0  0999 V2000
   25.9770   14.7947   20.8922 N   0  0  0  0  0  0  0  0  0  0  0  0
   27.1693   15.5224   20.3830 C   0  0  2  0  0  0  0  0  0  0  0  0
   27.6633   14.9286   19.0634 C   0  0  0  0  0  0  0  0  0  0  0  0
   27.4210   13.7638   18.7631 O   0  0  0  0  0  0  0  0  0  0  0  0
   28.2692   15.5544   21.4503 C   0  0  0  0  0  0  0  0  0  0  0  0
   29.4671   16.4074   21.0452 C   0  0  0  0  0  0  0  0  0  0  0  0
   30.5410   16.4677   22.1225 C   0  0  0  0  0  0  0  0  0  0  0  0
   31.7350   17.3036   21.6599 C   0  0  0  0  0  0  0  0  0  0  0  0
   32.8334   17.4417   22.6924 N   0  0  0  0  0  0  0  0  0  0  0  0
   28.2818   15.5782   18.2282 O   0  0  0  0  0  0  0  0  0  0  0  0
  2  1  1  1  0  0  0
  2  3  1  0  0  0  0
  2  5  1  0  0  0  0
  3  4  1  0  0  0  0
  3 10  1  0  0  0  0
  5  6  1  0  0  0  0
  6  7  1  0  0  0  0
  7  8  1  0  0  0  0
  8  9  1  0  0  0  0
M  END
>  <CHROM.1>
-24.23360100,-174.17989232,178.45138487,178.60925854,178.49092863,28.93614590
15.75916666,20.59415599,2.56929364,-0.36500560,-1.78950247

>  <Name>
ligand

>  <RI>
0

>  <Rbt.Current_Directory>
/home/itssahil/PROJECTS/Mol_Feturizer/New_Systems/rnas/3DIM

>  <Rbt.Executable>
rbdock ($Id: //depot/dev/client3/rdock/2013.1/src/exe/rbdock.cxx#4 $)

>  <Rbt.Library>
libRbt.so (2013.1, Build901 2013/11/27)

>  <Rbt.Parameter_File>
/export/apps/rDock/src/rDock_2013.1_src/data/scripts/dock_solv.prm

>  <Rbt.Receptor>
prm/pocket_docking_5.prm

>  <SCORE>
-10.5347

>  <SCORE.INTER>
-7.26697

>  <SCORE.INTER.CONST>
1

>  <SCORE.INTER.POLAR>
0

>  <SCORE.INTER.ROT>
5

>  <SCORE.INTER.SOLV>
17.997

>  <SCORE.INTER.VDW>
-17.777

>  <SCORE.INTER.norm>
-0.726697

>  <SCORE.INTRA>
-3.26773

>  <SCORE.INTRA.DIHEDRAL>
-4.14599

>  <SCORE.INTRA.DIHEDRAL.0>
5.8785

>  <SCORE.INTRA.POLAR>
0

>  <SCORE.INTRA.POLAR.0>
0

>  <SCORE.INTRA.REPUL>
0

>  <SCORE.INTRA.REPUL.0>
0

>  <SCORE.INTRA.SOLV>
-1.84951

>  <SCORE.INTRA.SOLV.lig_0>
-31.9559

>  <SCORE.INTRA.VDW>
-0.269979

>  <SCORE.INTRA.VDW.0>
-0.507645

>  <SCORE.INTRA.norm>
-0.326773

>  <SCORE.RESTR>
0

>  <SCORE.RESTR.CAVITY>
0

>  <SCORE.RESTR.norm>
0

>  <SCORE.SYSTEM>
0

>  <SCORE.SYSTEM.CONST>
0

>  <SCORE.SYSTEM.DIHEDRAL>
0

>  <SCORE.SYSTEM.SOLV>
0

>  <SCORE.SYSTEM.norm>
0

>  <SCORE.heavy>
10

>  <SCORE.norm>
-1.05347

>  <RMSD>
5.523

$$$$
ligand
 OpenBabel11021811473D
libRbt.so/2013.1/901 2013/11/27
 10  9  0  0  0  0  0  0  0  0999 V2000
   25.9454   14.7718   20.9318 N   0  0  0  0  0  0  0  0  0  0  0  0
   27.1364   15.4953   20.4137 C   0  0  2  0  0  0  0  0  0  0  0  0
   27.6130   14.9055   19.0860 C   0  0  0  0  0  0  0  0  0  0  0  0
   28.2619   15.5782   18.2909 O   0  0  0  0  0  0  0  0  0  0  0  0
   28.2476   15.5155   21.4695 C   0  0  0  0  0  0  0  0  0  0  0  0
   29.4392   16.3767   21.0633 C   0  0  0  0  0  0  0  0  0  0  0  0
   30.5513   16.3752   22.1029 C   0  0  0  0  0  0  0  0  0  0  0  0
   31.7070   17.2784   21.6705 C   0  0  0  0  0  0  0  0  0  0  0  0
   32.8589   17.3253   22.6516 N   0  0  0  0  0  0  0  0  0  0  0  0
   27.4144   13.7401   18.7626 O   0  0  0  0  0  0  0  0  0  0  0  0
  2  1  1  1  0  0  0
  2  3  1  0  0  0  0
  2  5  1  0  0  0  0
  3  4  1  0  0  0  0
  3 10  1  0  0  0  0
  5  6  1  0  0  0  0
  6  7  1  0  0  0  0
  7  8  1  0  0  0  0
  8  9  1  0  0  0  0
M  END
>  <CHROM.1>
155.88831480,-173.50897926,-178.99316555,-178.53969888,-179.71820467,28.91853479
15.71958800,20.60864567,2.58164181,-0.35519742,-1.78773369

>  <Name>
ligand

>  <RI>
0

>  <Rbt.Current_Directory>
/home/itssahil/PROJECTS/Mol_Feturizer/New_Systems/rnas/3DIM

>  <Rbt.Executable>
rbdock ($Id: //depot/dev/client3/rdock/2013.1/src/exe/rbdock.cxx#4 $)

>  <Rbt.Library>
libRbt.so (2013.1, Build901 2013/11/27)

>  <Rbt.Parameter_File>
/export/apps/rDock/src/rDock_2013.1_src/data/scripts/dock_solv.prm

>  <Rbt.Receptor>
prm/pocket_docking_5.prm

>  <SCORE>
-10.5587

>  <SCORE.INTER>
-7.18185

>  <SCORE.INTER.CONST>
1

>  <SCORE.INTER.POLAR>
0

>  <SCORE.INTER.ROT>
5

>  <SCORE.INTER.SOLV>
18.321

>  <SCORE.INTER.VDW>
-17.8282

>  <SCORE.INTER.norm>
-0.718185

>  <SCORE.INTRA>
-3.37686

>  <SCORE.INTRA.DIHEDRAL>
-4.29064

>  <SCORE.INTRA.DIHEDRAL.0>
5.8785

>  <SCORE.INTRA.POLAR>
0

>  <SCORE.INTRA.POLAR.0>
0

>  <SCORE.INTRA.REPUL>
0

>  <SCORE.INTRA.REPUL.0>
0

>  <SCORE.INTRA.SOLV>
-1.87234

>  <SCORE.INTRA.SOLV.lig_0>
-31.9559

>  <SCORE.INTRA.VDW>
-0.295365

>  <SCORE.INTRA.VDW.0>
-0.507645

>  <SCORE.INTRA.norm>
-0.337686

>  <SCORE.RESTR>
0

>  <SCORE.RESTR.CAVITY>
0

>  <SCORE.RESTR.norm>
0

>  <SCORE.SYSTEM>
0

>  <SCORE.SYSTEM.CONST>
0

>  <SCORE.SYSTEM.DIHEDRAL>
0

>  <SCORE.SYSTEM.SOLV>
0

>  <SCORE.SYSTEM.norm>
0

>  <SCORE.heavy>
10

>  <SCORE.norm>
-1.05587

>  <RMSD>
5.525

$$$$
ligand
 OpenBabel11021811473D
libRbt.so/2013.1/901 2013/11/27
 10  9  0  0  0  0  0  0  0  0999 V2000
   25.9666   14.7117   20.9805 N   0  0  0  0  0  0  0  0  0  0  0  0
   27.1346   15.4812   20.4768 C   0  0  2  0  0  0  0  0  0  0  0  0
   27.6056   14.9556   19.1204 C   0  0  0  0  0  0  0  0  0  0  0  0
   27.2932   13.8341   18.7327 O   0  0  0  0  0  0  0  0  0  0  0  0
   28.2595   15.4836   21.5182 C   0  0  0  0  0  0  0  0  0  0  0  0
   29.4167   16.4035   21.1425 C   0  0  0  0  0  0  0  0  0  0  0  0
   30.5558   16.3629   22.1516 C   0  0  0  0  0  0  0  0  0  0  0  0
   31.6802   17.3173   21.7477 C   0  0  0  0  0  0  0  0  0  0  0  0
   32.8549   17.3321   22.7025 N   0  0  0  0  0  0  0  0  0  0  0  0
   28.2742   15.6238   18.3402 O   0  0  0  0  0  0  0  0  0  0  0  0
  2  1  1  1  0  0  0
  2  3  1  0  0  0  0
  2  5  1  0  0  0  0
  3  4  1  0  0  0  0
  3 10  1  0  0  0  0
  5  6  1  0  0  0  0
  6  7  1  0  0  0  0
  7  8  1  0  0  0  0
  8  9  1  0  0  0  0
M  END
>  <CHROM.1>
-18.98004328,-172.58712031,-177.78119158,-178.98633206,-179.87096346,28.90384070
15.73522139,20.65471985,2.59337352,-0.37847824,-1.74221922

>  <Name>
ligand

>  <RI>
0

>  <Rbt.Current_Directory>
/home/itssahil/PROJECTS/Mol_Feturizer/New_Systems/rnas/3DIM

>  <Rbt.Executable>
rbdock ($Id: //depot/dev/client3/rdock/2013.1/src/exe/rbdock.cxx#4 $)

>  <Rbt.Library>
libRbt.so (2013.1, Build901 2013/11/27)

>  <Rbt.Parameter_File>
/export/apps/rDock/src/rDock_2013.1_src/data/scripts/dock_solv.prm

>  <Rbt.Receptor>
prm/pocket_docking_6.prm

>  <SCORE>
-10.443

>  <SCORE.INTER>
-7.20816

>  <SCORE.INTER.CONST>
1

>  <SCORE.INTER.POLAR>
0

>  <SCORE.INTER.ROT>
5

>  <SCORE.INTER.SOLV>
18.4557

>  <SCORE.INTER.VDW>
-17.8907

>  <SCORE.INTER.norm>
-0.720816

>  <SCORE.INTRA>
-3.23481

>  <SCORE.INTRA.DIHEDRAL>
-4.07755

>  <SCORE.INTRA.DIHEDRAL.0>
5.8785

>  <SCORE.INTRA.POLAR>
0

>  <SCORE.INTRA.POLAR.0>
0

>  <SCORE.INTRA.REPUL>
0

>  <SCORE.INTRA.REPUL.0>
0

>  <SCORE.INTRA.SOLV>
-1.84699

>  <SCORE.INTRA.SOLV.lig_0>
-31.9559

>  <SCORE.INTRA.VDW>
-0.272536

>  <SCORE.INTRA.VDW.0>
-0.507645

>  <SCORE.INTRA.norm>
-0.323481

>  <SCORE.RESTR>
0

>  <SCORE.RESTR.CAVITY>
0

>  <SCORE.RESTR.norm>
0

>  <SCORE.SYSTEM>
0

>  <SCORE.SYSTEM.CONST>
0

>  <SCORE.SYSTEM.DIHEDRAL>
0

>  <SCORE.SYSTEM.SOLV>
0

>  <SCORE.SYSTEM.norm>
0

>  <SCORE.heavy>
10

>  <SCORE.norm>
-1.0443

>  <RMSD>
5.528

$$$$
ligand
 OpenBabel11021811473D
libRbt.so/2013.1/901 2013/11/27
 10  9  0  0  0  0  0  0  0  0999 V2000
   25.9551   14.6328   21.0613 N   0  0  0  0  0  0  0  0  0  0  0  0
   27.1739   15.2527   20.4778 C   0  0  2  0  0  0  0  0  0  0  0  0
   27.7405   14.4039   19.3392 C   0  0  0  0  0  0  0  0  0  0  0  0
   27.1787   14.3497   18.2497 O   0  0  0  0  0  0  0  0  0  0  0  0
   28.2126   15.5180   21.5735 C   0  0  0  0  0  0  0  0  0  0  0  0
   29.4395   16.2663   21.0621 C   0  0  0  0  0  0  0  0  0  0  0  0
   30.4685   16.5292   22.1527 C   0  0  0  0  0  0  0  0  0  0  0  0
   31.7064   17.2228   21.5825 C   0  0  0  0  0  0  0  0  0  0  0  0
   32.7352   17.6108   22.6231 N   0  0  0  0  0  0  0  0  0  0  0  0
   28.7876   13.7738   19.4325 O   0  0  0  0  0  0  0  0  0  0  0  0
  2  1  1  1  0  0  0
  2  3  1  0  0  0  0
  2  5  1  0  0  0  0
  3  4  1  0  0  0  0
  3 10  1  0  0  0  0
  5  6  1  0  0  0  0
  6  7  1  0  0  0  0
  7  8  1  0  0  0  0
  8  9  1  0  0  0  0
M  END
>  <CHROM.1>
72.98250676,-174.92249711,179.95163626,177.39933238,175.73874211,28.94266931
15.53270437,20.72380898,2.49597296,-0.25459894,-2.07395085

>  <Name>
ligand

>  <RI>
0

>  <Rbt.Current_Directory>
/home/itssahil/PROJECTS/Mol_Feturizer/New_Systems/rnas/3DIM

>  <Rbt.Executable>
rbdock ($Id: //depot/dev/client3/rdock/2013.1/src/exe/rbdock.cxx#4 $)

>  <Rbt.Library>
libRbt.so (2013.1, Build901 2013/11/27)

>  <Rbt.Parameter_File>
/export/apps/rDock/src/rDock_2013.1_src/data/scripts/dock_solv.prm

>  <Rbt.Receptor>
prm/pocket_docking_8.prm

>  <SCORE>
-9.36677

>  <SCORE.INTER>
-6.54985

>  <SCORE.INTER.CONST>
1

>  <SCORE.INTER.POLAR>
0

>  <SCORE.INTER.ROT>
5

>  <SCORE.INTER.SOLV>
17.8634

>  <SCORE.INTER.VDW>
-17.2544

>  <SCORE.INTER.norm>
-0.654985

>  <SCORE.INTRA>
-2.81691

>  <SCORE.INTRA.DIHEDRAL>
-4.14114

>  <SCORE.INTRA.DIHEDRAL.0>
5.8785

>  <SCORE.INTRA.POLAR>
0

>  <SCORE.INTRA.POLAR.0>
0

>  <SCORE.INTRA.REPUL>
0

>  <SCORE.INTRA.REPUL.0>
0

>  <SCORE.INTRA.SOLV>
-1.88935

>  <SCORE.INTRA.SOLV.lig_0>
-31.9559

>  <SCORE.INTRA.VDW>
0.198328

>  <SCORE.INTRA.VDW.0>
-0.507645

>  <SCORE.INTRA.norm>
-0.281691

>  <SCORE.RESTR>
0

>  <SCORE.RESTR.CAVITY>
0

>  <SCORE.RESTR.norm>
0

>  <SCORE.SYSTEM>
0

>  <SCORE.SYSTEM.CONST>
0

>  <SCORE.SYSTEM.DIHEDRAL>
0

>  <SCORE.SYSTEM.SOLV>
0

>  <SCORE.SYSTEM.norm>
0

>  <SCORE.heavy>
10

>  <SCORE.norm>
-0.936677

>  <RMSD>
5.528

$$$$
ligand
 OpenBabel11021811473D
libRbt.so/2013.1/901 2013/11/27
 10  9  0  0  0  0  0  0  0  0999 V2000
   25.9548   14.7140   21.0101 N   0  0  0  0  0  0  0  0  0  0  0  0
   27.1267   15.4588   20.4790 C   0  0  2  0  0  0  0  0  0  0  0  0
   27.5885   14.8886   19.1375 C   0  0  0  0  0  0  0  0  0  0  0  0
   28.2438   15.5672   18.3529 O   0  0  0  0  0  0  0  0  0  0  0  0
   28.2555   15.4843   21.5158 C   0  0  0  0  0  0  0  0  0  0  0  0
   29.4175   16.3846   21.1088 C   0  0  0  0  0  0  0  0  0  0  0  0
   30.5473   16.3891   22.1291 C   0  0  0  0  0  0  0  0  0  0  0  0
   31.6941   17.2919   21.6731 C   0  0  0  0  0  0  0  0  0  0  0  0
   32.8391   17.3869   22.6588 N   0  0  0  0  0  0  0  0  0  0  0  0
   27.3708   13.7330   18.7920 O   0  0  0  0  0  0  0  0  0  0  0  0
  2  1  1  1  0  0  0
  2  3  1  0  0  0  0
  2  5  1  0  0  0  0
  3  4  1  0  0  0  0
  3 10  1  0  0  0  0
  5  6  1  0  0  0  0
  6  7  1  0  0  0  0
  7  8  1  0  0  0  0
  8  9  1  0  0  0  0
M  END
>  <CHROM.1>
157.78204742,-172.52602861,-179.01537996,179.41205414,178.03073044,28.90449872
15.71351702,20.64988825,2.59215666,-0.37470472,-1.77703451

>  <Name>
ligand

>  <RI>
0

>  <Rbt.Current_Directory>
/home/itssahil/PROJECTS/Mol_Feturizer/New_Systems/rnas/3DIM

>  <Rbt.Executable>
rbdock ($Id: //depot/dev/client3/rdock/2013.1/src/exe/rbdock.cxx#4 $)

>  <Rbt.Library>
libRbt.so (2013.1, Build901 2013/11/27)

>  <Rbt.Parameter_File>
/export/apps/rDock/src/rDock_2013.1_src/data/scripts/dock_solv.prm

>  <Rbt.Receptor>
prm/pocket_docking_8.prm

>  <SCORE>
-10.548

>  <SCORE.INTER>
-7.20183

>  <SCORE.INTER.CONST>
1

>  <SCORE.INTER.POLAR>
0

>  <SCORE.INTER.ROT>
5

>  <SCORE.INTER.SOLV>
18.3182

>  <SCORE.INTER.VDW>
-17.8406

>  <SCORE.INTER.norm>
-0.720183

>  <SCORE.INTRA>
-3.34619

>  <SCORE.INTRA.DIHEDRAL>
-4.2311

>  <SCORE.INTRA.DIHEDRAL.0>
5.8785

>  <SCORE.INTRA.POLAR>
0

>  <SCORE.INTRA.POLAR.0>
0

>  <SCORE.INTRA.REPUL>
0

>  <SCORE.INTRA.REPUL.0>
0

>  <SCORE.INTRA.SOLV>
-1.87024

>  <SCORE.INTRA.SOLV.lig_0>
-31.9559

>  <SCORE.INTRA.VDW>
-0.295523

>  <SCORE.INTRA.VDW.0>
-0.507645

>  <SCORE.INTRA.norm>
-0.334619

>  <SCORE.RESTR>
0

>  <SCORE.RESTR.CAVITY>
0

>  <SCORE.RESTR.norm>
0

>  <SCORE.SYSTEM>
0

>  <SCORE.SYSTEM.CONST>
0

>  <SCORE.SYSTEM.DIHEDRAL>
0

>  <SCORE.SYSTEM.SOLV>
0

>  <SCORE.SYSTEM.norm>
0

>  <SCORE.heavy>
10

>  <SCORE.norm>
-1.0548

>  <RMSD>
5.530

$$$$
ligand
 OpenBabel11021811473D
libRbt.so/2013.1/901 2013/11/27
 10  9  0  0  0  0  0  0  0  0999 V2000
   27.2601   14.4809   20.9113 N   0  0  0  0  0  0  0  0  0  0  0  0
   27.4728   15.4740   19.8256 C   0  0  2  0  0  0  0  0  0  0  0  0
   27.7672   14.7871   18.4916 C   0  0  0  0  0  0  0  0  0  0  0  0
   27.3536   13.6560   18.2569 O   0  0  0  0  0  0  0  0  0  0  0  0
   28.5725   16.4663   20.2201 C   0  0  0  0  0  0  0  0  0  0  0  0
   29.9233   15.7969   20.4520 C   0  0  0  0  0  0  0  0  0  0  0  0
   31.0146   16.7857   20.8377 C   0  0  0  0  0  0  0  0  0  0  0  0
   32.3890   16.1154   20.8308 C   0  0  0  0  0  0  0  0  0  0  0  0
   33.5300   17.0347   21.2112 N   0  0  0  0  0  0  0  0  0  0  0  0
   28.3853   15.3294   17.5827 O   0  0  0  0  0  0  0  0  0  0  0  0
  2  1  1  1  0  0  0
  2  3  1  0  0  0  0
  2  5  1  0  0  0  0
  3  4  1  0  0  0  0
  3 10  1  0  0  0  0
  5  6  1  0  0  0  0
  6  7  1  0  0  0  0
  7  8  1  0  0  0  0
  8  9  1  0  0  0  0
M  END
>  <CHROM.1>
26.70396901,61.42185166,179.75203364,-170.48622840,-179.73513674,29.36105670
15.57417299,19.82719545,2.67810241,-0.30295847,-1.79768494

>  <Name>
ligand

>  <RI>
0

>  <Rbt.Current_Directory>
/home/itssahil/PROJECTS/Mol_Feturizer/New_Systems/rnas/3DIM

>  <Rbt.Executable>
rbdock ($Id: //depot/dev/client3/rdock/2013.1/src/exe/rbdock.cxx#4 $)

>  <Rbt.Library>
libRbt.so (2013.1, Build901 2013/11/27)

>  <Rbt.Parameter_File>
/export/apps/rDock/src/rDock_2013.1_src/data/scripts/dock_solv.prm

>  <Rbt.Receptor>
prm/pocket_docking_3.prm

>  <SCORE>
-10.78

>  <SCORE.INTER>
-8.37828

>  <SCORE.INTER.CONST>
1

>  <SCORE.INTER.POLAR>
0

>  <SCORE.INTER.ROT>
5

>  <SCORE.INTER.SOLV>
15.7856

>  <SCORE.INTER.VDW>
-17.7807

>  <SCORE.INTER.norm>
-0.837828

>  <SCORE.INTRA>
-2.40174

>  <SCORE.INTRA.DIHEDRAL>
-4.07553

>  <SCORE.INTRA.DIHEDRAL.0>
5.8785

>  <SCORE.INTRA.POLAR>
0

>  <SCORE.INTRA.POLAR.0>
0

>  <SCORE.INTRA.REPUL>
0

>  <SCORE.INTRA.REPUL.0>
0

>  <SCORE.INTRA.SOLV>
-0.964686

>  <SCORE.INTRA.SOLV.lig_0>
-31.9559

>  <SCORE.INTRA.VDW>
0.11837

>  <SCORE.INTRA.VDW.0>
-0.507645

>  <SCORE.INTRA.norm>
-0.240174

>  <SCORE.RESTR>
0

>  <SCORE.RESTR.CAVITY>
0

>  <SCORE.RESTR.norm>
0

>  <SCORE.SYSTEM>
0

>  <SCORE.SYSTEM.CONST>
0

>  <SCORE.SYSTEM.DIHEDRAL>
0

>  <SCORE.SYSTEM.SOLV>
0

>  <SCORE.SYSTEM.norm>
0

>  <SCORE.heavy>
10

>  <SCORE.norm>
-1.078

>  <RMSD>
5.531

$$$$
ligand
 OpenBabel11021811473D
libRbt.so/2013.1/901 2013/11/27
 10  9  0  0  0  0  0  0  0  0999 V2000
   25.9133   14.8329   20.9072 N   0  0  0  0  0  0  0  0  0  0  0  0
   27.1212   15.5395   20.4053 C   0  0  2  0  0  0  0  0  0  0  0  0
   27.6047   14.9459   19.0817 C   0  0  0  0  0  0  0  0  0  0  0  0
   27.3025   13.8032   18.7523 O   0  0  0  0  0  0  0  0  0  0  0  0
   28.2200   15.5401   21.4743 C   0  0  0  0  0  0  0  0  0  0  0  0
   29.4380   16.3671   21.0756 C   0  0  0  0  0  0  0  0  0  0  0  0
   30.5314   16.3575   22.1348 C   0  0  0  0  0  0  0  0  0  0  0  0
   31.7511   17.1546   21.6708 C   0  0  0  0  0  0  0  0  0  0  0  0
   32.8620   17.2421   22.6954 N   0  0  0  0  0  0  0  0  0  0  0  0
   28.2739   15.5764   18.2713 O   0  0  0  0  0  0  0  0  0  0  0  0
  2  1  1  1  0  0  0
  2  3  1  0  0  0  0
  2  5  1  0  0  0  0
  3  4  1  0  0  0  0
  3 10  1  0  0  0  0
  5  6  1  0  0  0  0
  6  7  1  0  0  0  0
  7  8  1  0  0  0  0
  8  9  1  0  0  0  0
M  END
>  <CHROM.1>
-21.86158238,-174.37077442,-179.58570534,177.88061329,177.53094871,28.90177324
15.71928559,20.61092047,2.58163600,-0.33143718,-1.78128223

>  <Name>
ligand

>  <RI>
0

>  <Rbt.Current_Directory>
/home/itssahil/PROJECTS/Mol_Feturizer/New_Systems/rnas/3DIM

>  <Rbt.Executable>
rbdock ($Id: //depot/dev/client3/rdock/2013.1/src/exe/rbdock.cxx#4 $)

>  <Rbt.Library>
libRbt.so (2013.1, Build901 2013/11/27)

>  <Rbt.Parameter_File>
/export/apps/rDock/src/rDock_2013.1_src/data/scripts/dock_solv.prm

>  <Rbt.Receptor>
prm/pocket_docking_5.prm

>  <SCORE>
-10.5

>  <SCORE.INTER>
-7.24135

>  <SCORE.INTER.CONST>
1

>  <SCORE.INTER.POLAR>
0

>  <SCORE.INTER.ROT>
5

>  <SCORE.INTER.SOLV>
18.4608

>  <SCORE.INTER.VDW>
-17.9145

>  <SCORE.INTER.norm>
-0.724135

>  <SCORE.INTRA>
-3.25867

>  <SCORE.INTRA.DIHEDRAL>
-4.14097

>  <SCORE.INTRA.DIHEDRAL.0>
5.8785

>  <SCORE.INTRA.POLAR>
0

>  <SCORE.INTRA.POLAR.0>
0

>  <SCORE.INTRA.REPUL>
0

>  <SCORE.INTRA.REPUL.0>
0

>  <SCORE.INTRA.SOLV>
-1.84882

>  <SCORE.INTRA.SOLV.lig_0>
-31.9559

>  <SCORE.INTRA.VDW>
-0.263776

>  <SCORE.INTRA.VDW.0>
-0.507645

>  <SCORE.INTRA.norm>
-0.325867

>  <SCORE.RESTR>
0

>  <SCORE.RESTR.CAVITY>
0

>  <SCORE.RESTR.norm>
0

>  <SCORE.SYSTEM>
0

>  <SCORE.SYSTEM.CONST>
0

>  <SCORE.SYSTEM.DIHEDRAL>
0

>  <SCORE.SYSTEM.SOLV>
0

>  <SCORE.SYSTEM.norm>
0

>  <SCORE.heavy>
10

>  <SCORE.norm>
-1.05

>  <RMSD>
5.532

$$$$
ligand
 OpenBabel11021811473D
libRbt.so/2013.1/901 2013/11/27
 10  9  0  0  0  0  0  0  0  0999 V2000
   25.9208   14.8186   20.9227 N   0  0  0  0  0  0  0  0  0  0  0  0
   27.1273   15.5209   20.4113 C   0  0  2  0  0  0  0  0  0  0  0  0
   27.6040   14.9192   19.0890 C   0  0  0  0  0  0  0  0  0  0  0  0
   27.3137   13.7689   18.7756 O   0  0  0  0  0  0  0  0  0  0  0  0
   28.2308   15.5265   21.4753 C   0  0  0  0  0  0  0  0  0  0  0  0
   29.4399   16.3656   21.0746 C   0  0  0  0  0  0  0  0  0  0  0  0
   30.5505   16.3367   22.1154 C   0  0  0  0  0  0  0  0  0  0  0  0
   31.7601   17.1476   21.6489 C   0  0  0  0  0  0  0  0  0  0  0  0
   32.8960   17.1988   22.6482 N   0  0  0  0  0  0  0  0  0  0  0  0
   28.2556   15.5495   18.2642 O   0  0  0  0  0  0  0  0  0  0  0  0
  2  1  1  1  0  0  0
  2  3  1  0  0  0  0
  2  5  1  0  0  0  0
  3  4  1  0  0  0  0
  3 10  1  0  0  0  0
  5  6  1  0  0  0  0
  6  7  1  0  0  0  0
  7  8  1  0  0  0  0
  8  9  1  0  0  0  0
M  END
>  <CHROM.1>
-22.83066349,-173.57262659,-178.34545459,177.89908641,178.42420343,28.90965453
15.69839019,20.60671325,2.58840236,-0.32955157,-1.78469800

>  <Name>
ligand

>  <RI>
0

>  <Rbt.Current_Directory>
/home/itssahil/PROJECTS/Mol_Feturizer/New_Systems/rnas/3DIM

>  <Rbt.Executable>
rbdock ($Id: //depot/dev/client3/rdock/2013.1/src/exe/rbdock.cxx#4 $)

>  <Rbt.Library>
libRbt.so (2013.1, Build901 2013/11/27)

>  <Rbt.Parameter_File>
/export/apps/rDock/src/rDock_2013.1_src/data/scripts/dock_solv.prm

>  <Rbt.Receptor>
prm/pocket_docking_8.prm

>  <SCORE>
-10.5213

>  <SCORE.INTER>
-7.25251

>  <SCORE.INTER.CONST>
1

>  <SCORE.INTER.POLAR>
0

>  <SCORE.INTER.ROT>
5

>  <SCORE.INTER.SOLV>
18.5609

>  <SCORE.INTER.VDW>
-17.9553

>  <SCORE.INTER.norm>
-0.725251

>  <SCORE.INTRA>
-3.26877

>  <SCORE.INTRA.DIHEDRAL>
-4.10741

>  <SCORE.INTRA.DIHEDRAL.0>
5.8785

>  <SCORE.INTRA.POLAR>
0

>  <SCORE.INTRA.POLAR.0>
0

>  <SCORE.INTRA.REPUL>
0

>  <SCORE.INTRA.REPUL.0>
0

>  <SCORE.INTRA.SOLV>
-1.84861

>  <SCORE.INTRA.SOLV.lig_0>
-31.9559

>  <SCORE.INTRA.VDW>
-0.290763

>  <SCORE.INTRA.VDW.0>
-0.507645

>  <SCORE.INTRA.norm>
-0.326877

>  <SCORE.RESTR>
0

>  <SCORE.RESTR.CAVITY>
0

>  <SCORE.RESTR.norm>
0

>  <SCORE.SYSTEM>
0

>  <SCORE.SYSTEM.CONST>
0

>  <SCORE.SYSTEM.DIHEDRAL>
0

>  <SCORE.SYSTEM.SOLV>
0

>  <SCORE.SYSTEM.norm>
0

>  <SCORE.heavy>
10

>  <SCORE.norm>
-1.05213

>  <RMSD>
5.532

$$$$
ligand
 OpenBabel11021811473D
libRbt.so/2013.1/901 2013/11/27
 10  9  0  0  0  0  0  0  0  0999 V2000
   28.4140   15.0033   19.0309 N   0  0  0  0  0  0  0  0  0  0  0  0
   28.3229   14.8713   20.5089 C   0  0  2  0  0  0  0  0  0  0  0  0
   26.8713   14.9312   20.9856 C   0  0  0  0  0  0  0  0  0  0  0  0
   26.5644   14.5933   22.1246 O   0  0  0  0  0  0  0  0  0  0  0  0
   29.1999   15.9264   21.1924 C   0  0  0  0  0  0  0  0  0  0  0  0
   30.6828   15.7653   20.8736 C   0  0  0  0  0  0  0  0  0  0  0  0
   31.5549   16.7916   21.5833 C   0  0  0  0  0  0  0  0  0  0  0  0
   33.0216   16.6380   21.1788 C   0  0  0  0  0  0  0  0  0  0  0  0
   33.9616   17.5986   21.8755 N   0  0  0  0  0  0  0  0  0  0  0  0
   25.9550   15.3490   20.2870 O   0  0  0  0  0  0  0  0  0  0  0  0
  2  1  1  6  0  0  0
  2  3  1  0  0  0  0
  2  5  1  0  0  0  0
  3  4  1  0  0  0  0
  3 10  1  0  0  0  0
  5  6  1  0  0  0  0
  6  7  1  0  0  0  0
  7  8  1  0  0  0  0
  8  9  1  0  0  0  0
M  END
>  <CHROM.1>
166.16129780,-62.89010316,-178.46680668,-177.07235436,-178.26229779,29.41000507
15.74285540,20.97391162,-2.98739156,0.29903953,1.42733808

>  <Name>
ligand

>  <RI>
0

>  <Rbt.Current_Directory>
/home/itssahil/PROJECTS/Mol_Feturizer/New_Systems/rnas/3DIM

>  <Rbt.Executable>
rbdock ($Id: //depot/dev/client3/rdock/2013.1/src/exe/rbdock.cxx#4 $)

>  <Rbt.Library>
libRbt.so (2013.1, Build901 2013/11/27)

>  <Rbt.Parameter_File>
/export/apps/rDock/src/rDock_2013.1_src/data/scripts/dock_solv.prm

>  <Rbt.Receptor>
prm/pocket_docking_3.prm

>  <SCORE>
-10.895

>  <SCORE.INTER>
-7.98608

>  <SCORE.INTER.CONST>
1

>  <SCORE.INTER.POLAR>
0

>  <SCORE.INTER.ROT>
5

>  <SCORE.INTER.SOLV>
13.9797

>  <SCORE.INTER.VDW>
-16.9173

>  <SCORE.INTER.norm>
-0.798608

>  <SCORE.INTRA>
-2.90892

>  <SCORE.INTRA.DIHEDRAL>
-4.33654

>  <SCORE.INTRA.DIHEDRAL.0>
5.8785

>  <SCORE.INTRA.POLAR>
0

>  <SCORE.INTRA.POLAR.0>
0

>  <SCORE.INTRA.REPUL>
0

>  <SCORE.INTRA.REPUL.0>
0

>  <SCORE.INTRA.SOLV>
-0.991809

>  <SCORE.INTRA.SOLV.lig_0>
-31.9559

>  <SCORE.INTRA.VDW>
-0.244745

>  <SCORE.INTRA.VDW.0>
-0.507645

>  <SCORE.INTRA.norm>
-0.290892

>  <SCORE.RESTR>
0

>  <SCORE.RESTR.CAVITY>
0

>  <SCORE.RESTR.norm>
0

>  <SCORE.SYSTEM>
0

>  <SCORE.SYSTEM.CONST>
0

>  <SCORE.SYSTEM.DIHEDRAL>
0

>  <SCORE.SYSTEM.SOLV>
0

>  <SCORE.SYSTEM.norm>
0

>  <SCORE.heavy>
10

>  <SCORE.norm>
-1.0895

>  <RMSD>
5.534

$$$$
ligand
 OpenBabel11021811473D
libRbt.so/2013.1/901 2013/11/27
 10  9  0  0  0  0  0  0  0  0999 V2000
   28.2252   14.9951   22.6261 N   0  0  0  0  0  0  0  0  0  0  0  0
   28.1061   15.7374   21.3435 C   0  0  2  0  0  0  0  0  0  0  0  0
   26.9846   15.1699   20.4729 C   0  0  0  0  0  0  0  0  0  0  0  0
   27.1627   14.9411   19.2805 O   0  0  0  0  0  0  0  0  0  0  0  0
   29.4532   15.7554   20.6121 C   0  0  0  0  0  0  0  0  0  0  0  0
   30.5766   16.3601   21.4481 C   0  0  0  0  0  0  0  0  0  0  0  0
   31.9088   16.3936   20.7122 C   0  0  0  0  0  0  0  0  0  0  0  0
   33.0355   16.8518   21.6390 C   0  0  0  0  0  0  0  0  0  0  0  0
   32.8151   18.2162   22.2567 N   0  0  0  0  0  0  0  0  0  0  0  0
   25.8787   14.8784   20.9136 O   0  0  0  0  0  0  0  0  0  0  0  0
  2  1  1  1  0  0  0
  2  3  1  0  0  0  0
  2  5  1  0  0  0  0
  3  4  1  0  0  0  0
  3 10  1  0  0  0  0
  5  6  1  0  0  0  0
  6  7  1  0  0  0  0
  7  8  1  0  0  0  0
  8  9  1  0  0  0  0
M  END
>  <CHROM.1>
-133.14666008,-57.07123494,-179.23016105,-173.31469306,-57.94804721,29.37749799
15.91342518,21.10908945,2.92898841,-0.34623446,-1.68472269

>  <Name>
ligand

>  <RI>
0

>  <Rbt.Current_Directory>
/home/itssahil/PROJECTS/Mol_Feturizer/New_Systems/rnas/3DIM

>  <Rbt.Executable>
rbdock ($Id: //depot/dev/client3/rdock/2013.1/src/exe/rbdock.cxx#4 $)

>  <Rbt.Library>
libRbt.so (2013.1, Build901 2013/11/27)

>  <Rbt.Parameter_File>
/export/apps/rDock/src/rDock_2013.1_src/data/scripts/dock_solv.prm

>  <Rbt.Receptor>
prm/pocket_docking_3.prm

>  <SCORE>
-9.52994

>  <SCORE.INTER>
-8.01583

>  <SCORE.INTER.CONST>
1

>  <SCORE.INTER.POLAR>
0

>  <SCORE.INTER.ROT>
5

>  <SCORE.INTER.SOLV>
15.643

>  <SCORE.INTER.VDW>
-17.4915

>  <SCORE.INTER.norm>
-0.801583

>  <SCORE.INTRA>
-1.51411

>  <SCORE.INTRA.DIHEDRAL>
-4.08349

>  <SCORE.INTRA.DIHEDRAL.0>
5.8785

>  <SCORE.INTRA.POLAR>
0

>  <SCORE.INTRA.POLAR.0>
0

>  <SCORE.INTRA.REPUL>
0

>  <SCORE.INTRA.REPUL.0>
0

>  <SCORE.INTRA.SOLV>
0.0105499

>  <SCORE.INTRA.SOLV.lig_0>
-31.9559

>  <SCORE.INTRA.VDW>
0.52236

>  <SCORE.INTRA.VDW.0>
-0.507645

>  <SCORE.INTRA.norm>
-0.151411

>  <SCORE.RESTR>
0

>  <SCORE.RESTR.CAVITY>
0

>  <SCORE.RESTR.norm>
0

>  <SCORE.SYSTEM>
0

>  <SCORE.SYSTEM.CONST>
0

>  <SCORE.SYSTEM.DIHEDRAL>
0

>  <SCORE.SYSTEM.SOLV>
0

>  <SCORE.SYSTEM.norm>
0

>  <SCORE.heavy>
10

>  <SCORE.norm>
-0.952994

>  <RMSD>
5.540

$$$$
ligand
 OpenBabel11021811473D
libRbt.so/2013.1/901 2013/11/27
 10  9  0  0  0  0  0  0  0  0999 V2000
   25.9173   14.8105   20.9172 N   0  0  0  0  0  0  0  0  0  0  0  0
   27.1288   15.4986   20.3982 C   0  0  2  0  0  0  0  0  0  0  0  0
   27.5999   14.8805   19.0814 C   0  0  0  0  0  0  0  0  0  0  0  0
   27.3194   13.7222   18.7894 O   0  0  0  0  0  0  0  0  0  0  0  0
   28.2331   15.5058   21.4614 C   0  0  0  0  0  0  0  0  0  0  0  0
   29.4402   16.3476   21.0602 C   0  0  0  0  0  0  0  0  0  0  0  0
   30.5476   16.3284   22.1046 C   0  0  0  0  0  0  0  0  0  0  0  0
   31.7474   17.1585   21.6466 C   0  0  0  0  0  0  0  0  0  0  0  0
   32.8721   17.2340   22.6570 N   0  0  0  0  0  0  0  0  0  0  0  0
   28.2369   15.5043   18.2404 O   0  0  0  0  0  0  0  0  0  0  0  0
  2  1  1  1  0  0  0
  2  3  1  0  0  0  0
  2  5  1  0  0  0  0
  3  4  1  0  0  0  0
  3 10  1  0  0  0  0
  5  6  1  0  0  0  0
  6  7  1  0  0  0  0
  7  8  1  0  0  0  0
  8  9  1  0  0  0  0
M  END
>  <CHROM.1>
-24.06580639,-172.76644460,-178.75074051,178.72686597,177.70786939,28.90396880
15.68171661,20.59992897,2.58234366,-0.33380288,-1.79335046

>  <Name>
ligand

>  <RI>
0

>  <Rbt.Current_Directory>
/home/itssahil/PROJECTS/Mol_Feturizer/New_Systems/rnas/3DIM

>  <Rbt.Executable>
rbdock ($Id: //depot/dev/client3/rdock/2013.1/src/exe/rbdock.cxx#4 $)

>  <Rbt.Library>
libRbt.so (2013.1, Build901 2013/11/27)

>  <Rbt.Parameter_File>
/export/apps/rDock/src/rDock_2013.1_src/data/scripts/dock_solv.prm

>  <Rbt.Receptor>
prm/pocket_docking_8.prm

>  <SCORE>
-10.5236

>  <SCORE.INTER>
-7.26529

>  <SCORE.INTER.CONST>
1

>  <SCORE.INTER.POLAR>
0

>  <SCORE.INTER.ROT>
5

>  <SCORE.INTER.SOLV>
18.478

>  <SCORE.INTER.VDW>
-17.9362

>  <SCORE.INTER.norm>
-0.726529

>  <SCORE.INTRA>
-3.25827

>  <SCORE.INTRA.DIHEDRAL>
-4.07156

>  <SCORE.INTRA.DIHEDRAL.0>
5.8785

>  <SCORE.INTRA.POLAR>
0

>  <SCORE.INTRA.POLAR.0>
0

>  <SCORE.INTRA.REPUL>
0

>  <SCORE.INTRA.REPUL.0>
0

>  <SCORE.INTRA.SOLV>
-1.84799

>  <SCORE.INTRA.SOLV.lig_0>
-31.9559

>  <SCORE.INTRA.VDW>
-0.298492

>  <SCORE.INTRA.VDW.0>
-0.507645

>  <SCORE.INTRA.norm>
-0.325827

>  <SCORE.RESTR>
0

>  <SCORE.RESTR.CAVITY>
0

>  <SCORE.RESTR.norm>
0

>  <SCORE.SYSTEM>
0

>  <SCORE.SYSTEM.CONST>
0

>  <SCORE.SYSTEM.DIHEDRAL>
0

>  <SCORE.SYSTEM.SOLV>
0

>  <SCORE.SYSTEM.norm>
0

>  <SCORE.heavy>
10

>  <SCORE.norm>
-1.05236

>  <RMSD>
5.540

$$$$
ligand
 OpenBabel11021811473D
libRbt.so/2013.1/901 2013/11/27
 10  9  0  0  0  0  0  0  0  0999 V2000
   28.1587   15.0321   22.6244 N   0  0  0  0  0  0  0  0  0  0  0  0
   28.0919   15.7178   21.3070 C   0  0  2  0  0  0  0  0  0  0  0  0
   26.9816   15.1361   20.4313 C   0  0  0  0  0  0  0  0  0  0  0  0
   25.8756   14.8810   20.8975 O   0  0  0  0  0  0  0  0  0  0  0  0
   29.4584   15.6730   20.6137 C   0  0  0  0  0  0  0  0  0  0  0  0
   30.5748   16.2779   21.4589 C   0  0  0  0  0  0  0  0  0  0  0  0
   31.9186   16.2875   20.7436 C   0  0  0  0  0  0  0  0  0  0  0  0
   33.0283   16.7888   21.6686 C   0  0  0  0  0  0  0  0  0  0  0  0
   32.7938   18.1777   22.2234 N   0  0  0  0  0  0  0  0  0  0  0  0
   27.1151   14.9326   19.2301 O   0  0  0  0  0  0  0  0  0  0  0  0
  2  1  1  1  0  0  0
  2  3  1  0  0  0  0
  2  5  1  0  0  0  0
  3  4  1  0  0  0  0
  3 10  1  0  0  0  0
  5  6  1  0  0  0  0
  6  7  1  0  0  0  0
  7  8  1  0  0  0  0
  8  9  1  0  0  0  0
M  END
>  <CHROM.1>
43.33231879,-56.50446344,-177.47916361,-175.09397473,-58.08587522,29.36203677
15.87475409,21.09844665,2.91636516,-0.33069744,-1.70619942

>  <Name>
ligand

>  <RI>
0

>  <Rbt.Current_Directory>
/home/itssahil/PROJECTS/Mol_Feturizer/New_Systems/rnas/3DIM

>  <Rbt.Executable>
rbdock ($Id: //depot/dev/client3/rdock/2013.1/src/exe/rbdock.cxx#4 $)

>  <Rbt.Library>
libRbt.so (2013.1, Build901 2013/11/27)

>  <Rbt.Parameter_File>
/export/apps/rDock/src/rDock_2013.1_src/data/scripts/dock_solv.prm

>  <Rbt.Receptor>
prm/pocket_docking_4.prm

>  <SCORE>
-9.75901

>  <SCORE.INTER>
-7.9981

>  <SCORE.INTER.CONST>
1

>  <SCORE.INTER.POLAR>
0

>  <SCORE.INTER.ROT>
5

>  <SCORE.INTER.SOLV>
15.6561

>  <SCORE.INTER.VDW>
-17.4841

>  <SCORE.INTER.norm>
-0.79981

>  <SCORE.INTRA>
-1.76092

>  <SCORE.INTRA.DIHEDRAL>
-4.26019

>  <SCORE.INTRA.DIHEDRAL.0>
5.8785

>  <SCORE.INTRA.POLAR>
0

>  <SCORE.INTRA.POLAR.0>
0

>  <SCORE.INTRA.REPUL>
0

>  <SCORE.INTRA.REPUL.0>
0

>  <SCORE.INTRA.SOLV>
0.0133247

>  <SCORE.INTRA.SOLV.lig_0>
-31.9559

>  <SCORE.INTRA.VDW>
0.362519

>  <SCORE.INTRA.VDW.0>
-0.507645

>  <SCORE.INTRA.norm>
-0.176092

>  <SCORE.RESTR>
0

>  <SCORE.RESTR.CAVITY>
0

>  <SCORE.RESTR.norm>
0

>  <SCORE.SYSTEM>
0

>  <SCORE.SYSTEM.CONST>
0

>  <SCORE.SYSTEM.DIHEDRAL>
0

>  <SCORE.SYSTEM.SOLV>
0

>  <SCORE.SYSTEM.norm>
0

>  <SCORE.heavy>
10

>  <SCORE.norm>
-0.975901

>  <RMSD>
5.545

$$$$
ligand
 OpenBabel11021811473D
libRbt.so/2013.1/901 2013/11/27
 10  9  0  0  0  0  0  0  0  0999 V2000
   28.8492   14.7802   19.4102 N   0  0  0  0  0  0  0  0  0  0  0  0
   28.4606   14.9096   20.8394 C   0  0  2  0  0  0  0  0  0  0  0  0
   26.9413   14.9686   21.0009 C   0  0  0  0  0  0  0  0  0  0  0  0
   26.2308   15.4635   20.1315 O   0  0  0  0  0  0  0  0  0  0  0  0
   29.1569   16.1195   21.4727 C   0  0  0  0  0  0  0  0  0  0  0  0
   30.6767   15.9913   21.4879 C   0  0  0  0  0  0  0  0  0  0  0  0
   31.3688   17.2291   22.0413 C   0  0  0  0  0  0  0  0  0  0  0  0
   32.8894   17.0747   21.9926 C   0  0  0  0  0  0  0  0  0  0  0  0
   33.6524   18.2839   22.4901 N   0  0  0  0  0  0  0  0  0  0  0  0
   26.3533   14.4991   21.9684 O   0  0  0  0  0  0  0  0  0  0  0  0
  2  1  1  6  0  0  0
  2  3  1  0  0  0  0
  2  5  1  0  0  0  0
  3  4  1  0  0  0  0
  3 10  1  0  0  0  0
  5  6  1  0  0  0  0
  6  7  1  0  0  0  0
  7  8  1  0  0  0  0
  8  9  1  0  0  0  0
M  END
>  <CHROM.1>
-31.10708253,-62.87674271,176.57985791,-178.04263186,178.31891485,29.41198822
15.92626516,21.28427816,-2.80384935,0.31825080,1.20925391

>  <Name>
ligand

>  <RI>
0

>  <Rbt.Current_Directory>
/home/itssahil/PROJECTS/Mol_Feturizer/New_Systems/rnas/3DIM

>  <Rbt.Executable>
rbdock ($Id: //depot/dev/client3/rdock/2013.1/src/exe/rbdock.cxx#4 $)

>  <Rbt.Library>
libRbt.so (2013.1, Build901 2013/11/27)

>  <Rbt.Parameter_File>
/export/apps/rDock/src/rDock_2013.1_src/data/scripts/dock_solv.prm

>  <Rbt.Receptor>
prm/pocket_docking_7.prm

>  <SCORE>
-11.3485

>  <SCORE.INTER>
-8.47102

>  <SCORE.INTER.CONST>
1

>  <SCORE.INTER.POLAR>
0

>  <SCORE.INTER.ROT>
5

>  <SCORE.INTER.SOLV>
12.8956

>  <SCORE.INTER.VDW>
-16.8792

>  <SCORE.INTER.norm>
-0.847102

>  <SCORE.INTRA>
-2.87746

>  <SCORE.INTRA.DIHEDRAL>
-4.17608

>  <SCORE.INTRA.DIHEDRAL.0>
5.8785

>  <SCORE.INTRA.POLAR>
0

>  <SCORE.INTRA.POLAR.0>
0

>  <SCORE.INTRA.REPUL>
0

>  <SCORE.INTRA.REPUL.0>
0

>  <SCORE.INTRA.SOLV>
-0.951158

>  <SCORE.INTRA.SOLV.lig_0>
-31.9559

>  <SCORE.INTRA.VDW>
-0.313843

>  <SCORE.INTRA.VDW.0>
-0.507645

>  <SCORE.INTRA.norm>
-0.287746

>  <SCORE.RESTR>
0

>  <SCORE.RESTR.CAVITY>
0

>  <SCORE.RESTR.norm>
0

>  <SCORE.SYSTEM>
0

>  <SCORE.SYSTEM.CONST>
0

>  <SCORE.SYSTEM.DIHEDRAL>
0

>  <SCORE.SYSTEM.SOLV>
0

>  <SCORE.SYSTEM.norm>
0

>  <SCORE.heavy>
10

>  <SCORE.norm>
-1.13485

>  <RMSD>
5.545

$$$$
ligand
 OpenBabel11021811473D
libRbt.so/2013.1/901 2013/11/27
 10  9  0  0  0  0  0  0  0  0999 V2000
   27.0198   14.3775   20.9559 N   0  0  0  0  0  0  0  0  0  0  0  0
   27.2331   15.3309   19.8353 C   0  0  2  0  0  0  0  0  0  0  0  0
   27.6994   14.6094   18.5705 C   0  0  0  0  0  0  0  0  0  0  0  0
   27.4354   13.4258   18.3828 O   0  0  0  0  0  0  0  0  0  0  0  0
   28.2020   16.4410   20.2583 C   0  0  0  0  0  0  0  0  0  0  0  0
   29.5397   15.9051   20.7582 C   0  0  0  0  0  0  0  0  0  0  0  0
   30.4784   17.0065   21.2307 C   0  0  0  0  0  0  0  0  0  0  0  0
   31.8259   16.4291   21.6657 C   0  0  0  0  0  0  0  0  0  0  0  0
   32.7974   17.4577   22.2040 N   0  0  0  0  0  0  0  0  0  0  0  0
   28.3158   15.1686   17.6707 O   0  0  0  0  0  0  0  0  0  0  0  0
  2  1  1  1  0  0  0
  2  3  1  0  0  0  0
  2  5  1  0  0  0  0
  3  4  1  0  0  0  0
  3 10  1  0  0  0  0
  5  6  1  0  0  0  0
  6  7  1  0  0  0  0
  7  8  1  0  0  0  0
  8  9  1  0  0  0  0
M  END
>  <CHROM.1>
25.08443299,56.06062998,-177.65423179,-177.56827169,-177.60604071,29.05384916
15.59462221,20.11823733,2.50008169,-0.38574699,-1.82363781

>  <Name>
ligand

>  <RI>
0

>  <Rbt.Current_Directory>
/home/itssahil/PROJECTS/Mol_Feturizer/New_Systems/rnas/3DIM

>  <Rbt.Executable>
rbdock ($Id: //depot/dev/client3/rdock/2013.1/src/exe/rbdock.cxx#4 $)

>  <Rbt.Library>
libRbt.so (2013.1, Build901 2013/11/27)

>  <Rbt.Parameter_File>
/export/apps/rDock/src/rDock_2013.1_src/data/scripts/dock_solv.prm

>  <Rbt.Receptor>
prm/pocket_docking_7.prm

>  <SCORE>
-10.7674

>  <SCORE.INTER>
-8.29299

>  <SCORE.INTER.CONST>
1

>  <SCORE.INTER.POLAR>
0

>  <SCORE.INTER.ROT>
5

>  <SCORE.INTER.SOLV>
15.2695

>  <SCORE.INTER.VDW>
-17.5518

>  <SCORE.INTER.norm>
-0.829299

>  <SCORE.INTRA>
-2.47441

>  <SCORE.INTRA.DIHEDRAL>
-4.31087

>  <SCORE.INTRA.DIHEDRAL.0>
5.8785

>  <SCORE.INTRA.POLAR>
0

>  <SCORE.INTRA.POLAR.0>
0

>  <SCORE.INTRA.REPUL>
0

>  <SCORE.INTRA.REPUL.0>
0

>  <SCORE.INTRA.SOLV>
-0.881428

>  <SCORE.INTRA.SOLV.lig_0>
-31.9559

>  <SCORE.INTRA.VDW>
0.121735

>  <SCORE.INTRA.VDW.0>
-0.507645

>  <SCORE.INTRA.norm>
-0.247441

>  <SCORE.RESTR>
0

>  <SCORE.RESTR.CAVITY>
0

>  <SCORE.RESTR.norm>
0

>  <SCORE.SYSTEM>
0

>  <SCORE.SYSTEM.CONST>
0

>  <SCORE.SYSTEM.DIHEDRAL>
0

>  <SCORE.SYSTEM.SOLV>
0

>  <SCORE.SYSTEM.norm>
0

>  <SCORE.heavy>
10

>  <SCORE.norm>
-1.07674

>  <RMSD>
5.546

$$$$
ligand
 OpenBabel11021811473D
libRbt.so/2013.1/901 2013/11/27
 10  9  0  0  0  0  0  0  0  0999 V2000
   25.9621   14.7309   20.9523 N   0  0  0  0  0  0  0  0  0  0  0  0
   27.1398   15.4578   20.4090 C   0  0  2  0  0  0  0  0  0  0  0  0
   27.6006   14.8582   19.0801 C   0  0  0  0  0  0  0  0  0  0  0  0
   27.2878   13.7162   18.7583 O   0  0  0  0  0  0  0  0  0  0  0  0
   28.2666   15.4967   21.4476 C   0  0  0  0  0  0  0  0  0  0  0  0
   29.4426   16.3679   21.0177 C   0  0  0  0  0  0  0  0  0  0  0  0
   30.5476   16.4269   22.0631 C   0  0  0  0  0  0  0  0  0  0  0  0
   31.7119   17.2934   21.5816 C   0  0  0  0  0  0  0  0  0  0  0  0
   32.8172   17.4703   22.6008 N   0  0  0  0  0  0  0  0  0  0  0  0
   28.2610   15.4831   18.2582 O   0  0  0  0  0  0  0  0  0  0  0  0
  2  1  1  1  0  0  0
  2  3  1  0  0  0  0
  2  5  1  0  0  0  0
  3  4  1  0  0  0  0
  3 10  1  0  0  0  0
  5  6  1  0  0  0  0
  6  7  1  0  0  0  0
  7  8  1  0  0  0  0
  8  9  1  0  0  0  0
M  END
>  <CHROM.1>
-20.03889038,-173.22611784,178.84667708,179.18746977,176.50634128,28.90322444
15.71282414,20.58102561,2.58783133,-0.37846249,-1.79104244

>  <Name>
ligand

>  <RI>
0

>  <Rbt.Current_Directory>
/home/itssahil/PROJECTS/Mol_Feturizer/New_Systems/rnas/3DIM

>  <Rbt.Executable>
rbdock ($Id: //depot/dev/client3/rdock/2013.1/src/exe/rbdock.cxx#4 $)

>  <Rbt.Library>
libRbt.so (2013.1, Build901 2013/11/27)

>  <Rbt.Parameter_File>
/export/apps/rDock/src/rDock_2013.1_src/data/scripts/dock_solv.prm

>  <Rbt.Receptor>
prm/pocket_docking_3.prm

>  <SCORE>
-10.4646

>  <SCORE.INTER>
-7.23373

>  <SCORE.INTER.CONST>
1

>  <SCORE.INTER.POLAR>
0

>  <SCORE.INTER.ROT>
5

>  <SCORE.INTER.SOLV>
17.9997

>  <SCORE.INTER.VDW>
-17.7557

>  <SCORE.INTER.norm>
-0.723373

>  <SCORE.INTRA>
-3.23092

>  <SCORE.INTRA.DIHEDRAL>
-4.07965

>  <SCORE.INTRA.DIHEDRAL.0>
5.8785

>  <SCORE.INTRA.POLAR>
0

>  <SCORE.INTRA.POLAR.0>
0

>  <SCORE.INTRA.REPUL>
0

>  <SCORE.INTRA.REPUL.0>
0

>  <SCORE.INTRA.SOLV>
-1.84704

>  <SCORE.INTRA.SOLV.lig_0>
-31.9559

>  <SCORE.INTRA.VDW>
-0.267574

>  <SCORE.INTRA.VDW.0>
-0.507645

>  <SCORE.INTRA.norm>
-0.323092

>  <SCORE.RESTR>
0

>  <SCORE.RESTR.CAVITY>
0

>  <SCORE.RESTR.norm>
0

>  <SCORE.SYSTEM>
0

>  <SCORE.SYSTEM.CONST>
0

>  <SCORE.SYSTEM.DIHEDRAL>
0

>  <SCORE.SYSTEM.SOLV>
0

>  <SCORE.SYSTEM.norm>
0

>  <SCORE.heavy>
10

>  <SCORE.norm>
-1.04646

>  <RMSD>
5.547

$$$$
ligand
 OpenBabel11021811473D
libRbt.so/2013.1/901 2013/11/27
 10  9  0  0  0  0  0  0  0  0999 V2000
   27.0267   14.3669   20.9341 N   0  0  0  0  0  0  0  0  0  0  0  0
   27.2356   15.3382   19.8281 C   0  0  2  0  0  0  0  0  0  0  0  0
   27.6878   14.6360   18.5474 C   0  0  0  0  0  0  0  0  0  0  0  0
   27.4207   13.4557   18.3442 O   0  0  0  0  0  0  0  0  0  0  0  0
   28.2136   16.4361   20.2618 C   0  0  0  0  0  0  0  0  0  0  0  0
   29.5752   15.8897   20.6789 C   0  0  0  0  0  0  0  0  0  0  0  0
   30.5265   16.9768   21.1593 C   0  0  0  0  0  0  0  0  0  0  0  0
   31.8933   16.3910   21.5155 C   0  0  0  0  0  0  0  0  0  0  0  0
   32.8939   17.4101   22.0172 N   0  0  0  0  0  0  0  0  0  0  0  0
   28.2951   15.2086   17.6499 O   0  0  0  0  0  0  0  0  0  0  0  0
  2  1  1  1  0  0  0
  2  3  1  0  0  0  0
  2  5  1  0  0  0  0
  3  4  1  0  0  0  0
  3 10  1  0  0  0  0
  5  6  1  0  0  0  0
  6  7  1  0  0  0  0
  7  8  1  0  0  0  0
  8  9  1  0  0  0  0
M  END
>  <CHROM.1>
24.80013937,58.77770987,-177.80933865,-177.83415146,-179.38795309,29.07549676
15.59094557,20.05862493,2.53028638,-0.37612669,-1.82002249

>  <Name>
ligand

>  <RI>
0

>  <Rbt.Current_Directory>
/home/itssahil/PROJECTS/Mol_Feturizer/New_Systems/rnas/3DIM

>  <Rbt.Executable>
rbdock ($Id: //depot/dev/client3/rdock/2013.1/src/exe/rbdock.cxx#4 $)

>  <Rbt.Library>
libRbt.so (2013.1, Build901 2013/11/27)

>  <Rbt.Parameter_File>
/export/apps/rDock/src/rDock_2013.1_src/data/scripts/dock_solv.prm

>  <Rbt.Receptor>
prm/pocket_docking_5.prm

>  <SCORE>
-10.8175

>  <SCORE.INTER>
-8.27276

>  <SCORE.INTER.CONST>
1

>  <SCORE.INTER.POLAR>
0

>  <SCORE.INTER.ROT>
5

>  <SCORE.INTER.SOLV>
15.3392

>  <SCORE.INTER.VDW>
-17.5616

>  <SCORE.INTER.norm>
-0.827276

>  <SCORE.INTRA>
-2.54476

>  <SCORE.INTRA.DIHEDRAL>
-4.40007

>  <SCORE.INTRA.DIHEDRAL.0>
5.8785

>  <SCORE.INTRA.POLAR>
0

>  <SCORE.INTRA.POLAR.0>
0

>  <SCORE.INTRA.REPUL>
0

>  <SCORE.INTRA.REPUL.0>
0

>  <SCORE.INTRA.SOLV>
-0.916989

>  <SCORE.INTRA.SOLV.lig_0>
-31.9559

>  <SCORE.INTRA.VDW>
0.113765

>  <SCORE.INTRA.VDW.0>
-0.507645

>  <SCORE.INTRA.norm>
-0.254476

>  <SCORE.RESTR>
0

>  <SCORE.RESTR.CAVITY>
0

>  <SCORE.RESTR.norm>
0

>  <SCORE.SYSTEM>
0

>  <SCORE.SYSTEM.CONST>
0

>  <SCORE.SYSTEM.DIHEDRAL>
0

>  <SCORE.SYSTEM.SOLV>
0

>  <SCORE.SYSTEM.norm>
0

>  <SCORE.heavy>
10

>  <SCORE.norm>
-1.08175

>  <RMSD>
5.550

$$$$
ligand
 OpenBabel11021811473D
libRbt.so/2013.1/901 2013/11/27
 10  9  0  0  0  0  0  0  0  0999 V2000
   28.8182   14.7604   19.4209 N   0  0  0  0  0  0  0  0  0  0  0  0
   28.4227   14.8751   20.8495 C   0  0  2  0  0  0  0  0  0  0  0  0
   26.9033   14.9501   21.0031 C   0  0  0  0  0  0  0  0  0  0  0  0
   26.2032   15.4586   20.1330 O   0  0  0  0  0  0  0  0  0  0  0  0
   29.1296   16.0679   21.5032 C   0  0  0  0  0  0  0  0  0  0  0  0
   30.6495   15.9413   21.4867 C   0  0  0  0  0  0  0  0  0  0  0  0
   31.3511   17.1704   22.0477 C   0  0  0  0  0  0  0  0  0  0  0  0
   32.8702   17.0304   21.9419 C   0  0  0  0  0  0  0  0  0  0  0  0
   33.6419   18.2153   22.4824 N   0  0  0  0  0  0  0  0  0  0  0  0
   26.3047   14.4809   21.9642 O   0  0  0  0  0  0  0  0  0  0  0  0
  2  1  1  6  0  0  0
  2  3  1  0  0  0  0
  2  5  1  0  0  0  0
  3  4  1  0  0  0  0
  3 10  1  0  0  0  0
  5  6  1  0  0  0  0
  6  7  1  0  0  0  0
  7  8  1  0  0  0  0
  8  9  1  0  0  0  0
M  END
>  <CHROM.1>
-30.70294901,-61.09626666,175.96534346,-176.93629695,-179.91688946,29.38342108
15.88978761,21.28388733,-2.81102935,0.31358613,1.21278981

>  <Name>
ligand

>  <RI>
0

>  <Rbt.Current_Directory>
/home/itssahil/PROJECTS/Mol_Feturizer/New_Systems/rnas/3DIM

>  <Rbt.Executable>
rbdock ($Id: //depot/dev/client3/rdock/2013.1/src/exe/rbdock.cxx#4 $)

>  <Rbt.Library>
libRbt.so (2013.1, Build901 2013/11/27)

>  <Rbt.Parameter_File>
/export/apps/rDock/src/rDock_2013.1_src/data/scripts/dock_solv.prm

>  <Rbt.Receptor>
prm/pocket_docking_4.prm

>  <SCORE>
-11.3758

>  <SCORE.INTER>
-8.53269

>  <SCORE.INTER.CONST>
1

>  <SCORE.INTER.POLAR>
0

>  <SCORE.INTER.ROT>
5

>  <SCORE.INTER.SOLV>
12.8792

>  <SCORE.INTER.VDW>
-16.9149

>  <SCORE.INTER.norm>
-0.853269

>  <SCORE.INTRA>
-2.84307

>  <SCORE.INTRA.DIHEDRAL>
-4.17611

>  <SCORE.INTRA.DIHEDRAL.0>
5.8785

>  <SCORE.INTRA.POLAR>
0

>  <SCORE.INTRA.POLAR.0>
0

>  <SCORE.INTRA.REPUL>
0

>  <SCORE.INTRA.REPUL.0>
0

>  <SCORE.INTRA.SOLV>
-0.924666

>  <SCORE.INTRA.SOLV.lig_0>
-31.9559

>  <SCORE.INTRA.VDW>
-0.292678

>  <SCORE.INTRA.VDW.0>
-0.507645

>  <SCORE.INTRA.norm>
-0.284307

>  <SCORE.RESTR>
0

>  <SCORE.RESTR.CAVITY>
0

>  <SCORE.RESTR.norm>
0

>  <SCORE.SYSTEM>
0

>  <SCORE.SYSTEM.CONST>
0

>  <SCORE.SYSTEM.DIHEDRAL>
0

>  <SCORE.SYSTEM.SOLV>
0

>  <SCORE.SYSTEM.norm>
0

>  <SCORE.heavy>
10

>  <SCORE.norm>
-1.13758

>  <RMSD>
5.551

$$$$
ligand
 OpenBabel11021811473D
libRbt.so/2013.1/901 2013/11/27
 10  9  0  0  0  0  0  0  0  0999 V2000
   28.4962   15.1314   19.1236 N   0  0  0  0  0  0  0  0  0  0  0  0
   28.3253   14.9466   20.5889 C   0  0  2  0  0  0  0  0  0  0  0  0
   26.8473   14.9329   20.9804 C   0  0  0  0  0  0  0  0  0  0  0  0
   26.4861   14.5119   22.0749 O   0  0  0  0  0  0  0  0  0  0  0  0
   29.1167   16.0124   21.3555 C   0  0  0  0  0  0  0  0  0  0  0  0
   30.6188   15.9356   21.1020 C   0  0  0  0  0  0  0  0  0  0  0  0
   31.4013   16.9989   21.8601 C   0  0  0  0  0  0  0  0  0  0  0  0
   32.8892   16.9362   21.5129 C   0  0  0  0  0  0  0  0  0  0  0  0
   33.7372   17.9675   22.2265 N   0  0  0  0  0  0  0  0  0  0  0  0
   25.9599   15.3693   20.2563 O   0  0  0  0  0  0  0  0  0  0  0  0
  2  1  1  6  0  0  0
  2  3  1  0  0  0  0
  2  5  1  0  0  0  0
  3  4  1  0  0  0  0
  3 10  1  0  0  0  0
  5  6  1  0  0  0  0
  6  7  1  0  0  0  0
  7  8  1  0  0  0  0
  8  9  1  0  0  0  0
M  END
>  <CHROM.1>
164.18967446,-61.93385615,179.75484473,-176.67870689,179.87440461,29.34270166
15.86804410,21.11539388,-2.93528713,0.34555043,1.43839452

>  <Name>
ligand

>  <RI>
0

>  <Rbt.Current_Directory>
/home/itssahil/PROJECTS/Mol_Feturizer/New_Systems/rnas/3DIM

>  <Rbt.Executable>
rbdock ($Id: //depot/dev/client3/rdock/2013.1/src/exe/rbdock.cxx#4 $)

>  <Rbt.Library>
libRbt.so (2013.1, Build901 2013/11/27)

>  <Rbt.Parameter_File>
/export/apps/rDock/src/rDock_2013.1_src/data/scripts/dock_solv.prm

>  <Rbt.Receptor>
prm/blind_docking_60.prm

>  <SCORE>
-11.3478

>  <SCORE.INTER>
-8.42814

>  <SCORE.INTER.CONST>
1

>  <SCORE.INTER.POLAR>
0

>  <SCORE.INTER.ROT>
5

>  <SCORE.INTER.SOLV>
13.1647

>  <SCORE.INTER.VDW>
-16.9403

>  <SCORE.INTER.norm>
-0.842814

>  <SCORE.INTRA>
-2.91965

>  <SCORE.INTRA.DIHEDRAL>
-4.37306

>  <SCORE.INTRA.DIHEDRAL.0>
5.8785

>  <SCORE.INTRA.POLAR>
0

>  <SCORE.INTRA.POLAR.0>
0

>  <SCORE.INTRA.REPUL>
0

>  <SCORE.INTRA.REPUL.0>
0

>  <SCORE.INTRA.SOLV>
-0.971568

>  <SCORE.INTRA.SOLV.lig_0>
-31.9559

>  <SCORE.INTRA.VDW>
-0.247335

>  <SCORE.INTRA.VDW.0>
-0.507645

>  <SCORE.INTRA.norm>
-0.291965

>  <SCORE.RESTR>
0

>  <SCORE.RESTR.CAVITY>
0

>  <SCORE.RESTR.norm>
0

>  <SCORE.SYSTEM>
0

>  <SCORE.SYSTEM.CONST>
0

>  <SCORE.SYSTEM.DIHEDRAL>
0

>  <SCORE.SYSTEM.SOLV>
0

>  <SCORE.SYSTEM.norm>
0

>  <SCORE.heavy>
10

>  <SCORE.norm>
-1.13478

>  <RMSD>
5.554

$$$$
ligand
 OpenBabel11021811473D
libRbt.so/2013.1/901 2013/11/27
 10  9  0  0  0  0  0  0  0  0999 V2000
   28.7331   14.9273   19.3377 N   0  0  0  0  0  0  0  0  0  0  0  0
   28.4122   14.9080   20.7892 C   0  0  2  0  0  0  0  0  0  0  0  0
   26.9018   14.9199   21.0265 C   0  0  0  0  0  0  0  0  0  0  0  0
   26.4221   14.4987   22.0745 O   0  0  0  0  0  0  0  0  0  0  0  0
   29.1193   16.0639   21.5060 C   0  0  0  0  0  0  0  0  0  0  0  0
   30.6391   15.9885   21.4015 C   0  0  0  0  0  0  0  0  0  0  0  0
   31.3382   17.1410   22.1091 C   0  0  0  0  0  0  0  0  0  0  0  0
   32.8553   17.0475   21.9419 C   0  0  0  0  0  0  0  0  0  0  0  0
   33.6234   18.1699   22.6065 N   0  0  0  0  0  0  0  0  0  0  0  0
   26.1019   15.3779   20.2187 O   0  0  0  0  0  0  0  0  0  0  0  0
  2  1  1  6  0  0  0
  2  3  1  0  0  0  0
  2  5  1  0  0  0  0
  3  4  1  0  0  0  0
  3 10  1  0  0  0  0
  5  6  1  0  0  0  0
  6  7  1  0  0  0  0
  7  8  1  0  0  0  0
  8  9  1  0  0  0  0
M  END
>  <CHROM.1>
157.05908695,-61.13872907,179.74961684,-178.26413888,179.36234704,29.36904079
15.89823848,21.30450317,-2.83581931,0.33834510,1.30497422

>  <Name>
ligand

>  <RI>
0

>  <Rbt.Current_Directory>
/home/itssahil/PROJECTS/Mol_Feturizer/New_Systems/rnas/3DIM

>  <Rbt.Executable>
rbdock ($Id: //depot/dev/client3/rdock/2013.1/src/exe/rbdock.cxx#4 $)

>  <Rbt.Library>
libRbt.so (2013.1, Build901 2013/11/27)

>  <Rbt.Parameter_File>
/export/apps/rDock/src/rDock_2013.1_src/data/scripts/dock_solv.prm

>  <Rbt.Receptor>
prm/pocket_docking_6.prm

>  <SCORE>
-11.4449

>  <SCORE.INTER>
-8.47015

>  <SCORE.INTER.CONST>
1

>  <SCORE.INTER.POLAR>
0

>  <SCORE.INTER.ROT>
5

>  <SCORE.INTER.SOLV>
12.7032

>  <SCORE.INTER.VDW>
-16.8145

>  <SCORE.INTER.norm>
-0.847015

>  <SCORE.INTRA>
-2.97474

>  <SCORE.INTRA.DIHEDRAL>
-4.43023

>  <SCORE.INTRA.DIHEDRAL.0>
5.8785

>  <SCORE.INTRA.POLAR>
0

>  <SCORE.INTRA.POLAR.0>
0

>  <SCORE.INTRA.REPUL>
0

>  <SCORE.INTRA.REPUL.0>
0

>  <SCORE.INTRA.SOLV>
-0.964116

>  <SCORE.INTRA.SOLV.lig_0>
-31.9559

>  <SCORE.INTRA.VDW>
-0.277568

>  <SCORE.INTRA.VDW.0>
-0.507645

>  <SCORE.INTRA.norm>
-0.297474

>  <SCORE.RESTR>
0

>  <SCORE.RESTR.CAVITY>
0

>  <SCORE.RESTR.norm>
0

>  <SCORE.SYSTEM>
0

>  <SCORE.SYSTEM.CONST>
0

>  <SCORE.SYSTEM.DIHEDRAL>
0

>  <SCORE.SYSTEM.SOLV>
0

>  <SCORE.SYSTEM.norm>
0

>  <SCORE.heavy>
10

>  <SCORE.norm>
-1.14449

>  <RMSD>
5.554

$$$$
ligand
 OpenBabel11021811473D
libRbt.so/2013.1/901 2013/11/27
 10  9  0  0  0  0  0  0  0  0999 V2000
   28.7122   14.9046   19.3114 N   0  0  0  0  0  0  0  0  0  0  0  0
   28.3905   14.9004   20.7629 C   0  0  2  0  0  0  0  0  0  0  0  0
   26.8801   14.9276   20.9993 C   0  0  0  0  0  0  0  0  0  0  0  0
   26.3937   14.4905   22.0375 O   0  0  0  0  0  0  0  0  0  0  0  0
   29.1074   16.0562   21.4701 C   0  0  0  0  0  0  0  0  0  0  0  0
   30.6267   15.9623   21.3740 C   0  0  0  0  0  0  0  0  0  0  0  0
   31.3347   17.1329   22.0417 C   0  0  0  0  0  0  0  0  0  0  0  0
   32.8525   17.0055   21.9054 C   0  0  0  0  0  0  0  0  0  0  0  0
   33.6281   18.1644   22.4945 N   0  0  0  0  0  0  0  0  0  0  0  0
   26.0873   15.4136   20.2009 O   0  0  0  0  0  0  0  0  0  0  0  0
  2  1  1  6  0  0  0
  2  3  1  0  0  0  0
  2  5  1  0  0  0  0
  3  4  1  0  0  0  0
  3 10  1  0  0  0  0
  5  6  1  0  0  0  0
  6  7  1  0  0  0  0
  7  8  1  0  0  0  0
  8  9  1  0  0  0  0
M  END
>  <CHROM.1>
155.31584472,-61.46997438,178.30218627,-179.28825057,177.54226695,29.35569086
15.89017508,21.26319265,-2.84276233,0.33388728,1.29898279

>  <Name>
ligand

>  <RI>
0

>  <Rbt.Current_Directory>
/home/itssahil/PROJECTS/Mol_Feturizer/New_Systems/rnas/3DIM

>  <Rbt.Executable>
rbdock ($Id: //depot/dev/client3/rdock/2013.1/src/exe/rbdock.cxx#4 $)

>  <Rbt.Library>
libRbt.so (2013.1, Build901 2013/11/27)

>  <Rbt.Parameter_File>
/export/apps/rDock/src/rDock_2013.1_src/data/scripts/dock_solv.prm

>  <Rbt.Receptor>
prm/pocket_docking_5.prm

>  <SCORE>
-11.4782

>  <SCORE.INTER>
-8.50478

>  <SCORE.INTER.CONST>
1

>  <SCORE.INTER.POLAR>
0

>  <SCORE.INTER.ROT>
5

>  <SCORE.INTER.SOLV>
12.7421

>  <SCORE.INTER.VDW>
-16.8506

>  <SCORE.INTER.norm>
-0.850478

>  <SCORE.INTRA>
-2.97344

>  <SCORE.INTRA.DIHEDRAL>
-4.40516

>  <SCORE.INTRA.DIHEDRAL.0>
5.8785

>  <SCORE.INTRA.POLAR>
0

>  <SCORE.INTRA.POLAR.0>
0

>  <SCORE.INTRA.REPUL>
0

>  <SCORE.INTRA.REPUL.0>
0

>  <SCORE.INTRA.SOLV>
-0.961626

>  <SCORE.INTRA.SOLV.lig_0>
-31.9559

>  <SCORE.INTRA.VDW>
-0.290048

>  <SCORE.INTRA.VDW.0>
-0.507645

>  <SCORE.INTRA.norm>
-0.297344

>  <SCORE.RESTR>
0

>  <SCORE.RESTR.CAVITY>
0

>  <SCORE.RESTR.norm>
0

>  <SCORE.SYSTEM>
0

>  <SCORE.SYSTEM.CONST>
0

>  <SCORE.SYSTEM.DIHEDRAL>
0

>  <SCORE.SYSTEM.SOLV>
0

>  <SCORE.SYSTEM.norm>
0

>  <SCORE.heavy>
10

>  <SCORE.norm>
-1.14782

>  <RMSD>
5.555

$$$$
ligand
 OpenBabel11021811473D
libRbt.so/2013.1/901 2013/11/27
 10  9  0  0  0  0  0  0  0  0999 V2000
   25.9140   14.7878   20.9859 N   0  0  0  0  0  0  0  0  0  0  0  0
   27.1037   15.4922   20.4393 C   0  0  2  0  0  0  0  0  0  0  0  0
   27.5529   14.8802   19.1120 C   0  0  0  0  0  0  0  0  0  0  0  0
   27.2277   13.7394   18.7985 O   0  0  0  0  0  0  0  0  0  0  0  0
   28.2320   15.5148   21.4768 C   0  0  0  0  0  0  0  0  0  0  0  0
   29.4264   16.3564   21.0391 C   0  0  0  0  0  0  0  0  0  0  0  0
   30.5349   16.3967   22.0818 C   0  0  0  0  0  0  0  0  0  0  0  0
   31.7120   17.2445   21.5980 C   0  0  0  0  0  0  0  0  0  0  0  0
   32.8348   17.3796   22.6043 N   0  0  0  0  0  0  0  0  0  0  0  0
   28.2156   15.4938   18.2835 O   0  0  0  0  0  0  0  0  0  0  0  0
  2  1  1  1  0  0  0
  2  3  1  0  0  0  0
  2  5  1  0  0  0  0
  3  4  1  0  0  0  0
  3 10  1  0  0  0  0
  5  6  1  0  0  0  0
  6  7  1  0  0  0  0
  7  8  1  0  0  0  0
  8  9  1  0  0  0  0
M  END
>  <CHROM.1>
-20.55674721,-173.60598414,178.99712594,179.72583507,177.67277919,28.87455987
15.71114895,20.60616048,2.59587882,-0.35866103,-1.79099326

>  <Name>
ligand

>  <RI>
0

>  <Rbt.Current_Directory>
/home/itssahil/PROJECTS/Mol_Feturizer/New_Systems/rnas/3DIM

>  <Rbt.Executable>
rbdock ($Id: //depot/dev/client3/rdock/2013.1/src/exe/rbdock.cxx#4 $)

>  <Rbt.Library>
libRbt.so (2013.1, Build901 2013/11/27)

>  <Rbt.Parameter_File>
/export/apps/rDock/src/rDock_2013.1_src/data/scripts/dock_solv.prm

>  <Rbt.Receptor>
prm/blind_docking_60.prm

>  <SCORE>
-10.4914

>  <SCORE.INTER>
-7.23919

>  <SCORE.INTER.CONST>
1

>  <SCORE.INTER.POLAR>
0

>  <SCORE.INTER.ROT>
5

>  <SCORE.INTER.SOLV>
18.2528

>  <SCORE.INTER.VDW>
-17.8437

>  <SCORE.INTER.norm>
-0.723919

>  <SCORE.INTRA>
-3.25221

>  <SCORE.INTRA.DIHEDRAL>
-4.12663

>  <SCORE.INTRA.DIHEDRAL.0>
5.8785

>  <SCORE.INTRA.POLAR>
0

>  <SCORE.INTRA.POLAR.0>
0

>  <SCORE.INTRA.REPUL>
0

>  <SCORE.INTRA.REPUL.0>
0

>  <SCORE.INTRA.SOLV>
-1.84793

>  <SCORE.INTRA.SOLV.lig_0>
-31.9559

>  <SCORE.INTRA.VDW>
-0.264924

>  <SCORE.INTRA.VDW.0>
-0.507645

>  <SCORE.INTRA.norm>
-0.325221

>  <SCORE.RESTR>
0

>  <SCORE.RESTR.CAVITY>
0

>  <SCORE.RESTR.norm>
0

>  <SCORE.SYSTEM>
0

>  <SCORE.SYSTEM.CONST>
0

>  <SCORE.SYSTEM.DIHEDRAL>
0

>  <SCORE.SYSTEM.SOLV>
0

>  <SCORE.SYSTEM.norm>
0

>  <SCORE.heavy>
10

>  <SCORE.norm>
-1.04914

>  <RMSD>
5.556

$$$$
ligand
 OpenBabel11021811473D
libRbt.so/2013.1/901 2013/11/27
 10  9  0  0  0  0  0  0  0  0999 V2000
   28.6787   14.9741   19.2947 N   0  0  0  0  0  0  0  0  0  0  0  0
   28.3849   14.8957   20.7500 C   0  0  2  0  0  0  0  0  0  0  0  0
   26.8791   14.8938   21.0155 C   0  0  0  0  0  0  0  0  0  0  0  0
   26.4200   14.4315   22.0552 O   0  0  0  0  0  0  0  0  0  0  0  0
   29.1027   16.0241   21.4993 C   0  0  0  0  0  0  0  0  0  0  0  0
   30.6189   15.9738   21.3406 C   0  0  0  0  0  0  0  0  0  0  0  0
   31.3260   17.1188   22.0522 C   0  0  0  0  0  0  0  0  0  0  0  0
   32.8335   17.0737   21.7995 C   0  0  0  0  0  0  0  0  0  0  0  0
   33.6088   18.1883   22.4689 N   0  0  0  0  0  0  0  0  0  0  0  0
   26.0632   15.3797   20.2406 O   0  0  0  0  0  0  0  0  0  0  0  0
  2  1  1  6  0  0  0
  2  3  1  0  0  0  0
  2  5  1  0  0  0  0
  3  4  1  0  0  0  0
  3 10  1  0  0  0  0
  5  6  1  0  0  0  0
  6  7  1  0  0  0  0
  7  8  1  0  0  0  0
  8  9  1  0  0  0  0
M  END
>  <CHROM.1>
157.17008657,-59.97193940,178.32422466,-176.73688666,179.64485775,29.34611256
15.88893792,21.25581508,-2.86545043,0.35722617,1.34308883

>  <Name>
ligand

>  <RI>
0

>  <Rbt.Current_Directory>
/home/itssahil/PROJECTS/Mol_Feturizer/New_Systems/rnas/3DIM

>  <Rbt.Executable>
rbdock ($Id: //depot/dev/client3/rdock/2013.1/src/exe/rbdock.cxx#4 $)

>  <Rbt.Library>
libRbt.so (2013.1, Build901 2013/11/27)

>  <Rbt.Parameter_File>
/export/apps/rDock/src/rDock_2013.1_src/data/scripts/dock_solv.prm

>  <Rbt.Receptor>
prm/pocket_docking_7.prm

>  <SCORE>
-11.362

>  <SCORE.INTER>
-8.43008

>  <SCORE.INTER.CONST>
1

>  <SCORE.INTER.POLAR>
0

>  <SCORE.INTER.ROT>
5

>  <SCORE.INTER.SOLV>
12.751

>  <SCORE.INTER.VDW>
-16.8037

>  <SCORE.INTER.norm>
-0.843008

>  <SCORE.INTRA>
-2.93197

>  <SCORE.INTRA.DIHEDRAL>
-4.39555

>  <SCORE.INTRA.DIHEDRAL.0>
5.8785

>  <SCORE.INTRA.POLAR>
0

>  <SCORE.INTRA.POLAR.0>
0

>  <SCORE.INTRA.REPUL>
0

>  <SCORE.INTRA.REPUL.0>
0

>  <SCORE.INTRA.SOLV>
-0.941799

>  <SCORE.INTRA.SOLV.lig_0>
-31.9559

>  <SCORE.INTRA.VDW>
-0.263295

>  <SCORE.INTRA.VDW.0>
-0.507645

>  <SCORE.INTRA.norm>
-0.293197

>  <SCORE.RESTR>
0

>  <SCORE.RESTR.CAVITY>
0

>  <SCORE.RESTR.norm>
0

>  <SCORE.SYSTEM>
0

>  <SCORE.SYSTEM.CONST>
0

>  <SCORE.SYSTEM.DIHEDRAL>
0

>  <SCORE.SYSTEM.SOLV>
0

>  <SCORE.SYSTEM.norm>
0

>  <SCORE.heavy>
10

>  <SCORE.norm>
-1.1362

>  <RMSD>
5.556

$$$$
ligand
 OpenBabel11021811473D
libRbt.so/2013.1/901 2013/11/27
 10  9  0  0  0  0  0  0  0  0999 V2000
   28.8291   14.6028   19.4878 N   0  0  0  0  0  0  0  0  0  0  0  0
   28.4004   14.8496   20.8898 C   0  0  2  0  0  0  0  0  0  0  0  0
   26.8789   14.9580   20.9967 C   0  0  0  0  0  0  0  0  0  0  0  0
   26.2195   15.5023   20.1167 O   0  0  0  0  0  0  0  0  0  0  0  0
   29.1092   16.0866   21.4531 C   0  0  0  0  0  0  0  0  0  0  0  0
   30.6235   15.9213   21.5309 C   0  0  0  0  0  0  0  0  0  0  0  0
   31.3284   17.1672   22.0488 C   0  0  0  0  0  0  0  0  0  0  0  0
   32.8461   16.9813   22.0417 C   0  0  0  0  0  0  0  0  0  0  0  0
   33.6234   18.2036   22.4814 N   0  0  0  0  0  0  0  0  0  0  0  0
   26.2387   14.4825   21.9274 O   0  0  0  0  0  0  0  0  0  0  0  0
  2  1  1  6  0  0  0
  2  3  1  0  0  0  0
  2  5  1  0  0  0  0
  3  4  1  0  0  0  0
  3 10  1  0  0  0  0
  5  6  1  0  0  0  0
  6  7  1  0  0  0  0
  7  8  1  0  0  0  0
  8  9  1  0  0  0  0
M  END
>  <CHROM.1>
-37.12688088,-63.02136159,178.16580859,-177.07965980,177.21270588,29.36365327
15.87111811,21.29703459,-2.77892757,0.27725243,1.11913812

>  <Name>
ligand

>  <RI>
0

>  <Rbt.Current_Directory>
/home/itssahil/PROJECTS/Mol_Feturizer/New_Systems/rnas/3DIM

>  <Rbt.Executable>
rbdock ($Id: //depot/dev/client3/rdock/2013.1/src/exe/rbdock.cxx#4 $)

>  <Rbt.Library>
libRbt.so (2013.1, Build901 2013/11/27)

>  <Rbt.Parameter_File>
/export/apps/rDock/src/rDock_2013.1_src/data/scripts/dock_solv.prm

>  <Rbt.Receptor>
prm/blind_docking_60.prm

>  <SCORE>
-11.3504

>  <SCORE.INTER>
-8.4508

>  <SCORE.INTER.CONST>
1

>  <SCORE.INTER.POLAR>
0

>  <SCORE.INTER.ROT>
5

>  <SCORE.INTER.SOLV>
13.1416

>  <SCORE.INTER.VDW>
-16.9477

>  <SCORE.INTER.norm>
-0.84508

>  <SCORE.INTRA>
-2.89957

>  <SCORE.INTRA.DIHEDRAL>
-4.17687

>  <SCORE.INTRA.DIHEDRAL.0>
5.8785

>  <SCORE.INTRA.POLAR>
0

>  <SCORE.INTRA.POLAR.0>
0

>  <SCORE.INTRA.REPUL>
0

>  <SCORE.INTRA.REPUL.0>
0

>  <SCORE.INTRA.SOLV>
-0.963436

>  <SCORE.INTRA.SOLV.lig_0>
-31.9559

>  <SCORE.INTRA.VDW>
-0.329416

>  <SCORE.INTRA.VDW.0>
-0.507645

>  <SCORE.INTRA.norm>
-0.289957

>  <SCORE.RESTR>
0

>  <SCORE.RESTR.CAVITY>
0

>  <SCORE.RESTR.norm>
0

>  <SCORE.SYSTEM>
0

>  <SCORE.SYSTEM.CONST>
0

>  <SCORE.SYSTEM.DIHEDRAL>
0

>  <SCORE.SYSTEM.SOLV>
0

>  <SCORE.SYSTEM.norm>
0

>  <SCORE.heavy>
10

>  <SCORE.norm>
-1.13504

>  <RMSD>
5.557

$$$$
ligand
 OpenBabel11021811473D
libRbt.so/2013.1/901 2013/11/27
 10  9  0  0  0  0  0  0  0  0999 V2000
   27.0568   14.3206   20.9063 N   0  0  0  0  0  0  0  0  0  0  0  0
   27.2374   15.2993   19.8018 C   0  0  2  0  0  0  0  0  0  0  0  0
   27.6894   14.6096   18.5142 C   0  0  0  0  0  0  0  0  0  0  0  0
   27.3843   13.4445   18.2791 O   0  0  0  0  0  0  0  0  0  0  0  0
   28.1998   16.4130   20.2297 C   0  0  0  0  0  0  0  0  0  0  0  0
   29.5611   15.8861   20.6720 C   0  0  0  0  0  0  0  0  0  0  0  0
   30.4792   16.9835   21.1921 C   0  0  0  0  0  0  0  0  0  0  0  0
   31.8309   16.4105   21.6196 C   0  0  0  0  0  0  0  0  0  0  0  0
   32.7897   17.4368   22.1844 N   0  0  0  0  0  0  0  0  0  0  0  0
   28.3345   15.1795   17.6417 O   0  0  0  0  0  0  0  0  0  0  0  0
  2  1  1  1  0  0  0
  2  3  1  0  0  0  0
  2  5  1  0  0  0  0
  3  4  1  0  0  0  0
  3 10  1  0  0  0  0
  5  6  1  0  0  0  0
  6  7  1  0  0  0  0
  7  8  1  0  0  0  0
  8  9  1  0  0  0  0
M  END
>  <CHROM.1>
28.48114378,57.03030954,-175.80237100,-179.85268521,-178.46740316,29.05509807
15.57856624,20.06860652,2.50677095,-0.39943748,-1.79814288

>  <Name>
ligand

>  <RI>
0

>  <Rbt.Current_Directory>
/home/itssahil/PROJECTS/Mol_Feturizer/New_Systems/rnas/3DIM

>  <Rbt.Executable>
rbdock ($Id: //depot/dev/client3/rdock/2013.1/src/exe/rbdock.cxx#4 $)

>  <Rbt.Library>
libRbt.so (2013.1, Build901 2013/11/27)

>  <Rbt.Parameter_File>
/export/apps/rDock/src/rDock_2013.1_src/data/scripts/dock_solv.prm

>  <Rbt.Receptor>
prm/pocket_docking_7.prm

>  <SCORE>
-10.813

>  <SCORE.INTER>
-8.35483

>  <SCORE.INTER.CONST>
1

>  <SCORE.INTER.POLAR>
0

>  <SCORE.INTER.ROT>
5

>  <SCORE.INTER.SOLV>
15.1161

>  <SCORE.INTER.VDW>
-17.5419

>  <SCORE.INTER.norm>
-0.835483

>  <SCORE.INTRA>
-2.4582

>  <SCORE.INTRA.DIHEDRAL>
-4.33007

>  <SCORE.INTRA.DIHEDRAL.0>
5.8785

>  <SCORE.INTRA.POLAR>
0

>  <SCORE.INTRA.POLAR.0>
0

>  <SCORE.INTRA.REPUL>
0

>  <SCORE.INTRA.REPUL.0>
0

>  <SCORE.INTRA.SOLV>
-0.886239

>  <SCORE.INTRA.SOLV.lig_0>
-31.9559

>  <SCORE.INTRA.VDW>
0.149956

>  <SCORE.INTRA.VDW.0>
-0.507645

>  <SCORE.INTRA.norm>
-0.24582

>  <SCORE.RESTR>
0

>  <SCORE.RESTR.CAVITY>
0

>  <SCORE.RESTR.norm>
0

>  <SCORE.SYSTEM>
0

>  <SCORE.SYSTEM.CONST>
0

>  <SCORE.SYSTEM.DIHEDRAL>
0

>  <SCORE.SYSTEM.SOLV>
0

>  <SCORE.SYSTEM.norm>
0

>  <SCORE.heavy>
10

>  <SCORE.norm>
-1.0813

>  <RMSD>
5.557

$$$$
ligand
 OpenBabel11021811473D
libRbt.so/2013.1/901 2013/11/27
 10  9  0  0  0  0  0  0  0  0999 V2000
   28.7846   14.9384   19.3940 N   0  0  0  0  0  0  0  0  0  0  0  0
   28.4135   14.9075   20.8333 C   0  0  2  0  0  0  0  0  0  0  0  0
   26.8961   14.9395   21.0187 C   0  0  0  0  0  0  0  0  0  0  0  0
   26.1621   15.4061   20.1531 O   0  0  0  0  0  0  0  0  0  0  0  0
   29.1123   16.0445   21.5876 C   0  0  0  0  0  0  0  0  0  0  0  0
   30.6310   16.0035   21.4522 C   0  0  0  0  0  0  0  0  0  0  0  0
   31.3181   17.1703   22.1479 C   0  0  0  0  0  0  0  0  0  0  0  0
   32.8342   17.1049   21.9598 C   0  0  0  0  0  0  0  0  0  0  0  0
   33.5891   18.2508   22.5989 N   0  0  0  0  0  0  0  0  0  0  0  0
   26.3330   14.4746   22.0031 O   0  0  0  0  0  0  0  0  0  0  0  0
  2  1  1  6  0  0  0
  2  3  1  0  0  0  0
  2  5  1  0  0  0  0
  3  4  1  0  0  0  0
  3 10  1  0  0  0  0
  5  6  1  0  0  0  0
  6  7  1  0  0  0  0
  7  8  1  0  0  0  0
  8  9  1  0  0  0  0
M  END
>  <CHROM.1>
-23.80661136,-57.07049732,177.32043022,-178.74030250,178.73594215,29.36151986
15.91763284,21.31598364,-2.82734585,0.34420391,1.29693564

>  <Name>
ligand

>  <RI>
0

>  <Rbt.Current_Directory>
/home/itssahil/PROJECTS/Mol_Feturizer/New_Systems/rnas/3DIM

>  <Rbt.Executable>
rbdock ($Id: //depot/dev/client3/rdock/2013.1/src/exe/rbdock.cxx#4 $)

>  <Rbt.Library>
libRbt.so (2013.1, Build901 2013/11/27)

>  <Rbt.Parameter_File>
/export/apps/rDock/src/rDock_2013.1_src/data/scripts/dock_solv.prm

>  <Rbt.Receptor>
prm/pocket_docking_8.prm

>  <SCORE>
-11.2632

>  <SCORE.INTER>
-8.49985

>  <SCORE.INTER.CONST>
1

>  <SCORE.INTER.POLAR>
0

>  <SCORE.INTER.ROT>
5

>  <SCORE.INTER.SOLV>
12.6699

>  <SCORE.INTER.VDW>
-16.8232

>  <SCORE.INTER.norm>
-0.849985

>  <SCORE.INTRA>
-2.76337

>  <SCORE.INTRA.DIHEDRAL>
-4.2225

>  <SCORE.INTRA.DIHEDRAL.0>
5.8785

>  <SCORE.INTRA.POLAR>
0

>  <SCORE.INTRA.POLAR.0>
0

>  <SCORE.INTRA.REPUL>
0

>  <SCORE.INTRA.REPUL.0>
0

>  <SCORE.INTRA.SOLV>
-0.878402

>  <SCORE.INTRA.SOLV.lig_0>
-31.9559

>  <SCORE.INTRA.VDW>
-0.212913

>  <SCORE.INTRA.VDW.0>
-0.507645

>  <SCORE.INTRA.norm>
-0.276337

>  <SCORE.RESTR>
0

>  <SCORE.RESTR.CAVITY>
0

>  <SCORE.RESTR.norm>
0

>  <SCORE.SYSTEM>
0

>  <SCORE.SYSTEM.CONST>
0

>  <SCORE.SYSTEM.DIHEDRAL>
0

>  <SCORE.SYSTEM.SOLV>
0

>  <SCORE.SYSTEM.norm>
0

>  <SCORE.heavy>
10

>  <SCORE.norm>
-1.12632

>  <RMSD>
5.557

$$$$
ligand
 OpenBabel11021811473D
libRbt.so/2013.1/901 2013/11/27
 10  9  0  0  0  0  0  0  0  0999 V2000
   28.8180   14.6069   19.4579 N   0  0  0  0  0  0  0  0  0  0  0  0
   28.4019   14.8449   20.8652 C   0  0  2  0  0  0  0  0  0  0  0  0
   26.8803   14.9283   20.9902 C   0  0  0  0  0  0  0  0  0  0  0  0
   26.1979   15.4244   20.0992 O   0  0  0  0  0  0  0  0  0  0  0  0
   29.0970   16.0927   21.4219 C   0  0  0  0  0  0  0  0  0  0  0  0
   30.6170   15.9679   21.4429 C   0  0  0  0  0  0  0  0  0  0  0  0
   31.3048   17.2128   21.9857 C   0  0  0  0  0  0  0  0  0  0  0  0
   32.8255   17.0537   21.9610 C   0  0  0  0  0  0  0  0  0  0  0  0
   33.5845   18.2635   22.4631 N   0  0  0  0  0  0  0  0  0  0  0  0
   26.2626   14.4780   21.9483 O   0  0  0  0  0  0  0  0  0  0  0  0
  2  1  1  6  0  0  0
  2  3  1  0  0  0  0
  2  5  1  0  0  0  0
  3  4  1  0  0  0  0
  3 10  1  0  0  0  0
  5  6  1  0  0  0  0
  6  7  1  0  0  0  0
  7  8  1  0  0  0  0
  8  9  1  0  0  0  0
M  END
>  <CHROM.1>
-34.76708028,-61.30956620,179.53752516,-178.82879653,178.93222362,29.35295911
15.88213195,21.26367880,-2.78064207,0.29631042,1.12539912

>  <Name>
ligand

>  <RI>
0

>  <Rbt.Current_Directory>
/home/itssahil/PROJECTS/Mol_Feturizer/New_Systems/rnas/3DIM

>  <Rbt.Executable>
rbdock ($Id: //depot/dev/client3/rdock/2013.1/src/exe/rbdock.cxx#4 $)

>  <Rbt.Library>
libRbt.so (2013.1, Build901 2013/11/27)

>  <Rbt.Parameter_File>
/export/apps/rDock/src/rDock_2013.1_src/data/scripts/dock_solv.prm

>  <Rbt.Receptor>
prm/pocket_docking_6.prm

>  <SCORE>
-11.3762

>  <SCORE.INTER>
-8.46056

>  <SCORE.INTER.CONST>
1

>  <SCORE.INTER.POLAR>
0

>  <SCORE.INTER.ROT>
5

>  <SCORE.INTER.SOLV>
13.1405

>  <SCORE.INTER.VDW>
-16.9539

>  <SCORE.INTER.norm>
-0.846056

>  <SCORE.INTRA>
-2.91564

>  <SCORE.INTRA.DIHEDRAL>
-4.27413

>  <SCORE.INTRA.DIHEDRAL.0>
5.8785

>  <SCORE.INTRA.POLAR>
0

>  <SCORE.INTRA.POLAR.0>
0

>  <SCORE.INTRA.REPUL>
0

>  <SCORE.INTRA.REPUL.0>
0

>  <SCORE.INTRA.SOLV>
-0.947438

>  <SCORE.INTRA.SOLV.lig_0>
-31.9559

>  <SCORE.INTRA.VDW>
-0.304857

>  <SCORE.INTRA.VDW.0>
-0.507645

>  <SCORE.INTRA.norm>
-0.291564

>  <SCORE.RESTR>
0

>  <SCORE.RESTR.CAVITY>
0

>  <SCORE.RESTR.norm>
0

>  <SCORE.SYSTEM>
0

>  <SCORE.SYSTEM.CONST>
0

>  <SCORE.SYSTEM.DIHEDRAL>
0

>  <SCORE.SYSTEM.SOLV>
0

>  <SCORE.SYSTEM.norm>
0

>  <SCORE.heavy>
10

>  <SCORE.norm>
-1.13762

>  <RMSD>
5.560

$$$$
ligand
 OpenBabel11021811473D
libRbt.so/2013.1/901 2013/11/27
 10  9  0  0  0  0  0  0  0  0999 V2000
   28.8472   14.6127   19.5025 N   0  0  0  0  0  0  0  0  0  0  0  0
   28.3839   14.8348   20.8975 C   0  0  2  0  0  0  0  0  0  0  0  0
   26.8595   14.9298   20.9703 C   0  0  0  0  0  0  0  0  0  0  0  0
   26.2426   14.4845   21.9329 O   0  0  0  0  0  0  0  0  0  0  0  0
   29.0694   16.0685   21.4959 C   0  0  0  0  0  0  0  0  0  0  0  0
   30.5830   15.9145   21.6044 C   0  0  0  0  0  0  0  0  0  0  0  0
   31.2630   17.1492   22.1796 C   0  0  0  0  0  0  0  0  0  0  0  0
   32.7831   16.9838   22.1881 C   0  0  0  0  0  0  0  0  0  0  0  0
   33.5361   18.1913   22.7047 N   0  0  0  0  0  0  0  0  0  0  0  0
   26.1824   15.4802   20.1097 O   0  0  0  0  0  0  0  0  0  0  0  0
  2  1  1  6  0  0  0
  2  3  1  0  0  0  0
  2  5  1  0  0  0  0
  3  4  1  0  0  0  0
  3 10  1  0  0  0  0
  5  6  1  0  0  0  0
  6  7  1  0  0  0  0
  7  8  1  0  0  0  0
  8  9  1  0  0  0  0
M  END
>  <CHROM.1>
144.64193647,-62.92232182,179.14117872,-176.43765587,178.07937415,29.32909044
15.86082040,21.35804915,-2.75193684,0.26855731,1.12262287

>  <Name>
ligand

>  <RI>
0

>  <Rbt.Current_Directory>
/home/itssahil/PROJECTS/Mol_Feturizer/New_Systems/rnas/3DIM

>  <Rbt.Executable>
rbdock ($Id: //depot/dev/client3/rdock/2013.1/src/exe/rbdock.cxx#4 $)

>  <Rbt.Library>
libRbt.so (2013.1, Build901 2013/11/27)

>  <Rbt.Parameter_File>
/export/apps/rDock/src/rDock_2013.1_src/data/scripts/dock_solv.prm

>  <Rbt.Receptor>
prm/blind_docking_60.prm

>  <SCORE>
-11.3683

>  <SCORE.INTER>
-8.36306

>  <SCORE.INTER.CONST>
1

>  <SCORE.INTER.POLAR>
0

>  <SCORE.INTER.ROT>
5

>  <SCORE.INTER.SOLV>
13.1766

>  <SCORE.INTER.VDW>
-16.9009

>  <SCORE.INTER.norm>
-0.836306

>  <SCORE.INTRA>
-3.00523

>  <SCORE.INTRA.DIHEDRAL>
-4.33923

>  <SCORE.INTRA.DIHEDRAL.0>
5.8785

>  <SCORE.INTRA.POLAR>
0

>  <SCORE.INTRA.POLAR.0>
0

>  <SCORE.INTRA.REPUL>
0

>  <SCORE.INTRA.REPUL.0>
0

>  <SCORE.INTRA.SOLV>
-0.990438

>  <SCORE.INTRA.SOLV.lig_0>
-31.9559

>  <SCORE.INTRA.VDW>
-0.340394

>  <SCORE.INTRA.VDW.0>
-0.507645

>  <SCORE.INTRA.norm>
-0.300523

>  <SCORE.RESTR>
0

>  <SCORE.RESTR.CAVITY>
0

>  <SCORE.RESTR.norm>
0

>  <SCORE.SYSTEM>
0

>  <SCORE.SYSTEM.CONST>
0

>  <SCORE.SYSTEM.DIHEDRAL>
0

>  <SCORE.SYSTEM.SOLV>
0

>  <SCORE.SYSTEM.norm>
0

>  <SCORE.heavy>
10

>  <SCORE.norm>
-1.13683

>  <RMSD>
5.566

$$$$
ligand
 OpenBabel11021811473D
libRbt.so/2013.1/901 2013/11/27
 10  9  0  0  0  0  0  0  0  0999 V2000
   28.7096   14.9811   19.3587 N   0  0  0  0  0  0  0  0  0  0  0  0
   28.3656   14.9208   20.8038 C   0  0  2  0  0  0  0  0  0  0  0  0
   26.8515   14.9136   21.0167 C   0  0  0  0  0  0  0  0  0  0  0  0
   26.3600   14.4808   22.0544 O   0  0  0  0  0  0  0  0  0  0  0  0
   29.0507   16.0634   21.5620 C   0  0  0  0  0  0  0  0  0  0  0  0
   30.5719   16.0180   21.4596 C   0  0  0  0  0  0  0  0  0  0  0  0
   31.2479   17.1740   22.1836 C   0  0  0  0  0  0  0  0  0  0  0  0
   32.7650   17.1244   21.9989 C   0  0  0  0  0  0  0  0  0  0  0  0
   33.5069   18.2759   22.6434 N   0  0  0  0  0  0  0  0  0  0  0  0
   26.0593   15.3668   20.1986 O   0  0  0  0  0  0  0  0  0  0  0  0
  2  1  1  6  0  0  0
  2  3  1  0  0  0  0
  2  5  1  0  0  0  0
  3  4  1  0  0  0  0
  3 10  1  0  0  0  0
  5  6  1  0  0  0  0
  6  7  1  0  0  0  0
  7  8  1  0  0  0  0
  8  9  1  0  0  0  0
M  END
>  <CHROM.1>
158.25075442,-60.10973935,178.52967990,-177.32344709,177.61088764,29.30327347
15.92526181,21.33061244,-2.82679652,0.35337965,1.31489731

>  <Name>
ligand

>  <RI>
0

>  <Rbt.Current_Directory>
/home/itssahil/PROJECTS/Mol_Feturizer/New_Systems/rnas/3DIM

>  <Rbt.Executable>
rbdock ($Id: //depot/dev/client3/rdock/2013.1/src/exe/rbdock.cxx#4 $)

>  <Rbt.Library>
libRbt.so (2013.1, Build901 2013/11/27)

>  <Rbt.Parameter_File>
/export/apps/rDock/src/rDock_2013.1_src/data/scripts/dock_solv.prm

>  <Rbt.Receptor>
prm/pocket_docking_4.prm

>  <SCORE>
-11.3735

>  <SCORE.INTER>
-8.44701

>  <SCORE.INTER.CONST>
1

>  <SCORE.INTER.POLAR>
0

>  <SCORE.INTER.ROT>
5

>  <SCORE.INTER.SOLV>
12.7121

>  <SCORE.INTER.VDW>
-16.802

>  <SCORE.INTER.norm>
-0.844701

>  <SCORE.INTRA>
-2.92649

>  <SCORE.INTRA.DIHEDRAL>
-4.38994

>  <SCORE.INTRA.DIHEDRAL.0>
5.8785

>  <SCORE.INTRA.POLAR>
0

>  <SCORE.INTRA.POLAR.0>
0

>  <SCORE.INTRA.REPUL>
0

>  <SCORE.INTRA.REPUL.0>
0

>  <SCORE.INTRA.SOLV>
-0.943772

>  <SCORE.INTRA.SOLV.lig_0>
-31.9559

>  <SCORE.INTRA.VDW>
-0.25963

>  <SCORE.INTRA.VDW.0>
-0.507645

>  <SCORE.INTRA.norm>
-0.292649

>  <SCORE.RESTR>
0

>  <SCORE.RESTR.CAVITY>
0

>  <SCORE.RESTR.norm>
0

>  <SCORE.SYSTEM>
0

>  <SCORE.SYSTEM.CONST>
0

>  <SCORE.SYSTEM.DIHEDRAL>
0

>  <SCORE.SYSTEM.SOLV>
0

>  <SCORE.SYSTEM.norm>
0

>  <SCORE.heavy>
10

>  <SCORE.norm>
-1.13735

>  <RMSD>
5.568

$$$$
ligand
 OpenBabel11021811473D
libRbt.so/2013.1/901 2013/11/27
 10  9  0  0  0  0  0  0  0  0999 V2000
   28.7008   14.9387   19.3135 N   0  0  0  0  0  0  0  0  0  0  0  0
   28.3554   14.9266   20.7595 C   0  0  2  0  0  0  0  0  0  0  0  0
   26.8411   14.9242   20.9710 C   0  0  0  0  0  0  0  0  0  0  0  0
   26.0823   15.3800   20.1211 O   0  0  0  0  0  0  0  0  0  0  0  0
   29.0380   16.0952   21.4795 C   0  0  0  0  0  0  0  0  0  0  0  0
   30.5602   16.0020   21.4551 C   0  0  0  0  0  0  0  0  0  0  0  0
   31.2350   17.1620   22.1738 C   0  0  0  0  0  0  0  0  0  0  0  0
   32.7575   17.0311   22.1167 C   0  0  0  0  0  0  0  0  0  0  0  0
   33.5041   18.1915   22.7394 N   0  0  0  0  0  0  0  0  0  0  0  0
   26.3053   14.4411   21.9618 O   0  0  0  0  0  0  0  0  0  0  0  0
  2  1  1  6  0  0  0
  2  3  1  0  0  0  0
  2  5  1  0  0  0  0
  3  4  1  0  0  0  0
  3 10  1  0  0  0  0
  5  6  1  0  0  0  0
  6  7  1  0  0  0  0
  7  8  1  0  0  0  0
  8  9  1  0  0  0  0
M  END
>  <CHROM.1>
-25.28662187,-63.71095012,-179.85924801,-179.66344314,176.55305045,29.29224909
15.90221062,21.31049567,-2.80669160,0.33932190,1.31420704

>  <Name>
ligand

>  <RI>
0

>  <Rbt.Current_Directory>
/home/itssahil/PROJECTS/Mol_Feturizer/New_Systems/rnas/3DIM

>  <Rbt.Executable>
rbdock ($Id: //depot/dev/client3/rdock/2013.1/src/exe/rbdock.cxx#4 $)

>  <Rbt.Library>
libRbt.so (2013.1, Build901 2013/11/27)

>  <Rbt.Parameter_File>
/export/apps/rDock/src/rDock_2013.1_src/data/scripts/dock_solv.prm

>  <Rbt.Receptor>
prm/pocket_docking_4.prm

>  <SCORE>
-11.2502

>  <SCORE.INTER>
-8.36932

>  <SCORE.INTER.CONST>
1

>  <SCORE.INTER.POLAR>
0

>  <SCORE.INTER.ROT>
5

>  <SCORE.INTER.SOLV>
12.8042

>  <SCORE.INTER.VDW>
-16.7809

>  <SCORE.INTER.norm>
-0.836932

>  <SCORE.INTRA>
-2.88089

>  <SCORE.INTRA.DIHEDRAL>
-4.18287

>  <SCORE.INTRA.DIHEDRAL.0>
5.8785

>  <SCORE.INTRA.POLAR>
0

>  <SCORE.INTRA.POLAR.0>
0

>  <SCORE.INTRA.REPUL>
0

>  <SCORE.INTRA.REPUL.0>
0

>  <SCORE.INTRA.SOLV>
-0.978273

>  <SCORE.INTRA.SOLV.lig_0>
-31.9559

>  <SCORE.INTRA.VDW>
-0.300313

>  <SCORE.INTRA.VDW.0>
-0.507645

>  <SCORE.INTRA.norm>
-0.288089

>  <SCORE.RESTR>
0

>  <SCORE.RESTR.CAVITY>
0

>  <SCORE.RESTR.norm>
0

>  <SCORE.SYSTEM>
0

>  <SCORE.SYSTEM.CONST>
0

>  <SCORE.SYSTEM.DIHEDRAL>
0

>  <SCORE.SYSTEM.SOLV>
0

>  <SCORE.SYSTEM.norm>
0

>  <SCORE.heavy>
10

>  <SCORE.norm>
-1.12502

>  <RMSD>
5.579

$$$$
ligand
 OpenBabel11021811473D
libRbt.so/2013.1/901 2013/11/27
 10  9  0  0  0  0  0  0  0  0999 V2000
   28.6318   15.1511   19.2699 N   0  0  0  0  0  0  0  0  0  0  0  0
   28.3310   14.9752   20.7152 C   0  0  2  0  0  0  0  0  0  0  0  0
   26.8239   14.9459   20.9715 C   0  0  0  0  0  0  0  0  0  0  0  0
   26.0321   15.3861   20.1438 O   0  0  0  0  0  0  0  0  0  0  0  0
   29.0370   16.0566   21.5411 C   0  0  0  0  0  0  0  0  0  0  0  0
   30.5555   16.0145   21.4030 C   0  0  0  0  0  0  0  0  0  0  0  0
   31.2497   17.1327   22.1681 C   0  0  0  0  0  0  0  0  0  0  0  0
   32.7653   17.0705   21.9744 C   0  0  0  0  0  0  0  0  0  0  0  0
   33.5279   18.1659   22.6886 N   0  0  0  0  0  0  0  0  0  0  0  0
   26.3266   14.4551   21.9784 O   0  0  0  0  0  0  0  0  0  0  0  0
  2  1  1  6  0  0  0
  2  3  1  0  0  0  0
  2  5  1  0  0  0  0
  3  4  1  0  0  0  0
  3 10  1  0  0  0  0
  5  6  1  0  0  0  0
  6  7  1  0  0  0  0
  7  8  1  0  0  0  0
  8  9  1  0  0  0  0
M  END
>  <CHROM.1>
-18.63241287,-60.76926752,177.09978238,-178.66664636,179.09402848,29.28244574
15.92776915,21.28776823,-2.85231558,0.36101752,1.40744310

>  <Name>
ligand

>  <RI>
0

>  <Rbt.Current_Directory>
/home/itssahil/PROJECTS/Mol_Feturizer/New_Systems/rnas/3DIM

>  <Rbt.Executable>
rbdock ($Id: //depot/dev/client3/rdock/2013.1/src/exe/rbdock.cxx#4 $)

>  <Rbt.Library>
libRbt.so (2013.1, Build901 2013/11/27)

>  <Rbt.Parameter_File>
/export/apps/rDock/src/rDock_2013.1_src/data/scripts/dock_solv.prm

>  <Rbt.Receptor>
prm/pocket_docking_8.prm

>  <SCORE>
-11.1811

>  <SCORE.INTER>
-8.35707

>  <SCORE.INTER.CONST>
1

>  <SCORE.INTER.POLAR>
0

>  <SCORE.INTER.ROT>
5

>  <SCORE.INTER.SOLV>
12.7224

>  <SCORE.INTER.VDW>
-16.7455

>  <SCORE.INTER.norm>
-0.835707

>  <SCORE.INTRA>
-2.82405

>  <SCORE.INTRA.DIHEDRAL>
-4.25025

>  <SCORE.INTRA.DIHEDRAL.0>
5.8785

>  <SCORE.INTRA.POLAR>
0

>  <SCORE.INTRA.POLAR.0>
0

>  <SCORE.INTRA.REPUL>
0

>  <SCORE.INTRA.REPUL.0>
0

>  <SCORE.INTRA.SOLV>
-0.923361

>  <SCORE.INTRA.SOLV.lig_0>
-31.9559

>  <SCORE.INTRA.VDW>
-0.237248

>  <SCORE.INTRA.VDW.0>
-0.507645

>  <SCORE.INTRA.norm>
-0.282405

>  <SCORE.RESTR>
0

>  <SCORE.RESTR.CAVITY>
0

>  <SCORE.RESTR.norm>
0

>  <SCORE.SYSTEM>
0

>  <SCORE.SYSTEM.CONST>
0

>  <SCORE.SYSTEM.DIHEDRAL>
0

>  <SCORE.SYSTEM.SOLV>
0

>  <SCORE.SYSTEM.norm>
0

>  <SCORE.heavy>
10

>  <SCORE.norm>
-1.11811

>  <RMSD>
5.580

$$$$
ligand
 OpenBabel11021811473D
libRbt.so/2013.1/901 2013/11/27
 10  9  0  0  0  0  0  0  0  0999 V2000
   26.6280   14.5095   21.2290 N   0  0  0  0  0  0  0  0  0  0  0  0
   27.0409   15.1391   19.9471 C   0  0  2  0  0  0  0  0  0  0  0  0
   27.6229   14.1068   18.9809 C   0  0  0  0  0  0  0  0  0  0  0  0
   28.7415   13.6343   19.1575 O   0  0  0  0  0  0  0  0  0  0  0  0
   28.0115   16.2960   20.2107 C   0  0  0  0  0  0  0  0  0  0  0  0
   29.2298   15.8767   21.0271 C   0  0  0  0  0  0  0  0  0  0  0  0
   30.2197   17.0138   21.2381 C   0  0  0  0  0  0  0  0  0  0  0  0
   31.4142   16.5525   22.0740 C   0  0  0  0  0  0  0  0  0  0  0  0
   32.4547   17.6254   22.3149 N   0  0  0  0  0  0  0  0  0  0  0  0
   27.0043   13.6699   18.0173 O   0  0  0  0  0  0  0  0  0  0  0  0
  2  1  1  1  0  0  0
  2  3  1  0  0  0  0
  2  5  1  0  0  0  0
  3  4  1  0  0  0  0
  3 10  1  0  0  0  0
  5  6  1  0  0  0  0
  6  7  1  0  0  0  0
  7  8  1  0  0  0  0
  8  9  1  0  0  0  0
M  END
>  <CHROM.1>
-73.82973622,55.29313377,177.62117882,179.32124378,179.31835466,28.83976612
15.41343442,20.39196769,2.37032952,-0.11363700,-2.26958557

>  <Name>
ligand

>  <RI>
0

>  <Rbt.Current_Directory>
/home/itssahil/PROJECTS/Mol_Feturizer/New_Systems/rnas/3DIM

>  <Rbt.Executable>
rbdock ($Id: //depot/dev/client3/rdock/2013.1/src/exe/rbdock.cxx#4 $)

>  <Rbt.Library>
libRbt.so (2013.1, Build901 2013/11/27)

>  <Rbt.Parameter_File>
/export/apps/rDock/src/rDock_2013.1_src/data/scripts/dock_solv.prm

>  <Rbt.Receptor>
prm/pocket_docking_6.prm

>  <SCORE>
-10.6125

>  <SCORE.INTER>
-8.09094

>  <SCORE.INTER.CONST>
1

>  <SCORE.INTER.POLAR>
0

>  <SCORE.INTER.ROT>
5

>  <SCORE.INTER.SOLV>
16.2169

>  <SCORE.INTER.VDW>
-17.7329

>  <SCORE.INTER.norm>
-0.809094

>  <SCORE.INTRA>
-2.52159

>  <SCORE.INTRA.DIHEDRAL>
-4.3081

>  <SCORE.INTRA.DIHEDRAL.0>
5.8785

>  <SCORE.INTRA.POLAR>
0

>  <SCORE.INTRA.POLAR.0>
0

>  <SCORE.INTRA.REPUL>
0

>  <SCORE.INTRA.REPUL.0>
0

>  <SCORE.INTRA.SOLV>
-0.906012

>  <SCORE.INTRA.SOLV.lig_0>
-31.9559

>  <SCORE.INTRA.VDW>
0.0854685

>  <SCORE.INTRA.VDW.0>
-0.507645

>  <SCORE.INTRA.norm>
-0.252159

>  <SCORE.RESTR>
0

>  <SCORE.RESTR.CAVITY>
0

>  <SCORE.RESTR.norm>
0

>  <SCORE.SYSTEM>
0

>  <SCORE.SYSTEM.CONST>
0

>  <SCORE.SYSTEM.DIHEDRAL>
0

>  <SCORE.SYSTEM.SOLV>
0

>  <SCORE.SYSTEM.norm>
0

>  <SCORE.heavy>
10

>  <SCORE.norm>
-1.06125

>  <RMSD>
5.586

$$$$
ligand
 OpenBabel11021811473D
libRbt.so/2013.1/901 2013/11/27
 10  9  0  0  0  0  0  0  0  0999 V2000
   26.6508   14.4332   21.1997 N   0  0  0  0  0  0  0  0  0  0  0  0
   27.0518   15.0960   19.9308 C   0  0  2  0  0  0  0  0  0  0  0  0
   27.6358   14.0911   18.9372 C   0  0  0  0  0  0  0  0  0  0  0  0
   28.7635   13.6322   19.0898 O   0  0  0  0  0  0  0  0  0  0  0  0
   28.0155   16.2534   20.2164 C   0  0  0  0  0  0  0  0  0  0  0  0
   29.2325   15.8275   21.0314 C   0  0  0  0  0  0  0  0  0  0  0  0
   30.1911   16.9775   21.3072 C   0  0  0  0  0  0  0  0  0  0  0  0
   31.4008   16.5016   22.1124 C   0  0  0  0  0  0  0  0  0  0  0  0
   32.4130   17.5867   22.4120 N   0  0  0  0  0  0  0  0  0  0  0  0
   27.0107   13.6636   17.9736 O   0  0  0  0  0  0  0  0  0  0  0  0
  2  1  1  1  0  0  0
  2  3  1  0  0  0  0
  2  5  1  0  0  0  0
  3  4  1  0  0  0  0
  3 10  1  0  0  0  0
  5  6  1  0  0  0  0
  6  7  1  0  0  0  0
  7  8  1  0  0  0  0
  8  9  1  0  0  0  0
M  END
>  <CHROM.1>
-74.50397495,54.55320051,179.70023696,-179.39739788,179.20881290,28.83970405
15.37795065,20.39252411,2.35660492,-0.11707167,-2.24630095

>  <Name>
ligand

>  <RI>
0

>  <Rbt.Current_Directory>
/home/itssahil/PROJECTS/Mol_Feturizer/New_Systems/rnas/3DIM

>  <Rbt.Executable>
rbdock ($Id: //depot/dev/client3/rdock/2013.1/src/exe/rbdock.cxx#4 $)

>  <Rbt.Library>
libRbt.so (2013.1, Build901 2013/11/27)

>  <Rbt.Parameter_File>
/export/apps/rDock/src/rDock_2013.1_src/data/scripts/dock_solv.prm

>  <Rbt.Receptor>
prm/pocket_docking_3.prm

>  <SCORE>
-10.6462

>  <SCORE.INTER>
-8.13844

>  <SCORE.INTER.CONST>
1

>  <SCORE.INTER.POLAR>
0

>  <SCORE.INTER.ROT>
5

>  <SCORE.INTER.SOLV>
16.0751

>  <SCORE.INTER.VDW>
-17.7173

>  <SCORE.INTER.norm>
-0.813844

>  <SCORE.INTRA>
-2.50775

>  <SCORE.INTRA.DIHEDRAL>
-4.30226

>  <SCORE.INTRA.DIHEDRAL.0>
5.8785

>  <SCORE.INTRA.POLAR>
0

>  <SCORE.INTRA.POLAR.0>
0

>  <SCORE.INTRA.REPUL>
0

>  <SCORE.INTRA.REPUL.0>
0

>  <SCORE.INTRA.SOLV>
-0.88777

>  <SCORE.INTRA.SOLV.lig_0>
-31.9559

>  <SCORE.INTRA.VDW>
0.0872685

>  <SCORE.INTRA.VDW.0>
-0.507645

>  <SCORE.INTRA.norm>
-0.250775

>  <SCORE.RESTR>
0

>  <SCORE.RESTR.CAVITY>
0

>  <SCORE.RESTR.norm>
0

>  <SCORE.SYSTEM>
0

>  <SCORE.SYSTEM.CONST>
0

>  <SCORE.SYSTEM.DIHEDRAL>
0

>  <SCORE.SYSTEM.SOLV>
0

>  <SCORE.SYSTEM.norm>
0

>  <SCORE.heavy>
10

>  <SCORE.norm>
-1.06462

>  <RMSD>
5.587

$$$$
ligand
 OpenBabel11021811473D
libRbt.so/2013.1/901 2013/11/27
 10  9  0  0  0  0  0  0  0  0999 V2000
   27.2533   15.0595   20.8990 N   0  0  0  0  0  0  0  0  0  0  0  0
   28.1093   15.6273   19.8242 C   0  0  2  0  0  0  0  0  0  0  0  0
   27.9155   14.8806   18.5041 C   0  0  0  0  0  0  0  0  0  0  0  0
   28.3108   15.3555   17.4440 O   0  0  0  0  0  0  0  0  0  0  0  0
   29.5767   15.6471   20.2673 C   0  0  0  0  0  0  0  0  0  0  0  0
   29.8799   16.7528   21.2734 C   0  0  0  0  0  0  0  0  0  0  0  0
   31.3628   16.8652   21.5990 C   0  0  0  0  0  0  0  0  0  0  0  0
   31.6353   18.0659   22.5058 C   0  0  0  0  0  0  0  0  0  0  0  0
   33.0946   18.2585   22.8593 N   0  0  0  0  0  0  0  0  0  0  0  0
   27.4017   13.7701   18.4335 O   0  0  0  0  0  0  0  0  0  0  0  0
  2  1  1  1  0  0  0
  2  3  1  0  0  0  0
  2  5  1  0  0  0  0
  3  4  1  0  0  0  0
  3 10  1  0  0  0  0
  5  6  1  0  0  0  0
  6  7  1  0  0  0  0
  7  8  1  0  0  0  0
  8  9  1  0  0  0  0
M  END
>  <CHROM.1>
164.80702240,-75.17058361,-173.88884515,174.66145029,-179.13916319,29.44071320
16.00636454,20.32318254,2.42767128,-0.50656680,-1.74967456

>  <Name>
ligand

>  <RI>
0

>  <Rbt.Current_Directory>
/home/itssahil/PROJECTS/Mol_Feturizer/New_Systems/rnas/3DIM

>  <Rbt.Executable>
rbdock ($Id: //depot/dev/client3/rdock/2013.1/src/exe/rbdock.cxx#4 $)

>  <Rbt.Library>
libRbt.so (2013.1, Build901 2013/11/27)

>  <Rbt.Parameter_File>
/export/apps/rDock/src/rDock_2013.1_src/data/scripts/dock_solv.prm

>  <Rbt.Receptor>
prm/pocket_docking_3.prm

>  <SCORE>
-10.1006

>  <SCORE.INTER>
-7.52397

>  <SCORE.INTER.CONST>
1

>  <SCORE.INTER.POLAR>
0

>  <SCORE.INTER.ROT>
5

>  <SCORE.INTER.SOLV>
14.9133

>  <SCORE.INTER.VDW>
-16.9204

>  <SCORE.INTER.norm>
-0.752397

>  <SCORE.INTRA>
-2.57664

>  <SCORE.INTRA.DIHEDRAL>
-3.26826

>  <SCORE.INTRA.DIHEDRAL.0>
5.8785

>  <SCORE.INTRA.POLAR>
0

>  <SCORE.INTRA.POLAR.0>
0

>  <SCORE.INTRA.REPUL>
0

>  <SCORE.INTRA.REPUL.0>
0

>  <SCORE.INTRA.SOLV>
-1.1817

>  <SCORE.INTRA.SOLV.lig_0>
-31.9559

>  <SCORE.INTRA.VDW>
-0.351656

>  <SCORE.INTRA.VDW.0>
-0.507645

>  <SCORE.INTRA.norm>
-0.257664

>  <SCORE.RESTR>
0

>  <SCORE.RESTR.CAVITY>
0

>  <SCORE.RESTR.norm>
0

>  <SCORE.SYSTEM>
0

>  <SCORE.SYSTEM.CONST>
0

>  <SCORE.SYSTEM.DIHEDRAL>
0

>  <SCORE.SYSTEM.SOLV>
0

>  <SCORE.SYSTEM.norm>
0

>  <SCORE.heavy>
10

>  <SCORE.norm>
-1.01006

>  <RMSD>
5.588

$$$$
ligand
 OpenBabel11021811473D
libRbt.so/2013.1/901 2013/11/27
 10  9  0  0  0  0  0  0  0  0999 V2000
   26.9411   14.2539   20.9702 N   0  0  0  0  0  0  0  0  0  0  0  0
   27.1201   15.2238   19.8577 C   0  0  2  0  0  0  0  0  0  0  0  0
   27.5532   14.5217   18.5702 C   0  0  0  0  0  0  0  0  0  0  0  0
   28.1866   15.1190   17.7056 O   0  0  0  0  0  0  0  0  0  0  0  0
   28.0971   16.3311   20.2692 C   0  0  0  0  0  0  0  0  0  0  0  0
   29.4694   15.7969   20.6666 C   0  0  0  0  0  0  0  0  0  0  0  0
   30.4187   16.8929   21.1303 C   0  0  0  0  0  0  0  0  0  0  0  0
   31.7944   16.3185   21.4707 C   0  0  0  0  0  0  0  0  0  0  0  0
   32.7963   17.3482   21.9480 N   0  0  0  0  0  0  0  0  0  0  0  0
   27.3332   13.3365   18.3488 O   0  0  0  0  0  0  0  0  0  0  0  0
  2  1  1  1  0  0  0
  2  3  1  0  0  0  0
  2  5  1  0  0  0  0
  3  4  1  0  0  0  0
  3 10  1  0  0  0  0
  5  6  1  0  0  0  0
  6  7  1  0  0  0  0
  7  8  1  0  0  0  0
  8  9  1  0  0  0  0
M  END
>  <CHROM.1>
-154.32434538,58.54577262,-177.59317118,-178.00399643,-179.71158488,28.97035679
15.49444571,20.05899797,2.54040844,-0.38158917,-1.82941369

>  <Name>
ligand

>  <RI>
0

>  <Rbt.Current_Directory>
/home/itssahil/PROJECTS/Mol_Feturizer/New_Systems/rnas/3DIM

>  <Rbt.Executable>
rbdock ($Id: //depot/dev/client3/rdock/2013.1/src/exe/rbdock.cxx#4 $)

>  <Rbt.Library>
libRbt.so (2013.1, Build901 2013/11/27)

>  <Rbt.Parameter_File>
/export/apps/rDock/src/rDock_2013.1_src/data/scripts/dock_solv.prm

>  <Rbt.Receptor>
prm/pocket_docking_4.prm

>  <SCORE>
-10.671

>  <SCORE.INTER>
-8.3163

>  <SCORE.INTER.CONST>
1

>  <SCORE.INTER.POLAR>
0

>  <SCORE.INTER.ROT>
5

>  <SCORE.INTER.SOLV>
15.5865

>  <SCORE.INTER.VDW>
-17.673

>  <SCORE.INTER.norm>
-0.83163

>  <SCORE.INTRA>
-2.35465

>  <SCORE.INTRA.DIHEDRAL>
-4.24127

>  <SCORE.INTRA.DIHEDRAL.0>
5.8785

>  <SCORE.INTRA.POLAR>
0

>  <SCORE.INTRA.POLAR.0>
0

>  <SCORE.INTRA.REPUL>
0

>  <SCORE.INTRA.REPUL.0>
0

>  <SCORE.INTRA.SOLV>
-0.918477

>  <SCORE.INTRA.SOLV.lig_0>
-31.9559

>  <SCORE.INTRA.VDW>
0.225224

>  <SCORE.INTRA.VDW.0>
-0.507645

>  <SCORE.INTRA.norm>
-0.235465

>  <SCORE.RESTR>
0

>  <SCORE.RESTR.CAVITY>
0

>  <SCORE.RESTR.norm>
0

>  <SCORE.SYSTEM>
0

>  <SCORE.SYSTEM.CONST>
0

>  <SCORE.SYSTEM.DIHEDRAL>
0

>  <SCORE.SYSTEM.SOLV>
0

>  <SCORE.SYSTEM.norm>
0

>  <SCORE.heavy>
10

>  <SCORE.norm>
-1.0671

>  <RMSD>
5.588

$$$$
ligand
 OpenBabel11021811473D
libRbt.so/2013.1/901 2013/11/27
 10  9  0  0  0  0  0  0  0  0999 V2000
   28.7724   14.4701   19.5709 N   0  0  0  0  0  0  0  0  0  0  0  0
   28.2657   14.7034   20.9490 C   0  0  2  0  0  0  0  0  0  0  0  0
   26.7446   14.8577   20.9651 C   0  0  0  0  0  0  0  0  0  0  0  0
   26.0695   14.3820   21.8726 O   0  0  0  0  0  0  0  0  0  0  0  0
   28.9757   15.9064   21.5804 C   0  0  0  0  0  0  0  0  0  0  0  0
   30.4899   15.7359   21.6481 C   0  0  0  0  0  0  0  0  0  0  0  0
   31.1972   16.9567   22.2197 C   0  0  0  0  0  0  0  0  0  0  0  0
   32.7158   16.7866   22.1636 C   0  0  0  0  0  0  0  0  0  0  0  0
   33.4926   17.9495   22.7434 N   0  0  0  0  0  0  0  0  0  0  0  0
   26.1275   15.4862   20.1129 O   0  0  0  0  0  0  0  0  0  0  0  0
  2  1  1  6  0  0  0
  2  3  1  0  0  0  0
  2  5  1  0  0  0  0
  3  4  1  0  0  0  0
  3 10  1  0  0  0  0
  5  6  1  0  0  0  0
  6  7  1  0  0  0  0
  7  8  1  0  0  0  0
  8  9  1  0  0  0  0
M  END
>  <CHROM.1>
141.48563129,-58.57563218,177.49717696,-175.39733924,-178.72475215,29.23903961
15.72088078,21.38079737,-2.75261429,0.23216308,1.08832096

>  <Name>
ligand

>  <RI>
0

>  <Rbt.Current_Directory>
/home/itssahil/PROJECTS/Mol_Feturizer/New_Systems/rnas/3DIM

>  <Rbt.Executable>
rbdock ($Id: //depot/dev/client3/rdock/2013.1/src/exe/rbdock.cxx#4 $)

>  <Rbt.Library>
libRbt.so (2013.1, Build901 2013/11/27)

>  <Rbt.Parameter_File>
/export/apps/rDock/src/rDock_2013.1_src/data/scripts/dock_solv.prm

>  <Rbt.Receptor>
prm/pocket_docking_7.prm

>  <SCORE>
-11.3482

>  <SCORE.INTER>
-8.43214

>  <SCORE.INTER.CONST>
1

>  <SCORE.INTER.POLAR>
0

>  <SCORE.INTER.ROT>
5

>  <SCORE.INTER.SOLV>
13.506

>  <SCORE.INTER.VDW>
-17.0568

>  <SCORE.INTER.norm>
-0.843214

>  <SCORE.INTRA>
-2.91607

>  <SCORE.INTRA.DIHEDRAL>
-4.31821

>  <SCORE.INTRA.DIHEDRAL.0>
5.8785

>  <SCORE.INTRA.POLAR>
0

>  <SCORE.INTRA.POLAR.0>
0

>  <SCORE.INTRA.REPUL>
0

>  <SCORE.INTRA.REPUL.0>
0

>  <SCORE.INTRA.SOLV>
-0.92729

>  <SCORE.INTRA.SOLV.lig_0>
-31.9559

>  <SCORE.INTRA.VDW>
-0.293323

>  <SCORE.INTRA.VDW.0>
-0.507645

>  <SCORE.INTRA.norm>
-0.291607

>  <SCORE.RESTR>
0

>  <SCORE.RESTR.CAVITY>
0

>  <SCORE.RESTR.norm>
0

>  <SCORE.SYSTEM>
0

>  <SCORE.SYSTEM.CONST>
0

>  <SCORE.SYSTEM.DIHEDRAL>
0

>  <SCORE.SYSTEM.SOLV>
0

>  <SCORE.SYSTEM.norm>
0

>  <SCORE.heavy>
10

>  <SCORE.norm>
-1.13482

>  <RMSD>
5.594

$$$$
ligand
 OpenBabel11021811473D
libRbt.so/2013.1/901 2013/11/27
 10  9  0  0  0  0  0  0  0  0999 V2000
   28.7940   15.8573   19.3139 N   0  0  0  0  0  0  0  0  0  0  0  0
   27.6716   14.8867   19.2220 C   0  0  2  0  0  0  0  0  0  0  0  0
   27.0513   14.6202   20.5940 C   0  0  0  0  0  0  0  0  0  0  0  0
   27.7360   14.2256   21.5326 O   0  0  0  0  0  0  0  0  0  0  0  0
   28.1382   13.5966   18.5380 C   0  0  0  0  0  0  0  0  0  0  0  0
   26.9820   12.7299   18.0497 C   0  0  0  0  0  0  0  0  0  0  0  0
   27.4273   11.3405   17.6153 C   0  0  0  0  0  0  0  0  0  0  0  0
   26.2533   10.3607   17.6249 C   0  0  0  0  0  0  0  0  0  0  0  0
   26.6413    8.9241   17.3470 N   0  0  0  0  0  0  0  0  0  0  0  0
   25.8677   14.8192   20.8424 O   0  0  0  0  0  0  0  0  0  0  0  0
  2  1  1  1  0  0  0
  2  3  1  0  0  0  0
  2  5  1  0  0  0  0
  3  4  1  0  0  0  0
  3 10  1  0  0  0  0
  5  6  1  0  0  0  0
  6  7  1  0  0  0  0
  7  8  1  0  0  0  0
  8  9  1  0  0  0  0
M  END
>  <CHROM.1>
-55.93334655,-163.42395643,-169.01691545,159.31585396,-173.83511252,27.24339753
13.14135403,19.10454425,-1.36787843,-0.82663148,-2.45806806

>  <Name>
ligand

>  <RI>
0

>  <Rbt.Current_Directory>
/home/itssahil/PROJECTS/Mol_Feturizer/New_Systems/rnas/3DIM

>  <Rbt.Executable>
rbdock ($Id: //depot/dev/client3/rdock/2013.1/src/exe/rbdock.cxx#4 $)

>  <Rbt.Library>
libRbt.so (2013.1, Build901 2013/11/27)

>  <Rbt.Parameter_File>
/export/apps/rDock/src/rDock_2013.1_src/data/scripts/dock_solv.prm

>  <Rbt.Receptor>
prm/blind_docking_60.prm

>  <SCORE>
-7.02263

>  <SCORE.INTER>
-5.03422

>  <SCORE.INTER.CONST>
1

>  <SCORE.INTER.POLAR>
0

>  <SCORE.INTER.ROT>
5

>  <SCORE.INTER.SOLV>
13.4557

>  <SCORE.INTER.VDW>
-14.7747

>  <SCORE.INTER.norm>
-0.503422

>  <SCORE.INTRA>
-1.9884

>  <SCORE.INTRA.DIHEDRAL>
-1.12024

>  <SCORE.INTRA.DIHEDRAL.0>
5.8785

>  <SCORE.INTRA.POLAR>
0

>  <SCORE.INTRA.POLAR.0>
0

>  <SCORE.INTRA.REPUL>
0

>  <SCORE.INTRA.REPUL.0>
0

>  <SCORE.INTRA.SOLV>
-1.84405

>  <SCORE.INTRA.SOLV.lig_0>
-31.9559

>  <SCORE.INTRA.VDW>
-0.506262

>  <SCORE.INTRA.VDW.0>
-0.507645

>  <SCORE.INTRA.norm>
-0.19884

>  <SCORE.RESTR>
0

>  <SCORE.RESTR.CAVITY>
0

>  <SCORE.RESTR.norm>
0

>  <SCORE.SYSTEM>
0

>  <SCORE.SYSTEM.CONST>
0

>  <SCORE.SYSTEM.DIHEDRAL>
0

>  <SCORE.SYSTEM.SOLV>
0

>  <SCORE.SYSTEM.norm>
0

>  <SCORE.heavy>
10

>  <SCORE.norm>
-0.702263

>  <RMSD>
5.700

$$$$
ligand
 OpenBabel11021811473D
libRbt.so/2013.1/901 2013/11/27
 10  9  0  0  0  0  0  0  0  0999 V2000
   28.6914   15.9068   19.2538 N   0  0  0  0  0  0  0  0  0  0  0  0
   27.6017   14.8971   19.1965 C   0  0  2  0  0  0  0  0  0  0  0  0
   27.0166   14.6289   20.5834 C   0  0  0  0  0  0  0  0  0  0  0  0
   25.8295   14.8304   20.8197 O   0  0  0  0  0  0  0  0  0  0  0  0
   28.0998   13.6143   18.5211 C   0  0  0  0  0  0  0  0  0  0  0  0
   26.9652   12.7054   18.0594 C   0  0  0  0  0  0  0  0  0  0  0  0
   27.4511   11.3331   17.6142 C   0  0  0  0  0  0  0  0  0  0  0  0
   26.3053   10.3205   17.6106 C   0  0  0  0  0  0  0  0  0  0  0  0
   26.7314    8.9019   17.2980 N   0  0  0  0  0  0  0  0  0  0  0  0
   27.6751   14.1688   21.5091 O   0  0  0  0  0  0  0  0  0  0  0  0
  2  1  1  1  0  0  0
  2  3  1  0  0  0  0
  2  5  1  0  0  0  0
  3  4  1  0  0  0  0
  3 10  1  0  0  0  0
  5  6  1  0  0  0  0
  6  7  1  0  0  0  0
  7  8  1  0  0  0  0
  8  9  1  0  0  0  0
M  END
>  <CHROM.1>
120.26660828,-163.09088262,-169.92771836,161.01534587,-174.82364401,27.22355919
13.13518758,19.08298150,-1.39668111,-0.85980144,-2.48083050

>  <Name>
ligand

>  <RI>
0

>  <Rbt.Current_Directory>
/home/itssahil/PROJECTS/Mol_Feturizer/New_Systems/rnas/3DIM

>  <Rbt.Executable>
rbdock ($Id: //depot/dev/client3/rdock/2013.1/src/exe/rbdock.cxx#4 $)

>  <Rbt.Library>
libRbt.so (2013.1, Build901 2013/11/27)

>  <Rbt.Parameter_File>
/export/apps/rDock/src/rDock_2013.1_src/data/scripts/dock_solv.prm

>  <Rbt.Receptor>
prm/pocket_docking_8.prm

>  <SCORE>
-6.9928

>  <SCORE.INTER>
-4.82853

>  <SCORE.INTER.CONST>
1

>  <SCORE.INTER.POLAR>
0

>  <SCORE.INTER.ROT>
5

>  <SCORE.INTER.SOLV>
14.0528

>  <SCORE.INTER.VDW>
-14.8366

>  <SCORE.INTER.norm>
-0.482853

>  <SCORE.INTRA>
-2.16426

>  <SCORE.INTRA.DIHEDRAL>
-1.43794

>  <SCORE.INTRA.DIHEDRAL.0>
5.8785

>  <SCORE.INTRA.POLAR>
0

>  <SCORE.INTRA.POLAR.0>
0

>  <SCORE.INTRA.REPUL>
0

>  <SCORE.INTRA.REPUL.0>
0

>  <SCORE.INTRA.SOLV>
-1.87213

>  <SCORE.INTRA.SOLV.lig_0>
-31.9559

>  <SCORE.INTRA.VDW>
-0.509229

>  <SCORE.INTRA.VDW.0>
-0.507645

>  <SCORE.INTRA.norm>
-0.216426

>  <SCORE.RESTR>
0

>  <SCORE.RESTR.CAVITY>
0

>  <SCORE.RESTR.norm>
0

>  <SCORE.SYSTEM>
0

>  <SCORE.SYSTEM.CONST>
0

>  <SCORE.SYSTEM.DIHEDRAL>
0

>  <SCORE.SYSTEM.SOLV>
0

>  <SCORE.SYSTEM.norm>
0

>  <SCORE.heavy>
10

>  <SCORE.norm>
-0.69928

>  <RMSD>
5.740

$$$$
ligand
 OpenBabel11021811473D
libRbt.so/2013.1/901 2013/11/27
 10  9  0  0  0  0  0  0  0  0999 V2000
   30.5644   15.9704   21.2854 N   0  0  0  0  0  0  0  0  0  0  0  0
   31.7754   16.8096   21.0864 C   0  0  2  0  0  0  0  0  0  0  0  0
   32.8633   16.0479   20.3287 C   0  0  0  0  0  0  0  0  0  0  0  0
   32.6094   15.4497   19.2878 O   0  0  0  0  0  0  0  0  0  0  0  0
   32.2765   17.3481   22.4313 C   0  0  0  0  0  0  0  0  0  0  0  0
   33.4313   18.3339   22.2849 C   0  0  0  0  0  0  0  0  0  0  0  0
   33.6855   19.1388   23.5518 C   0  0  0  0  0  0  0  0  0  0  0  0
   34.8172   20.1459   23.3434 C   0  0  0  0  0  0  0  0  0  0  0  0
   34.8966   21.2195   24.4077 N   0  0  0  0  0  0  0  0  0  0  0  0
   34.0353   16.0241   20.6865 O   0  0  0  0  0  0  0  0  0  0  0  0
  2  1  1  1  0  0  0
  2  3  1  0  0  0  0
  2  5  1  0  0  0  0
  3  4  1  0  0  0  0
  3 10  1  0  0  0  0
  5  6  1  0  0  0  0
  6  7  1  0  0  0  0
  7  8  1  0  0  0  0
  8  9  1  0  0  0  0
M  END
>  <CHROM.1>
49.46540435,-174.06420944,164.83243406,-178.01909693,164.84607142,33.11467449
17.62393510,21.84409361,1.97029337,-0.27518144,-2.36285735

>  <Name>
ligand

>  <RI>
0

>  <Rbt.Current_Directory>
/home/itssahil/PROJECTS/Mol_Feturizer/New_Systems/rnas/3DIM

>  <Rbt.Executable>
rbdock ($Id: //depot/dev/client3/rdock/2013.1/src/exe/rbdock.cxx#4 $)

>  <Rbt.Library>
libRbt.so (2013.1, Build901 2013/11/27)

>  <Rbt.Parameter_File>
/export/apps/rDock/src/rDock_2013.1_src/data/scripts/dock_solv.prm

>  <Rbt.Receptor>
prm/blind_docking_60.prm

>  <SCORE>
-7.46985

>  <SCORE.INTER>
-5.82105

>  <SCORE.INTER.CONST>
1

>  <SCORE.INTER.POLAR>
0

>  <SCORE.INTER.ROT>
5

>  <SCORE.INTER.SOLV>
14.2652

>  <SCORE.INTER.VDW>
-15.5691

>  <SCORE.INTER.norm>
-0.582105

>  <SCORE.INTRA>
-1.6488

>  <SCORE.INTRA.DIHEDRAL>
-2.54267

>  <SCORE.INTRA.DIHEDRAL.0>
5.8785

>  <SCORE.INTRA.POLAR>
0

>  <SCORE.INTRA.POLAR.0>
0

>  <SCORE.INTRA.REPUL>
0

>  <SCORE.INTRA.REPUL.0>
0

>  <SCORE.INTRA.SOLV>
-1.85972

>  <SCORE.INTRA.SOLV.lig_0>
-31.9559

>  <SCORE.INTRA.VDW>
0.552389

>  <SCORE.INTRA.VDW.0>
-0.507645

>  <SCORE.INTRA.norm>
-0.16488

>  <SCORE.RESTR>
0

>  <SCORE.RESTR.CAVITY>
0

>  <SCORE.RESTR.norm>
0

>  <SCORE.SYSTEM>
0

>  <SCORE.SYSTEM.CONST>
0

>  <SCORE.SYSTEM.DIHEDRAL>
0

>  <SCORE.SYSTEM.SOLV>
0

>  <SCORE.SYSTEM.norm>
0

>  <SCORE.heavy>
10

>  <SCORE.norm>
-0.746985

>  <RMSD>
5.747

$$$$
ligand
 OpenBabel11021811473D
libRbt.so/2013.1/901 2013/11/27
 10  9  0  0  0  0  0  0  0  0999 V2000
   30.0369   11.0024   28.0736 N   0  0  0  0  0  0  0  0  0  0  0  0
   28.6901   10.3962   28.2438 C   0  0  2  0  0  0  0  0  0  0  0  0
   28.0072   10.9030   29.5145 C   0  0  0  0  0  0  0  0  0  0  0  0
   26.7857   10.9990   29.5817 O   0  0  0  0  0  0  0  0  0  0  0  0
   28.7868    8.8667   28.2099 C   0  0  0  0  0  0  0  0  0  0  0  0
   29.3872    8.3367   26.9118 C   0  0  0  0  0  0  0  0  0  0  0  0
   28.4862    8.5671   25.7065 C   0  0  0  0  0  0  0  0  0  0  0  0
   27.2222    7.7111   25.7955 C   0  0  0  0  0  0  0  0  0  0  0  0
   26.3011    7.8380   24.6009 N   0  0  0  0  0  0  0  0  0  0  0  0
   28.6232   11.1982   30.5321 O   0  0  0  0  0  0  0  0  0  0  0  0
  2  1  1  1  0  0  0
  2  3  1  0  0  0  0
  2  5  1  0  0  0  0
  3  4  1  0  0  0  0
  3 10  1  0  0  0  0
  5  6  1  0  0  0  0
  6  7  1  0  0  0  0
  7  8  1  0  0  0  0
  8  9  1  0  0  0  0
M  END
>  <CHROM.1>
149.60475385,-58.75565482,-67.66966306,-68.19253581,-177.43817317,28.21786560
9.59960162,27.75340739,-1.39797553,-0.02371268,-2.18982102

>  <Name>
ligand

>  <RI>
0

>  <Rbt.Current_Directory>
/home/itssahil/PROJECTS/Mol_Feturizer/New_Systems/rnas/3DIM

>  <Rbt.Executable>
rbdock ($Id: //depot/dev/client3/rdock/2013.1/src/exe/rbdock.cxx#4 $)

>  <Rbt.Library>
libRbt.so (2013.1, Build901 2013/11/27)

>  <Rbt.Parameter_File>
/export/apps/rDock/src/rDock_2013.1_src/data/scripts/dock_solv.prm

>  <Rbt.Receptor>
prm/blind_docking_60.prm

>  <SCORE>
-4.85188

>  <SCORE.INTER>
-3.15816

>  <SCORE.INTER.CONST>
1

>  <SCORE.INTER.POLAR>
0

>  <SCORE.INTER.ROT>
5

>  <SCORE.INTER.SOLV>
10.3356

>  <SCORE.INTER.VDW>
-12.484

>  <SCORE.INTER.norm>
-0.315816

>  <SCORE.INTRA>
-1.69371

>  <SCORE.INTRA.DIHEDRAL>
-3.9063

>  <SCORE.INTRA.DIHEDRAL.0>
5.8785

>  <SCORE.INTRA.POLAR>
0

>  <SCORE.INTRA.POLAR.0>
0

>  <SCORE.INTRA.REPUL>
0

>  <SCORE.INTRA.REPUL.0>
0

>  <SCORE.INTRA.SOLV>
-0.246823

>  <SCORE.INTRA.SOLV.lig_0>
-31.9559

>  <SCORE.INTRA.VDW>
0.382846

>  <SCORE.INTRA.VDW.0>
-0.507645

>  <SCORE.INTRA.norm>
-0.169371

>  <SCORE.RESTR>
0

>  <SCORE.RESTR.CAVITY>
0

>  <SCORE.RESTR.norm>
0

>  <SCORE.SYSTEM>
0

>  <SCORE.SYSTEM.CONST>
0

>  <SCORE.SYSTEM.DIHEDRAL>
0

>  <SCORE.SYSTEM.SOLV>
0

>  <SCORE.SYSTEM.norm>
0

>  <SCORE.heavy>
10

>  <SCORE.norm>
-0.485188

>  <RMSD>
9.900

$$$$
ligand
 OpenBabel11021811473D
libRbt.so/2013.1/901 2013/11/27
 10  9  0  0  0  0  0  0  0  0999 V2000
   24.8751   21.6180   20.5778 N   0  0  0  0  0  0  0  0  0  0  0  0
   25.8653   22.6874   20.2841 C   0  0  2  0  0  0  0  0  0  0  0  0
   25.3675   24.0534   20.7575 C   0  0  0  0  0  0  0  0  0  0  0  0
   24.1926   24.3806   20.6231 O   0  0  0  0  0  0  0  0  0  0  0  0
   26.2226   22.6869   18.7934 C   0  0  0  0  0  0  0  0  0  0  0  0
   25.0182   22.9398   17.8924 C   0  0  0  0  0  0  0  0  0  0  0  0
   25.3594   22.8535   16.4113 C   0  0  0  0  0  0  0  0  0  0  0  0
   26.2948   23.9902   15.9972 C   0  0  0  0  0  0  0  0  0  0  0  0
   26.6585   23.9906   14.5277 N   0  0  0  0  0  0  0  0  0  0  0  0
   26.0878   24.8680   21.3230 O   0  0  0  0  0  0  0  0  0  0  0  0
  2  1  1  6  0  0  0
  2  3  1  0  0  0  0
  2  5  1  0  0  0  0
  3  4  1  0  0  0  0
  3 10  1  0  0  0  0
  5  6  1  0  0  0  0
  6  7  1  0  0  0  0
  7  8  1  0  0  0  0
  8  9  1  0  0  0  0
M  END
>  <CHROM.1>
-39.82700295,60.47540412,-176.44997872,-66.79600372,-178.78070914,25.58273955
23.43697126,18.74182617,2.18721533,1.27535006,0.96198906

>  <Name>
ligand

>  <RI>
0

>  <Rbt.Current_Directory>
/home/itssahil/PROJECTS/Mol_Feturizer/New_Systems/rnas/3DIM

>  <Rbt.Executable>
rbdock ($Id: //depot/dev/client3/rdock/2013.1/src/exe/rbdock.cxx#4 $)

>  <Rbt.Library>
libRbt.so (2013.1, Build901 2013/11/27)

>  <Rbt.Parameter_File>
/export/apps/rDock/src/rDock_2013.1_src/data/scripts/dock_solv.prm

>  <Rbt.Receptor>
prm/blind_docking_80.prm

>  <SCORE>
-4.68298

>  <SCORE.INTER>
-2.62709

>  <SCORE.INTER.CONST>
1

>  <SCORE.INTER.POLAR>
0

>  <SCORE.INTER.ROT>
5

>  <SCORE.INTER.SOLV>
13.261

>  <SCORE.INTER.VDW>
-13.1051

>  <SCORE.INTER.norm>
-0.262709

>  <SCORE.INTRA>
-2.05589

>  <SCORE.INTRA.DIHEDRAL>
-4.05515

>  <SCORE.INTRA.DIHEDRAL.0>
5.8785

>  <SCORE.INTRA.POLAR>
0

>  <SCORE.INTRA.POLAR.0>
0

>  <SCORE.INTRA.REPUL>
0

>  <SCORE.INTRA.REPUL.0>
0

>  <SCORE.INTRA.SOLV>
-0.736686

>  <SCORE.INTRA.SOLV.lig_0>
-31.9559

>  <SCORE.INTRA.VDW>
0.340025

>  <SCORE.INTRA.VDW.0>
-0.507645

>  <SCORE.INTRA.norm>
-0.205589

>  <SCORE.RESTR>
0

>  <SCORE.RESTR.CAVITY>
0

>  <SCORE.RESTR.norm>
0

>  <SCORE.SYSTEM>
0

>  <SCORE.SYSTEM.CONST>
0

>  <SCORE.SYSTEM.DIHEDRAL>
0

>  <SCORE.SYSTEM.SOLV>
0

>  <SCORE.SYSTEM.norm>
0

>  <SCORE.heavy>
10

>  <SCORE.norm>
-0.468298

>  <RMSD>
9.942

$$$$
ligand
 OpenBabel11021811473D
libRbt.so/2013.1/901 2013/11/27
 10  9  0  0  0  0  0  0  0  0999 V2000
   24.6527   24.2397   18.5771 N   0  0  0  0  0  0  0  0  0  0  0  0
   24.9949   22.7947   18.6494 C   0  0  2  0  0  0  0  0  0  0  0  0
   25.1375   22.3273   20.0982 C   0  0  0  0  0  0  0  0  0  0  0  0
   25.4098   23.1191   20.9952 O   0  0  0  0  0  0  0  0  0  0  0  0
   26.2518   22.5035   17.8216 C   0  0  0  0  0  0  0  0  0  0  0  0
   26.0725   22.8115   16.3385 C   0  0  0  0  0  0  0  0  0  0  0  0
   27.3661   22.6795   15.5468 C   0  0  0  0  0  0  0  0  0  0  0  0
   27.1459   23.0302   14.0748 C   0  0  0  0  0  0  0  0  0  0  0  0
   26.6164   24.4292   13.8423 N   0  0  0  0  0  0  0  0  0  0  0  0
   24.9524   21.1671   20.4475 O   0  0  0  0  0  0  0  0  0  0  0  0
  2  1  1  1  0  0  0
  2  3  1  0  0  0  0
  2  5  1  0  0  0  0
  3  4  1  0  0  0  0
  3 10  1  0  0  0  0
  5  6  1  0  0  0  0
  6  7  1  0  0  0  0
  7  8  1  0  0  0  0
  8  9  1  0  0  0  0
M  END
>  <CHROM.1>
-23.98228643,-61.94658154,173.19553478,-178.60864785,58.53500209,25.85758695
22.89747404,17.68338076,2.19764740,-1.04649866,2.30629227

>  <Name>
ligand

>  <RI>
0

>  <Rbt.Current_Directory>
/home/itssahil/PROJECTS/Mol_Feturizer/New_Systems/rnas/3DIM

>  <Rbt.Executable>
rbdock ($Id: //depot/dev/client3/rdock/2013.1/src/exe/rbdock.cxx#4 $)

>  <Rbt.Library>
libRbt.so (2013.1, Build901 2013/11/27)

>  <Rbt.Parameter_File>
/export/apps/rDock/src/rDock_2013.1_src/data/scripts/dock_solv.prm

>  <Rbt.Receptor>
prm/blind_docking_80.prm

>  <SCORE>
-6.64535

>  <SCORE.INTER>
-4.45074

>  <SCORE.INTER.CONST>
1

>  <SCORE.INTER.POLAR>
0

>  <SCORE.INTER.ROT>
5

>  <SCORE.INTER.SOLV>
7.31605

>  <SCORE.INTER.VDW>
-12.3392

>  <SCORE.INTER.norm>
-0.445074

>  <SCORE.INTRA>
-2.19461

>  <SCORE.INTRA.DIHEDRAL>
-4.06416

>  <SCORE.INTRA.DIHEDRAL.0>
5.8785

>  <SCORE.INTRA.POLAR>
0

>  <SCORE.INTRA.POLAR.0>
0

>  <SCORE.INTRA.REPUL>
0

>  <SCORE.INTRA.REPUL.0>
0

>  <SCORE.INTRA.SOLV>
0.0337601

>  <SCORE.INTRA.SOLV.lig_0>
-31.9559

>  <SCORE.INTRA.VDW>
-0.179412

>  <SCORE.INTRA.VDW.0>
-0.507645

>  <SCORE.INTRA.norm>
-0.219461

>  <SCORE.RESTR>
0

>  <SCORE.RESTR.CAVITY>
0

>  <SCORE.RESTR.norm>
0

>  <SCORE.SYSTEM>
0

>  <SCORE.SYSTEM.CONST>
0

>  <SCORE.SYSTEM.DIHEDRAL>
0

>  <SCORE.SYSTEM.SOLV>
0

>  <SCORE.SYSTEM.norm>
0

>  <SCORE.heavy>
10

>  <SCORE.norm>
-0.664535

>  <RMSD>
9.978

$$$$
ligand
 OpenBabel11021811473D
libRbt.so/2013.1/901 2013/11/27
 10  9  0  0  0  0  0  0  0  0999 V2000
   28.0491   23.3466   16.3202 N   0  0  0  0  0  0  0  0  0  0  0  0
   26.8039   22.6955   16.8059 C   0  0  2  0  0  0  0  0  0  0  0  0
   25.5725   23.2331   16.0762 C   0  0  0  0  0  0  0  0  0  0  0  0
   24.7478   22.4719   15.5801 O   0  0  0  0  0  0  0  0  0  0  0  0
   26.6848   22.8428   18.3271 C   0  0  0  0  0  0  0  0  0  0  0  0
   25.4858   22.0979   18.9052 C   0  0  0  0  0  0  0  0  0  0  0  0
   25.2061   22.4641   20.3562 C   0  0  0  0  0  0  0  0  0  0  0  0
   24.5123   23.8231   20.4546 C   0  0  0  0  0  0  0  0  0  0  0  0
   25.3458   24.9834   19.9540 N   0  0  0  0  0  0  0  0  0  0  0  0
   25.3211   24.4289   15.9809 O   0  0  0  0  0  0  0  0  0  0  0  0
  2  1  1  6  0  0  0
  2  3  1  0  0  0  0
  2  5  1  0  0  0  0
  3  4  1  0  0  0  0
  3 10  1  0  0  0  0
  5  6  1  0  0  0  0
  6  7  1  0  0  0  0
  7  8  1  0  0  0  0
  8  9  1  0  0  0  0
M  END
>  <CHROM.1>
130.16158959,-175.31089044,-168.57491714,77.09551016,-63.56764764,25.74750853
23.24835622,17.85073072,-1.31836887,-0.39316231,1.60131582

>  <Name>
ligand

>  <RI>
0

>  <Rbt.Current_Directory>
/home/itssahil/PROJECTS/Mol_Feturizer/New_Systems/rnas/3DIM

>  <Rbt.Executable>
rbdock ($Id: //depot/dev/client3/rdock/2013.1/src/exe/rbdock.cxx#4 $)

>  <Rbt.Library>
libRbt.so (2013.1, Build901 2013/11/27)

>  <Rbt.Parameter_File>
/export/apps/rDock/src/rDock_2013.1_src/data/scripts/dock_solv.prm

>  <Rbt.Receptor>
prm/blind_docking_80.prm

>  <SCORE>
-5.721

>  <SCORE.INTER>
-4.55705

>  <SCORE.INTER.CONST>
1

>  <SCORE.INTER.POLAR>
0

>  <SCORE.INTER.ROT>
5

>  <SCORE.INTER.SOLV>
8.42078

>  <SCORE.INTER.VDW>
-12.7783

>  <SCORE.INTER.norm>
-0.455705

>  <SCORE.INTRA>
-1.16395

>  <SCORE.INTRA.DIHEDRAL>
-2.60682

>  <SCORE.INTRA.DIHEDRAL.0>
5.8785

>  <SCORE.INTRA.POLAR>
0

>  <SCORE.INTRA.POLAR.0>
0

>  <SCORE.INTRA.REPUL>
0

>  <SCORE.INTRA.REPUL.0>
0

>  <SCORE.INTRA.SOLV>
0.492578

>  <SCORE.INTRA.SOLV.lig_0>
-31.9559

>  <SCORE.INTRA.VDW>
-0.106829

>  <SCORE.INTRA.VDW.0>
-0.507645

>  <SCORE.INTRA.norm>
-0.116395

>  <SCORE.RESTR>
0

>  <SCORE.RESTR.CAVITY>
0

>  <SCORE.RESTR.norm>
0

>  <SCORE.SYSTEM>
0

>  <SCORE.SYSTEM.CONST>
0

>  <SCORE.SYSTEM.DIHEDRAL>
0

>  <SCORE.SYSTEM.SOLV>
0

>  <SCORE.SYSTEM.norm>
0

>  <SCORE.heavy>
10

>  <SCORE.norm>
-0.5721

>  <RMSD>
10.018

$$$$
ligand
 OpenBabel11021811473D
libRbt.so/2013.1/901 2013/11/27
 10  9  0  0  0  0  0  0  0  0999 V2000
   26.6487   24.8408   16.5349 N   0  0  0  0  0  0  0  0  0  0  0  0
   26.6354   23.3727   16.3009 C   0  0  2  0  0  0  0  0  0  0  0  0
   27.1494   23.0263   14.9031 C   0  0  0  0  0  0  0  0  0  0  0  0
   28.1009   22.2672   14.7484 O   0  0  0  0  0  0  0  0  0  0  0  0
   25.2349   22.8054   16.5591 C   0  0  0  0  0  0  0  0  0  0  0  0
   24.7714   22.9965   17.9996 C   0  0  0  0  0  0  0  0  0  0  0  0
   25.5784   22.1738   18.9943 C   0  0  0  0  0  0  0  0  0  0  0  0
   25.1477   22.4736   20.4306 C   0  0  0  0  0  0  0  0  0  0  0  0
   25.3561   23.9121   20.8537 N   0  0  0  0  0  0  0  0  0  0  0  0
   26.6274   23.4450   13.8763 O   0  0  0  0  0  0  0  0  0  0  0  0
  2  1  1  6  0  0  0
  2  3  1  0  0  0  0
  2  5  1  0  0  0  0
  3  4  1  0  0  0  0
  3 10  1  0  0  0  0
  5  6  1  0  0  0  0
  6  7  1  0  0  0  0
  7  8  1  0  0  0  0
  8  9  1  0  0  0  0
M  END
>  <CHROM.1>
123.10880614,-62.01179376,-67.42162396,175.85742793,-61.60042279,26.14144205
23.12307113,17.07865434,0.16332559,1.21899286,-0.15740853

>  <Name>
ligand

>  <RI>
0

>  <Rbt.Current_Directory>
/home/itssahil/PROJECTS/Mol_Feturizer/New_Systems/rnas/3DIM

>  <Rbt.Executable>
rbdock ($Id: //depot/dev/client3/rdock/2013.1/src/exe/rbdock.cxx#4 $)

>  <Rbt.Library>
libRbt.so (2013.1, Build901 2013/11/27)

>  <Rbt.Parameter_File>
/export/apps/rDock/src/rDock_2013.1_src/data/scripts/dock_solv.prm

>  <Rbt.Receptor>
prm/blind_docking_60.prm

>  <SCORE>
-4.24041

>  <SCORE.INTER>
-2.31079

>  <SCORE.INTER.CONST>
1

>  <SCORE.INTER.POLAR>
0

>  <SCORE.INTER.ROT>
5

>  <SCORE.INTER.SOLV>
8.9896

>  <SCORE.INTER.VDW>
-11.4704

>  <SCORE.INTER.norm>
-0.231079

>  <SCORE.INTRA>
-1.92961

>  <SCORE.INTRA.DIHEDRAL>
-4.04818

>  <SCORE.INTRA.DIHEDRAL.0>
5.8785

>  <SCORE.INTRA.POLAR>
0

>  <SCORE.INTRA.POLAR.0>
0

>  <SCORE.INTRA.REPUL>
0

>  <SCORE.INTRA.REPUL.0>
0

>  <SCORE.INTRA.SOLV>
0.420279

>  <SCORE.INTRA.SOLV.lig_0>
-31.9559

>  <SCORE.INTRA.VDW>
-0.115663

>  <SCORE.INTRA.VDW.0>
-0.507645

>  <SCORE.INTRA.norm>
-0.192961

>  <SCORE.RESTR>
0

>  <SCORE.RESTR.CAVITY>
0

>  <SCORE.RESTR.norm>
0

>  <SCORE.SYSTEM>
0

>  <SCORE.SYSTEM.CONST>
0

>  <SCORE.SYSTEM.DIHEDRAL>
0

>  <SCORE.SYSTEM.SOLV>
0

>  <SCORE.SYSTEM.norm>
0

>  <SCORE.heavy>
10

>  <SCORE.norm>
-0.424041

>  <RMSD>
10.068

$$$$
ligand
 OpenBabel11021811473D
libRbt.so/2013.1/901 2013/11/27
 10  9  0  0  0  0  0  0  0  0999 V2000
   26.1311   21.2447   18.5157 N   0  0  0  0  0  0  0  0  0  0  0  0
   26.0028   22.6768   18.8935 C   0  0  2  0  0  0  0  0  0  0  0  0
   25.4406   22.8324   20.3069 C   0  0  0  0  0  0  0  0  0  0  0  0
   24.8966   21.8930   20.8789 O   0  0  0  0  0  0  0  0  0  0  0  0
   25.1660   23.4289   17.8524 C   0  0  0  0  0  0  0  0  0  0  0  0
   25.6906   23.2576   16.4304 C   0  0  0  0  0  0  0  0  0  0  0  0
   24.9543   24.1263   15.4201 C   0  0  0  0  0  0  0  0  0  0  0  0
   25.4409   23.8452   13.9979 C   0  0  0  0  0  0  0  0  0  0  0  0
   26.9138   24.1188   13.7803 N   0  0  0  0  0  0  0  0  0  0  0  0
   25.5342   23.8697   20.9530 O   0  0  0  0  0  0  0  0  0  0  0  0
  2  1  1  6  0  0  0
  2  3  1  0  0  0  0
  2  5  1  0  0  0  0
  3  4  1  0  0  0  0
  3 10  1  0  0  0  0
  5  6  1  0  0  0  0
  6  7  1  0  0  0  0
  7  8  1  0  0  0  0
  8  9  1  0  0  0  0
M  END
>  <CHROM.1>
-15.40898585,-53.77330185,-173.61858948,-175.74317014,-60.51879057,25.60536219
23.13001156,17.74747126,-1.84985623,1.27249129,-1.09056012

>  <Name>
ligand

>  <RI>
0

>  <Rbt.Current_Directory>
/home/itssahil/PROJECTS/Mol_Feturizer/New_Systems/rnas/3DIM

>  <Rbt.Executable>
rbdock ($Id: //depot/dev/client3/rdock/2013.1/src/exe/rbdock.cxx#4 $)

>  <Rbt.Library>
libRbt.so (2013.1, Build901 2013/11/27)

>  <Rbt.Parameter_File>
/export/apps/rDock/src/rDock_2013.1_src/data/scripts/dock_solv.prm

>  <Rbt.Receptor>
prm/blind_docking_100.prm

>  <SCORE>
-4.75285

>  <SCORE.INTER>
-2.76668

>  <SCORE.INTER.CONST>
1

>  <SCORE.INTER.POLAR>
0

>  <SCORE.INTER.ROT>
5

>  <SCORE.INTER.SOLV>
11.6102

>  <SCORE.INTER.VDW>
-12.6479

>  <SCORE.INTER.norm>
-0.276668

>  <SCORE.INTRA>
-1.98617

>  <SCORE.INTRA.DIHEDRAL>
-3.9248

>  <SCORE.INTRA.DIHEDRAL.0>
5.8785

>  <SCORE.INTRA.POLAR>
0

>  <SCORE.INTRA.POLAR.0>
0

>  <SCORE.INTRA.REPUL>
0

>  <SCORE.INTRA.REPUL.0>
0

>  <SCORE.INTRA.SOLV>
0.0229618

>  <SCORE.INTRA.SOLV.lig_0>
-31.9559

>  <SCORE.INTRA.VDW>
-0.0352495

>  <SCORE.INTRA.VDW.0>
-0.507645

>  <SCORE.INTRA.norm>
-0.198617

>  <SCORE.RESTR>
0

>  <SCORE.RESTR.CAVITY>
0

>  <SCORE.RESTR.norm>
0

>  <SCORE.SYSTEM>
0

>  <SCORE.SYSTEM.CONST>
0

>  <SCORE.SYSTEM.DIHEDRAL>
0

>  <SCORE.SYSTEM.SOLV>
0

>  <SCORE.SYSTEM.norm>
0

>  <SCORE.heavy>
10

>  <SCORE.norm>
-0.475285

>  <RMSD>
10.076

$$$$
ligand
 OpenBabel11021811473D
libRbt.so/2013.1/901 2013/11/27
 10  9  0  0  0  0  0  0  0  0999 V2000
   27.5988   24.0243   17.0920 N   0  0  0  0  0  0  0  0  0  0  0  0
   26.7239   22.8448   16.8602 C   0  0  2  0  0  0  0  0  0  0  0  0
   25.3771   23.2578   16.2658 C   0  0  0  0  0  0  0  0  0  0  0  0
   24.9514   24.4013   16.3960 O   0  0  0  0  0  0  0  0  0  0  0  0
   26.5622   22.0397   18.1546 C   0  0  0  0  0  0  0  0  0  0  0  0
   26.0487   22.8809   19.3187 C   0  0  0  0  0  0  0  0  0  0  0  0
   24.5590   23.1789   19.2207 C   0  0  0  0  0  0  0  0  0  0  0  0
   24.1222   24.1550   20.3138 C   0  0  0  0  0  0  0  0  0  0  0  0
   24.7846   25.5138   20.2336 N   0  0  0  0  0  0  0  0  0  0  0  0
   24.6776   22.4993   15.6043 O   0  0  0  0  0  0  0  0  0  0  0  0
  2  1  1  1  0  0  0
  2  3  1  0  0  0  0
  2  5  1  0  0  0  0
  3  4  1  0  0  0  0
  3 10  1  0  0  0  0
  5  6  1  0  0  0  0
  6  7  1  0  0  0  0
  7  8  1  0  0  0  0
  8  9  1  0  0  0  0
M  END
>  <CHROM.1>
-21.92870215,55.10793105,75.98348550,-173.38716714,62.28107111,25.51395321
23.48609718,17.92312398,-1.25976098,-0.46191659,1.38758454

>  <Name>
ligand

>  <RI>
0

>  <Rbt.Current_Directory>
/home/itssahil/PROJECTS/Mol_Feturizer/New_Systems/rnas/3DIM

>  <Rbt.Executable>
rbdock ($Id: //depot/dev/client3/rdock/2013.1/src/exe/rbdock.cxx#4 $)

>  <Rbt.Library>
libRbt.so (2013.1, Build901 2013/11/27)

>  <Rbt.Parameter_File>
/export/apps/rDock/src/rDock_2013.1_src/data/scripts/dock_solv.prm

>  <Rbt.Receptor>
prm/blind_docking_80.prm

>  <SCORE>
-4.96926

>  <SCORE.INTER>
-3.52774

>  <SCORE.INTER.CONST>
1

>  <SCORE.INTER.POLAR>
0

>  <SCORE.INTER.ROT>
5

>  <SCORE.INTER.SOLV>
9.00212

>  <SCORE.INTER.VDW>
-12.2859

>  <SCORE.INTER.norm>
-0.352774

>  <SCORE.INTRA>
-1.44152

>  <SCORE.INTRA.DIHEDRAL>
-2.97756

>  <SCORE.INTRA.DIHEDRAL.0>
5.8785

>  <SCORE.INTRA.POLAR>
0

>  <SCORE.INTRA.POLAR.0>
0

>  <SCORE.INTRA.REPUL>
0

>  <SCORE.INTRA.REPUL.0>
0

>  <SCORE.INTRA.SOLV>
0.483165

>  <SCORE.INTRA.SOLV.lig_0>
-31.9559

>  <SCORE.INTRA.VDW>
-0.194325

>  <SCORE.INTRA.VDW.0>
-0.507645

>  <SCORE.INTRA.norm>
-0.144152

>  <SCORE.RESTR>
0

>  <SCORE.RESTR.CAVITY>
0

>  <SCORE.RESTR.norm>
0

>  <SCORE.SYSTEM>
0

>  <SCORE.SYSTEM.CONST>
0

>  <SCORE.SYSTEM.DIHEDRAL>
0

>  <SCORE.SYSTEM.SOLV>
0

>  <SCORE.SYSTEM.norm>
0

>  <SCORE.heavy>
10

>  <SCORE.norm>
-0.496926

>  <RMSD>
10.279

$$$$
ligand
 OpenBabel11021811473D
libRbt.so/2013.1/901 2013/11/27
 10  9  0  0  0  0  0  0  0  0999 V2000
   27.4961   23.3028   16.2370 N   0  0  0  0  0  0  0  0  0  0  0  0
   26.1479   22.7049   16.0493 C   0  0  2  0  0  0  0  0  0  0  0  0
   25.3862   23.3921   14.9155 C   0  0  0  0  0  0  0  0  0  0  0  0
   24.5238   24.2328   15.1505 O   0  0  0  0  0  0  0  0  0  0  0  0
   25.3669   22.7287   17.3682 C   0  0  0  0  0  0  0  0  0  0  0  0
   26.0048   21.8673   18.4534 C   0  0  0  0  0  0  0  0  0  0  0  0
   25.2016   21.8550   19.7466 C   0  0  0  0  0  0  0  0  0  0  0  0
   25.3761   23.1669   20.5126 C   0  0  0  0  0  0  0  0  0  0  0  0
   24.8224   24.3814   19.7982 N   0  0  0  0  0  0  0  0  0  0  0  0
   25.6152   23.1781   13.7307 O   0  0  0  0  0  0  0  0  0  0  0  0
  2  1  1  1  0  0  0
  2  3  1  0  0  0  0
  2  5  1  0  0  0  0
  3  4  1  0  0  0  0
  3 10  1  0  0  0  0
  5  6  1  0  0  0  0
  6  7  1  0  0  0  0
  7  8  1  0  0  0  0
  8  9  1  0  0  0  0
M  END
>  <CHROM.1>
-100.79946905,-64.07916782,-178.03530032,-75.21369943,64.88464848,25.57828070
23.09648193,17.15969843,-1.48894091,-0.78565281,1.72648970

>  <Name>
ligand

>  <RI>
0

>  <Rbt.Current_Directory>
/home/itssahil/PROJECTS/Mol_Feturizer/New_Systems/rnas/3DIM

>  <Rbt.Executable>
rbdock ($Id: //depot/dev/client3/rdock/2013.1/src/exe/rbdock.cxx#4 $)

>  <Rbt.Library>
libRbt.so (2013.1, Build901 2013/11/27)

>  <Rbt.Parameter_File>
/export/apps/rDock/src/rDock_2013.1_src/data/scripts/dock_solv.prm

>  <Rbt.Receptor>
prm/blind_docking_100.prm

>  <SCORE>
-5.83037

>  <SCORE.INTER>
-5.40236

>  <SCORE.INTER.CONST>
1

>  <SCORE.INTER.POLAR>
0

>  <SCORE.INTER.ROT>
5

>  <SCORE.INTER.SOLV>
8.01989

>  <SCORE.INTER.VDW>
-13.2082

>  <SCORE.INTER.norm>
-0.540236

>  <SCORE.INTRA>
-0.42801

>  <SCORE.INTRA.DIHEDRAL>
-3.33676

>  <SCORE.INTRA.DIHEDRAL.0>
5.8785

>  <SCORE.INTRA.POLAR>
0

>  <SCORE.INTRA.POLAR.0>
0

>  <SCORE.INTRA.REPUL>
0

>  <SCORE.INTRA.REPUL.0>
0

>  <SCORE.INTRA.SOLV>
1.2468

>  <SCORE.INTRA.SOLV.lig_0>
-31.9559

>  <SCORE.INTRA.VDW>
0.61697

>  <SCORE.INTRA.VDW.0>
-0.507645

>  <SCORE.INTRA.norm>
-0.042801

>  <SCORE.RESTR>
0

>  <SCORE.RESTR.CAVITY>
0

>  <SCORE.RESTR.norm>
0

>  <SCORE.SYSTEM>
0

>  <SCORE.SYSTEM.CONST>
0

>  <SCORE.SYSTEM.DIHEDRAL>
0

>  <SCORE.SYSTEM.SOLV>
0

>  <SCORE.SYSTEM.norm>
0

>  <SCORE.heavy>
10

>  <SCORE.norm>
-0.583037

>  <RMSD>
10.314

$$$$
ligand
 OpenBabel11021811473D
libRbt.so/2013.1/901 2013/11/27
 10  9  0  0  0  0  0  0  0  0999 V2000
   27.9241   23.2697   16.5458 N   0  0  0  0  0  0  0  0  0  0  0  0
   26.6842   22.6288   16.0338 C   0  0  2  0  0  0  0  0  0  0  0  0
   26.3705   23.0818   14.6075 C   0  0  0  0  0  0  0  0  0  0  0  0
   27.1442   22.8480   13.6842 O   0  0  0  0  0  0  0  0  0  0  0  0
   25.5165   22.8874   16.9926 C   0  0  0  0  0  0  0  0  0  0  0  0
   25.7465   22.3023   18.3823 C   0  0  0  0  0  0  0  0  0  0  0  0
   24.6202   22.6264   19.3539 C   0  0  0  0  0  0  0  0  0  0  0  0
   24.5705   24.1247   19.6553 C   0  0  0  0  0  0  0  0  0  0  0  0
   23.4579   24.5318   20.5976 N   0  0  0  0  0  0  0  0  0  0  0  0
   25.3321   23.6567   14.3019 O   0  0  0  0  0  0  0  0  0  0  0  0
  2  1  1  1  0  0  0
  2  3  1  0  0  0  0
  2  5  1  0  0  0  0
  3  4  1  0  0  0  0
  3 10  1  0  0  0  0
  5  6  1  0  0  0  0
  6  7  1  0  0  0  0
  7  8  1  0  0  0  0
  8  9  1  0  0  0  0
M  END
>  <CHROM.1>
62.13747824,-61.67985972,176.83344970,-66.69062590,178.95789712,25.73489833
23.20283067,16.97194974,-1.09649946,-0.46610974,1.67499886

>  <Name>
ligand

>  <RI>
0

>  <Rbt.Current_Directory>
/home/itssahil/PROJECTS/Mol_Feturizer/New_Systems/rnas/3DIM

>  <Rbt.Executable>
rbdock ($Id: //depot/dev/client3/rdock/2013.1/src/exe/rbdock.cxx#4 $)

>  <Rbt.Library>
libRbt.so (2013.1, Build901 2013/11/27)

>  <Rbt.Parameter_File>
/export/apps/rDock/src/rDock_2013.1_src/data/scripts/dock_solv.prm

>  <Rbt.Receptor>
prm/blind_docking_100.prm

>  <SCORE>
-3.93783

>  <SCORE.INTER>
-2.30575

>  <SCORE.INTER.CONST>
1

>  <SCORE.INTER.POLAR>
0

>  <SCORE.INTER.ROT>
5

>  <SCORE.INTER.SOLV>
13.1218

>  <SCORE.INTER.VDW>
-12.8444

>  <SCORE.INTER.norm>
-0.230575

>  <SCORE.INTRA>
-1.63208

>  <SCORE.INTRA.DIHEDRAL>
-4.12445

>  <SCORE.INTRA.DIHEDRAL.0>
5.8785

>  <SCORE.INTRA.POLAR>
0

>  <SCORE.INTRA.POLAR.0>
0

>  <SCORE.INTRA.REPUL>
0

>  <SCORE.INTRA.REPUL.0>
0

>  <SCORE.INTRA.SOLV>
-0.72525

>  <SCORE.INTRA.SOLV.lig_0>
-31.9559

>  <SCORE.INTRA.VDW>
0.792764

>  <SCORE.INTRA.VDW.0>
-0.507645

>  <SCORE.INTRA.norm>
-0.163208

>  <SCORE.RESTR>
0

>  <SCORE.RESTR.CAVITY>
0

>  <SCORE.RESTR.norm>
0

>  <SCORE.SYSTEM>
0

>  <SCORE.SYSTEM.CONST>
0

>  <SCORE.SYSTEM.DIHEDRAL>
0

>  <SCORE.SYSTEM.SOLV>
0

>  <SCORE.SYSTEM.norm>
0

>  <SCORE.heavy>
10

>  <SCORE.norm>
-0.393783

>  <RMSD>
10.340

$$$$
ligand
 OpenBabel11021811473D
libRbt.so/2013.1/901 2013/11/27
 10  9  0  0  0  0  0  0  0  0999 V2000
   24.2434   24.0944   20.3676 N   0  0  0  0  0  0  0  0  0  0  0  0
   24.4535   23.2695   19.1487 C   0  0  2  0  0  0  0  0  0  0  0  0
   25.2032   21.9769   19.4726 C   0  0  0  0  0  0  0  0  0  0  0  0
   25.0436   21.4043   20.5461 O   0  0  0  0  0  0  0  0  0  0  0  0
   25.1602   24.0918   18.0650 C   0  0  0  0  0  0  0  0  0  0  0  0
   25.1493   23.4117   16.6997 C   0  0  0  0  0  0  0  0  0  0  0  0
   25.8170   24.2484   15.6173 C   0  0  0  0  0  0  0  0  0  0  0  0
   25.7520   23.5437   14.2617 C   0  0  0  0  0  0  0  0  0  0  0  0
   26.4167   24.3043   13.1342 N   0  0  0  0  0  0  0  0  0  0  0  0
   25.9602   21.4269   18.6810 O   0  0  0  0  0  0  0  0  0  0  0  0
  2  1  1  1  0  0  0
  2  3  1  0  0  0  0
  2  5  1  0  0  0  0
  3  4  1  0  0  0  0
  3 10  1  0  0  0  0
  5  6  1  0  0  0  0
  6  7  1  0  0  0  0
  7  8  1  0  0  0  0
  8  9  1  0  0  0  0
M  END
>  <CHROM.1>
33.52275160,-168.04985783,178.37085193,-178.60082176,-179.05067076,25.33285175
23.14414156,17.61812777,1.99422740,-1.12214020,2.23578315

>  <Name>
ligand

>  <RI>
0

>  <Rbt.Current_Directory>
/home/itssahil/PROJECTS/Mol_Feturizer/New_Systems/rnas/3DIM

>  <Rbt.Executable>
rbdock ($Id: //depot/dev/client3/rdock/2013.1/src/exe/rbdock.cxx#4 $)

>  <Rbt.Library>
libRbt.so (2013.1, Build901 2013/11/27)

>  <Rbt.Parameter_File>
/export/apps/rDock/src/rDock_2013.1_src/data/scripts/dock_solv.prm

>  <Rbt.Receptor>
prm/blind_docking_80.prm

>  <SCORE>
-5.68066

>  <SCORE.INTER>
-3.06595

>  <SCORE.INTER.CONST>
1

>  <SCORE.INTER.POLAR>
0

>  <SCORE.INTER.ROT>
5

>  <SCORE.INTER.SOLV>
10.4777

>  <SCORE.INTER.VDW>
-12.4699

>  <SCORE.INTER.norm>
-0.306595

>  <SCORE.INTRA>
-2.6147

>  <SCORE.INTRA.DIHEDRAL>
-3.91408

>  <SCORE.INTRA.DIHEDRAL.0>
5.8785

>  <SCORE.INTRA.POLAR>
0

>  <SCORE.INTRA.POLAR.0>
0

>  <SCORE.INTRA.REPUL>
0

>  <SCORE.INTRA.REPUL.0>
0

>  <SCORE.INTRA.SOLV>
-1.85686

>  <SCORE.INTRA.SOLV.lig_0>
-31.9559

>  <SCORE.INTRA.VDW>
0.270768

>  <SCORE.INTRA.VDW.0>
-0.507645

>  <SCORE.INTRA.norm>
-0.26147

>  <SCORE.RESTR>
0

>  <SCORE.RESTR.CAVITY>
0

>  <SCORE.RESTR.norm>
0

>  <SCORE.SYSTEM>
0

>  <SCORE.SYSTEM.CONST>
0

>  <SCORE.SYSTEM.DIHEDRAL>
0

>  <SCORE.SYSTEM.SOLV>
0

>  <SCORE.SYSTEM.norm>
0

>  <SCORE.heavy>
10

>  <SCORE.norm>
-0.568066

>  <RMSD>
10.406

$$$$
ligand
 OpenBabel11021811473D
libRbt.so/2013.1/901 2013/11/27
 10  9  0  0  0  0  0  0  0  0999 V2000
   23.6495   25.2095   19.8697 N   0  0  0  0  0  0  0  0  0  0  0  0
   24.2064   23.9014   19.4350 C   0  0  2  0  0  0  0  0  0  0  0  0
   25.1179   23.3001   20.5054 C   0  0  0  0  0  0  0  0  0  0  0  0
   25.9323   23.9939   21.1061 O   0  0  0  0  0  0  0  0  0  0  0  0
   24.9182   24.0482   18.0853 C   0  0  0  0  0  0  0  0  0  0  0  0
   25.3968   22.7162   17.5167 C   0  0  0  0  0  0  0  0  0  0  0  0
   26.2453   22.8793   16.2633 C   0  0  0  0  0  0  0  0  0  0  0  0
   25.4269   23.4853   15.1225 C   0  0  0  0  0  0  0  0  0  0  0  0
   26.2362   23.8201   13.8877 N   0  0  0  0  0  0  0  0  0  0  0  0
   25.0619   22.1245   20.8474 O   0  0  0  0  0  0  0  0  0  0  0  0
  2  1  1  1  0  0  0
  2  3  1  0  0  0  0
  2  5  1  0  0  0  0
  3  4  1  0  0  0  0
  3 10  1  0  0  0  0
  5  6  1  0  0  0  0
  6  7  1  0  0  0  0
  7  8  1  0  0  0  0
  8  9  1  0  0  0  0
M  END
>  <CHROM.1>
-43.33144400,-174.46557328,-173.17430672,-64.15190337,173.64877414,25.23568033
23.53491647,18.29977364,1.86732644,-0.95196380,1.79170259

>  <Name>
ligand

>  <RI>
0

>  <Rbt.Current_Directory>
/home/itssahil/PROJECTS/Mol_Feturizer/New_Systems/rnas/3DIM

>  <Rbt.Executable>
rbdock ($Id: //depot/dev/client3/rdock/2013.1/src/exe/rbdock.cxx#4 $)

>  <Rbt.Library>
libRbt.so (2013.1, Build901 2013/11/27)

>  <Rbt.Parameter_File>
/export/apps/rDock/src/rDock_2013.1_src/data/scripts/dock_solv.prm

>  <Rbt.Receptor>
prm/blind_docking_80.prm

>  <SCORE>
-5.43634

>  <SCORE.INTER>
-3.07418

>  <SCORE.INTER.CONST>
1

>  <SCORE.INTER.POLAR>
0

>  <SCORE.INTER.ROT>
5

>  <SCORE.INTER.SOLV>
10.7262

>  <SCORE.INTER.VDW>
-12.5582

>  <SCORE.INTER.norm>
-0.307418

>  <SCORE.INTRA>
-2.36216

>  <SCORE.INTRA.DIHEDRAL>
-3.79108

>  <SCORE.INTRA.DIHEDRAL.0>
5.8785

>  <SCORE.INTRA.POLAR>
0

>  <SCORE.INTRA.POLAR.0>
0

>  <SCORE.INTRA.REPUL>
0

>  <SCORE.INTRA.REPUL.0>
0

>  <SCORE.INTRA.SOLV>
-1.60069

>  <SCORE.INTRA.SOLV.lig_0>
-31.9559

>  <SCORE.INTRA.VDW>
0.333723

>  <SCORE.INTRA.VDW.0>
-0.507645

>  <SCORE.INTRA.norm>
-0.236216

>  <SCORE.RESTR>
0

>  <SCORE.RESTR.CAVITY>
0

>  <SCORE.RESTR.norm>
0

>  <SCORE.SYSTEM>
0

>  <SCORE.SYSTEM.CONST>
0

>  <SCORE.SYSTEM.DIHEDRAL>
0

>  <SCORE.SYSTEM.SOLV>
0

>  <SCORE.SYSTEM.norm>
0

>  <SCORE.heavy>
10

>  <SCORE.norm>
-0.543634

>  <RMSD>
10.412

$$$$
ligand
 OpenBabel11021811473D
libRbt.so/2013.1/901 2013/11/27
 10  9  0  0  0  0  0  0  0  0999 V2000
   24.6258   24.5923   18.9406 N   0  0  0  0  0  0  0  0  0  0  0  0
   24.6415   23.1301   18.6723 C   0  0  2  0  0  0  0  0  0  0  0  0
   24.9764   22.3351   19.9347 C   0  0  0  0  0  0  0  0  0  0  0  0
   25.1557   22.8994   21.0094 O   0  0  0  0  0  0  0  0  0  0  0  0
   25.5979   22.8112   17.5174 C   0  0  0  0  0  0  0  0  0  0  0  0
   25.1795   23.4596   16.2017 C   0  0  0  0  0  0  0  0  0  0  0  0
   26.1721   23.2057   15.0758 C   0  0  0  0  0  0  0  0  0  0  0  0
   25.7322   23.9052   13.7891 C   0  0  0  0  0  0  0  0  0  0  0  0
   26.7140   23.7740   12.6443 N   0  0  0  0  0  0  0  0  0  0  0  0
   25.0441   21.1115   19.9558 O   0  0  0  0  0  0  0  0  0  0  0  0
  2  1  1  1  0  0  0
  2  3  1  0  0  0  0
  2  5  1  0  0  0  0
  3  4  1  0  0  0  0
  3 10  1  0  0  0  0
  5  6  1  0  0  0  0
  6  7  1  0  0  0  0
  7  8  1  0  0  0  0
  8  9  1  0  0  0  0
M  END
>  <CHROM.1>
2.10687737,-62.34589724,176.78145618,-178.43285900,176.28592453,25.38702816
23.10207323,17.41561886,2.15997287,-1.23593502,2.31571977

>  <Name>
ligand

>  <RI>
0

>  <Rbt.Current_Directory>
/home/itssahil/PROJECTS/Mol_Feturizer/New_Systems/rnas/3DIM

>  <Rbt.Executable>
rbdock ($Id: //depot/dev/client3/rdock/2013.1/src/exe/rbdock.cxx#4 $)

>  <Rbt.Library>
libRbt.so (2013.1, Build901 2013/11/27)

>  <Rbt.Parameter_File>
/export/apps/rDock/src/rDock_2013.1_src/data/scripts/dock_solv.prm

>  <Rbt.Receptor>
prm/blind_docking_60.prm

>  <SCORE>
-6.68302

>  <SCORE.INTER>
-3.96273

>  <SCORE.INTER.CONST>
1

>  <SCORE.INTER.POLAR>
0

>  <SCORE.INTER.ROT>
5

>  <SCORE.INTER.SOLV>
8.92077

>  <SCORE.INTER.VDW>
-12.5487

>  <SCORE.INTER.norm>
-0.396273

>  <SCORE.INTRA>
-2.72029

>  <SCORE.INTRA.DIHEDRAL>
-4.24121

>  <SCORE.INTRA.DIHEDRAL.0>
5.8785

>  <SCORE.INTRA.POLAR>
0

>  <SCORE.INTRA.POLAR.0>
0

>  <SCORE.INTRA.REPUL>
0

>  <SCORE.INTRA.REPUL.0>
0

>  <SCORE.INTRA.SOLV>
-0.941434

>  <SCORE.INTRA.SOLV.lig_0>
-31.9559

>  <SCORE.INTRA.VDW>
-0.128974

>  <SCORE.INTRA.VDW.0>
-0.507645

>  <SCORE.INTRA.norm>
-0.272029

>  <SCORE.RESTR>
0

>  <SCORE.RESTR.CAVITY>
0

>  <SCORE.RESTR.norm>
0

>  <SCORE.SYSTEM>
0

>  <SCORE.SYSTEM.CONST>
0

>  <SCORE.SYSTEM.DIHEDRAL>
0

>  <SCORE.SYSTEM.SOLV>
0

>  <SCORE.SYSTEM.norm>
0

>  <SCORE.heavy>
10

>  <SCORE.norm>
-0.668302

>  <RMSD>
10.420

$$$$
ligand
 OpenBabel11021811473D
libRbt.so/2013.1/901 2013/11/27
 10  9  0  0  0  0  0  0  0  0999 V2000
   24.9942   21.5235   20.5001 N   0  0  0  0  0  0  0  0  0  0  0  0
   24.8000   22.4453   19.3500 C   0  0  2  0  0  0  0  0  0  0  0  0
   25.9683   22.3642   18.3670 C   0  0  0  0  0  0  0  0  0  0  0  0
   27.1300   22.4220   18.7579 O   0  0  0  0  0  0  0  0  0  0  0  0
   24.5619   23.8753   19.8484 C   0  0  0  0  0  0  0  0  0  0  0  0
   25.6988   24.3988   20.7202 C   0  0  0  0  0  0  0  0  0  0  0  0
   25.5092   25.8532   21.1281 C   0  0  0  0  0  0  0  0  0  0  0  0
   26.6886   26.3451   21.9680 C   0  0  0  0  0  0  0  0  0  0  0  0
   26.6064   27.8054   22.3585 N   0  0  0  0  0  0  0  0  0  0  0  0
   25.8176   22.1996   17.1618 O   0  0  0  0  0  0  0  0  0  0  0  0
  2  1  1  1  0  0  0
  2  3  1  0  0  0  0
  2  5  1  0  0  0  0
  3  4  1  0  0  0  0
  3 10  1  0  0  0  0
  5  6  1  0  0  0  0
  6  7  1  0  0  0  0
  7  8  1  0  0  0  0
  8  9  1  0  0  0  0
M  END
>  <CHROM.1>
-48.44252834,57.64028493,175.72510956,-178.48676269,177.23428448,25.80121398
23.91075992,19.98641710,1.70232580,-0.73108184,-2.41727662

>  <Name>
ligand

>  <RI>
0

>  <Rbt.Current_Directory>
/home/itssahil/PROJECTS/Mol_Feturizer/New_Systems/rnas/3DIM

>  <Rbt.Executable>
rbdock ($Id: //depot/dev/client3/rdock/2013.1/src/exe/rbdock.cxx#4 $)

>  <Rbt.Library>
libRbt.so (2013.1, Build901 2013/11/27)

>  <Rbt.Parameter_File>
/export/apps/rDock/src/rDock_2013.1_src/data/scripts/dock_solv.prm

>  <Rbt.Receptor>
prm/blind_docking_80.prm

>  <SCORE>
-5.69226

>  <SCORE.INTER>
-2.91305

>  <SCORE.INTER.CONST>
1

>  <SCORE.INTER.POLAR>
0

>  <SCORE.INTER.ROT>
5

>  <SCORE.INTER.SOLV>
14.727

>  <SCORE.INTER.VDW>
-13.7844

>  <SCORE.INTER.norm>
-0.291305

>  <SCORE.INTRA>
-2.7792

>  <SCORE.INTRA.DIHEDRAL>
-4.19016

>  <SCORE.INTRA.DIHEDRAL.0>
5.8785

>  <SCORE.INTRA.POLAR>
0

>  <SCORE.INTRA.POLAR.0>
0

>  <SCORE.INTRA.REPUL>
0

>  <SCORE.INTRA.REPUL.0>
0

>  <SCORE.INTRA.SOLV>
-0.932749

>  <SCORE.INTRA.SOLV.lig_0>
-31.9559

>  <SCORE.INTRA.VDW>
-0.217749

>  <SCORE.INTRA.VDW.0>
-0.507645

>  <SCORE.INTRA.norm>
-0.27792

>  <SCORE.RESTR>
0

>  <SCORE.RESTR.CAVITY>
0

>  <SCORE.RESTR.norm>
0

>  <SCORE.SYSTEM>
0

>  <SCORE.SYSTEM.CONST>
0

>  <SCORE.SYSTEM.DIHEDRAL>
0

>  <SCORE.SYSTEM.SOLV>
0

>  <SCORE.SYSTEM.norm>
0

>  <SCORE.heavy>
10

>  <SCORE.norm>
-0.569226

>  <RMSD>
10.453

$$$$
ligand
 OpenBabel11021811473D
libRbt.so/2013.1/901 2013/11/27
 10  9  0  0  0  0  0  0  0  0999 V2000
   25.8343   25.1256   21.5266 N   0  0  0  0  0  0  0  0  0  0  0  0
   25.5300   24.6672   20.1455 C   0  0  2  0  0  0  0  0  0  0  0  0
   24.1052   25.0408   19.7352 C   0  0  0  0  0  0  0  0  0  0  0  0
   23.1478   24.7694   20.4531 O   0  0  0  0  0  0  0  0  0  0  0  0
   25.7940   23.1629   20.0138 C   0  0  0  0  0  0  0  0  0  0  0  0
   26.2096   22.7525   18.6048 C   0  0  0  0  0  0  0  0  0  0  0  0
   25.1141   22.9859   17.5738 C   0  0  0  0  0  0  0  0  0  0  0  0
   25.6257   22.7123   16.1590 C   0  0  0  0  0  0  0  0  0  0  0  0
   26.6950   23.6750   15.6884 N   0  0  0  0  0  0  0  0  0  0  0  0
   23.8451   25.6555   18.7073 O   0  0  0  0  0  0  0  0  0  0  0  0
  2  1  1  1  0  0  0
  2  3  1  0  0  0  0
  2  5  1  0  0  0  0
  3  4  1  0  0  0  0
  3 10  1  0  0  0  0
  5  6  1  0  0  0  0
  6  7  1  0  0  0  0
  7  8  1  0  0  0  0
  8  9  1  0  0  0  0
M  END
>  <CHROM.1>
-50.82680912,-150.28507736,-64.31395973,173.53573551,-65.92586591,25.15549539
24.06849862,18.85927588,-1.98286934,0.60920334,-1.76134065

>  <Name>
ligand

>  <RI>
0

>  <Rbt.Current_Directory>
/home/itssahil/PROJECTS/Mol_Feturizer/New_Systems/rnas/3DIM

>  <Rbt.Executable>
rbdock ($Id: //depot/dev/client3/rdock/2013.1/src/exe/rbdock.cxx#4 $)

>  <Rbt.Library>
libRbt.so (2013.1, Build901 2013/11/27)

>  <Rbt.Parameter_File>
/export/apps/rDock/src/rDock_2013.1_src/data/scripts/dock_solv.prm

>  <Rbt.Receptor>
prm/blind_docking_80.prm

>  <SCORE>
-4.17107

>  <SCORE.INTER>
-2.85523

>  <SCORE.INTER.CONST>
1

>  <SCORE.INTER.POLAR>
0

>  <SCORE.INTER.ROT>
5

>  <SCORE.INTER.SOLV>
10.2084

>  <SCORE.INTER.VDW>
-12.2396

>  <SCORE.INTER.norm>
-0.285523

>  <SCORE.INTRA>
-1.31583

>  <SCORE.INTRA.DIHEDRAL>
-1.17188

>  <SCORE.INTRA.DIHEDRAL.0>
5.8785

>  <SCORE.INTRA.POLAR>
0

>  <SCORE.INTRA.POLAR.0>
0

>  <SCORE.INTRA.REPUL>
0

>  <SCORE.INTRA.REPUL.0>
0

>  <SCORE.INTRA.SOLV>
-0.789444

>  <SCORE.INTRA.SOLV.lig_0>
-31.9559

>  <SCORE.INTRA.VDW>
-0.335173

>  <SCORE.INTRA.VDW.0>
-0.507645

>  <SCORE.INTRA.norm>
-0.131583

>  <SCORE.RESTR>
0

>  <SCORE.RESTR.CAVITY>
0

>  <SCORE.RESTR.norm>
0

>  <SCORE.SYSTEM>
0

>  <SCORE.SYSTEM.CONST>
0

>  <SCORE.SYSTEM.DIHEDRAL>
0

>  <SCORE.SYSTEM.SOLV>
0

>  <SCORE.SYSTEM.norm>
0

>  <SCORE.heavy>
10

>  <SCORE.norm>
-0.417107

>  <RMSD>
10.648

$$$$
ligand
 OpenBabel11021811473D
libRbt.so/2013.1/901 2013/11/27
 10  9  0  0  0  0  0  0  0  0999 V2000
   26.0438   23.9538   18.3634 N   0  0  0  0  0  0  0  0  0  0  0  0
   25.7777   23.4207   19.7255 C   0  0  2  0  0  0  0  0  0  0  0  0
   25.4828   21.9208   19.6894 C   0  0  0  0  0  0  0  0  0  0  0  0
   24.8756   21.3727   20.6041 O   0  0  0  0  0  0  0  0  0  0  0  0
   24.6521   24.2153   20.3974 C   0  0  0  0  0  0  0  0  0  0  0  0
   25.0402   25.6595   20.6980 C   0  0  0  0  0  0  0  0  0  0  0  0
   26.1176   25.7716   21.7677 C   0  0  0  0  0  0  0  0  0  0  0  0
   26.5357   27.2279   21.9739 C   0  0  0  0  0  0  0  0  0  0  0  0
   27.2489   27.8429   20.7887 N   0  0  0  0  0  0  0  0  0  0  0  0
   25.7930   21.2011   18.7471 O   0  0  0  0  0  0  0  0  0  0  0  0
  2  1  1  6  0  0  0
  2  3  1  0  0  0  0
  2  5  1  0  0  0  0
  3  4  1  0  0  0  0
  3 10  1  0  0  0  0
  5  6  1  0  0  0  0
  6  7  1  0  0  0  0
  7  8  1  0  0  0  0
  8  9  1  0  0  0  0
M  END
>  <CHROM.1>
-158.77514024,-66.81251142,-67.47090986,176.49280659,-66.91837631,25.74845365
24.21447012,20.27124625,-1.96143361,1.05068631,0.68153971

>  <Name>
ligand

>  <RI>
0

>  <Rbt.Current_Directory>
/home/itssahil/PROJECTS/Mol_Feturizer/New_Systems/rnas/3DIM

>  <Rbt.Executable>
rbdock ($Id: //depot/dev/client3/rdock/2013.1/src/exe/rbdock.cxx#4 $)

>  <Rbt.Library>
libRbt.so (2013.1, Build901 2013/11/27)

>  <Rbt.Parameter_File>
/export/apps/rDock/src/rDock_2013.1_src/data/scripts/dock_solv.prm

>  <Rbt.Receptor>
prm/blind_docking_80.prm

>  <SCORE>
-6.25622

>  <SCORE.INTER>
-4.8007

>  <SCORE.INTER.CONST>
1

>  <SCORE.INTER.POLAR>
0

>  <SCORE.INTER.ROT>
5

>  <SCORE.INTER.SOLV>
7.01612

>  <SCORE.INTER.VDW>
-12.4725

>  <SCORE.INTER.norm>
-0.48007

>  <SCORE.INTRA>
-1.45959

>  <SCORE.INTRA.DIHEDRAL>
-3.6442

>  <SCORE.INTRA.DIHEDRAL.0>
5.8785

>  <SCORE.INTRA.POLAR>
0

>  <SCORE.INTRA.POLAR.0>
0

>  <SCORE.INTRA.REPUL>
0

>  <SCORE.INTRA.REPUL.0>
0

>  <SCORE.INTRA.SOLV>
0.269816

>  <SCORE.INTRA.SOLV.lig_0>
-31.9559

>  <SCORE.INTRA.VDW>
0.227606

>  <SCORE.INTRA.VDW.0>
-0.507645

>  <SCORE.INTRA.norm>
-0.145959

>  <SCORE.RESTR>
0.00406159

>  <SCORE.RESTR.CAVITY>
0.00406159

>  <SCORE.RESTR.norm>
0.000406159

>  <SCORE.SYSTEM>
0

>  <SCORE.SYSTEM.CONST>
0

>  <SCORE.SYSTEM.DIHEDRAL>
0

>  <SCORE.SYSTEM.SOLV>
0

>  <SCORE.SYSTEM.norm>
0

>  <SCORE.heavy>
10

>  <SCORE.norm>
-0.625622

>  <RMSD>
10.657

$$$$
ligand
 OpenBabel11021811473D
libRbt.so/2013.1/901 2013/11/27
 10  9  0  0  0  0  0  0  0  0999 V2000
   24.2022   25.6474   19.5190 N   0  0  0  0  0  0  0  0  0  0  0  0
   24.4752   24.2273   19.1739 C   0  0  2  0  0  0  0  0  0  0  0  0
   25.0064   23.4525   20.3803 C   0  0  0  0  0  0  0  0  0  0  0  0
   25.7200   23.9960   21.2176 O   0  0  0  0  0  0  0  0  0  0  0  0
   25.4218   24.1444   17.9710 C   0  0  0  0  0  0  0  0  0  0  0  0
   24.8767   24.8521   16.7346 C   0  0  0  0  0  0  0  0  0  0  0  0
   25.7874   24.7108   15.5230 C   0  0  0  0  0  0  0  0  0  0  0  0
   25.7557   23.2828   14.9770 C   0  0  0  0  0  0  0  0  0  0  0  0
   26.4193   22.2601   15.8746 N   0  0  0  0  0  0  0  0  0  0  0  0
   24.7240   22.2800   20.5988 O   0  0  0  0  0  0  0  0  0  0  0  0
  2  1  1  1  0  0  0
  2  3  1  0  0  0  0
  2  5  1  0  0  0  0
  3  4  1  0  0  0  0
  3 10  1  0  0  0  0
  5  6  1  0  0  0  0
  6  7  1  0  0  0  0
  7  8  1  0  0  0  0
  8  9  1  0  0  0  0
M  END
>  <CHROM.1>
-33.78867372,-58.11229955,-177.22106985,71.31328356,-69.80567145,25.24714854
23.86815860,18.23475550,2.05361688,-1.20684074,2.01713076

>  <Name>
ligand

>  <RI>
0

>  <Rbt.Current_Directory>
/home/itssahil/PROJECTS/Mol_Feturizer/New_Systems/rnas/3DIM

>  <Rbt.Executable>
rbdock ($Id: //depot/dev/client3/rdock/2013.1/src/exe/rbdock.cxx#4 $)

>  <Rbt.Library>
libRbt.so (2013.1, Build901 2013/11/27)

>  <Rbt.Parameter_File>
/export/apps/rDock/src/rDock_2013.1_src/data/scripts/dock_solv.prm

>  <Rbt.Receptor>
prm/blind_docking_80.prm

>  <SCORE>
-2.27847

>  <SCORE.INTER>
-1.54747

>  <SCORE.INTER.CONST>
1

>  <SCORE.INTER.POLAR>
0

>  <SCORE.INTER.ROT>
5

>  <SCORE.INTER.SOLV>
9.75789

>  <SCORE.INTER.VDW>
-11.2176

>  <SCORE.INTER.norm>
-0.154747

>  <SCORE.INTRA>
-0.730997

>  <SCORE.INTRA.DIHEDRAL>
-3.37442

>  <SCORE.INTRA.DIHEDRAL.0>
5.8785

>  <SCORE.INTRA.POLAR>
0

>  <SCORE.INTRA.POLAR.0>
0

>  <SCORE.INTRA.REPUL>
0

>  <SCORE.INTRA.REPUL.0>
0

>  <SCORE.INTRA.SOLV>
1.31076

>  <SCORE.INTRA.SOLV.lig_0>
-31.9559

>  <SCORE.INTRA.VDW>
0.300832

>  <SCORE.INTRA.VDW.0>
-0.507645

>  <SCORE.INTRA.norm>
-0.0730997

>  <SCORE.RESTR>
0

>  <SCORE.RESTR.CAVITY>
0

>  <SCORE.RESTR.norm>
0

>  <SCORE.SYSTEM>
0

>  <SCORE.SYSTEM.CONST>
0

>  <SCORE.SYSTEM.DIHEDRAL>
0

>  <SCORE.SYSTEM.SOLV>
0

>  <SCORE.SYSTEM.norm>
0

>  <SCORE.heavy>
10

>  <SCORE.norm>
-0.227847

>  <RMSD>
10.672

$$$$
ligand
 OpenBabel11021811473D
libRbt.so/2013.1/901 2013/11/27
 10  9  0  0  0  0  0  0  0  0999 V2000
   25.0323   21.6056   20.5767 N   0  0  0  0  0  0  0  0  0  0  0  0
   24.4819   22.5356   19.5556 C   0  0  2  0  0  0  0  0  0  0  0  0
   25.3179   22.5164   18.2756 C   0  0  0  0  0  0  0  0  0  0  0  0
   24.8522   22.9055   17.2091 O   0  0  0  0  0  0  0  0  0  0  0  0
   24.3490   23.9473   20.1383 C   0  0  0  0  0  0  0  0  0  0  0  0
   25.6715   24.5056   20.6537 C   0  0  0  0  0  0  0  0  0  0  0  0
   25.5384   25.9118   21.2215 C   0  0  0  0  0  0  0  0  0  0  0  0
   26.8904   26.4382   21.7045 C   0  0  0  0  0  0  0  0  0  0  0  0
   26.8477   27.8490   22.2516 N   0  0  0  0  0  0  0  0  0  0  0  0
   26.4894   22.1571   18.2477 O   0  0  0  0  0  0  0  0  0  0  0  0
  2  1  1  1  0  0  0
  2  3  1  0  0  0  0
  2  5  1  0  0  0  0
  3  4  1  0  0  0  0
  3 10  1  0  0  0  0
  5  6  1  0  0  0  0
  6  7  1  0  0  0  0
  7  8  1  0  0  0  0
  8  9  1  0  0  0  0
M  END
>  <CHROM.1>
159.60972734,57.83760249,179.54200309,-179.08789490,178.49371899,25.56129812
24.02735783,19.94742718,2.04504715,-1.06935331,-2.08214255

>  <Name>
ligand

>  <RI>
0

>  <Rbt.Current_Directory>
/home/itssahil/PROJECTS/Mol_Feturizer/New_Systems/rnas/3DIM

>  <Rbt.Executable>
rbdock ($Id: //depot/dev/client3/rdock/2013.1/src/exe/rbdock.cxx#4 $)

>  <Rbt.Library>
libRbt.so (2013.1, Build901 2013/11/27)

>  <Rbt.Parameter_File>
/export/apps/rDock/src/rDock_2013.1_src/data/scripts/dock_solv.prm

>  <Rbt.Receptor>
prm/blind_docking_80.prm

>  <SCORE>
-5.80537

>  <SCORE.INTER>
-2.90191

>  <SCORE.INTER.CONST>
1

>  <SCORE.INTER.POLAR>
0

>  <SCORE.INTER.ROT>
5

>  <SCORE.INTER.SOLV>
14.0477

>  <SCORE.INTER.VDW>
-13.5505

>  <SCORE.INTER.norm>
-0.290191

>  <SCORE.INTRA>
-2.90347

>  <SCORE.INTRA.DIHEDRAL>
-4.41233

>  <SCORE.INTRA.DIHEDRAL.0>
5.8785

>  <SCORE.INTRA.POLAR>
0

>  <SCORE.INTRA.POLAR.0>
0

>  <SCORE.INTRA.REPUL>
0

>  <SCORE.INTRA.REPUL.0>
0

>  <SCORE.INTRA.SOLV>
-0.930086

>  <SCORE.INTRA.SOLV.lig_0>
-31.9559

>  <SCORE.INTRA.VDW>
-0.232256

>  <SCORE.INTRA.VDW.0>
-0.507645

>  <SCORE.INTRA.norm>
-0.290347

>  <SCORE.RESTR>
0

>  <SCORE.RESTR.CAVITY>
0

>  <SCORE.RESTR.norm>
0

>  <SCORE.SYSTEM>
0

>  <SCORE.SYSTEM.CONST>
0

>  <SCORE.SYSTEM.DIHEDRAL>
0

>  <SCORE.SYSTEM.SOLV>
0

>  <SCORE.SYSTEM.norm>
0

>  <SCORE.heavy>
10

>  <SCORE.norm>
-0.580537

>  <RMSD>
10.720

$$$$
ligand
 OpenBabel11021811473D
libRbt.so/2013.1/901 2013/11/27
 10  9  0  0  0  0  0  0  0  0999 V2000
   27.2799   27.5105   18.9193 N   0  0  0  0  0  0  0  0  0  0  0  0
   26.9839   27.5967   20.3737 C   0  0  2  0  0  0  0  0  0  0  0  0
   28.2210   27.2788   21.2142 C   0  0  0  0  0  0  0  0  0  0  0  0
   28.2052   27.3997   22.4352 O   0  0  0  0  0  0  0  0  0  0  0  0
   25.7960   26.6953   20.7293 C   0  0  0  0  0  0  0  0  0  0  0  0
   26.0315   25.2313   20.3715 C   0  0  0  0  0  0  0  0  0  0  0  0
   24.7885   24.3713   20.5525 C   0  0  0  0  0  0  0  0  0  0  0  0
   25.0984   22.8975   20.2877 C   0  0  0  0  0  0  0  0  0  0  0  0
   25.6174   22.6129   18.8943 N   0  0  0  0  0  0  0  0  0  0  0  0
   29.2655   26.8553   20.7326 O   0  0  0  0  0  0  0  0  0  0  0  0
  2  1  1  6  0  0  0
  2  3  1  0  0  0  0
  2  5  1  0  0  0  0
  3  4  1  0  0  0  0
  3 10  1  0  0  0  0
  5  6  1  0  0  0  0
  6  7  1  0  0  0  0
  7  8  1  0  0  0  0
  8  9  1  0  0  0  0
M  END
>  <CHROM.1>
174.22243119,58.48939474,-172.36529771,-175.59948393,-59.65553863,26.76176793
25.84801675,20.47279423,0.03201824,-0.95972675,-1.24203319

>  <Name>
ligand

>  <RI>
0

>  <Rbt.Current_Directory>
/home/itssahil/PROJECTS/Mol_Feturizer/New_Systems/rnas/3DIM

>  <Rbt.Executable>
rbdock ($Id: //depot/dev/client3/rdock/2013.1/src/exe/rbdock.cxx#4 $)

>  <Rbt.Library>
libRbt.so (2013.1, Build901 2013/11/27)

>  <Rbt.Parameter_File>
/export/apps/rDock/src/rDock_2013.1_src/data/scripts/dock_solv.prm

>  <Rbt.Receptor>
prm/blind_docking_80.prm

>  <SCORE>
-4.58441

>  <SCORE.INTER>
-2.51291

>  <SCORE.INTER.CONST>
1

>  <SCORE.INTER.POLAR>
0

>  <SCORE.INTER.ROT>
5

>  <SCORE.INTER.SOLV>
7.38033

>  <SCORE.INTER.VDW>
-11.0687

>  <SCORE.INTER.norm>
-0.251291

>  <SCORE.INTRA>
-2.0715

>  <SCORE.INTRA.DIHEDRAL>
-4.06975

>  <SCORE.INTRA.DIHEDRAL.0>
5.8785

>  <SCORE.INTRA.POLAR>
0

>  <SCORE.INTRA.POLAR.0>
0

>  <SCORE.INTRA.REPUL>
0

>  <SCORE.INTRA.REPUL.0>
0

>  <SCORE.INTRA.SOLV>
0.0184021

>  <SCORE.INTRA.SOLV.lig_0>
-31.9559

>  <SCORE.INTRA.VDW>
-0.0458243

>  <SCORE.INTRA.VDW.0>
-0.507645

>  <SCORE.INTRA.norm>
-0.20715

>  <SCORE.RESTR>
0

>  <SCORE.RESTR.CAVITY>
0

>  <SCORE.RESTR.norm>
0

>  <SCORE.SYSTEM>
0

>  <SCORE.SYSTEM.CONST>
0

>  <SCORE.SYSTEM.DIHEDRAL>
0

>  <SCORE.SYSTEM.SOLV>
0

>  <SCORE.SYSTEM.norm>
0

>  <SCORE.heavy>
10

>  <SCORE.norm>
-0.458441

>  <RMSD>
10.752

$$$$
ligand
 OpenBabel11021811473D
libRbt.so/2013.1/901 2013/11/27
 10  9  0  0  0  0  0  0  0  0999 V2000
   25.2998   24.4521   21.0991 N   0  0  0  0  0  0  0  0  0  0  0  0
   25.0606   24.7633   19.6652 C   0  0  2  0  0  0  0  0  0  0  0  0
   23.7741   25.5678   19.4763 C   0  0  0  0  0  0  0  0  0  0  0  0
   23.5100   26.0964   18.4009 O   0  0  0  0  0  0  0  0  0  0  0  0
   25.0648   23.4757   18.8333 C   0  0  0  0  0  0  0  0  0  0  0  0
   26.4421   22.8256   18.7494 C   0  0  0  0  0  0  0  0  0  0  0  0
   26.5142   21.7272   17.6978 C   0  0  0  0  0  0  0  0  0  0  0  0
   26.3227   22.3000   16.2930 C   0  0  0  0  0  0  0  0  0  0  0  0
   27.3735   23.3109   15.8861 N   0  0  0  0  0  0  0  0  0  0  0  0
   22.9304   25.6953   20.3560 O   0  0  0  0  0  0  0  0  0  0  0  0
  2  1  1  1  0  0  0
  2  3  1  0  0  0  0
  2  5  1  0  0  0  0
  3  4  1  0  0  0  0
  3 10  1  0  0  0  0
  5  6  1  0  0  0  0
  6  7  1  0  0  0  0
  7  8  1  0  0  0  0
  8  9  1  0  0  0  0
M  END
>  <CHROM.1>
168.63331767,-68.46625248,-167.85856546,65.16176958,61.19417813,25.19472843
24.04650037,18.64711409,-2.62742672,0.84731483,-1.42871075

>  <Name>
ligand

>  <RI>
0

>  <Rbt.Current_Directory>
/home/itssahil/PROJECTS/Mol_Feturizer/New_Systems/rnas/3DIM

>  <Rbt.Executable>
rbdock ($Id: //depot/dev/client3/rdock/2013.1/src/exe/rbdock.cxx#4 $)

>  <Rbt.Library>
libRbt.so (2013.1, Build901 2013/11/27)

>  <Rbt.Parameter_File>
/export/apps/rDock/src/rDock_2013.1_src/data/scripts/dock_solv.prm

>  <Rbt.Receptor>
prm/blind_docking_100.prm

>  <SCORE>
-2.46675

>  <SCORE.INTER>
-1.33843

>  <SCORE.INTER.CONST>
1

>  <SCORE.INTER.POLAR>
0

>  <SCORE.INTER.ROT>
5

>  <SCORE.INTER.SOLV>
11.6212

>  <SCORE.INTER.VDW>
-11.6994

>  <SCORE.INTER.norm>
-0.133843

>  <SCORE.INTRA>
-1.12833

>  <SCORE.INTRA.DIHEDRAL>
-3.41423

>  <SCORE.INTRA.DIHEDRAL.0>
5.8785

>  <SCORE.INTRA.POLAR>
0

>  <SCORE.INTRA.POLAR.0>
0

>  <SCORE.INTRA.REPUL>
0

>  <SCORE.INTRA.REPUL.0>
0

>  <SCORE.INTRA.SOLV>
0.37724

>  <SCORE.INTRA.SOLV.lig_0>
-31.9559

>  <SCORE.INTRA.VDW>
0.390167

>  <SCORE.INTRA.VDW.0>
-0.507645

>  <SCORE.INTRA.norm>
-0.112833

>  <SCORE.RESTR>
0

>  <SCORE.RESTR.CAVITY>
0

>  <SCORE.RESTR.norm>
0

>  <SCORE.SYSTEM>
0

>  <SCORE.SYSTEM.CONST>
0

>  <SCORE.SYSTEM.DIHEDRAL>
0

>  <SCORE.SYSTEM.SOLV>
0

>  <SCORE.SYSTEM.norm>
0

>  <SCORE.heavy>
10

>  <SCORE.norm>
-0.246675

>  <RMSD>
10.767

$$$$
ligand
 OpenBabel11021811473D
libRbt.so/2013.1/901 2013/11/27
 10  9  0  0  0  0  0  0  0  0999 V2000
   26.5316   28.3312   22.5138 N   0  0  0  0  0  0  0  0  0  0  0  0
   26.8580   26.9825   21.9802 C   0  0  2  0  0  0  0  0  0  0  0  0
   27.9925   27.0473   20.9571 C   0  0  0  0  0  0  0  0  0  0  0  0
   27.7665   27.2896   19.7756 O   0  0  0  0  0  0  0  0  0  0  0  0
   25.6007   26.3179   21.4081 C   0  0  0  0  0  0  0  0  0  0  0  0
   25.8317   24.8702   20.9870 C   0  0  0  0  0  0  0  0  0  0  0  0
   24.5732   24.2028   20.4500 C   0  0  0  0  0  0  0  0  0  0  0  0
   24.8546   22.7595   20.0304 C   0  0  0  0  0  0  0  0  0  0  0  0
   25.8019   22.6277   18.8570 N   0  0  0  0  0  0  0  0  0  0  0  0
   29.1721   26.9043   21.2572 O   0  0  0  0  0  0  0  0  0  0  0  0
  2  1  1  6  0  0  0
  2  3  1  0  0  0  0
  2  5  1  0  0  0  0
  3  4  1  0  0  0  0
  3 10  1  0  0  0  0
  5  6  1  0  0  0  0
  6  7  1  0  0  0  0
  7  8  1  0  0  0  0
  8  9  1  0  0  0  0
M  END
>  <CHROM.1>
-85.53122077,-173.50088723,178.63614553,179.53369207,-65.52479340,26.52955438
25.74379349,20.80293947,1.00286182,0.41787153,0.61628852

>  <Name>
ligand

>  <RI>
0

>  <Rbt.Current_Directory>
/home/itssahil/PROJECTS/Mol_Feturizer/New_Systems/rnas/3DIM

>  <Rbt.Executable>
rbdock ($Id: //depot/dev/client3/rdock/2013.1/src/exe/rbdock.cxx#4 $)

>  <Rbt.Library>
libRbt.so (2013.1, Build901 2013/11/27)

>  <Rbt.Parameter_File>
/export/apps/rDock/src/rDock_2013.1_src/data/scripts/dock_solv.prm

>  <Rbt.Receptor>
prm/blind_docking_100.prm

>  <SCORE>
-6.24219

>  <SCORE.INTER>
-3.59337

>  <SCORE.INTER.CONST>
1

>  <SCORE.INTER.POLAR>
0

>  <SCORE.INTER.ROT>
5

>  <SCORE.INTER.SOLV>
8.11179

>  <SCORE.INTER.VDW>
-12.0328

>  <SCORE.INTER.norm>
-0.359337

>  <SCORE.INTRA>
-2.64883

>  <SCORE.INTRA.DIHEDRAL>
-4.18143

>  <SCORE.INTRA.DIHEDRAL.0>
5.8785

>  <SCORE.INTRA.POLAR>
0

>  <SCORE.INTRA.POLAR.0>
0

>  <SCORE.INTRA.REPUL>
0

>  <SCORE.INTRA.REPUL.0>
0

>  <SCORE.INTRA.SOLV>
-1.02415

>  <SCORE.INTRA.SOLV.lig_0>
-31.9559

>  <SCORE.INTRA.VDW>
-0.0460374

>  <SCORE.INTRA.VDW.0>
-0.507645

>  <SCORE.INTRA.norm>
-0.264883

>  <SCORE.RESTR>
0

>  <SCORE.RESTR.CAVITY>
0

>  <SCORE.RESTR.norm>
0

>  <SCORE.SYSTEM>
0

>  <SCORE.SYSTEM.CONST>
0

>  <SCORE.SYSTEM.DIHEDRAL>
0

>  <SCORE.SYSTEM.SOLV>
0

>  <SCORE.SYSTEM.norm>
0

>  <SCORE.heavy>
10

>  <SCORE.norm>
-0.624219

>  <RMSD>
10.838

$$$$
ligand
 OpenBabel11021811473D
libRbt.so/2013.1/901 2013/11/27
 10  9  0  0  0  0  0  0  0  0999 V2000
   26.2354   23.1095   17.7700 N   0  0  0  0  0  0  0  0  0  0  0  0
   26.0786   23.3203   19.2333 C   0  0  2  0  0  0  0  0  0  0  0  0
   24.9063   22.5121   19.7905 C   0  0  0  0  0  0  0  0  0  0  0  0
   24.9946   21.9274   20.8657 O   0  0  0  0  0  0  0  0  0  0  0  0
   25.9499   24.8157   19.5447 C   0  0  0  0  0  0  0  0  0  0  0  0
   25.9843   25.1177   21.0394 C   0  0  0  0  0  0  0  0  0  0  0  0
   26.0472   26.6088   21.3399 C   0  0  0  0  0  0  0  0  0  0  0  0
   26.3549   26.8577   22.8169 C   0  0  0  0  0  0  0  0  0  0  0  0
   26.5243   28.3181   23.1782 N   0  0  0  0  0  0  0  0  0  0  0  0
   23.8199   22.4357   19.2283 O   0  0  0  0  0  0  0  0  0  0  0  0
  2  1  1  6  0  0  0
  2  3  1  0  0  0  0
  2  5  1  0  0  0  0
  3  4  1  0  0  0  0
  3 10  1  0  0  0  0
  5  6  1  0  0  0  0
  6  7  1  0  0  0  0
  7  8  1  0  0  0  0
  8  9  1  0  0  0  0
M  END
>  <CHROM.1>
138.68791508,-171.85703509,172.19056245,-168.87612561,176.18587434,25.66190481
24.47394708,20.48731137,-1.99290655,1.01139960,0.96697270

>  <Name>
ligand

>  <RI>
0

>  <Rbt.Current_Directory>
/home/itssahil/PROJECTS/Mol_Feturizer/New_Systems/rnas/3DIM

>  <Rbt.Executable>
rbdock ($Id: //depot/dev/client3/rdock/2013.1/src/exe/rbdock.cxx#4 $)

>  <Rbt.Library>
libRbt.so (2013.1, Build901 2013/11/27)

>  <Rbt.Parameter_File>
/export/apps/rDock/src/rDock_2013.1_src/data/scripts/dock_solv.prm

>  <Rbt.Receptor>
prm/blind_docking_80.prm

>  <SCORE>
-6.01487

>  <SCORE.INTER>
-2.99249

>  <SCORE.INTER.CONST>
1

>  <SCORE.INTER.POLAR>
0

>  <SCORE.INTER.ROT>
5

>  <SCORE.INTER.SOLV>
7.5392

>  <SCORE.INTER.VDW>
-11.4414

>  <SCORE.INTER.norm>
-0.299249

>  <SCORE.INTRA>
-3.02237

>  <SCORE.INTRA.DIHEDRAL>
-3.38621

>  <SCORE.INTRA.DIHEDRAL.0>
5.8785

>  <SCORE.INTRA.POLAR>
0

>  <SCORE.INTRA.POLAR.0>
0

>  <SCORE.INTRA.REPUL>
0

>  <SCORE.INTRA.REPUL.0>
0

>  <SCORE.INTRA.SOLV>
-1.87864

>  <SCORE.INTRA.SOLV.lig_0>
-31.9559

>  <SCORE.INTRA.VDW>
-0.389949

>  <SCORE.INTRA.VDW.0>
-0.507645

>  <SCORE.INTRA.norm>
-0.302237

>  <SCORE.RESTR>
0

>  <SCORE.RESTR.CAVITY>
0

>  <SCORE.RESTR.norm>
0

>  <SCORE.SYSTEM>
0

>  <SCORE.SYSTEM.CONST>
0

>  <SCORE.SYSTEM.DIHEDRAL>
0

>  <SCORE.SYSTEM.SOLV>
0

>  <SCORE.SYSTEM.norm>
0

>  <SCORE.heavy>
10

>  <SCORE.norm>
-0.601487

>  <RMSD>
10.971

$$$$
ligand
 OpenBabel11021811473D
libRbt.so/2013.1/901 2013/11/27
 10  9  0  0  0  0  0  0  0  0999 V2000
   26.0701   25.7082   19.7231 N   0  0  0  0  0  0  0  0  0  0  0  0
   24.6777   25.4206   19.2888 C   0  0  2  0  0  0  0  0  0  0  0  0
   23.9652   24.4961   20.2766 C   0  0  0  0  0  0  0  0  0  0  0  0
   24.5307   23.5126   20.7442 O   0  0  0  0  0  0  0  0  0  0  0  0
   24.6704   24.8585   17.8626 C   0  0  0  0  0  0  0  0  0  0  0  0
   25.4062   23.5277   17.7435 C   0  0  0  0  0  0  0  0  0  0  0  0
   25.2711   22.8991   16.3636 C   0  0  0  0  0  0  0  0  0  0  0  0
   25.9903   23.7379   15.3064 C   0  0  0  0  0  0  0  0  0  0  0  0
   27.4900   23.8220   15.4955 N   0  0  0  0  0  0  0  0  0  0  0  0
   22.8268   24.7010   20.6819 O   0  0  0  0  0  0  0  0  0  0  0  0
  2  1  1  1  0  0  0
  2  3  1  0  0  0  0
  2  5  1  0  0  0  0
  3  4  1  0  0  0  0
  3 10  1  0  0  0  0
  5  6  1  0  0  0  0
  6  7  1  0  0  0  0
  7  8  1  0  0  0  0
  8  9  1  0  0  0  0
M  END
>  <CHROM.1>
-43.76692970,62.73030401,173.85099661,66.94820440,64.16814273,25.06892899
24.25223303,18.38067206,-2.16434508,-0.63516798,-2.15924304

>  <Name>
ligand

>  <RI>
0

>  <Rbt.Current_Directory>
/home/itssahil/PROJECTS/Mol_Feturizer/New_Systems/rnas/3DIM

>  <Rbt.Executable>
rbdock ($Id: //depot/dev/client3/rdock/2013.1/src/exe/rbdock.cxx#4 $)

>  <Rbt.Library>
libRbt.so (2013.1, Build901 2013/11/27)

>  <Rbt.Parameter_File>
/export/apps/rDock/src/rDock_2013.1_src/data/scripts/dock_solv.prm

>  <Rbt.Receptor>
prm/blind_docking_60.prm

>  <SCORE>
-4.21114

>  <SCORE.INTER>
-2.87383

>  <SCORE.INTER.CONST>
1

>  <SCORE.INTER.POLAR>
0

>  <SCORE.INTER.ROT>
5

>  <SCORE.INTER.SOLV>
4.63979

>  <SCORE.INTER.VDW>
-10.3958

>  <SCORE.INTER.norm>
-0.287383

>  <SCORE.INTRA>
-1.33731

>  <SCORE.INTRA.DIHEDRAL>
-3.87016

>  <SCORE.INTRA.DIHEDRAL.0>
5.8785

>  <SCORE.INTRA.POLAR>
0

>  <SCORE.INTRA.POLAR.0>
0

>  <SCORE.INTRA.REPUL>
0

>  <SCORE.INTRA.REPUL.0>
0

>  <SCORE.INTRA.SOLV>
0.388267

>  <SCORE.INTRA.SOLV.lig_0>
-31.9559

>  <SCORE.INTRA.VDW>
0.403641

>  <SCORE.INTRA.VDW.0>
-0.507645

>  <SCORE.INTRA.norm>
-0.133731

>  <SCORE.RESTR>
0

>  <SCORE.RESTR.CAVITY>
0

>  <SCORE.RESTR.norm>
0

>  <SCORE.SYSTEM>
0

>  <SCORE.SYSTEM.CONST>
0

>  <SCORE.SYSTEM.DIHEDRAL>
0

>  <SCORE.SYSTEM.SOLV>
0

>  <SCORE.SYSTEM.norm>
0

>  <SCORE.heavy>
10

>  <SCORE.norm>
-0.421114

>  <RMSD>
11.043

$$$$
ligand
 OpenBabel11021811473D
libRbt.so/2013.1/901 2013/11/27
 10  9  0  0  0  0  0  0  0  0999 V2000
   26.3069   23.1985   17.8780 N   0  0  0  0  0  0  0  0  0  0  0  0
   26.0825   23.4384   19.3280 C   0  0  2  0  0  0  0  0  0  0  0  0
   24.9151   22.6045   19.8569 C   0  0  0  0  0  0  0  0  0  0  0  0
   25.0103   21.9757   20.9063 O   0  0  0  0  0  0  0  0  0  0  0  0
   25.8919   24.9356   19.5964 C   0  0  0  0  0  0  0  0  0  0  0  0
   25.9268   25.2834   21.0811 C   0  0  0  0  0  0  0  0  0  0  0  0
   25.8701   26.7828   21.3384 C   0  0  0  0  0  0  0  0  0  0  0  0
   26.0581   27.0914   22.8242 C   0  0  0  0  0  0  0  0  0  0  0  0
   26.0430   28.5679   23.1584 N   0  0  0  0  0  0  0  0  0  0  0  0
   23.8261   22.5486   19.2974 O   0  0  0  0  0  0  0  0  0  0  0  0
  2  1  1  6  0  0  0
  2  3  1  0  0  0  0
  2  5  1  0  0  0  0
  3  4  1  0  0  0  0
  3 10  1  0  0  0  0
  5  6  1  0  0  0  0
  6  7  1  0  0  0  0
  7  8  1  0  0  0  0
  8  9  1  0  0  0  0
M  END
>  <CHROM.1>
133.74509109,-168.86197385,174.55022467,-173.92238903,178.78869607,25.56625779
24.61348879,20.53275657,-1.86476902,1.00944837,0.82774465

>  <Name>
ligand

>  <RI>
0

>  <Rbt.Current_Directory>
/home/itssahil/PROJECTS/Mol_Feturizer/New_Systems/rnas/3DIM

>  <Rbt.Executable>
rbdock ($Id: //depot/dev/client3/rdock/2013.1/src/exe/rbdock.cxx#4 $)

>  <Rbt.Library>
libRbt.so (2013.1, Build901 2013/11/27)

>  <Rbt.Parameter_File>
/export/apps/rDock/src/rDock_2013.1_src/data/scripts/dock_solv.prm

>  <Rbt.Receptor>
prm/blind_docking_80.prm

>  <SCORE>
-6.12742

>  <SCORE.INTER>
-2.89232

>  <SCORE.INTER.CONST>
1

>  <SCORE.INTER.POLAR>
0

>  <SCORE.INTER.ROT>
5

>  <SCORE.INTER.SOLV>
7.73589

>  <SCORE.INTER.VDW>
-11.4402

>  <SCORE.INTER.norm>
-0.289232

>  <SCORE.INTRA>
-3.2351

>  <SCORE.INTRA.DIHEDRAL>
-3.68774

>  <SCORE.INTRA.DIHEDRAL.0>
5.8785

>  <SCORE.INTRA.POLAR>
0

>  <SCORE.INTRA.POLAR.0>
0

>  <SCORE.INTRA.REPUL>
0

>  <SCORE.INTRA.REPUL.0>
0

>  <SCORE.INTRA.SOLV>
-1.87834

>  <SCORE.INTRA.SOLV.lig_0>
-31.9559

>  <SCORE.INTRA.VDW>
-0.452058

>  <SCORE.INTRA.VDW.0>
-0.507645

>  <SCORE.INTRA.norm>
-0.32351

>  <SCORE.RESTR>
0

>  <SCORE.RESTR.CAVITY>
0

>  <SCORE.RESTR.norm>
0

>  <SCORE.SYSTEM>
0

>  <SCORE.SYSTEM.CONST>
0

>  <SCORE.SYSTEM.DIHEDRAL>
0

>  <SCORE.SYSTEM.SOLV>
0

>  <SCORE.SYSTEM.norm>
0

>  <SCORE.heavy>
10

>  <SCORE.norm>
-0.612742

>  <RMSD>
11.097

$$$$
ligand
 OpenBabel11021811473D
libRbt.so/2013.1/901 2013/11/27
 10  9  0  0  0  0  0  0  0  0999 V2000
   27.1711   27.3055   20.6500 N   0  0  0  0  0  0  0  0  0  0  0  0
   25.9224   26.9485   21.3736 C   0  0  2  0  0  0  0  0  0  0  0  0
   25.8343   27.6660   22.7210 C   0  0  0  0  0  0  0  0  0  0  0  0
   26.5518   27.3384   23.6609 O   0  0  0  0  0  0  0  0  0  0  0  0
   25.8088   25.4268   21.5203 C   0  0  0  0  0  0  0  0  0  0  0  0
   25.4776   24.7252   20.2070 C   0  0  0  0  0  0  0  0  0  0  0  0
   25.3298   23.2181   20.3629 C   0  0  0  0  0  0  0  0  0  0  0  0
   24.9341   22.5662   19.0376 C   0  0  0  0  0  0  0  0  0  0  0  0
   25.9528   22.7405   17.9314 N   0  0  0  0  0  0  0  0  0  0  0  0
   25.0871   28.6159   22.9247 O   0  0  0  0  0  0  0  0  0  0  0  0
  2  1  1  1  0  0  0
  2  3  1  0  0  0  0
  2  5  1  0  0  0  0
  3  4  1  0  0  0  0
  3 10  1  0  0  0  0
  5  6  1  0  0  0  0
  6  7  1  0  0  0  0
  7  8  1  0  0  0  0
  8  9  1  0  0  0  0
M  END
>  <CHROM.1>
-72.31002431,-72.35771123,-178.50684715,177.33518913,61.89005713,25.80590153
25.68225040,21.07603042,-1.42342725,-0.98884421,-2.36052175

>  <Name>
ligand

>  <RI>
0

>  <Rbt.Current_Directory>
/home/itssahil/PROJECTS/Mol_Feturizer/New_Systems/rnas/3DIM

>  <Rbt.Executable>
rbdock ($Id: //depot/dev/client3/rdock/2013.1/src/exe/rbdock.cxx#4 $)

>  <Rbt.Library>
libRbt.so (2013.1, Build901 2013/11/27)

>  <Rbt.Parameter_File>
/export/apps/rDock/src/rDock_2013.1_src/data/scripts/dock_solv.prm

>  <Rbt.Receptor>
prm/blind_docking_100.prm

>  <SCORE>
-4.90063

>  <SCORE.INTER>
-2.68813

>  <SCORE.INTER.CONST>
1

>  <SCORE.INTER.POLAR>
0

>  <SCORE.INTER.ROT>
5

>  <SCORE.INTER.SOLV>
7.47093

>  <SCORE.INTER.VDW>
-11.2157

>  <SCORE.INTER.norm>
-0.268813

>  <SCORE.INTRA>
-2.2125

>  <SCORE.INTRA.DIHEDRAL>
-3.76805

>  <SCORE.INTRA.DIHEDRAL.0>
5.8785

>  <SCORE.INTRA.POLAR>
0

>  <SCORE.INTRA.POLAR.0>
0

>  <SCORE.INTRA.REPUL>
0

>  <SCORE.INTRA.REPUL.0>
0

>  <SCORE.INTRA.SOLV>
-0.237401

>  <SCORE.INTRA.SOLV.lig_0>
-31.9559

>  <SCORE.INTRA.VDW>
-0.209775

>  <SCORE.INTRA.VDW.0>
-0.507645

>  <SCORE.INTRA.norm>
-0.22125

>  <SCORE.RESTR>
0

>  <SCORE.RESTR.CAVITY>
0

>  <SCORE.RESTR.norm>
0

>  <SCORE.SYSTEM>
0

>  <SCORE.SYSTEM.CONST>
0

>  <SCORE.SYSTEM.DIHEDRAL>
0

>  <SCORE.SYSTEM.SOLV>
0

>  <SCORE.SYSTEM.norm>
0

>  <SCORE.heavy>
10

>  <SCORE.norm>
-0.490063

>  <RMSD>
11.131

$$$$
ligand
 OpenBabel11021811473D
libRbt.so/2013.1/901 2013/11/27
 10  9  0  0  0  0  0  0  0  0999 V2000
   25.9967   24.2720   18.5535 N   0  0  0  0  0  0  0  0  0  0  0  0
   25.8408   23.6591   19.8990 C   0  0  2  0  0  0  0  0  0  0  0  0
   24.8936   22.4594   19.8589 C   0  0  0  0  0  0  0  0  0  0  0  0
   25.0546   21.5002   20.6069 O   0  0  0  0  0  0  0  0  0  0  0  0
   25.3935   24.7152   20.9162 C   0  0  0  0  0  0  0  0  0  0  0  0
   26.4310   25.8125   21.1303 C   0  0  0  0  0  0  0  0  0  0  0  0
   26.0447   26.7834   22.2374 C   0  0  0  0  0  0  0  0  0  0  0  0
   27.1269   27.8450   22.4378 C   0  0  0  0  0  0  0  0  0  0  0  0
   27.3264   28.7604   21.2487 N   0  0  0  0  0  0  0  0  0  0  0  0
   23.9158   22.4042   19.1219 O   0  0  0  0  0  0  0  0  0  0  0  0
  2  1  1  6  0  0  0
  2  3  1  0  0  0  0
  2  5  1  0  0  0  0
  3  4  1  0  0  0  0
  3 10  1  0  0  0  0
  5  6  1  0  0  0  0
  6  7  1  0  0  0  0
  7  8  1  0  0  0  0
  8  9  1  0  0  0  0
M  END
>  <CHROM.1>
147.41714989,-64.15676836,-174.39573294,178.69664848,64.54000166,25.77803893
24.78248117,20.59627622,-2.70705842,1.18367330,1.48046902

>  <Name>
ligand

>  <RI>
0

>  <Rbt.Current_Directory>
/home/itssahil/PROJECTS/Mol_Feturizer/New_Systems/rnas/3DIM

>  <Rbt.Executable>
rbdock ($Id: //depot/dev/client3/rdock/2013.1/src/exe/rbdock.cxx#4 $)

>  <Rbt.Library>
libRbt.so (2013.1, Build901 2013/11/27)

>  <Rbt.Parameter_File>
/export/apps/rDock/src/rDock_2013.1_src/data/scripts/dock_solv.prm

>  <Rbt.Receptor>
prm/blind_docking_100.prm

>  <SCORE>
-6.55279

>  <SCORE.INTER>
-4.08499

>  <SCORE.INTER.CONST>
1

>  <SCORE.INTER.POLAR>
0

>  <SCORE.INTER.ROT>
5

>  <SCORE.INTER.SOLV>
6.32464

>  <SCORE.INTER.VDW>
-11.7649

>  <SCORE.INTER.norm>
-0.408499

>  <SCORE.INTRA>
-2.4678

>  <SCORE.INTRA.DIHEDRAL>
-4.16033

>  <SCORE.INTRA.DIHEDRAL.0>
5.8785

>  <SCORE.INTRA.POLAR>
0

>  <SCORE.INTRA.POLAR.0>
0

>  <SCORE.INTRA.REPUL>
0

>  <SCORE.INTRA.REPUL.0>
0

>  <SCORE.INTRA.SOLV>
-0.181745

>  <SCORE.INTRA.SOLV.lig_0>
-31.9559

>  <SCORE.INTRA.VDW>
-0.296764

>  <SCORE.INTRA.VDW.0>
-0.507645

>  <SCORE.INTRA.norm>
-0.24678

>  <SCORE.RESTR>
0

>  <SCORE.RESTR.CAVITY>
0

>  <SCORE.RESTR.norm>
0

>  <SCORE.SYSTEM>
0

>  <SCORE.SYSTEM.CONST>
0

>  <SCORE.SYSTEM.DIHEDRAL>
0

>  <SCORE.SYSTEM.SOLV>
0

>  <SCORE.SYSTEM.norm>
0

>  <SCORE.heavy>
10

>  <SCORE.norm>
-0.655279

>  <RMSD>
11.220

$$$$
ligand
 OpenBabel11021811473D
libRbt.so/2013.1/901 2013/11/27
 10  9  0  0  0  0  0  0  0  0999 V2000
   27.7685   28.3075   23.0170 N   0  0  0  0  0  0  0  0  0  0  0  0
   27.5862   27.1341   22.1225 C   0  0  2  0  0  0  0  0  0  0  0  0
   28.2100   27.3785   20.7481 C   0  0  0  0  0  0  0  0  0  0  0  0
   29.2435   26.8091   20.4114 O   0  0  0  0  0  0  0  0  0  0  0  0
   26.1018   26.7639   22.0262 C   0  0  0  0  0  0  0  0  0  0  0  0
   25.8681   25.4060   21.3718 C   0  0  0  0  0  0  0  0  0  0  0  0
   25.9958   25.4508   19.8555 C   0  0  0  0  0  0  0  0  0  0  0  0
   25.7196   24.0779   19.2414 C   0  0  0  0  0  0  0  0  0  0  0  0
   25.8309   24.0391   17.7322 N   0  0  0  0  0  0  0  0  0  0  0  0
   27.7040   28.1102   19.9050 O   0  0  0  0  0  0  0  0  0  0  0  0
  2  1  1  1  0  0  0
  2  3  1  0  0  0  0
  2  5  1  0  0  0  0
  3  4  1  0  0  0  0
  3 10  1  0  0  0  0
  5  6  1  0  0  0  0
  6  7  1  0  0  0  0
  7  8  1  0  0  0  0
  8  9  1  0  0  0  0
M  END
>  <CHROM.1>
107.50213653,-167.83724928,-77.93762727,-178.58395593,-179.84743773,27.02262579
26.35850921,20.61757152,1.00772885,0.64005738,1.08240109

>  <Name>
ligand

>  <RI>
0

>  <Rbt.Current_Directory>
/home/itssahil/PROJECTS/Mol_Feturizer/New_Systems/rnas/3DIM

>  <Rbt.Executable>
rbdock ($Id: //depot/dev/client3/rdock/2013.1/src/exe/rbdock.cxx#4 $)

>  <Rbt.Library>
libRbt.so (2013.1, Build901 2013/11/27)

>  <Rbt.Parameter_File>
/export/apps/rDock/src/rDock_2013.1_src/data/scripts/dock_solv.prm

>  <Rbt.Receptor>
prm/blind_docking_100.prm

>  <SCORE>
-3.59138

>  <SCORE.INTER>
-1.16091

>  <SCORE.INTER.CONST>
1

>  <SCORE.INTER.POLAR>
0

>  <SCORE.INTER.ROT>
5

>  <SCORE.INTER.SOLV>
6.24361

>  <SCORE.INTER.VDW>
-9.78848

>  <SCORE.INTER.norm>
-0.116091

>  <SCORE.INTRA>
-2.43047

>  <SCORE.INTRA.DIHEDRAL>
-2.51774

>  <SCORE.INTRA.DIHEDRAL.0>
5.8785

>  <SCORE.INTRA.POLAR>
0

>  <SCORE.INTRA.POLAR.0>
0

>  <SCORE.INTRA.REPUL>
0

>  <SCORE.INTRA.REPUL.0>
0

>  <SCORE.INTRA.SOLV>
-1.80541

>  <SCORE.INTRA.SOLV.lig_0>
-31.9559

>  <SCORE.INTRA.VDW>
-0.268896

>  <SCORE.INTRA.VDW.0>
-0.507645

>  <SCORE.INTRA.norm>
-0.243047

>  <SCORE.RESTR>
0

>  <SCORE.RESTR.CAVITY>
0

>  <SCORE.RESTR.norm>
0

>  <SCORE.SYSTEM>
0

>  <SCORE.SYSTEM.CONST>
0

>  <SCORE.SYSTEM.DIHEDRAL>
0

>  <SCORE.SYSTEM.SOLV>
0

>  <SCORE.SYSTEM.norm>
0

>  <SCORE.heavy>
10

>  <SCORE.norm>
-0.359138

>  <RMSD>
11.228

$$$$
ligand
 OpenBabel11021811473D
libRbt.so/2013.1/901 2013/11/27
 10  9  0  0  0  0  0  0  0  0999 V2000
   23.5930   24.1922   19.8952 N   0  0  0  0  0  0  0  0  0  0  0  0
   25.0252   23.8014   19.8142 C   0  0  2  0  0  0  0  0  0  0  0  0
   25.1839   22.2845   19.7059 C   0  0  0  0  0  0  0  0  0  0  0  0
   25.6954   21.7705   18.7160 O   0  0  0  0  0  0  0  0  0  0  0  0
   25.8027   24.3808   21.0015 C   0  0  0  0  0  0  0  0  0  0  0  0
   25.8700   25.9045   20.9825 C   0  0  0  0  0  0  0  0  0  0  0  0
   26.6741   26.4752   22.1424 C   0  0  0  0  0  0  0  0  0  0  0  0
   26.7305   28.0017   22.0716 C   0  0  0  0  0  0  0  0  0  0  0  0
   27.5234   28.6460   23.1887 N   0  0  0  0  0  0  0  0  0  0  0  0
   24.8540   21.5125   20.5988 O   0  0  0  0  0  0  0  0  0  0  0  0
  2  1  1  1  0  0  0
  2  3  1  0  0  0  0
  2  5  1  0  0  0  0
  3  4  1  0  0  0  0
  3 10  1  0  0  0  0
  5  6  1  0  0  0  0
  6  7  1  0  0  0  0
  7  8  1  0  0  0  0
  8  9  1  0  0  0  0
M  END
>  <CHROM.1>
117.42631891,-65.73302484,-178.47625031,179.21446268,-179.58271042,25.69559514
24.65187155,20.80211336,1.90657907,0.44993020,-2.82716536

>  <Name>
ligand

>  <RI>
0

>  <Rbt.Current_Directory>
/home/itssahil/PROJECTS/Mol_Feturizer/New_Systems/rnas/3DIM

>  <Rbt.Executable>
rbdock ($Id: //depot/dev/client3/rdock/2013.1/src/exe/rbdock.cxx#4 $)

>  <Rbt.Library>
libRbt.so (2013.1, Build901 2013/11/27)

>  <Rbt.Parameter_File>
/export/apps/rDock/src/rDock_2013.1_src/data/scripts/dock_solv.prm

>  <Rbt.Receptor>
prm/blind_docking_80.prm

>  <SCORE>
-5.48924

>  <SCORE.INTER>
-2.54306

>  <SCORE.INTER.CONST>
1

>  <SCORE.INTER.POLAR>
0

>  <SCORE.INTER.ROT>
5

>  <SCORE.INTER.SOLV>
11.2779

>  <SCORE.INTER.VDW>
-12.388

>  <SCORE.INTER.norm>
-0.254306

>  <SCORE.INTRA>
-2.94619

>  <SCORE.INTRA.DIHEDRAL>
-4.19917

>  <SCORE.INTRA.DIHEDRAL.0>
5.8785

>  <SCORE.INTRA.POLAR>
0

>  <SCORE.INTRA.POLAR.0>
0

>  <SCORE.INTRA.REPUL>
0

>  <SCORE.INTRA.REPUL.0>
0

>  <SCORE.INTRA.SOLV>
-1.05255

>  <SCORE.INTRA.SOLV.lig_0>
-31.9559

>  <SCORE.INTRA.VDW>
-0.320325

>  <SCORE.INTRA.VDW.0>
-0.507645

>  <SCORE.INTRA.norm>
-0.294619

>  <SCORE.RESTR>
0

>  <SCORE.RESTR.CAVITY>
0

>  <SCORE.RESTR.norm>
0

>  <SCORE.SYSTEM>
0

>  <SCORE.SYSTEM.CONST>
0

>  <SCORE.SYSTEM.DIHEDRAL>
0

>  <SCORE.SYSTEM.SOLV>
0

>  <SCORE.SYSTEM.norm>
0

>  <SCORE.heavy>
10

>  <SCORE.norm>
-0.548924

>  <RMSD>
11.235

$$$$
ligand
 OpenBabel11021811473D
libRbt.so/2013.1/901 2013/11/27
 10  9  0  0  0  0  0  0  0  0999 V2000
   25.4684   24.7302   18.6140 N   0  0  0  0  0  0  0  0  0  0  0  0
   25.7153   23.9544   19.8579 C   0  0  2  0  0  0  0  0  0  0  0  0
   24.8568   22.6900   19.9061 C   0  0  0  0  0  0  0  0  0  0  0  0
   23.9692   22.4955   19.0815 O   0  0  0  0  0  0  0  0  0  0  0  0
   25.5059   24.8428   21.0895 C   0  0  0  0  0  0  0  0  0  0  0  0
   26.4813   26.0138   21.1516 C   0  0  0  0  0  0  0  0  0  0  0  0
   26.3574   26.8187   22.4378 C   0  0  0  0  0  0  0  0  0  0  0  0
   27.3901   27.9456   22.4808 C   0  0  0  0  0  0  0  0  0  0  0  0
   27.2260   28.9801   21.3878 N   0  0  0  0  0  0  0  0  0  0  0  0
   25.0274   21.7972   20.7283 O   0  0  0  0  0  0  0  0  0  0  0  0
  2  1  1  6  0  0  0
  2  3  1  0  0  0  0
  2  5  1  0  0  0  0
  3  4  1  0  0  0  0
  3 10  1  0  0  0  0
  5  6  1  0  0  0  0
  6  7  1  0  0  0  0
  7  8  1  0  0  0  0
  8  9  1  0  0  0  0
M  END
>  <CHROM.1>
-8.95004500,-62.71357312,-174.67220991,177.72406824,62.97798534,25.77731369
24.98681919,20.66902823,2.98591151,1.18339694,2.13551332

>  <Name>
ligand

>  <RI>
0

>  <Rbt.Current_Directory>
/home/itssahil/PROJECTS/Mol_Feturizer/New_Systems/rnas/3DIM

>  <Rbt.Executable>
rbdock ($Id: //depot/dev/client3/rdock/2013.1/src/exe/rbdock.cxx#4 $)

>  <Rbt.Library>
libRbt.so (2013.1, Build901 2013/11/27)

>  <Rbt.Parameter_File>
/export/apps/rDock/src/rDock_2013.1_src/data/scripts/dock_solv.prm

>  <Rbt.Receptor>
prm/blind_docking_80.prm

>  <SCORE>
-6.31768

>  <SCORE.INTER>
-4.05789

>  <SCORE.INTER.CONST>
1

>  <SCORE.INTER.POLAR>
0

>  <SCORE.INTER.ROT>
5

>  <SCORE.INTER.SOLV>
6.13623

>  <SCORE.INTER.VDW>
-11.684

>  <SCORE.INTER.norm>
-0.405789

>  <SCORE.INTRA>
-2.25979

>  <SCORE.INTRA.DIHEDRAL>
-4.11977

>  <SCORE.INTRA.DIHEDRAL.0>
5.8785

>  <SCORE.INTRA.POLAR>
0

>  <SCORE.INTRA.POLAR.0>
0

>  <SCORE.INTRA.REPUL>
0

>  <SCORE.INTRA.REPUL.0>
0

>  <SCORE.INTRA.SOLV>
-0.115425

>  <SCORE.INTRA.SOLV.lig_0>
-31.9559

>  <SCORE.INTRA.VDW>
-0.142191

>  <SCORE.INTRA.VDW.0>
-0.507645

>  <SCORE.INTRA.norm>
-0.225979

>  <SCORE.RESTR>
0

>  <SCORE.RESTR.CAVITY>
0

>  <SCORE.RESTR.norm>
0

>  <SCORE.SYSTEM>
0

>  <SCORE.SYSTEM.CONST>
0

>  <SCORE.SYSTEM.DIHEDRAL>
0

>  <SCORE.SYSTEM.SOLV>
0

>  <SCORE.SYSTEM.norm>
0

>  <SCORE.heavy>
10

>  <SCORE.norm>
-0.631768

>  <RMSD>
11.397

$$$$
ligand
 OpenBabel11021811473D
libRbt.so/2013.1/901 2013/11/27
 10  9  0  0  0  0  0  0  0  0999 V2000
   27.7941   14.3629    9.0880 N   0  0  0  0  0  0  0  0  0  0  0  0
   26.8084   14.6753   10.1563 C   0  0  2  0  0  0  0  0  0  0  0  0
   27.5031   14.9843   11.4829 C   0  0  0  0  0  0  0  0  0  0  0  0
   28.2177   15.9740   11.6079 O   0  0  0  0  0  0  0  0  0  0  0  0
   25.7888   13.5383   10.2887 C   0  0  0  0  0  0  0  0  0  0  0  0
   24.6094   13.8977   11.1866 C   0  0  0  0  0  0  0  0  0  0  0  0
   23.5992   12.7664   11.3168 C   0  0  0  0  0  0  0  0  0  0  0  0
   22.4776   13.1419   12.2859 C   0  0  0  0  0  0  0  0  0  0  0  0
   21.5902   14.2688   11.8018 N   0  0  0  0  0  0  0  0  0  0  0  0
   27.3581   14.2993   12.4888 O   0  0  0  0  0  0  0  0  0  0  0  0
  2  1  1  6  0  0  0
  2  3  1  0  0  0  0
  2  5  1  0  0  0  0
  3  4  1  0  0  0  0
  3 10  1  0  0  0  0
  5  6  1  0  0  0  0
  6  7  1  0  0  0  0
  7  8  1  0  0  0  0
  8  9  1  0  0  0  0
M  END
>  <CHROM.1>
65.43711777,-169.76074455,-179.96415829,176.80763435,66.56619125,25.60044984
14.20248881,11.19789384,0.05879635,-0.31322538,-1.91528737

>  <Name>
ligand

>  <RI>
0

>  <Rbt.Current_Directory>
/home/itssahil/PROJECTS/Mol_Feturizer/New_Systems/rnas/3DIM

>  <Rbt.Executable>
rbdock ($Id: //depot/dev/client3/rdock/2013.1/src/exe/rbdock.cxx#4 $)

>  <Rbt.Library>
libRbt.so (2013.1, Build901 2013/11/27)

>  <Rbt.Parameter_File>
/export/apps/rDock/src/rDock_2013.1_src/data/scripts/dock_solv.prm

>  <Rbt.Receptor>
prm/blind_docking_40.prm

>  <SCORE>
-5.99518

>  <SCORE.INTER>
-3.7876

>  <SCORE.INTER.CONST>
1

>  <SCORE.INTER.POLAR>
0

>  <SCORE.INTER.ROT>
5

>  <SCORE.INTER.SOLV>
8.05737

>  <SCORE.INTER.VDW>
-12.1442

>  <SCORE.INTER.norm>
-0.37876

>  <SCORE.INTRA>
-2.20758

>  <SCORE.INTRA.DIHEDRAL>
-3.77258

>  <SCORE.INTRA.DIHEDRAL.0>
5.8785

>  <SCORE.INTRA.POLAR>
0

>  <SCORE.INTRA.POLAR.0>
0

>  <SCORE.INTRA.REPUL>
0

>  <SCORE.INTRA.REPUL.0>
0

>  <SCORE.INTRA.SOLV>
-1.0659

>  <SCORE.INTRA.SOLV.lig_0>
-31.9559

>  <SCORE.INTRA.VDW>
0.211667

>  <SCORE.INTRA.VDW.0>
-0.507645

>  <SCORE.INTRA.norm>
-0.220758

>  <SCORE.RESTR>
0

>  <SCORE.RESTR.CAVITY>
0

>  <SCORE.RESTR.norm>
0

>  <SCORE.SYSTEM>
0

>  <SCORE.SYSTEM.CONST>
0

>  <SCORE.SYSTEM.DIHEDRAL>
0

>  <SCORE.SYSTEM.SOLV>
0

>  <SCORE.SYSTEM.norm>
0

>  <SCORE.heavy>
10

>  <SCORE.norm>
-0.599518

>  <RMSD>
11.437

$$$$
ligand
 OpenBabel11021811473D
libRbt.so/2013.1/901 2013/11/27
 10  9  0  0  0  0  0  0  0  0999 V2000
   27.4051   14.1828    9.0089 N   0  0  0  0  0  0  0  0  0  0  0  0
   26.6606   14.4516   10.2673 C   0  0  2  0  0  0  0  0  0  0  0  0
   27.5387   14.2140   11.4963 C   0  0  0  0  0  0  0  0  0  0  0  0
   28.5760   13.5632   11.4171 O   0  0  0  0  0  0  0  0  0  0  0  0
   25.3707   13.6244   10.3096 C   0  0  0  0  0  0  0  0  0  0  0  0
   24.4588   14.0024   11.4723 C   0  0  0  0  0  0  0  0  0  0  0  0
   23.2155   13.1281   11.5569 C   0  0  0  0  0  0  0  0  0  0  0  0
   22.3455   13.5262   12.7498 C   0  0  0  0  0  0  0  0  0  0  0  0
   21.0883   12.6974   12.9054 N   0  0  0  0  0  0  0  0  0  0  0  0
   27.2850   14.6831   12.5998 O   0  0  0  0  0  0  0  0  0  0  0  0
  2  1  1  6  0  0  0
  2  3  1  0  0  0  0
  2  5  1  0  0  0  0
  3  4  1  0  0  0  0
  3 10  1  0  0  0  0
  5  6  1  0  0  0  0
  6  7  1  0  0  0  0
  7  8  1  0  0  0  0
  8  9  1  0  0  0  0
M  END
>  <CHROM.1>
-17.17605127,-171.53013654,-176.83470025,178.97464158,-179.80372935,25.42598401
13.80585334,11.40230838,0.27264512,-0.18477732,-1.60205918

>  <Name>
ligand

>  <RI>
0

>  <Rbt.Current_Directory>
/home/itssahil/PROJECTS/Mol_Feturizer/New_Systems/rnas/3DIM

>  <Rbt.Executable>
rbdock ($Id: //depot/dev/client3/rdock/2013.1/src/exe/rbdock.cxx#4 $)

>  <Rbt.Library>
libRbt.so (2013.1, Build901 2013/11/27)

>  <Rbt.Parameter_File>
/export/apps/rDock/src/rDock_2013.1_src/data/scripts/dock_solv.prm

>  <Rbt.Receptor>
prm/blind_docking_40.prm

>  <SCORE>
-7.2256

>  <SCORE.INTER>
-4.02717

>  <SCORE.INTER.CONST>
1

>  <SCORE.INTER.POLAR>
0

>  <SCORE.INTER.ROT>
5

>  <SCORE.INTER.SOLV>
6.10694

>  <SCORE.INTER.VDW>
-11.6538

>  <SCORE.INTER.norm>
-0.402717

>  <SCORE.INTRA>
-3.19843

>  <SCORE.INTRA.DIHEDRAL>
-3.99802

>  <SCORE.INTRA.DIHEDRAL.0>
5.8785

>  <SCORE.INTRA.POLAR>
0

>  <SCORE.INTRA.POLAR.0>
0

>  <SCORE.INTRA.REPUL>
0

>  <SCORE.INTRA.REPUL.0>
0

>  <SCORE.INTRA.SOLV>
-1.84553

>  <SCORE.INTRA.SOLV.lig_0>
-31.9559

>  <SCORE.INTRA.VDW>
-0.276654

>  <SCORE.INTRA.VDW.0>
-0.507645

>  <SCORE.INTRA.norm>
-0.319843

>  <SCORE.RESTR>
0

>  <SCORE.RESTR.CAVITY>
0

>  <SCORE.RESTR.norm>
0

>  <SCORE.SYSTEM>
0

>  <SCORE.SYSTEM.CONST>
0

>  <SCORE.SYSTEM.DIHEDRAL>
0

>  <SCORE.SYSTEM.SOLV>
0

>  <SCORE.SYSTEM.norm>
0

>  <SCORE.heavy>
10

>  <SCORE.norm>
-0.72256

>  <RMSD>
11.442

$$$$
ligand
 OpenBabel11021811473D
libRbt.so/2013.1/901 2013/11/27
 10  9  0  0  0  0  0  0  0  0999 V2000
   27.6655   14.2520    8.9076 N   0  0  0  0  0  0  0  0  0  0  0  0
   26.7736   14.6496   10.0287 C   0  0  2  0  0  0  0  0  0  0  0  0
   27.5686   14.9074   11.3091 C   0  0  0  0  0  0  0  0  0  0  0  0
   28.0933   15.9964   11.5202 O   0  0  0  0  0  0  0  0  0  0  0  0
   25.6744   13.6006   10.2319 C   0  0  0  0  0  0  0  0  0  0  0  0
   24.6241   14.0288   11.2517 C   0  0  0  0  0  0  0  0  0  0  0  0
   23.5430   12.9781   11.4635 C   0  0  0  0  0  0  0  0  0  0  0  0
   22.5674   13.4087   12.5594 C   0  0  0  0  0  0  0  0  0  0  0  0
   21.5122   12.3754   12.8923 N   0  0  0  0  0  0  0  0  0  0  0  0
   27.6918   14.0734   12.1987 O   0  0  0  0  0  0  0  0  0  0  0  0
  2  1  1  6  0  0  0
  2  3  1  0  0  0  0
  2  5  1  0  0  0  0
  3  4  1  0  0  0  0
  3 10  1  0  0  0  0
  5  6  1  0  0  0  0
  6  7  1  0  0  0  0
  7  8  1  0  0  0  0
  8  9  1  0  0  0  0
M  END
>  <CHROM.1>
84.41307558,-172.91584256,-179.32110269,176.17076698,-176.25845684,25.59942832
14.03839290,11.26139791,0.20097871,-0.41140567,-1.79110547

>  <Name>
ligand

>  <RI>
0

>  <Rbt.Current_Directory>
/home/itssahil/PROJECTS/Mol_Feturizer/New_Systems/rnas/3DIM

>  <Rbt.Executable>
rbdock ($Id: //depot/dev/client3/rdock/2013.1/src/exe/rbdock.cxx#4 $)

>  <Rbt.Library>
libRbt.so (2013.1, Build901 2013/11/27)

>  <Rbt.Parameter_File>
/export/apps/rDock/src/rDock_2013.1_src/data/scripts/dock_solv.prm

>  <Rbt.Receptor>
prm/blind_docking_40.prm

>  <SCORE>
-6.73345

>  <SCORE.INTER>
-3.77218

>  <SCORE.INTER.CONST>
1

>  <SCORE.INTER.POLAR>
0

>  <SCORE.INTER.ROT>
5

>  <SCORE.INTER.SOLV>
6.64308

>  <SCORE.INTER.VDW>
-11.6625

>  <SCORE.INTER.norm>
-0.377218

>  <SCORE.INTRA>
-2.96127

>  <SCORE.INTRA.DIHEDRAL>
-4.00088

>  <SCORE.INTRA.DIHEDRAL.0>
5.8785

>  <SCORE.INTRA.POLAR>
0

>  <SCORE.INTRA.POLAR.0>
0

>  <SCORE.INTRA.REPUL>
0

>  <SCORE.INTRA.REPUL.0>
0

>  <SCORE.INTRA.SOLV>
-1.8919

>  <SCORE.INTRA.SOLV.lig_0>
-31.9559

>  <SCORE.INTRA.VDW>
-0.0148833

>  <SCORE.INTRA.VDW.0>
-0.507645

>  <SCORE.INTRA.norm>
-0.296127

>  <SCORE.RESTR>
0

>  <SCORE.RESTR.CAVITY>
0

>  <SCORE.RESTR.norm>
0

>  <SCORE.SYSTEM>
0

>  <SCORE.SYSTEM.CONST>
0

>  <SCORE.SYSTEM.DIHEDRAL>
0

>  <SCORE.SYSTEM.SOLV>
0

>  <SCORE.SYSTEM.norm>
0

>  <SCORE.heavy>
10

>  <SCORE.norm>
-0.673345

>  <RMSD>
11.445

$$$$
ligand
 OpenBabel11021811473D
libRbt.so/2013.1/901 2013/11/27
 10  9  0  0  0  0  0  0  0  0999 V2000
   26.1993   23.4822   17.8020 N   0  0  0  0  0  0  0  0  0  0  0  0
   24.8198   23.8985   18.1680 C   0  0  2  0  0  0  0  0  0  0  0  0
   24.6174   25.4000   17.9621 C   0  0  0  0  0  0  0  0  0  0  0  0
   23.5938   25.9591   18.3433 O   0  0  0  0  0  0  0  0  0  0  0  0
   24.4950   23.4624   19.6013 C   0  0  0  0  0  0  0  0  0  0  0  0
   25.5119   23.9646   20.6213 C   0  0  0  0  0  0  0  0  0  0  0  0
   25.4192   25.4655   20.8586 C   0  0  0  0  0  0  0  0  0  0  0  0
   26.4571   25.9233   21.8840 C   0  0  0  0  0  0  0  0  0  0  0  0
   26.4993   27.4213   22.0982 N   0  0  0  0  0  0  0  0  0  0  0  0
   25.4639   26.1248   17.4519 O   0  0  0  0  0  0  0  0  0  0  0  0
  2  1  1  1  0  0  0
  2  3  1  0  0  0  0
  2  5  1  0  0  0  0
  3  4  1  0  0  0  0
  3 10  1  0  0  0  0
  5  6  1  0  0  0  0
  6  7  1  0  0  0  0
  7  8  1  0  0  0  0
  8  9  1  0  0  0  0
M  END
>  <CHROM.1>
-172.05564736,54.83246628,71.20947432,-179.88265721,175.62260560,25.29895128
25.14062795,19.46576393,-2.65108422,-1.22304327,0.09620740

>  <Name>
ligand

>  <RI>
0

>  <Rbt.Current_Directory>
/home/itssahil/PROJECTS/Mol_Feturizer/New_Systems/rnas/3DIM

>  <Rbt.Executable>
rbdock ($Id: //depot/dev/client3/rdock/2013.1/src/exe/rbdock.cxx#4 $)

>  <Rbt.Library>
libRbt.so (2013.1, Build901 2013/11/27)

>  <Rbt.Parameter_File>
/export/apps/rDock/src/rDock_2013.1_src/data/scripts/dock_solv.prm

>  <Rbt.Receptor>
prm/blind_docking_80.prm

>  <SCORE>
-5.13102

>  <SCORE.INTER>
-3.35009

>  <SCORE.INTER.CONST>
1

>  <SCORE.INTER.POLAR>
0

>  <SCORE.INTER.ROT>
5

>  <SCORE.INTER.SOLV>
6.54379

>  <SCORE.INTER.VDW>
-11.348

>  <SCORE.INTER.norm>
-0.335009

>  <SCORE.INTRA>
-1.78093

>  <SCORE.INTRA.DIHEDRAL>
-3.64585

>  <SCORE.INTRA.DIHEDRAL.0>
5.8785

>  <SCORE.INTRA.POLAR>
0

>  <SCORE.INTRA.POLAR.0>
0

>  <SCORE.INTRA.REPUL>
0

>  <SCORE.INTRA.REPUL.0>
0

>  <SCORE.INTRA.SOLV>
-0.400831

>  <SCORE.INTRA.SOLV.lig_0>
-31.9559

>  <SCORE.INTRA.VDW>
0.242412

>  <SCORE.INTRA.VDW.0>
-0.507645

>  <SCORE.INTRA.norm>
-0.178093

>  <SCORE.RESTR>
0

>  <SCORE.RESTR.CAVITY>
0

>  <SCORE.RESTR.norm>
0

>  <SCORE.SYSTEM>
0

>  <SCORE.SYSTEM.CONST>
0

>  <SCORE.SYSTEM.DIHEDRAL>
0

>  <SCORE.SYSTEM.SOLV>
0

>  <SCORE.SYSTEM.norm>
0

>  <SCORE.heavy>
10

>  <SCORE.norm>
-0.513102

>  <RMSD>
11.479

$$$$
ligand
 OpenBabel11021811473D
libRbt.so/2013.1/901 2013/11/27
 10  9  0  0  0  0  0  0  0  0999 V2000
   27.4381   14.1817    9.0133 N   0  0  0  0  0  0  0  0  0  0  0  0
   26.6711   14.4508   10.2582 C   0  0  2  0  0  0  0  0  0  0  0  0
   27.5302   14.2235   11.5025 C   0  0  0  0  0  0  0  0  0  0  0  0
   28.5584   13.5560   11.4487 O   0  0  0  0  0  0  0  0  0  0  0  0
   25.3859   13.6156   10.2824 C   0  0  0  0  0  0  0  0  0  0  0  0
   24.4482   13.9989   11.4227 C   0  0  0  0  0  0  0  0  0  0  0  0
   23.1834   13.1524   11.4579 C   0  0  0  0  0  0  0  0  0  0  0  0
   22.2826   13.5609   12.6241 C   0  0  0  0  0  0  0  0  0  0  0  0
   21.0072   12.7532   12.7359 N   0  0  0  0  0  0  0  0  0  0  0  0
   27.2699   14.7171   12.5937 O   0  0  0  0  0  0  0  0  0  0  0  0
  2  1  1  6  0  0  0
  2  3  1  0  0  0  0
  2  5  1  0  0  0  0
  3  4  1  0  0  0  0
  3 10  1  0  0  0  0
  5  6  1  0  0  0  0
  6  7  1  0  0  0  0
  7  8  1  0  0  0  0
  8  9  1  0  0  0  0
M  END
>  <CHROM.1>
-18.68017800,-171.13756004,-179.04988459,179.36693802,-179.40309676,25.40872937
13.81968283,11.35853810,0.24166397,-0.18066407,-1.61987477

>  <Name>
ligand

>  <RI>
0

>  <Rbt.Current_Directory>
/home/itssahil/PROJECTS/Mol_Feturizer/New_Systems/rnas/3DIM

>  <Rbt.Executable>
rbdock ($Id: //depot/dev/client3/rdock/2013.1/src/exe/rbdock.cxx#4 $)

>  <Rbt.Library>
libRbt.so (2013.1, Build901 2013/11/27)

>  <Rbt.Parameter_File>
/export/apps/rDock/src/rDock_2013.1_src/data/scripts/dock_solv.prm

>  <Rbt.Receptor>
prm/blind_docking_60.prm

>  <SCORE>
-7.23398

>  <SCORE.INTER>
-4.02708

>  <SCORE.INTER.CONST>
1

>  <SCORE.INTER.POLAR>
0

>  <SCORE.INTER.ROT>
5

>  <SCORE.INTER.SOLV>
6.1033

>  <SCORE.INTER.VDW>
-11.6525

>  <SCORE.INTER.norm>
-0.402708

>  <SCORE.INTRA>
-3.20691

>  <SCORE.INTRA.DIHEDRAL>
-4.00929

>  <SCORE.INTRA.DIHEDRAL.0>
5.8785

>  <SCORE.INTRA.POLAR>
0

>  <SCORE.INTRA.POLAR.0>
0

>  <SCORE.INTRA.REPUL>
0

>  <SCORE.INTRA.REPUL.0>
0

>  <SCORE.INTRA.SOLV>
-1.84533

>  <SCORE.INTRA.SOLV.lig_0>
-31.9559

>  <SCORE.INTRA.VDW>
-0.2796

>  <SCORE.INTRA.VDW.0>
-0.507645

>  <SCORE.INTRA.norm>
-0.320691

>  <SCORE.RESTR>
0

>  <SCORE.RESTR.CAVITY>
0

>  <SCORE.RESTR.norm>
0

>  <SCORE.SYSTEM>
0

>  <SCORE.SYSTEM.CONST>
0

>  <SCORE.SYSTEM.DIHEDRAL>
0

>  <SCORE.SYSTEM.SOLV>
0

>  <SCORE.SYSTEM.norm>
0

>  <SCORE.heavy>
10

>  <SCORE.norm>
-0.723398

>  <RMSD>
11.480

$$$$
ligand
 OpenBabel11021811473D
libRbt.so/2013.1/901 2013/11/27
 10  9  0  0  0  0  0  0  0  0999 V2000
   28.9991   13.8554   12.2547 N   0  0  0  0  0  0  0  0  0  0  0  0
   28.5057   14.2158   10.8993 C   0  0  2  0  0  0  0  0  0  0  0  0
   28.5176   15.7298   10.6860 C   0  0  0  0  0  0  0  0  0  0  0  0
   28.2237   16.4997   11.5952 O   0  0  0  0  0  0  0  0  0  0  0  0
   27.1188   13.6088   10.6590 C   0  0  0  0  0  0  0  0  0  0  0  0
   26.6427   13.7635    9.2182 C   0  0  0  0  0  0  0  0  0  0  0  0
   25.7059   14.9484    9.0292 C   0  0  0  0  0  0  0  0  0  0  0  0
   24.2655   14.5690    9.3750 C   0  0  0  0  0  0  0  0  0  0  0  0
   24.0654   14.1360   10.8118 N   0  0  0  0  0  0  0  0  0  0  0  0
   28.8529   16.2534    9.6298 O   0  0  0  0  0  0  0  0  0  0  0  0
  2  1  1  1  0  0  0
  2  3  1  0  0  0  0
  2  5  1  0  0  0  0
  3  4  1  0  0  0  0
  3 10  1  0  0  0  0
  5  6  1  0  0  0  0
  6  7  1  0  0  0  0
  7  8  1  0  0  0  0
  8  9  1  0  0  0  0
M  END
>  <CHROM.1>
-37.57690352,-171.44786293,-97.89161652,-84.39869903,61.50555674,27.09986771
14.79344990,10.41367860,-0.00081397,0.40149066,2.49207558

>  <Name>
ligand

>  <RI>
0

>  <Rbt.Current_Directory>
/home/itssahil/PROJECTS/Mol_Feturizer/New_Systems/rnas/3DIM

>  <Rbt.Executable>
rbdock ($Id: //depot/dev/client3/rdock/2013.1/src/exe/rbdock.cxx#4 $)

>  <Rbt.Library>
libRbt.so (2013.1, Build901 2013/11/27)

>  <Rbt.Parameter_File>
/export/apps/rDock/src/rDock_2013.1_src/data/scripts/dock_solv.prm

>  <Rbt.Receptor>
prm/blind_docking_40.prm

>  <SCORE>
-1.84727

>  <SCORE.INTER>
-2.78882

>  <SCORE.INTER.CONST>
1

>  <SCORE.INTER.POLAR>
0

>  <SCORE.INTER.ROT>
5

>  <SCORE.INTER.SOLV>
13.4433

>  <SCORE.INTER.VDW>
-13.2737

>  <SCORE.INTER.norm>
-0.278882

>  <SCORE.INTRA>
0.941558

>  <SCORE.INTRA.DIHEDRAL>
2.43685

>  <SCORE.INTRA.DIHEDRAL.0>
5.8785

>  <SCORE.INTRA.POLAR>
0

>  <SCORE.INTRA.POLAR.0>
0

>  <SCORE.INTRA.REPUL>
0

>  <SCORE.INTRA.REPUL.0>
0

>  <SCORE.INTRA.SOLV>
0.259846

>  <SCORE.INTRA.SOLV.lig_0>
-31.9559

>  <SCORE.INTRA.VDW>
-0.406791

>  <SCORE.INTRA.VDW.0>
-0.507645

>  <SCORE.INTRA.norm>
0.0941558

>  <SCORE.RESTR>
0

>  <SCORE.RESTR.CAVITY>
0

>  <SCORE.RESTR.norm>
0

>  <SCORE.SYSTEM>
0

>  <SCORE.SYSTEM.CONST>
0

>  <SCORE.SYSTEM.DIHEDRAL>
0

>  <SCORE.SYSTEM.SOLV>
0

>  <SCORE.SYSTEM.norm>
0

>  <SCORE.heavy>
10

>  <SCORE.norm>
-0.184727

>  <RMSD>
11.532

$$$$
ligand
 OpenBabel11021811473D
libRbt.so/2013.1/901 2013/11/27
 10  9  0  0  0  0  0  0  0  0999 V2000
   27.3046   14.1814    8.9428 N   0  0  0  0  0  0  0  0  0  0  0  0
   26.5258   14.4241   10.1856 C   0  0  2  0  0  0  0  0  0  0  0  0
   27.3916   14.2364   11.4318 C   0  0  0  0  0  0  0  0  0  0  0  0
   28.3704   13.4966   11.4173 O   0  0  0  0  0  0  0  0  0  0  0  0
   25.2752   13.5379   10.2116 C   0  0  0  0  0  0  0  0  0  0  0  0
   24.3461   13.8535   11.3793 C   0  0  0  0  0  0  0  0  0  0  0  0
   23.1927   12.8672   11.5002 C   0  0  0  0  0  0  0  0  0  0  0  0
   22.3671   13.1408   12.7579 C   0  0  0  0  0  0  0  0  0  0  0  0
   21.2152   12.1808   12.9654 N   0  0  0  0  0  0  0  0  0  0  0  0
   27.1874   14.8318   12.4835 O   0  0  0  0  0  0  0  0  0  0  0  0
  2  1  1  6  0  0  0
  2  3  1  0  0  0  0
  2  5  1  0  0  0  0
  3  4  1  0  0  0  0
  3 10  1  0  0  0  0
  5  6  1  0  0  0  0
  6  7  1  0  0  0  0
  7  8  1  0  0  0  0
  8  9  1  0  0  0  0
M  END
>  <CHROM.1>
-26.39501824,-173.24911942,-173.14122068,174.54963436,-178.77347453,25.34847325
13.67550128,11.35173278,0.29129061,-0.26533641,-1.59309585

>  <Name>
ligand

>  <RI>
0

>  <Rbt.Current_Directory>
/home/itssahil/PROJECTS/Mol_Feturizer/New_Systems/rnas/3DIM

>  <Rbt.Executable>
rbdock ($Id: //depot/dev/client3/rdock/2013.1/src/exe/rbdock.cxx#4 $)

>  <Rbt.Library>
libRbt.so (2013.1, Build901 2013/11/27)

>  <Rbt.Parameter_File>
/export/apps/rDock/src/rDock_2013.1_src/data/scripts/dock_solv.prm

>  <Rbt.Receptor>
prm/blind_docking_100.prm

>  <SCORE>
-7.18672

>  <SCORE.INTER>
-4.02655

>  <SCORE.INTER.CONST>
1

>  <SCORE.INTER.POLAR>
0

>  <SCORE.INTER.ROT>
5

>  <SCORE.INTER.SOLV>
6.2891

>  <SCORE.INTER.VDW>
-11.7141

>  <SCORE.INTER.norm>
-0.402655

>  <SCORE.INTRA>
-3.16017

>  <SCORE.INTRA.DIHEDRAL>
-3.80349

>  <SCORE.INTRA.DIHEDRAL.0>
5.8785

>  <SCORE.INTRA.POLAR>
0

>  <SCORE.INTRA.POLAR.0>
0

>  <SCORE.INTRA.REPUL>
0

>  <SCORE.INTRA.REPUL.0>
0

>  <SCORE.INTRA.SOLV>
-1.84926

>  <SCORE.INTRA.SOLV.lig_0>
-31.9559

>  <SCORE.INTRA.VDW>
-0.333791

>  <SCORE.INTRA.VDW.0>
-0.507645

>  <SCORE.INTRA.norm>
-0.316017

>  <SCORE.RESTR>
0

>  <SCORE.RESTR.CAVITY>
0

>  <SCORE.RESTR.norm>
0

>  <SCORE.SYSTEM>
0

>  <SCORE.SYSTEM.CONST>
0

>  <SCORE.SYSTEM.DIHEDRAL>
0

>  <SCORE.SYSTEM.SOLV>
0

>  <SCORE.SYSTEM.norm>
0

>  <SCORE.heavy>
10

>  <SCORE.norm>
-0.718672

>  <RMSD>
11.547

$$$$
ligand
 OpenBabel11021811473D
libRbt.so/2013.1/901 2013/11/27
 10  9  0  0  0  0  0  0  0  0999 V2000
   27.3356   14.1112    8.9258 N   0  0  0  0  0  0  0  0  0  0  0  0
   26.5557   14.4192   10.1535 C   0  0  2  0  0  0  0  0  0  0  0  0
   27.4152   14.2779   11.4102 C   0  0  0  0  0  0  0  0  0  0  0  0
   27.1378   14.8868   12.4388 O   0  0  0  0  0  0  0  0  0  0  0  0
   25.2945   13.5499   10.2148 C   0  0  0  0  0  0  0  0  0  0  0  0
   24.3614   13.9346   11.3584 C   0  0  0  0  0  0  0  0  0  0  0  0
   23.1180   13.0589   11.4267 C   0  0  0  0  0  0  0  0  0  0  0  0
   22.2231   13.4680   12.5972 C   0  0  0  0  0  0  0  0  0  0  0  0
   20.9750   12.6248   12.7487 N   0  0  0  0  0  0  0  0  0  0  0  0
   28.3868   13.5336   11.4752 O   0  0  0  0  0  0  0  0  0  0  0  0
  2  1  1  6  0  0  0
  2  3  1  0  0  0  0
  2  5  1  0  0  0  0
  3  4  1  0  0  0  0
  3 10  1  0  0  0  0
  5  6  1  0  0  0  0
  6  7  1  0  0  0  0
  7  8  1  0  0  0  0
  8  9  1  0  0  0  0
M  END
>  <CHROM.1>
155.43856884,-172.89913871,-179.31544373,179.23286196,-178.90141211,25.31040289
13.78692329,11.30018422,0.24526281,-0.21686804,-1.66277866

>  <Name>
ligand

>  <RI>
0

>  <Rbt.Current_Directory>
/home/itssahil/PROJECTS/Mol_Feturizer/New_Systems/rnas/3DIM

>  <Rbt.Executable>
rbdock ($Id: //depot/dev/client3/rdock/2013.1/src/exe/rbdock.cxx#4 $)

>  <Rbt.Library>
libRbt.so (2013.1, Build901 2013/11/27)

>  <Rbt.Parameter_File>
/export/apps/rDock/src/rDock_2013.1_src/data/scripts/dock_solv.prm

>  <Rbt.Receptor>
prm/blind_docking_40.prm

>  <SCORE>
-7.359

>  <SCORE.INTER>
-3.97747

>  <SCORE.INTER.CONST>
1

>  <SCORE.INTER.POLAR>
0

>  <SCORE.INTER.ROT>
5

>  <SCORE.INTER.SOLV>
5.97604

>  <SCORE.INTER.VDW>
-11.577

>  <SCORE.INTER.norm>
-0.397747

>  <SCORE.INTRA>
-3.38153

>  <SCORE.INTRA.DIHEDRAL>
-4.26489

>  <SCORE.INTRA.DIHEDRAL.0>
5.8785

>  <SCORE.INTRA.POLAR>
0

>  <SCORE.INTRA.POLAR.0>
0

>  <SCORE.INTRA.REPUL>
0

>  <SCORE.INTRA.REPUL.0>
0

>  <SCORE.INTRA.SOLV>
-1.87192

>  <SCORE.INTRA.SOLV.lig_0>
-31.9559

>  <SCORE.INTRA.VDW>
-0.313129

>  <SCORE.INTRA.VDW.0>
-0.507645

>  <SCORE.INTRA.norm>
-0.338153

>  <SCORE.RESTR>
0

>  <SCORE.RESTR.CAVITY>
0

>  <SCORE.RESTR.norm>
0

>  <SCORE.SYSTEM>
0

>  <SCORE.SYSTEM.CONST>
0

>  <SCORE.SYSTEM.DIHEDRAL>
0

>  <SCORE.SYSTEM.SOLV>
0

>  <SCORE.SYSTEM.norm>
0

>  <SCORE.heavy>
10

>  <SCORE.norm>
-0.7359

>  <RMSD>
11.583

$$$$
ligand
 OpenBabel11021811473D
libRbt.so/2013.1/901 2013/11/27
 10  9  0  0  0  0  0  0  0  0999 V2000
   27.2452   13.9736    8.8972 N   0  0  0  0  0  0  0  0  0  0  0  0
   26.4870   14.3078   10.1316 C   0  0  2  0  0  0  0  0  0  0  0  0
   27.3514   14.1346   11.3809 C   0  0  0  0  0  0  0  0  0  0  0  0
   27.1127   14.7620   12.4081 O   0  0  0  0  0  0  0  0  0  0  0  0
   25.1963   13.4839   10.2028 C   0  0  0  0  0  0  0  0  0  0  0  0
   24.2949   13.8886   11.3648 C   0  0  0  0  0  0  0  0  0  0  0  0
   23.0328   13.0423   11.4564 C   0  0  0  0  0  0  0  0  0  0  0  0
   22.1922   13.4413   12.6699 C   0  0  0  0  0  0  0  0  0  0  0  0
   20.9456   12.6046   12.8638 N   0  0  0  0  0  0  0  0  0  0  0  0
   28.2880   13.3465   11.4416 O   0  0  0  0  0  0  0  0  0  0  0  0
  2  1  1  6  0  0  0
  2  3  1  0  0  0  0
  2  5  1  0  0  0  0
  3  4  1  0  0  0  0
  3 10  1  0  0  0  0
  5  6  1  0  0  0  0
  6  7  1  0  0  0  0
  7  8  1  0  0  0  0
  8  9  1  0  0  0  0
M  END
>  <CHROM.1>
154.68364571,-173.61006158,-178.36802937,177.45693880,-177.57249486,25.24480489
13.69800526,11.30661690,0.27183957,-0.19492331,-1.64818994

>  <Name>
ligand

>  <RI>
0

>  <Rbt.Current_Directory>
/home/itssahil/PROJECTS/Mol_Feturizer/New_Systems/rnas/3DIM

>  <Rbt.Executable>
rbdock ($Id: //depot/dev/client3/rdock/2013.1/src/exe/rbdock.cxx#4 $)

>  <Rbt.Library>
libRbt.so (2013.1, Build901 2013/11/27)

>  <Rbt.Parameter_File>
/export/apps/rDock/src/rDock_2013.1_src/data/scripts/dock_solv.prm

>  <Rbt.Receptor>
prm/blind_docking_40.prm

>  <SCORE>
-7.25935

>  <SCORE.INTER>
-3.89062

>  <SCORE.INTER.CONST>
1

>  <SCORE.INTER.POLAR>
0

>  <SCORE.INTER.ROT>
5

>  <SCORE.INTER.SOLV>
5.9217

>  <SCORE.INTER.VDW>
-11.501

>  <SCORE.INTER.norm>
-0.389062

>  <SCORE.INTRA>
-3.36872

>  <SCORE.INTRA.DIHEDRAL>
-4.24937

>  <SCORE.INTRA.DIHEDRAL.0>
5.8785

>  <SCORE.INTRA.POLAR>
0

>  <SCORE.INTRA.POLAR.0>
0

>  <SCORE.INTRA.REPUL>
0

>  <SCORE.INTRA.REPUL.0>
0

>  <SCORE.INTRA.SOLV>
-1.87264

>  <SCORE.INTRA.SOLV.lig_0>
-31.9559

>  <SCORE.INTRA.VDW>
-0.307716

>  <SCORE.INTRA.VDW.0>
-0.507645

>  <SCORE.INTRA.norm>
-0.336872

>  <SCORE.RESTR>
0

>  <SCORE.RESTR.CAVITY>
0

>  <SCORE.RESTR.norm>
0

>  <SCORE.SYSTEM>
0

>  <SCORE.SYSTEM.CONST>
0

>  <SCORE.SYSTEM.DIHEDRAL>
0

>  <SCORE.SYSTEM.SOLV>
0

>  <SCORE.SYSTEM.norm>
0

>  <SCORE.heavy>
10

>  <SCORE.norm>
-0.725935

>  <RMSD>
11.633

$$$$
ligand
 OpenBabel11021811473D
libRbt.so/2013.1/901 2013/11/27
 10  9  0  0  0  0  0  0  0  0999 V2000
   28.8123   14.6562    9.0687 N   0  0  0  0  0  0  0  0  0  0  0  0
   27.6013   14.8449    9.9103 C   0  0  2  0  0  0  0  0  0  0  0  0
   27.9710   15.2670   11.3326 C   0  0  0  0  0  0  0  0  0  0  0  0
   27.9381   14.4642   12.2601 O   0  0  0  0  0  0  0  0  0  0  0  0
   26.7360   13.5798    9.8890 C   0  0  0  0  0  0  0  0  0  0  0  0
   25.3631   13.7868   10.5206 C   0  0  0  0  0  0  0  0  0  0  0  0
   24.3983   14.5298    9.6071 C   0  0  0  0  0  0  0  0  0  0  0  0
   23.0466   14.7385   10.2911 C   0  0  0  0  0  0  0  0  0  0  0  0
   22.3959   13.4630   10.7824 N   0  0  0  0  0  0  0  0  0  0  0  0
   28.3526   16.3965   11.6168 O   0  0  0  0  0  0  0  0  0  0  0  0
  2  1  1  6  0  0  0
  2  3  1  0  0  0  0
  2  5  1  0  0  0  0
  3  4  1  0  0  0  0
  3 10  1  0  0  0  0
  5  6  1  0  0  0  0
  6  7  1  0  0  0  0
  7  8  1  0  0  0  0
  8  9  1  0  0  0  0
M  END
>  <CHROM.1>
-102.92867851,-169.60747858,77.17805953,-178.87119200,-55.64110215,26.28040175
14.58492760,10.56040321,-0.17545842,-0.17269002,-1.94242568

>  <Name>
ligand

>  <RI>
0

>  <Rbt.Current_Directory>
/home/itssahil/PROJECTS/Mol_Feturizer/New_Systems/rnas/3DIM

>  <Rbt.Executable>
rbdock ($Id: //depot/dev/client3/rdock/2013.1/src/exe/rbdock.cxx#4 $)

>  <Rbt.Library>
libRbt.so (2013.1, Build901 2013/11/27)

>  <Rbt.Parameter_File>
/export/apps/rDock/src/rDock_2013.1_src/data/scripts/dock_solv.prm

>  <Rbt.Receptor>
prm/blind_docking_40.prm

>  <SCORE>
-5.17214

>  <SCORE.INTER>
-3.74625

>  <SCORE.INTER.CONST>
1

>  <SCORE.INTER.POLAR>
0

>  <SCORE.INTER.ROT>
5

>  <SCORE.INTER.SOLV>
10.9557

>  <SCORE.INTER.VDW>
-13.0827

>  <SCORE.INTER.norm>
-0.374625

>  <SCORE.INTRA>
-1.42589

>  <SCORE.INTRA.DIHEDRAL>
-2.80658

>  <SCORE.INTRA.DIHEDRAL.0>
5.8785

>  <SCORE.INTRA.POLAR>
0

>  <SCORE.INTRA.POLAR.0>
0

>  <SCORE.INTRA.REPUL>
0

>  <SCORE.INTRA.REPUL.0>
0

>  <SCORE.INTRA.SOLV>
-0.67506

>  <SCORE.INTRA.SOLV.lig_0>
-31.9559

>  <SCORE.INTRA.VDW>
0.31493

>  <SCORE.INTRA.VDW.0>
-0.507645

>  <SCORE.INTRA.norm>
-0.142589

>  <SCORE.RESTR>
0

>  <SCORE.RESTR.CAVITY>
0

>  <SCORE.RESTR.norm>
0

>  <SCORE.SYSTEM>
0

>  <SCORE.SYSTEM.CONST>
0

>  <SCORE.SYSTEM.DIHEDRAL>
0

>  <SCORE.SYSTEM.SOLV>
0

>  <SCORE.SYSTEM.norm>
0

>  <SCORE.heavy>
10

>  <SCORE.norm>
-0.517214

>  <RMSD>
11.672

$$$$
ligand
 OpenBabel11021811473D
libRbt.so/2013.1/901 2013/11/27
 10  9  0  0  0  0  0  0  0  0999 V2000
   26.5092   13.5955    8.8553 N   0  0  0  0  0  0  0  0  0  0  0  0
   25.9789   14.1262   10.1388 C   0  0  2  0  0  0  0  0  0  0  0  0
   27.0361   14.0757   11.2423 C   0  0  0  0  0  0  0  0  0  0  0  0
   27.0332   14.8905   12.1598 O   0  0  0  0  0  0  0  0  0  0  0  0
   24.6966   13.3841   10.5322 C   0  0  0  0  0  0  0  0  0  0  0  0
   23.9704   14.0318   11.7068 C   0  0  0  0  0  0  0  0  0  0  0  0
   22.6743   13.3188   12.0662 C   0  0  0  0  0  0  0  0  0  0  0  0
   22.9553   12.0107   12.8066 C   0  0  0  0  0  0  0  0  0  0  0  0
   21.7156   11.3069   13.3160 N   0  0  0  0  0  0  0  0  0  0  0  0
   27.9052   13.2132   11.2963 O   0  0  0  0  0  0  0  0  0  0  0  0
  2  1  1  6  0  0  0
  2  3  1  0  0  0  0
  2  5  1  0  0  0  0
  3  4  1  0  0  0  0
  3 10  1  0  0  0  0
  5  6  1  0  0  0  0
  6  7  1  0  0  0  0
  7  8  1  0  0  0  0
  8  9  1  0  0  0  0
M  END
>  <CHROM.1>
150.65420413,-170.16708865,178.14539371,75.38288067,174.43575401,25.08039478
13.39902330,11.43247701,0.41443038,-0.33181088,-1.48973207

>  <Name>
ligand

>  <RI>
0

>  <Rbt.Current_Directory>
/home/itssahil/PROJECTS/Mol_Feturizer/New_Systems/rnas/3DIM

>  <Rbt.Executable>
rbdock ($Id: //depot/dev/client3/rdock/2013.1/src/exe/rbdock.cxx#4 $)

>  <Rbt.Library>
libRbt.so (2013.1, Build901 2013/11/27)

>  <Rbt.Parameter_File>
/export/apps/rDock/src/rDock_2013.1_src/data/scripts/dock_solv.prm

>  <Rbt.Receptor>
prm/blind_docking_100.prm

>  <SCORE>
-6.01679

>  <SCORE.INTER>
-3.56096

>  <SCORE.INTER.CONST>
1

>  <SCORE.INTER.POLAR>
0

>  <SCORE.INTER.ROT>
5

>  <SCORE.INTER.SOLV>
7.08774

>  <SCORE.INTER.VDW>
-11.6699

>  <SCORE.INTER.norm>
-0.356096

>  <SCORE.INTRA>
-2.45583

>  <SCORE.INTRA.DIHEDRAL>
-3.03397

>  <SCORE.INTRA.DIHEDRAL.0>
5.8785

>  <SCORE.INTRA.POLAR>
0

>  <SCORE.INTRA.POLAR.0>
0

>  <SCORE.INTRA.REPUL>
0

>  <SCORE.INTRA.REPUL.0>
0

>  <SCORE.INTRA.SOLV>
-1.75494

>  <SCORE.INTRA.SOLV.lig_0>
-31.9559

>  <SCORE.INTRA.VDW>
-0.0613663

>  <SCORE.INTRA.VDW.0>
-0.507645

>  <SCORE.INTRA.norm>
-0.245583

>  <SCORE.RESTR>
0

>  <SCORE.RESTR.CAVITY>
0

>  <SCORE.RESTR.norm>
0

>  <SCORE.SYSTEM>
0

>  <SCORE.SYSTEM.CONST>
0

>  <SCORE.SYSTEM.DIHEDRAL>
0

>  <SCORE.SYSTEM.SOLV>
0

>  <SCORE.SYSTEM.norm>
0

>  <SCORE.heavy>
10

>  <SCORE.norm>
-0.601679

>  <RMSD>
11.689

$$$$
ligand
 OpenBabel11021811473D
libRbt.so/2013.1/901 2013/11/27
 10  9  0  0  0  0  0  0  0  0999 V2000
   27.0207   13.8813    8.8077 N   0  0  0  0  0  0  0  0  0  0  0  0
   26.9062   14.8239    9.9516 C   0  0  2  0  0  0  0  0  0  0  0  0
   28.2827   15.2625   10.4526 C   0  0  0  0  0  0  0  0  0  0  0  0
   28.5981   16.4479   10.4807 O   0  0  0  0  0  0  0  0  0  0  0  0
   26.0548   14.2064   11.0668 C   0  0  0  0  0  0  0  0  0  0  0  0
   24.6055   13.9759   10.6510 C   0  0  0  0  0  0  0  0  0  0  0  0
   23.7220   13.5312   11.8083 C   0  0  0  0  0  0  0  0  0  0  0  0
   22.2809   13.3135   11.3456 C   0  0  0  0  0  0  0  0  0  0  0  0
   21.3304   12.9003   12.4489 N   0  0  0  0  0  0  0  0  0  0  0  0
   29.1185   14.4767   10.8840 O   0  0  0  0  0  0  0  0  0  0  0  0
  2  1  1  6  0  0  0
  2  3  1  0  0  0  0
  2  5  1  0  0  0  0
  3  4  1  0  0  0  0
  3 10  1  0  0  0  0
  5  6  1  0  0  0  0
  6  7  1  0  0  0  0
  7  8  1  0  0  0  0
  8  9  1  0  0  0  0
M  END
>  <CHROM.1>
121.96047937,-64.77933298,-172.64878852,179.96402481,-178.62868240,25.83462185
14.29733355,10.79756779,0.09461448,-0.37860133,-1.96902673

>  <Name>
ligand

>  <RI>
0

>  <Rbt.Current_Directory>
/home/itssahil/PROJECTS/Mol_Feturizer/New_Systems/rnas/3DIM

>  <Rbt.Executable>
rbdock ($Id: //depot/dev/client3/rdock/2013.1/src/exe/rbdock.cxx#4 $)

>  <Rbt.Library>
libRbt.so (2013.1, Build901 2013/11/27)

>  <Rbt.Parameter_File>
/export/apps/rDock/src/rDock_2013.1_src/data/scripts/dock_solv.prm

>  <Rbt.Receptor>
prm/blind_docking_100.prm

>  <SCORE>
-7.40478

>  <SCORE.INTER>
-4.51964

>  <SCORE.INTER.CONST>
1

>  <SCORE.INTER.POLAR>
0

>  <SCORE.INTER.ROT>
5

>  <SCORE.INTER.SOLV>
5.85946

>  <SCORE.INTER.VDW>
-11.8996

>  <SCORE.INTER.norm>
-0.451964

>  <SCORE.INTRA>
-2.88513

>  <SCORE.INTRA.DIHEDRAL>
-4.04177

>  <SCORE.INTRA.DIHEDRAL.0>
5.8785

>  <SCORE.INTRA.POLAR>
0

>  <SCORE.INTRA.POLAR.0>
0

>  <SCORE.INTRA.REPUL>
0

>  <SCORE.INTRA.REPUL.0>
0

>  <SCORE.INTRA.SOLV>
-1.06285

>  <SCORE.INTRA.SOLV.lig_0>
-31.9559

>  <SCORE.INTRA.VDW>
-0.332821

>  <SCORE.INTRA.VDW.0>
-0.507645

>  <SCORE.INTRA.norm>
-0.288513

>  <SCORE.RESTR>
0

>  <SCORE.RESTR.CAVITY>
0

>  <SCORE.RESTR.norm>
0

>  <SCORE.SYSTEM>
0

>  <SCORE.SYSTEM.CONST>
0

>  <SCORE.SYSTEM.DIHEDRAL>
0

>  <SCORE.SYSTEM.SOLV>
0

>  <SCORE.SYSTEM.norm>
0

>  <SCORE.heavy>
10

>  <SCORE.norm>
-0.740478

>  <RMSD>
11.690

$$$$
ligand
 OpenBabel11021811473D
libRbt.so/2013.1/901 2013/11/27
 10  9  0  0  0  0  0  0  0  0999 V2000
   27.0818   13.8462    8.7989 N   0  0  0  0  0  0  0  0  0  0  0  0
   26.8302   14.7386    9.9610 C   0  0  2  0  0  0  0  0  0  0  0  0
   28.1081   14.9812   10.7647 C   0  0  0  0  0  0  0  0  0  0  0  0
   28.7273   14.0483   11.2665 O   0  0  0  0  0  0  0  0  0  0  0  0
   25.6992   14.1756   10.8293 C   0  0  0  0  0  0  0  0  0  0  0  0
   24.3607   14.1188   10.1000 C   0  0  0  0  0  0  0  0  0  0  0  0
   23.1820   13.9200   11.0427 C   0  0  0  0  0  0  0  0  0  0  0  0
   23.2214   12.5326   11.6845 C   0  0  0  0  0  0  0  0  0  0  0  0
   22.0973   12.2695   12.6638 N   0  0  0  0  0  0  0  0  0  0  0  0
   28.6006   16.0931   10.9175 O   0  0  0  0  0  0  0  0  0  0  0  0
  2  1  1  6  0  0  0
  2  3  1  0  0  0  0
  2  5  1  0  0  0  0
  3  4  1  0  0  0  0
  3 10  1  0  0  0  0
  5  6  1  0  0  0  0
  6  7  1  0  0  0  0
  7  8  1  0  0  0  0
  8  9  1  0  0  0  0
M  END
>  <CHROM.1>
-59.03787522,-63.66524270,-164.69937381,-67.54610985,178.59515459,25.83101657
14.08283331,10.81755631,0.26541511,-0.32397957,-1.38276495

>  <Name>
ligand

>  <RI>
0

>  <Rbt.Current_Directory>
/home/itssahil/PROJECTS/Mol_Feturizer/New_Systems/rnas/3DIM

>  <Rbt.Executable>
rbdock ($Id: //depot/dev/client3/rdock/2013.1/src/exe/rbdock.cxx#4 $)

>  <Rbt.Library>
libRbt.so (2013.1, Build901 2013/11/27)

>  <Rbt.Parameter_File>
/export/apps/rDock/src/rDock_2013.1_src/data/scripts/dock_solv.prm

>  <Rbt.Receptor>
prm/blind_docking_40.prm

>  <SCORE>
-6.30857

>  <SCORE.INTER>
-4.58126

>  <SCORE.INTER.CONST>
1

>  <SCORE.INTER.POLAR>
0

>  <SCORE.INTER.ROT>
5

>  <SCORE.INTER.SOLV>
6.70453

>  <SCORE.INTER.VDW>
-12.2224

>  <SCORE.INTER.norm>
-0.458126

>  <SCORE.INTRA>
-1.72731

>  <SCORE.INTRA.DIHEDRAL>
-3.1414

>  <SCORE.INTRA.DIHEDRAL.0>
5.8785

>  <SCORE.INTRA.POLAR>
0

>  <SCORE.INTRA.POLAR.0>
0

>  <SCORE.INTRA.REPUL>
0

>  <SCORE.INTRA.REPUL.0>
0

>  <SCORE.INTRA.SOLV>
-0.84755

>  <SCORE.INTRA.SOLV.lig_0>
-31.9559

>  <SCORE.INTRA.VDW>
0.267171

>  <SCORE.INTRA.VDW.0>
-0.507645

>  <SCORE.INTRA.norm>
-0.172731

>  <SCORE.RESTR>
0

>  <SCORE.RESTR.CAVITY>
0

>  <SCORE.RESTR.norm>
0

>  <SCORE.SYSTEM>
0

>  <SCORE.SYSTEM.CONST>
0

>  <SCORE.SYSTEM.DIHEDRAL>
0

>  <SCORE.SYSTEM.SOLV>
0

>  <SCORE.SYSTEM.norm>
0

>  <SCORE.heavy>
10

>  <SCORE.norm>
-0.630857

>  <RMSD>
11.717

$$$$
ligand
 OpenBabel11021811473D
libRbt.so/2013.1/901 2013/11/27
 10  9  0  0  0  0  0  0  0  0999 V2000
   28.4246   14.7716    9.4629 N   0  0  0  0  0  0  0  0  0  0  0  0
   27.4604   14.8784   10.5895 C   0  0  2  0  0  0  0  0  0  0  0  0
   28.0737   14.3774   11.8975 C   0  0  0  0  0  0  0  0  0  0  0  0
   27.5031   14.5477   12.9704 O   0  0  0  0  0  0  0  0  0  0  0  0
   26.1569   14.1488   10.2453 C   0  0  0  0  0  0  0  0  0  0  0  0
   25.3658   14.8346    9.1361 C   0  0  0  0  0  0  0  0  0  0  0  0
   23.9328   14.3311    9.0340 C   0  0  0  0  0  0  0  0  0  0  0  0
   23.1414   14.6699   10.2978 C   0  0  0  0  0  0  0  0  0  0  0  0
   21.6893   14.2442   10.2538 N   0  0  0  0  0  0  0  0  0  0  0  0
   29.1281   13.7546   11.9459 O   0  0  0  0  0  0  0  0  0  0  0  0
  2  1  1  6  0  0  0
  2  3  1  0  0  0  0
  2  5  1  0  0  0  0
  3  4  1  0  0  0  0
  3 10  1  0  0  0  0
  5  6  1  0  0  0  0
  6  7  1  0  0  0  0
  7  8  1  0  0  0  0
  8  9  1  0  0  0  0
M  END
>  <CHROM.1>
170.20291096,-68.39346853,-165.48811122,64.36385920,177.95050972,26.11201550
14.44539106,10.61713104,-0.31758965,-0.01515083,-1.45589810

>  <Name>
ligand

>  <RI>
0

>  <Rbt.Current_Directory>
/home/itssahil/PROJECTS/Mol_Feturizer/New_Systems/rnas/3DIM

>  <Rbt.Executable>
rbdock ($Id: //depot/dev/client3/rdock/2013.1/src/exe/rbdock.cxx#4 $)

>  <Rbt.Library>
libRbt.so (2013.1, Build901 2013/11/27)

>  <Rbt.Parameter_File>
/export/apps/rDock/src/rDock_2013.1_src/data/scripts/dock_solv.prm

>  <Rbt.Receptor>
prm/blind_docking_40.prm

>  <SCORE>
-6.73438

>  <SCORE.INTER>
-5.09967

>  <SCORE.INTER.CONST>
1

>  <SCORE.INTER.POLAR>
0

>  <SCORE.INTER.ROT>
5

>  <SCORE.INTER.SOLV>
10.7428

>  <SCORE.INTER.VDW>
-13.914

>  <SCORE.INTER.norm>
-0.509967

>  <SCORE.INTRA>
-1.65578

>  <SCORE.INTRA.DIHEDRAL>
-3.19085

>  <SCORE.INTRA.DIHEDRAL.0>
5.8785

>  <SCORE.INTRA.POLAR>
0

>  <SCORE.INTRA.POLAR.0>
0

>  <SCORE.INTRA.REPUL>
0

>  <SCORE.INTRA.REPUL.0>
0

>  <SCORE.INTRA.SOLV>
-0.904472

>  <SCORE.INTRA.SOLV.lig_0>
-31.9559

>  <SCORE.INTRA.VDW>
0.391883

>  <SCORE.INTRA.VDW.0>
-0.507645

>  <SCORE.INTRA.norm>
-0.165578

>  <SCORE.RESTR>
0.0210626

>  <SCORE.RESTR.CAVITY>
0.0210626

>  <SCORE.RESTR.norm>
0.00210626

>  <SCORE.SYSTEM>
0

>  <SCORE.SYSTEM.CONST>
0

>  <SCORE.SYSTEM.DIHEDRAL>
0

>  <SCORE.SYSTEM.SOLV>
0

>  <SCORE.SYSTEM.norm>
0

>  <SCORE.heavy>
10

>  <SCORE.norm>
-0.673438

>  <RMSD>
11.724

$$$$
ligand
 OpenBabel11021811473D
libRbt.so/2013.1/901 2013/11/27
 10  9  0  0  0  0  0  0  0  0999 V2000
   26.9342   13.8788    8.7395 N   0  0  0  0  0  0  0  0  0  0  0  0
   26.8297   14.8333    9.8745 C   0  0  2  0  0  0  0  0  0  0  0  0
   28.2096   15.2981   10.3410 C   0  0  0  0  0  0  0  0  0  0  0  0
   28.4909   16.4912   10.3956 O   0  0  0  0  0  0  0  0  0  0  0  0
   26.0112   14.2167   11.0147 C   0  0  0  0  0  0  0  0  0  0  0  0
   24.5556   13.9657   10.6344 C   0  0  0  0  0  0  0  0  0  0  0  0
   23.6971   13.5532   11.8220 C   0  0  0  0  0  0  0  0  0  0  0  0
   22.2385   13.3632   11.4042 C   0  0  0  0  0  0  0  0  0  0  0  0
   21.3038   13.0292   12.5472 N   0  0  0  0  0  0  0  0  0  0  0  0
   29.0831   14.5253   10.7180 O   0  0  0  0  0  0  0  0  0  0  0  0
  2  1  1  6  0  0  0
  2  3  1  0  0  0  0
  2  5  1  0  0  0  0
  3  4  1  0  0  0  0
  3 10  1  0  0  0  0
  5  6  1  0  0  0  0
  6  7  1  0  0  0  0
  7  8  1  0  0  0  0
  8  9  1  0  0  0  0
M  END
>  <CHROM.1>
124.69287072,-65.03543659,-171.31556862,177.88990340,-176.66466800,25.77798203
14.33132413,10.75584338,0.09715395,-0.39116200,-2.03556897

>  <Name>
ligand

>  <RI>
0

>  <Rbt.Current_Directory>
/home/itssahil/PROJECTS/Mol_Feturizer/New_Systems/rnas/3DIM

>  <Rbt.Executable>
rbdock ($Id: //depot/dev/client3/rdock/2013.1/src/exe/rbdock.cxx#4 $)

>  <Rbt.Library>
libRbt.so (2013.1, Build901 2013/11/27)

>  <Rbt.Parameter_File>
/export/apps/rDock/src/rDock_2013.1_src/data/scripts/dock_solv.prm

>  <Rbt.Receptor>
prm/blind_docking_100.prm

>  <SCORE>
-7.43588

>  <SCORE.INTER>
-4.6037

>  <SCORE.INTER.CONST>
1

>  <SCORE.INTER.POLAR>
0

>  <SCORE.INTER.ROT>
5

>  <SCORE.INTER.SOLV>
5.60447

>  <SCORE.INTER.VDW>
-11.8706

>  <SCORE.INTER.norm>
-0.46037

>  <SCORE.INTRA>
-2.83218

>  <SCORE.INTRA.DIHEDRAL>
-3.90262

>  <SCORE.INTRA.DIHEDRAL.0>
5.8785

>  <SCORE.INTRA.POLAR>
0

>  <SCORE.INTRA.POLAR.0>
0

>  <SCORE.INTRA.REPUL>
0

>  <SCORE.INTRA.REPUL.0>
0

>  <SCORE.INTRA.SOLV>
-1.06957

>  <SCORE.INTRA.SOLV.lig_0>
-31.9559

>  <SCORE.INTRA.VDW>
-0.346086

>  <SCORE.INTRA.VDW.0>
-0.507645

>  <SCORE.INTRA.norm>
-0.283218

>  <SCORE.RESTR>
0

>  <SCORE.RESTR.CAVITY>
0

>  <SCORE.RESTR.norm>
0

>  <SCORE.SYSTEM>
0

>  <SCORE.SYSTEM.CONST>
0

>  <SCORE.SYSTEM.DIHEDRAL>
0

>  <SCORE.SYSTEM.SOLV>
0

>  <SCORE.SYSTEM.norm>
0

>  <SCORE.heavy>
10

>  <SCORE.norm>
-0.743588

>  <RMSD>
11.752

$$$$
ligand
 OpenBabel11021811473D
libRbt.so/2013.1/901 2013/11/27
 10  9  0  0  0  0  0  0  0  0999 V2000
   26.8958   13.8411    8.8229 N   0  0  0  0  0  0  0  0  0  0  0  0
   26.8154   14.7957    9.9598 C   0  0  2  0  0  0  0  0  0  0  0  0
   28.2068   15.2157   10.4347 C   0  0  0  0  0  0  0  0  0  0  0  0
   28.6116   16.3627   10.2729 O   0  0  0  0  0  0  0  0  0  0  0  0
   25.9719   14.2025   11.0941 C   0  0  0  0  0  0  0  0  0  0  0  0
   24.5325   13.9160   10.6785 C   0  0  0  0  0  0  0  0  0  0  0  0
   23.6675   13.4361   11.8356 C   0  0  0  0  0  0  0  0  0  0  0  0
   22.2410   13.1436   11.3690 C   0  0  0  0  0  0  0  0  0  0  0  0
   21.5133   14.3455   10.8056 N   0  0  0  0  0  0  0  0  0  0  0  0
   28.9671   14.4592   11.0279 O   0  0  0  0  0  0  0  0  0  0  0  0
  2  1  1  6  0  0  0
  2  3  1  0  0  0  0
  2  5  1  0  0  0  0
  3  4  1  0  0  0  0
  3 10  1  0  0  0  0
  5  6  1  0  0  0  0
  6  7  1  0  0  0  0
  7  8  1  0  0  0  0
  8  9  1  0  0  0  0
M  END
>  <CHROM.1>
111.58115870,-61.39411646,-175.23472519,-179.21858943,-61.43592921,25.78505030
14.38585611,10.63846210,0.19216341,-0.21071160,-1.34252452

>  <Name>
ligand

>  <RI>
0

>  <Rbt.Current_Directory>
/home/itssahil/PROJECTS/Mol_Feturizer/New_Systems/rnas/3DIM

>  <Rbt.Executable>
rbdock ($Id: //depot/dev/client3/rdock/2013.1/src/exe/rbdock.cxx#4 $)

>  <Rbt.Library>
libRbt.so (2013.1, Build901 2013/11/27)

>  <Rbt.Parameter_File>
/export/apps/rDock/src/rDock_2013.1_src/data/scripts/dock_solv.prm

>  <Rbt.Receptor>
prm/blind_docking_40.prm

>  <SCORE>
-5.98792

>  <SCORE.INTER>
-3.66188

>  <SCORE.INTER.CONST>
1

>  <SCORE.INTER.POLAR>
0

>  <SCORE.INTER.ROT>
5

>  <SCORE.INTER.SOLV>
8.74414

>  <SCORE.INTER.VDW>
-12.2893

>  <SCORE.INTER.norm>
-0.366188

>  <SCORE.INTRA>
-2.32603

>  <SCORE.INTRA.DIHEDRAL>
-4.21447

>  <SCORE.INTRA.DIHEDRAL.0>
5.8785

>  <SCORE.INTRA.POLAR>
0

>  <SCORE.INTRA.POLAR.0>
0

>  <SCORE.INTRA.REPUL>
0

>  <SCORE.INTRA.REPUL.0>
0

>  <SCORE.INTRA.SOLV>
-0.110133

>  <SCORE.INTRA.SOLV.lig_0>
-31.9559

>  <SCORE.INTRA.VDW>
-0.16373

>  <SCORE.INTRA.VDW.0>
-0.507645

>  <SCORE.INTRA.norm>
-0.232603

>  <SCORE.RESTR>
0

>  <SCORE.RESTR.CAVITY>
0

>  <SCORE.RESTR.norm>
0

>  <SCORE.SYSTEM>
0

>  <SCORE.SYSTEM.CONST>
0

>  <SCORE.SYSTEM.DIHEDRAL>
0

>  <SCORE.SYSTEM.SOLV>
0

>  <SCORE.SYSTEM.norm>
0

>  <SCORE.heavy>
10

>  <SCORE.norm>
-0.598792

>  <RMSD>
11.807

$$$$
ligand
 OpenBabel11021811473D
libRbt.so/2013.1/901 2013/11/27
 10  9  0  0  0  0  0  0  0  0999 V2000
   26.9655   13.9264    8.7200 N   0  0  0  0  0  0  0  0  0  0  0  0
   26.8683   14.8627    9.8708 C   0  0  2  0  0  0  0  0  0  0  0  0
   28.2511   15.3226   10.3337 C   0  0  0  0  0  0  0  0  0  0  0  0
   29.2705   14.9118    9.7882 O   0  0  0  0  0  0  0  0  0  0  0  0
   26.0600   14.2266   11.0075 C   0  0  0  0  0  0  0  0  0  0  0  0
   24.6045   13.9687   10.6310 C   0  0  0  0  0  0  0  0  0  0  0  0
   23.7513   13.5515   11.8207 C   0  0  0  0  0  0  0  0  0  0  0  0
   22.3258   13.2146   11.3816 C   0  0  0  0  0  0  0  0  0  0  0  0
   21.5811   14.3713   10.7499 N   0  0  0  0  0  0  0  0  0  0  0  0
   28.4176   16.1415   11.2303 O   0  0  0  0  0  0  0  0  0  0  0  0
  2  1  1  6  0  0  0
  2  3  1  0  0  0  0
  2  5  1  0  0  0  0
  3  4  1  0  0  0  0
  3 10  1  0  0  0  0
  5  6  1  0  0  0  0
  6  7  1  0  0  0  0
  7  8  1  0  0  0  0
  8  9  1  0  0  0  0
M  END
>  <CHROM.1>
-1.01195682,-64.58038492,-170.65300429,-176.24065878,-61.46039018,25.85239386
14.46454949,10.56036776,0.03545992,-0.29088283,-2.05389717

>  <Name>
ligand

>  <RI>
0

>  <Rbt.Current_Directory>
/home/itssahil/PROJECTS/Mol_Feturizer/New_Systems/rnas/3DIM

>  <Rbt.Executable>
rbdock ($Id: //depot/dev/client3/rdock/2013.1/src/exe/rbdock.cxx#4 $)

>  <Rbt.Library>
libRbt.so (2013.1, Build901 2013/11/27)

>  <Rbt.Parameter_File>
/export/apps/rDock/src/rDock_2013.1_src/data/scripts/dock_solv.prm

>  <Rbt.Receptor>
prm/blind_docking_40.prm

>  <SCORE>
-6.0577

>  <SCORE.INTER>
-3.96857

>  <SCORE.INTER.CONST>
1

>  <SCORE.INTER.POLAR>
0

>  <SCORE.INTER.ROT>
5

>  <SCORE.INTER.SOLV>
8.64761

>  <SCORE.INTER.VDW>
-12.4616

>  <SCORE.INTER.norm>
-0.396857

>  <SCORE.INTRA>
-2.08913

>  <SCORE.INTRA.DIHEDRAL>
-3.8413

>  <SCORE.INTRA.DIHEDRAL.0>
5.8785

>  <SCORE.INTRA.POLAR>
0

>  <SCORE.INTRA.POLAR.0>
0

>  <SCORE.INTRA.REPUL>
0

>  <SCORE.INTRA.REPUL.0>
0

>  <SCORE.INTRA.SOLV>
-0.14159

>  <SCORE.INTRA.SOLV.lig_0>
-31.9559

>  <SCORE.INTRA.VDW>
-0.0976878

>  <SCORE.INTRA.VDW.0>
-0.507645

>  <SCORE.INTRA.norm>
-0.208913

>  <SCORE.RESTR>
0

>  <SCORE.RESTR.CAVITY>
0

>  <SCORE.RESTR.norm>
0

>  <SCORE.SYSTEM>
0

>  <SCORE.SYSTEM.CONST>
0

>  <SCORE.SYSTEM.DIHEDRAL>
0

>  <SCORE.SYSTEM.SOLV>
0

>  <SCORE.SYSTEM.norm>
0

>  <SCORE.heavy>
10

>  <SCORE.norm>
-0.60577

>  <RMSD>
11.824

$$$$
ligand
 OpenBabel11021811473D
libRbt.so/2013.1/901 2013/11/27
 10  9  0  0  0  0  0  0  0  0999 V2000
   26.9057   13.8688    8.7771 N   0  0  0  0  0  0  0  0  0  0  0  0
   26.8086   14.8244    9.9118 C   0  0  2  0  0  0  0  0  0  0  0  0
   28.1919   15.2835   10.3740 C   0  0  0  0  0  0  0  0  0  0  0  0
   29.0703   14.4713   10.6465 O   0  0  0  0  0  0  0  0  0  0  0  0
   25.9907   14.2122   11.0547 C   0  0  0  0  0  0  0  0  0  0  0  0
   24.5368   13.9524   10.6736 C   0  0  0  0  0  0  0  0  0  0  0  0
   23.6907   13.4896   11.8515 C   0  0  0  0  0  0  0  0  0  0  0  0
   22.2704   13.1428   11.4034 C   0  0  0  0  0  0  0  0  0  0  0  0
   21.4848   14.3192   10.8645 N   0  0  0  0  0  0  0  0  0  0  0  0
   28.5106   16.4640   10.4588 O   0  0  0  0  0  0  0  0  0  0  0  0
  2  1  1  6  0  0  0
  2  3  1  0  0  0  0
  2  5  1  0  0  0  0
  3  4  1  0  0  0  0
  3 10  1  0  0  0  0
  5  6  1  0  0  0  0
  6  7  1  0  0  0  0
  7  8  1  0  0  0  0
  8  9  1  0  0  0  0
M  END
>  <CHROM.1>
-52.01049646,-64.37698961,-173.65631769,-175.80107888,-64.22511607,25.78907748
14.41707367,10.60861696,-0.06148358,-0.28957707,-2.35323780

>  <Name>
ligand

>  <RI>
0

>  <Rbt.Current_Directory>
/home/itssahil/PROJECTS/Mol_Feturizer/New_Systems/rnas/3DIM

>  <Rbt.Executable>
rbdock ($Id: //depot/dev/client3/rdock/2013.1/src/exe/rbdock.cxx#4 $)

>  <Rbt.Library>
libRbt.so (2013.1, Build901 2013/11/27)

>  <Rbt.Parameter_File>
/export/apps/rDock/src/rDock_2013.1_src/data/scripts/dock_solv.prm

>  <Rbt.Receptor>
prm/blind_docking_100.prm

>  <SCORE>
-6.06973

>  <SCORE.INTER>
-3.71743

>  <SCORE.INTER.CONST>
1

>  <SCORE.INTER.POLAR>
0

>  <SCORE.INTER.ROT>
5

>  <SCORE.INTER.SOLV>
8.61864

>  <SCORE.INTER.VDW>
-12.2845

>  <SCORE.INTER.norm>
-0.371743

>  <SCORE.INTRA>
-2.35231

>  <SCORE.INTRA.DIHEDRAL>
-3.95304

>  <SCORE.INTRA.DIHEDRAL.0>
5.8785

>  <SCORE.INTRA.POLAR>
0

>  <SCORE.INTRA.POLAR.0>
0

>  <SCORE.INTRA.REPUL>
0

>  <SCORE.INTRA.REPUL.0>
0

>  <SCORE.INTRA.SOLV>
-0.181673

>  <SCORE.INTRA.SOLV.lig_0>
-31.9559

>  <SCORE.INTRA.VDW>
-0.28495

>  <SCORE.INTRA.VDW.0>
-0.507645

>  <SCORE.INTRA.norm>
-0.235231

>  <SCORE.RESTR>
0

>  <SCORE.RESTR.CAVITY>
0

>  <SCORE.RESTR.norm>
0

>  <SCORE.SYSTEM>
0

>  <SCORE.SYSTEM.CONST>
0

>  <SCORE.SYSTEM.DIHEDRAL>
0

>  <SCORE.SYSTEM.SOLV>
0

>  <SCORE.SYSTEM.norm>
0

>  <SCORE.heavy>
10

>  <SCORE.norm>
-0.606973

>  <RMSD>
11.826

$$$$
ligand
 OpenBabel11021811473D
libRbt.so/2013.1/901 2013/11/27
 10  9  0  0  0  0  0  0  0  0999 V2000
   28.2197   14.6722   12.4898 N   0  0  0  0  0  0  0  0  0  0  0  0
   28.0364   14.2653   11.0716 C   0  0  2  0  0  0  0  0  0  0  0  0
   28.7479   15.2270   10.1193 C   0  0  0  0  0  0  0  0  0  0  0  0
   28.5570   16.4375   10.1823 O   0  0  0  0  0  0  0  0  0  0  0  0
   26.5448   14.1272   10.7462 C   0  0  0  0  0  0  0  0  0  0  0  0
   26.2893   13.5571    9.3547 C   0  0  0  0  0  0  0  0  0  0  0  0
   24.8132   13.5449    8.9828 C   0  0  0  0  0  0  0  0  0  0  0  0
   24.2934   14.9650    8.7558 C   0  0  0  0  0  0  0  0  0  0  0  0
   24.9526   15.6904    7.6021 N   0  0  0  0  0  0  0  0  0  0  0  0
   29.5634   14.8575    9.2823 O   0  0  0  0  0  0  0  0  0  0  0  0
  2  1  1  1  0  0  0
  2  3  1  0  0  0  0
  2  5  1  0  0  0  0
  3  4  1  0  0  0  0
  3 10  1  0  0  0  0
  5  6  1  0  0  0  0
  6  7  1  0  0  0  0
  7  8  1  0  0  0  0
  8  9  1  0  0  0  0
M  END
>  <CHROM.1>
-52.28407187,-173.36904117,-174.51497497,70.01950236,62.97564408,27.02710132
14.75612227,9.84272788,0.36345276,0.37740432,2.12295137

>  <Name>
ligand

>  <RI>
0

>  <Rbt.Current_Directory>
/home/itssahil/PROJECTS/Mol_Feturizer/New_Systems/rnas/3DIM

>  <Rbt.Executable>
rbdock ($Id: //depot/dev/client3/rdock/2013.1/src/exe/rbdock.cxx#4 $)

>  <Rbt.Library>
libRbt.so (2013.1, Build901 2013/11/27)

>  <Rbt.Parameter_File>
/export/apps/rDock/src/rDock_2013.1_src/data/scripts/dock_solv.prm

>  <Rbt.Receptor>
prm/blind_docking_40.prm

>  <SCORE>
-8.12563

>  <SCORE.INTER>
-6.10531

>  <SCORE.INTER.CONST>
1

>  <SCORE.INTER.POLAR>
0

>  <SCORE.INTER.ROT>
5

>  <SCORE.INTER.SOLV>
16.2711

>  <SCORE.INTER.VDW>
-16.4272

>  <SCORE.INTER.norm>
-0.610531

>  <SCORE.INTRA>
-2.02033

>  <SCORE.INTRA.DIHEDRAL>
-3.62105

>  <SCORE.INTRA.DIHEDRAL.0>
5.8785

>  <SCORE.INTRA.POLAR>
0

>  <SCORE.INTRA.POLAR.0>
0

>  <SCORE.INTRA.REPUL>
0

>  <SCORE.INTRA.REPUL.0>
0

>  <SCORE.INTRA.SOLV>
-0.47752

>  <SCORE.INTRA.SOLV.lig_0>
-31.9559

>  <SCORE.INTRA.VDW>
0.0289586

>  <SCORE.INTRA.VDW.0>
-0.507645

>  <SCORE.INTRA.norm>
-0.202033

>  <SCORE.RESTR>
0

>  <SCORE.RESTR.CAVITY>
0

>  <SCORE.RESTR.norm>
0

>  <SCORE.SYSTEM>
0

>  <SCORE.SYSTEM.CONST>
0

>  <SCORE.SYSTEM.DIHEDRAL>
0

>  <SCORE.SYSTEM.SOLV>
0

>  <SCORE.SYSTEM.norm>
0

>  <SCORE.heavy>
10

>  <SCORE.norm>
-0.812563

>  <RMSD>
12.086

$$$$
ligand
 OpenBabel11021811473D
libRbt.so/2013.1/901 2013/11/27
 10  9  0  0  0  0  0  0  0  0999 V2000
   28.1832   14.6503   12.4902 N   0  0  0  0  0  0  0  0  0  0  0  0
   28.0279   14.2459   11.0680 C   0  0  2  0  0  0  0  0  0  0  0  0
   28.7442   15.2185   10.1305 C   0  0  0  0  0  0  0  0  0  0  0  0
   28.5463   16.4274   10.2006 O   0  0  0  0  0  0  0  0  0  0  0  0
   26.5435   14.0922   10.7175 C   0  0  0  0  0  0  0  0  0  0  0  0
   26.3173   13.5468    9.3111 C   0  0  0  0  0  0  0  0  0  0  0  0
   24.8481   13.5300    8.9129 C   0  0  0  0  0  0  0  0  0  0  0  0
   24.3182   14.9504    8.7128 C   0  0  0  0  0  0  0  0  0  0  0  0
   24.9821   15.7072    7.5822 N   0  0  0  0  0  0  0  0  0  0  0  0
   29.5703   14.8596    9.2993 O   0  0  0  0  0  0  0  0  0  0  0  0
  2  1  1  1  0  0  0
  2  3  1  0  0  0  0
  2  5  1  0  0  0  0
  3  4  1  0  0  0  0
  3 10  1  0  0  0  0
  5  6  1  0  0  0  0
  6  7  1  0  0  0  0
  7  8  1  0  0  0  0
  8  9  1  0  0  0  0
M  END
>  <CHROM.1>
-51.73147753,-174.38415459,-174.07691812,69.64360858,63.46404218,27.03346128
14.74475118,9.82699604,0.37330425,0.38944341,2.13202552

>  <Name>
ligand

>  <RI>
0

>  <Rbt.Current_Directory>
/home/itssahil/PROJECTS/Mol_Feturizer/New_Systems/rnas/3DIM

>  <Rbt.Executable>
rbdock ($Id: //depot/dev/client3/rdock/2013.1/src/exe/rbdock.cxx#4 $)

>  <Rbt.Library>
libRbt.so (2013.1, Build901 2013/11/27)

>  <Rbt.Parameter_File>
/export/apps/rDock/src/rDock_2013.1_src/data/scripts/dock_solv.prm

>  <Rbt.Receptor>
prm/blind_docking_40.prm

>  <SCORE>
-8.07494

>  <SCORE.INTER>
-6.05174

>  <SCORE.INTER.CONST>
1

>  <SCORE.INTER.POLAR>
0

>  <SCORE.INTER.ROT>
5

>  <SCORE.INTER.SOLV>
16.4207

>  <SCORE.INTER.VDW>
-16.4414

>  <SCORE.INTER.norm>
-0.605174

>  <SCORE.INTRA>
-2.0232

>  <SCORE.INTRA.DIHEDRAL>
-3.66183

>  <SCORE.INTRA.DIHEDRAL.0>
5.8785

>  <SCORE.INTRA.POLAR>
0

>  <SCORE.INTRA.POLAR.0>
0

>  <SCORE.INTRA.REPUL>
0

>  <SCORE.INTRA.REPUL.0>
0

>  <SCORE.INTRA.SOLV>
-0.483304

>  <SCORE.INTRA.SOLV.lig_0>
-31.9559

>  <SCORE.INTRA.VDW>
0.0493683

>  <SCORE.INTRA.VDW.0>
-0.507645

>  <SCORE.INTRA.norm>
-0.20232

>  <SCORE.RESTR>
0

>  <SCORE.RESTR.CAVITY>
0

>  <SCORE.RESTR.norm>
0

>  <SCORE.SYSTEM>
0

>  <SCORE.SYSTEM.CONST>
0

>  <SCORE.SYSTEM.DIHEDRAL>
0

>  <SCORE.SYSTEM.SOLV>
0

>  <SCORE.SYSTEM.norm>
0

>  <SCORE.heavy>
10

>  <SCORE.norm>
-0.807494

>  <RMSD>
12.102

$$$$
ligand
 OpenBabel11021811473D
libRbt.so/2013.1/901 2013/11/27
 10  9  0  0  0  0  0  0  0  0999 V2000
   27.4732   29.1718   19.4033 N   0  0  0  0  0  0  0  0  0  0  0  0
   26.8595   27.9271   18.8700 C   0  0  2  0  0  0  0  0  0  0  0  0
   25.8596   28.2322   17.7542 C   0  0  0  0  0  0  0  0  0  0  0  0
   25.8287   29.3343   17.2155 O   0  0  0  0  0  0  0  0  0  0  0  0
   26.2274   27.1161   20.0070 C   0  0  0  0  0  0  0  0  0  0  0  0
   25.9584   25.6642   19.6245 C   0  0  0  0  0  0  0  0  0  0  0  0
   25.2671   24.8798   20.7309 C   0  0  0  0  0  0  0  0  0  0  0  0
   25.1780   23.3949   20.3767 C   0  0  0  0  0  0  0  0  0  0  0  0
   24.4234   23.1062   19.0965 N   0  0  0  0  0  0  0  0  0  0  0  0
   25.0748   27.4001   17.3140 O   0  0  0  0  0  0  0  0  0  0  0  0
  2  1  1  1  0  0  0
  2  3  1  0  0  0  0
  2  5  1  0  0  0  0
  3  4  1  0  0  0  0
  3 10  1  0  0  0  0
  5  6  1  0  0  0  0
  6  7  1  0  0  0  0
  7  8  1  0  0  0  0
  8  9  1  0  0  0  0
M  END
>  <CHROM.1>
14.48047728,-162.65480339,-177.11137895,-172.77535422,-59.11977597,25.79672148
26.63928776,19.00916255,-1.16319787,0.92622793,2.44491019

>  <Name>
ligand

>  <RI>
0

>  <Rbt.Current_Directory>
/home/itssahil/PROJECTS/Mol_Feturizer/New_Systems/rnas/3DIM

>  <Rbt.Executable>
rbdock ($Id: //depot/dev/client3/rdock/2013.1/src/exe/rbdock.cxx#4 $)

>  <Rbt.Library>
libRbt.so (2013.1, Build901 2013/11/27)

>  <Rbt.Parameter_File>
/export/apps/rDock/src/rDock_2013.1_src/data/scripts/dock_solv.prm

>  <Rbt.Receptor>
prm/blind_docking_100.prm

>  <SCORE>
-2.65421

>  <SCORE.INTER>
-0.658822

>  <SCORE.INTER.CONST>
1

>  <SCORE.INTER.POLAR>
0

>  <SCORE.INTER.ROT>
5

>  <SCORE.INTER.SOLV>
9.91084

>  <SCORE.INTER.VDW>
-10.6762

>  <SCORE.INTER.norm>
-0.0658822

>  <SCORE.INTRA>
-1.99912

>  <SCORE.INTRA.DIHEDRAL>
-3.09861

>  <SCORE.INTRA.DIHEDRAL.0>
5.8785

>  <SCORE.INTRA.POLAR>
0

>  <SCORE.INTRA.POLAR.0>
0

>  <SCORE.INTRA.REPUL>
0

>  <SCORE.INTRA.REPUL.0>
0

>  <SCORE.INTRA.SOLV>
-0.930513

>  <SCORE.INTRA.SOLV.lig_0>
-31.9559

>  <SCORE.INTRA.VDW>
0.0154379

>  <SCORE.INTRA.VDW.0>
-0.507645

>  <SCORE.INTRA.norm>
-0.199912

>  <SCORE.RESTR>
0.00373851

>  <SCORE.RESTR.CAVITY>
0.00373851

>  <SCORE.RESTR.norm>
0.000373851

>  <SCORE.SYSTEM>
0

>  <SCORE.SYSTEM.CONST>
0

>  <SCORE.SYSTEM.DIHEDRAL>
0

>  <SCORE.SYSTEM.SOLV>
0

>  <SCORE.SYSTEM.norm>
0

>  <SCORE.heavy>
10

>  <SCORE.norm>
-0.265421

>  <RMSD>
12.273

$$$$
ligand
 OpenBabel11021811473D
libRbt.so/2013.1/901 2013/11/27
 10  9  0  0  0  0  0  0  0  0999 V2000
   26.0507   27.4143   23.7038 N   0  0  0  0  0  0  0  0  0  0  0  0
   26.0858   27.9351   22.3117 C   0  0  2  0  0  0  0  0  0  0  0  0
   25.6057   29.3853   22.2468 C   0  0  0  0  0  0  0  0  0  0  0  0
   24.4566   29.6863   22.5546 O   0  0  0  0  0  0  0  0  0  0  0  0
   25.2846   27.0185   21.3802 C   0  0  0  0  0  0  0  0  0  0  0  0
   25.8228   25.5918   21.3415 C   0  0  0  0  0  0  0  0  0  0  0  0
   25.0371   24.6890   20.4007 C   0  0  0  0  0  0  0  0  0  0  0  0
   25.6266   23.2782   20.3753 C   0  0  0  0  0  0  0  0  0  0  0  0
   24.9538   22.3419   19.3943 N   0  0  0  0  0  0  0  0  0  0  0  0
   26.3355   30.3174   21.9293 O   0  0  0  0  0  0  0  0  0  0  0  0
  2  1  1  1  0  0  0
  2  3  1  0  0  0  0
  2  5  1  0  0  0  0
  3  4  1  0  0  0  0
  3 10  1  0  0  0  0
  5  6  1  0  0  0  0
  6  7  1  0  0  0  0
  7  8  1  0  0  0  0
  8  9  1  0  0  0  0
M  END
>  <CHROM.1>
-63.22947265,-60.05182643,-179.18972361,178.98566983,-176.29118106,25.51716354
26.81102699,21.56768854,-1.43362314,1.14959361,-2.89778606

>  <Name>
ligand

>  <RI>
0

>  <Rbt.Current_Directory>
/home/itssahil/PROJECTS/Mol_Feturizer/New_Systems/rnas/3DIM

>  <Rbt.Executable>
rbdock ($Id: //depot/dev/client3/rdock/2013.1/src/exe/rbdock.cxx#4 $)

>  <Rbt.Library>
libRbt.so (2013.1, Build901 2013/11/27)

>  <Rbt.Parameter_File>
/export/apps/rDock/src/rDock_2013.1_src/data/scripts/dock_solv.prm

>  <Rbt.Receptor>
prm/blind_docking_80.prm

>  <SCORE>
-3.66787

>  <SCORE.INTER>
-0.786007

>  <SCORE.INTER.CONST>
1

>  <SCORE.INTER.POLAR>
0

>  <SCORE.INTER.ROT>
5

>  <SCORE.INTER.SOLV>
14.4298

>  <SCORE.INTER.VDW>
-12.2673

>  <SCORE.INTER.norm>
-0.0786007

>  <SCORE.INTRA>
-2.88186

>  <SCORE.INTRA.DIHEDRAL>
-4.33533

>  <SCORE.INTRA.DIHEDRAL.0>
5.8785

>  <SCORE.INTRA.POLAR>
0

>  <SCORE.INTRA.POLAR.0>
0

>  <SCORE.INTRA.REPUL>
0

>  <SCORE.INTRA.REPUL.0>
0

>  <SCORE.INTRA.SOLV>
-0.948548

>  <SCORE.INTRA.SOLV.lig_0>
-31.9559

>  <SCORE.INTRA.VDW>
-0.239924

>  <SCORE.INTRA.VDW.0>
-0.507645

>  <SCORE.INTRA.norm>
-0.288186

>  <SCORE.RESTR>
0

>  <SCORE.RESTR.CAVITY>
0

>  <SCORE.RESTR.norm>
0

>  <SCORE.SYSTEM>
0

>  <SCORE.SYSTEM.CONST>
0

>  <SCORE.SYSTEM.DIHEDRAL>
0

>  <SCORE.SYSTEM.SOLV>
0

>  <SCORE.SYSTEM.norm>
0

>  <SCORE.heavy>
10

>  <SCORE.norm>
-0.366787

>  <RMSD>
12.325

$$$$
ligand
 OpenBabel11021811473D
libRbt.so/2013.1/901 2013/11/27
 10  9  0  0  0  0  0  0  0  0999 V2000
   26.7192   13.0562   10.4336 N   0  0  0  0  0  0  0  0  0  0  0  0
   27.0264   14.2196    9.5604 C   0  0  2  0  0  0  0  0  0  0  0  0
   28.0938   15.1189   10.1848 C   0  0  0  0  0  0  0  0  0  0  0  0
   28.0767   16.3340   10.0145 O   0  0  0  0  0  0  0  0  0  0  0  0
   25.7431   14.9897    9.2289 C   0  0  0  0  0  0  0  0  0  0  0  0
   24.6668   14.1106    8.6002 C   0  0  0  0  0  0  0  0  0  0  0  0
   23.9921   13.1904    9.6079 C   0  0  0  0  0  0  0  0  0  0  0  0
   23.1497   13.9903   10.6023 C   0  0  0  0  0  0  0  0  0  0  0  0
   21.8863   14.5799   10.0125 N   0  0  0  0  0  0  0  0  0  0  0  0
   28.9861   14.6933   10.9092 O   0  0  0  0  0  0  0  0  0  0  0  0
  2  1  1  1  0  0  0
  2  3  1  0  0  0  0
  2  5  1  0  0  0  0
  3  4  1  0  0  0  0
  3 10  1  0  0  0  0
  5  6  1  0  0  0  0
  6  7  1  0  0  0  0
  7  8  1  0  0  0  0
  8  9  1  0  0  0  0
M  END
>  <CHROM.1>
-146.52577274,-55.40687884,74.45716673,68.16612963,71.47807520,25.86909496
14.45041441,9.92930150,-0.17464310,0.12730555,2.93886582

>  <Name>
ligand

>  <RI>
0

>  <Rbt.Current_Directory>
/home/itssahil/PROJECTS/Mol_Feturizer/New_Systems/rnas/3DIM

>  <Rbt.Executable>
rbdock ($Id: //depot/dev/client3/rdock/2013.1/src/exe/rbdock.cxx#4 $)

>  <Rbt.Library>
libRbt.so (2013.1, Build901 2013/11/27)

>  <Rbt.Parameter_File>
/export/apps/rDock/src/rDock_2013.1_src/data/scripts/dock_solv.prm

>  <Rbt.Receptor>
prm/blind_docking_40.prm

>  <SCORE>
-2.4289

>  <SCORE.INTER>
-3.51749

>  <SCORE.INTER.CONST>
1

>  <SCORE.INTER.POLAR>
0

>  <SCORE.INTER.ROT>
5

>  <SCORE.INTER.SOLV>
11.1559

>  <SCORE.INTER.VDW>
-12.997

>  <SCORE.INTER.norm>
-0.351749

>  <SCORE.INTRA>
1.08859

>  <SCORE.INTRA.DIHEDRAL>
-2.62352

>  <SCORE.INTRA.DIHEDRAL.0>
5.8785

>  <SCORE.INTRA.POLAR>
0

>  <SCORE.INTRA.POLAR.0>
0

>  <SCORE.INTRA.REPUL>
0

>  <SCORE.INTRA.REPUL.0>
0

>  <SCORE.INTRA.SOLV>
2.16664

>  <SCORE.INTRA.SOLV.lig_0>
-31.9559

>  <SCORE.INTRA.VDW>
1.31703

>  <SCORE.INTRA.VDW.0>
-0.507645

>  <SCORE.INTRA.norm>
0.108859

>  <SCORE.RESTR>
0

>  <SCORE.RESTR.CAVITY>
0

>  <SCORE.RESTR.norm>
0

>  <SCORE.SYSTEM>
0

>  <SCORE.SYSTEM.CONST>
0

>  <SCORE.SYSTEM.DIHEDRAL>
0

>  <SCORE.SYSTEM.SOLV>
0

>  <SCORE.SYSTEM.norm>
0

>  <SCORE.heavy>
10

>  <SCORE.norm>
-0.24289

>  <RMSD>
12.427

$$$$
ligand
 OpenBabel11021811473D
libRbt.so/2013.1/901 2013/11/27
 10  9  0  0  0  0  0  0  0  0999 V2000
   26.2535   13.0717    8.2364 N   0  0  0  0  0  0  0  0  0  0  0  0
   26.1828   14.4670    8.7447 C   0  0  2  0  0  0  0  0  0  0  0  0
   27.0981   14.6673    9.9531 C   0  0  0  0  0  0  0  0  0  0  0  0
   27.2394   13.7845   10.7935 O   0  0  0  0  0  0  0  0  0  0  0  0
   24.7300   14.8492    9.0500 C   0  0  0  0  0  0  0  0  0  0  0  0
   24.0859   13.9495   10.0999 C   0  0  0  0  0  0  0  0  0  0  0  0
   22.6422   14.3294   10.3983 C   0  0  0  0  0  0  0  0  0  0  0  0
   22.0135   13.3541   11.3943 C   0  0  0  0  0  0  0  0  0  0  0  0
   22.6282   13.3965   12.7771 N   0  0  0  0  0  0  0  0  0  0  0  0
   27.7611   15.6831   10.1283 O   0  0  0  0  0  0  0  0  0  0  0  0
  2  1  1  1  0  0  0
  2  3  1  0  0  0  0
  2  5  1  0  0  0  0
  3  4  1  0  0  0  0
  3 10  1  0  0  0  0
  5  6  1  0  0  0  0
  6  7  1  0  0  0  0
  7  8  1  0  0  0  0
  8  9  1  0  0  0  0
M  END
>  <CHROM.1>
-37.27279321,59.85006582,-179.85314187,176.75331534,66.02218080,25.09472196
14.16212533,10.17895614,0.37371886,-0.20753848,-1.59690070

>  <Name>
ligand

>  <RI>
0

>  <Rbt.Current_Directory>
/home/itssahil/PROJECTS/Mol_Feturizer/New_Systems/rnas/3DIM

>  <Rbt.Executable>
rbdock ($Id: //depot/dev/client3/rdock/2013.1/src/exe/rbdock.cxx#4 $)

>  <Rbt.Library>
libRbt.so (2013.1, Build901 2013/11/27)

>  <Rbt.Parameter_File>
/export/apps/rDock/src/rDock_2013.1_src/data/scripts/dock_solv.prm

>  <Rbt.Receptor>
prm/blind_docking_40.prm

>  <SCORE>
-5.38379

>  <SCORE.INTER>
-3.07449

>  <SCORE.INTER.CONST>
1

>  <SCORE.INTER.POLAR>
0

>  <SCORE.INTER.ROT>
5

>  <SCORE.INTER.SOLV>
7.63095

>  <SCORE.INTER.VDW>
-11.5266

>  <SCORE.INTER.norm>
-0.307449

>  <SCORE.INTRA>
-2.3093

>  <SCORE.INTRA.DIHEDRAL>
-4.11852

>  <SCORE.INTRA.DIHEDRAL.0>
5.8785

>  <SCORE.INTRA.POLAR>
0

>  <SCORE.INTRA.POLAR.0>
0

>  <SCORE.INTRA.REPUL>
0

>  <SCORE.INTRA.REPUL.0>
0

>  <SCORE.INTRA.SOLV>
-0.114878

>  <SCORE.INTRA.SOLV.lig_0>
-31.9559

>  <SCORE.INTRA.VDW>
-0.192596

>  <SCORE.INTRA.VDW.0>
-0.507645

>  <SCORE.INTRA.norm>
-0.23093

>  <SCORE.RESTR>
0

>  <SCORE.RESTR.CAVITY>
0

>  <SCORE.RESTR.norm>
0

>  <SCORE.SYSTEM>
0

>  <SCORE.SYSTEM.CONST>
0

>  <SCORE.SYSTEM.DIHEDRAL>
0

>  <SCORE.SYSTEM.SOLV>
0

>  <SCORE.SYSTEM.norm>
0

>  <SCORE.heavy>
10

>  <SCORE.norm>
-0.538379

>  <RMSD>
12.642

$$$$
ligand
 OpenBabel11021811473D
libRbt.so/2013.1/901 2013/11/27
 10  9  0  0  0  0  0  0  0  0999 V2000
   26.3166   13.0694    8.2101 N   0  0  0  0  0  0  0  0  0  0  0  0
   26.1696   14.4391    8.7689 C   0  0  2  0  0  0  0  0  0  0  0  0
   27.1187   14.6659    9.9461 C   0  0  0  0  0  0  0  0  0  0  0  0
   27.7365   15.7191   10.0675 O   0  0  0  0  0  0  0  0  0  0  0  0
   24.7077   14.7063    9.1451 C   0  0  0  0  0  0  0  0  0  0  0  0
   24.1875   13.7593   10.2218 C   0  0  0  0  0  0  0  0  0  0  0  0
   22.7554   14.0662   10.6371 C   0  0  0  0  0  0  0  0  0  0  0  0
   22.2924   13.1222   11.7474 C   0  0  0  0  0  0  0  0  0  0  0  0
   20.8628   13.3426   12.1937 N   0  0  0  0  0  0  0  0  0  0  0  0
   27.2839   13.8434   10.8395 O   0  0  0  0  0  0  0  0  0  0  0  0
  2  1  1  1  0  0  0
  2  3  1  0  0  0  0
  2  5  1  0  0  0  0
  3  4  1  0  0  0  0
  3 10  1  0  0  0  0
  5  6  1  0  0  0  0
  6  7  1  0  0  0  0
  7  8  1  0  0  0  0
  8  9  1  0  0  0  0
M  END
>  <CHROM.1>
137.71414494,61.76962358,177.46708703,-178.19186977,-178.60907656,24.97543253
14.08230007,10.19879477,0.29546008,-0.28126473,-1.79088654

>  <Name>
ligand

>  <RI>
0

>  <Rbt.Current_Directory>
/home/itssahil/PROJECTS/Mol_Feturizer/New_Systems/rnas/3DIM

>  <Rbt.Executable>
rbdock ($Id: //depot/dev/client3/rdock/2013.1/src/exe/rbdock.cxx#4 $)

>  <Rbt.Library>
libRbt.so (2013.1, Build901 2013/11/27)

>  <Rbt.Parameter_File>
/export/apps/rDock/src/rDock_2013.1_src/data/scripts/dock_solv.prm

>  <Rbt.Receptor>
prm/blind_docking_40.prm

>  <SCORE>
-6.06737

>  <SCORE.INTER>
-3.11521

>  <SCORE.INTER.CONST>
1

>  <SCORE.INTER.POLAR>
0

>  <SCORE.INTER.ROT>
5

>  <SCORE.INTER.SOLV>
5.81139

>  <SCORE.INTER.VDW>
-10.9473

>  <SCORE.INTER.norm>
-0.311521

>  <SCORE.INTRA>
-2.95216

>  <SCORE.INTRA.DIHEDRAL>
-4.37786

>  <SCORE.INTRA.DIHEDRAL.0>
5.8785

>  <SCORE.INTRA.POLAR>
0

>  <SCORE.INTRA.POLAR.0>
0

>  <SCORE.INTRA.REPUL>
0

>  <SCORE.INTRA.REPUL.0>
0

>  <SCORE.INTRA.SOLV>
-1.00206

>  <SCORE.INTRA.SOLV.lig_0>
-31.9559

>  <SCORE.INTRA.VDW>
-0.262201

>  <SCORE.INTRA.VDW.0>
-0.507645

>  <SCORE.INTRA.norm>
-0.295216

>  <SCORE.RESTR>
0

>  <SCORE.RESTR.CAVITY>
0

>  <SCORE.RESTR.norm>
0

>  <SCORE.SYSTEM>
0

>  <SCORE.SYSTEM.CONST>
0

>  <SCORE.SYSTEM.DIHEDRAL>
0

>  <SCORE.SYSTEM.SOLV>
0

>  <SCORE.SYSTEM.norm>
0

>  <SCORE.heavy>
10

>  <SCORE.norm>
-0.606737

>  <RMSD>
12.672

$$$$
ligand
 OpenBabel11021811473D
libRbt.so/2013.1/901 2013/11/27
 10  9  0  0  0  0  0  0  0  0999 V2000
   26.3737   13.0561    8.1725 N   0  0  0  0  0  0  0  0  0  0  0  0
   26.2113   14.4253    8.7285 C   0  0  2  0  0  0  0  0  0  0  0  0
   27.1375   14.6555    9.9231 C   0  0  0  0  0  0  0  0  0  0  0  0
   27.7596   15.7056   10.0489 O   0  0  0  0  0  0  0  0  0  0  0  0
   24.7417   14.6871    9.0774 C   0  0  0  0  0  0  0  0  0  0  0  0
   24.2015   13.7304   10.1355 C   0  0  0  0  0  0  0  0  0  0  0  0
   22.7729   14.0535   10.5504 C   0  0  0  0  0  0  0  0  0  0  0  0
   22.2798   13.0802   11.6217 C   0  0  0  0  0  0  0  0  0  0  0  0
   20.8737   13.3553   12.1106 N   0  0  0  0  0  0  0  0  0  0  0  0
   27.2789   13.8390   10.8262 O   0  0  0  0  0  0  0  0  0  0  0  0
  2  1  1  1  0  0  0
  2  3  1  0  0  0  0
  2  5  1  0  0  0  0
  3  4  1  0  0  0  0
  3 10  1  0  0  0  0
  5  6  1  0  0  0  0
  6  7  1  0  0  0  0
  7  8  1  0  0  0  0
  8  9  1  0  0  0  0
M  END
>  <CHROM.1>
136.96685256,61.27574650,175.99838665,-179.36711611,178.69867036,24.99492964
14.06785572,10.14111008,0.28048884,-0.28088647,-1.80169034

>  <Name>
ligand

>  <RI>
0

>  <Rbt.Current_Directory>
/home/itssahil/PROJECTS/Mol_Feturizer/New_Systems/rnas/3DIM

>  <Rbt.Executable>
rbdock ($Id: //depot/dev/client3/rdock/2013.1/src/exe/rbdock.cxx#4 $)

>  <Rbt.Library>
libRbt.so (2013.1, Build901 2013/11/27)

>  <Rbt.Parameter_File>
/export/apps/rDock/src/rDock_2013.1_src/data/scripts/dock_solv.prm

>  <Rbt.Receptor>
prm/blind_docking_40.prm

>  <SCORE>
-6.11994

>  <SCORE.INTER>
-3.17873

>  <SCORE.INTER.CONST>
1

>  <SCORE.INTER.POLAR>
0

>  <SCORE.INTER.ROT>
5

>  <SCORE.INTER.SOLV>
6.03012

>  <SCORE.INTER.VDW>
-11.0625

>  <SCORE.INTER.norm>
-0.317873

>  <SCORE.INTRA>
-2.94121

>  <SCORE.INTRA.DIHEDRAL>
-4.35329

>  <SCORE.INTRA.DIHEDRAL.0>
5.8785

>  <SCORE.INTRA.POLAR>
0

>  <SCORE.INTRA.POLAR.0>
0

>  <SCORE.INTRA.REPUL>
0

>  <SCORE.INTRA.REPUL.0>
0

>  <SCORE.INTRA.SOLV>
-1.00222

>  <SCORE.INTRA.SOLV.lig_0>
-31.9559

>  <SCORE.INTRA.VDW>
-0.263452

>  <SCORE.INTRA.VDW.0>
-0.507645

>  <SCORE.INTRA.norm>
-0.294121

>  <SCORE.RESTR>
0

>  <SCORE.RESTR.CAVITY>
0

>  <SCORE.RESTR.norm>
0

>  <SCORE.SYSTEM>
0

>  <SCORE.SYSTEM.CONST>
0

>  <SCORE.SYSTEM.DIHEDRAL>
0

>  <SCORE.SYSTEM.SOLV>
0

>  <SCORE.SYSTEM.norm>
0

>  <SCORE.heavy>
10

>  <SCORE.norm>
-0.611994

>  <RMSD>
12.712

$$$$
ligand
 OpenBabel11021811473D
libRbt.so/2013.1/901 2013/11/27
 10  9  0  0  0  0  0  0  0  0999 V2000
   24.3423   13.5267    8.3830 N   0  0  0  0  0  0  0  0  0  0  0  0
   24.6489   13.2985    9.8197 C   0  0  2  0  0  0  0  0  0  0  0  0
   23.7926   14.1889   10.7208 C   0  0  0  0  0  0  0  0  0  0  0  0
   23.7470   14.0054   11.9332 O   0  0  0  0  0  0  0  0  0  0  0  0
   26.1481   13.4840   10.0799 C   0  0  0  0  0  0  0  0  0  0  0  0
   26.6587   14.8600    9.6646 C   0  0  0  0  0  0  0  0  0  0  0  0
   28.1117   15.0936   10.0538 C   0  0  0  0  0  0  0  0  0  0  0  0
   28.2414   15.3591   11.5542 C   0  0  0  0  0  0  0  0  0  0  0  0
   27.8342   14.1923   12.4285 N   0  0  0  0  0  0  0  0  0  0  0  0
   23.1475   15.1422   10.2999 O   0  0  0  0  0  0  0  0  0  0  0  0
  2  1  1  6  0  0  0
  2  3  1  0  0  0  0
  2  5  1  0  0  0  0
  3  4  1  0  0  0  0
  3 10  1  0  0  0  0
  5  6  1  0  0  0  0
  6  7  1  0  0  0  0
  7  8  1  0  0  0  0
  8  9  1  0  0  0  0
M  END
>  <CHROM.1>
168.64349718,57.16980161,174.10235980,-75.09126051,63.91829168,25.63910824
14.33150083,10.51276367,-2.89754594,0.13210898,1.42882489

>  <Name>
ligand

>  <RI>
0

>  <Rbt.Current_Directory>
/home/itssahil/PROJECTS/Mol_Feturizer/New_Systems/rnas/3DIM

>  <Rbt.Executable>
rbdock ($Id: //depot/dev/client3/rdock/2013.1/src/exe/rbdock.cxx#4 $)

>  <Rbt.Library>
libRbt.so (2013.1, Build901 2013/11/27)

>  <Rbt.Parameter_File>
/export/apps/rDock/src/rDock_2013.1_src/data/scripts/dock_solv.prm

>  <Rbt.Receptor>
prm/blind_docking_40.prm

>  <SCORE>
-4.23728

>  <SCORE.INTER>
-3.51958

>  <SCORE.INTER.CONST>
1

>  <SCORE.INTER.POLAR>
0

>  <SCORE.INTER.ROT>
5

>  <SCORE.INTER.SOLV>
13.2092

>  <SCORE.INTER.VDW>
-13.6828

>  <SCORE.INTER.norm>
-0.351958

>  <SCORE.INTRA>
-0.717701

>  <SCORE.INTRA.DIHEDRAL>
-3.27811

>  <SCORE.INTRA.DIHEDRAL.0>
5.8785

>  <SCORE.INTRA.POLAR>
0

>  <SCORE.INTRA.POLAR.0>
0

>  <SCORE.INTRA.REPUL>
0

>  <SCORE.INTRA.REPUL.0>
0

>  <SCORE.INTRA.SOLV>
1.41558

>  <SCORE.INTRA.SOLV.lig_0>
-31.9559

>  <SCORE.INTRA.VDW>
0.213565

>  <SCORE.INTRA.VDW.0>
-0.507645

>  <SCORE.INTRA.norm>
-0.0717701

>  <SCORE.RESTR>
0

>  <SCORE.RESTR.CAVITY>
0

>  <SCORE.RESTR.norm>
0

>  <SCORE.SYSTEM>
0

>  <SCORE.SYSTEM.CONST>
0

>  <SCORE.SYSTEM.DIHEDRAL>
0

>  <SCORE.SYSTEM.SOLV>
0

>  <SCORE.SYSTEM.norm>
0

>  <SCORE.heavy>
10

>  <SCORE.norm>
-0.423728

>  <RMSD>
12.761

$$$$
ligand
 OpenBabel11021811473D
libRbt.so/2013.1/901 2013/11/27
 10  9  0  0  0  0  0  0  0  0999 V2000
   28.5917   14.6969    9.3489 N   0  0  0  0  0  0  0  0  0  0  0  0
   27.4409   14.5782   10.2828 C   0  0  2  0  0  0  0  0  0  0  0  0
   27.9108   14.4169   11.7288 C   0  0  0  0  0  0  0  0  0  0  0  0
   27.1673   14.6788   12.6692 O   0  0  0  0  0  0  0  0  0  0  0  0
   26.5157   13.4371    9.8447 C   0  0  0  0  0  0  0  0  0  0  0  0
   25.9921   13.6079    8.4223 C   0  0  0  0  0  0  0  0  0  0  0  0
   27.0370   13.2809    7.3646 C   0  0  0  0  0  0  0  0  0  0  0  0
   26.4524   13.4123    5.9577 C   0  0  0  0  0  0  0  0  0  0  0  0
   27.4192   13.0574    4.8481 N   0  0  0  0  0  0  0  0  0  0  0  0
   29.0192   13.9876   12.0275 O   0  0  0  0  0  0  0  0  0  0  0  0
  2  1  1  6  0  0  0
  2  3  1  0  0  0  0
  2  5  1  0  0  0  0
  3  4  1  0  0  0  0
  3 10  1  0  0  0  0
  5  6  1  0  0  0  0
  6  7  1  0  0  0  0
  7  8  1  0  0  0  0
  8  9  1  0  0  0  0
M  END
>  <CHROM.1>
159.10644273,-57.45620706,75.85150834,177.75288492,-178.04780499,27.36652030
13.91520450,9.29392786,-1.39740188,-0.14215147,-1.73352775

>  <Name>
ligand

>  <RI>
0

>  <Rbt.Current_Directory>
/home/itssahil/PROJECTS/Mol_Feturizer/New_Systems/rnas/3DIM

>  <Rbt.Executable>
rbdock ($Id: //depot/dev/client3/rdock/2013.1/src/exe/rbdock.cxx#4 $)

>  <Rbt.Library>
libRbt.so (2013.1, Build901 2013/11/27)

>  <Rbt.Parameter_File>
/export/apps/rDock/src/rDock_2013.1_src/data/scripts/dock_solv.prm

>  <Rbt.Receptor>
prm/blind_docking_40.prm

>  <SCORE>
-6.08965

>  <SCORE.INTER>
-4.80339

>  <SCORE.INTER.CONST>
1

>  <SCORE.INTER.POLAR>
0

>  <SCORE.INTER.ROT>
5

>  <SCORE.INTER.SOLV>
8.08625

>  <SCORE.INTER.VDW>
-12.831

>  <SCORE.INTER.norm>
-0.480339

>  <SCORE.INTRA>
-1.28627

>  <SCORE.INTRA.DIHEDRAL>
-3.39965

>  <SCORE.INTRA.DIHEDRAL.0>
5.8785

>  <SCORE.INTRA.POLAR>
0

>  <SCORE.INTRA.POLAR.0>
0

>  <SCORE.INTRA.REPUL>
0

>  <SCORE.INTRA.REPUL.0>
0

>  <SCORE.INTRA.SOLV>
0.536479

>  <SCORE.INTRA.SOLV.lig_0>
-31.9559

>  <SCORE.INTRA.VDW>
0.145316

>  <SCORE.INTRA.VDW.0>
-0.507645

>  <SCORE.INTRA.norm>
-0.128627

>  <SCORE.RESTR>
0

>  <SCORE.RESTR.CAVITY>
0

>  <SCORE.RESTR.norm>
0

>  <SCORE.SYSTEM>
0

>  <SCORE.SYSTEM.CONST>
0

>  <SCORE.SYSTEM.DIHEDRAL>
0

>  <SCORE.SYSTEM.SOLV>
0

>  <SCORE.SYSTEM.norm>
0

>  <SCORE.heavy>
10

>  <SCORE.norm>
-0.608965

>  <RMSD>
12.792

$$$$
ligand
 OpenBabel11021811473D
libRbt.so/2013.1/901 2013/11/27
 10  9  0  0  0  0  0  0  0  0999 V2000
   26.3093   14.0057    7.8609 N   0  0  0  0  0  0  0  0  0  0  0  0
   25.6976   14.3615    9.1684 C   0  0  2  0  0  0  0  0  0  0  0  0
   26.3910   13.6383   10.3235 C   0  0  0  0  0  0  0  0  0  0  0  0
   26.6567   12.4424   10.2535 O   0  0  0  0  0  0  0  0  0  0  0  0
   24.1886   14.0928    9.1406 C   0  0  0  0  0  0  0  0  0  0  0  0
   23.5056   14.3944   10.4707 C   0  0  0  0  0  0  0  0  0  0  0  0
   21.9953   14.2120   10.4144 C   0  0  0  0  0  0  0  0  0  0  0  0
   21.3648   14.4334   11.7897 C   0  0  0  0  0  0  0  0  0  0  0  0
   21.7404   13.3899   12.8201 N   0  0  0  0  0  0  0  0  0  0  0  0
   26.7506   14.2066   11.3482 O   0  0  0  0  0  0  0  0  0  0  0  0
  2  1  1  6  0  0  0
  2  3  1  0  0  0  0
  2  5  1  0  0  0  0
  3  4  1  0  0  0  0
  3 10  1  0  0  0  0
  5  6  1  0  0  0  0
  6  7  1  0  0  0  0
  7  8  1  0  0  0  0
  8  9  1  0  0  0  0
M  END
>  <CHROM.1>
-45.33518302,178.10491061,176.33254003,176.20399628,-66.78102593,24.48642651
13.90199863,10.38037271,0.39563486,0.17884468,-1.34066691

>  <Name>
ligand

>  <RI>
0

>  <Rbt.Current_Directory>
/home/itssahil/PROJECTS/Mol_Feturizer/New_Systems/rnas/3DIM

>  <Rbt.Executable>
rbdock ($Id: //depot/dev/client3/rdock/2013.1/src/exe/rbdock.cxx#4 $)

>  <Rbt.Library>
libRbt.so (2013.1, Build901 2013/11/27)

>  <Rbt.Parameter_File>
/export/apps/rDock/src/rDock_2013.1_src/data/scripts/dock_solv.prm

>  <Rbt.Receptor>
prm/blind_docking_40.prm

>  <SCORE>
-5.18143

>  <SCORE.INTER>
-2.47065

>  <SCORE.INTER.CONST>
1

>  <SCORE.INTER.POLAR>
0

>  <SCORE.INTER.ROT>
5

>  <SCORE.INTER.SOLV>
5.42911

>  <SCORE.INTER.VDW>
-10.3901

>  <SCORE.INTER.norm>
-0.247065

>  <SCORE.INTRA>
-2.71079

>  <SCORE.INTRA.DIHEDRAL>
-4.01403

>  <SCORE.INTRA.DIHEDRAL.0>
5.8785

>  <SCORE.INTRA.POLAR>
0

>  <SCORE.INTRA.POLAR.0>
0

>  <SCORE.INTRA.REPUL>
0

>  <SCORE.INTRA.REPUL.0>
0

>  <SCORE.INTRA.SOLV>
-1.01105

>  <SCORE.INTRA.SOLV.lig_0>
-31.9559

>  <SCORE.INTRA.VDW>
-0.198245

>  <SCORE.INTRA.VDW.0>
-0.507645

>  <SCORE.INTRA.norm>
-0.271079

>  <SCORE.RESTR>
0

>  <SCORE.RESTR.CAVITY>
0

>  <SCORE.RESTR.norm>
0

>  <SCORE.SYSTEM>
0

>  <SCORE.SYSTEM.CONST>
0

>  <SCORE.SYSTEM.DIHEDRAL>
0

>  <SCORE.SYSTEM.SOLV>
0

>  <SCORE.SYSTEM.norm>
0

>  <SCORE.heavy>
10

>  <SCORE.norm>
-0.518143

>  <RMSD>
12.823

$$$$
ligand
 OpenBabel11021811473D
libRbt.so/2013.1/901 2013/11/27
 10  9  0  0  0  0  0  0  0  0999 V2000
   23.8235   15.0888    8.8542 N   0  0  0  0  0  0  0  0  0  0  0  0
   24.1649   13.6584    9.0730 C   0  0  2  0  0  0  0  0  0  0  0  0
   24.0089   13.2666   10.5427 C   0  0  0  0  0  0  0  0  0  0  0  0
   24.0049   14.1165   11.4277 O   0  0  0  0  0  0  0  0  0  0  0  0
   25.5711   13.3595    8.5409 C   0  0  0  0  0  0  0  0  0  0  0  0
   26.6384   14.2747    9.1324 C   0  0  0  0  0  0  0  0  0  0  0  0
   26.9739   13.9344   10.5778 C   0  0  0  0  0  0  0  0  0  0  0  0
   28.0434   14.8782   11.1290 C   0  0  0  0  0  0  0  0  0  0  0  0
   28.4027   14.6302   12.5785 N   0  0  0  0  0  0  0  0  0  0  0  0
   23.8419   12.1099   10.9119 O   0  0  0  0  0  0  0  0  0  0  0  0
  2  1  1  1  0  0  0
  2  3  1  0  0  0  0
  2  5  1  0  0  0  0
  3  4  1  0  0  0  0
  3 10  1  0  0  0  0
  5  6  1  0  0  0  0
  6  7  1  0  0  0  0
  7  8  1  0  0  0  0
  8  9  1  0  0  0  0
M  END
>  <CHROM.1>
-20.05762642,55.01966024,73.89967640,-179.84650316,178.24901147,25.53364801
13.92002133,10.30645807,-2.82182850,0.33414997,1.79550942

>  <Name>
ligand

>  <RI>
0

>  <Rbt.Current_Directory>
/home/itssahil/PROJECTS/Mol_Feturizer/New_Systems/rnas/3DIM

>  <Rbt.Executable>
rbdock ($Id: //depot/dev/client3/rdock/2013.1/src/exe/rbdock.cxx#4 $)

>  <Rbt.Library>
libRbt.so (2013.1, Build901 2013/11/27)

>  <Rbt.Parameter_File>
/export/apps/rDock/src/rDock_2013.1_src/data/scripts/dock_solv.prm

>  <Rbt.Receptor>
prm/blind_docking_40.prm

>  <SCORE>
-4.73711

>  <SCORE.INTER>
-2.75923

>  <SCORE.INTER.CONST>
1

>  <SCORE.INTER.POLAR>
0

>  <SCORE.INTER.ROT>
5

>  <SCORE.INTER.SOLV>
13.6153

>  <SCORE.INTER.VDW>
-13.3112

>  <SCORE.INTER.norm>
-0.275923

>  <SCORE.INTRA>
-1.97788

>  <SCORE.INTRA.DIHEDRAL>
-3.40176

>  <SCORE.INTRA.DIHEDRAL.0>
5.8785

>  <SCORE.INTRA.POLAR>
0

>  <SCORE.INTRA.POLAR.0>
0

>  <SCORE.INTRA.REPUL>
0

>  <SCORE.INTRA.REPUL.0>
0

>  <SCORE.INTRA.SOLV>
-0.423395

>  <SCORE.INTRA.SOLV.lig_0>
-31.9559

>  <SCORE.INTRA.VDW>
-0.0653018

>  <SCORE.INTRA.VDW.0>
-0.507645

>  <SCORE.INTRA.norm>
-0.197788

>  <SCORE.RESTR>
0

>  <SCORE.RESTR.CAVITY>
0

>  <SCORE.RESTR.norm>
0

>  <SCORE.SYSTEM>
0

>  <SCORE.SYSTEM.CONST>
0

>  <SCORE.SYSTEM.DIHEDRAL>
0

>  <SCORE.SYSTEM.SOLV>
0

>  <SCORE.SYSTEM.norm>
0

>  <SCORE.heavy>
10

>  <SCORE.norm>
-0.473711

>  <RMSD>
13.056

$$$$
ligand
 OpenBabel11021811473D
libRbt.so/2013.1/901 2013/11/27
 10  9  0  0  0  0  0  0  0  0999 V2000
   24.0509   14.5996    8.8607 N   0  0  0  0  0  0  0  0  0  0  0  0
   23.8940   13.6691   10.0095 C   0  0  2  0  0  0  0  0  0  0  0  0
   22.4469   13.6302   10.5018 C   0  0  0  0  0  0  0  0  0  0  0  0
   21.6341   14.4779   10.1463 O   0  0  0  0  0  0  0  0  0  0  0  0
   24.8758   14.0349   11.1285 C   0  0  0  0  0  0  0  0  0  0  0  0
   26.3337   13.9770   10.6839 C   0  0  0  0  0  0  0  0  0  0  0  0
   27.2962   14.4919   11.7450 C   0  0  0  0  0  0  0  0  0  0  0  0
   28.7463   14.3690   11.2756 C   0  0  0  0  0  0  0  0  0  0  0  0
   29.0623   15.1578   10.0228 N   0  0  0  0  0  0  0  0  0  0  0  0
   22.0129   12.7467   11.2320 O   0  0  0  0  0  0  0  0  0  0  0  0
  2  1  1  6  0  0  0
  2  3  1  0  0  0  0
  2  5  1  0  0  0  0
  3  4  1  0  0  0  0
  3 10  1  0  0  0  0
  5  6  1  0  0  0  0
  6  7  1  0  0  0  0
  7  8  1  0  0  0  0
  8  9  1  0  0  0  0
M  END
>  <CHROM.1>
-13.81623556,-59.52738441,173.45133580,177.99316894,60.77795729,24.99020916
14.11124777,10.56930721,3.13404818,0.16735223,2.06143645

>  <Name>
ligand

>  <RI>
0

>  <Rbt.Current_Directory>
/home/itssahil/PROJECTS/Mol_Feturizer/New_Systems/rnas/3DIM

>  <Rbt.Executable>
rbdock ($Id: //depot/dev/client3/rdock/2013.1/src/exe/rbdock.cxx#4 $)

>  <Rbt.Library>
libRbt.so (2013.1, Build901 2013/11/27)

>  <Rbt.Parameter_File>
/export/apps/rDock/src/rDock_2013.1_src/data/scripts/dock_solv.prm

>  <Rbt.Receptor>
prm/blind_docking_40.prm

>  <SCORE>
-5.94102

>  <SCORE.INTER>
-3.77343

>  <SCORE.INTER.CONST>
1

>  <SCORE.INTER.POLAR>
0

>  <SCORE.INTER.ROT>
5

>  <SCORE.INTER.SOLV>
12.3026

>  <SCORE.INTER.VDW>
-13.5498

>  <SCORE.INTER.norm>
-0.377343

>  <SCORE.INTRA>
-2.16759

>  <SCORE.INTRA.DIHEDRAL>
-4.11527

>  <SCORE.INTRA.DIHEDRAL.0>
5.8785

>  <SCORE.INTRA.POLAR>
0

>  <SCORE.INTRA.POLAR.0>
0

>  <SCORE.INTRA.REPUL>
0

>  <SCORE.INTRA.REPUL.0>
0

>  <SCORE.INTRA.SOLV>
0.0170115

>  <SCORE.INTRA.SOLV.lig_0>
-31.9559

>  <SCORE.INTRA.VDW>
-0.118458

>  <SCORE.INTRA.VDW.0>
-0.507645

>  <SCORE.INTRA.norm>
-0.216759

>  <SCORE.RESTR>
0

>  <SCORE.RESTR.CAVITY>
0

>  <SCORE.RESTR.norm>
0

>  <SCORE.SYSTEM>
0

>  <SCORE.SYSTEM.CONST>
0

>  <SCORE.SYSTEM.DIHEDRAL>
0

>  <SCORE.SYSTEM.SOLV>
0

>  <SCORE.SYSTEM.norm>
0

>  <SCORE.heavy>
10

>  <SCORE.norm>
-0.594102

>  <RMSD>
13.199

$$$$
ligand
 OpenBabel11021811473D
libRbt.so/2013.1/901 2013/11/27
 10  9  0  0  0  0  0  0  0  0999 V2000
   24.0276   13.8430    8.7679 N   0  0  0  0  0  0  0  0  0  0  0  0
   23.9770   13.3094   10.1546 C   0  0  2  0  0  0  0  0  0  0  0  0
   22.5485   13.3086   10.6999 C   0  0  0  0  0  0  0  0  0  0  0  0
   21.7055   14.0887   10.2682 O   0  0  0  0  0  0  0  0  0  0  0  0
   24.9407   14.0861   11.0591 C   0  0  0  0  0  0  0  0  0  0  0  0
   26.3977   13.9568   10.6267 C   0  0  0  0  0  0  0  0  0  0  0  0
   27.3493   14.7508   11.5107 C   0  0  0  0  0  0  0  0  0  0  0  0
   28.8020   14.5355   11.0843 C   0  0  0  0  0  0  0  0  0  0  0  0
   29.1244   15.0493    9.6973 N   0  0  0  0  0  0  0  0  0  0  0  0
   22.1591   12.5190   11.5527 O   0  0  0  0  0  0  0  0  0  0  0  0
  2  1  1  6  0  0  0
  2  3  1  0  0  0  0
  2  5  1  0  0  0  0
  3  4  1  0  0  0  0
  3 10  1  0  0  0  0
  5  6  1  0  0  0  0
  6  7  1  0  0  0  0
  7  8  1  0  0  0  0
  8  9  1  0  0  0  0
M  END
>  <CHROM.1>
-25.29771177,-62.25326173,178.89398887,177.13369407,64.32456483,25.05866869
13.94027687,10.55331512,3.09299537,0.21690772,1.80682238

>  <Name>
ligand

>  <RI>
0

>  <Rbt.Current_Directory>
/home/itssahil/PROJECTS/Mol_Feturizer/New_Systems/rnas/3DIM

>  <Rbt.Executable>
rbdock ($Id: //depot/dev/client3/rdock/2013.1/src/exe/rbdock.cxx#4 $)

>  <Rbt.Library>
libRbt.so (2013.1, Build901 2013/11/27)

>  <Rbt.Parameter_File>
/export/apps/rDock/src/rDock_2013.1_src/data/scripts/dock_solv.prm

>  <Rbt.Receptor>
prm/blind_docking_40.prm

>  <SCORE>
-5.95431

>  <SCORE.INTER>
-3.58994

>  <SCORE.INTER.CONST>
1

>  <SCORE.INTER.POLAR>
0

>  <SCORE.INTER.ROT>
5

>  <SCORE.INTER.SOLV>
12.2575

>  <SCORE.INTER.VDW>
-13.4125

>  <SCORE.INTER.norm>
-0.358994

>  <SCORE.INTRA>
-2.36437

>  <SCORE.INTRA.DIHEDRAL>
-4.15575

>  <SCORE.INTRA.DIHEDRAL.0>
5.8785

>  <SCORE.INTRA.POLAR>
0

>  <SCORE.INTRA.POLAR.0>
0

>  <SCORE.INTRA.REPUL>
0

>  <SCORE.INTRA.REPUL.0>
0

>  <SCORE.INTRA.SOLV>
-0.10448

>  <SCORE.INTRA.SOLV.lig_0>
-31.9559

>  <SCORE.INTRA.VDW>
-0.234254

>  <SCORE.INTRA.VDW.0>
-0.507645

>  <SCORE.INTRA.norm>
-0.236437

>  <SCORE.RESTR>
0

>  <SCORE.RESTR.CAVITY>
0

>  <SCORE.RESTR.norm>
0

>  <SCORE.SYSTEM>
0

>  <SCORE.SYSTEM.CONST>
0

>  <SCORE.SYSTEM.DIHEDRAL>
0

>  <SCORE.SYSTEM.SOLV>
0

>  <SCORE.SYSTEM.norm>
0

>  <SCORE.heavy>
10

>  <SCORE.norm>
-0.595431

>  <RMSD>
13.212

$$$$
ligand
 OpenBabel11021811473D
libRbt.so/2013.1/901 2013/11/27
 10  9  0  0  0  0  0  0  0  0999 V2000
   24.9090   15.8231    7.5008 N   0  0  0  0  0  0  0  0  0  0  0  0
   25.1460   15.1542    8.8072 C   0  0  2  0  0  0  0  0  0  0  0  0
   26.2936   14.1477    8.7182 C   0  0  0  0  0  0  0  0  0  0  0  0
   26.3424   13.3214    7.8124 O   0  0  0  0  0  0  0  0  0  0  0  0
   23.8517   14.5116    9.3187 C   0  0  0  0  0  0  0  0  0  0  0  0
   24.0048   13.8817   10.6994 C   0  0  0  0  0  0  0  0  0  0  0  0
   22.7283   13.2119   11.1884 C   0  0  0  0  0  0  0  0  0  0  0  0
   22.9257   12.6043   12.5777 C   0  0  0  0  0  0  0  0  0  0  0  0
   21.6952   11.9232   13.1380 N   0  0  0  0  0  0  0  0  0  0  0  0
   27.2328   14.1335    9.5056 O   0  0  0  0  0  0  0  0  0  0  0  0
  2  1  1  6  0  0  0
  2  3  1  0  0  0  0
  2  5  1  0  0  0  0
  3  4  1  0  0  0  0
  3 10  1  0  0  0  0
  5  6  1  0  0  0  0
  6  7  1  0  0  0  0
  7  8  1  0  0  0  0
  8  9  1  0  0  0  0
M  END
>  <CHROM.1>
-48.58870404,-176.41035156,-178.45959996,-179.59868758,179.72447251,24.54692475
13.85413558,9.91634877,0.86196066,0.29239642,-0.87740123

>  <Name>
ligand

>  <RI>
0

>  <Rbt.Current_Directory>
/home/itssahil/PROJECTS/Mol_Feturizer/New_Systems/rnas/3DIM

>  <Rbt.Executable>
rbdock ($Id: //depot/dev/client3/rdock/2013.1/src/exe/rbdock.cxx#4 $)

>  <Rbt.Library>
libRbt.so (2013.1, Build901 2013/11/27)

>  <Rbt.Parameter_File>
/export/apps/rDock/src/rDock_2013.1_src/data/scripts/dock_solv.prm

>  <Rbt.Receptor>
prm/blind_docking_100.prm

>  <SCORE>
-6.01046

>  <SCORE.INTER>
-2.59299

>  <SCORE.INTER.CONST>
1

>  <SCORE.INTER.POLAR>
0

>  <SCORE.INTER.ROT>
5

>  <SCORE.INTER.SOLV>
11.0856

>  <SCORE.INTER.VDW>
-12.3572

>  <SCORE.INTER.norm>
-0.259299

>  <SCORE.INTRA>
-3.41748

>  <SCORE.INTRA.DIHEDRAL>
-4.27977

>  <SCORE.INTRA.DIHEDRAL.0>
5.8785

>  <SCORE.INTRA.POLAR>
0

>  <SCORE.INTRA.POLAR.0>
0

>  <SCORE.INTRA.REPUL>
0

>  <SCORE.INTRA.REPUL.0>
0

>  <SCORE.INTRA.SOLV>
-1.86089

>  <SCORE.INTRA.SOLV.lig_0>
-31.9559

>  <SCORE.INTRA.VDW>
-0.347147

>  <SCORE.INTRA.VDW.0>
-0.507645

>  <SCORE.INTRA.norm>
-0.341748

>  <SCORE.RESTR>
0

>  <SCORE.RESTR.CAVITY>
0

>  <SCORE.RESTR.norm>
0

>  <SCORE.SYSTEM>
0

>  <SCORE.SYSTEM.CONST>
0

>  <SCORE.SYSTEM.DIHEDRAL>
0

>  <SCORE.SYSTEM.SOLV>
0

>  <SCORE.SYSTEM.norm>
0

>  <SCORE.heavy>
10

>  <SCORE.norm>
-0.601046

>  <RMSD>
13.279

$$$$
ligand
 OpenBabel11021811473D
libRbt.so/2013.1/901 2013/11/27
 10  9  0  0  0  0  0  0  0  0999 V2000
   20.6388   13.0105   12.5735 N   0  0  0  0  0  0  0  0  0  0  0  0
   21.8353   12.9063   11.6972 C   0  0  2  0  0  0  0  0  0  0  0  0
   22.9705   12.1527   12.3909 C   0  0  0  0  0  0  0  0  0  0  0  0
   23.1952   12.3076   13.5872 O   0  0  0  0  0  0  0  0  0  0  0  0
   22.2701   14.2975   11.2226 C   0  0  0  0  0  0  0  0  0  0  0  0
   23.2266   14.2496   10.0355 C   0  0  0  0  0  0  0  0  0  0  0  0
   24.6297   13.8050   10.4245 C   0  0  0  0  0  0  0  0  0  0  0  0
   25.5142   13.6379    9.1883 C   0  0  0  0  0  0  0  0  0  0  0  0
   25.7439   14.9170    8.4118 N   0  0  0  0  0  0  0  0  0  0  0  0
   23.6813   11.3371   11.8149 O   0  0  0  0  0  0  0  0  0  0  0  0
  2  1  1  1  0  0  0
  2  3  1  0  0  0  0
  2  5  1  0  0  0  0
  3  4  1  0  0  0  0
  3 10  1  0  0  0  0
  5  6  1  0  0  0  0
  6  7  1  0  0  0  0
  7  8  1  0  0  0  0
  8  9  1  0  0  0  0
M  END
>  <CHROM.1>
-38.48581718,-164.03968562,-73.97210065,174.37144100,63.12206330,23.38916782
13.24007221,11.15666358,2.29497328,-0.37701652,2.35746246

>  <Name>
ligand

>  <RI>
0

>  <Rbt.Current_Directory>
/home/itssahil/PROJECTS/Mol_Feturizer/New_Systems/rnas/3DIM

>  <Rbt.Executable>
rbdock ($Id: //depot/dev/client3/rdock/2013.1/src/exe/rbdock.cxx#4 $)

>  <Rbt.Library>
libRbt.so (2013.1, Build901 2013/11/27)

>  <Rbt.Parameter_File>
/export/apps/rDock/src/rDock_2013.1_src/data/scripts/dock_solv.prm

>  <Rbt.Receptor>
prm/blind_docking_100.prm

>  <SCORE>
-4.0468

>  <SCORE.INTER>
-2.24509

>  <SCORE.INTER.CONST>
1

>  <SCORE.INTER.POLAR>
0

>  <SCORE.INTER.ROT>
5

>  <SCORE.INTER.SOLV>
6.22265

>  <SCORE.INTER.VDW>
-10.5043

>  <SCORE.INTER.norm>
-0.224509

>  <SCORE.INTRA>
-1.80171

>  <SCORE.INTRA.DIHEDRAL>
-2.43665

>  <SCORE.INTRA.DIHEDRAL.0>
5.8785

>  <SCORE.INTRA.POLAR>
0

>  <SCORE.INTRA.POLAR.0>
0

>  <SCORE.INTRA.REPUL>
0

>  <SCORE.INTRA.REPUL.0>
0

>  <SCORE.INTRA.SOLV>
-0.887738

>  <SCORE.INTRA.SOLV.lig_0>
-31.9559

>  <SCORE.INTRA.VDW>
-0.139516

>  <SCORE.INTRA.VDW.0>
-0.507645

>  <SCORE.INTRA.norm>
-0.180171

>  <SCORE.RESTR>
0

>  <SCORE.RESTR.CAVITY>
0

>  <SCORE.RESTR.norm>
0

>  <SCORE.SYSTEM>
0

>  <SCORE.SYSTEM.CONST>
0

>  <SCORE.SYSTEM.DIHEDRAL>
0

>  <SCORE.SYSTEM.SOLV>
0

>  <SCORE.SYSTEM.norm>
0

>  <SCORE.heavy>
10

>  <SCORE.norm>
-0.40468

>  <RMSD>
13.371

$$$$
ligand
 OpenBabel11021811473D
libRbt.so/2013.1/901 2013/11/27
 10  9  0  0  0  0  0  0  0  0999 V2000
   25.8831   14.0336    6.6225 N   0  0  0  0  0  0  0  0  0  0  0  0
   25.5385   14.0440    8.0687 C   0  0  2  0  0  0  0  0  0  0  0  0
   24.7470   15.2972    8.4442 C   0  0  0  0  0  0  0  0  0  0  0  0
   25.0996   16.4078    8.0596 O   0  0  0  0  0  0  0  0  0  0  0  0
   26.8041   13.8832    8.9185 C   0  0  0  0  0  0  0  0  0  0  0  0
   26.5152   13.8465   10.4158 C   0  0  0  0  0  0  0  0  0  0  0  0
   27.7630   13.6015   11.2527 C   0  0  0  0  0  0  0  0  0  0  0  0
   28.7589   14.7520   11.1017 C   0  0  0  0  0  0  0  0  0  0  0  0
   28.2545   16.0818   11.6203 N   0  0  0  0  0  0  0  0  0  0  0  0
   23.7141   15.2629    9.1030 O   0  0  0  0  0  0  0  0  0  0  0  0
  2  1  1  6  0  0  0
  2  3  1  0  0  0  0
  2  5  1  0  0  0  0
  3  4  1  0  0  0  0
  3 10  1  0  0  0  0
  5  6  1  0  0  0  0
  6  7  1  0  0  0  0
  7  8  1  0  0  0  0
  8  9  1  0  0  0  0
M  END
>  <CHROM.1>
-46.06858722,-178.38763138,176.48651234,63.96469267,64.01061459,26.28221049
14.74871140,9.36130662,-2.66981352,-0.65862744,0.79801703

>  <Name>
ligand

>  <RI>
0

>  <Rbt.Current_Directory>
/home/itssahil/PROJECTS/Mol_Feturizer/New_Systems/rnas/3DIM

>  <Rbt.Executable>
rbdock ($Id: //depot/dev/client3/rdock/2013.1/src/exe/rbdock.cxx#4 $)

>  <Rbt.Library>
libRbt.so (2013.1, Build901 2013/11/27)

>  <Rbt.Parameter_File>
/export/apps/rDock/src/rDock_2013.1_src/data/scripts/dock_solv.prm

>  <Rbt.Receptor>
prm/blind_docking_40.prm

>  <SCORE>
-6.72532

>  <SCORE.INTER>
-4.81893

>  <SCORE.INTER.CONST>
1

>  <SCORE.INTER.POLAR>
0

>  <SCORE.INTER.ROT>
5

>  <SCORE.INTER.SOLV>
14.7671

>  <SCORE.INTER.VDW>
-15.0683

>  <SCORE.INTER.norm>
-0.481893

>  <SCORE.INTRA>
-1.9064

>  <SCORE.INTRA.DIHEDRAL>
-4.13932

>  <SCORE.INTRA.DIHEDRAL.0>
5.8785

>  <SCORE.INTRA.POLAR>
0

>  <SCORE.INTRA.POLAR.0>
0

>  <SCORE.INTRA.REPUL>
0

>  <SCORE.INTRA.REPUL.0>
0

>  <SCORE.INTRA.SOLV>
-0.422607

>  <SCORE.INTRA.SOLV.lig_0>
-31.9559

>  <SCORE.INTRA.VDW>
0.374571

>  <SCORE.INTRA.VDW.0>
-0.507645

>  <SCORE.INTRA.norm>
-0.19064

>  <SCORE.RESTR>
0

>  <SCORE.RESTR.CAVITY>
0

>  <SCORE.RESTR.norm>
0

>  <SCORE.SYSTEM>
0

>  <SCORE.SYSTEM.CONST>
0

>  <SCORE.SYSTEM.DIHEDRAL>
0

>  <SCORE.SYSTEM.SOLV>
0

>  <SCORE.SYSTEM.norm>
0

>  <SCORE.heavy>
10

>  <SCORE.norm>
-0.672532

>  <RMSD>
13.386

$$$$
ligand
 OpenBabel11021811473D
libRbt.so/2013.1/901 2013/11/27
 10  9  0  0  0  0  0  0  0  0999 V2000
   25.4634   13.3770    6.9513 N   0  0  0  0  0  0  0  0  0  0  0  0
   25.2782   13.7725    8.3724 C   0  0  2  0  0  0  0  0  0  0  0  0
   24.6750   15.1728    8.4873 C   0  0  0  0  0  0  0  0  0  0  0  0
   23.8350   15.4321    9.3434 O   0  0  0  0  0  0  0  0  0  0  0  0
   26.6016   13.6485    9.1361 C   0  0  0  0  0  0  0  0  0  0  0  0
   26.4750   14.0180   10.6105 C   0  0  0  0  0  0  0  0  0  0  0  0
   27.7806   13.8520   11.3757 C   0  0  0  0  0  0  0  0  0  0  0  0
   28.8422   14.8277   10.8665 C   0  0  0  0  0  0  0  0  0  0  0  0
   28.4564   16.2862   10.9926 N   0  0  0  0  0  0  0  0  0  0  0  0
   25.0169   16.1085    7.7734 O   0  0  0  0  0  0  0  0  0  0  0  0
  2  1  1  6  0  0  0
  2  3  1  0  0  0  0
  2  5  1  0  0  0  0
  3  4  1  0  0  0  0
  3 10  1  0  0  0  0
  5  6  1  0  0  0  0
  6  7  1  0  0  0  0
  7  8  1  0  0  0  0
  8  9  1  0  0  0  0
M  END
>  <CHROM.1>
141.03934341,-179.02154979,178.19781289,64.96157154,59.77174373,26.22072775
14.67960462,9.38792946,-2.85076222,-0.65681556,0.43308400

>  <Name>
ligand

>  <RI>
0

>  <Rbt.Current_Directory>
/home/itssahil/PROJECTS/Mol_Feturizer/New_Systems/rnas/3DIM

>  <Rbt.Executable>
rbdock ($Id: //depot/dev/client3/rdock/2013.1/src/exe/rbdock.cxx#4 $)

>  <Rbt.Library>
libRbt.so (2013.1, Build901 2013/11/27)

>  <Rbt.Parameter_File>
/export/apps/rDock/src/rDock_2013.1_src/data/scripts/dock_solv.prm

>  <Rbt.Receptor>
prm/blind_docking_40.prm

>  <SCORE>
-6.61725

>  <SCORE.INTER>
-4.64664

>  <SCORE.INTER.CONST>
1

>  <SCORE.INTER.POLAR>
0

>  <SCORE.INTER.ROT>
5

>  <SCORE.INTER.SOLV>
16.1796

>  <SCORE.INTER.VDW>
-15.4243

>  <SCORE.INTER.norm>
-0.464664

>  <SCORE.INTRA>
-1.9706

>  <SCORE.INTRA.DIHEDRAL>
-4.3247

>  <SCORE.INTRA.DIHEDRAL.0>
5.8785

>  <SCORE.INTRA.POLAR>
0

>  <SCORE.INTRA.POLAR.0>
0

>  <SCORE.INTRA.REPUL>
0

>  <SCORE.INTRA.REPUL.0>
0

>  <SCORE.INTRA.SOLV>
-0.368362

>  <SCORE.INTRA.SOLV.lig_0>
-31.9559

>  <SCORE.INTRA.VDW>
0.375928

>  <SCORE.INTRA.VDW.0>
-0.507645

>  <SCORE.INTRA.norm>
-0.19706

>  <SCORE.RESTR>
0

>  <SCORE.RESTR.CAVITY>
0

>  <SCORE.RESTR.norm>
0

>  <SCORE.SYSTEM>
0

>  <SCORE.SYSTEM.CONST>
0

>  <SCORE.SYSTEM.DIHEDRAL>
0

>  <SCORE.SYSTEM.SOLV>
0

>  <SCORE.SYSTEM.norm>
0

>  <SCORE.heavy>
10

>  <SCORE.norm>
-0.661725

>  <RMSD>
13.396

$$$$
ligand
 OpenBabel11021811473D
libRbt.so/2013.1/901 2013/11/27
 10  9  0  0  0  0  0  0  0  0999 V2000
   27.0165   14.1300    8.8820 N   0  0  0  0  0  0  0  0  0  0  0  0
   25.5642   13.8120    8.8796 C   0  0  2  0  0  0  0  0  0  0  0  0
   24.7381   14.9825    8.3454 C   0  0  0  0  0  0  0  0  0  0  0  0
   25.2297   16.0998    8.2207 O   0  0  0  0  0  0  0  0  0  0  0  0
   25.1126   13.3761   10.2781 C   0  0  0  0  0  0  0  0  0  0  0  0
   23.7059   12.7865   10.2926 C   0  0  0  0  0  0  0  0  0  0  0  0
   23.2684   12.3352   11.6791 C   0  0  0  0  0  0  0  0  0  0  0  0
   22.8886   13.5327   12.5509 C   0  0  0  0  0  0  0  0  0  0  0  0
   21.6574   14.2774   12.0805 N   0  0  0  0  0  0  0  0  0  0  0  0
   23.5737   14.8672    7.9804 O   0  0  0  0  0  0  0  0  0  0  0  0
  2  1  1  1  0  0  0
  2  3  1  0  0  0  0
  2  5  1  0  0  0  0
  3  4  1  0  0  0  0
  3 10  1  0  0  0  0
  5  6  1  0  0  0  0
  6  7  1  0  0  0  0
  7  8  1  0  0  0  0
  8  9  1  0  0  0  0
M  END
>  <CHROM.1>
-13.90717237,-169.17272558,179.12750933,76.04955066,66.30903086,24.26322519
14.04855297,9.89783819,-0.88566978,-0.40817971,2.30296334

>  <Name>
ligand

>  <RI>
0

>  <Rbt.Current_Directory>
/home/itssahil/PROJECTS/Mol_Feturizer/New_Systems/rnas/3DIM

>  <Rbt.Executable>
rbdock ($Id: //depot/dev/client3/rdock/2013.1/src/exe/rbdock.cxx#4 $)

>  <Rbt.Library>
libRbt.so (2013.1, Build901 2013/11/27)

>  <Rbt.Parameter_File>
/export/apps/rDock/src/rDock_2013.1_src/data/scripts/dock_solv.prm

>  <Rbt.Receptor>
prm/blind_docking_100.prm

>  <SCORE>
-5.83683

>  <SCORE.INTER>
-4.21584

>  <SCORE.INTER.CONST>
1

>  <SCORE.INTER.POLAR>
0

>  <SCORE.INTER.ROT>
5

>  <SCORE.INTER.SOLV>
7.41525

>  <SCORE.INTER.VDW>
-12.2156

>  <SCORE.INTER.norm>
-0.421584

>  <SCORE.INTRA>
-1.62099

>  <SCORE.INTRA.DIHEDRAL>
-2.71564

>  <SCORE.INTRA.DIHEDRAL.0>
5.8785

>  <SCORE.INTRA.POLAR>
0

>  <SCORE.INTRA.POLAR.0>
0

>  <SCORE.INTRA.REPUL>
0

>  <SCORE.INTRA.REPUL.0>
0

>  <SCORE.INTRA.SOLV>
-0.604718

>  <SCORE.INTRA.SOLV.lig_0>
-31.9559

>  <SCORE.INTRA.VDW>
0.0391893

>  <SCORE.INTRA.VDW.0>
-0.507645

>  <SCORE.INTRA.norm>
-0.162099

>  <SCORE.RESTR>
0

>  <SCORE.RESTR.CAVITY>
0

>  <SCORE.RESTR.norm>
0

>  <SCORE.SYSTEM>
0

>  <SCORE.SYSTEM.CONST>
0

>  <SCORE.SYSTEM.DIHEDRAL>
0

>  <SCORE.SYSTEM.SOLV>
0

>  <SCORE.SYSTEM.norm>
0

>  <SCORE.heavy>
10

>  <SCORE.norm>
-0.583683

>  <RMSD>
13.403

$$$$
ligand
 OpenBabel11021811473D
libRbt.so/2013.1/901 2013/11/27
 10  9  0  0  0  0  0  0  0  0999 V2000
   24.1684   15.3275    8.0100 N   0  0  0  0  0  0  0  0  0  0  0  0
   24.4742   13.9422    8.4545 C   0  0  2  0  0  0  0  0  0  0  0  0
   23.6434   13.5529    9.6777 C   0  0  0  0  0  0  0  0  0  0  0  0
   23.5089   12.3777   10.0039 O   0  0  0  0  0  0  0  0  0  0  0  0
   25.9785   13.7828    8.7028 C   0  0  0  0  0  0  0  0  0  0  0  0
   26.4821   14.6267    9.8693 C   0  0  0  0  0  0  0  0  0  0  0  0
   27.9993   14.6177    9.9938 C   0  0  0  0  0  0  0  0  0  0  0  0
   28.4536   15.4149   11.2170 C   0  0  0  0  0  0  0  0  0  0  0  0
   28.0449   14.8064   12.5415 N   0  0  0  0  0  0  0  0  0  0  0  0
   23.1082   14.3758   10.4116 O   0  0  0  0  0  0  0  0  0  0  0  0
  2  1  1  1  0  0  0
  2  3  1  0  0  0  0
  2  5  1  0  0  0  0
  3  4  1  0  0  0  0
  3 10  1  0  0  0  0
  5  6  1  0  0  0  0
  6  7  1  0  0  0  0
  7  8  1  0  0  0  0
  8  9  1  0  0  0  0
M  END
>  <CHROM.1>
162.63229672,65.76400761,-172.06056881,-177.03144414,66.30327798,25.55801914
14.26977477,9.91028742,-2.82719109,0.34954176,1.81948952

>  <Name>
ligand

>  <RI>
0

>  <Rbt.Current_Directory>
/home/itssahil/PROJECTS/Mol_Feturizer/New_Systems/rnas/3DIM

>  <Rbt.Executable>
rbdock ($Id: //depot/dev/client3/rdock/2013.1/src/exe/rbdock.cxx#4 $)

>  <Rbt.Library>
libRbt.so (2013.1, Build901 2013/11/27)

>  <Rbt.Parameter_File>
/export/apps/rDock/src/rDock_2013.1_src/data/scripts/dock_solv.prm

>  <Rbt.Receptor>
prm/blind_docking_60.prm

>  <SCORE>
-5.6178

>  <SCORE.INTER>
-3.43641

>  <SCORE.INTER.CONST>
1

>  <SCORE.INTER.POLAR>
0

>  <SCORE.INTER.ROT>
5

>  <SCORE.INTER.SOLV>
14.3639

>  <SCORE.INTER.VDW>
-14.0122

>  <SCORE.INTER.norm>
-0.343641

>  <SCORE.INTRA>
-2.18139

>  <SCORE.INTRA.DIHEDRAL>
-3.87952

>  <SCORE.INTRA.DIHEDRAL.0>
5.8785

>  <SCORE.INTRA.POLAR>
0

>  <SCORE.INTRA.POLAR.0>
0

>  <SCORE.INTRA.REPUL>
0

>  <SCORE.INTRA.REPUL.0>
0

>  <SCORE.INTRA.SOLV>
-0.135529

>  <SCORE.INTRA.SOLV.lig_0>
-31.9559

>  <SCORE.INTRA.VDW>
-0.173869

>  <SCORE.INTRA.VDW.0>
-0.507645

>  <SCORE.INTRA.norm>
-0.218139

>  <SCORE.RESTR>
0

>  <SCORE.RESTR.CAVITY>
0

>  <SCORE.RESTR.norm>
0

>  <SCORE.SYSTEM>
0

>  <SCORE.SYSTEM.CONST>
0

>  <SCORE.SYSTEM.DIHEDRAL>
0

>  <SCORE.SYSTEM.SOLV>
0

>  <SCORE.SYSTEM.norm>
0

>  <SCORE.heavy>
10

>  <SCORE.norm>
-0.56178

>  <RMSD>
13.409

$$$$
ligand
 OpenBabel11021811473D
libRbt.so/2013.1/901 2013/11/27
 10  9  0  0  0  0  0  0  0  0999 V2000
   26.7043   14.1139    9.2766 N   0  0  0  0  0  0  0  0  0  0  0  0
   25.3288   14.0018    8.7238 C   0  0  2  0  0  0  0  0  0  0  0  0
   24.7937   15.3636    8.2797 C   0  0  0  0  0  0  0  0  0  0  0  0
   25.4103   16.3962    8.5229 O   0  0  0  0  0  0  0  0  0  0  0  0
   24.4024   13.3187    9.7363 C   0  0  0  0  0  0  0  0  0  0  0  0
   24.3094   14.0709   11.0600 C   0  0  0  0  0  0  0  0  0  0  0  0
   23.3042   13.4527   12.0217 C   0  0  0  0  0  0  0  0  0  0  0  0
   21.8709   13.6957   11.5475 C   0  0  0  0  0  0  0  0  0  0  0  0
   20.8080   13.1800   12.4940 N   0  0  0  0  0  0  0  0  0  0  0  0
   23.7607   15.4975    7.6338 O   0  0  0  0  0  0  0  0  0  0  0  0
  2  1  1  1  0  0  0
  2  3  1  0  0  0  0
  2  5  1  0  0  0  0
  3  4  1  0  0  0  0
  3 10  1  0  0  0  0
  5  6  1  0  0  0  0
  6  7  1  0  0  0  0
  7  8  1  0  0  0  0
  8  9  1  0  0  0  0
M  END
>  <CHROM.1>
-7.76462073,59.44513230,175.37813224,-71.51033310,-176.62825266,24.06445887
14.34219255,9.90979039,-0.85702461,-0.20677450,2.21685556

>  <Name>
ligand

>  <RI>
0

>  <Rbt.Current_Directory>
/home/itssahil/PROJECTS/Mol_Feturizer/New_Systems/rnas/3DIM

>  <Rbt.Executable>
rbdock ($Id: //depot/dev/client3/rdock/2013.1/src/exe/rbdock.cxx#4 $)

>  <Rbt.Library>
libRbt.so (2013.1, Build901 2013/11/27)

>  <Rbt.Parameter_File>
/export/apps/rDock/src/rDock_2013.1_src/data/scripts/dock_solv.prm

>  <Rbt.Receptor>
prm/blind_docking_60.prm

>  <SCORE>
-6.18868

>  <SCORE.INTER>
-4.19857

>  <SCORE.INTER.CONST>
1

>  <SCORE.INTER.POLAR>
0

>  <SCORE.INTER.ROT>
5

>  <SCORE.INTER.SOLV>
5.0023

>  <SCORE.INTER.VDW>
-11.3998

>  <SCORE.INTER.norm>
-0.419857

>  <SCORE.INTRA>
-1.9901

>  <SCORE.INTRA.DIHEDRAL>
-3.65927

>  <SCORE.INTRA.DIHEDRAL.0>
5.8785

>  <SCORE.INTRA.POLAR>
0

>  <SCORE.INTRA.POLAR.0>
0

>  <SCORE.INTRA.REPUL>
0

>  <SCORE.INTRA.REPUL.0>
0

>  <SCORE.INTRA.SOLV>
-0.793199

>  <SCORE.INTRA.SOLV.lig_0>
-31.9559

>  <SCORE.INTRA.VDW>
0.236135

>  <SCORE.INTRA.VDW.0>
-0.507645

>  <SCORE.INTRA.norm>
-0.19901

>  <SCORE.RESTR>
0

>  <SCORE.RESTR.CAVITY>
0

>  <SCORE.RESTR.norm>
0

>  <SCORE.SYSTEM>
0

>  <SCORE.SYSTEM.CONST>
0

>  <SCORE.SYSTEM.DIHEDRAL>
0

>  <SCORE.SYSTEM.SOLV>
0

>  <SCORE.SYSTEM.norm>
0

>  <SCORE.heavy>
10

>  <SCORE.norm>
-0.618868

>  <RMSD>
13.433

$$$$
ligand
 OpenBabel11021811473D
libRbt.so/2013.1/901 2013/11/27
 10  9  0  0  0  0  0  0  0  0999 V2000
   25.8014   13.3765    6.9397 N   0  0  0  0  0  0  0  0  0  0  0  0
   25.4312   13.7873    8.3197 C   0  0  2  0  0  0  0  0  0  0  0  0
   24.7076   15.1343    8.3252 C   0  0  0  0  0  0  0  0  0  0  0  0
   23.8145   15.3700    9.1330 O   0  0  0  0  0  0  0  0  0  0  0  0
   26.6692   13.7923    9.2236 C   0  0  0  0  0  0  0  0  0  0  0  0
   26.3562   14.2001   10.6597 C   0  0  0  0  0  0  0  0  0  0  0  0
   27.6023   14.3143   11.5267 C   0  0  0  0  0  0  0  0  0  0  0  0
   28.4704   15.4936   11.0861 C   0  0  0  0  0  0  0  0  0  0  0  0
   29.1293   15.3091    9.7358 N   0  0  0  0  0  0  0  0  0  0  0  0
   24.9980   16.0521    7.5667 O   0  0  0  0  0  0  0  0  0  0  0  0
  2  1  1  6  0  0  0
  2  3  1  0  0  0  0
  2  5  1  0  0  0  0
  3  4  1  0  0  0  0
  3 10  1  0  0  0  0
  5  6  1  0  0  0  0
  6  7  1  0  0  0  0
  7  8  1  0  0  0  0
  8  9  1  0  0  0  0
M  END
>  <CHROM.1>
145.48743142,-179.73284317,-175.31512781,68.11019167,-68.80337727,26.27371165
14.71173737,9.24655022,-2.50870753,-0.28844064,1.18899580

>  <Name>
ligand

>  <RI>
0

>  <Rbt.Current_Directory>
/home/itssahil/PROJECTS/Mol_Feturizer/New_Systems/rnas/3DIM

>  <Rbt.Executable>
rbdock ($Id: //depot/dev/client3/rdock/2013.1/src/exe/rbdock.cxx#4 $)

>  <Rbt.Library>
libRbt.so (2013.1, Build901 2013/11/27)

>  <Rbt.Parameter_File>
/export/apps/rDock/src/rDock_2013.1_src/data/scripts/dock_solv.prm

>  <Rbt.Receptor>
prm/blind_docking_40.prm

>  <SCORE>
-7.62631

>  <SCORE.INTER>
-6.37946

>  <SCORE.INTER.CONST>
1

>  <SCORE.INTER.POLAR>
0

>  <SCORE.INTER.ROT>
5

>  <SCORE.INTER.SOLV>
12.6228

>  <SCORE.INTER.VDW>
-15.3939

>  <SCORE.INTER.norm>
-0.637946

>  <SCORE.INTRA>
-1.24685

>  <SCORE.INTRA.DIHEDRAL>
-3.79992

>  <SCORE.INTRA.DIHEDRAL.0>
5.8785

>  <SCORE.INTRA.POLAR>
0

>  <SCORE.INTRA.POLAR.0>
0

>  <SCORE.INTRA.REPUL>
0

>  <SCORE.INTRA.REPUL.0>
0

>  <SCORE.INTRA.SOLV>
0.450675

>  <SCORE.INTRA.SOLV.lig_0>
-31.9559

>  <SCORE.INTRA.VDW>
0.42777

>  <SCORE.INTRA.VDW.0>
-0.507645

>  <SCORE.INTRA.norm>
-0.124685

>  <SCORE.RESTR>
0

>  <SCORE.RESTR.CAVITY>
0

>  <SCORE.RESTR.norm>
0

>  <SCORE.SYSTEM>
0

>  <SCORE.SYSTEM.CONST>
0

>  <SCORE.SYSTEM.DIHEDRAL>
0

>  <SCORE.SYSTEM.SOLV>
0

>  <SCORE.SYSTEM.norm>
0

>  <SCORE.heavy>
10

>  <SCORE.norm>
-0.762631

>  <RMSD>
13.474

$$$$
ligand
 OpenBabel11021811473D
libRbt.so/2013.1/901 2013/11/27
 10  9  0  0  0  0  0  0  0  0999 V2000
   25.8449   14.0857   10.0765 N   0  0  0  0  0  0  0  0  0  0  0  0
   24.8073   14.1188    9.0123 C   0  0  2  0  0  0  0  0  0  0  0  0
   25.2521   14.9752    7.8263 C   0  0  0  0  0  0  0  0  0  0  0  0
   25.8252   14.4749    6.8636 O   0  0  0  0  0  0  0  0  0  0  0  0
   23.4662   14.5843    9.5910 C   0  0  0  0  0  0  0  0  0  0  0  0
   22.8418   13.5663   10.5399 C   0  0  0  0  0  0  0  0  0  0  0  0
   23.5257   13.5285   11.8994 C   0  0  0  0  0  0  0  0  0  0  0  0
   22.8850   12.4770   12.8062 C   0  0  0  0  0  0  0  0  0  0  0  0
   21.4229   12.7264   13.1092 N   0  0  0  0  0  0  0  0  0  0  0  0
   25.0314   16.1785    7.7507 O   0  0  0  0  0  0  0  0  0  0  0  0
  2  1  1  1  0  0  0
  2  3  1  0  0  0  0
  2  5  1  0  0  0  0
  3  4  1  0  0  0  0
  3 10  1  0  0  0  0
  5  6  1  0  0  0  0
  6  7  1  0  0  0  0
  7  8  1  0  0  0  0
  8  9  1  0  0  0  0
M  END
>  <CHROM.1>
92.75626797,-68.96312110,75.32134578,-178.90012790,-61.50380958,24.10607300
14.09358218,9.91022081,-1.03864088,-0.25589398,2.13943100

>  <Name>
ligand

>  <RI>
0

>  <Rbt.Current_Directory>
/home/itssahil/PROJECTS/Mol_Feturizer/New_Systems/rnas/3DIM

>  <Rbt.Executable>
rbdock ($Id: //depot/dev/client3/rdock/2013.1/src/exe/rbdock.cxx#4 $)

>  <Rbt.Library>
libRbt.so (2013.1, Build901 2013/11/27)

>  <Rbt.Parameter_File>
/export/apps/rDock/src/rDock_2013.1_src/data/scripts/dock_solv.prm

>  <Rbt.Receptor>
prm/blind_docking_100.prm

>  <SCORE>
-5.9586

>  <SCORE.INTER>
-5.18029

>  <SCORE.INTER.CONST>
1

>  <SCORE.INTER.POLAR>
0

>  <SCORE.INTER.ROT>
5

>  <SCORE.INTER.SOLV>
5.86734

>  <SCORE.INTER.VDW>
-12.3426

>  <SCORE.INTER.norm>
-0.518029

>  <SCORE.INTRA>
-0.778313

>  <SCORE.INTRA.DIHEDRAL>
-3.01257

>  <SCORE.INTRA.DIHEDRAL.0>
5.8785

>  <SCORE.INTRA.POLAR>
0

>  <SCORE.INTRA.POLAR.0>
0

>  <SCORE.INTRA.REPUL>
0

>  <SCORE.INTRA.REPUL.0>
0

>  <SCORE.INTRA.SOLV>
1.1587

>  <SCORE.INTRA.SOLV.lig_0>
-31.9559

>  <SCORE.INTRA.VDW>
0.14862

>  <SCORE.INTRA.VDW.0>
-0.507645

>  <SCORE.INTRA.norm>
-0.0778313

>  <SCORE.RESTR>
0

>  <SCORE.RESTR.CAVITY>
0

>  <SCORE.RESTR.norm>
0

>  <SCORE.SYSTEM>
0

>  <SCORE.SYSTEM.CONST>
0

>  <SCORE.SYSTEM.DIHEDRAL>
0

>  <SCORE.SYSTEM.SOLV>
0

>  <SCORE.SYSTEM.norm>
0

>  <SCORE.heavy>
10

>  <SCORE.norm>
-0.59586

>  <RMSD>
13.504

$$$$
ligand
 OpenBabel11021811473D
libRbt.so/2013.1/901 2013/11/27
 10  9  0  0  0  0  0  0  0  0999 V2000
   26.9389   13.9089    8.6453 N   0  0  0  0  0  0  0  0  0  0  0  0
   25.4640   13.7629    8.7621 C   0  0  2  0  0  0  0  0  0  0  0  0
   24.7393   15.0193    8.2781 C   0  0  0  0  0  0  0  0  0  0  0  0
   25.3176   16.0998    8.2165 O   0  0  0  0  0  0  0  0  0  0  0  0
   25.0782   13.3899   10.1981 C   0  0  0  0  0  0  0  0  0  0  0  0
   23.5850   13.1272   10.3642 C   0  0  0  0  0  0  0  0  0  0  0  0
   23.1838   12.8925   11.8139 C   0  0  0  0  0  0  0  0  0  0  0  0
   21.6684   12.7356   11.9447 C   0  0  0  0  0  0  0  0  0  0  0  0
   21.1873   12.5140   13.3629 N   0  0  0  0  0  0  0  0  0  0  0  0
   23.5756   15.0133    7.8934 O   0  0  0  0  0  0  0  0  0  0  0  0
  2  1  1  1  0  0  0
  2  3  1  0  0  0  0
  2  5  1  0  0  0  0
  3  4  1  0  0  0  0
  3 10  1  0  0  0  0
  5  6  1  0  0  0  0
  6  7  1  0  0  0  0
  7  8  1  0  0  0  0
  8  9  1  0  0  0  0
M  END
>  <CHROM.1>
-20.69227614,-175.90233507,-174.31835537,175.85331177,-179.34408501,24.06479016
13.87815418,9.92701782,-0.89646628,-0.26776389,2.27364217

>  <Name>
ligand

>  <RI>
0

>  <Rbt.Current_Directory>
/home/itssahil/PROJECTS/Mol_Feturizer/New_Systems/rnas/3DIM

>  <Rbt.Executable>
rbdock ($Id: //depot/dev/client3/rdock/2013.1/src/exe/rbdock.cxx#4 $)

>  <Rbt.Library>
libRbt.so (2013.1, Build901 2013/11/27)

>  <Rbt.Parameter_File>
/export/apps/rDock/src/rDock_2013.1_src/data/scripts/dock_solv.prm

>  <Rbt.Receptor>
prm/blind_docking_100.prm

>  <SCORE>
-7.18043

>  <SCORE.INTER>
-4.01567

>  <SCORE.INTER.CONST>
1

>  <SCORE.INTER.POLAR>
0

>  <SCORE.INTER.ROT>
5

>  <SCORE.INTER.SOLV>
5.5556

>  <SCORE.INTER.VDW>
-11.4623

>  <SCORE.INTER.norm>
-0.401567

>  <SCORE.INTRA>
-3.16477

>  <SCORE.INTRA.DIHEDRAL>
-4.03203

>  <SCORE.INTRA.DIHEDRAL.0>
5.8785

>  <SCORE.INTRA.POLAR>
0

>  <SCORE.INTRA.POLAR.0>
0

>  <SCORE.INTRA.REPUL>
0

>  <SCORE.INTRA.REPUL.0>
0

>  <SCORE.INTRA.SOLV>
-1.84993

>  <SCORE.INTRA.SOLV.lig_0>
-31.9559

>  <SCORE.INTRA.VDW>
-0.223785

>  <SCORE.INTRA.VDW.0>
-0.507645

>  <SCORE.INTRA.norm>
-0.316477

>  <SCORE.RESTR>
0

>  <SCORE.RESTR.CAVITY>
0

>  <SCORE.RESTR.norm>
0

>  <SCORE.SYSTEM>
0

>  <SCORE.SYSTEM.CONST>
0

>  <SCORE.SYSTEM.DIHEDRAL>
0

>  <SCORE.SYSTEM.SOLV>
0

>  <SCORE.SYSTEM.norm>
0

>  <SCORE.heavy>
10

>  <SCORE.norm>
-0.718043

>  <RMSD>
13.506

$$$$
ligand
 OpenBabel11021811473D
libRbt.so/2013.1/901 2013/11/27
 10  9  0  0  0  0  0  0  0  0999 V2000
   21.5278   13.6265   11.6760 N   0  0  0  0  0  0  0  0  0  0  0  0
   22.6855   12.6991   11.5752 C   0  0  2  0  0  0  0  0  0  0  0  0
   22.8813   11.9091   12.8696 C   0  0  0  0  0  0  0  0  0  0  0  0
   22.7276   12.4402   13.9650 O   0  0  0  0  0  0  0  0  0  0  0  0
   23.9487   13.4670   11.1697 C   0  0  0  0  0  0  0  0  0  0  0  0
   23.9583   13.8617    9.6964 C   0  0  0  0  0  0  0  0  0  0  0  0
   25.1116   14.7896    9.3406 C   0  0  0  0  0  0  0  0  0  0  0  0
   25.1817   15.0227    7.8309 C   0  0  0  0  0  0  0  0  0  0  0  0
   25.6083   13.8081    7.0343 N   0  0  0  0  0  0  0  0  0  0  0  0
   23.1577   10.7151   12.8886 O   0  0  0  0  0  0  0  0  0  0  0  0
  2  1  1  1  0  0  0
  2  3  1  0  0  0  0
  2  5  1  0  0  0  0
  3  4  1  0  0  0  0
  3 10  1  0  0  0  0
  5  6  1  0  0  0  0
  6  7  1  0  0  0  0
  7  8  1  0  0  0  0
  8  9  1  0  0  0  0
M  END
>  <CHROM.1>
-39.40854788,-74.79000599,171.84872327,173.14685548,-69.40418076,23.67677463
13.21020863,10.84335954,2.18591391,-0.77838749,2.48646760

>  <Name>
ligand

>  <RI>
0

>  <Rbt.Current_Directory>
/home/itssahil/PROJECTS/Mol_Feturizer/New_Systems/rnas/3DIM

>  <Rbt.Executable>
rbdock ($Id: //depot/dev/client3/rdock/2013.1/src/exe/rbdock.cxx#4 $)

>  <Rbt.Library>
libRbt.so (2013.1, Build901 2013/11/27)

>  <Rbt.Parameter_File>
/export/apps/rDock/src/rDock_2013.1_src/data/scripts/dock_solv.prm

>  <Rbt.Receptor>
prm/blind_docking_40.prm

>  <SCORE>
-4.84943

>  <SCORE.INTER>
-2.98133

>  <SCORE.INTER.CONST>
1

>  <SCORE.INTER.POLAR>
0

>  <SCORE.INTER.ROT>
5

>  <SCORE.INTER.SOLV>
9.03741

>  <SCORE.INTER.VDW>
-11.9334

>  <SCORE.INTER.norm>
-0.298133

>  <SCORE.INTRA>
-1.86809

>  <SCORE.INTRA.DIHEDRAL>
-2.65577

>  <SCORE.INTRA.DIHEDRAL.0>
5.8785

>  <SCORE.INTRA.POLAR>
0

>  <SCORE.INTRA.POLAR.0>
0

>  <SCORE.INTRA.REPUL>
0

>  <SCORE.INTRA.REPUL.0>
0

>  <SCORE.INTRA.SOLV>
-0.255988

>  <SCORE.INTRA.SOLV.lig_0>
-31.9559

>  <SCORE.INTRA.VDW>
-0.412212

>  <SCORE.INTRA.VDW.0>
-0.507645

>  <SCORE.INTRA.norm>
-0.186809

>  <SCORE.RESTR>
0

>  <SCORE.RESTR.CAVITY>
0

>  <SCORE.RESTR.norm>
0

>  <SCORE.SYSTEM>
0

>  <SCORE.SYSTEM.CONST>
0

>  <SCORE.SYSTEM.DIHEDRAL>
0

>  <SCORE.SYSTEM.SOLV>
0

>  <SCORE.SYSTEM.norm>
0

>  <SCORE.heavy>
10

>  <SCORE.norm>
-0.484943

>  <RMSD>
13.517

$$$$
ligand
 OpenBabel11021811473D
libRbt.so/2013.1/901 2013/11/27
 10  9  0  0  0  0  0  0  0  0999 V2000
   26.7189   13.7360    7.9816 N   0  0  0  0  0  0  0  0  0  0  0  0
   25.4048   13.9125    8.6542 C   0  0  2  0  0  0  0  0  0  0  0  0
   24.7444   15.2311    8.2503 C   0  0  0  0  0  0  0  0  0  0  0  0
   23.5986   15.2573    7.8119 O   0  0  0  0  0  0  0  0  0  0  0  0
   25.5636   13.7870   10.1737 C   0  0  0  0  0  0  0  0  0  0  0  0
   24.2556   14.0007   10.9286 C   0  0  0  0  0  0  0  0  0  0  0  0
   23.2094   12.9417   10.6101 C   0  0  0  0  0  0  0  0  0  0  0  0
   21.8996   13.2263   11.3461 C   0  0  0  0  0  0  0  0  0  0  0  0
   22.0033   13.1400   12.8539 N   0  0  0  0  0  0  0  0  0  0  0  0
   25.2936   16.3197    8.3758 O   0  0  0  0  0  0  0  0  0  0  0  0
  2  1  1  6  0  0  0
  2  3  1  0  0  0  0
  2  5  1  0  0  0  0
  3  4  1  0  0  0  0
  3 10  1  0  0  0  0
  5  6  1  0  0  0  0
  6  7  1  0  0  0  0
  7  8  1  0  0  0  0
  8  9  1  0  0  0  0
M  END
>  <CHROM.1>
126.82656062,178.24894188,63.90827473,-177.79703612,-64.77862599,24.25920837
14.18746381,9.68170213,-0.88230435,-0.35008794,2.29552090

>  <Name>
ligand

>  <RI>
0

>  <Rbt.Current_Directory>
/home/itssahil/PROJECTS/Mol_Feturizer/New_Systems/rnas/3DIM

>  <Rbt.Executable>
rbdock ($Id: //depot/dev/client3/rdock/2013.1/src/exe/rbdock.cxx#4 $)

>  <Rbt.Library>
libRbt.so (2013.1, Build901 2013/11/27)

>  <Rbt.Parameter_File>
/export/apps/rDock/src/rDock_2013.1_src/data/scripts/dock_solv.prm

>  <Rbt.Receptor>
prm/blind_docking_40.prm

>  <SCORE>
-7.41489

>  <SCORE.INTER>
-4.83034

>  <SCORE.INTER.CONST>
1

>  <SCORE.INTER.POLAR>
0

>  <SCORE.INTER.ROT>
5

>  <SCORE.INTER.SOLV>
5.60727

>  <SCORE.INTER.VDW>
-12.0226

>  <SCORE.INTER.norm>
-0.483034

>  <SCORE.INTRA>
-2.58455

>  <SCORE.INTRA.DIHEDRAL>
-4.20792

>  <SCORE.INTRA.DIHEDRAL.0>
5.8785

>  <SCORE.INTRA.POLAR>
0

>  <SCORE.INTRA.POLAR.0>
0

>  <SCORE.INTRA.REPUL>
0

>  <SCORE.INTRA.REPUL.0>
0

>  <SCORE.INTRA.SOLV>
-0.830724

>  <SCORE.INTRA.SOLV.lig_0>
-31.9559

>  <SCORE.INTRA.VDW>
-0.0652322

>  <SCORE.INTRA.VDW.0>
-0.507645

>  <SCORE.INTRA.norm>
-0.258455

>  <SCORE.RESTR>
0

>  <SCORE.RESTR.CAVITY>
0

>  <SCORE.RESTR.norm>
0

>  <SCORE.SYSTEM>
0

>  <SCORE.SYSTEM.CONST>
0

>  <SCORE.SYSTEM.DIHEDRAL>
0

>  <SCORE.SYSTEM.SOLV>
0

>  <SCORE.SYSTEM.norm>
0

>  <SCORE.heavy>
10

>  <SCORE.norm>
-0.741489

>  <RMSD>
13.553

$$$$
ligand
 OpenBabel11021811473D
libRbt.so/2013.1/901 2013/11/27
 10  9  0  0  0  0  0  0  0  0999 V2000
   26.3243   13.7744    6.9481 N   0  0  0  0  0  0  0  0  0  0  0  0
   25.2556   13.7150    7.9799 C   0  0  2  0  0  0  0  0  0  0  0  0
   24.5067   15.0441    8.0841 C   0  0  0  0  0  0  0  0  0  0  0  0
   23.3964   15.1063    8.6026 O   0  0  0  0  0  0  0  0  0  0  0  0
   25.8401   13.2736    9.3266 C   0  0  0  0  0  0  0  0  0  0  0  0
   26.9453   14.1978    9.8275 C   0  0  0  0  0  0  0  0  0  0  0  0
   27.5370   13.7461   11.1554 C   0  0  0  0  0  0  0  0  0  0  0  0
   28.7217   14.6263   11.5554 C   0  0  0  0  0  0  0  0  0  0  0  0
   28.3926   16.1002   11.6600 N   0  0  0  0  0  0  0  0  0  0  0  0
   24.9780   16.1086    7.7008 O   0  0  0  0  0  0  0  0  0  0  0  0
  2  1  1  6  0  0  0
  2  3  1  0  0  0  0
  2  5  1  0  0  0  0
  3  4  1  0  0  0  0
  3 10  1  0  0  0  0
  5  6  1  0  0  0  0
  6  7  1  0  0  0  0
  7  8  1  0  0  0  0
  8  9  1  0  0  0  0
M  END
>  <CHROM.1>
160.87464557,58.38958228,-179.20019575,174.87867448,57.28992412,26.16416452
14.59747938,9.27883262,-2.77556187,-0.69275618,0.54525798

>  <Name>
ligand

>  <RI>
0

>  <Rbt.Current_Directory>
/home/itssahil/PROJECTS/Mol_Feturizer/New_Systems/rnas/3DIM

>  <Rbt.Executable>
rbdock ($Id: //depot/dev/client3/rdock/2013.1/src/exe/rbdock.cxx#4 $)

>  <Rbt.Library>
libRbt.so (2013.1, Build901 2013/11/27)

>  <Rbt.Parameter_File>
/export/apps/rDock/src/rDock_2013.1_src/data/scripts/dock_solv.prm

>  <Rbt.Receptor>
prm/blind_docking_40.prm

>  <SCORE>
-6.86313

>  <SCORE.INTER>
-4.60765

>  <SCORE.INTER.CONST>
1

>  <SCORE.INTER.POLAR>
0

>  <SCORE.INTER.ROT>
5

>  <SCORE.INTER.SOLV>
14.1656

>  <SCORE.INTER.VDW>
-14.727

>  <SCORE.INTER.norm>
-0.460765

>  <SCORE.INTRA>
-2.25548

>  <SCORE.INTRA.DIHEDRAL>
-4.29264

>  <SCORE.INTRA.DIHEDRAL.0>
5.8785

>  <SCORE.INTRA.POLAR>
0

>  <SCORE.INTRA.POLAR.0>
0

>  <SCORE.INTRA.REPUL>
0

>  <SCORE.INTRA.REPUL.0>
0

>  <SCORE.INTRA.SOLV>
0.00804746

>  <SCORE.INTRA.SOLV.lig_0>
-31.9559

>  <SCORE.INTRA.VDW>
-0.113187

>  <SCORE.INTRA.VDW.0>
-0.507645

>  <SCORE.INTRA.norm>
-0.225548

>  <SCORE.RESTR>
0

>  <SCORE.RESTR.CAVITY>
0

>  <SCORE.RESTR.norm>
0

>  <SCORE.SYSTEM>
0

>  <SCORE.SYSTEM.CONST>
0

>  <SCORE.SYSTEM.DIHEDRAL>
0

>  <SCORE.SYSTEM.SOLV>
0

>  <SCORE.SYSTEM.norm>
0

>  <SCORE.heavy>
10

>  <SCORE.norm>
-0.686313

>  <RMSD>
13.558

$$$$
ligand
 OpenBabel11021811473D
libRbt.so/2013.1/901 2013/11/27
 10  9  0  0  0  0  0  0  0  0999 V2000
   26.9386   13.9211    8.2160 N   0  0  0  0  0  0  0  0  0  0  0  0
   25.4728   13.9470    8.4626 C   0  0  2  0  0  0  0  0  0  0  0  0
   24.8857   15.3319    8.1881 C   0  0  0  0  0  0  0  0  0  0  0  0
   23.7914   15.4600    7.6478 O   0  0  0  0  0  0  0  0  0  0  0  0
   25.1633   13.4589    9.8824 C   0  0  0  0  0  0  0  0  0  0  0  0
   23.6677   13.3542   10.1632 C   0  0  0  0  0  0  0  0  0  0  0  0
   23.3637   12.8618   11.5713 C   0  0  0  0  0  0  0  0  0  0  0  0
   21.8581   12.8601   11.8382 C   0  0  0  0  0  0  0  0  0  0  0  0
   21.4753   12.4121   13.2327 N   0  0  0  0  0  0  0  0  0  0  0  0
   25.4425   16.3719    8.5206 O   0  0  0  0  0  0  0  0  0  0  0  0
  2  1  1  1  0  0  0
  2  3  1  0  0  0  0
  2  5  1  0  0  0  0
  3  4  1  0  0  0  0
  3 10  1  0  0  0  0
  5  6  1  0  0  0  0
  6  7  1  0  0  0  0
  7  8  1  0  0  0  0
  8  9  1  0  0  0  0
M  END
>  <CHROM.1>
141.00392375,-175.37594249,179.68006303,176.27519605,-178.66010020,24.19864321
14.03305816,9.75680848,-0.90042719,-0.39446989,2.40152567

>  <Name>
ligand

>  <RI>
0

>  <Rbt.Current_Directory>
/home/itssahil/PROJECTS/Mol_Feturizer/New_Systems/rnas/3DIM

>  <Rbt.Executable>
rbdock ($Id: //depot/dev/client3/rdock/2013.1/src/exe/rbdock.cxx#4 $)

>  <Rbt.Library>
libRbt.so (2013.1, Build901 2013/11/27)

>  <Rbt.Parameter_File>
/export/apps/rDock/src/rDock_2013.1_src/data/scripts/dock_solv.prm

>  <Rbt.Receptor>
prm/blind_docking_40.prm

>  <SCORE>
-7.90329

>  <SCORE.INTER>
-4.44524

>  <SCORE.INTER.CONST>
1

>  <SCORE.INTER.POLAR>
0

>  <SCORE.INTER.ROT>
5

>  <SCORE.INTER.SOLV>
5.74959

>  <SCORE.INTER.VDW>
-11.8134

>  <SCORE.INTER.norm>
-0.444524

>  <SCORE.INTRA>
-3.45805

>  <SCORE.INTRA.DIHEDRAL>
-4.30424

>  <SCORE.INTRA.DIHEDRAL.0>
5.8785

>  <SCORE.INTRA.POLAR>
0

>  <SCORE.INTRA.POLAR.0>
0

>  <SCORE.INTRA.REPUL>
0

>  <SCORE.INTRA.REPUL.0>
0

>  <SCORE.INTRA.SOLV>
-1.88151

>  <SCORE.INTRA.SOLV.lig_0>
-31.9559

>  <SCORE.INTRA.VDW>
-0.365172

>  <SCORE.INTRA.VDW.0>
-0.507645

>  <SCORE.INTRA.norm>
-0.345805

>  <SCORE.RESTR>
0

>  <SCORE.RESTR.CAVITY>
0

>  <SCORE.RESTR.norm>
0

>  <SCORE.SYSTEM>
0

>  <SCORE.SYSTEM.CONST>
0

>  <SCORE.SYSTEM.DIHEDRAL>
0

>  <SCORE.SYSTEM.SOLV>
0

>  <SCORE.SYSTEM.norm>
0

>  <SCORE.heavy>
10

>  <SCORE.norm>
-0.790329

>  <RMSD>
13.561

$$$$
ligand
 OpenBabel11021811473D
libRbt.so/2013.1/901 2013/11/27
 10  9  0  0  0  0  0  0  0  0999 V2000
   24.1318   14.0065   10.9464 N   0  0  0  0  0  0  0  0  0  0  0  0
   25.3786   13.5410   10.2835 C   0  0  2  0  0  0  0  0  0  0  0  0
   26.6212   14.0966   10.9801 C   0  0  0  0  0  0  0  0  0  0  0  0
   26.5329   14.7061   12.0414 O   0  0  0  0  0  0  0  0  0  0  0  0
   25.3489   13.8878    8.7906 C   0  0  0  0  0  0  0  0  0  0  0  0
   26.4221   13.1587    7.9887 C   0  0  0  0  0  0  0  0  0  0  0  0
   26.2991   13.3905    6.4891 C   0  0  0  0  0  0  0  0  0  0  0  0
   27.3357   12.5699    5.7208 C   0  0  0  0  0  0  0  0  0  0  0  0
   28.7694   12.9802    5.9812 N   0  0  0  0  0  0  0  0  0  0  0  0
   27.7573   13.9345   10.5498 O   0  0  0  0  0  0  0  0  0  0  0  0
  2  1  1  1  0  0  0
  2  3  1  0  0  0  0
  2  5  1  0  0  0  0
  3  4  1  0  0  0  0
  3 10  1  0  0  0  0
  5  6  1  0  0  0  0
  6  7  1  0  0  0  0
  7  8  1  0  0  0  0
  8  9  1  0  0  0  0
M  END
>  <CHROM.1>
8.10776251,-166.23125838,173.98069980,-176.28215013,-65.60252215,26.48428250
13.64052039,9.00417876,1.87118964,0.01583984,1.32189879

>  <Name>
ligand

>  <RI>
0

>  <Rbt.Current_Directory>
/home/itssahil/PROJECTS/Mol_Feturizer/New_Systems/rnas/3DIM

>  <Rbt.Executable>
rbdock ($Id: //depot/dev/client3/rdock/2013.1/src/exe/rbdock.cxx#4 $)

>  <Rbt.Library>
libRbt.so (2013.1, Build901 2013/11/27)

>  <Rbt.Parameter_File>
/export/apps/rDock/src/rDock_2013.1_src/data/scripts/dock_solv.prm

>  <Rbt.Receptor>
prm/blind_docking_40.prm

>  <SCORE>
-5.43132

>  <SCORE.INTER>
-3.22311

>  <SCORE.INTER.CONST>
1

>  <SCORE.INTER.POLAR>
0

>  <SCORE.INTER.ROT>
5

>  <SCORE.INTER.SOLV>
6.6557

>  <SCORE.INTER.VDW>
-11.3006

>  <SCORE.INTER.norm>
-0.322311

>  <SCORE.INTRA>
-2.20821

>  <SCORE.INTRA.DIHEDRAL>
-3.38744

>  <SCORE.INTRA.DIHEDRAL.0>
5.8785

>  <SCORE.INTRA.POLAR>
0

>  <SCORE.INTRA.POLAR.0>
0

>  <SCORE.INTRA.REPUL>
0

>  <SCORE.INTRA.REPUL.0>
0

>  <SCORE.INTRA.SOLV>
-1.0132

>  <SCORE.INTRA.SOLV.lig_0>
-31.9559

>  <SCORE.INTRA.VDW>
-0.00789095

>  <SCORE.INTRA.VDW.0>
-0.507645

>  <SCORE.INTRA.norm>
-0.220821

>  <SCORE.RESTR>
0

>  <SCORE.RESTR.CAVITY>
0

>  <SCORE.RESTR.norm>
0

>  <SCORE.SYSTEM>
0

>  <SCORE.SYSTEM.CONST>
0

>  <SCORE.SYSTEM.DIHEDRAL>
0

>  <SCORE.SYSTEM.SOLV>
0

>  <SCORE.SYSTEM.norm>
0

>  <SCORE.heavy>
10

>  <SCORE.norm>
-0.543132

>  <RMSD>
13.564

$$$$
ligand
 OpenBabel11021811473D
libRbt.so/2013.1/901 2013/11/27
 10  9  0  0  0  0  0  0  0  0999 V2000
   26.1496   14.4616    9.9611 N   0  0  0  0  0  0  0  0  0  0  0  0
   25.0483   14.2060    8.9957 C   0  0  2  0  0  0  0  0  0  0  0  0
   25.3014   14.9098    7.6621 C   0  0  0  0  0  0  0  0  0  0  0  0
   25.0109   16.0915    7.5045 O   0  0  0  0  0  0  0  0  0  0  0  0
   23.7001   14.5991    9.6102 C   0  0  0  0  0  0  0  0  0  0  0  0
   23.3972   13.8549   10.9068 C   0  0  0  0  0  0  0  0  0  0  0  0
   22.0810   14.2832   11.5405 C   0  0  0  0  0  0  0  0  0  0  0  0
   21.9205   13.6756   12.9345 C   0  0  0  0  0  0  0  0  0  0  0  0
   21.8369   12.1641   12.9470 N   0  0  0  0  0  0  0  0  0  0  0  0
   25.8346   14.3585    6.7060 O   0  0  0  0  0  0  0  0  0  0  0  0
  2  1  1  1  0  0  0
  2  3  1  0  0  0  0
  2  5  1  0  0  0  0
  3  4  1  0  0  0  0
  3 10  1  0  0  0  0
  5  6  1  0  0  0  0
  6  7  1  0  0  0  0
  7  8  1  0  0  0  0
  8  9  1  0  0  0  0
M  END
>  <CHROM.1>
-83.15910071,-58.08244644,177.95943584,-171.31973767,-63.73824870,24.04155711
14.27878968,9.83684417,-0.90912473,-0.44945329,2.23295487

>  <Name>
ligand

>  <RI>
0

>  <Rbt.Current_Directory>
/home/itssahil/PROJECTS/Mol_Feturizer/New_Systems/rnas/3DIM

>  <Rbt.Executable>
rbdock ($Id: //depot/dev/client3/rdock/2013.1/src/exe/rbdock.cxx#4 $)

>  <Rbt.Library>
libRbt.so (2013.1, Build901 2013/11/27)

>  <Rbt.Parameter_File>
/export/apps/rDock/src/rDock_2013.1_src/data/scripts/dock_solv.prm

>  <Rbt.Receptor>
prm/blind_docking_40.prm

>  <SCORE>
-6.00698

>  <SCORE.INTER>
-3.96995

>  <SCORE.INTER.CONST>
1

>  <SCORE.INTER.POLAR>
0

>  <SCORE.INTER.ROT>
5

>  <SCORE.INTER.SOLV>
5.95587

>  <SCORE.INTER.VDW>
-11.5653

>  <SCORE.INTER.norm>
-0.396995

>  <SCORE.INTRA>
-2.03703

>  <SCORE.INTRA.DIHEDRAL>
-4.06188

>  <SCORE.INTRA.DIHEDRAL.0>
5.8785

>  <SCORE.INTRA.POLAR>
0

>  <SCORE.INTRA.POLAR.0>
0

>  <SCORE.INTRA.REPUL>
0

>  <SCORE.INTRA.REPUL.0>
0

>  <SCORE.INTRA.SOLV>
-0.0833029

>  <SCORE.INTRA.SOLV.lig_0>
-31.9559

>  <SCORE.INTRA.VDW>
0.0355666

>  <SCORE.INTRA.VDW.0>
-0.507645

>  <SCORE.INTRA.norm>
-0.203703

>  <SCORE.RESTR>
0

>  <SCORE.RESTR.CAVITY>
0

>  <SCORE.RESTR.norm>
0

>  <SCORE.SYSTEM>
0

>  <SCORE.SYSTEM.CONST>
0

>  <SCORE.SYSTEM.DIHEDRAL>
0

>  <SCORE.SYSTEM.SOLV>
0

>  <SCORE.SYSTEM.norm>
0

>  <SCORE.heavy>
10

>  <SCORE.norm>
-0.600698

>  <RMSD>
13.567

$$$$
ligand
 OpenBabel11021811473D
libRbt.so/2013.1/901 2013/11/27
 10  9  0  0  0  0  0  0  0  0999 V2000
   26.8112   13.8970    8.2992 N   0  0  0  0  0  0  0  0  0  0  0  0
   25.3558   13.8568    8.6000 C   0  0  2  0  0  0  0  0  0  0  0  0
   24.6762   15.1796    8.2446 C   0  0  0  0  0  0  0  0  0  0  0  0
   25.2654   16.2484    8.3717 O   0  0  0  0  0  0  0  0  0  0  0  0
   25.1256   13.4634   10.0636 C   0  0  0  0  0  0  0  0  0  0  0  0
   23.6517   13.2632   10.4015 C   0  0  0  0  0  0  0  0  0  0  0  0
   23.4236   12.9071   11.8639 C   0  0  0  0  0  0  0  0  0  0  0  0
   21.9349   12.7144   12.1554 C   0  0  0  0  0  0  0  0  0  0  0  0
   21.1006   13.9650   11.9778 N   0  0  0  0  0  0  0  0  0  0  0  0
   23.5424   15.2459    7.7838 O   0  0  0  0  0  0  0  0  0  0  0  0
  2  1  1  1  0  0  0
  2  3  1  0  0  0  0
  2  5  1  0  0  0  0
  3  4  1  0  0  0  0
  3 10  1  0  0  0  0
  5  6  1  0  0  0  0
  6  7  1  0  0  0  0
  7  8  1  0  0  0  0
  8  9  1  0  0  0  0
M  END
>  <CHROM.1>
-34.04353967,-174.07556266,-178.54652047,-179.92147367,-64.21473454,24.08015797
14.10663249,9.75884972,-0.82884840,-0.38503630,2.34722923

>  <Name>
ligand

>  <RI>
0

>  <Rbt.Current_Directory>
/home/itssahil/PROJECTS/Mol_Feturizer/New_Systems/rnas/3DIM

>  <Rbt.Executable>
rbdock ($Id: //depot/dev/client3/rdock/2013.1/src/exe/rbdock.cxx#4 $)

>  <Rbt.Library>
libRbt.so (2013.1, Build901 2013/11/27)

>  <Rbt.Parameter_File>
/export/apps/rDock/src/rDock_2013.1_src/data/scripts/dock_solv.prm

>  <Rbt.Receptor>
prm/blind_docking_40.prm

>  <SCORE>
-6.94613

>  <SCORE.INTER>
-4.11521

>  <SCORE.INTER.CONST>
1

>  <SCORE.INTER.POLAR>
0

>  <SCORE.INTER.ROT>
5

>  <SCORE.INTER.SOLV>
5.97581

>  <SCORE.INTER.VDW>
-11.6687

>  <SCORE.INTER.norm>
-0.411521

>  <SCORE.INTRA>
-2.83092

>  <SCORE.INTRA.DIHEDRAL>
-4.09454

>  <SCORE.INTRA.DIHEDRAL.0>
5.8785

>  <SCORE.INTRA.POLAR>
0

>  <SCORE.INTRA.POLAR.0>
0

>  <SCORE.INTRA.REPUL>
0

>  <SCORE.INTRA.REPUL.0>
0

>  <SCORE.INTRA.SOLV>
-0.988303

>  <SCORE.INTRA.SOLV.lig_0>
-31.9559

>  <SCORE.INTRA.VDW>
-0.289495

>  <SCORE.INTRA.VDW.0>
-0.507645

>  <SCORE.INTRA.norm>
-0.283092

>  <SCORE.RESTR>
0

>  <SCORE.RESTR.CAVITY>
0

>  <SCORE.RESTR.norm>
0

>  <SCORE.SYSTEM>
0

>  <SCORE.SYSTEM.CONST>
0

>  <SCORE.SYSTEM.DIHEDRAL>
0

>  <SCORE.SYSTEM.SOLV>
0

>  <SCORE.SYSTEM.norm>
0

>  <SCORE.heavy>
10

>  <SCORE.norm>
-0.694613

>  <RMSD>
13.578

$$$$
ligand
 OpenBabel11021811473D
libRbt.so/2013.1/901 2013/11/27
 10  9  0  0  0  0  0  0  0  0999 V2000
   26.7531   13.6665    8.1377 N   0  0  0  0  0  0  0  0  0  0  0  0
   25.3159   13.7905    8.4973 C   0  0  2  0  0  0  0  0  0  0  0  0
   24.8157   15.2231    8.3089 C   0  0  0  0  0  0  0  0  0  0  0  0
   25.0920   15.8626    7.2988 O   0  0  0  0  0  0  0  0  0  0  0  0
   25.0776   13.2774    9.9220 C   0  0  0  0  0  0  0  0  0  0  0  0
   23.5978   13.1583   10.2721 C   0  0  0  0  0  0  0  0  0  0  0  0
   23.3642   12.7285   11.7137 C   0  0  0  0  0  0  0  0  0  0  0  0
   21.8701   12.6752   12.0346 C   0  0  0  0  0  0  0  0  0  0  0  0
   21.1690   14.0144   11.9507 N   0  0  0  0  0  0  0  0  0  0  0  0
   24.0918   15.7902    9.1192 O   0  0  0  0  0  0  0  0  0  0  0  0
  2  1  1  1  0  0  0
  2  3  1  0  0  0  0
  2  5  1  0  0  0  0
  3  4  1  0  0  0  0
  3 10  1  0  0  0  0
  5  6  1  0  0  0  0
  6  7  1  0  0  0  0
  7  8  1  0  0  0  0
  8  9  1  0  0  0  0
M  END
>  <CHROM.1>
45.25746483,-170.41641783,-176.56391818,177.78977289,-63.63191671,24.10951533
14.05366991,9.71202491,-0.74022399,-0.55253020,2.51769976

>  <Name>
ligand

>  <RI>
0

>  <Rbt.Current_Directory>
/home/itssahil/PROJECTS/Mol_Feturizer/New_Systems/rnas/3DIM

>  <Rbt.Executable>
rbdock ($Id: //depot/dev/client3/rdock/2013.1/src/exe/rbdock.cxx#4 $)

>  <Rbt.Library>
libRbt.so (2013.1, Build901 2013/11/27)

>  <Rbt.Parameter_File>
/export/apps/rDock/src/rDock_2013.1_src/data/scripts/dock_solv.prm

>  <Rbt.Receptor>
prm/blind_docking_40.prm

>  <SCORE>
-6.19928

>  <SCORE.INTER>
-4.10099

>  <SCORE.INTER.CONST>
1

>  <SCORE.INTER.POLAR>
0

>  <SCORE.INTER.ROT>
5

>  <SCORE.INTER.SOLV>
6.19872

>  <SCORE.INTER.VDW>
-11.7336

>  <SCORE.INTER.norm>
-0.410099

>  <SCORE.INTRA>
-2.09829

>  <SCORE.INTRA.DIHEDRAL>
-3.98341

>  <SCORE.INTRA.DIHEDRAL.0>
5.8785

>  <SCORE.INTRA.POLAR>
0

>  <SCORE.INTRA.POLAR.0>
0

>  <SCORE.INTRA.REPUL>
0

>  <SCORE.INTRA.REPUL.0>
0

>  <SCORE.INTRA.SOLV>
-0.983671

>  <SCORE.INTRA.SOLV.lig_0>
-31.9559

>  <SCORE.INTRA.VDW>
0.385256

>  <SCORE.INTRA.VDW.0>
-0.507645

>  <SCORE.INTRA.norm>
-0.209829

>  <SCORE.RESTR>
0

>  <SCORE.RESTR.CAVITY>
0

>  <SCORE.RESTR.norm>
0

>  <SCORE.SYSTEM>
0

>  <SCORE.SYSTEM.CONST>
0

>  <SCORE.SYSTEM.DIHEDRAL>
0

>  <SCORE.SYSTEM.SOLV>
0

>  <SCORE.SYSTEM.norm>
0

>  <SCORE.heavy>
10

>  <SCORE.norm>
-0.619928

>  <RMSD>
13.586

$$$$
ligand
 OpenBabel11021811473D
libRbt.so/2013.1/901 2013/11/27
 10  9  0  0  0  0  0  0  0  0999 V2000
   26.8835   13.6348    8.0653 N   0  0  0  0  0  0  0  0  0  0  0  0
   25.4399   13.8125    8.3731 C   0  0  2  0  0  0  0  0  0  0  0  0
   24.9885   15.2510    8.1186 C   0  0  0  0  0  0  0  0  0  0  0  0
   24.3764   15.8833    8.9738 O   0  0  0  0  0  0  0  0  0  0  0  0
   25.1415   13.3578    9.8064 C   0  0  0  0  0  0  0  0  0  0  0  0
   23.6490   13.3105   10.1174 C   0  0  0  0  0  0  0  0  0  0  0  0
   23.3568   12.8833   11.5490 C   0  0  0  0  0  0  0  0  0  0  0  0
   21.8537   12.8988   11.8297 C   0  0  0  0  0  0  0  0  0  0  0  0
   21.4783   12.4520   13.2265 N   0  0  0  0  0  0  0  0  0  0  0  0
   25.2411   15.8577    7.0841 O   0  0  0  0  0  0  0  0  0  0  0  0
  2  1  1  1  0  0  0
  2  3  1  0  0  0  0
  2  5  1  0  0  0  0
  3  4  1  0  0  0  0
  3 10  1  0  0  0  0
  5  6  1  0  0  0  0
  6  7  1  0  0  0  0
  7  8  1  0  0  0  0
  8  9  1  0  0  0  0
M  END
>  <CHROM.1>
-129.01303258,-171.14684682,-178.94383329,177.96046934,178.57275492,24.23751922
13.97061650,9.69937809,-0.82281755,-0.57381000,2.51189234

>  <Name>
ligand

>  <RI>
0

>  <Rbt.Current_Directory>
/home/itssahil/PROJECTS/Mol_Feturizer/New_Systems/rnas/3DIM

>  <Rbt.Executable>
rbdock ($Id: //depot/dev/client3/rdock/2013.1/src/exe/rbdock.cxx#4 $)

>  <Rbt.Library>
libRbt.so (2013.1, Build901 2013/11/27)

>  <Rbt.Parameter_File>
/export/apps/rDock/src/rDock_2013.1_src/data/scripts/dock_solv.prm

>  <Rbt.Receptor>
prm/blind_docking_40.prm

>  <SCORE>
-6.58853

>  <SCORE.INTER>
-4.20009

>  <SCORE.INTER.CONST>
1

>  <SCORE.INTER.POLAR>
0

>  <SCORE.INTER.ROT>
5

>  <SCORE.INTER.SOLV>
5.88977

>  <SCORE.INTER.VDW>
-11.6967

>  <SCORE.INTER.norm>
-0.420009

>  <SCORE.INTRA>
-2.38844

>  <SCORE.INTRA.DIHEDRAL>
-4.01515

>  <SCORE.INTRA.DIHEDRAL.0>
5.8785

>  <SCORE.INTRA.POLAR>
0

>  <SCORE.INTRA.POLAR.0>
0

>  <SCORE.INTRA.REPUL>
0

>  <SCORE.INTRA.REPUL.0>
0

>  <SCORE.INTRA.SOLV>
-1.86736

>  <SCORE.INTRA.SOLV.lig_0>
-31.9559

>  <SCORE.INTRA.VDW>
0.55282

>  <SCORE.INTRA.VDW.0>
-0.507645

>  <SCORE.INTRA.norm>
-0.238844

>  <SCORE.RESTR>
0

>  <SCORE.RESTR.CAVITY>
0

>  <SCORE.RESTR.norm>
0

>  <SCORE.SYSTEM>
0

>  <SCORE.SYSTEM.CONST>
0

>  <SCORE.SYSTEM.DIHEDRAL>
0

>  <SCORE.SYSTEM.SOLV>
0

>  <SCORE.SYSTEM.norm>
0

>  <SCORE.heavy>
10

>  <SCORE.norm>
-0.658853

>  <RMSD>
13.587

$$$$
ligand
 OpenBabel11021811473D
libRbt.so/2013.1/901 2013/11/27
 10  9  0  0  0  0  0  0  0  0999 V2000
   26.8666   13.6571    8.0650 N   0  0  0  0  0  0  0  0  0  0  0  0
   25.4219   13.8196    8.3763 C   0  0  2  0  0  0  0  0  0  0  0  0
   24.9594   15.2579    8.1416 C   0  0  0  0  0  0  0  0  0  0  0  0
   24.3480   15.8758    9.0077 O   0  0  0  0  0  0  0  0  0  0  0  0
   25.1283   13.3433    9.8035 C   0  0  0  0  0  0  0  0  0  0  0  0
   23.6373   13.3043   10.1231 C   0  0  0  0  0  0  0  0  0  0  0  0
   23.3486   12.8227   11.5381 C   0  0  0  0  0  0  0  0  0  0  0  0
   21.8483   12.8531   11.8320 C   0  0  0  0  0  0  0  0  0  0  0  0
   21.4782   12.3810   13.2219 N   0  0  0  0  0  0  0  0  0  0  0  0
   25.2019   15.8786    7.1130 O   0  0  0  0  0  0  0  0  0  0  0  0
  2  1  1  1  0  0  0
  2  3  1  0  0  0  0
  2  5  1  0  0  0  0
  3  4  1  0  0  0  0
  3 10  1  0  0  0  0
  5  6  1  0  0  0  0
  6  7  1  0  0  0  0
  7  8  1  0  0  0  0
  8  9  1  0  0  0  0
M  END
>  <CHROM.1>
-128.71437333,-172.17531283,179.64346239,177.73068624,179.73042821,24.22020487
13.95591464,9.70767908,-0.83011096,-0.57160156,2.51919149

>  <Name>
ligand

>  <RI>
0

>  <Rbt.Current_Directory>
/home/itssahil/PROJECTS/Mol_Feturizer/New_Systems/rnas/3DIM

>  <Rbt.Executable>
rbdock ($Id: //depot/dev/client3/rdock/2013.1/src/exe/rbdock.cxx#4 $)

>  <Rbt.Library>
libRbt.so (2013.1, Build901 2013/11/27)

>  <Rbt.Parameter_File>
/export/apps/rDock/src/rDock_2013.1_src/data/scripts/dock_solv.prm

>  <Rbt.Receptor>
prm/blind_docking_100.prm

>  <SCORE>
-6.57927

>  <SCORE.INTER>
-4.20535

>  <SCORE.INTER.CONST>
1

>  <SCORE.INTER.POLAR>
0

>  <SCORE.INTER.ROT>
5

>  <SCORE.INTER.SOLV>
5.84489

>  <SCORE.INTER.VDW>
-11.6852

>  <SCORE.INTER.norm>
-0.420535

>  <SCORE.INTRA>
-2.37392

>  <SCORE.INTRA.DIHEDRAL>
-4.08695

>  <SCORE.INTRA.DIHEDRAL.0>
5.8785

>  <SCORE.INTRA.POLAR>
0

>  <SCORE.INTRA.POLAR.0>
0

>  <SCORE.INTRA.REPUL>
0

>  <SCORE.INTRA.REPUL.0>
0

>  <SCORE.INTRA.SOLV>
-1.86871

>  <SCORE.INTRA.SOLV.lig_0>
-31.9559

>  <SCORE.INTRA.VDW>
0.603903

>  <SCORE.INTRA.VDW.0>
-0.507645

>  <SCORE.INTRA.norm>
-0.237392

>  <SCORE.RESTR>
0

>  <SCORE.RESTR.CAVITY>
0

>  <SCORE.RESTR.norm>
0

>  <SCORE.SYSTEM>
0

>  <SCORE.SYSTEM.CONST>
0

>  <SCORE.SYSTEM.DIHEDRAL>
0

>  <SCORE.SYSTEM.SOLV>
0

>  <SCORE.SYSTEM.norm>
0

>  <SCORE.heavy>
10

>  <SCORE.norm>
-0.657927

>  <RMSD>
13.589

$$$$
ligand
 OpenBabel11021811473D
libRbt.so/2013.1/901 2013/11/27
 10  9  0  0  0  0  0  0  0  0999 V2000
   26.4573   13.5806    7.3186 N   0  0  0  0  0  0  0  0  0  0  0  0
   25.4128   13.7849    8.3566 C   0  0  2  0  0  0  0  0  0  0  0  0
   24.6643   15.1010    8.1430 C   0  0  0  0  0  0  0  0  0  0  0  0
   25.2503   16.1779    8.1918 O   0  0  0  0  0  0  0  0  0  0  0  0
   26.0289   13.6910    9.7572 C   0  0  0  0  0  0  0  0  0  0  0  0
   25.0390   14.0300   10.8670 C   0  0  0  0  0  0  0  0  0  0  0  0
   23.8834   13.0425   10.9504 C   0  0  0  0  0  0  0  0  0  0  0  0
   22.9450   13.3934   12.1056 C   0  0  0  0  0  0  0  0  0  0  0  0
   21.7929   12.4277   12.2847 N   0  0  0  0  0  0  0  0  0  0  0  0
   23.4692   15.1545    7.8761 O   0  0  0  0  0  0  0  0  0  0  0  0
  2  1  1  6  0  0  0
  2  3  1  0  0  0  0
  2  5  1  0  0  0  0
  3  4  1  0  0  0  0
  3 10  1  0  0  0  0
  5  6  1  0  0  0  0
  6  7  1  0  0  0  0
  7  8  1  0  0  0  0
  8  9  1  0  0  0  0
M  END
>  <CHROM.1>
-61.93191857,174.21916445,64.38434140,178.01618415,-178.00791076,24.48167692
14.07080074,9.57103964,-0.99132049,-0.38084950,2.23929114

>  <Name>
ligand

>  <RI>
0

>  <Rbt.Current_Directory>
/home/itssahil/PROJECTS/Mol_Feturizer/New_Systems/rnas/3DIM

>  <Rbt.Executable>
rbdock ($Id: //depot/dev/client3/rdock/2013.1/src/exe/rbdock.cxx#4 $)

>  <Rbt.Library>
libRbt.so (2013.1, Build901 2013/11/27)

>  <Rbt.Parameter_File>
/export/apps/rDock/src/rDock_2013.1_src/data/scripts/dock_solv.prm

>  <Rbt.Receptor>
prm/blind_docking_40.prm

>  <SCORE>
-6.96944

>  <SCORE.INTER>
-4.11337

>  <SCORE.INTER.CONST>
1

>  <SCORE.INTER.POLAR>
0

>  <SCORE.INTER.ROT>
5

>  <SCORE.INTER.SOLV>
7.24972

>  <SCORE.INTER.VDW>
-12.0922

>  <SCORE.INTER.norm>
-0.411337

>  <SCORE.INTRA>
-2.85608

>  <SCORE.INTRA.DIHEDRAL>
-4.13318

>  <SCORE.INTRA.DIHEDRAL.0>
5.8785

>  <SCORE.INTRA.POLAR>
0

>  <SCORE.INTRA.POLAR.0>
0

>  <SCORE.INTRA.REPUL>
0

>  <SCORE.INTRA.REPUL.0>
0

>  <SCORE.INTRA.SOLV>
-1.67451

>  <SCORE.INTRA.SOLV.lig_0>
-31.9559

>  <SCORE.INTRA.VDW>
0.0477677

>  <SCORE.INTRA.VDW.0>
-0.507645

>  <SCORE.INTRA.norm>
-0.285608

>  <SCORE.RESTR>
0

>  <SCORE.RESTR.CAVITY>
0

>  <SCORE.RESTR.norm>
0

>  <SCORE.SYSTEM>
0

>  <SCORE.SYSTEM.CONST>
0

>  <SCORE.SYSTEM.DIHEDRAL>
0

>  <SCORE.SYSTEM.SOLV>
0

>  <SCORE.SYSTEM.norm>
0

>  <SCORE.heavy>
10

>  <SCORE.norm>
-0.696944

>  <RMSD>
13.602

$$$$
ligand
 OpenBabel11021811473D
libRbt.so/2013.1/901 2013/11/27
 10  9  0  0  0  0  0  0  0  0999 V2000
   26.5244   14.4995    9.7338 N   0  0  0  0  0  0  0  0  0  0  0  0
   25.4619   14.0563    8.7930 C   0  0  2  0  0  0  0  0  0  0  0  0
   25.4399   14.9187    7.5306 C   0  0  0  0  0  0  0  0  0  0  0  0
   24.9194   16.0298    7.5317 O   0  0  0  0  0  0  0  0  0  0  0  0
   24.1019   14.0311    9.4999 C   0  0  0  0  0  0  0  0  0  0  0  0
   24.0622   13.0657   10.6801 C   0  0  0  0  0  0  0  0  0  0  0  0
   22.7058   13.0317   11.3705 C   0  0  0  0  0  0  0  0  0  0  0  0
   22.7201   12.0707   12.5598 C   0  0  0  0  0  0  0  0  0  0  0  0
   21.3797   11.9112   13.2452 N   0  0  0  0  0  0  0  0  0  0  0  0
   25.9648   14.5755    6.4775 O   0  0  0  0  0  0  0  0  0  0  0  0
  2  1  1  1  0  0  0
  2  3  1  0  0  0  0
  2  5  1  0  0  0  0
  3  4  1  0  0  0  0
  3 10  1  0  0  0  0
  5  6  1  0  0  0  0
  6  7  1  0  0  0  0
  7  8  1  0  0  0  0
  8  9  1  0  0  0  0
M  END
>  <CHROM.1>
-78.75356993,-61.05962735,-179.37133008,-179.01394116,-176.17801342,24.33528525
13.84328508,9.70355598,-1.03530716,-0.01467168,2.08198235

>  <Name>
ligand

>  <RI>
0

>  <Rbt.Current_Directory>
/home/itssahil/PROJECTS/Mol_Feturizer/New_Systems/rnas/3DIM

>  <Rbt.Executable>
rbdock ($Id: //depot/dev/client3/rdock/2013.1/src/exe/rbdock.cxx#4 $)

>  <Rbt.Library>
libRbt.so (2013.1, Build901 2013/11/27)

>  <Rbt.Parameter_File>
/export/apps/rDock/src/rDock_2013.1_src/data/scripts/dock_solv.prm

>  <Rbt.Receptor>
prm/blind_docking_100.prm

>  <SCORE>
-7.40752

>  <SCORE.INTER>
-4.62438

>  <SCORE.INTER.CONST>
1

>  <SCORE.INTER.POLAR>
0

>  <SCORE.INTER.ROT>
5

>  <SCORE.INTER.SOLV>
6.03435

>  <SCORE.INTER.VDW>
-12.0277

>  <SCORE.INTER.norm>
-0.462438

>  <SCORE.INTRA>
-2.78313

>  <SCORE.INTRA.DIHEDRAL>
-4.37793

>  <SCORE.INTRA.DIHEDRAL.0>
5.8785

>  <SCORE.INTRA.POLAR>
0

>  <SCORE.INTRA.POLAR.0>
0

>  <SCORE.INTRA.REPUL>
0

>  <SCORE.INTRA.REPUL.0>
0

>  <SCORE.INTRA.SOLV>
-0.9661

>  <SCORE.INTRA.SOLV.lig_0>
-31.9559

>  <SCORE.INTRA.VDW>
-0.111118

>  <SCORE.INTRA.VDW.0>
-0.507645

>  <SCORE.INTRA.norm>
-0.278313

>  <SCORE.RESTR>
0

>  <SCORE.RESTR.CAVITY>
0

>  <SCORE.RESTR.norm>
0

>  <SCORE.SYSTEM>
0

>  <SCORE.SYSTEM.CONST>
0

>  <SCORE.SYSTEM.DIHEDRAL>
0

>  <SCORE.SYSTEM.SOLV>
0

>  <SCORE.SYSTEM.norm>
0

>  <SCORE.heavy>
10

>  <SCORE.norm>
-0.740752

>  <RMSD>
13.609

$$$$
ligand
 OpenBabel11021811473D
libRbt.so/2013.1/901 2013/11/27
 10  9  0  0  0  0  0  0  0  0999 V2000
   26.5047   14.4814    9.7520 N   0  0  0  0  0  0  0  0  0  0  0  0
   25.4461   14.0508    8.8011 C   0  0  2  0  0  0  0  0  0  0  0  0
   25.4385   14.9209    7.5438 C   0  0  0  0  0  0  0  0  0  0  0  0
   25.9633   14.5354    6.5037 O   0  0  0  0  0  0  0  0  0  0  0  0
   24.0810   14.0300    9.4981 C   0  0  0  0  0  0  0  0  0  0  0  0
   24.0207   13.0435   10.6599 C   0  0  0  0  0  0  0  0  0  0  0  0
   22.6658   13.0296   11.3538 C   0  0  0  0  0  0  0  0  0  0  0  0
   22.6717   12.0754   12.5487 C   0  0  0  0  0  0  0  0  0  0  0  0
   21.3471   11.9825   13.2756 N   0  0  0  0  0  0  0  0  0  0  0  0
   24.8850   16.0131    7.4901 O   0  0  0  0  0  0  0  0  0  0  0  0
  2  1  1  1  0  0  0
  2  3  1  0  0  0  0
  2  5  1  0  0  0  0
  3  4  1  0  0  0  0
  3 10  1  0  0  0  0
  5  6  1  0  0  0  0
  6  7  1  0  0  0  0
  7  8  1  0  0  0  0
  8  9  1  0  0  0  0
M  END
>  <CHROM.1>
100.14137252,-61.86587402,179.75069837,-177.40904315,-178.73694302,24.30946584
13.83972354,9.70354477,-1.03016795,-0.03532057,2.08715733

>  <Name>
ligand

>  <RI>
0

>  <Rbt.Current_Directory>
/home/itssahil/PROJECTS/Mol_Feturizer/New_Systems/rnas/3DIM

>  <Rbt.Executable>
rbdock ($Id: //depot/dev/client3/rdock/2013.1/src/exe/rbdock.cxx#4 $)

>  <Rbt.Library>
libRbt.so (2013.1, Build901 2013/11/27)

>  <Rbt.Parameter_File>
/export/apps/rDock/src/rDock_2013.1_src/data/scripts/dock_solv.prm

>  <Rbt.Receptor>
prm/blind_docking_60.prm

>  <SCORE>
-7.37004

>  <SCORE.INTER>
-4.60658

>  <SCORE.INTER.CONST>
1

>  <SCORE.INTER.POLAR>
0

>  <SCORE.INTER.ROT>
5

>  <SCORE.INTER.SOLV>
5.94331

>  <SCORE.INTER.VDW>
-11.9855

>  <SCORE.INTER.norm>
-0.460658

>  <SCORE.INTRA>
-2.76346

>  <SCORE.INTRA.DIHEDRAL>
-4.24528

>  <SCORE.INTRA.DIHEDRAL.0>
5.8785

>  <SCORE.INTRA.POLAR>
0

>  <SCORE.INTRA.POLAR.0>
0

>  <SCORE.INTRA.REPUL>
0

>  <SCORE.INTRA.REPUL.0>
0

>  <SCORE.INTRA.SOLV>
-0.995667

>  <SCORE.INTRA.SOLV.lig_0>
-31.9559

>  <SCORE.INTRA.VDW>
-0.142983

>  <SCORE.INTRA.VDW.0>
-0.507645

>  <SCORE.INTRA.norm>
-0.276346

>  <SCORE.RESTR>
0

>  <SCORE.RESTR.CAVITY>
0

>  <SCORE.RESTR.norm>
0

>  <SCORE.SYSTEM>
0

>  <SCORE.SYSTEM.CONST>
0

>  <SCORE.SYSTEM.DIHEDRAL>
0

>  <SCORE.SYSTEM.SOLV>
0

>  <SCORE.SYSTEM.norm>
0

>  <SCORE.heavy>
10

>  <SCORE.norm>
-0.737004

>  <RMSD>
13.621

$$$$
ligand
 OpenBabel11021811473D
libRbt.so/2013.1/901 2013/11/27
 10  9  0  0  0  0  0  0  0  0999 V2000
   23.5483   13.5700   11.1875 N   0  0  0  0  0  0  0  0  0  0  0  0
   24.6538   13.6555   10.1971 C   0  0  2  0  0  0  0  0  0  0  0  0
   25.9914   13.9464   10.8783 C   0  0  0  0  0  0  0  0  0  0  0  0
   26.0417   14.5654   11.9366 O   0  0  0  0  0  0  0  0  0  0  0  0
   24.3197   14.6880    9.1144 C   0  0  0  0  0  0  0  0  0  0  0  0
   25.4149   14.8220    8.0613 C   0  0  0  0  0  0  0  0  0  0  0  0
   25.6916   13.5175    7.3270 C   0  0  0  0  0  0  0  0  0  0  0  0
   26.8189   13.6903    6.3083 C   0  0  0  0  0  0  0  0  0  0  0  0
   27.2287   12.4098    5.6127 N   0  0  0  0  0  0  0  0  0  0  0  0
   27.0653   13.5521   10.4383 O   0  0  0  0  0  0  0  0  0  0  0  0
  2  1  1  1  0  0  0
  2  3  1  0  0  0  0
  2  5  1  0  0  0  0
  3  4  1  0  0  0  0
  3 10  1  0  0  0  0
  5  6  1  0  0  0  0
  6  7  1  0  0  0  0
  7  8  1  0  0  0  0
  8  9  1  0  0  0  0
M  END
>  <CHROM.1>
-28.14783868,-179.83189953,59.73136536,-178.54009705,175.42059845,25.70481729
13.84784664,9.13142442,1.87433203,-0.20514394,1.46741262

>  <Name>
ligand

>  <RI>
0

>  <Rbt.Current_Directory>
/home/itssahil/PROJECTS/Mol_Feturizer/New_Systems/rnas/3DIM

>  <Rbt.Executable>
rbdock ($Id: //depot/dev/client3/rdock/2013.1/src/exe/rbdock.cxx#4 $)

>  <Rbt.Library>
libRbt.so (2013.1, Build901 2013/11/27)

>  <Rbt.Parameter_File>
/export/apps/rDock/src/rDock_2013.1_src/data/scripts/dock_solv.prm

>  <Rbt.Receptor>
prm/blind_docking_60.prm

>  <SCORE>
-6.4451

>  <SCORE.INTER>
-3.56052

>  <SCORE.INTER.CONST>
1

>  <SCORE.INTER.POLAR>
0

>  <SCORE.INTER.ROT>
5

>  <SCORE.INTER.SOLV>
7.50254

>  <SCORE.INTER.VDW>
-11.8079

>  <SCORE.INTER.norm>
-0.356052

>  <SCORE.INTRA>
-2.88458

>  <SCORE.INTRA.DIHEDRAL>
-4.20211

>  <SCORE.INTRA.DIHEDRAL.0>
5.8785

>  <SCORE.INTRA.POLAR>
0

>  <SCORE.INTRA.POLAR.0>
0

>  <SCORE.INTRA.REPUL>
0

>  <SCORE.INTRA.REPUL.0>
0

>  <SCORE.INTRA.SOLV>
-1.60627

>  <SCORE.INTRA.SOLV.lig_0>
-31.9559

>  <SCORE.INTRA.VDW>
0.0196109

>  <SCORE.INTRA.VDW.0>
-0.507645

>  <SCORE.INTRA.norm>
-0.288458

>  <SCORE.RESTR>
0

>  <SCORE.RESTR.CAVITY>
0

>  <SCORE.RESTR.norm>
0

>  <SCORE.SYSTEM>
0

>  <SCORE.SYSTEM.CONST>
0

>  <SCORE.SYSTEM.DIHEDRAL>
0

>  <SCORE.SYSTEM.SOLV>
0

>  <SCORE.SYSTEM.norm>
0

>  <SCORE.heavy>
10

>  <SCORE.norm>
-0.64451

>  <RMSD>
13.646

$$$$
ligand
 OpenBabel11021811473D
libRbt.so/2013.1/901 2013/11/27
 10  9  0  0  0  0  0  0  0  0999 V2000
   25.5899   13.2234    6.4717 N   0  0  0  0  0  0  0  0  0  0  0  0
   25.4930   13.7161    7.8710 C   0  0  2  0  0  0  0  0  0  0  0  0
   24.6730   15.0041    7.9530 C   0  0  0  0  0  0  0  0  0  0  0  0
   23.6574   15.0656    8.6388 O   0  0  0  0  0  0  0  0  0  0  0  0
   26.8921   13.8820    8.4749 C   0  0  0  0  0  0  0  0  0  0  0  0
   26.8659   14.4452    9.8922 C   0  0  0  0  0  0  0  0  0  0  0  0
   28.2509   14.8068   10.4103 C   0  0  0  0  0  0  0  0  0  0  0  0
   28.1749   15.3729   11.8288 C   0  0  0  0  0  0  0  0  0  0  0  0
   27.6310   14.4030   12.8560 N   0  0  0  0  0  0  0  0  0  0  0  0
   24.9967   16.0399    7.3834 O   0  0  0  0  0  0  0  0  0  0  0  0
  2  1  1  6  0  0  0
  2  3  1  0  0  0  0
  2  5  1  0  0  0  0
  3  4  1  0  0  0  0
  3 10  1  0  0  0  0
  5  6  1  0  0  0  0
  6  7  1  0  0  0  0
  7  8  1  0  0  0  0
  8  9  1  0  0  0  0
M  END
>  <CHROM.1>
120.80939613,177.44441403,-171.28135358,179.70187798,62.34600109,26.19671431
14.62332061,9.17206099,-2.30204441,-0.51744294,1.10662629

>  <Name>
ligand

>  <RI>
0

>  <Rbt.Current_Directory>
/home/itssahil/PROJECTS/Mol_Feturizer/New_Systems/rnas/3DIM

>  <Rbt.Executable>
rbdock ($Id: //depot/dev/client3/rdock/2013.1/src/exe/rbdock.cxx#4 $)

>  <Rbt.Library>
libRbt.so (2013.1, Build901 2013/11/27)

>  <Rbt.Parameter_File>
/export/apps/rDock/src/rDock_2013.1_src/data/scripts/dock_solv.prm

>  <Rbt.Receptor>
prm/blind_docking_60.prm

>  <SCORE>
-6.46567

>  <SCORE.INTER>
-3.80814

>  <SCORE.INTER.CONST>
1

>  <SCORE.INTER.POLAR>
0

>  <SCORE.INTER.ROT>
5

>  <SCORE.INTER.SOLV>
16.0803

>  <SCORE.INTER.VDW>
-14.8322

>  <SCORE.INTER.norm>
-0.380814

>  <SCORE.INTRA>
-2.65753

>  <SCORE.INTRA.DIHEDRAL>
-4.00221

>  <SCORE.INTRA.DIHEDRAL.0>
5.8785

>  <SCORE.INTRA.POLAR>
0

>  <SCORE.INTRA.POLAR.0>
0

>  <SCORE.INTRA.REPUL>
0

>  <SCORE.INTRA.REPUL.0>
0

>  <SCORE.INTRA.SOLV>
-1.00305

>  <SCORE.INTRA.SOLV.lig_0>
-31.9559

>  <SCORE.INTRA.VDW>
-0.154894

>  <SCORE.INTRA.VDW.0>
-0.507645

>  <SCORE.INTRA.norm>
-0.265753

>  <SCORE.RESTR>
0

>  <SCORE.RESTR.CAVITY>
0

>  <SCORE.RESTR.norm>
0

>  <SCORE.SYSTEM>
0

>  <SCORE.SYSTEM.CONST>
0

>  <SCORE.SYSTEM.DIHEDRAL>
0

>  <SCORE.SYSTEM.SOLV>
0

>  <SCORE.SYSTEM.norm>
0

>  <SCORE.heavy>
10

>  <SCORE.norm>
-0.646567

>  <RMSD>
13.654

$$$$
ligand
 OpenBabel11021811473D
libRbt.so/2013.1/901 2013/11/27
 10  9  0  0  0  0  0  0  0  0999 V2000
   21.1950   13.9342   12.5051 N   0  0  0  0  0  0  0  0  0  0  0  0
   22.1174   13.1307   11.6602 C   0  0  2  0  0  0  0  0  0  0  0  0
   22.9770   12.1933   12.5089 C   0  0  0  0  0  0  0  0  0  0  0  0
   23.6151   11.2800   11.9947 O   0  0  0  0  0  0  0  0  0  0  0  0
   22.9660   14.0508   10.7752 C   0  0  0  0  0  0  0  0  0  0  0  0
   23.8190   13.2868    9.7676 C   0  0  0  0  0  0  0  0  0  0  0  0
   24.5745   14.2046    8.8166 C   0  0  0  0  0  0  0  0  0  0  0  0
   25.4100   13.3964    7.8230 C   0  0  0  0  0  0  0  0  0  0  0  0
   26.1870   14.2399    6.8348 N   0  0  0  0  0  0  0  0  0  0  0  0
   23.1085   12.3210   13.7208 O   0  0  0  0  0  0  0  0  0  0  0  0
  2  1  1  1  0  0  0
  2  3  1  0  0  0  0
  2  5  1  0  0  0  0
  3  4  1  0  0  0  0
  3 10  1  0  0  0  0
  5  6  1  0  0  0  0
  6  7  1  0  0  0  0
  7  8  1  0  0  0  0
  8  9  1  0  0  0  0
M  END
>  <CHROM.1>
166.29274217,-173.33418789,175.37342967,-179.77819870,179.64625289,23.60979361
13.17925961,10.66897231,2.24791175,-0.67035212,2.28570529

>  <Name>
ligand

>  <RI>
0

>  <Rbt.Current_Directory>
/home/itssahil/PROJECTS/Mol_Feturizer/New_Systems/rnas/3DIM

>  <Rbt.Executable>
rbdock ($Id: //depot/dev/client3/rdock/2013.1/src/exe/rbdock.cxx#4 $)

>  <Rbt.Library>
libRbt.so (2013.1, Build901 2013/11/27)

>  <Rbt.Parameter_File>
/export/apps/rDock/src/rDock_2013.1_src/data/scripts/dock_solv.prm

>  <Rbt.Receptor>
prm/blind_docking_40.prm

>  <SCORE>
-6.07769

>  <SCORE.INTER>
-2.92333

>  <SCORE.INTER.CONST>
1

>  <SCORE.INTER.POLAR>
0

>  <SCORE.INTER.ROT>
5

>  <SCORE.INTER.SOLV>
8.50188

>  <SCORE.INTER.VDW>
-11.7162

>  <SCORE.INTER.norm>
-0.292333

>  <SCORE.INTRA>
-3.15436

>  <SCORE.INTRA.DIHEDRAL>
-4.18484

>  <SCORE.INTRA.DIHEDRAL.0>
5.8785

>  <SCORE.INTRA.POLAR>
0

>  <SCORE.INTRA.POLAR.0>
0

>  <SCORE.INTRA.REPUL>
0

>  <SCORE.INTRA.REPUL.0>
0

>  <SCORE.INTRA.SOLV>
-1.86754

>  <SCORE.INTRA.SOLV.lig_0>
-31.9559

>  <SCORE.INTRA.VDW>
-0.128166

>  <SCORE.INTRA.VDW.0>
-0.507645

>  <SCORE.INTRA.norm>
-0.315436

>  <SCORE.RESTR>
0

>  <SCORE.RESTR.CAVITY>
0

>  <SCORE.RESTR.norm>
0

>  <SCORE.SYSTEM>
0

>  <SCORE.SYSTEM.CONST>
0

>  <SCORE.SYSTEM.DIHEDRAL>
0

>  <SCORE.SYSTEM.SOLV>
0

>  <SCORE.SYSTEM.norm>
0

>  <SCORE.heavy>
10

>  <SCORE.norm>
-0.607769

>  <RMSD>
13.671

$$$$
ligand
 OpenBabel11021811473D
libRbt.so/2013.1/901 2013/11/27
 10  9  0  0  0  0  0  0  0  0999 V2000
   24.9085   15.9089    7.5051 N   0  0  0  0  0  0  0  0  0  0  0  0
   25.1272   14.9021    8.5770 C   0  0  2  0  0  0  0  0  0  0  0  0
   25.7980   13.6418    8.0297 C   0  0  0  0  0  0  0  0  0  0  0  0
   26.5085   12.9415    8.7441 O   0  0  0  0  0  0  0  0  0  0  0  0
   23.8074   14.5908    9.2918 C   0  0  0  0  0  0  0  0  0  0  0  0
   23.9865   13.6813   10.5031 C   0  0  0  0  0  0  0  0  0  0  0  0
   22.6679   13.3263   11.1760 C   0  0  0  0  0  0  0  0  0  0  0  0
   22.9012   12.4721   12.4226 C   0  0  0  0  0  0  0  0  0  0  0  0
   21.6329   12.0601   13.1391 N   0  0  0  0  0  0  0  0  0  0  0  0
   25.6366   13.2434    6.8819 O   0  0  0  0  0  0  0  0  0  0  0  0
  2  1  1  6  0  0  0
  2  3  1  0  0  0  0
  2  5  1  0  0  0  0
  3  4  1  0  0  0  0
  3 10  1  0  0  0  0
  5  6  1  0  0  0  0
  6  7  1  0  0  0  0
  7  8  1  0  0  0  0
  8  9  1  0  0  0  0
M  END
>  <CHROM.1>
151.84938788,-173.64164821,-177.57449547,-177.19604903,-179.17259704,24.32001603
13.65216072,9.60643455,0.75302256,0.72062490,-0.62547459

>  <Name>
ligand

>  <RI>
0

>  <Rbt.Current_Directory>
/home/itssahil/PROJECTS/Mol_Feturizer/New_Systems/rnas/3DIM

>  <Rbt.Executable>
rbdock ($Id: //depot/dev/client3/rdock/2013.1/src/exe/rbdock.cxx#4 $)

>  <Rbt.Library>
libRbt.so (2013.1, Build901 2013/11/27)

>  <Rbt.Parameter_File>
/export/apps/rDock/src/rDock_2013.1_src/data/scripts/dock_solv.prm

>  <Rbt.Receptor>
prm/blind_docking_100.prm

>  <SCORE>
-6.00093

>  <SCORE.INTER>
-2.62268

>  <SCORE.INTER.CONST>
1

>  <SCORE.INTER.POLAR>
0

>  <SCORE.INTER.ROT>
5

>  <SCORE.INTER.SOLV>
11.9768

>  <SCORE.INTER.VDW>
-12.6741

>  <SCORE.INTER.norm>
-0.262268

>  <SCORE.INTRA>
-3.37825

>  <SCORE.INTRA.DIHEDRAL>
-4.25215

>  <SCORE.INTRA.DIHEDRAL.0>
5.8785

>  <SCORE.INTRA.POLAR>
0

>  <SCORE.INTRA.POLAR.0>
0

>  <SCORE.INTRA.REPUL>
0

>  <SCORE.INTRA.REPUL.0>
0

>  <SCORE.INTRA.SOLV>
-1.87444

>  <SCORE.INTRA.SOLV.lig_0>
-31.9559

>  <SCORE.INTRA.VDW>
-0.314956

>  <SCORE.INTRA.VDW.0>
-0.507645

>  <SCORE.INTRA.norm>
-0.337825

>  <SCORE.RESTR>
0

>  <SCORE.RESTR.CAVITY>
0

>  <SCORE.RESTR.norm>
0

>  <SCORE.SYSTEM>
0

>  <SCORE.SYSTEM.CONST>
0

>  <SCORE.SYSTEM.DIHEDRAL>
0

>  <SCORE.SYSTEM.SOLV>
0

>  <SCORE.SYSTEM.norm>
0

>  <SCORE.heavy>
10

>  <SCORE.norm>
-0.600093

>  <RMSD>
13.735

$$$$
ligand
 OpenBabel11021811473D
libRbt.so/2013.1/901 2013/11/27
 10  9  0  0  0  0  0  0  0  0999 V2000
   25.9886   13.9474    6.2560 N   0  0  0  0  0  0  0  0  0  0  0  0
   25.4781   13.8154    7.6461 C   0  0  2  0  0  0  0  0  0  0  0  0
   24.7984   15.1023    8.1149 C   0  0  0  0  0  0  0  0  0  0  0  0
   25.0939   16.1886    7.6267 O   0  0  0  0  0  0  0  0  0  0  0  0
   26.6065   13.3811    8.5884 C   0  0  0  0  0  0  0  0  0  0  0  0
   26.1342   13.1643   10.0224 C   0  0  0  0  0  0  0  0  0  0  0  0
   26.4072   14.3617   10.9220 C   0  0  0  0  0  0  0  0  0  0  0  0
   27.8953   14.4673   11.2576 C   0  0  0  0  0  0  0  0  0  0  0  0
   28.7792   14.7793   10.0688 N   0  0  0  0  0  0  0  0  0  0  0  0
   23.9094   15.1196    8.9585 O   0  0  0  0  0  0  0  0  0  0  0  0
  2  1  1  6  0  0  0
  2  3  1  0  0  0  0
  2  5  1  0  0  0  0
  3  4  1  0  0  0  0
  3 10  1  0  0  0  0
  5  6  1  0  0  0  0
  6  7  1  0  0  0  0
  7  8  1  0  0  0  0
  8  9  1  0  0  0  0
M  END
>  <CHROM.1>
-25.24169301,-177.34334878,-98.18527411,-73.52604666,66.15284364,26.08700507
14.46172909,8.94924357,-2.35823306,-0.43323336,1.36319776

>  <Name>
ligand

>  <RI>
0

>  <Rbt.Current_Directory>
/home/itssahil/PROJECTS/Mol_Feturizer/New_Systems/rnas/3DIM

>  <Rbt.Executable>
rbdock ($Id: //depot/dev/client3/rdock/2013.1/src/exe/rbdock.cxx#4 $)

>  <Rbt.Library>
libRbt.so (2013.1, Build901 2013/11/27)

>  <Rbt.Parameter_File>
/export/apps/rDock/src/rDock_2013.1_src/data/scripts/dock_solv.prm

>  <Rbt.Receptor>
prm/blind_docking_100.prm

>  <SCORE>
-4.21215

>  <SCORE.INTER>
-5.00974

>  <SCORE.INTER.CONST>
1

>  <SCORE.INTER.POLAR>
0

>  <SCORE.INTER.ROT>
5

>  <SCORE.INTER.SOLV>
11.8283

>  <SCORE.INTER.VDW>
-14.2159

>  <SCORE.INTER.norm>
-0.500974

>  <SCORE.INTRA>
0.797585

>  <SCORE.INTRA.DIHEDRAL>
0.940099

>  <SCORE.INTRA.DIHEDRAL.0>
5.8785

>  <SCORE.INTRA.POLAR>
0

>  <SCORE.INTRA.POLAR.0>
0

>  <SCORE.INTRA.REPUL>
0

>  <SCORE.INTRA.REPUL.0>
0

>  <SCORE.INTRA.SOLV>
0.497364

>  <SCORE.INTRA.SOLV.lig_0>
-31.9559

>  <SCORE.INTRA.VDW>
0.0788536

>  <SCORE.INTRA.VDW.0>
-0.507645

>  <SCORE.INTRA.norm>
0.0797585

>  <SCORE.RESTR>
0

>  <SCORE.RESTR.CAVITY>
0

>  <SCORE.RESTR.norm>
0

>  <SCORE.SYSTEM>
0

>  <SCORE.SYSTEM.CONST>
0

>  <SCORE.SYSTEM.DIHEDRAL>
0

>  <SCORE.SYSTEM.SOLV>
0

>  <SCORE.SYSTEM.norm>
0

>  <SCORE.heavy>
10

>  <SCORE.norm>
-0.421215

>  <RMSD>
13.756

$$$$
ligand
 OpenBabel11021811473D
libRbt.so/2013.1/901 2013/11/27
 10  9  0  0  0  0  0  0  0  0999 V2000
   26.7701   14.1477    9.6805 N   0  0  0  0  0  0  0  0  0  0  0  0
   25.3879   14.2767    9.1483 C   0  0  2  0  0  0  0  0  0  0  0  0
   25.2603   15.4801    8.2137 C   0  0  0  0  0  0  0  0  0  0  0  0
   25.3189   15.3449    6.9956 O   0  0  0  0  0  0  0  0  0  0  0  0
   24.3771   14.3290   10.2996 C   0  0  0  0  0  0  0  0  0  0  0  0
   22.9328   14.4299    9.8197 C   0  0  0  0  0  0  0  0  0  0  0  0
   21.9258   14.3762   10.9602 C   0  0  0  0  0  0  0  0  0  0  0  0
   20.4927   14.4123   10.4281 C   0  0  0  0  0  0  0  0  0  0  0  0
   19.4295   14.3759   11.5052 N   0  0  0  0  0  0  0  0  0  0  0  0
   25.0561   16.6198    8.6157 O   0  0  0  0  0  0  0  0  0  0  0  0
  2  1  1  1  0  0  0
  2  3  1  0  0  0  0
  2  5  1  0  0  0  0
  3  4  1  0  0  0  0
  3 10  1  0  0  0  0
  5  6  1  0  0  0  0
  6  7  1  0  0  0  0
  7  8  1  0  0  0  0
  8  9  1  0  0  0  0
M  END
>  <CHROM.1>
98.16398882,-178.70616041,175.68312093,-177.25036722,-179.43463883,23.70257126
14.80661623,9.53945468,-0.44766093,-0.16203888,2.19961656

>  <Name>
ligand

>  <RI>
0

>  <Rbt.Current_Directory>
/home/itssahil/PROJECTS/Mol_Feturizer/New_Systems/rnas/3DIM

>  <Rbt.Executable>
rbdock ($Id: //depot/dev/client3/rdock/2013.1/src/exe/rbdock.cxx#4 $)

>  <Rbt.Library>
libRbt.so (2013.1, Build901 2013/11/27)

>  <Rbt.Parameter_File>
/export/apps/rDock/src/rDock_2013.1_src/data/scripts/dock_solv.prm

>  <Rbt.Receptor>
prm/blind_docking_40.prm

>  <SCORE>
-6.62638

>  <SCORE.INTER>
-3.51084

>  <SCORE.INTER.CONST>
1

>  <SCORE.INTER.POLAR>
0

>  <SCORE.INTER.ROT>
5

>  <SCORE.INTER.SOLV>
6.26995

>  <SCORE.INTER.VDW>
-11.3639

>  <SCORE.INTER.norm>
-0.351084

>  <SCORE.INTRA>
-3.11555

>  <SCORE.INTRA.DIHEDRAL>
-4.18028

>  <SCORE.INTRA.DIHEDRAL.0>
5.8785

>  <SCORE.INTRA.POLAR>
0

>  <SCORE.INTRA.POLAR.0>
0

>  <SCORE.INTRA.REPUL>
0

>  <SCORE.INTRA.REPUL.0>
0

>  <SCORE.INTRA.SOLV>
-1.89809

>  <SCORE.INTRA.SOLV.lig_0>
-31.9559

>  <SCORE.INTRA.VDW>
-0.0763613

>  <SCORE.INTRA.VDW.0>
-0.507645

>  <SCORE.INTRA.norm>
-0.311555

>  <SCORE.RESTR>
0

>  <SCORE.RESTR.CAVITY>
0

>  <SCORE.RESTR.norm>
0

>  <SCORE.SYSTEM>
0

>  <SCORE.SYSTEM.CONST>
0

>  <SCORE.SYSTEM.DIHEDRAL>
0

>  <SCORE.SYSTEM.SOLV>
0

>  <SCORE.SYSTEM.norm>
0

>  <SCORE.heavy>
10

>  <SCORE.norm>
-0.662638

>  <RMSD>
13.778

$$$$
ligand
 OpenBabel11021811473D
libRbt.so/2013.1/901 2013/11/27
 10  9  0  0  0  0  0  0  0  0999 V2000
   20.8994   13.9795   11.9008 N   0  0  0  0  0  0  0  0  0  0  0  0
   22.0393   13.4162   11.1302 C   0  0  2  0  0  0  0  0  0  0  0  0
   22.9914   12.6334   12.0351 C   0  0  0  0  0  0  0  0  0  0  0  0
   23.1402   12.9401   13.2138 O   0  0  0  0  0  0  0  0  0  0  0  0
   22.7590   14.5266   10.3564 C   0  0  0  0  0  0  0  0  0  0  0  0
   23.8267   13.9942    9.4062 C   0  0  0  0  0  0  0  0  0  0  0  0
   24.5028   15.0948    8.6004 C   0  0  0  0  0  0  0  0  0  0  0  0
   25.4965   14.5080    7.5972 C   0  0  0  0  0  0  0  0  0  0  0  0
   26.6381   13.7413    8.2301 N   0  0  0  0  0  0  0  0  0  0  0  0
   23.6174   11.6505   11.6555 O   0  0  0  0  0  0  0  0  0  0  0  0
  2  1  1  1  0  0  0
  2  3  1  0  0  0  0
  2  5  1  0  0  0  0
  3  4  1  0  0  0  0
  3 10  1  0  0  0  0
  5  6  1  0  0  0  0
  6  7  1  0  0  0  0
  7  8  1  0  0  0  0
  8  9  1  0  0  0  0
M  END
>  <CHROM.1>
-30.41862142,-172.66408245,177.80772537,-176.19989130,-62.01746943,23.60474358
13.62674996,10.44089394,2.29779953,-0.46521063,2.26585320

>  <Name>
ligand

>  <RI>
0

>  <Rbt.Current_Directory>
/home/itssahil/PROJECTS/Mol_Feturizer/New_Systems/rnas/3DIM

>  <Rbt.Executable>
rbdock ($Id: //depot/dev/client3/rdock/2013.1/src/exe/rbdock.cxx#4 $)

>  <Rbt.Library>
libRbt.so (2013.1, Build901 2013/11/27)

>  <Rbt.Parameter_File>
/export/apps/rDock/src/rDock_2013.1_src/data/scripts/dock_solv.prm

>  <Rbt.Receptor>
prm/blind_docking_40.prm

>  <SCORE>
-6.8012

>  <SCORE.INTER>
-4.05736

>  <SCORE.INTER.CONST>
1

>  <SCORE.INTER.POLAR>
0

>  <SCORE.INTER.ROT>
5

>  <SCORE.INTER.SOLV>
6.43253

>  <SCORE.INTER.VDW>
-11.7824

>  <SCORE.INTER.norm>
-0.405736

>  <SCORE.INTRA>
-2.74385

>  <SCORE.INTRA.DIHEDRAL>
-4.00201

>  <SCORE.INTRA.DIHEDRAL.0>
5.8785

>  <SCORE.INTRA.POLAR>
0

>  <SCORE.INTRA.POLAR.0>
0

>  <SCORE.INTRA.REPUL>
0

>  <SCORE.INTRA.REPUL.0>
0

>  <SCORE.INTRA.SOLV>
-0.972273

>  <SCORE.INTRA.SOLV.lig_0>
-31.9559

>  <SCORE.INTRA.VDW>
-0.256706

>  <SCORE.INTRA.VDW.0>
-0.507645

>  <SCORE.INTRA.norm>
-0.274385

>  <SCORE.RESTR>
0

>  <SCORE.RESTR.CAVITY>
0

>  <SCORE.RESTR.norm>
0

>  <SCORE.SYSTEM>
0

>  <SCORE.SYSTEM.CONST>
0

>  <SCORE.SYSTEM.DIHEDRAL>
0

>  <SCORE.SYSTEM.SOLV>
0

>  <SCORE.SYSTEM.norm>
0

>  <SCORE.heavy>
10

>  <SCORE.norm>
-0.68012

>  <RMSD>
13.778

$$$$
ligand
 OpenBabel11021811473D
libRbt.so/2013.1/901 2013/11/27
 10  9  0  0  0  0  0  0  0  0999 V2000
   26.7312   13.7634    7.9783 N   0  0  0  0  0  0  0  0  0  0  0  0
   25.3150   13.8282    8.4263 C   0  0  2  0  0  0  0  0  0  0  0  0
   24.7043   15.2019    8.1472 C   0  0  0  0  0  0  0  0  0  0  0  0
   23.5723   15.3099    7.6864 O   0  0  0  0  0  0  0  0  0  0  0  0
   25.2060   13.4363    9.9042 C   0  0  0  0  0  0  0  0  0  0  0  0
   23.7670   13.2050   10.3542 C   0  0  0  0  0  0  0  0  0  0  0  0
   22.9858   14.5004   10.5253 C   0  0  0  0  0  0  0  0  0  0  0  0
   21.5735   14.2244   11.0427 C   0  0  0  0  0  0  0  0  0  0  0  0
   21.5251   13.6764   12.4531 N   0  0  0  0  0  0  0  0  0  0  0  0
   25.2810   16.2535    8.3997 O   0  0  0  0  0  0  0  0  0  0  0  0
  2  1  1  1  0  0  0
  2  3  1  0  0  0  0
  2  5  1  0  0  0  0
  3  4  1  0  0  0  0
  3 10  1  0  0  0  0
  5  6  1  0  0  0  0
  6  7  1  0  0  0  0
  7  8  1  0  0  0  0
  8  9  1  0  0  0  0
M  END
>  <CHROM.1>
136.78684758,-168.26652037,-74.67756639,-177.18712720,66.90944792,24.05814956
14.37177659,9.47783808,-0.63454714,-0.49095297,2.38745314

>  <Name>
ligand

>  <RI>
0

>  <Rbt.Current_Directory>
/home/itssahil/PROJECTS/Mol_Feturizer/New_Systems/rnas/3DIM

>  <Rbt.Executable>
rbdock ($Id: //depot/dev/client3/rdock/2013.1/src/exe/rbdock.cxx#4 $)

>  <Rbt.Library>
libRbt.so (2013.1, Build901 2013/11/27)

>  <Rbt.Parameter_File>
/export/apps/rDock/src/rDock_2013.1_src/data/scripts/dock_solv.prm

>  <Rbt.Receptor>
prm/blind_docking_40.prm

>  <SCORE>
-7.10421

>  <SCORE.INTER>
-5.09116

>  <SCORE.INTER.CONST>
1

>  <SCORE.INTER.POLAR>
0

>  <SCORE.INTER.ROT>
5

>  <SCORE.INTER.SOLV>
5.63879

>  <SCORE.INTER.VDW>
-12.207

>  <SCORE.INTER.norm>
-0.509116

>  <SCORE.INTRA>
-2.01305

>  <SCORE.INTRA.DIHEDRAL>
-2.85952

>  <SCORE.INTRA.DIHEDRAL.0>
5.8785

>  <SCORE.INTRA.POLAR>
0

>  <SCORE.INTRA.POLAR.0>
0

>  <SCORE.INTRA.REPUL>
0

>  <SCORE.INTRA.REPUL.0>
0

>  <SCORE.INTRA.SOLV>
-0.930561

>  <SCORE.INTRA.SOLV.lig_0>
-31.9559

>  <SCORE.INTRA.VDW>
-0.118012

>  <SCORE.INTRA.VDW.0>
-0.507645

>  <SCORE.INTRA.norm>
-0.201305

>  <SCORE.RESTR>
0

>  <SCORE.RESTR.CAVITY>
0

>  <SCORE.RESTR.norm>
0

>  <SCORE.SYSTEM>
0

>  <SCORE.SYSTEM.CONST>
0

>  <SCORE.SYSTEM.DIHEDRAL>
0

>  <SCORE.SYSTEM.SOLV>
0

>  <SCORE.SYSTEM.norm>
0

>  <SCORE.heavy>
10

>  <SCORE.norm>
-0.710421

>  <RMSD>
13.790

$$$$
ligand
 OpenBabel11021811473D
libRbt.so/2013.1/901 2013/11/27
 10  9  0  0  0  0  0  0  0  0999 V2000
   26.2258   15.0248    9.2127 N   0  0  0  0  0  0  0  0  0  0  0  0
   25.8249   13.6289    8.8949 C   0  0  2  0  0  0  0  0  0  0  0  0
   26.1974   13.2548    7.4599 C   0  0  0  0  0  0  0  0  0  0  0  0
   26.6760   12.1563    7.1958 O   0  0  0  0  0  0  0  0  0  0  0  0
   24.3316   13.4270    9.1761 C   0  0  0  0  0  0  0  0  0  0  0  0
   23.9669   13.6440   10.6412 C   0  0  0  0  0  0  0  0  0  0  0  0
   22.4882   13.4161   10.9223 C   0  0  0  0  0  0  0  0  0  0  0  0
   22.1718   13.6335   12.4025 C   0  0  0  0  0  0  0  0  0  0  0  0
   20.7146   13.4349   12.7615 N   0  0  0  0  0  0  0  0  0  0  0  0
   26.0065   13.9983    6.5044 O   0  0  0  0  0  0  0  0  0  0  0  0
  2  1  1  6  0  0  0
  2  3  1  0  0  0  0
  2  5  1  0  0  0  0
  3  4  1  0  0  0  0
  3 10  1  0  0  0  0
  5  6  1  0  0  0  0
  6  7  1  0  0  0  0
  7  8  1  0  0  0  0
  8  9  1  0  0  0  0
M  END
>  <CHROM.1>
138.05731532,-61.65679544,-178.87363082,179.54543628,179.57919477,24.47868335
13.55201611,9.47598395,-0.51513160,0.65606230,0.72097987

>  <Name>
ligand

>  <RI>
0

>  <Rbt.Current_Directory>
/home/itssahil/PROJECTS/Mol_Feturizer/New_Systems/rnas/3DIM

>  <Rbt.Executable>
rbdock ($Id: //depot/dev/client3/rdock/2013.1/src/exe/rbdock.cxx#4 $)

>  <Rbt.Library>
libRbt.so (2013.1, Build901 2013/11/27)

>  <Rbt.Parameter_File>
/export/apps/rDock/src/rDock_2013.1_src/data/scripts/dock_solv.prm

>  <Rbt.Receptor>
prm/blind_docking_40.prm

>  <SCORE>
-5.9066

>  <SCORE.INTER>
-2.87365

>  <SCORE.INTER.CONST>
1

>  <SCORE.INTER.POLAR>
0

>  <SCORE.INTER.ROT>
5

>  <SCORE.INTER.SOLV>
5.38367

>  <SCORE.INTER.VDW>
-10.6437

>  <SCORE.INTER.norm>
-0.287365

>  <SCORE.INTRA>
-3.03295

>  <SCORE.INTRA.DIHEDRAL>
-4.4134

>  <SCORE.INTRA.DIHEDRAL.0>
5.8785

>  <SCORE.INTRA.POLAR>
0

>  <SCORE.INTRA.POLAR.0>
0

>  <SCORE.INTRA.REPUL>
0

>  <SCORE.INTRA.REPUL.0>
0

>  <SCORE.INTRA.SOLV>
-0.987019

>  <SCORE.INTRA.SOLV.lig_0>
-31.9559

>  <SCORE.INTRA.VDW>
-0.332737

>  <SCORE.INTRA.VDW.0>
-0.507645

>  <SCORE.INTRA.norm>
-0.303295

>  <SCORE.RESTR>
0

>  <SCORE.RESTR.CAVITY>
0

>  <SCORE.RESTR.norm>
0

>  <SCORE.SYSTEM>
0

>  <SCORE.SYSTEM.CONST>
0

>  <SCORE.SYSTEM.DIHEDRAL>
0

>  <SCORE.SYSTEM.SOLV>
0

>  <SCORE.SYSTEM.norm>
0

>  <SCORE.heavy>
10

>  <SCORE.norm>
-0.59066

>  <RMSD>
13.795

$$$$
ligand
 OpenBabel11021811473D
libRbt.so/2013.1/901 2013/11/27
 10  9  0  0  0  0  0  0  0  0999 V2000
   26.7664   14.3053    9.4925 N   0  0  0  0  0  0  0  0  0  0  0  0
   25.8009   13.4602    8.7414 C   0  0  2  0  0  0  0  0  0  0  0  0
   26.2792   13.2034    7.3120 C   0  0  0  0  0  0  0  0  0  0  0  0
   26.8225   12.1464    7.0064 O   0  0  0  0  0  0  0  0  0  0  0  0
   24.4028   14.0876    8.7793 C   0  0  0  0  0  0  0  0  0  0  0  0
   23.8291   14.1786   10.1897 C   0  0  0  0  0  0  0  0  0  0  0  0
   23.6108   12.8140   10.8282 C   0  0  0  0  0  0  0  0  0  0  0  0
   22.9387   12.9495   12.1950 C   0  0  0  0  0  0  0  0  0  0  0  0
   21.5114   13.4508   12.1380 N   0  0  0  0  0  0  0  0  0  0  0  0
   26.1155   14.0038    6.3984 O   0  0  0  0  0  0  0  0  0  0  0  0
  2  1  1  6  0  0  0
  2  3  1  0  0  0  0
  2  5  1  0  0  0  0
  3  4  1  0  0  0  0
  3 10  1  0  0  0  0
  5  6  1  0  0  0  0
  6  7  1  0  0  0  0
  7  8  1  0  0  0  0
  8  9  1  0  0  0  0
M  END
>  <CHROM.1>
100.09093204,-62.97576873,-63.60267284,-175.72762165,67.60711797,24.82625262
13.45274844,9.26738812,-0.85324594,-0.13834182,1.68856319

>  <Name>
ligand

>  <RI>
0

>  <Rbt.Current_Directory>
/home/itssahil/PROJECTS/Mol_Feturizer/New_Systems/rnas/3DIM

>  <Rbt.Executable>
rbdock ($Id: //depot/dev/client3/rdock/2013.1/src/exe/rbdock.cxx#4 $)

>  <Rbt.Library>
libRbt.so (2013.1, Build901 2013/11/27)

>  <Rbt.Parameter_File>
/export/apps/rDock/src/rDock_2013.1_src/data/scripts/dock_solv.prm

>  <Rbt.Receptor>
prm/blind_docking_40.prm

>  <SCORE>
-5.72961

>  <SCORE.INTER>
-4.07251

>  <SCORE.INTER.CONST>
1

>  <SCORE.INTER.POLAR>
0

>  <SCORE.INTER.ROT>
5

>  <SCORE.INTER.SOLV>
5.87086

>  <SCORE.INTER.VDW>
-11.6053

>  <SCORE.INTER.norm>
-0.407251

>  <SCORE.INTRA>
-1.6571

>  <SCORE.INTRA.DIHEDRAL>
-3.90933

>  <SCORE.INTRA.DIHEDRAL.0>
5.8785

>  <SCORE.INTRA.POLAR>
0

>  <SCORE.INTRA.POLAR.0>
0

>  <SCORE.INTRA.REPUL>
0

>  <SCORE.INTRA.REPUL.0>
0

>  <SCORE.INTRA.SOLV>
0.355968

>  <SCORE.INTRA.SOLV.lig_0>
-31.9559

>  <SCORE.INTRA.VDW>
0.119577

>  <SCORE.INTRA.VDW.0>
-0.507645

>  <SCORE.INTRA.norm>
-0.16571

>  <SCORE.RESTR>
0

>  <SCORE.RESTR.CAVITY>
0

>  <SCORE.RESTR.norm>
0

>  <SCORE.SYSTEM>
0

>  <SCORE.SYSTEM.CONST>
0

>  <SCORE.SYSTEM.DIHEDRAL>
0

>  <SCORE.SYSTEM.SOLV>
0

>  <SCORE.SYSTEM.norm>
0

>  <SCORE.heavy>
10

>  <SCORE.norm>
-0.572961

>  <RMSD>
13.821

$$$$
ligand
 OpenBabel11021811473D
libRbt.so/2013.1/901 2013/11/27
 10  9  0  0  0  0  0  0  0  0999 V2000
   21.6212   12.0160   13.1084 N   0  0  0  0  0  0  0  0  0  0  0  0
   22.1275   13.2453   12.4429 C   0  0  2  0  0  0  0  0  0  0  0  0
   20.9862   14.2021   12.0965 C   0  0  0  0  0  0  0  0  0  0  0  0
   20.1500   13.9093   11.2477 O   0  0  0  0  0  0  0  0  0  0  0  0
   22.9671   12.8779   11.2141 C   0  0  0  0  0  0  0  0  0  0  0  0
   23.5182   14.0980   10.4832 C   0  0  0  0  0  0  0  0  0  0  0  0
   24.3064   13.7321    9.2332 C   0  0  0  0  0  0  0  0  0  0  0  0
   24.8277   14.9846    8.5277 C   0  0  0  0  0  0  0  0  0  0  0  0
   25.6344   14.7029    7.2781 N   0  0  0  0  0  0  0  0  0  0  0  0
   20.8197   15.2765   12.6623 O   0  0  0  0  0  0  0  0  0  0  0  0
  2  1  1  6  0  0  0
  2  3  1  0  0  0  0
  2  5  1  0  0  0  0
  3  4  1  0  0  0  0
  3 10  1  0  0  0  0
  5  6  1  0  0  0  0
  6  7  1  0  0  0  0
  7  8  1  0  0  0  0
  8  9  1  0  0  0  0
M  END
>  <CHROM.1>
-67.28819671,179.99065407,-177.77966078,179.48531309,179.50282560,22.66223578
13.92433653,10.83143563,-2.56847270,0.62183251,-0.63820837

>  <Name>
ligand

>  <RI>
0

>  <Rbt.Current_Directory>
/home/itssahil/PROJECTS/Mol_Feturizer/New_Systems/rnas/3DIM

>  <Rbt.Executable>
rbdock ($Id: //depot/dev/client3/rdock/2013.1/src/exe/rbdock.cxx#4 $)

>  <Rbt.Library>
libRbt.so (2013.1, Build901 2013/11/27)

>  <Rbt.Parameter_File>
/export/apps/rDock/src/rDock_2013.1_src/data/scripts/dock_solv.prm

>  <Rbt.Receptor>
prm/blind_docking_100.prm

>  <SCORE>
-5.12572

>  <SCORE.INTER>
-1.79943

>  <SCORE.INTER.CONST>
1

>  <SCORE.INTER.POLAR>
0

>  <SCORE.INTER.ROT>
5

>  <SCORE.INTER.SOLV>
7.96491

>  <SCORE.INTER.VDW>
-10.7879

>  <SCORE.INTER.norm>
-0.179943

>  <SCORE.INTRA>
-3.32629

>  <SCORE.INTRA.DIHEDRAL>
-4.38804

>  <SCORE.INTRA.DIHEDRAL.0>
5.8785

>  <SCORE.INTRA.POLAR>
0

>  <SCORE.INTRA.POLAR.0>
0

>  <SCORE.INTRA.REPUL>
0

>  <SCORE.INTRA.REPUL.0>
0

>  <SCORE.INTRA.SOLV>
-1.87052

>  <SCORE.INTRA.SOLV.lig_0>
-31.9559

>  <SCORE.INTRA.VDW>
-0.197009

>  <SCORE.INTRA.VDW.0>
-0.507645

>  <SCORE.INTRA.norm>
-0.332629

>  <SCORE.RESTR>
0

>  <SCORE.RESTR.CAVITY>
0

>  <SCORE.RESTR.norm>
0

>  <SCORE.SYSTEM>
0

>  <SCORE.SYSTEM.CONST>
0

>  <SCORE.SYSTEM.DIHEDRAL>
0

>  <SCORE.SYSTEM.SOLV>
0

>  <SCORE.SYSTEM.norm>
0

>  <SCORE.heavy>
10

>  <SCORE.norm>
-0.512572

>  <RMSD>
13.977

$$$$
ligand
 OpenBabel11021811473D
libRbt.so/2013.1/901 2013/11/27
 10  9  0  0  0  0  0  0  0  0999 V2000
   22.1264   13.2447   13.0692 N   0  0  0  0  0  0  0  0  0  0  0  0
   22.3855   13.1772   11.6068 C   0  0  2  0  0  0  0  0  0  0  0  0
   23.8254   13.5716   11.2769 C   0  0  0  0  0  0  0  0  0  0  0  0
   24.3441   13.2440   10.2142 O   0  0  0  0  0  0  0  0  0  0  0  0
   21.3637   14.0293   10.8454 C   0  0  0  0  0  0  0  0  0  0  0  0
   19.9320   13.5286   11.0078 C   0  0  0  0  0  0  0  0  0  0  0  0
   18.9428   14.2677   10.1174 C   0  0  0  0  0  0  0  0  0  0  0  0
   17.5462   13.6540   10.2225 C   0  0  0  0  0  0  0  0  0  0  0  0
   16.9674   13.6639   11.6213 N   0  0  0  0  0  0  0  0  0  0  0  0
   24.5176   14.2573   12.0204 O   0  0  0  0  0  0  0  0  0  0  0  0
  2  1  1  1  0  0  0
  2  3  1  0  0  0  0
  2  5  1  0  0  0  0
  3  4  1  0  0  0  0
  3 10  1  0  0  0  0
  5  6  1  0  0  0  0
  6  7  1  0  0  0  0
  7  8  1  0  0  0  0
  8  9  1  0  0  0  0
M  END
>  <CHROM.1>
160.00801785,-63.23348418,-172.89803507,175.06918791,59.21370632,21.23996682
13.67110467,11.19353702,0.10294219,-0.01310909,1.66334917

>  <Name>
ligand

>  <RI>
0

>  <Rbt.Current_Directory>
/home/itssahil/PROJECTS/Mol_Feturizer/New_Systems/rnas/3DIM

>  <Rbt.Executable>
rbdock ($Id: //depot/dev/client3/rdock/2013.1/src/exe/rbdock.cxx#4 $)

>  <Rbt.Library>
libRbt.so (2013.1, Build901 2013/11/27)

>  <Rbt.Parameter_File>
/export/apps/rDock/src/rDock_2013.1_src/data/scripts/dock_solv.prm

>  <Rbt.Receptor>
prm/blind_docking_40.prm

>  <SCORE>
-5.45862

>  <SCORE.INTER>
-3.16952

>  <SCORE.INTER.CONST>
1

>  <SCORE.INTER.POLAR>
0

>  <SCORE.INTER.ROT>
5

>  <SCORE.INTER.SOLV>
6.04641

>  <SCORE.INTER.VDW>
-11.0618

>  <SCORE.INTER.norm>
-0.316952

>  <SCORE.INTRA>
-2.2891

>  <SCORE.INTRA.DIHEDRAL>
-4.08651

>  <SCORE.INTRA.DIHEDRAL.0>
5.8785

>  <SCORE.INTRA.POLAR>
0

>  <SCORE.INTRA.POLAR.0>
0

>  <SCORE.INTRA.REPUL>
0

>  <SCORE.INTRA.REPUL.0>
0

>  <SCORE.INTRA.SOLV>
-0.11

>  <SCORE.INTRA.SOLV.lig_0>
-31.9559

>  <SCORE.INTRA.VDW>
-0.19084

>  <SCORE.INTRA.VDW.0>
-0.507645

>  <SCORE.INTRA.norm>
-0.22891

>  <SCORE.RESTR>
0

>  <SCORE.RESTR.CAVITY>
0

>  <SCORE.RESTR.norm>
0

>  <SCORE.SYSTEM>
0

>  <SCORE.SYSTEM.CONST>
0

>  <SCORE.SYSTEM.DIHEDRAL>
0

>  <SCORE.SYSTEM.SOLV>
0

>  <SCORE.SYSTEM.norm>
0

>  <SCORE.heavy>
10

>  <SCORE.norm>
-0.545862

>  <RMSD>
14.084

$$$$
ligand
 OpenBabel11021811473D
libRbt.so/2013.1/901 2013/11/27
 10  9  0  0  0  0  0  0  0  0999 V2000
   25.3559   14.0518   11.2820 N   0  0  0  0  0  0  0  0  0  0  0  0
   24.1544   13.8535   10.4292 C   0  0  2  0  0  0  0  0  0  0  0  0
   23.2009   12.8257   11.0396 C   0  0  0  0  0  0  0  0  0  0  0  0
   23.6278   11.8353   11.6248 O   0  0  0  0  0  0  0  0  0  0  0  0
   24.5706   13.4800    9.0019 C   0  0  0  0  0  0  0  0  0  0  0  0
   25.2754   14.6178    8.2703 C   0  0  0  0  0  0  0  0  0  0  0  0
   25.8750   14.1835    6.9402 C   0  0  0  0  0  0  0  0  0  0  0  0
   27.0816   13.2691    7.1554 C   0  0  0  0  0  0  0  0  0  0  0  0
   27.8369   12.9294    5.8881 N   0  0  0  0  0  0  0  0  0  0  0  0
   21.9817   12.9484   11.0161 O   0  0  0  0  0  0  0  0  0  0  0  0
  2  1  1  1  0  0  0
  2  3  1  0  0  0  0
  2  5  1  0  0  0  0
  3  4  1  0  0  0  0
  3 10  1  0  0  0  0
  5  6  1  0  0  0  0
  6  7  1  0  0  0  0
  7  8  1  0  0  0  0
  8  9  1  0  0  0  0
M  END
>  <CHROM.1>
-37.20819052,-67.29353476,171.19679952,-70.43542134,-172.92752930,24.86656856
13.37619676,9.28877792,-2.39434856,0.52794909,-0.92396695

>  <Name>
ligand

>  <RI>
0

>  <Rbt.Current_Directory>
/home/itssahil/PROJECTS/Mol_Feturizer/New_Systems/rnas/3DIM

>  <Rbt.Executable>
rbdock ($Id: //depot/dev/client3/rdock/2013.1/src/exe/rbdock.cxx#4 $)

>  <Rbt.Library>
libRbt.so (2013.1, Build901 2013/11/27)

>  <Rbt.Parameter_File>
/export/apps/rDock/src/rDock_2013.1_src/data/scripts/dock_solv.prm

>  <Rbt.Receptor>
prm/blind_docking_100.prm

>  <SCORE>
-4.14364

>  <SCORE.INTER>
-2.30151

>  <SCORE.INTER.CONST>
1

>  <SCORE.INTER.POLAR>
0

>  <SCORE.INTER.ROT>
5

>  <SCORE.INTER.SOLV>
8.26083

>  <SCORE.INTER.VDW>
-11.2213

>  <SCORE.INTER.norm>
-0.230151

>  <SCORE.INTRA>
-1.84212

>  <SCORE.INTRA.DIHEDRAL>
-3.12343

>  <SCORE.INTRA.DIHEDRAL.0>
5.8785

>  <SCORE.INTRA.POLAR>
0

>  <SCORE.INTRA.POLAR.0>
0

>  <SCORE.INTRA.REPUL>
0

>  <SCORE.INTRA.REPUL.0>
0

>  <SCORE.INTRA.SOLV>
-0.719328

>  <SCORE.INTRA.SOLV.lig_0>
-31.9559

>  <SCORE.INTRA.VDW>
0.0792565

>  <SCORE.INTRA.VDW.0>
-0.507645

>  <SCORE.INTRA.norm>
-0.184212

>  <SCORE.RESTR>
0

>  <SCORE.RESTR.CAVITY>
0

>  <SCORE.RESTR.norm>
0

>  <SCORE.SYSTEM>
0

>  <SCORE.SYSTEM.CONST>
0

>  <SCORE.SYSTEM.DIHEDRAL>
0

>  <SCORE.SYSTEM.SOLV>
0

>  <SCORE.SYSTEM.norm>
0

>  <SCORE.heavy>
10

>  <SCORE.norm>
-0.414364

>  <RMSD>
14.191

$$$$
ligand
 OpenBabel11021811473D
libRbt.so/2013.1/901 2013/11/27
 10  9  0  0  0  0  0  0  0  0999 V2000
   25.3571   14.1573   11.1215 N   0  0  0  0  0  0  0  0  0  0  0  0
   24.2401   14.4519   10.1856 C   0  0  2  0  0  0  0  0  0  0  0  0
   23.1643   13.3668   10.2423 C   0  0  0  0  0  0  0  0  0  0  0  0
   23.4468   12.1854   10.0686 O   0  0  0  0  0  0  0  0  0  0  0  0
   24.7770   14.6602    8.7650 C   0  0  0  0  0  0  0  0  0  0  0  0
   25.6084   13.4836    8.2643 C   0  0  0  0  0  0  0  0  0  0  0  0
   26.1663   13.7067    6.8656 C   0  0  0  0  0  0  0  0  0  0  0  0
   27.0350   12.5271    6.4273 C   0  0  0  0  0  0  0  0  0  0  0  0
   27.5969   12.6562    5.0275 N   0  0  0  0  0  0  0  0  0  0  0  0
   21.9894   13.6032   10.4989 O   0  0  0  0  0  0  0  0  0  0  0  0
  2  1  1  1  0  0  0
  2  3  1  0  0  0  0
  2  5  1  0  0  0  0
  3  4  1  0  0  0  0
  3 10  1  0  0  0  0
  5  6  1  0  0  0  0
  6  7  1  0  0  0  0
  7  8  1  0  0  0  0
  8  9  1  0  0  0  0
M  END
>  <CHROM.1>
-54.52861381,55.32158941,-178.70156565,177.83264011,178.36829421,24.90595229
13.45816748,8.75816548,-2.40711936,-0.52250135,-2.21810341

>  <Name>
ligand

>  <RI>
0

>  <Rbt.Current_Directory>
/home/itssahil/PROJECTS/Mol_Feturizer/New_Systems/rnas/3DIM

>  <Rbt.Executable>
rbdock ($Id: //depot/dev/client3/rdock/2013.1/src/exe/rbdock.cxx#4 $)

>  <Rbt.Library>
libRbt.so (2013.1, Build901 2013/11/27)

>  <Rbt.Parameter_File>
/export/apps/rDock/src/rDock_2013.1_src/data/scripts/dock_solv.prm

>  <Rbt.Receptor>
prm/blind_docking_40.prm

>  <SCORE>
-5.46232

>  <SCORE.INTER>
-2.73604

>  <SCORE.INTER.CONST>
1

>  <SCORE.INTER.POLAR>
0

>  <SCORE.INTER.ROT>
5

>  <SCORE.INTER.SOLV>
7.22093

>  <SCORE.INTER.VDW>
-11.1643

>  <SCORE.INTER.norm>
-0.273604

>  <SCORE.INTRA>
-2.72629

>  <SCORE.INTRA.DIHEDRAL>
-4.2236

>  <SCORE.INTRA.DIHEDRAL.0>
5.8785

>  <SCORE.INTRA.POLAR>
0

>  <SCORE.INTRA.POLAR.0>
0

>  <SCORE.INTRA.REPUL>
0

>  <SCORE.INTRA.REPUL.0>
0

>  <SCORE.INTRA.SOLV>
-0.881635

>  <SCORE.INTRA.SOLV.lig_0>
-31.9559

>  <SCORE.INTRA.VDW>
-0.173668

>  <SCORE.INTRA.VDW.0>
-0.507645

>  <SCORE.INTRA.norm>
-0.272629

>  <SCORE.RESTR>
0

>  <SCORE.RESTR.CAVITY>
0

>  <SCORE.RESTR.norm>
0

>  <SCORE.SYSTEM>
0

>  <SCORE.SYSTEM.CONST>
0

>  <SCORE.SYSTEM.DIHEDRAL>
0

>  <SCORE.SYSTEM.SOLV>
0

>  <SCORE.SYSTEM.norm>
0

>  <SCORE.heavy>
10

>  <SCORE.norm>
-0.546232

>  <RMSD>
14.567

$$$$
ligand
 OpenBabel11021811473D
libRbt.so/2013.1/901 2013/11/27
 10  9  0  0  0  0  0  0  0  0999 V2000
   24.6824   13.9813   11.2349 N   0  0  0  0  0  0  0  0  0  0  0  0
   23.8300   14.4432   10.1079 C   0  0  2  0  0  0  0  0  0  0  0  0
   22.3443   14.2687   10.4246 C   0  0  0  0  0  0  0  0  0  0  0  0
   21.9756   13.5916   11.3792 O   0  0  0  0  0  0  0  0  0  0  0  0
   24.2320   13.7324    8.8106 C   0  0  0  0  0  0  0  0  0  0  0  0
   25.6933   13.9581    8.4362 C   0  0  0  0  0  0  0  0  0  0  0  0
   26.0737   13.3012    7.1167 C   0  0  0  0  0  0  0  0  0  0  0  0
   27.5535   13.5221    6.8010 C   0  0  0  0  0  0  0  0  0  0  0  0
   27.9902   12.9756    5.4585 N   0  0  0  0  0  0  0  0  0  0  0  0
   21.4553   14.8157    9.7823 O   0  0  0  0  0  0  0  0  0  0  0  0
  2  1  1  1  0  0  0
  2  3  1  0  0  0  0
  2  5  1  0  0  0  0
  3  4  1  0  0  0  0
  3 10  1  0  0  0  0
  5  6  1  0  0  0  0
  6  7  1  0  0  0  0
  7  8  1  0  0  0  0
  8  9  1  0  0  0  0
M  END
>  <CHROM.1>
-13.01505814,-58.37157233,-177.50793972,-178.49663552,-176.20773164,24.53972080
13.85869938,8.97158139,-2.44686745,0.18322667,-1.56732327

>  <Name>
ligand

>  <RI>
0

>  <Rbt.Current_Directory>
/home/itssahil/PROJECTS/Mol_Feturizer/New_Systems/rnas/3DIM

>  <Rbt.Executable>
rbdock ($Id: //depot/dev/client3/rdock/2013.1/src/exe/rbdock.cxx#4 $)

>  <Rbt.Library>
libRbt.so (2013.1, Build901 2013/11/27)

>  <Rbt.Parameter_File>
/export/apps/rDock/src/rDock_2013.1_src/data/scripts/dock_solv.prm

>  <Rbt.Receptor>
prm/blind_docking_40.prm

>  <SCORE>
-4.80674

>  <SCORE.INTER>
-2.06507

>  <SCORE.INTER.CONST>
1

>  <SCORE.INTER.POLAR>
0

>  <SCORE.INTER.ROT>
5

>  <SCORE.INTER.SOLV>
6.81396

>  <SCORE.INTER.VDW>
-10.5814

>  <SCORE.INTER.norm>
-0.206507

>  <SCORE.INTRA>
-2.74167

>  <SCORE.INTRA.DIHEDRAL>
-4.21841

>  <SCORE.INTRA.DIHEDRAL.0>
5.8785

>  <SCORE.INTRA.POLAR>
0

>  <SCORE.INTRA.POLAR.0>
0

>  <SCORE.INTRA.REPUL>
0

>  <SCORE.INTRA.REPUL.0>
0

>  <SCORE.INTRA.SOLV>
-0.9167

>  <SCORE.INTRA.SOLV.lig_0>
-31.9559

>  <SCORE.INTRA.VDW>
-0.174119

>  <SCORE.INTRA.VDW.0>
-0.507645

>  <SCORE.INTRA.norm>
-0.274167

>  <SCORE.RESTR>
0

>  <SCORE.RESTR.CAVITY>
0

>  <SCORE.RESTR.norm>
0

>  <SCORE.SYSTEM>
0

>  <SCORE.SYSTEM.CONST>
0

>  <SCORE.SYSTEM.DIHEDRAL>
0

>  <SCORE.SYSTEM.SOLV>
0

>  <SCORE.SYSTEM.norm>
0

>  <SCORE.heavy>
10

>  <SCORE.norm>
-0.480674

>  <RMSD>
14.584

$$$$
ligand
 OpenBabel11021811473D
libRbt.so/2013.1/901 2013/11/27
 10  9  0  0  0  0  0  0  0  0999 V2000
   20.5723   13.5572   12.6614 N   0  0  0  0  0  0  0  0  0  0  0  0
   21.0812   14.2832   11.4680 C   0  0  2  0  0  0  0  0  0  0  0  0
   20.0491   14.2940   10.3399 C   0  0  0  0  0  0  0  0  0  0  0  0
   20.1896   15.0190    9.3600 O   0  0  0  0  0  0  0  0  0  0  0  0
   22.4229   13.6935   11.0185 C   0  0  0  0  0  0  0  0  0  0  0  0
   23.1051   14.5234    9.9356 C   0  0  0  0  0  0  0  0  0  0  0  0
   24.3650   13.8645    9.3918 C   0  0  0  0  0  0  0  0  0  0  0  0
   24.9839   14.7043    8.2738 C   0  0  0  0  0  0  0  0  0  0  0  0
   26.2269   14.0985    7.6577 N   0  0  0  0  0  0  0  0  0  0  0  0
   19.0633   13.5657   10.3289 O   0  0  0  0  0  0  0  0  0  0  0  0
  2  1  1  1  0  0  0
  2  3  1  0  0  0  0
  2  5  1  0  0  0  0
  3  4  1  0  0  0  0
  3 10  1  0  0  0  0
  5  6  1  0  0  0  0
  6  7  1  0  0  0  0
  7  8  1  0  0  0  0
  8  9  1  0  0  0  0
M  END
>  <CHROM.1>
168.15999389,-171.14714308,-174.20190093,177.81916764,-178.67401898,22.17233611
14.16132221,10.02355135,-2.68991558,0.08814240,-1.28356262

>  <Name>
ligand

>  <RI>
0

>  <Rbt.Current_Directory>
/home/itssahil/PROJECTS/Mol_Feturizer/New_Systems/rnas/3DIM

>  <Rbt.Executable>
rbdock ($Id: //depot/dev/client3/rdock/2013.1/src/exe/rbdock.cxx#4 $)

>  <Rbt.Library>
libRbt.so (2013.1, Build901 2013/11/27)

>  <Rbt.Parameter_File>
/export/apps/rDock/src/rDock_2013.1_src/data/scripts/dock_solv.prm

>  <Rbt.Receptor>
prm/blind_docking_60.prm

>  <SCORE>
-7.03664

>  <SCORE.INTER>
-3.92932

>  <SCORE.INTER.CONST>
1

>  <SCORE.INTER.POLAR>
0

>  <SCORE.INTER.ROT>
5

>  <SCORE.INTER.SOLV>
5.42073

>  <SCORE.INTER.VDW>
-11.3598

>  <SCORE.INTER.norm>
-0.392932

>  <SCORE.INTRA>
-3.10732

>  <SCORE.INTRA.DIHEDRAL>
-3.97721

>  <SCORE.INTRA.DIHEDRAL.0>
5.8785

>  <SCORE.INTRA.POLAR>
0

>  <SCORE.INTRA.POLAR.0>
0

>  <SCORE.INTRA.REPUL>
0

>  <SCORE.INTRA.REPUL.0>
0

>  <SCORE.INTRA.SOLV>
-1.8644

>  <SCORE.INTRA.SOLV.lig_0>
-31.9559

>  <SCORE.INTRA.VDW>
-0.186513

>  <SCORE.INTRA.VDW.0>
-0.507645

>  <SCORE.INTRA.norm>
-0.310732

>  <SCORE.RESTR>
0

>  <SCORE.RESTR.CAVITY>
0

>  <SCORE.RESTR.norm>
0

>  <SCORE.SYSTEM>
0

>  <SCORE.SYSTEM.CONST>
0

>  <SCORE.SYSTEM.DIHEDRAL>
0

>  <SCORE.SYSTEM.SOLV>
0

>  <SCORE.SYSTEM.norm>
0

>  <SCORE.heavy>
10

>  <SCORE.norm>
-0.703664

>  <RMSD>
14.922

$$$$
ligand
 OpenBabel11021811473D
libRbt.so/2013.1/901 2013/11/27
 10  9  0  0  0  0  0  0  0  0999 V2000
   20.3581   13.6007   12.7122 N   0  0  0  0  0  0  0  0  0  0  0  0
   20.9388   14.2176   11.4905 C   0  0  2  0  0  0  0  0  0  0  0  0
   19.9264   14.2456   10.3449 C   0  0  0  0  0  0  0  0  0  0  0  0
   20.0787   14.9925    9.3834 O   0  0  0  0  0  0  0  0  0  0  0  0
   22.2363   13.5017   11.0981 C   0  0  0  0  0  0  0  0  0  0  0  0
   22.9888   14.2067    9.9743 C   0  0  0  0  0  0  0  0  0  0  0  0
   24.2180   13.4366    9.5120 C   0  0  0  0  0  0  0  0  0  0  0  0
   24.8948   14.1400    8.3349 C   0  0  0  0  0  0  0  0  0  0  0  0
   25.3962   15.5333    8.6493 N   0  0  0  0  0  0  0  0  0  0  0  0
   18.9463   13.5110   10.3010 O   0  0  0  0  0  0  0  0  0  0  0  0
  2  1  1  1  0  0  0
  2  3  1  0  0  0  0
  2  5  1  0  0  0  0
  3  4  1  0  0  0  0
  3 10  1  0  0  0  0
  5  6  1  0  0  0  0
  6  7  1  0  0  0  0
  7  8  1  0  0  0  0
  8  9  1  0  0  0  0
M  END
>  <CHROM.1>
161.59996015,-171.75301657,-175.47033398,176.82921657,61.35173680,21.96566467
14.13950889,10.15876360,-2.72978736,0.05715796,-1.17674151

>  <Name>
ligand

>  <RI>
0

>  <Rbt.Current_Directory>
/home/itssahil/PROJECTS/Mol_Feturizer/New_Systems/rnas/3DIM

>  <Rbt.Executable>
rbdock ($Id: //depot/dev/client3/rdock/2013.1/src/exe/rbdock.cxx#4 $)

>  <Rbt.Library>
libRbt.so (2013.1, Build901 2013/11/27)

>  <Rbt.Parameter_File>
/export/apps/rDock/src/rDock_2013.1_src/data/scripts/dock_solv.prm

>  <Rbt.Receptor>
prm/blind_docking_40.prm

>  <SCORE>
-5.67479

>  <SCORE.INTER>
-2.95787

>  <SCORE.INTER.CONST>
1

>  <SCORE.INTER.POLAR>
0

>  <SCORE.INTER.ROT>
5

>  <SCORE.INTER.SOLV>
7.4495

>  <SCORE.INTER.VDW>
-11.3884

>  <SCORE.INTER.norm>
-0.295787

>  <SCORE.INTRA>
-2.71692

>  <SCORE.INTRA.DIHEDRAL>
-4.06513

>  <SCORE.INTRA.DIHEDRAL.0>
5.8785

>  <SCORE.INTRA.POLAR>
0

>  <SCORE.INTRA.POLAR.0>
0

>  <SCORE.INTRA.REPUL>
0

>  <SCORE.INTRA.REPUL.0>
0

>  <SCORE.INTRA.SOLV>
-0.977663

>  <SCORE.INTRA.SOLV.lig_0>
-31.9559

>  <SCORE.INTRA.VDW>
-0.195521

>  <SCORE.INTRA.VDW.0>
-0.507645

>  <SCORE.INTRA.norm>
-0.271692

>  <SCORE.RESTR>
0

>  <SCORE.RESTR.CAVITY>
0

>  <SCORE.RESTR.norm>
0

>  <SCORE.SYSTEM>
0

>  <SCORE.SYSTEM.CONST>
0

>  <SCORE.SYSTEM.DIHEDRAL>
0

>  <SCORE.SYSTEM.SOLV>
0

>  <SCORE.SYSTEM.norm>
0

>  <SCORE.heavy>
10

>  <SCORE.norm>
-0.567479

>  <RMSD>
14.925

$$$$
ligand
 OpenBabel11021811473D
libRbt.so/2013.1/901 2013/11/27
 10  9  0  0  0  0  0  0  0  0999 V2000
   14.8637   21.3646   14.9739 N   0  0  0  0  0  0  0  0  0  0  0  0
   16.0425   20.5091   15.2722 C   0  0  2  0  0  0  0  0  0  0  0  0
   17.1268   21.2926   16.0127 C   0  0  0  0  0  0  0  0  0  0  0  0
   17.5226   22.3761   15.5943 O   0  0  0  0  0  0  0  0  0  0  0  0
   16.5712   19.8644   13.9859 C   0  0  0  0  0  0  0  0  0  0  0  0
   17.8277   19.0296   14.2114 C   0  0  0  0  0  0  0  0  0  0  0  0
   17.5766   17.8071   15.0831 C   0  0  0  0  0  0  0  0  0  0  0  0
   18.8690   17.0228   15.3128 C   0  0  0  0  0  0  0  0  0  0  0  0
   18.6935   15.7639   16.1350 N   0  0  0  0  0  0  0  0  0  0  0  0
   17.6248   20.9122   17.0660 O   0  0  0  0  0  0  0  0  0  0  0  0
  2  1  1  6  0  0  0
  2  3  1  0  0  0  0
  2  5  1  0  0  0  0
  3  4  1  0  0  0  0
  3 10  1  0  0  0  0
  5  6  1  0  0  0  0
  6  7  1  0  0  0  0
  7  8  1  0  0  0  0
  8  9  1  0  0  0  0
M  END
>  <CHROM.1>
-50.34398559,176.99278355,65.54610270,-178.46758050,-178.07861155,17.29126877
19.62104777,15.38309176,2.14362095,-0.77900876,0.43004691

>  <Name>
ligand

>  <RI>
0

>  <Rbt.Current_Directory>
/home/itssahil/PROJECTS/Mol_Feturizer/New_Systems/rnas/3DIM

>  <Rbt.Executable>
rbdock ($Id: //depot/dev/client3/rdock/2013.1/src/exe/rbdock.cxx#4 $)

>  <Rbt.Library>
libRbt.so (2013.1, Build901 2013/11/27)

>  <Rbt.Parameter_File>
/export/apps/rDock/src/rDock_2013.1_src/data/scripts/dock_solv.prm

>  <Rbt.Receptor>
prm/blind_docking_40.prm

>  <SCORE>
-3.12681

>  <SCORE.INTER>
-0.121461

>  <SCORE.INTER.CONST>
1

>  <SCORE.INTER.POLAR>
0

>  <SCORE.INTER.ROT>
5

>  <SCORE.INTER.SOLV>
3.92514

>  <SCORE.INTER.VDW>
-8.32269

>  <SCORE.INTER.norm>
-0.0121461

>  <SCORE.INTRA>
-3.00535

>  <SCORE.INTRA.DIHEDRAL>
-4.1453

>  <SCORE.INTRA.DIHEDRAL.0>
5.8785

>  <SCORE.INTRA.POLAR>
0

>  <SCORE.INTRA.POLAR.0>
0

>  <SCORE.INTRA.REPUL>
0

>  <SCORE.INTRA.REPUL.0>
0

>  <SCORE.INTRA.SOLV>
-1.66373

>  <SCORE.INTRA.SOLV.lig_0>
-31.9559

>  <SCORE.INTRA.VDW>
-0.100834

>  <SCORE.INTRA.VDW.0>
-0.507645

>  <SCORE.INTRA.norm>
-0.300535

>  <SCORE.RESTR>
0

>  <SCORE.RESTR.CAVITY>
0

>  <SCORE.RESTR.norm>
0

>  <SCORE.SYSTEM>
0

>  <SCORE.SYSTEM.CONST>
0

>  <SCORE.SYSTEM.DIHEDRAL>
0

>  <SCORE.SYSTEM.SOLV>
0

>  <SCORE.SYSTEM.norm>
0

>  <SCORE.heavy>
10

>  <SCORE.norm>
-0.312681

>  <RMSD>
15.466

$$$$
ligand
 OpenBabel11021811473D
libRbt.so/2013.1/901 2013/11/27
 10  9  0  0  0  0  0  0  0  0999 V2000
   18.6264   13.4142   11.9960 N   0  0  0  0  0  0  0  0  0  0  0  0
   18.6617   14.3918   10.8764 C   0  0  2  0  0  0  0  0  0  0  0  0
   17.4485   14.2332    9.9594 C   0  0  0  0  0  0  0  0  0  0  0  0
   16.4207   14.8753   10.1522 O   0  0  0  0  0  0  0  0  0  0  0  0
   19.9845   14.2763   10.1105 C   0  0  0  0  0  0  0  0  0  0  0  0
   21.2067   14.3318   11.0214 C   0  0  0  0  0  0  0  0  0  0  0  0
   22.5165   14.1638   10.2641 C   0  0  0  0  0  0  0  0  0  0  0  0
   23.6914   14.0043   11.2297 C   0  0  0  0  0  0  0  0  0  0  0  0
   25.0331   13.8275   10.5512 N   0  0  0  0  0  0  0  0  0  0  0  0
   17.4452   13.5020    8.9758 O   0  0  0  0  0  0  0  0  0  0  0  0
  2  1  1  1  0  0  0
  2  3  1  0  0  0  0
  2  5  1  0  0  0  0
  3  4  1  0  0  0  0
  3 10  1  0  0  0  0
  5  6  1  0  0  0  0
  6  7  1  0  0  0  0
  7  8  1  0  0  0  0
  8  9  1  0  0  0  0
M  END
>  <CHROM.1>
91.27325461,-51.09494218,177.81653085,-171.03349499,179.82999438,20.06255415
14.10061009,10.49221860,3.03738584,0.03030513,-1.55566654

>  <Name>
ligand

>  <RI>
0

>  <Rbt.Current_Directory>
/home/itssahil/PROJECTS/Mol_Feturizer/New_Systems/rnas/3DIM

>  <Rbt.Executable>
rbdock ($Id: //depot/dev/client3/rdock/2013.1/src/exe/rbdock.cxx#4 $)

>  <Rbt.Library>
libRbt.so (2013.1, Build901 2013/11/27)

>  <Rbt.Parameter_File>
/export/apps/rDock/src/rDock_2013.1_src/data/scripts/dock_solv.prm

>  <Rbt.Receptor>
prm/blind_docking_40.prm

>  <SCORE>
-6.43735

>  <SCORE.INTER>
-4.27882

>  <SCORE.INTER.CONST>
1

>  <SCORE.INTER.POLAR>
0

>  <SCORE.INTER.ROT>
5

>  <SCORE.INTER.SOLV>
6.66633

>  <SCORE.INTER.VDW>
-12.008

>  <SCORE.INTER.norm>
-0.427882

>  <SCORE.INTRA>
-2.15854

>  <SCORE.INTRA.DIHEDRAL>
-3.65216

>  <SCORE.INTRA.DIHEDRAL.0>
5.8785

>  <SCORE.INTRA.POLAR>
0

>  <SCORE.INTRA.POLAR.0>
0

>  <SCORE.INTRA.REPUL>
0

>  <SCORE.INTRA.REPUL.0>
0

>  <SCORE.INTRA.SOLV>
-0.850637

>  <SCORE.INTRA.SOLV.lig_0>
-31.9559

>  <SCORE.INTRA.VDW>
0.0928609

>  <SCORE.INTRA.VDW.0>
-0.507645

>  <SCORE.INTRA.norm>
-0.215854

>  <SCORE.RESTR>
0

>  <SCORE.RESTR.CAVITY>
0

>  <SCORE.RESTR.norm>
0

>  <SCORE.SYSTEM>
0

>  <SCORE.SYSTEM.CONST>
0

>  <SCORE.SYSTEM.DIHEDRAL>
0

>  <SCORE.SYSTEM.SOLV>
0

>  <SCORE.SYSTEM.norm>
0

>  <SCORE.heavy>
10

>  <SCORE.norm>
-0.643735

>  <RMSD>
16.043

$$$$
ligand
 OpenBabel11021811473D
libRbt.so/2013.1/901 2013/11/27
 10  9  0  0  0  0  0  0  0  0999 V2000
   17.7988   12.4204   11.7645 N   0  0  0  0  0  0  0  0  0  0  0  0
   17.8552   13.2769   10.5505 C   0  0  2  0  0  0  0  0  0  0  0  0
   19.2471   13.8795   10.3575 C   0  0  0  0  0  0  0  0  0  0  0  0
   20.1013   13.7939   11.2342 O   0  0  0  0  0  0  0  0  0  0  0  0
   16.7627   14.3508   10.6057 C   0  0  0  0  0  0  0  0  0  0  0  0
   16.7593   15.1297   11.9171 C   0  0  0  0  0  0  0  0  0  0  0  0
   17.9686   16.0424   12.0656 C   0  0  0  0  0  0  0  0  0  0  0  0
   17.8972   16.8393   13.3688 C   0  0  0  0  0  0  0  0  0  0  0  0
   17.9332   15.9877   14.6199 N   0  0  0  0  0  0  0  0  0  0  0  0
   19.5970   14.4359    9.3230 O   0  0  0  0  0  0  0  0  0  0  0  0
  2  1  1  1  0  0  0
  2  3  1  0  0  0  0
  2  5  1  0  0  0  0
  3  4  1  0  0  0  0
  3 10  1  0  0  0  0
  5  6  1  0  0  0  0
  6  7  1  0  0  0  0
  7  8  1  0  0  0  0
  8  9  1  0  0  0  0
M  END
>  <CHROM.1>
-10.03805563,50.99710672,69.71379084,177.94261326,63.13577366,18.22577987
14.62184868,11.56865184,1.25901222,-0.34987301,-2.34699775

>  <Name>
ligand

>  <RI>
0

>  <Rbt.Current_Directory>
/home/itssahil/PROJECTS/Mol_Feturizer/New_Systems/rnas/3DIM

>  <Rbt.Executable>
rbdock ($Id: //depot/dev/client3/rdock/2013.1/src/exe/rbdock.cxx#4 $)

>  <Rbt.Library>
libRbt.so (2013.1, Build901 2013/11/27)

>  <Rbt.Parameter_File>
/export/apps/rDock/src/rDock_2013.1_src/data/scripts/dock_solv.prm

>  <Rbt.Receptor>
prm/blind_docking_100.prm

>  <SCORE>
-4.41317

>  <SCORE.INTER>
-2.98889

>  <SCORE.INTER.CONST>
1

>  <SCORE.INTER.POLAR>
0

>  <SCORE.INTER.ROT>
5

>  <SCORE.INTER.SOLV>
4.13977

>  <SCORE.INTER.VDW>
-10.3058

>  <SCORE.INTER.norm>
-0.298889

>  <SCORE.INTRA>
-1.42429

>  <SCORE.INTRA.DIHEDRAL>
-3.54867

>  <SCORE.INTRA.DIHEDRAL.0>
5.8785

>  <SCORE.INTRA.POLAR>
0

>  <SCORE.INTRA.POLAR.0>
0

>  <SCORE.INTRA.REPUL>
0

>  <SCORE.INTRA.REPUL.0>
0

>  <SCORE.INTRA.SOLV>
0.576394

>  <SCORE.INTRA.SOLV.lig_0>
-31.9559

>  <SCORE.INTRA.VDW>
0.0618522

>  <SCORE.INTRA.VDW.0>
-0.507645

>  <SCORE.INTRA.norm>
-0.142429

>  <SCORE.RESTR>
0

>  <SCORE.RESTR.CAVITY>
0

>  <SCORE.RESTR.norm>
0

>  <SCORE.SYSTEM>
0

>  <SCORE.SYSTEM.CONST>
0

>  <SCORE.SYSTEM.DIHEDRAL>
0

>  <SCORE.SYSTEM.SOLV>
0

>  <SCORE.SYSTEM.norm>
0

>  <SCORE.heavy>
10

>  <SCORE.norm>
-0.441317

>  <RMSD>
16.221

$$$$
ligand
 OpenBabel11021811473D
libRbt.so/2013.1/901 2013/11/27
 10  9  0  0  0  0  0  0  0  0999 V2000
   17.0657   14.3918   12.3402 N   0  0  0  0  0  0  0  0  0  0  0  0
   17.9977   14.4430   11.1830 C   0  0  2  0  0  0  0  0  0  0  0  0
   17.5687   13.4767   10.0784 C   0  0  0  0  0  0  0  0  0  0  0  0
   17.5387   13.8307    8.9039 O   0  0  0  0  0  0  0  0  0  0  0  0
   19.4365   14.1889   11.6469 C   0  0  0  0  0  0  0  0  0  0  0  0
   20.4663   14.4170   10.5451 C   0  0  0  0  0  0  0  0  0  0  0  0
   21.8959   14.1884   11.0157 C   0  0  0  0  0  0  0  0  0  0  0  0
   22.8972   14.5225    9.9093 C   0  0  0  0  0  0  0  0  0  0  0  0
   24.3385   14.2280   10.2667 N   0  0  0  0  0  0  0  0  0  0  0  0
   17.2750   12.3060   10.2914 O   0  0  0  0  0  0  0  0  0  0  0  0
  2  1  1  1  0  0  0
  2  3  1  0  0  0  0
  2  5  1  0  0  0  0
  3  4  1  0  0  0  0
  3 10  1  0  0  0  0
  5  6  1  0  0  0  0
  6  7  1  0  0  0  0
  7  8  1  0  0  0  0
  8  9  1  0  0  0  0
M  END
>  <CHROM.1>
133.74208797,-172.06581096,178.95743976,-176.02174931,-175.90612676,19.62654145
13.97748621,10.59302513,3.13867937,-0.13521292,-1.92342887

>  <Name>
ligand

>  <RI>
0

>  <Rbt.Current_Directory>
/home/itssahil/PROJECTS/Mol_Feturizer/New_Systems/rnas/3DIM

>  <Rbt.Executable>
rbdock ($Id: //depot/dev/client3/rdock/2013.1/src/exe/rbdock.cxx#4 $)

>  <Rbt.Library>
libRbt.so (2013.1, Build901 2013/11/27)

>  <Rbt.Parameter_File>
/export/apps/rDock/src/rDock_2013.1_src/data/scripts/dock_solv.prm

>  <Rbt.Receptor>
prm/blind_docking_40.prm

>  <SCORE>
-6.27025

>  <SCORE.INTER>
-2.8864

>  <SCORE.INTER.CONST>
1

>  <SCORE.INTER.POLAR>
0

>  <SCORE.INTER.ROT>
5

>  <SCORE.INTER.SOLV>
6.94751

>  <SCORE.INTER.VDW>
-11.1734

>  <SCORE.INTER.norm>
-0.28864

>  <SCORE.INTRA>
-3.38385

>  <SCORE.INTRA.DIHEDRAL>
-4.06081

>  <SCORE.INTRA.DIHEDRAL.0>
5.8785

>  <SCORE.INTRA.POLAR>
0

>  <SCORE.INTRA.POLAR.0>
0

>  <SCORE.INTRA.REPUL>
0

>  <SCORE.INTRA.REPUL.0>
0

>  <SCORE.INTRA.SOLV>
-1.88151

>  <SCORE.INTRA.SOLV.lig_0>
-31.9559

>  <SCORE.INTRA.VDW>
-0.412697

>  <SCORE.INTRA.VDW.0>
-0.507645

>  <SCORE.INTRA.norm>
-0.338385

>  <SCORE.RESTR>
0

>  <SCORE.RESTR.CAVITY>
0

>  <SCORE.RESTR.norm>
0

>  <SCORE.SYSTEM>
0

>  <SCORE.SYSTEM.CONST>
0

>  <SCORE.SYSTEM.DIHEDRAL>
0

>  <SCORE.SYSTEM.SOLV>
0

>  <SCORE.SYSTEM.norm>
0

>  <SCORE.heavy>
10

>  <SCORE.norm>
-0.627025

>  <RMSD>
16.245

$$$$
ligand
 OpenBabel11021811473D
libRbt.so/2013.1/901 2013/11/27
 10  9  0  0  0  0  0  0  0  0999 V2000
   17.4027   20.1076   16.6737 N   0  0  0  0  0  0  0  0  0  0  0  0
   16.6175   20.4917   15.4711 C   0  0  2  0  0  0  0  0  0  0  0  0
   17.0499   19.6895   14.2433 C   0  0  0  0  0  0  0  0  0  0  0  0
   16.2715   19.4783   13.3186 O   0  0  0  0  0  0  0  0  0  0  0  0
   16.7098   22.0036   15.2359 C   0  0  0  0  0  0  0  0  0  0  0  0
   15.8172   22.4844   14.0963 C   0  0  0  0  0  0  0  0  0  0  0  0
   15.9931   23.9657   13.7923 C   0  0  0  0  0  0  0  0  0  0  0  0
   15.1191   24.3905   12.6117 C   0  0  0  0  0  0  0  0  0  0  0  0
   13.6324   24.2393   12.8538 N   0  0  0  0  0  0  0  0  0  0  0  0
   18.1862   19.2545   14.0954 O   0  0  0  0  0  0  0  0  0  0  0  0
  2  1  1  1  0  0  0
  2  3  1  0  0  0  0
  2  5  1  0  0  0  0
  3  4  1  0  0  0  0
  3 10  1  0  0  0  0
  5  6  1  0  0  0  0
  6  7  1  0  0  0  0
  7  8  1  0  0  0  0
  8  9  1  0  0  0  0
M  END
>  <CHROM.1>
153.21536966,-174.43228710,-175.43675991,177.88484423,62.77025606,16.29326887
21.58302415,14.21531874,-0.32343107,-1.05043249,0.81937942

>  <Name>
ligand

>  <RI>
0

>  <Rbt.Current_Directory>
/home/itssahil/PROJECTS/Mol_Feturizer/New_Systems/rnas/3DIM

>  <Rbt.Executable>
rbdock ($Id: //depot/dev/client3/rdock/2013.1/src/exe/rbdock.cxx#4 $)

>  <Rbt.Library>
libRbt.so (2013.1, Build901 2013/11/27)

>  <Rbt.Parameter_File>
/export/apps/rDock/src/rDock_2013.1_src/data/scripts/dock_solv.prm

>  <Rbt.Receptor>
prm/blind_docking_60.prm

>  <SCORE>
-4.00839

>  <SCORE.INTER>
-1.15672

>  <SCORE.INTER.CONST>
1

>  <SCORE.INTER.POLAR>
0

>  <SCORE.INTER.ROT>
5

>  <SCORE.INTER.SOLV>
5.53429

>  <SCORE.INTER.VDW>
-9.54924

>  <SCORE.INTER.norm>
-0.115672

>  <SCORE.INTRA>
-2.85168

>  <SCORE.INTRA.DIHEDRAL>
-4.21221

>  <SCORE.INTRA.DIHEDRAL.0>
5.8785

>  <SCORE.INTRA.POLAR>
0

>  <SCORE.INTRA.POLAR.0>
0

>  <SCORE.INTRA.REPUL>
0

>  <SCORE.INTRA.REPUL.0>
0

>  <SCORE.INTRA.SOLV>
-0.999424

>  <SCORE.INTRA.SOLV.lig_0>
-31.9559

>  <SCORE.INTRA.VDW>
-0.245864

>  <SCORE.INTRA.VDW.0>
-0.507645

>  <SCORE.INTRA.norm>
-0.285168

>  <SCORE.RESTR>
0

>  <SCORE.RESTR.CAVITY>
0

>  <SCORE.RESTR.norm>
0

>  <SCORE.SYSTEM>
0

>  <SCORE.SYSTEM.CONST>
0

>  <SCORE.SYSTEM.DIHEDRAL>
0

>  <SCORE.SYSTEM.SOLV>
0

>  <SCORE.SYSTEM.norm>
0

>  <SCORE.heavy>
10

>  <SCORE.norm>
-0.400839

>  <RMSD>
17.323

$$$$
ligand
 OpenBabel11021811473D
libRbt.so/2013.1/901 2013/11/27
 10  9  0  0  0  0  0  0  0  0999 V2000
   13.8374   28.9768   15.5378 N   0  0  0  0  0  0  0  0  0  0  0  0
   14.8706   28.0944   14.9343 C   0  0  2  0  0  0  0  0  0  0  0  0
   15.7307   28.8536   13.9234 C   0  0  0  0  0  0  0  0  0  0  0  0
   15.3032   29.1250   12.8057 O   0  0  0  0  0  0  0  0  0  0  0  0
   14.2161   26.8522   14.3191 C   0  0  0  0  0  0  0  0  0  0  0  0
   15.2247   25.7696   13.9487 C   0  0  0  0  0  0  0  0  0  0  0  0
   14.5996   24.6212   13.1689 C   0  0  0  0  0  0  0  0  0  0  0  0
   15.6086   23.4930   12.9514 C   0  0  0  0  0  0  0  0  0  0  0  0
   16.0023   22.7599   14.2161 N   0  0  0  0  0  0  0  0  0  0  0  0
   16.8578   29.2621   14.1782 O   0  0  0  0  0  0  0  0  0  0  0  0
  2  1  1  6  0  0  0
  2  3  1  0  0  0  0
  2  5  1  0  0  0  0
  3  4  1  0  0  0  0
  3 10  1  0  0  0  0
  5  6  1  0  0  0  0
  6  7  1  0  0  0  0
  7  8  1  0  0  0  0
  8  9  1  0  0  0  0
M  END
>  <CHROM.1>
-76.08425091,-167.78545526,-172.19869727,-173.85466897,68.18700604,15.24439605
26.80951415,13.97833543,1.59904746,0.62680849,0.10661172

>  <Name>
ligand

>  <RI>
0

>  <Rbt.Current_Directory>
/home/itssahil/PROJECTS/Mol_Feturizer/New_Systems/rnas/3DIM

>  <Rbt.Executable>
rbdock ($Id: //depot/dev/client3/rdock/2013.1/src/exe/rbdock.cxx#4 $)

>  <Rbt.Library>
libRbt.so (2013.1, Build901 2013/11/27)

>  <Rbt.Parameter_File>
/export/apps/rDock/src/rDock_2013.1_src/data/scripts/dock_solv.prm

>  <Rbt.Receptor>
prm/blind_docking_80.prm

>  <SCORE>
-2.25521

>  <SCORE.INTER>
0.127445

>  <SCORE.INTER.CONST>
1

>  <SCORE.INTER.POLAR>
0

>  <SCORE.INTER.ROT>
5

>  <SCORE.INTER.SOLV>
5.69028

>  <SCORE.INTER.VDW>
-8.74513

>  <SCORE.INTER.norm>
0.0127445

>  <SCORE.INTRA>
-2.38266

>  <SCORE.INTRA.DIHEDRAL>
-3.23955

>  <SCORE.INTRA.DIHEDRAL.0>
5.8785

>  <SCORE.INTRA.POLAR>
0

>  <SCORE.INTRA.POLAR.0>
0

>  <SCORE.INTRA.REPUL>
0

>  <SCORE.INTRA.REPUL.0>
0

>  <SCORE.INTRA.SOLV>
-1.01951

>  <SCORE.INTRA.SOLV.lig_0>
-31.9559

>  <SCORE.INTRA.VDW>
-0.253128

>  <SCORE.INTRA.VDW.0>
-0.507645

>  <SCORE.INTRA.norm>
-0.238266

>  <SCORE.RESTR>
0

>  <SCORE.RESTR.CAVITY>
0

>  <SCORE.RESTR.norm>
0

>  <SCORE.SYSTEM>
0

>  <SCORE.SYSTEM.CONST>
0

>  <SCORE.SYSTEM.DIHEDRAL>
0

>  <SCORE.SYSTEM.SOLV>
0

>  <SCORE.SYSTEM.norm>
0

>  <SCORE.heavy>
10

>  <SCORE.norm>
-0.225521

>  <RMSD>
20.420

$$$$
ligand
 OpenBabel11021811473D
libRbt.so/2013.1/901 2013/11/27
 10  9  0  0  0  0  0  0  0  0999 V2000
   11.9931   23.9809   18.2349 N   0  0  0  0  0  0  0  0  0  0  0  0
   11.1424   24.9092   17.4445 C   0  0  2  0  0  0  0  0  0  0  0  0
   10.5785   26.0297   18.3188 C   0  0  0  0  0  0  0  0  0  0  0  0
   10.8310   26.0849   19.5183 O   0  0  0  0  0  0  0  0  0  0  0  0
   10.0390   24.1318   16.7179 C   0  0  0  0  0  0  0  0  0  0  0  0
    9.3974   24.9269   15.5854 C   0  0  0  0  0  0  0  0  0  0  0  0
   10.3329   25.1294   14.4015 C   0  0  0  0  0  0  0  0  0  0  0  0
    9.6188   25.8463   13.2551 C   0  0  0  0  0  0  0  0  0  0  0  0
   10.4806   26.0712   12.0309 N   0  0  0  0  0  0  0  0  0  0  0  0
    9.8896   26.9412   17.8752 O   0  0  0  0  0  0  0  0  0  0  0  0
  2  1  1  1  0  0  0
  2  3  1  0  0  0  0
  2  5  1  0  0  0  0
  3  4  1  0  0  0  0
  3 10  1  0  0  0  0
  5  6  1  0  0  0  0
  6  7  1  0  0  0  0
  7  8  1  0  0  0  0
  8  9  1  0  0  0  0
M  END
>  <CHROM.1>
-0.54509683,-162.94664209,69.81438317,176.13384242,-179.32595942,10.42093415
25.43084269,16.36833238,-1.21170466,1.13396164,-1.87399571

>  <Name>
ligand

>  <RI>
0

>  <Rbt.Current_Directory>
/home/itssahil/PROJECTS/Mol_Feturizer/New_Systems/rnas/3DIM

>  <Rbt.Executable>
rbdock ($Id: //depot/dev/client3/rdock/2013.1/src/exe/rbdock.cxx#4 $)

>  <Rbt.Library>
libRbt.so (2013.1, Build901 2013/11/27)

>  <Rbt.Parameter_File>
/export/apps/rDock/src/rDock_2013.1_src/data/scripts/dock_solv.prm

>  <Rbt.Receptor>
prm/blind_docking_80.prm

>  <SCORE>
-3.27295

>  <SCORE.INTER>
-0.957658

>  <SCORE.INTER.CONST>
1

>  <SCORE.INTER.POLAR>
0

>  <SCORE.INTER.ROT>
5

>  <SCORE.INTER.SOLV>
2.92295

>  <SCORE.INTER.VDW>
-8.54609

>  <SCORE.INTER.norm>
-0.0957658

>  <SCORE.INTRA>
-2.31529

>  <SCORE.INTRA.DIHEDRAL>
-2.86624

>  <SCORE.INTRA.DIHEDRAL.0>
5.8785

>  <SCORE.INTRA.POLAR>
0

>  <SCORE.INTRA.POLAR.0>
0

>  <SCORE.INTRA.REPUL>
0

>  <SCORE.INTRA.REPUL.0>
0

>  <SCORE.INTRA.SOLV>
-1.52797

>  <SCORE.INTRA.SOLV.lig_0>
-31.9559

>  <SCORE.INTRA.VDW>
-0.118188

>  <SCORE.INTRA.VDW.0>
-0.507645

>  <SCORE.INTRA.norm>
-0.231529

>  <SCORE.RESTR>
0

>  <SCORE.RESTR.CAVITY>
0

>  <SCORE.RESTR.norm>
0

>  <SCORE.SYSTEM>
0

>  <SCORE.SYSTEM.CONST>
0

>  <SCORE.SYSTEM.DIHEDRAL>
0

>  <SCORE.SYSTEM.SOLV>
0

>  <SCORE.SYSTEM.norm>
0

>  <SCORE.heavy>
10

>  <SCORE.norm>
-0.327295

>  <RMSD>
23.050

$$$$
ligand
 OpenBabel11021811473D
libRbt.so/2013.1/901 2013/11/27
 10  9  0  0  0  0  0  0  0  0999 V2000
   17.4869   32.2164   14.4625 N   0  0  0  0  0  0  0  0  0  0  0  0
   17.6893   33.6892   14.4803 C   0  0  2  0  0  0  0  0  0  0  0  0
   16.5284   34.4031   15.1734 C   0  0  0  0  0  0  0  0  0  0  0  0
   16.6945   35.0026   16.2311 O   0  0  0  0  0  0  0  0  0  0  0  0
   17.9229   34.2114   13.0581 C   0  0  0  0  0  0  0  0  0  0  0  0
   19.1637   33.6151   12.4013 C   0  0  0  0  0  0  0  0  0  0  0  0
   19.3517   34.0782   10.9634 C   0  0  0  0  0  0  0  0  0  0  0  0
   20.6047   33.4556   10.3464 C   0  0  0  0  0  0  0  0  0  0  0  0
   20.7898   33.7611    8.8753 N   0  0  0  0  0  0  0  0  0  0  0  0
   15.3975   34.4520   14.7034 O   0  0  0  0  0  0  0  0  0  0  0  0
  2  1  1  6  0  0  0
  2  3  1  0  0  0  0
  2  5  1  0  0  0  0
  3  4  1  0  0  0  0
  3 10  1  0  0  0  0
  5  6  1  0  0  0  0
  6  7  1  0  0  0  0
  7  8  1  0  0  0  0
  8  9  1  0  0  0  0
M  END
>  <CHROM.1>
114.00803805,-61.10771224,176.92305369,-179.95904595,174.41007440,18.13020978
33.90625670,13.09682130,-2.68716014,0.85394290,-0.68774445

>  <Name>
ligand

>  <RI>
0

>  <Rbt.Current_Directory>
/home/itssahil/PROJECTS/Mol_Feturizer/New_Systems/rnas/3DIM

>  <Rbt.Executable>
rbdock ($Id: //depot/dev/client3/rdock/2013.1/src/exe/rbdock.cxx#4 $)

>  <Rbt.Library>
libRbt.so (2013.1, Build901 2013/11/27)

>  <Rbt.Parameter_File>
/export/apps/rDock/src/rDock_2013.1_src/data/scripts/dock_solv.prm

>  <Rbt.Receptor>
prm/blind_docking_100.prm

>  <SCORE>
-5.08939

>  <SCORE.INTER>
-2.26566

>  <SCORE.INTER.CONST>
1

>  <SCORE.INTER.POLAR>
0

>  <SCORE.INTER.ROT>
5

>  <SCORE.INTER.SOLV>
5.56596

>  <SCORE.INTER.VDW>
-10.2991

>  <SCORE.INTER.norm>
-0.226566

>  <SCORE.INTRA>
-2.82373

>  <SCORE.INTRA.DIHEDRAL>
-4.17542

>  <SCORE.INTRA.DIHEDRAL.0>
5.8785

>  <SCORE.INTRA.POLAR>
0

>  <SCORE.INTRA.POLAR.0>
0

>  <SCORE.INTRA.REPUL>
0

>  <SCORE.INTRA.REPUL.0>
0

>  <SCORE.INTRA.SOLV>
-0.966881

>  <SCORE.INTRA.SOLV.lig_0>
-31.9559

>  <SCORE.INTRA.VDW>
-0.252576

>  <SCORE.INTRA.VDW.0>
-0.507645

>  <SCORE.INTRA.norm>
-0.282373

>  <SCORE.RESTR>
0

>  <SCORE.RESTR.CAVITY>
0

>  <SCORE.RESTR.norm>
0

>  <SCORE.SYSTEM>
0

>  <SCORE.SYSTEM.CONST>
0

>  <SCORE.SYSTEM.DIHEDRAL>
0

>  <SCORE.SYSTEM.SOLV>
0

>  <SCORE.SYSTEM.norm>
0

>  <SCORE.heavy>
10

>  <SCORE.norm>
-0.508939

>  <RMSD>
23.698

$$$$
ligand
 OpenBabel11021811473D
libRbt.so/2013.1/901 2013/11/27
 10  9  0  0  0  0  0  0  0  0999 V2000
   16.1024   33.1961   14.4696 N   0  0  0  0  0  0  0  0  0  0  0  0
   17.0305   34.3575   14.4819 C   0  0  2  0  0  0  0  0  0  0  0  0
   18.0137   34.2978   13.3124 C   0  0  0  0  0  0  0  0  0  0  0  0
   17.9780   35.1305   12.4119 O   0  0  0  0  0  0  0  0  0  0  0  0
   17.7457   34.4529   15.8344 C   0  0  0  0  0  0  0  0  0  0  0  0
   16.8099   34.8337   16.9771 C   0  0  0  0  0  0  0  0  0  0  0  0
   17.5328   34.9824   18.3085 C   0  0  0  0  0  0  0  0  0  0  0  0
   16.5597   35.3794   19.4193 C   0  0  0  0  0  0  0  0  0  0  0  0
   17.1975   35.5100   20.7860 N   0  0  0  0  0  0  0  0  0  0  0  0
   18.9018   33.4572   13.2281 O   0  0  0  0  0  0  0  0  0  0  0  0
  2  1  1  1  0  0  0
  2  3  1  0  0  0  0
  2  5  1  0  0  0  0
  3  4  1  0  0  0  0
  3 10  1  0  0  0  0
  5  6  1  0  0  0  0
  6  7  1  0  0  0  0
  7  8  1  0  0  0  0
  8  9  1  0  0  0  0
M  END
>  <CHROM.1>
113.47984971,-68.43809825,-177.68939530,179.35593754,178.39278197,17.41042688
34.55755665,15.88327550,1.41670464,-0.43135998,-1.80981772

>  <Name>
ligand

>  <RI>
0

>  <Rbt.Current_Directory>
/home/itssahil/PROJECTS/Mol_Feturizer/New_Systems/rnas/3DIM

>  <Rbt.Executable>
rbdock ($Id: //depot/dev/client3/rdock/2013.1/src/exe/rbdock.cxx#4 $)

>  <Rbt.Library>
libRbt.so (2013.1, Build901 2013/11/27)

>  <Rbt.Parameter_File>
/export/apps/rDock/src/rDock_2013.1_src/data/scripts/dock_solv.prm

>  <Rbt.Receptor>
prm/blind_docking_80.prm

>  <SCORE>
-4.0382

>  <SCORE.INTER>
-1.16774

>  <SCORE.INTER.CONST>
1

>  <SCORE.INTER.POLAR>
0

>  <SCORE.INTER.ROT>
5

>  <SCORE.INTER.SOLV>
6.00666

>  <SCORE.INTER.VDW>
-9.71404

>  <SCORE.INTER.norm>
-0.116774

>  <SCORE.INTRA>
-2.87046

>  <SCORE.INTRA.DIHEDRAL>
-4.00879

>  <SCORE.INTRA.DIHEDRAL.0>
5.8785

>  <SCORE.INTRA.POLAR>
0

>  <SCORE.INTRA.POLAR.0>
0

>  <SCORE.INTRA.REPUL>
0

>  <SCORE.INTRA.REPUL.0>
0

>  <SCORE.INTRA.SOLV>
-1.09422

>  <SCORE.INTRA.SOLV.lig_0>
-31.9559

>  <SCORE.INTRA.VDW>
-0.318957

>  <SCORE.INTRA.VDW.0>
-0.507645

>  <SCORE.INTRA.norm>
-0.287046

>  <SCORE.RESTR>
0

>  <SCORE.RESTR.CAVITY>
0

>  <SCORE.RESTR.norm>
0

>  <SCORE.SYSTEM>
0

>  <SCORE.SYSTEM.CONST>
0

>  <SCORE.SYSTEM.DIHEDRAL>
0

>  <SCORE.SYSTEM.SOLV>
0

>  <SCORE.SYSTEM.norm>
0

>  <SCORE.heavy>
10

>  <SCORE.norm>
-0.40382

>  <RMSD>
23.816

$$$$
ligand
 OpenBabel11021811473D
libRbt.so/2013.1/901 2013/11/27
 10  9  0  0  0  0  0  0  0  0999 V2000
   11.1061   29.8184   13.6779 N   0  0  0  0  0  0  0  0  0  0  0  0
   10.5145   28.9924   14.7634 C   0  0  2  0  0  0  0  0  0  0  0  0
   10.8115   29.5863   16.1407 C   0  0  0  0  0  0  0  0  0  0  0  0
    9.9157   29.7637   16.9603 O   0  0  0  0  0  0  0  0  0  0  0  0
   10.9893   27.5396   14.6456 C   0  0  0  0  0  0  0  0  0  0  0  0
   10.3595   26.6211   15.6877 C   0  0  0  0  0  0  0  0  0  0  0  0
   10.7858   25.1682   15.5299 C   0  0  0  0  0  0  0  0  0  0  0  0
   10.1219   24.2843   16.5864 C   0  0  0  0  0  0  0  0  0  0  0  0
   10.5493   22.8328   16.5392 N   0  0  0  0  0  0  0  0  0  0  0  0
   11.9424   29.8761   16.5140 O   0  0  0  0  0  0  0  0  0  0  0  0
  2  1  1  6  0  0  0
  2  3  1  0  0  0  0
  2  5  1  0  0  0  0
  3  4  1  0  0  0  0
  3 10  1  0  0  0  0
  5  6  1  0  0  0  0
  6  7  1  0  0  0  0
  7  8  1  0  0  0  0
  8  9  1  0  0  0  0
M  END
>  <CHROM.1>
129.71476650,-176.95346626,177.47833854,-179.51554428,-177.12161432,10.71563398
27.47334272,15.73404535,-1.02457779,-1.40772758,-2.71945676

>  <Name>
ligand

>  <RI>
0

>  <Rbt.Current_Directory>
/home/itssahil/PROJECTS/Mol_Feturizer/New_Systems/rnas/3DIM

>  <Rbt.Executable>
rbdock ($Id: //depot/dev/client3/rdock/2013.1/src/exe/rbdock.cxx#4 $)

>  <Rbt.Library>
libRbt.so (2013.1, Build901 2013/11/27)

>  <Rbt.Parameter_File>
/export/apps/rDock/src/rDock_2013.1_src/data/scripts/dock_solv.prm

>  <Rbt.Receptor>
prm/blind_docking_80.prm

>  <SCORE>
-3.80755

>  <SCORE.INTER>
-0.356797

>  <SCORE.INTER.CONST>
1

>  <SCORE.INTER.POLAR>
0

>  <SCORE.INTER.ROT>
5

>  <SCORE.INTER.SOLV>
4.1479

>  <SCORE.INTER.VDW>
-8.55383

>  <SCORE.INTER.norm>
-0.0356797

>  <SCORE.INTRA>
-3.45075

>  <SCORE.INTRA.DIHEDRAL>
-4.3177

>  <SCORE.INTRA.DIHEDRAL.0>
5.8785

>  <SCORE.INTRA.POLAR>
0

>  <SCORE.INTRA.POLAR.0>
0

>  <SCORE.INTRA.REPUL>
0

>  <SCORE.INTRA.REPUL.0>
0

>  <SCORE.INTRA.SOLV>
-1.8879

>  <SCORE.INTRA.SOLV.lig_0>
-31.9559

>  <SCORE.INTRA.VDW>
-0.347949

>  <SCORE.INTRA.VDW.0>
-0.507645

>  <SCORE.INTRA.norm>
-0.345075

>  <SCORE.RESTR>
0

>  <SCORE.RESTR.CAVITY>
0

>  <SCORE.RESTR.norm>
0

>  <SCORE.SYSTEM>
0

>  <SCORE.SYSTEM.CONST>
0

>  <SCORE.SYSTEM.DIHEDRAL>
0

>  <SCORE.SYSTEM.SOLV>
0

>  <SCORE.SYSTEM.norm>
0

>  <SCORE.heavy>
10

>  <SCORE.norm>
-0.380755

>  <RMSD>
23.845

$$$$
ligand
 OpenBabel11021811473D
libRbt.so/2013.1/901 2013/11/27
 10  9  0  0  0  0  0  0  0  0999 V2000
   11.6145   25.1783   18.4507 N   0  0  0  0  0  0  0  0  0  0  0  0
   10.7449   26.1275   17.7069 C   0  0  2  0  0  0  0  0  0  0  0  0
    9.6518   25.3915   16.9314 C   0  0  0  0  0  0  0  0  0  0  0  0
    9.8514   24.9787   15.7932 O   0  0  0  0  0  0  0  0  0  0  0  0
   11.5925   27.0263   16.7993 C   0  0  0  0  0  0  0  0  0  0  0  0
   10.7703   28.0912   16.0806 C   0  0  0  0  0  0  0  0  0  0  0  0
   11.6072   28.9524   15.1449 C   0  0  0  0  0  0  0  0  0  0  0  0
   10.7232   29.9056   14.3399 C   0  0  0  0  0  0  0  0  0  0  0  0
   11.4759   30.7494   13.3333 N   0  0  0  0  0  0  0  0  0  0  0  0
    8.5497   25.1405   17.4053 O   0  0  0  0  0  0  0  0  0  0  0  0
  2  1  1  6  0  0  0
  2  3  1  0  0  0  0
  2  5  1  0  0  0  0
  3  4  1  0  0  0  0
  3 10  1  0  0  0  0
  5  6  1  0  0  0  0
  6  7  1  0  0  0  0
  7  8  1  0  0  0  0
  8  9  1  0  0  0  0
M  END
>  <CHROM.1>
-87.55546011,-175.92551973,-178.09471515,174.09311916,-177.06774772,10.63089242
27.12786819,16.18860301,-1.81953105,-0.54029098,-0.72505431

>  <Name>
ligand

>  <RI>
0

>  <Rbt.Current_Directory>
/home/itssahil/PROJECTS/Mol_Feturizer/New_Systems/rnas/3DIM

>  <Rbt.Executable>
rbdock ($Id: //depot/dev/client3/rdock/2013.1/src/exe/rbdock.cxx#4 $)

>  <Rbt.Library>
libRbt.so (2013.1, Build901 2013/11/27)

>  <Rbt.Parameter_File>
/export/apps/rDock/src/rDock_2013.1_src/data/scripts/dock_solv.prm

>  <Rbt.Receptor>
prm/blind_docking_40.prm

>  <SCORE>
-4.11108

>  <SCORE.INTER>
-1.05857

>  <SCORE.INTER.CONST>
1

>  <SCORE.INTER.POLAR>
0

>  <SCORE.INTER.ROT>
5

>  <SCORE.INTER.SOLV>
4.08518

>  <SCORE.INTER.VDW>
-9.00077

>  <SCORE.INTER.norm>
-0.105857

>  <SCORE.INTRA>
-3.05508

>  <SCORE.INTRA.DIHEDRAL>
-4.2069

>  <SCORE.INTRA.DIHEDRAL.0>
5.8785

>  <SCORE.INTRA.POLAR>
0

>  <SCORE.INTRA.POLAR.0>
0

>  <SCORE.INTRA.REPUL>
0

>  <SCORE.INTRA.REPUL.0>
0

>  <SCORE.INTRA.SOLV>
-1.8744

>  <SCORE.INTRA.SOLV.lig_0>
-31.9559

>  <SCORE.INTRA.VDW>
-0.0144237

>  <SCORE.INTRA.VDW.0>
-0.507645

>  <SCORE.INTRA.norm>
-0.305508

>  <SCORE.RESTR>
0.00256716

>  <SCORE.RESTR.CAVITY>
0.00256716

>  <SCORE.RESTR.norm>
0.000256716

>  <SCORE.SYSTEM>
0

>  <SCORE.SYSTEM.CONST>
0

>  <SCORE.SYSTEM.DIHEDRAL>
0

>  <SCORE.SYSTEM.SOLV>
0

>  <SCORE.SYSTEM.norm>
0

>  <SCORE.heavy>
10

>  <SCORE.norm>
-0.411108

>  <RMSD>
23.875

$$$$
ligand
 OpenBabel11021811473D
libRbt.so/2013.1/901 2013/11/27
 10  9  0  0  0  0  0  0  0  0999 V2000
   16.1385   36.7883   19.7250 N   0  0  0  0  0  0  0  0  0  0  0  0
   16.4365   37.2783   21.0967 C   0  0  2  0  0  0  0  0  0  0  0  0
   16.5560   38.8023   21.1306 C   0  0  0  0  0  0  0  0  0  0  0  0
   15.7549   39.4864   21.7596 O   0  0  0  0  0  0  0  0  0  0  0  0
   17.6890   36.5876   21.6481 C   0  0  0  0  0  0  0  0  0  0  0  0
   17.5109   35.0829   21.8229 C   0  0  0  0  0  0  0  0  0  0  0  0
   18.6184   34.4491   22.6531 C   0  0  0  0  0  0  0  0  0  0  0  0
   18.3993   32.9429   22.8006 C   0  0  0  0  0  0  0  0  0  0  0  0
   19.4070   32.2537   23.6957 N   0  0  0  0  0  0  0  0  0  0  0  0
   17.4625   39.4140   20.5771 O   0  0  0  0  0  0  0  0  0  0  0  0
  2  1  1  6  0  0  0
  2  3  1  0  0  0  0
  2  5  1  0  0  0  0
  3  4  1  0  0  0  0
  3 10  1  0  0  0  0
  5  6  1  0  0  0  0
  6  7  1  0  0  0  0
  7  8  1  0  0  0  0
  8  9  1  0  0  0  0
M  END
>  <CHROM.1>
115.04964814,-64.01581846,-166.97456486,-179.95188906,-175.91864859,17.39401957
36.35433428,21.68857244,2.22330510,-0.95022455,0.20808531

>  <Name>
ligand

>  <RI>
0

>  <Rbt.Current_Directory>
/home/itssahil/PROJECTS/Mol_Feturizer/New_Systems/rnas/3DIM

>  <Rbt.Executable>
rbdock ($Id: //depot/dev/client3/rdock/2013.1/src/exe/rbdock.cxx#4 $)

>  <Rbt.Library>
libRbt.so (2013.1, Build901 2013/11/27)

>  <Rbt.Parameter_File>
/export/apps/rDock/src/rDock_2013.1_src/data/scripts/dock_solv.prm

>  <Rbt.Receptor>
prm/blind_docking_80.prm

>  <SCORE>
-5.48518

>  <SCORE.INTER>
-2.89825

>  <SCORE.INTER.CONST>
1

>  <SCORE.INTER.POLAR>
0

>  <SCORE.INTER.ROT>
5

>  <SCORE.INTER.SOLV>
8.70801

>  <SCORE.INTER.VDW>
-11.7682

>  <SCORE.INTER.norm>
-0.289825

>  <SCORE.INTRA>
-2.58693

>  <SCORE.INTRA.DIHEDRAL>
-3.52412

>  <SCORE.INTRA.DIHEDRAL.0>
5.8785

>  <SCORE.INTRA.POLAR>
0

>  <SCORE.INTRA.POLAR.0>
0

>  <SCORE.INTRA.REPUL>
0

>  <SCORE.INTRA.REPUL.0>
0

>  <SCORE.INTRA.SOLV>
-1.07267

>  <SCORE.INTRA.SOLV.lig_0>
-31.9559

>  <SCORE.INTRA.VDW>
-0.288531

>  <SCORE.INTRA.VDW.0>
-0.507645

>  <SCORE.INTRA.norm>
-0.258693

>  <SCORE.RESTR>
0

>  <SCORE.RESTR.CAVITY>
0

>  <SCORE.RESTR.norm>
0

>  <SCORE.SYSTEM>
0

>  <SCORE.SYSTEM.CONST>
0

>  <SCORE.SYSTEM.DIHEDRAL>
0

>  <SCORE.SYSTEM.SOLV>
0

>  <SCORE.SYSTEM.norm>
0

>  <SCORE.heavy>
10

>  <SCORE.norm>
-0.548518

>  <RMSD>
24.604

$$$$
ligand
 OpenBabel11021811473D
libRbt.so/2013.1/901 2013/11/27
 10  9  0  0  0  0  0  0  0  0999 V2000
   16.1053   36.7101   19.7693 N   0  0  0  0  0  0  0  0  0  0  0  0
   16.4369   37.2560   21.1118 C   0  0  2  0  0  0  0  0  0  0  0  0
   16.5227   38.7825   21.0872 C   0  0  0  0  0  0  0  0  0  0  0  0
   15.6694   39.4735   21.6348 O   0  0  0  0  0  0  0  0  0  0  0  0
   17.7224   36.6132   21.6450 C   0  0  0  0  0  0  0  0  0  0  0  0
   17.5345   35.1551   22.0514 C   0  0  0  0  0  0  0  0  0  0  0  0
   18.7589   34.5717   22.7428 C   0  0  0  0  0  0  0  0  0  0  0  0
   18.4471   33.2016   23.3460 C   0  0  0  0  0  0  0  0  0  0  0  0
   17.9687   32.1753   22.3412 N   0  0  0  0  0  0  0  0  0  0  0  0
   17.4496   39.3915   20.5656 O   0  0  0  0  0  0  0  0  0  0  0  0
  2  1  1  6  0  0  0
  2  3  1  0  0  0  0
  2  5  1  0  0  0  0
  3  4  1  0  0  0  0
  3 10  1  0  0  0  0
  5  6  1  0  0  0  0
  6  7  1  0  0  0  0
  7  8  1  0  0  0  0
  8  9  1  0  0  0  0
M  END
>  <CHROM.1>
109.51983268,-71.54026836,-172.69463815,170.13069225,58.66593543,17.25842925
36.37866794,21.62632387,2.03671379,-0.86261783,0.05964517

>  <Name>
ligand

>  <RI>
0

>  <Rbt.Current_Directory>
/home/itssahil/PROJECTS/Mol_Feturizer/New_Systems/rnas/3DIM

>  <Rbt.Executable>
rbdock ($Id: //depot/dev/client3/rdock/2013.1/src/exe/rbdock.cxx#4 $)

>  <Rbt.Library>
libRbt.so (2013.1, Build901 2013/11/27)

>  <Rbt.Parameter_File>
/export/apps/rDock/src/rDock_2013.1_src/data/scripts/dock_solv.prm

>  <Rbt.Receptor>
prm/blind_docking_80.prm

>  <SCORE>
-5.74602

>  <SCORE.INTER>
-3.82407

>  <SCORE.INTER.CONST>
1

>  <SCORE.INTER.POLAR>
0

>  <SCORE.INTER.ROT>
5

>  <SCORE.INTER.SOLV>
6.66343

>  <SCORE.INTER.VDW>
-11.7039

>  <SCORE.INTER.norm>
-0.382407

>  <SCORE.INTRA>
-1.92195

>  <SCORE.INTRA.DIHEDRAL>
-3.16132

>  <SCORE.INTRA.DIHEDRAL.0>
5.8785

>  <SCORE.INTRA.POLAR>
0

>  <SCORE.INTRA.POLAR.0>
0

>  <SCORE.INTRA.REPUL>
0

>  <SCORE.INTRA.REPUL.0>
0

>  <SCORE.INTRA.SOLV>
-0.258056

>  <SCORE.INTRA.SOLV.lig_0>
-31.9559

>  <SCORE.INTRA.VDW>
-0.212261

>  <SCORE.INTRA.VDW.0>
-0.507645

>  <SCORE.INTRA.norm>
-0.192195

>  <SCORE.RESTR>
0

>  <SCORE.RESTR.CAVITY>
0

>  <SCORE.RESTR.norm>
0

>  <SCORE.SYSTEM>
0

>  <SCORE.SYSTEM.CONST>
0

>  <SCORE.SYSTEM.DIHEDRAL>
0

>  <SCORE.SYSTEM.SOLV>
0

>  <SCORE.SYSTEM.norm>
0

>  <SCORE.heavy>
10

>  <SCORE.norm>
-0.574602

>  <RMSD>
24.660

$$$$
ligand
 OpenBabel11021811473D
libRbt.so/2013.1/901 2013/11/27
 10  9  0  0  0  0  0  0  0  0999 V2000
   16.9845   31.4412   30.4910 N   0  0  0  0  0  0  0  0  0  0  0  0
   16.2236   31.3632   31.7658 C   0  0  2  0  0  0  0  0  0  0  0  0
   15.6084   29.9775   31.9640 C   0  0  0  0  0  0  0  0  0  0  0  0
   15.6006   29.4400   33.0670 O   0  0  0  0  0  0  0  0  0  0  0  0
   15.1720   32.4769   31.8268 C   0  0  0  0  0  0  0  0  0  0  0  0
   14.5329   32.6173   33.2047 C   0  0  0  0  0  0  0  0  0  0  0  0
   13.3675   33.5967   33.2186 C   0  0  0  0  0  0  0  0  0  0  0  0
   12.7251   33.6645   34.6046 C   0  0  0  0  0  0  0  0  0  0  0  0
   11.5466   34.6102   34.6970 N   0  0  0  0  0  0  0  0  0  0  0  0
   15.0627   29.3532   31.0614 O   0  0  0  0  0  0  0  0  0  0  0  0
  2  1  1  6  0  0  0
  2  3  1  0  0  0  0
  2  5  1  0  0  0  0
  3  4  1  0  0  0  0
  3 10  1  0  0  0  0
  5  6  1  0  0  0  0
  6  7  1  0  0  0  0
  7  8  1  0  0  0  0
  8  9  1  0  0  0  0
M  END
>  <CHROM.1>
139.76225965,-169.40291311,-172.59160662,177.80921296,-179.44949950,14.67641611
31.81534144,32.59021060,-0.60230841,0.76695107,-0.15812767

>  <Name>
ligand

>  <RI>
0

>  <Rbt.Current_Directory>
/home/itssahil/PROJECTS/Mol_Feturizer/New_Systems/rnas/3DIM

>  <Rbt.Executable>
rbdock ($Id: //depot/dev/client3/rdock/2013.1/src/exe/rbdock.cxx#4 $)

>  <Rbt.Library>
libRbt.so (2013.1, Build901 2013/11/27)

>  <Rbt.Parameter_File>
/export/apps/rDock/src/rDock_2013.1_src/data/scripts/dock_solv.prm

>  <Rbt.Receptor>
prm/blind_docking_80.prm

>  <SCORE>
-6.13876

>  <SCORE.INTER>
-2.83994

>  <SCORE.INTER.CONST>
1

>  <SCORE.INTER.POLAR>
0

>  <SCORE.INTER.ROT>
5

>  <SCORE.INTER.SOLV>
3.98667

>  <SCORE.INTER.VDW>
-10.1555

>  <SCORE.INTER.norm>
-0.283994

>  <SCORE.INTRA>
-3.29882

>  <SCORE.INTRA.DIHEDRAL>
-3.78328

>  <SCORE.INTRA.DIHEDRAL.0>
5.8785

>  <SCORE.INTRA.POLAR>
0

>  <SCORE.INTRA.POLAR.0>
0

>  <SCORE.INTRA.REPUL>
0

>  <SCORE.INTRA.REPUL.0>
0

>  <SCORE.INTRA.SOLV>
-1.87596

>  <SCORE.INTRA.SOLV.lig_0>
-31.9559

>  <SCORE.INTRA.VDW>
-0.469197

>  <SCORE.INTRA.VDW.0>
-0.507645

>  <SCORE.INTRA.norm>
-0.329882

>  <SCORE.RESTR>
0

>  <SCORE.RESTR.CAVITY>
0

>  <SCORE.RESTR.norm>
0

>  <SCORE.SYSTEM>
0

>  <SCORE.SYSTEM.CONST>
0

>  <SCORE.SYSTEM.DIHEDRAL>
0

>  <SCORE.SYSTEM.SOLV>
0

>  <SCORE.SYSTEM.norm>
0

>  <SCORE.heavy>
10

>  <SCORE.norm>
-0.613876

>  <RMSD>
25.535

$$$$
ligand
 OpenBabel11021811473D
libRbt.so/2013.1/901 2013/11/27
 10  9  0  0  0  0  0  0  0  0999 V2000
   13.9624   37.9909   21.6834 N   0  0  0  0  0  0  0  0  0  0  0  0
   15.1772   37.7032   20.8762 C   0  0  2  0  0  0  0  0  0  0  0  0
   16.3457   38.5992   21.2884 C   0  0  0  0  0  0  0  0  0  0  0  0
   16.1616   39.7644   21.6262 O   0  0  0  0  0  0  0  0  0  0  0  0
   14.8614   37.8165   19.3804 C   0  0  0  0  0  0  0  0  0  0  0  0
   15.9924   37.3069   18.4929 C   0  0  0  0  0  0  0  0  0  0  0  0
   16.1266   35.7907   18.5188 C   0  0  0  0  0  0  0  0  0  0  0  0
   17.1621   35.3146   17.4992 C   0  0  0  0  0  0  0  0  0  0  0  0
   17.2712   33.8093   17.3818 N   0  0  0  0  0  0  0  0  0  0  0  0
   17.5044   38.2036   21.3434 O   0  0  0  0  0  0  0  0  0  0  0  0
  2  1  1  1  0  0  0
  2  3  1  0  0  0  0
  2  5  1  0  0  0  0
  3  4  1  0  0  0  0
  3 10  1  0  0  0  0
  5  6  1  0  0  0  0
  6  7  1  0  0  0  0
  7  8  1  0  0  0  0
  8  9  1  0  0  0  0
M  END
>  <CHROM.1>
-36.15423501,-170.26736320,72.15919344,173.56933695,-175.15698111,16.08047418
37.25641280,19.82725880,1.78728082,-0.00203653,0.77691524

>  <Name>
ligand

>  <RI>
0

>  <Rbt.Current_Directory>
/home/itssahil/PROJECTS/Mol_Feturizer/New_Systems/rnas/3DIM

>  <Rbt.Executable>
rbdock ($Id: //depot/dev/client3/rdock/2013.1/src/exe/rbdock.cxx#4 $)

>  <Rbt.Library>
libRbt.so (2013.1, Build901 2013/11/27)

>  <Rbt.Parameter_File>
/export/apps/rDock/src/rDock_2013.1_src/data/scripts/dock_solv.prm

>  <Rbt.Receptor>
prm/blind_docking_60.prm

>  <SCORE>
-4.15737

>  <SCORE.INTER>
-1.44368

>  <SCORE.INTER.CONST>
1

>  <SCORE.INTER.POLAR>
0

>  <SCORE.INTER.ROT>
5

>  <SCORE.INTER.SOLV>
9.8659

>  <SCORE.INTER.VDW>
-11.1844

>  <SCORE.INTER.norm>
-0.144368

>  <SCORE.INTRA>
-2.71369

>  <SCORE.INTRA.DIHEDRAL>
-3.09416

>  <SCORE.INTRA.DIHEDRAL.0>
5.8785

>  <SCORE.INTRA.POLAR>
0

>  <SCORE.INTRA.POLAR.0>
0

>  <SCORE.INTRA.REPUL>
0

>  <SCORE.INTRA.REPUL.0>
0

>  <SCORE.INTRA.SOLV>
-1.61218

>  <SCORE.INTRA.SOLV.lig_0>
-31.9559

>  <SCORE.INTRA.VDW>
-0.360523

>  <SCORE.INTRA.VDW.0>
-0.507645

>  <SCORE.INTRA.norm>
-0.271369

>  <SCORE.RESTR>
0

>  <SCORE.RESTR.CAVITY>
0

>  <SCORE.RESTR.norm>
0

>  <SCORE.SYSTEM>
0

>  <SCORE.SYSTEM.CONST>
0

>  <SCORE.SYSTEM.DIHEDRAL>
0

>  <SCORE.SYSTEM.SOLV>
0

>  <SCORE.SYSTEM.norm>
0

>  <SCORE.heavy>
10

>  <SCORE.norm>
-0.415737

>  <RMSD>
26.026

$$$$
ligand
 OpenBabel11021811473D
libRbt.so/2013.1/901 2013/11/27
 10  9  0  0  0  0  0  0  0  0999 V2000
   12.9138   34.4388   30.2398 N   0  0  0  0  0  0  0  0  0  0  0  0
   14.1528   35.2214   30.4906 C   0  0  2  0  0  0  0  0  0  0  0  0
   14.2036   36.4785   29.6218 C   0  0  0  0  0  0  0  0  0  0  0  0
   14.6679   36.4452   28.4864 O   0  0  0  0  0  0  0  0  0  0  0  0
   15.3893   34.3358   30.2993 C   0  0  0  0  0  0  0  0  0  0  0  0
   15.3640   33.0822   31.1678 C   0  0  0  0  0  0  0  0  0  0  0  0
   16.5736   32.1849   30.9460 C   0  0  0  0  0  0  0  0  0  0  0  0
   16.4778   30.9162   31.7942 C   0  0  0  0  0  0  0  0  0  0  0  0
   15.3210   30.0107   31.4284 N   0  0  0  0  0  0  0  0  0  0  0  0
   13.7567   37.5605   29.9849 O   0  0  0  0  0  0  0  0  0  0  0  0
  2  1  1  6  0  0  0
  2  3  1  0  0  0  0
  2  5  1  0  0  0  0
  3  4  1  0  0  0  0
  3 10  1  0  0  0  0
  5  6  1  0  0  0  0
  6  7  1  0  0  0  0
  7  8  1  0  0  0  0
  8  9  1  0  0  0  0
M  END
>  <CHROM.1>
-86.89402301,-55.75159812,178.33884054,-177.72105164,64.50768710,14.87844141
34.10732329,30.42341669,1.89272146,0.13963981,-0.37159428

>  <Name>
ligand

>  <RI>
0

>  <Rbt.Current_Directory>
/home/itssahil/PROJECTS/Mol_Feturizer/New_Systems/rnas/3DIM

>  <Rbt.Executable>
rbdock ($Id: //depot/dev/client3/rdock/2013.1/src/exe/rbdock.cxx#4 $)

>  <Rbt.Library>
libRbt.so (2013.1, Build901 2013/11/27)

>  <Rbt.Parameter_File>
/export/apps/rDock/src/rDock_2013.1_src/data/scripts/dock_solv.prm

>  <Rbt.Receptor>
prm/blind_docking_100.prm

>  <SCORE>
-3.21897

>  <SCORE.INTER>
-1.17862

>  <SCORE.INTER.CONST>
1

>  <SCORE.INTER.POLAR>
0

>  <SCORE.INTER.ROT>
5

>  <SCORE.INTER.SOLV>
7.15658

>  <SCORE.INTER.VDW>
-10.1046

>  <SCORE.INTER.norm>
-0.117862

>  <SCORE.INTRA>
-2.04035

>  <SCORE.INTRA.DIHEDRAL>
-4.28452

>  <SCORE.INTRA.DIHEDRAL.0>
5.8785

>  <SCORE.INTRA.POLAR>
0

>  <SCORE.INTRA.POLAR.0>
0

>  <SCORE.INTRA.REPUL>
0

>  <SCORE.INTRA.REPUL.0>
0

>  <SCORE.INTRA.SOLV>
-0.0166983

>  <SCORE.INTRA.SOLV.lig_0>
-31.9559

>  <SCORE.INTRA.VDW>
0.110258

>  <SCORE.INTRA.VDW.0>
-0.507645

>  <SCORE.INTRA.norm>
-0.204035

>  <SCORE.RESTR>
0

>  <SCORE.RESTR.CAVITY>
0

>  <SCORE.RESTR.norm>
0

>  <SCORE.SYSTEM>
0

>  <SCORE.SYSTEM.CONST>
0

>  <SCORE.SYSTEM.DIHEDRAL>
0

>  <SCORE.SYSTEM.SOLV>
0

>  <SCORE.SYSTEM.norm>
0

>  <SCORE.heavy>
10

>  <SCORE.norm>
-0.321897

>  <RMSD>
26.054

$$$$
ligand
 OpenBabel11021811473D
libRbt.so/2013.1/901 2013/11/27
 10  9  0  0  0  0  0  0  0  0999 V2000
   13.3948   35.8148   31.6021 N   0  0  0  0  0  0  0  0  0  0  0  0
   14.4767   35.7897   30.5827 C   0  0  2  0  0  0  0  0  0  0  0  0
   14.1549   36.7109   29.4055 C   0  0  0  0  0  0  0  0  0  0  0  0
   14.8979   36.7763   28.4311 O   0  0  0  0  0  0  0  0  0  0  0  0
   14.7505   34.3502   30.1325 C   0  0  0  0  0  0  0  0  0  0  0  0
   15.2033   33.4454   31.2739 C   0  0  0  0  0  0  0  0  0  0  0  0
   15.3963   31.9989   30.8405 C   0  0  0  0  0  0  0  0  0  0  0  0
   15.8128   31.1233   32.0230 C   0  0  0  0  0  0  0  0  0  0  0  0
   16.0316   29.6674   31.6707 N   0  0  0  0  0  0  0  0  0  0  0  0
   13.1380   37.3926   29.3487 O   0  0  0  0  0  0  0  0  0  0  0  0
  2  1  1  1  0  0  0
  2  3  1  0  0  0  0
  2  5  1  0  0  0  0
  3  4  1  0  0  0  0
  3 10  1  0  0  0  0
  5  6  1  0  0  0  0
  6  7  1  0  0  0  0
  7  8  1  0  0  0  0
  8  9  1  0  0  0  0
M  END
>  <CHROM.1>
-176.42580248,-60.69841207,176.66176243,-178.46553693,-179.71674188,14.71584273
34.34010955,30.50059062,2.06268723,0.93849262,-0.75138293

>  <Name>
ligand

>  <RI>
0

>  <Rbt.Current_Directory>
/home/itssahil/PROJECTS/Mol_Feturizer/New_Systems/rnas/3DIM

>  <Rbt.Executable>
rbdock ($Id: //depot/dev/client3/rdock/2013.1/src/exe/rbdock.cxx#4 $)

>  <Rbt.Library>
libRbt.so (2013.1, Build901 2013/11/27)

>  <Rbt.Parameter_File>
/export/apps/rDock/src/rDock_2013.1_src/data/scripts/dock_solv.prm

>  <Rbt.Receptor>
prm/blind_docking_80.prm

>  <SCORE>
-3.92742

>  <SCORE.INTER>
-1.23148

>  <SCORE.INTER.CONST>
1

>  <SCORE.INTER.POLAR>
0

>  <SCORE.INTER.ROT>
5

>  <SCORE.INTER.SOLV>
8.24317

>  <SCORE.INTER.VDW>
-10.502

>  <SCORE.INTER.norm>
-0.123148

>  <SCORE.INTRA>
-2.69594

>  <SCORE.INTRA.DIHEDRAL>
-4.30484

>  <SCORE.INTRA.DIHEDRAL.0>
5.8785

>  <SCORE.INTRA.POLAR>
0

>  <SCORE.INTRA.POLAR.0>
0

>  <SCORE.INTRA.REPUL>
0

>  <SCORE.INTRA.REPUL.0>
0

>  <SCORE.INTRA.SOLV>
-0.934283

>  <SCORE.INTRA.SOLV.lig_0>
-31.9559

>  <SCORE.INTRA.VDW>
-0.0763746

>  <SCORE.INTRA.VDW.0>
-0.507645

>  <SCORE.INTRA.norm>
-0.269594

>  <SCORE.RESTR>
0

>  <SCORE.RESTR.CAVITY>
0

>  <SCORE.RESTR.norm>
0

>  <SCORE.SYSTEM>
0

>  <SCORE.SYSTEM.CONST>
0

>  <SCORE.SYSTEM.DIHEDRAL>
0

>  <SCORE.SYSTEM.SOLV>
0

>  <SCORE.SYSTEM.norm>
0

>  <SCORE.heavy>
10

>  <SCORE.norm>
-0.392742

>  <RMSD>
26.358

$$$$
ligand
 OpenBabel11021811473D
libRbt.so/2013.1/901 2013/11/27
 10  9  0  0  0  0  0  0  0  0999 V2000
   16.3613   35.2943   20.7629 N   0  0  0  0  0  0  0  0  0  0  0  0
   15.9833   36.6716   20.3503 C   0  0  2  0  0  0  0  0  0  0  0  0
   16.2219   36.8912   18.8560 C   0  0  0  0  0  0  0  0  0  0  0  0
   16.9205   36.1197   18.2062 O   0  0  0  0  0  0  0  0  0  0  0  0
   16.7179   37.7055   21.2112 C   0  0  0  0  0  0  0  0  0  0  0  0
   16.2837   39.1386   20.9207 C   0  0  0  0  0  0  0  0  0  0  0  0
   14.9050   39.4631   21.4786 C   0  0  0  0  0  0  0  0  0  0  0  0
   13.8082   38.7791   20.6616 C   0  0  0  0  0  0  0  0  0  0  0  0
   12.4012   39.1668   21.0638 N   0  0  0  0  0  0  0  0  0  0  0  0
   15.7081   37.8076   18.2248 O   0  0  0  0  0  0  0  0  0  0  0  0
  2  1  1  1  0  0  0
  2  3  1  0  0  0  0
  2  5  1  0  0  0  0
  3  4  1  0  0  0  0
  3 10  1  0  0  0  0
  5  6  1  0  0  0  0
  6  7  1  0  0  0  0
  7  8  1  0  0  0  0
  8  9  1  0  0  0  0
M  END
>  <CHROM.1>
-15.51832000,-175.01870147,73.85089225,-72.86088098,-173.96602789,15.54022856
37.70215790,20.13623566,-0.66386155,-0.65898877,1.26321395

>  <Name>
ligand

>  <RI>
0

>  <Rbt.Current_Directory>
/home/itssahil/PROJECTS/Mol_Feturizer/New_Systems/rnas/3DIM

>  <Rbt.Executable>
rbdock ($Id: //depot/dev/client3/rdock/2013.1/src/exe/rbdock.cxx#4 $)

>  <Rbt.Library>
libRbt.so (2013.1, Build901 2013/11/27)

>  <Rbt.Parameter_File>
/export/apps/rDock/src/rDock_2013.1_src/data/scripts/dock_solv.prm

>  <Rbt.Receptor>
prm/blind_docking_60.prm

>  <SCORE>
-3.18946

>  <SCORE.INTER>
-1.85286

>  <SCORE.INTER.CONST>
1

>  <SCORE.INTER.POLAR>
0

>  <SCORE.INTER.ROT>
5

>  <SCORE.INTER.SOLV>
9.84412

>  <SCORE.INTER.VDW>
-11.4499

>  <SCORE.INTER.norm>
-0.185286

>  <SCORE.INTRA>
-1.3366

>  <SCORE.INTRA.DIHEDRAL>
-2.64723

>  <SCORE.INTRA.DIHEDRAL.0>
5.8785

>  <SCORE.INTRA.POLAR>
0

>  <SCORE.INTRA.POLAR.0>
0

>  <SCORE.INTRA.REPUL>
0

>  <SCORE.INTRA.REPUL.0>
0

>  <SCORE.INTRA.SOLV>
-1.04237

>  <SCORE.INTRA.SOLV.lig_0>
-31.9559

>  <SCORE.INTRA.VDW>
0.508199

>  <SCORE.INTRA.VDW.0>
-0.507645

>  <SCORE.INTRA.norm>
-0.13366

>  <SCORE.RESTR>
0

>  <SCORE.RESTR.CAVITY>
0

>  <SCORE.RESTR.norm>
0

>  <SCORE.SYSTEM>
0

>  <SCORE.SYSTEM.CONST>
0

>  <SCORE.SYSTEM.DIHEDRAL>
0

>  <SCORE.SYSTEM.SOLV>
0

>  <SCORE.SYSTEM.norm>
0

>  <SCORE.heavy>
10

>  <SCORE.norm>
-0.318946

>  <RMSD>
26.695

$$$$
ligand
 OpenBabel11021811473D
libRbt.so/2013.1/901 2013/11/27
 10  9  0  0  0  0  0  0  0  0999 V2000
    8.7081   32.3895   24.6669 N   0  0  0  0  0  0  0  0  0  0  0  0
    9.6751   33.1610   23.8423 C   0  0  2  0  0  0  0  0  0  0  0  0
    8.9562   34.0872   22.8608 C   0  0  0  0  0  0  0  0  0  0  0  0
    9.3536   35.2312   22.6628 O   0  0  0  0  0  0  0  0  0  0  0  0
   10.6475   32.2108   23.1342 C   0  0  0  0  0  0  0  0  0  0  0  0
   11.7610   32.9430   22.3920 C   0  0  0  0  0  0  0  0  0  0  0  0
   12.6891   31.9998   21.6393 C   0  0  0  0  0  0  0  0  0  0  0  0
   13.8090   32.7734   20.9424 C   0  0  0  0  0  0  0  0  0  0  0  0
   14.7564   33.4807   21.8878 N   0  0  0  0  0  0  0  0  0  0  0  0
    7.9865   33.7362   22.1985 O   0  0  0  0  0  0  0  0  0  0  0  0
  2  1  1  6  0  0  0
  2  3  1  0  0  0  0
  2  5  1  0  0  0  0
  3  4  1  0  0  0  0
  3 10  1  0  0  0  0
  5  6  1  0  0  0  0
  6  7  1  0  0  0  0
  7  8  1  0  0  0  0
  8  9  1  0  0  0  0
M  END
>  <CHROM.1>
138.32558300,-173.72668596,-177.46359160,-178.49749386,64.71511293,10.80858988
33.22484601,22.60504594,-3.09007313,0.34523706,-0.59228716

>  <Name>
ligand

>  <RI>
0

>  <Rbt.Current_Directory>
/home/itssahil/PROJECTS/Mol_Feturizer/New_Systems/rnas/3DIM

>  <Rbt.Executable>
rbdock ($Id: //depot/dev/client3/rdock/2013.1/src/exe/rbdock.cxx#4 $)

>  <Rbt.Library>
libRbt.so (2013.1, Build901 2013/11/27)

>  <Rbt.Parameter_File>
/export/apps/rDock/src/rDock_2013.1_src/data/scripts/dock_solv.prm

>  <Rbt.Receptor>
prm/blind_docking_80.prm

>  <SCORE>
-4.31821

>  <SCORE.INTER>
-1.3653

>  <SCORE.INTER.CONST>
1

>  <SCORE.INTER.POLAR>
0

>  <SCORE.INTER.ROT>
5

>  <SCORE.INTER.SOLV>
5.3056

>  <SCORE.INTER.VDW>
-9.61207

>  <SCORE.INTER.norm>
-0.13653

>  <SCORE.INTRA>
-2.95291

>  <SCORE.INTRA.DIHEDRAL>
-4.17635

>  <SCORE.INTRA.DIHEDRAL.0>
5.8785

>  <SCORE.INTRA.POLAR>
0

>  <SCORE.INTRA.POLAR.0>
0

>  <SCORE.INTRA.REPUL>
0

>  <SCORE.INTRA.REPUL.0>
0

>  <SCORE.INTRA.SOLV>
-1.01595

>  <SCORE.INTRA.SOLV.lig_0>
-31.9559

>  <SCORE.INTRA.VDW>
-0.356762

>  <SCORE.INTRA.VDW.0>
-0.507645

>  <SCORE.INTRA.norm>
-0.295291

>  <SCORE.RESTR>
0

>  <SCORE.RESTR.CAVITY>
0

>  <SCORE.RESTR.norm>
0

>  <SCORE.SYSTEM>
0

>  <SCORE.SYSTEM.CONST>
0

>  <SCORE.SYSTEM.DIHEDRAL>
0

>  <SCORE.SYSTEM.SOLV>
0

>  <SCORE.SYSTEM.norm>
0

>  <SCORE.heavy>
10

>  <SCORE.norm>
-0.431821

>  <RMSD>
26.747

$$$$
ligand
 OpenBabel11021811473D
libRbt.so/2013.1/901 2013/11/27
 10  9  0  0  0  0  0  0  0  0999 V2000
   12.2201   36.5199   31.6534 N   0  0  0  0  0  0  0  0  0  0  0  0
   13.5337   36.4896   30.9577 C   0  0  2  0  0  0  0  0  0  0  0  0
   13.4197   37.0197   29.5280 C   0  0  0  0  0  0  0  0  0  0  0  0
   14.3281   36.8593   28.7189 O   0  0  0  0  0  0  0  0  0  0  0  0
   14.1286   35.0776   31.0051 C   0  0  0  0  0  0  0  0  0  0  0  0
   15.5809   35.0276   30.5417 C   0  0  0  0  0  0  0  0  0  0  0  0
   16.2001   33.6444   30.6859 C   0  0  0  0  0  0  0  0  0  0  0  0
   15.5593   32.6530   29.7138 C   0  0  0  0  0  0  0  0  0  0  0  0
   16.0933   31.2409   29.8254 N   0  0  0  0  0  0  0  0  0  0  0  0
   12.4201   37.5879   29.1035 O   0  0  0  0  0  0  0  0  0  0  0  0
  2  1  1  6  0  0  0
  2  3  1  0  0  0  0
  2  5  1  0  0  0  0
  3  4  1  0  0  0  0
  3 10  1  0  0  0  0
  5  6  1  0  0  0  0
  6  7  1  0  0  0  0
  7  8  1  0  0  0  0
  8  9  1  0  0  0  0
M  END
>  <CHROM.1>
-167.00497678,-169.36732744,175.79691567,67.88985886,-178.23405234,14.34027745
35.23364908,30.14150750,2.60715184,0.88444294,-0.95296734

>  <Name>
ligand

>  <RI>
0

>  <Rbt.Current_Directory>
/home/itssahil/PROJECTS/Mol_Feturizer/New_Systems/rnas/3DIM

>  <Rbt.Executable>
rbdock ($Id: //depot/dev/client3/rdock/2013.1/src/exe/rbdock.cxx#4 $)

>  <Rbt.Library>
libRbt.so (2013.1, Build901 2013/11/27)

>  <Rbt.Parameter_File>
/export/apps/rDock/src/rDock_2013.1_src/data/scripts/dock_solv.prm

>  <Rbt.Receptor>
prm/blind_docking_100.prm

>  <SCORE>
-3.24081

>  <SCORE.INTER>
-1.43687

>  <SCORE.INTER.CONST>
1

>  <SCORE.INTER.POLAR>
0

>  <SCORE.INTER.ROT>
5

>  <SCORE.INTER.SOLV>
2.57306

>  <SCORE.INTER.VDW>
-8.74893

>  <SCORE.INTER.norm>
-0.143687

>  <SCORE.INTRA>
-1.80394

>  <SCORE.INTRA.DIHEDRAL>
-3.57364

>  <SCORE.INTRA.DIHEDRAL.0>
5.8785

>  <SCORE.INTRA.POLAR>
0

>  <SCORE.INTRA.POLAR.0>
0

>  <SCORE.INTRA.REPUL>
0

>  <SCORE.INTRA.REPUL.0>
0

>  <SCORE.INTRA.SOLV>
-1.65529

>  <SCORE.INTRA.SOLV.lig_0>
-31.9559

>  <SCORE.INTRA.VDW>
0.810525

>  <SCORE.INTRA.VDW.0>
-0.507645

>  <SCORE.INTRA.norm>
-0.180394

>  <SCORE.RESTR>
0

>  <SCORE.RESTR.CAVITY>
0

>  <SCORE.RESTR.norm>
0

>  <SCORE.SYSTEM>
0

>  <SCORE.SYSTEM.CONST>
0

>  <SCORE.SYSTEM.DIHEDRAL>
0

>  <SCORE.SYSTEM.SOLV>
0

>  <SCORE.SYSTEM.norm>
0

>  <SCORE.heavy>
10

>  <SCORE.norm>
-0.324081

>  <RMSD>
27.102

$$$$
ligand
 OpenBabel11021811473D
libRbt.so/2013.1/901 2013/11/27
 10  9  0  0  0  0  0  0  0  0999 V2000
    8.0018   33.2276   23.5369 N   0  0  0  0  0  0  0  0  0  0  0  0
    8.8037   34.4742   23.4223 C   0  0  2  0  0  0  0  0  0  0  0  0
    7.9416   35.6517   22.9658 C   0  0  0  0  0  0  0  0  0  0  0  0
    6.7675   35.7476   23.3093 O   0  0  0  0  0  0  0  0  0  0  0  0
   10.0089   34.2491   22.5021 C   0  0  0  0  0  0  0  0  0  0  0  0
   10.9819   33.2050   23.0403 C   0  0  0  0  0  0  0  0  0  0  0  0
   12.2014   33.0182   22.1484 C   0  0  0  0  0  0  0  0  0  0  0  0
   13.1728   32.0041   22.7535 C   0  0  0  0  0  0  0  0  0  0  0  0
   14.4237   31.7759   21.9319 N   0  0  0  0  0  0  0  0  0  0  0  0
    8.3739   36.5697   22.2784 O   0  0  0  0  0  0  0  0  0  0  0  0
  2  1  1  6  0  0  0
  2  3  1  0  0  0  0
  2  5  1  0  0  0  0
  3  4  1  0  0  0  0
  3 10  1  0  0  0  0
  5  6  1  0  0  0  0
  6  7  1  0  0  0  0
  7  8  1  0  0  0  0
  8  9  1  0  0  0  0
M  END
>  <CHROM.1>
34.11991313,-62.95497394,-178.02561205,177.80340766,-179.24306394,10.03696662
34.02614599,22.78199783,2.70302859,0.33439034,-0.40172197

>  <Name>
ligand

>  <RI>
0

>  <Rbt.Current_Directory>
/home/itssahil/PROJECTS/Mol_Feturizer/New_Systems/rnas/3DIM

>  <Rbt.Executable>
rbdock ($Id: //depot/dev/client3/rdock/2013.1/src/exe/rbdock.cxx#4 $)

>  <Rbt.Library>
libRbt.so (2013.1, Build901 2013/11/27)

>  <Rbt.Parameter_File>
/export/apps/rDock/src/rDock_2013.1_src/data/scripts/dock_solv.prm

>  <Rbt.Receptor>
prm/blind_docking_80.prm

>  <SCORE>
-3.5684

>  <SCORE.INTER>
-1.00053

>  <SCORE.INTER.CONST>
1

>  <SCORE.INTER.POLAR>
0

>  <SCORE.INTER.ROT>
5

>  <SCORE.INTER.SOLV>
4.07266

>  <SCORE.INTER.VDW>
-8.9579

>  <SCORE.INTER.norm>
-0.100053

>  <SCORE.INTRA>
-2.56788

>  <SCORE.INTRA.DIHEDRAL>
-4.37498

>  <SCORE.INTRA.DIHEDRAL.0>
5.8785

>  <SCORE.INTRA.POLAR>
0

>  <SCORE.INTRA.POLAR.0>
0

>  <SCORE.INTRA.REPUL>
0

>  <SCORE.INTRA.REPUL.0>
0

>  <SCORE.INTRA.SOLV>
-0.990824

>  <SCORE.INTRA.SOLV.lig_0>
-31.9559

>  <SCORE.INTRA.VDW>
0.115026

>  <SCORE.INTRA.VDW.0>
-0.507645

>  <SCORE.INTRA.norm>
-0.256788

>  <SCORE.RESTR>
0

>  <SCORE.RESTR.CAVITY>
0

>  <SCORE.RESTR.norm>
0

>  <SCORE.SYSTEM>
0

>  <SCORE.SYSTEM.CONST>
0

>  <SCORE.SYSTEM.DIHEDRAL>
0

>  <SCORE.SYSTEM.SOLV>
0

>  <SCORE.SYSTEM.norm>
0

>  <SCORE.heavy>
10

>  <SCORE.norm>
-0.35684

>  <RMSD>
27.844

$$$$
ligand
 OpenBabel11021811473D
libRbt.so/2013.1/901 2013/11/27
 10  9  0  0  0  0  0  0  0  0999 V2000
   17.1659   38.2574   21.2359 N   0  0  0  0  0  0  0  0  0  0  0  0
   15.7693   38.4522   20.7649 C   0  0  2  0  0  0  0  0  0  0  0  0
   15.1055   39.6389   21.4642 C   0  0  0  0  0  0  0  0  0  0  0  0
   15.7209   40.3184   22.2799 O   0  0  0  0  0  0  0  0  0  0  0  0
   14.9653   37.1580   20.9338 C   0  0  0  0  0  0  0  0  0  0  0  0
   13.5697   37.2403   20.3240 C   0  0  0  0  0  0  0  0  0  0  0  0
   13.5942   37.3816   18.8085 C   0  0  0  0  0  0  0  0  0  0  0  0
   12.1763   37.4756   18.2437 C   0  0  0  0  0  0  0  0  0  0  0  0
   11.4151   38.7096   18.6792 N   0  0  0  0  0  0  0  0  0  0  0  0
   13.9581   39.9983   21.2266 O   0  0  0  0  0  0  0  0  0  0  0  0
  2  1  1  1  0  0  0
  2  3  1  0  0  0  0
  2  5  1  0  0  0  0
  3  4  1  0  0  0  0
  3 10  1  0  0  0  0
  5  6  1  0  0  0  0
  6  7  1  0  0  0  0
  7  8  1  0  0  0  0
  8  9  1  0  0  0  0
M  END
>  <CHROM.1>
1.47724461,-173.45230917,65.78121065,-179.38079415,64.55520401,14.33685087
38.49370080,20.41625841,-0.58634096,0.46459673,-2.62915084

>  <Name>
ligand

>  <RI>
0

>  <Rbt.Current_Directory>
/home/itssahil/PROJECTS/Mol_Feturizer/New_Systems/rnas/3DIM

>  <Rbt.Executable>
rbdock ($Id: //depot/dev/client3/rdock/2013.1/src/exe/rbdock.cxx#4 $)

>  <Rbt.Library>
libRbt.so (2013.1, Build901 2013/11/27)

>  <Rbt.Parameter_File>
/export/apps/rDock/src/rDock_2013.1_src/data/scripts/dock_solv.prm

>  <Rbt.Receptor>
prm/blind_docking_80.prm

>  <SCORE>
-4.55798

>  <SCORE.INTER>
-2.40203

>  <SCORE.INTER.CONST>
1

>  <SCORE.INTER.POLAR>
0

>  <SCORE.INTER.ROT>
5

>  <SCORE.INTER.SOLV>
10.6101

>  <SCORE.INTER.VDW>
-12.0714

>  <SCORE.INTER.norm>
-0.240203

>  <SCORE.INTRA>
-2.15595

>  <SCORE.INTRA.DIHEDRAL>
-4.00016

>  <SCORE.INTRA.DIHEDRAL.0>
5.8785

>  <SCORE.INTRA.POLAR>
0

>  <SCORE.INTRA.POLAR.0>
0

>  <SCORE.INTRA.REPUL>
0

>  <SCORE.INTRA.REPUL.0>
0

>  <SCORE.INTRA.SOLV>
-0.62229

>  <SCORE.INTRA.SOLV.lig_0>
-31.9559

>  <SCORE.INTRA.VDW>
0.155276

>  <SCORE.INTRA.VDW.0>
-0.507645

>  <SCORE.INTRA.norm>
-0.215595

>  <SCORE.RESTR>
0

>  <SCORE.RESTR.CAVITY>
0

>  <SCORE.RESTR.norm>
0

>  <SCORE.SYSTEM>
0

>  <SCORE.SYSTEM.CONST>
0

>  <SCORE.SYSTEM.DIHEDRAL>
0

>  <SCORE.SYSTEM.SOLV>
0

>  <SCORE.SYSTEM.norm>
0

>  <SCORE.heavy>
10

>  <SCORE.norm>
-0.455798

>  <RMSD>
27.861

$$$$
ligand
 OpenBabel11021811473D
libRbt.so/2013.1/901 2013/11/27
 10  9  0  0  0  0  0  0  0  0999 V2000
   15.1864   36.2416   19.5543 N   0  0  0  0  0  0  0  0  0  0  0  0
   13.9470   36.9626   19.9473 C   0  0  2  0  0  0  0  0  0  0  0  0
   12.9274   36.9807   18.8080 C   0  0  0  0  0  0  0  0  0  0  0  0
   11.7723   36.6071   18.9860 O   0  0  0  0  0  0  0  0  0  0  0  0
   14.2862   38.3732   20.4422 C   0  0  0  0  0  0  0  0  0  0  0  0
   13.1199   39.0507   21.1545 C   0  0  0  0  0  0  0  0  0  0  0  0
   12.0312   39.5142   20.1967 C   0  0  0  0  0  0  0  0  0  0  0  0
   10.8518   40.1195   20.9590 C   0  0  0  0  0  0  0  0  0  0  0  0
    9.7071   40.5691   20.0763 N   0  0  0  0  0  0  0  0  0  0  0  0
   13.1870   37.3983   17.6853 O   0  0  0  0  0  0  0  0  0  0  0  0
  2  1  1  6  0  0  0
  2  3  1  0  0  0  0
  2  5  1  0  0  0  0
  3  4  1  0  0  0  0
  3 10  1  0  0  0  0
  5  6  1  0  0  0  0
  6  7  1  0  0  0  0
  7  8  1  0  0  0  0
  8  9  1  0  0  0  0
M  END
>  <CHROM.1>
127.65884867,-166.84734450,-74.07764230,177.00921852,-178.32184671,12.68337548
38.17453536,19.75324985,-0.72928064,-0.42063430,0.79716348

>  <Name>
ligand

>  <RI>
0

>  <Rbt.Current_Directory>
/home/itssahil/PROJECTS/Mol_Feturizer/New_Systems/rnas/3DIM

>  <Rbt.Executable>
rbdock ($Id: //depot/dev/client3/rdock/2013.1/src/exe/rbdock.cxx#4 $)

>  <Rbt.Library>
libRbt.so (2013.1, Build901 2013/11/27)

>  <Rbt.Parameter_File>
/export/apps/rDock/src/rDock_2013.1_src/data/scripts/dock_solv.prm

>  <Rbt.Receptor>
prm/blind_docking_80.prm

>  <SCORE>
-5.40443

>  <SCORE.INTER>
-2.74962

>  <SCORE.INTER.CONST>
1

>  <SCORE.INTER.POLAR>
0

>  <SCORE.INTER.ROT>
5

>  <SCORE.INTER.SOLV>
3.20343

>  <SCORE.INTER.VDW>
-9.83422

>  <SCORE.INTER.norm>
-0.274962

>  <SCORE.INTRA>
-2.65481

>  <SCORE.INTRA.DIHEDRAL>
-2.92858

>  <SCORE.INTRA.DIHEDRAL.0>
5.8785

>  <SCORE.INTRA.POLAR>
0

>  <SCORE.INTRA.POLAR.0>
0

>  <SCORE.INTRA.REPUL>
0

>  <SCORE.INTRA.REPUL.0>
0

>  <SCORE.INTRA.SOLV>
-1.77454

>  <SCORE.INTRA.SOLV.lig_0>
-31.9559

>  <SCORE.INTRA.VDW>
-0.303247

>  <SCORE.INTRA.VDW.0>
-0.507645

>  <SCORE.INTRA.norm>
-0.265481

>  <SCORE.RESTR>
0

>  <SCORE.RESTR.CAVITY>
0

>  <SCORE.RESTR.norm>
0

>  <SCORE.SYSTEM>
0

>  <SCORE.SYSTEM.CONST>
0

>  <SCORE.SYSTEM.DIHEDRAL>
0

>  <SCORE.SYSTEM.SOLV>
0

>  <SCORE.SYSTEM.norm>
0

>  <SCORE.heavy>
10

>  <SCORE.norm>
-0.540443

>  <RMSD>
28.799

$$$$
ligand
 OpenBabel11021811473D
libRbt.so/2013.1/901 2013/11/27
 10  9  0  0  0  0  0  0  0  0999 V2000
   14.8421   37.1340   20.6572 N   0  0  0  0  0  0  0  0  0  0  0  0
   15.0554   38.6044   20.7100 C   0  0  2  0  0  0  0  0  0  0  0  0
   16.3300   38.9557   21.4781 C   0  0  0  0  0  0  0  0  0  0  0  0
   17.2346   38.1374   21.6117 O   0  0  0  0  0  0  0  0  0  0  0  0
   13.8196   39.3008   21.2912 C   0  0  0  0  0  0  0  0  0  0  0  0
   12.5860   39.1618   20.4050 C   0  0  0  0  0  0  0  0  0  0  0  0
   11.4135   40.0044   20.8875 C   0  0  0  0  0  0  0  0  0  0  0  0
   10.2311   39.9016   19.9233 C   0  0  0  0  0  0  0  0  0  0  0  0
    9.0265   40.7242   20.3282 N   0  0  0  0  0  0  0  0  0  0  0  0
   16.5360   40.0636   21.9600 O   0  0  0  0  0  0  0  0  0  0  0  0
  2  1  1  1  0  0  0
  2  3  1  0  0  0  0
  2  5  1  0  0  0  0
  3  4  1  0  0  0  0
  3 10  1  0  0  0  0
  5  6  1  0  0  0  0
  6  7  1  0  0  0  0
  7  8  1  0  0  0  0
  8  9  1  0  0  0  0
M  END
>  <CHROM.1>
22.27341047,-65.19188568,-172.37790036,176.47495613,-179.46044793,13.74974017
39.20382888,20.94304133,0.15402344,0.25303793,-2.78067555

>  <Name>
ligand

>  <RI>
0

>  <Rbt.Current_Directory>
/home/itssahil/PROJECTS/Mol_Feturizer/New_Systems/rnas/3DIM

>  <Rbt.Executable>
rbdock ($Id: //depot/dev/client3/rdock/2013.1/src/exe/rbdock.cxx#4 $)

>  <Rbt.Library>
libRbt.so (2013.1, Build901 2013/11/27)

>  <Rbt.Parameter_File>
/export/apps/rDock/src/rDock_2013.1_src/data/scripts/dock_solv.prm

>  <Rbt.Receptor>
prm/blind_docking_100.prm

>  <SCORE>
-6.32929

>  <SCORE.INTER>
-3.7912

>  <SCORE.INTER.CONST>
1

>  <SCORE.INTER.POLAR>
0

>  <SCORE.INTER.ROT>
5

>  <SCORE.INTER.SOLV>
5.16377

>  <SCORE.INTER.VDW>
-11.1821

>  <SCORE.INTER.norm>
-0.37912

>  <SCORE.INTRA>
-2.53809

>  <SCORE.INTRA.DIHEDRAL>
-4.03429

>  <SCORE.INTRA.DIHEDRAL.0>
5.8785

>  <SCORE.INTRA.POLAR>
0

>  <SCORE.INTRA.POLAR.0>
0

>  <SCORE.INTRA.REPUL>
0

>  <SCORE.INTRA.REPUL.0>
0

>  <SCORE.INTRA.SOLV>
-1.03767

>  <SCORE.INTRA.SOLV.lig_0>
-31.9559

>  <SCORE.INTRA.VDW>
-0.0021063

>  <SCORE.INTRA.VDW.0>
-0.507645

>  <SCORE.INTRA.norm>
-0.253809

>  <SCORE.RESTR>
0

>  <SCORE.RESTR.CAVITY>
0

>  <SCORE.RESTR.norm>
0

>  <SCORE.SYSTEM>
0

>  <SCORE.SYSTEM.CONST>
0

>  <SCORE.SYSTEM.DIHEDRAL>
0

>  <SCORE.SYSTEM.SOLV>
0

>  <SCORE.SYSTEM.norm>
0

>  <SCORE.heavy>
10

>  <SCORE.norm>
-0.632929

>  <RMSD>
28.817

$$$$
ligand
 OpenBabel11021811473D
libRbt.so/2013.1/901 2013/11/27
 10  9  0  0  0  0  0  0  0  0999 V2000
   11.4932   36.3026   30.4939 N   0  0  0  0  0  0  0  0  0  0  0  0
   12.2889   37.2266   29.6434 C   0  0  2  0  0  0  0  0  0  0  0  0
   13.7790   36.8873   29.6943 C   0  0  0  0  0  0  0  0  0  0  0  0
   14.3423   36.6677   30.7620 O   0  0  0  0  0  0  0  0  0  0  0  0
   12.0136   38.6823   30.0371 C   0  0  0  0  0  0  0  0  0  0  0  0
   12.3162   38.9697   31.5042 C   0  0  0  0  0  0  0  0  0  0  0  0
   11.9916   40.4020   31.9051 C   0  0  0  0  0  0  0  0  0  0  0  0
   10.4813   40.6412   31.9086 C   0  0  0  0  0  0  0  0  0  0  0  0
    9.7188   39.7822   32.8947 N   0  0  0  0  0  0  0  0  0  0  0  0
   14.4740   36.7773   28.6908 O   0  0  0  0  0  0  0  0  0  0  0  0
  2  1  1  1  0  0  0
  2  3  1  0  0  0  0
  2  5  1  0  0  0  0
  3  4  1  0  0  0  0
  3 10  1  0  0  0  0
  5  6  1  0  0  0  0
  6  7  1  0  0  0  0
  7  8  1  0  0  0  0
  8  9  1  0  0  0  0
M  END
>  <CHROM.1>
-46.25588458,57.61279689,-177.80074527,69.34594481,61.83165101,12.32832538
38.21811981,30.74748540,0.88823416,-0.33574885,-2.75024807

>  <Name>
ligand

>  <RI>
0

>  <Rbt.Current_Directory>
/home/itssahil/PROJECTS/Mol_Feturizer/New_Systems/rnas/3DIM

>  <Rbt.Executable>
rbdock ($Id: //depot/dev/client3/rdock/2013.1/src/exe/rbdock.cxx#4 $)

>  <Rbt.Library>
libRbt.so (2013.1, Build901 2013/11/27)

>  <Rbt.Parameter_File>
/export/apps/rDock/src/rDock_2013.1_src/data/scripts/dock_solv.prm

>  <Rbt.Receptor>
prm/blind_docking_80.prm

>  <SCORE>
-3.45885

>  <SCORE.INTER>
-2.06708

>  <SCORE.INTER.CONST>
1

>  <SCORE.INTER.POLAR>
0

>  <SCORE.INTER.ROT>
5

>  <SCORE.INTER.SOLV>
8.28557

>  <SCORE.INTER.VDW>
-11.0732

>  <SCORE.INTER.norm>
-0.206708

>  <SCORE.INTRA>
-1.39177

>  <SCORE.INTRA.DIHEDRAL>
-3.90434

>  <SCORE.INTRA.DIHEDRAL.0>
5.8785

>  <SCORE.INTRA.POLAR>
0

>  <SCORE.INTRA.POLAR.0>
0

>  <SCORE.INTRA.REPUL>
0

>  <SCORE.INTRA.REPUL.0>
0

>  <SCORE.INTRA.SOLV>
0.53008

>  <SCORE.INTRA.SOLV.lig_0>
-31.9559

>  <SCORE.INTRA.VDW>
0.295358

>  <SCORE.INTRA.VDW.0>
-0.507645

>  <SCORE.INTRA.norm>
-0.139177

>  <SCORE.RESTR>
0

>  <SCORE.RESTR.CAVITY>
0

>  <SCORE.RESTR.norm>
0

>  <SCORE.SYSTEM>
0

>  <SCORE.SYSTEM.CONST>
0

>  <SCORE.SYSTEM.DIHEDRAL>
0

>  <SCORE.SYSTEM.SOLV>
0

>  <SCORE.SYSTEM.norm>
0

>  <SCORE.heavy>
10

>  <SCORE.norm>
-0.345885

>  <RMSD>
30.623

$$$$
ligand
 OpenBabel11021811473D
libRbt.so/2013.1/901 2013/11/27
 10  9  0  0  0  0  0  0  0  0999 V2000
   10.6657   39.9703   32.0298 N   0  0  0  0  0  0  0  0  0  0  0  0
   11.4025   40.4300   30.8231 C   0  0  2  0  0  0  0  0  0  0  0  0
   10.5755   41.4275   30.0113 C   0  0  0  0  0  0  0  0  0  0  0  0
   11.0988   42.4064   29.4883 O   0  0  0  0  0  0  0  0  0  0  0  0
   11.8482   39.2285   29.9820 C   0  0  0  0  0  0  0  0  0  0  0  0
   12.8498   38.3341   30.7053 C   0  0  0  0  0  0  0  0  0  0  0  0
   13.2959   37.1458   29.8648 C   0  0  0  0  0  0  0  0  0  0  0  0
   14.2529   36.2477   30.6496 C   0  0  0  0  0  0  0  0  0  0  0  0
   14.7117   35.0190   29.8936 N   0  0  0  0  0  0  0  0  0  0  0  0
    9.3751   41.2895   29.8056 O   0  0  0  0  0  0  0  0  0  0  0  0
  2  1  1  1  0  0  0
  2  3  1  0  0  0  0
  2  5  1  0  0  0  0
  3  4  1  0  0  0  0
  3 10  1  0  0  0  0
  5  6  1  0  0  0  0
  6  7  1  0  0  0  0
  7  8  1  0  0  0  0
  8  9  1  0  0  0  0
M  END
>  <CHROM.1>
140.54052131,-64.16109692,-179.70320371,-177.65938467,178.32415595,11.98269676
39.18410257,30.30712889,2.58354138,0.83584645,-0.88877843

>  <Name>
ligand

>  <RI>
0

>  <Rbt.Current_Directory>
/home/itssahil/PROJECTS/Mol_Feturizer/New_Systems/rnas/3DIM

>  <Rbt.Executable>
rbdock ($Id: //depot/dev/client3/rdock/2013.1/src/exe/rbdock.cxx#4 $)

>  <Rbt.Library>
libRbt.so (2013.1, Build901 2013/11/27)

>  <Rbt.Parameter_File>
/export/apps/rDock/src/rDock_2013.1_src/data/scripts/dock_solv.prm

>  <Rbt.Receptor>
prm/blind_docking_80.prm

>  <SCORE>
-7.86134

>  <SCORE.INTER>
-4.83019

>  <SCORE.INTER.CONST>
1

>  <SCORE.INTER.POLAR>
0

>  <SCORE.INTER.ROT>
5

>  <SCORE.INTER.SOLV>
7.26634

>  <SCORE.INTER.VDW>
-12.5756

>  <SCORE.INTER.norm>
-0.483019

>  <SCORE.INTRA>
-3.03115

>  <SCORE.INTRA.DIHEDRAL>
-4.32995

>  <SCORE.INTRA.DIHEDRAL.0>
5.8785

>  <SCORE.INTRA.POLAR>
0

>  <SCORE.INTRA.POLAR.0>
0

>  <SCORE.INTRA.REPUL>
0

>  <SCORE.INTRA.REPUL.0>
0

>  <SCORE.INTRA.SOLV>
-1.01485

>  <SCORE.INTRA.SOLV.lig_0>
-31.9559

>  <SCORE.INTRA.VDW>
-0.358749

>  <SCORE.INTRA.VDW.0>
-0.507645

>  <SCORE.INTRA.norm>
-0.303115

>  <SCORE.RESTR>
0

>  <SCORE.RESTR.CAVITY>
0

>  <SCORE.RESTR.norm>
0

>  <SCORE.SYSTEM>
0

>  <SCORE.SYSTEM.CONST>
0

>  <SCORE.SYSTEM.DIHEDRAL>
0

>  <SCORE.SYSTEM.SOLV>
0

>  <SCORE.SYSTEM.norm>
0

>  <SCORE.heavy>
10

>  <SCORE.norm>
-0.786134

>  <RMSD>
31.448

$$$$
ligand
 OpenBabel11021811473D
libRbt.so/2013.1/901 2013/11/27
 10  9  0  0  0  0  0  0  0  0999 V2000
   10.6471   39.9986   32.0184 N   0  0  0  0  0  0  0  0  0  0  0  0
   11.3969   40.4336   30.8106 C   0  0  2  0  0  0  0  0  0  0  0  0
   10.5890   41.4337   29.9830 C   0  0  0  0  0  0  0  0  0  0  0  0
    9.3820   41.2888   29.8163 O   0  0  0  0  0  0  0  0  0  0  0  0
   11.8294   39.2161   29.9856 C   0  0  0  0  0  0  0  0  0  0  0  0
   12.8409   38.3344   30.7109 C   0  0  0  0  0  0  0  0  0  0  0  0
   13.3116   37.1579   29.8672 C   0  0  0  0  0  0  0  0  0  0  0  0
   14.2615   36.2598   30.6605 C   0  0  0  0  0  0  0  0  0  0  0  0
   14.7671   35.0580   29.8912 N   0  0  0  0  0  0  0  0  0  0  0  0
   11.0808   42.4384   29.4821 O   0  0  0  0  0  0  0  0  0  0  0  0
  2  1  1  1  0  0  0
  2  3  1  0  0  0  0
  2  5  1  0  0  0  0
  3  4  1  0  0  0  0
  3 10  1  0  0  0  0
  5  6  1  0  0  0  0
  6  7  1  0  0  0  0
  7  8  1  0  0  0  0
  8  9  1  0  0  0  0
M  END
>  <CHROM.1>
-40.27327853,-65.61510007,-177.63665115,-176.80059022,179.57308819,11.98538129
39.19639724,30.30494971,2.57490234,0.82510046,-0.87579636

>  <Name>
ligand

>  <RI>
0

>  <Rbt.Current_Directory>
/home/itssahil/PROJECTS/Mol_Feturizer/New_Systems/rnas/3DIM

>  <Rbt.Executable>
rbdock ($Id: //depot/dev/client3/rdock/2013.1/src/exe/rbdock.cxx#4 $)

>  <Rbt.Library>
libRbt.so (2013.1, Build901 2013/11/27)

>  <Rbt.Parameter_File>
/export/apps/rDock/src/rDock_2013.1_src/data/scripts/dock_solv.prm

>  <Rbt.Receptor>
prm/blind_docking_80.prm

>  <SCORE>
-7.74897

>  <SCORE.INTER>
-4.82899

>  <SCORE.INTER.CONST>
1

>  <SCORE.INTER.POLAR>
0

>  <SCORE.INTER.ROT>
5

>  <SCORE.INTER.SOLV>
7.4436

>  <SCORE.INTER.VDW>
-12.6339

>  <SCORE.INTER.norm>
-0.482899

>  <SCORE.INTRA>
-2.91998

>  <SCORE.INTRA.DIHEDRAL>
-4.10287

>  <SCORE.INTRA.DIHEDRAL.0>
5.8785

>  <SCORE.INTRA.POLAR>
0

>  <SCORE.INTRA.POLAR.0>
0

>  <SCORE.INTRA.REPUL>
0

>  <SCORE.INTRA.REPUL.0>
0

>  <SCORE.INTRA.SOLV>
-1.02053

>  <SCORE.INTRA.SOLV.lig_0>
-31.9559

>  <SCORE.INTRA.VDW>
-0.358283

>  <SCORE.INTRA.VDW.0>
-0.507645

>  <SCORE.INTRA.norm>
-0.291998

>  <SCORE.RESTR>
0

>  <SCORE.RESTR.CAVITY>
0

>  <SCORE.RESTR.norm>
0

>  <SCORE.SYSTEM>
0

>  <SCORE.SYSTEM.CONST>
0

>  <SCORE.SYSTEM.DIHEDRAL>
0

>  <SCORE.SYSTEM.SOLV>
0

>  <SCORE.SYSTEM.norm>
0

>  <SCORE.heavy>
10

>  <SCORE.norm>
-0.774897

>  <RMSD>
31.455

$$$$
ligand
 OpenBabel11021811473D
libRbt.so/2013.1/901 2013/11/27
 10  9  0  0  0  0  0  0  0  0999 V2000
   10.6340   39.8670   31.9731 N   0  0  0  0  0  0  0  0  0  0  0  0
   11.3874   40.3738   30.7958 C   0  0  2  0  0  0  0  0  0  0  0  0
   10.5782   41.4151   30.0221 C   0  0  0  0  0  0  0  0  0  0  0  0
    9.3667   41.2914   29.8714 O   0  0  0  0  0  0  0  0  0  0  0  0
   11.8306   39.2074   29.9053 C   0  0  0  0  0  0  0  0  0  0  0  0
   12.8009   38.2603   30.6038 C   0  0  0  0  0  0  0  0  0  0  0  0
   13.2965   37.1450   29.6939 C   0  0  0  0  0  0  0  0  0  0  0  0
   14.2177   36.1881   30.4514 C   0  0  0  0  0  0  0  0  0  0  0  0
   13.5334   35.4118   31.5563 N   0  0  0  0  0  0  0  0  0  0  0  0
   11.0740   42.4326   29.5520 O   0  0  0  0  0  0  0  0  0  0  0  0
  2  1  1  1  0  0  0
  2  3  1  0  0  0  0
  2  5  1  0  0  0  0
  3  4  1  0  0  0  0
  3 10  1  0  0  0  0
  5  6  1  0  0  0  0
  6  7  1  0  0  0  0
  7  8  1  0  0  0  0
  8  9  1  0  0  0  0
M  END
>  <CHROM.1>
-38.33738410,-63.33761439,-176.95030677,-177.58938102,65.38005840,11.84764437
39.19435607,30.42519198,2.36211232,0.74197881,-0.72318495

>  <Name>
ligand

>  <RI>
0

>  <Rbt.Current_Directory>
/home/itssahil/PROJECTS/Mol_Feturizer/New_Systems/rnas/3DIM

>  <Rbt.Executable>
rbdock ($Id: //depot/dev/client3/rdock/2013.1/src/exe/rbdock.cxx#4 $)

>  <Rbt.Library>
libRbt.so (2013.1, Build901 2013/11/27)

>  <Rbt.Parameter_File>
/export/apps/rDock/src/rDock_2013.1_src/data/scripts/dock_solv.prm

>  <Rbt.Receptor>
prm/blind_docking_80.prm

>  <SCORE>
-7.14482

>  <SCORE.INTER>
-4.74902

>  <SCORE.INTER.CONST>
1

>  <SCORE.INTER.POLAR>
0

>  <SCORE.INTER.ROT>
5

>  <SCORE.INTER.SOLV>
6.43894

>  <SCORE.INTER.VDW>
-12.2457

>  <SCORE.INTER.norm>
-0.474902

>  <SCORE.INTRA>
-2.3958

>  <SCORE.INTRA.DIHEDRAL>
-4.07786

>  <SCORE.INTRA.DIHEDRAL.0>
5.8785

>  <SCORE.INTRA.POLAR>
0

>  <SCORE.INTRA.POLAR.0>
0

>  <SCORE.INTRA.REPUL>
0

>  <SCORE.INTRA.REPUL.0>
0

>  <SCORE.INTRA.SOLV>
-0.130911

>  <SCORE.INTRA.SOLV.lig_0>
-31.9559

>  <SCORE.INTRA.VDW>
-0.291412

>  <SCORE.INTRA.VDW.0>
-0.507645

>  <SCORE.INTRA.norm>
-0.23958

>  <SCORE.RESTR>
0

>  <SCORE.RESTR.CAVITY>
0

>  <SCORE.RESTR.norm>
0

>  <SCORE.SYSTEM>
0

>  <SCORE.SYSTEM.CONST>
0

>  <SCORE.SYSTEM.DIHEDRAL>
0

>  <SCORE.SYSTEM.SOLV>
0

>  <SCORE.SYSTEM.norm>
0

>  <SCORE.heavy>
10

>  <SCORE.norm>
-0.714482

>  <RMSD>
31.558

$$$$
ligand
 OpenBabel11021811473D
libRbt.so/2013.1/901 2013/11/27
 10  9  0  0  0  0  0  0  0  0999 V2000
   10.6066   41.9790   32.6077 N   0  0  0  0  0  0  0  0  0  0  0  0
   11.2443   41.3425   31.4251 C   0  0  2  0  0  0  0  0  0  0  0  0
   10.5341   41.7359   30.1295 C   0  0  0  0  0  0  0  0  0  0  0  0
    9.4207   41.2965   29.8592 O   0  0  0  0  0  0  0  0  0  0  0  0
   11.3102   39.8222   31.6099 C   0  0  0  0  0  0  0  0  0  0  0  0
   12.1399   39.1273   30.5351 C   0  0  0  0  0  0  0  0  0  0  0  0
   12.3389   37.6432   30.8094 C   0  0  0  0  0  0  0  0  0  0  0  0
   13.3282   37.0302   29.8175 C   0  0  0  0  0  0  0  0  0  0  0  0
   13.6270   35.5666   30.0629 N   0  0  0  0  0  0  0  0  0  0  0  0
   11.0068   42.5273   29.3218 O   0  0  0  0  0  0  0  0  0  0  0  0
  2  1  1  1  0  0  0
  2  3  1  0  0  0  0
  2  5  1  0  0  0  0
  3  4  1  0  0  0  0
  3 10  1  0  0  0  0
  5  6  1  0  0  0  0
  6  7  1  0  0  0  0
  7  8  1  0  0  0  0
  8  9  1  0  0  0  0
M  END
>  <CHROM.1>
-71.82062621,-171.25717276,173.30879591,-172.25236523,177.43537398,11.53481803
39.82768484,30.59009456,-3.04238514,1.09341452,-1.60233019

>  <Name>
ligand

>  <RI>
0

>  <Rbt.Current_Directory>
/home/itssahil/PROJECTS/Mol_Feturizer/New_Systems/rnas/3DIM

>  <Rbt.Executable>
rbdock ($Id: //depot/dev/client3/rdock/2013.1/src/exe/rbdock.cxx#4 $)

>  <Rbt.Library>
libRbt.so (2013.1, Build901 2013/11/27)

>  <Rbt.Parameter_File>
/export/apps/rDock/src/rDock_2013.1_src/data/scripts/dock_solv.prm

>  <Rbt.Receptor>
prm/blind_docking_80.prm

>  <SCORE>
-6.76378

>  <SCORE.INTER>
-3.71958

>  <SCORE.INTER.CONST>
1

>  <SCORE.INTER.POLAR>
0

>  <SCORE.INTER.ROT>
5

>  <SCORE.INTER.SOLV>
7.10426

>  <SCORE.INTER.VDW>
-11.7811

>  <SCORE.INTER.norm>
-0.371958

>  <SCORE.INTRA>
-3.04419

>  <SCORE.INTRA.DIHEDRAL>
-3.69171

>  <SCORE.INTRA.DIHEDRAL.0>
5.8785

>  <SCORE.INTRA.POLAR>
0

>  <SCORE.INTRA.POLAR.0>
0

>  <SCORE.INTRA.REPUL>
0

>  <SCORE.INTRA.REPUL.0>
0

>  <SCORE.INTRA.SOLV>
-1.86612

>  <SCORE.INTRA.SOLV.lig_0>
-31.9559

>  <SCORE.INTRA.VDW>
-0.26528

>  <SCORE.INTRA.VDW.0>
-0.507645

>  <SCORE.INTRA.norm>
-0.304419

>  <SCORE.RESTR>
0

>  <SCORE.RESTR.CAVITY>
0

>  <SCORE.RESTR.norm>
0

>  <SCORE.SYSTEM>
0

>  <SCORE.SYSTEM.CONST>
0

>  <SCORE.SYSTEM.DIHEDRAL>
0

>  <SCORE.SYSTEM.SOLV>
0

>  <SCORE.SYSTEM.norm>
0

>  <SCORE.heavy>
10

>  <SCORE.norm>
-0.676378

>  <RMSD>
32.247

$$$$
ligand
 OpenBabel11021811473D
libRbt.so/2013.1/901 2013/11/27
 10  9  0  0  0  0  0  0  0  0999 V2000
   -1.0106   41.5597   10.5725 N   0  0  0  0  0  0  0  0  0  0  0  0
    0.1182   41.1764    9.6842 C   0  0  2  0  0  0  0  0  0  0  0  0
    1.0633   42.3541    9.4438 C   0  0  0  0  0  0  0  0  0  0  0  0
    2.2781   42.1902    9.3887 O   0  0  0  0  0  0  0  0  0  0  0  0
   -0.4131   40.5847    8.3737 C   0  0  0  0  0  0  0  0  0  0  0  0
   -1.2689   39.3401    8.5862 C   0  0  0  0  0  0  0  0  0  0  0  0
   -1.7509   38.7240    7.2802 C   0  0  0  0  0  0  0  0  0  0  0  0
   -2.5852   37.4694    7.5410 C   0  0  0  0  0  0  0  0  0  0  0  0
   -3.0903   36.7880    6.2871 N   0  0  0  0  0  0  0  0  0  0  0  0
    0.6696   43.4995    9.2560 O   0  0  0  0  0  0  0  0  0  0  0  0
  2  1  1  1  0  0  0
  2  3  1  0  0  0  0
  2  5  1  0  0  0  0
  3  4  1  0  0  0  0
  3 10  1  0  0  0  0
  5  6  1  0  0  0  0
  6  7  1  0  0  0  0
  7  8  1  0  0  0  0
  8  9  1  0  0  0  0
M  END
>  <CHROM.1>
141.57193751,-59.79677170,-177.79652963,179.13261345,-179.36630481,-0.56948249
40.40404347,8.64153136,0.90318327,0.50805231,0.83397596

>  <Name>
ligand

>  <RI>
0

>  <Rbt.Current_Directory>
/home/itssahil/PROJECTS/Mol_Feturizer/New_Systems/rnas/3DIM

>  <Rbt.Executable>
rbdock ($Id: //depot/dev/client3/rdock/2013.1/src/exe/rbdock.cxx#4 $)

>  <Rbt.Library>
libRbt.so (2013.1, Build901 2013/11/27)

>  <Rbt.Parameter_File>
/export/apps/rDock/src/rDock_2013.1_src/data/scripts/dock_solv.prm

>  <Rbt.Receptor>
prm/blind_docking_100.prm

>  <SCORE>
-6.26711

>  <SCORE.INTER>
-3.2672

>  <SCORE.INTER.CONST>
1

>  <SCORE.INTER.POLAR>
0

>  <SCORE.INTER.ROT>
5

>  <SCORE.INTER.SOLV>
10.4608

>  <SCORE.INTER.VDW>
-12.5984

>  <SCORE.INTER.norm>
-0.32672

>  <SCORE.INTRA>
-2.9999

>  <SCORE.INTRA.DIHEDRAL>
-4.41918

>  <SCORE.INTRA.DIHEDRAL.0>
5.8785

>  <SCORE.INTRA.POLAR>
0

>  <SCORE.INTRA.POLAR.0>
0

>  <SCORE.INTRA.REPUL>
0

>  <SCORE.INTRA.REPUL.0>
0

>  <SCORE.INTRA.SOLV>
-0.965682

>  <SCORE.INTRA.SOLV.lig_0>
-31.9559

>  <SCORE.INTRA.VDW>
-0.30747

>  <SCORE.INTRA.VDW.0>
-0.507645

>  <SCORE.INTRA.norm>
-0.29999

>  <SCORE.RESTR>
0

>  <SCORE.RESTR.CAVITY>
0

>  <SCORE.RESTR.norm>
0

>  <SCORE.SYSTEM>
0

>  <SCORE.SYSTEM.CONST>
0

>  <SCORE.SYSTEM.DIHEDRAL>
0

>  <SCORE.SYSTEM.SOLV>
0

>  <SCORE.SYSTEM.norm>
0

>  <SCORE.heavy>
10

>  <SCORE.norm>
-0.626711

>  <RMSD>
41.633

$$$$
ligand
 OpenBabel11021811473D
libRbt.so/2013.1/901 2013/11/27
 10  9  0  0  0  0  0  0  0  0999 V2000
    2.6225   42.2048    9.5903 N   0  0  0  0  0  0  0  0  0  0  0  0
    1.3882   42.9003    9.1396 C   0  0  2  0  0  0  0  0  0  0  0  0
    1.2912   44.3055    9.7344 C   0  0  0  0  0  0  0  0  0  0  0  0
    2.1691   44.7430   10.4716 O   0  0  0  0  0  0  0  0  0  0  0  0
    0.1524   42.0510    9.4582 C   0  0  0  0  0  0  0  0  0  0  0  0
    0.0758   40.7754    8.6255 C   0  0  0  0  0  0  0  0  0  0  0  0
   -1.2439   40.0361    8.7966 C   0  0  0  0  0  0  0  0  0  0  0  0
   -1.3445   38.8616    7.8225 C   0  0  0  0  0  0  0  0  0  0  0  0
   -2.6757   38.1415    7.8538 N   0  0  0  0  0  0  0  0  0  0  0  0
    0.3715   45.0757    9.4831 O   0  0  0  0  0  0  0  0  0  0  0  0
  2  1  1  1  0  0  0
  2  3  1  0  0  0  0
  2  5  1  0  0  0  0
  3  4  1  0  0  0  0
  3 10  1  0  0  0  0
  5  6  1  0  0  0  0
  6  7  1  0  0  0  0
  7  8  1  0  0  0  0
  8  9  1  0  0  0  0
M  END
>  <CHROM.1>
0.78433663,-68.27810169,-171.77416123,173.18191270,-175.37659701,0.28605985
41.95255762,9.11286821,-1.02768912,0.19604898,-2.93909119

>  <Name>
ligand

>  <RI>
0

>  <Rbt.Current_Directory>
/home/itssahil/PROJECTS/Mol_Feturizer/New_Systems/rnas/3DIM

>  <Rbt.Executable>
rbdock ($Id: //depot/dev/client3/rdock/2013.1/src/exe/rbdock.cxx#4 $)

>  <Rbt.Library>
libRbt.so (2013.1, Build901 2013/11/27)

>  <Rbt.Parameter_File>
/export/apps/rDock/src/rDock_2013.1_src/data/scripts/dock_solv.prm

>  <Rbt.Receptor>
prm/blind_docking_100.prm

>  <SCORE>
-8.19164

>  <SCORE.INTER>
-5.71843

>  <SCORE.INTER.CONST>
1

>  <SCORE.INTER.POLAR>
0

>  <SCORE.INTER.ROT>
5

>  <SCORE.INTER.SOLV>
11.869

>  <SCORE.INTER.VDW>
-14.7019

>  <SCORE.INTER.norm>
-0.571843

>  <SCORE.INTRA>
-2.49566

>  <SCORE.INTRA.DIHEDRAL>
-3.53085

>  <SCORE.INTRA.DIHEDRAL.0>
5.8785

>  <SCORE.INTRA.POLAR>
0

>  <SCORE.INTRA.POLAR.0>
0

>  <SCORE.INTRA.REPUL>
0

>  <SCORE.INTRA.REPUL.0>
0

>  <SCORE.INTRA.SOLV>
-1.07331

>  <SCORE.INTRA.SOLV.lig_0>
-31.9559

>  <SCORE.INTRA.VDW>
-0.193577

>  <SCORE.INTRA.VDW.0>
-0.507645

>  <SCORE.INTRA.norm>
-0.249566

>  <SCORE.RESTR>
0.022451

>  <SCORE.RESTR.CAVITY>
0.022451

>  <SCORE.RESTR.norm>
0.0022451

>  <SCORE.SYSTEM>
0

>  <SCORE.SYSTEM.CONST>
0

>  <SCORE.SYSTEM.DIHEDRAL>
0

>  <SCORE.SYSTEM.SOLV>
0

>  <SCORE.SYSTEM.norm>
0

>  <SCORE.heavy>
10

>  <SCORE.norm>
-0.819164

>  <RMSD>
41.774

$$$$
ligand
 OpenBabel11021811473D
libRbt.so/2013.1/901 2013/11/27
 10  9  0  0  0  0  0  0  0  0999 V2000
    0.1691   40.0791    8.7429 N   0  0  0  0  0  0  0  0  0  0  0  0
   -0.0185   41.4804    9.2028 C   0  0  2  0  0  0  0  0  0  0  0  0
    1.2840   42.2761    9.1123 C   0  0  0  0  0  0  0  0  0  0  0  0
    1.2816   43.4603    8.7910 O   0  0  0  0  0  0  0  0  0  0  0  0
   -0.6121   41.5016   10.6160 C   0  0  0  0  0  0  0  0  0  0  0  0
   -1.9865   40.8448   10.6945 C   0  0  0  0  0  0  0  0  0  0  0  0
   -2.6113   40.9450   12.0790 C   0  0  0  0  0  0  0  0  0  0  0  0
   -4.0040   40.3138   12.0988 C   0  0  0  0  0  0  0  0  0  0  0  0
   -4.6820   40.3482   13.4519 N   0  0  0  0  0  0  0  0  0  0  0  0
    2.3789   41.7995    9.3884 O   0  0  0  0  0  0  0  0  0  0  0  0
  2  1  1  1  0  0  0
  2  3  1  0  0  0  0
  2  5  1  0  0  0  0
  3  4  1  0  0  0  0
  3 10  1  0  0  0  0
  5  6  1  0  0  0  0
  6  7  1  0  0  0  0
  7  8  1  0  0  0  0
  8  9  1  0  0  0  0
M  END
>  <CHROM.1>
143.44924102,-61.51902282,-176.37735247,178.18782219,178.79980134,-0.84097576
41.32710088,10.40777441,-0.00443519,-0.63491981,-2.70289247

>  <Name>
ligand

>  <RI>
0

>  <Rbt.Current_Directory>
/home/itssahil/PROJECTS/Mol_Feturizer/New_Systems/rnas/3DIM

>  <Rbt.Executable>
rbdock ($Id: //depot/dev/client3/rdock/2013.1/src/exe/rbdock.cxx#4 $)

>  <Rbt.Library>
libRbt.so (2013.1, Build901 2013/11/27)

>  <Rbt.Parameter_File>
/export/apps/rDock/src/rDock_2013.1_src/data/scripts/dock_solv.prm

>  <Rbt.Receptor>
prm/blind_docking_100.prm

>  <SCORE>
-7.22302

>  <SCORE.INTER>
-4.22029

>  <SCORE.INTER.CONST>
1

>  <SCORE.INTER.POLAR>
0

>  <SCORE.INTER.ROT>
5

>  <SCORE.INTER.SOLV>
9.13932

>  <SCORE.INTER.VDW>
-12.7933

>  <SCORE.INTER.norm>
-0.422029

>  <SCORE.INTRA>
-3.00273

>  <SCORE.INTRA.DIHEDRAL>
-4.36096

>  <SCORE.INTRA.DIHEDRAL.0>
5.8785

>  <SCORE.INTRA.POLAR>
0

>  <SCORE.INTRA.POLAR.0>
0

>  <SCORE.INTRA.REPUL>
0

>  <SCORE.INTRA.REPUL.0>
0

>  <SCORE.INTRA.SOLV>
-0.993547

>  <SCORE.INTRA.SOLV.lig_0>
-31.9559

>  <SCORE.INTRA.VDW>
-0.325478

>  <SCORE.INTRA.VDW.0>
-0.507645

>  <SCORE.INTRA.norm>
-0.300273

>  <SCORE.RESTR>
0

>  <SCORE.RESTR.CAVITY>
0

>  <SCORE.RESTR.norm>
0

>  <SCORE.SYSTEM>
0

>  <SCORE.SYSTEM.CONST>
0

>  <SCORE.SYSTEM.DIHEDRAL>
0

>  <SCORE.SYSTEM.SOLV>
0

>  <SCORE.SYSTEM.norm>
0

>  <SCORE.heavy>
10

>  <SCORE.norm>
-0.722302

>  <RMSD>
41.927

$$$$
ligand
 OpenBabel11021811473D
libRbt.so/2013.1/901 2013/11/27
 10  9  0  0  0  0  0  0  0  0999 V2000
   -2.6104   40.1115    9.6106 N   0  0  0  0  0  0  0  0  0  0  0  0
   -1.1699   40.0600    9.2465 C   0  0  2  0  0  0  0  0  0  0  0  0
   -0.3645   41.1137   10.0073 C   0  0  0  0  0  0  0  0  0  0  0  0
   -0.8269   41.6706   10.9981 O   0  0  0  0  0  0  0  0  0  0  0  0
   -1.0000   40.1871    7.7283 C   0  0  0  0  0  0  0  0  0  0  0  0
   -1.5403   38.9817    6.9657 C   0  0  0  0  0  0  0  0  0  0  0  0
   -3.0615   38.9462    6.9175 C   0  0  0  0  0  0  0  0  0  0  0  0
   -3.5569   37.7264    6.1397 C   0  0  0  0  0  0  0  0  0  0  0  0
   -3.2128   36.3992    6.7814 N   0  0  0  0  0  0  0  0  0  0  0  0
    0.7805   41.4279    9.7032 O   0  0  0  0  0  0  0  0  0  0  0  0
  2  1  1  6  0  0  0
  2  3  1  0  0  0  0
  2  5  1  0  0  0  0
  3  4  1  0  0  0  0
  3 10  1  0  0  0  0
  5  6  1  0  0  0  0
  6  7  1  0  0  0  0
  7  8  1  0  0  0  0
  8  9  1  0  0  0  0
M  END
>  <CHROM.1>
15.96545740,-67.61014262,74.06881562,179.76355268,64.46116915,-1.63218888
39.69201951,8.43534735,1.00578309,0.45714167,1.04357628

>  <Name>
ligand

>  <RI>
0

>  <Rbt.Current_Directory>
/home/itssahil/PROJECTS/Mol_Feturizer/New_Systems/rnas/3DIM

>  <Rbt.Executable>
rbdock ($Id: //depot/dev/client3/rdock/2013.1/src/exe/rbdock.cxx#4 $)

>  <Rbt.Library>
libRbt.so (2013.1, Build901 2013/11/27)

>  <Rbt.Parameter_File>
/export/apps/rDock/src/rDock_2013.1_src/data/scripts/dock_solv.prm

>  <Rbt.Receptor>
prm/blind_docking_100.prm

>  <SCORE>
-5.74199

>  <SCORE.INTER>
-4.90618

>  <SCORE.INTER.CONST>
1

>  <SCORE.INTER.POLAR>
0

>  <SCORE.INTER.ROT>
5

>  <SCORE.INTER.SOLV>
5.87774

>  <SCORE.INTER.VDW>
-12.1634

>  <SCORE.INTER.norm>
-0.490618

>  <SCORE.INTRA>
-0.835812

>  <SCORE.INTRA.DIHEDRAL>
-3.31753

>  <SCORE.INTRA.DIHEDRAL.0>
5.8785

>  <SCORE.INTRA.POLAR>
0

>  <SCORE.INTRA.POLAR.0>
0

>  <SCORE.INTRA.REPUL>
0

>  <SCORE.INTRA.REPUL.0>
0

>  <SCORE.INTRA.SOLV>
1.20668

>  <SCORE.INTRA.SOLV.lig_0>
-31.9559

>  <SCORE.INTRA.VDW>
0.219609

>  <SCORE.INTRA.VDW.0>
-0.507645

>  <SCORE.INTRA.norm>
-0.0835812

>  <SCORE.RESTR>
0

>  <SCORE.RESTR.CAVITY>
0

>  <SCORE.RESTR.norm>
0

>  <SCORE.SYSTEM>
0

>  <SCORE.SYSTEM.CONST>
0

>  <SCORE.SYSTEM.DIHEDRAL>
0

>  <SCORE.SYSTEM.SOLV>
0

>  <SCORE.SYSTEM.norm>
0

>  <SCORE.heavy>
10

>  <SCORE.norm>
-0.574199

>  <RMSD>
42.104

$$$$
ligand
 OpenBabel11021811473D
libRbt.so/2013.1/901 2013/11/27
 10  9  0  0  0  0  0  0  0  0999 V2000
    1.0643   40.9928    9.1853 N   0  0  0  0  0  0  0  0  0  0  0  0
    0.1532   42.1426    9.4265 C   0  0  2  0  0  0  0  0  0  0  0  0
    0.9179   43.4666    9.4395 C   0  0  0  0  0  0  0  0  0  0  0  0
    1.5707   43.8305    8.4662 O   0  0  0  0  0  0  0  0  0  0  0  0
   -0.6484   41.9252   10.7149 C   0  0  0  0  0  0  0  0  0  0  0  0
   -1.6789   40.8072   10.5934 C   0  0  0  0  0  0  0  0  0  0  0  0
   -2.5716   40.6902   11.8210 C   0  0  0  0  0  0  0  0  0  0  0  0
   -3.5992   39.5714   11.6467 C   0  0  0  0  0  0  0  0  0  0  0  0
   -4.5441   39.4082   12.8182 N   0  0  0  0  0  0  0  0  0  0  0  0
    0.8918   44.2443   10.3864 O   0  0  0  0  0  0  0  0  0  0  0  0
  2  1  1  1  0  0  0
  2  3  1  0  0  0  0
  2  5  1  0  0  0  0
  3  4  1  0  0  0  0
  3 10  1  0  0  0  0
  5  6  1  0  0  0  0
  6  7  1  0  0  0  0
  7  8  1  0  0  0  0
  8  9  1  0  0  0  0
M  END
>  <CHROM.1>
58.77409610,-69.57418660,-173.96886224,179.22456582,-178.91854532,-0.81844788
41.74523656,10.44277011,-0.34490952,-0.69295702,-2.74889613

>  <Name>
ligand

>  <RI>
0

>  <Rbt.Current_Directory>
/home/itssahil/PROJECTS/Mol_Feturizer/New_Systems/rnas/3DIM

>  <Rbt.Executable>
rbdock ($Id: //depot/dev/client3/rdock/2013.1/src/exe/rbdock.cxx#4 $)

>  <Rbt.Library>
libRbt.so (2013.1, Build901 2013/11/27)

>  <Rbt.Parameter_File>
/export/apps/rDock/src/rDock_2013.1_src/data/scripts/dock_solv.prm

>  <Rbt.Receptor>
prm/blind_docking_100.prm

>  <SCORE>
-6.33502

>  <SCORE.INTER>
-3.99569

>  <SCORE.INTER.CONST>
1

>  <SCORE.INTER.POLAR>
0

>  <SCORE.INTER.ROT>
5

>  <SCORE.INTER.SOLV>
9.30596

>  <SCORE.INTER.VDW>
-12.6991

>  <SCORE.INTER.norm>
-0.399569

>  <SCORE.INTRA>
-2.33933

>  <SCORE.INTRA.DIHEDRAL>
-3.85254

>  <SCORE.INTRA.DIHEDRAL.0>
5.8785

>  <SCORE.INTRA.POLAR>
0

>  <SCORE.INTRA.POLAR.0>
0

>  <SCORE.INTRA.REPUL>
0

>  <SCORE.INTRA.REPUL.0>
0

>  <SCORE.INTRA.SOLV>
-1.11532

>  <SCORE.INTRA.SOLV.lig_0>
-31.9559

>  <SCORE.INTRA.VDW>
0.144596

>  <SCORE.INTRA.VDW.0>
-0.507645

>  <SCORE.INTRA.norm>
-0.233933

>  <SCORE.RESTR>
0

>  <SCORE.RESTR.CAVITY>
0

>  <SCORE.RESTR.norm>
0

>  <SCORE.SYSTEM>
0

>  <SCORE.SYSTEM.CONST>
0

>  <SCORE.SYSTEM.DIHEDRAL>
0

>  <SCORE.SYSTEM.SOLV>
0

>  <SCORE.SYSTEM.norm>
0

>  <SCORE.heavy>
10

>  <SCORE.norm>
-0.633502

>  <RMSD>
42.122

$$$$
ligand
 OpenBabel11021811473D
libRbt.so/2013.1/901 2013/11/27
 10  9  0  0  0  0  0  0  0  0999 V2000
    0.8439   40.7351    8.9750 N   0  0  0  0  0  0  0  0  0  0  0  0
    0.0968   41.9514    9.3907 C   0  0  2  0  0  0  0  0  0  0  0  0
    1.0292   43.1536    9.5427 C   0  0  0  0  0  0  0  0  0  0  0  0
    2.2479   43.0118    9.5586 O   0  0  0  0  0  0  0  0  0  0  0  0
   -0.7023   41.6741   10.6692 C   0  0  0  0  0  0  0  0  0  0  0  0
   -1.8179   40.6541   10.4646 C   0  0  0  0  0  0  0  0  0  0  0  0
   -2.7035   40.4925   11.6922 C   0  0  0  0  0  0  0  0  0  0  0  0
   -3.5583   41.7399   11.9195 C   0  0  0  0  0  0  0  0  0  0  0  0
   -4.4533   41.6655   13.1381 N   0  0  0  0  0  0  0  0  0  0  0  0
    0.6246   44.3083    9.6153 O   0  0  0  0  0  0  0  0  0  0  0  0
  2  1  1  1  0  0  0
  2  3  1  0  0  0  0
  2  5  1  0  0  0  0
  3  4  1  0  0  0  0
  3 10  1  0  0  0  0
  5  6  1  0  0  0  0
  6  7  1  0  0  0  0
  7  8  1  0  0  0  0
  8  9  1  0  0  0  0
M  END
>  <CHROM.1>
-12.64817018,-65.90349769,-173.77858229,69.89451532,-179.08428231,-0.80878221
41.96950395,10.49253223,-0.15524291,-0.56694308,-2.90674272

>  <Name>
ligand

>  <RI>
0

>  <Rbt.Current_Directory>
/home/itssahil/PROJECTS/Mol_Feturizer/New_Systems/rnas/3DIM

>  <Rbt.Executable>
rbdock ($Id: //depot/dev/client3/rdock/2013.1/src/exe/rbdock.cxx#4 $)

>  <Rbt.Library>
libRbt.so (2013.1, Build901 2013/11/27)

>  <Rbt.Parameter_File>
/export/apps/rDock/src/rDock_2013.1_src/data/scripts/dock_solv.prm

>  <Rbt.Receptor>
prm/blind_docking_100.prm

>  <SCORE>
-6.87317

>  <SCORE.INTER>
-4.87835

>  <SCORE.INTER.CONST>
1

>  <SCORE.INTER.POLAR>
0

>  <SCORE.INTER.ROT>
5

>  <SCORE.INTER.SOLV>
9.3544

>  <SCORE.INTER.VDW>
-13.3037

>  <SCORE.INTER.norm>
-0.487835

>  <SCORE.INTRA>
-1.99482

>  <SCORE.INTRA.DIHEDRAL>
-3.60044

>  <SCORE.INTRA.DIHEDRAL.0>
5.8785

>  <SCORE.INTRA.POLAR>
0

>  <SCORE.INTRA.POLAR.0>
0

>  <SCORE.INTRA.REPUL>
0

>  <SCORE.INTRA.REPUL.0>
0

>  <SCORE.INTRA.SOLV>
-0.846048

>  <SCORE.INTRA.SOLV.lig_0>
-31.9559

>  <SCORE.INTRA.VDW>
0.22843

>  <SCORE.INTRA.VDW.0>
-0.507645

>  <SCORE.INTRA.norm>
-0.199482

>  <SCORE.RESTR>
0

>  <SCORE.RESTR.CAVITY>
0

>  <SCORE.RESTR.norm>
0

>  <SCORE.SYSTEM>
0

>  <SCORE.SYSTEM.CONST>
0

>  <SCORE.SYSTEM.DIHEDRAL>
0

>  <SCORE.SYSTEM.SOLV>
0

>  <SCORE.SYSTEM.norm>
0

>  <SCORE.heavy>
10

>  <SCORE.norm>
-0.687317

>  <RMSD>
42.250

$$$$
ligand
 OpenBabel11021811473D
libRbt.so/2013.1/901 2013/11/27
 10  9  0  0  0  0  0  0  0  0999 V2000
   -5.0786   40.8132   12.8516 N   0  0  0  0  0  0  0  0  0  0  0  0
   -4.0993   40.6175   11.7503 C   0  0  2  0  0  0  0  0  0  0  0  0
   -3.1305   41.7962   11.6497 C   0  0  0  0  0  0  0  0  0  0  0  0
   -3.5320   42.9536   11.7194 O   0  0  0  0  0  0  0  0  0  0  0  0
   -4.8301   40.3553   10.4286 C   0  0  0  0  0  0  0  0  0  0  0  0
   -3.8863   39.9802    9.2906 C   0  0  0  0  0  0  0  0  0  0  0  0
   -4.6191   39.6692    7.9930 C   0  0  0  0  0  0  0  0  0  0  0  0
   -3.6442   39.2033    6.9110 C   0  0  0  0  0  0  0  0  0  0  0  0
   -2.8964   37.9326    7.2545 N   0  0  0  0  0  0  0  0  0  0  0  0
   -1.9180   41.6570   11.5367 O   0  0  0  0  0  0  0  0  0  0  0  0
  2  1  1  1  0  0  0
  2  3  1  0  0  0  0
  2  5  1  0  0  0  0
  3  4  1  0  0  0  0
  3 10  1  0  0  0  0
  5  6  1  0  0  0  0
  6  7  1  0  0  0  0
  7  8  1  0  0  0  0
  8  9  1  0  0  0  0
M  END
>  <CHROM.1>
-44.38902545,-173.09439772,177.82753046,-175.97221067,61.46633831,-3.74101687
40.52927318,10.14711828,1.56984649,0.42225160,1.00884500

>  <Name>
ligand

>  <RI>
0

>  <Rbt.Current_Directory>
/home/itssahil/PROJECTS/Mol_Feturizer/New_Systems/rnas/3DIM

>  <Rbt.Executable>
rbdock ($Id: //depot/dev/client3/rdock/2013.1/src/exe/rbdock.cxx#4 $)

>  <Rbt.Library>
libRbt.so (2013.1, Build901 2013/11/27)

>  <Rbt.Parameter_File>
/export/apps/rDock/src/rDock_2013.1_src/data/scripts/dock_solv.prm

>  <Rbt.Receptor>
prm/blind_docking_100.prm

>  <SCORE>
-4.28112

>  <SCORE.INTER>
-1.48038

>  <SCORE.INTER.CONST>
1

>  <SCORE.INTER.POLAR>
0

>  <SCORE.INTER.ROT>
5

>  <SCORE.INTER.SOLV>
1.55888

>  <SCORE.INTER.VDW>
-8.43988

>  <SCORE.INTER.norm>
-0.148038

>  <SCORE.INTRA>
-2.80074

>  <SCORE.INTRA.DIHEDRAL>
-4.05235

>  <SCORE.INTRA.DIHEDRAL.0>
5.8785

>  <SCORE.INTRA.POLAR>
0

>  <SCORE.INTRA.POLAR.0>
0

>  <SCORE.INTRA.REPUL>
0

>  <SCORE.INTRA.REPUL.0>
0

>  <SCORE.INTRA.SOLV>
-0.930656

>  <SCORE.INTRA.SOLV.lig_0>
-31.9559

>  <SCORE.INTRA.VDW>
-0.309242

>  <SCORE.INTRA.VDW.0>
-0.507645

>  <SCORE.INTRA.norm>
-0.280074

>  <SCORE.RESTR>
0

>  <SCORE.RESTR.CAVITY>
0

>  <SCORE.RESTR.norm>
0

>  <SCORE.SYSTEM>
0

>  <SCORE.SYSTEM.CONST>
0

>  <SCORE.SYSTEM.DIHEDRAL>
0

>  <SCORE.SYSTEM.SOLV>
0

>  <SCORE.SYSTEM.norm>
0

>  <SCORE.heavy>
10

>  <SCORE.norm>
-0.428112

>  <RMSD>
43.789

$$$$
ligand
 OpenBabel11021811473D
libRbt.so/2013.1/901 2013/11/27
 10  9  0  0  0  0  0  0  0  0999 V2000
   -4.1776   36.6414    6.2414 N   0  0  0  0  0  0  0  0  0  0  0  0
   -4.1069   38.0981    6.5301 C   0  0  2  0  0  0  0  0  0  0  0  0
   -2.7086   38.6534    6.2576 C   0  0  0  0  0  0  0  0  0  0  0  0
   -1.7247   37.9201    6.2592 O   0  0  0  0  0  0  0  0  0  0  0  0
   -4.5716   38.3797    7.9635 C   0  0  0  0  0  0  0  0  0  0  0  0
   -4.6957   39.8692    8.2674 C   0  0  0  0  0  0  0  0  0  0  0  0
   -4.9512   40.1525    9.7412 C   0  0  0  0  0  0  0  0  0  0  0  0
   -5.0679   41.6554    9.9982 C   0  0  0  0  0  0  0  0  0  0  0  0
   -5.2134   42.0260   11.4588 N   0  0  0  0  0  0  0  0  0  0  0  0
   -2.4976   39.8301    5.9876 O   0  0  0  0  0  0  0  0  0  0  0  0
  2  1  1  1  0  0  0
  2  3  1  0  0  0  0
  2  5  1  0  0  0  0
  3  4  1  0  0  0  0
  3 10  1  0  0  0  0
  5  6  1  0  0  0  0
  6  7  1  0  0  0  0
  7  8  1  0  0  0  0
  8  9  1  0  0  0  0
M  END
>  <CHROM.1>
-22.78426825,-172.57590430,-171.32829082,179.98721958,-175.40646724,-3.93636969
39.32837579,7.85397762,1.08393060,-0.65665285,-2.55477253

>  <Name>
ligand

>  <RI>
0

>  <Rbt.Current_Directory>
/home/itssahil/PROJECTS/Mol_Feturizer/New_Systems/rnas/3DIM

>  <Rbt.Executable>
rbdock ($Id: //depot/dev/client3/rdock/2013.1/src/exe/rbdock.cxx#4 $)

>  <Rbt.Library>
libRbt.so (2013.1, Build901 2013/11/27)

>  <Rbt.Parameter_File>
/export/apps/rDock/src/rDock_2013.1_src/data/scripts/dock_solv.prm

>  <Rbt.Receptor>
prm/blind_docking_100.prm

>  <SCORE>
-3.5409

>  <SCORE.INTER>
-0.446707

>  <SCORE.INTER.CONST>
1

>  <SCORE.INTER.POLAR>
0

>  <SCORE.INTER.ROT>
5

>  <SCORE.INTER.SOLV>
8.24937

>  <SCORE.INTER.VDW>
-9.98093

>  <SCORE.INTER.norm>
-0.0446707

>  <SCORE.INTRA>
-3.09419

>  <SCORE.INTRA.DIHEDRAL>
-3.70631

>  <SCORE.INTRA.DIHEDRAL.0>
5.8785

>  <SCORE.INTRA.POLAR>
0

>  <SCORE.INTRA.POLAR.0>
0

>  <SCORE.INTRA.REPUL>
0

>  <SCORE.INTRA.REPUL.0>
0

>  <SCORE.INTRA.SOLV>
-1.84629

>  <SCORE.INTRA.SOLV.lig_0>
-31.9559

>  <SCORE.INTRA.VDW>
-0.317891

>  <SCORE.INTRA.VDW.0>
-0.507645

>  <SCORE.INTRA.norm>
-0.309419

>  <SCORE.RESTR>
0

>  <SCORE.RESTR.CAVITY>
0

>  <SCORE.RESTR.norm>
0

>  <SCORE.SYSTEM>
0

>  <SCORE.SYSTEM.CONST>
0

>  <SCORE.SYSTEM.DIHEDRAL>
0

>  <SCORE.SYSTEM.SOLV>
0

>  <SCORE.SYSTEM.norm>
0

>  <SCORE.heavy>
10

>  <SCORE.norm>
-0.35409

>  <RMSD>
43.998

$$$$
ligand
 OpenBabel11021811473D
libRbt.so/2013.1/901 2013/11/27
 10  9  0  0  0  0  0  0  0  0999 V2000
   -5.1610   40.6525   10.6042 N   0  0  0  0  0  0  0  0  0  0  0  0
   -5.4352   42.0736   10.9441 C   0  0  2  0  0  0  0  0  0  0  0  0
   -5.7335   42.8989    9.6920 C   0  0  0  0  0  0  0  0  0  0  0  0
   -5.9937   44.0955    9.7693 O   0  0  0  0  0  0  0  0  0  0  0  0
   -4.2768   42.6588   11.7599 C   0  0  0  0  0  0  0  0  0  0  0  0
   -4.1048   41.9852   13.1175 C   0  0  0  0  0  0  0  0  0  0  0  0
   -5.2386   42.3025   14.0826 C   0  0  0  0  0  0  0  0  0  0  0  0
   -4.9740   41.6910   15.4590 C   0  0  0  0  0  0  0  0  0  0  0  0
   -6.0376   42.0008   16.4908 N   0  0  0  0  0  0  0  0  0  0  0  0
   -5.6916   42.4333    8.5590 O   0  0  0  0  0  0  0  0  0  0  0  0
  2  1  1  6  0  0  0
  2  3  1  0  0  0  0
  2  5  1  0  0  0  0
  3  4  1  0  0  0  0
  3 10  1  0  0  0  0
  5  6  1  0  0  0  0
  6  7  1  0  0  0  0
  7  8  1  0  0  0  0
  8  9  1  0  0  0  0
M  END
>  <CHROM.1>
179.51290563,-64.26729541,-69.47433904,-175.88609146,178.10326305,-5.27282751
42.29963241,12.00832956,-1.70254565,-1.14407405,1.58297406

>  <Name>
ligand

>  <RI>
0

>  <Rbt.Current_Directory>
/home/itssahil/PROJECTS/Mol_Feturizer/New_Systems/rnas/3DIM

>  <Rbt.Executable>
rbdock ($Id: //depot/dev/client3/rdock/2013.1/src/exe/rbdock.cxx#4 $)

>  <Rbt.Library>
libRbt.so (2013.1, Build901 2013/11/27)

>  <Rbt.Parameter_File>
/export/apps/rDock/src/rDock_2013.1_src/data/scripts/dock_solv.prm

>  <Rbt.Receptor>
prm/blind_docking_100.prm

>  <SCORE>
-5.90213

>  <SCORE.INTER>
-3.68139

>  <SCORE.INTER.CONST>
1

>  <SCORE.INTER.POLAR>
0

>  <SCORE.INTER.ROT>
5

>  <SCORE.INTER.SOLV>
5.50624

>  <SCORE.INTER.VDW>
-11.223

>  <SCORE.INTER.norm>
-0.368139

>  <SCORE.INTRA>
-2.22074

>  <SCORE.INTRA.DIHEDRAL>
-3.84823

>  <SCORE.INTRA.DIHEDRAL.0>
5.8785

>  <SCORE.INTRA.POLAR>
0

>  <SCORE.INTRA.POLAR.0>
0

>  <SCORE.INTRA.REPUL>
0

>  <SCORE.INTRA.REPUL.0>
0

>  <SCORE.INTRA.SOLV>
-0.552011

>  <SCORE.INTRA.SOLV.lig_0>
-31.9559

>  <SCORE.INTRA.VDW>
-0.0206163

>  <SCORE.INTRA.VDW.0>
-0.507645

>  <SCORE.INTRA.norm>
-0.222074

>  <SCORE.RESTR>
0

>  <SCORE.RESTR.CAVITY>
0

>  <SCORE.RESTR.norm>
0

>  <SCORE.SYSTEM>
0

>  <SCORE.SYSTEM.CONST>
0

>  <SCORE.SYSTEM.DIHEDRAL>
0

>  <SCORE.SYSTEM.SOLV>
0

>  <SCORE.SYSTEM.norm>
0

>  <SCORE.heavy>
10

>  <SCORE.norm>
-0.590213

>  <RMSD>
45.653

$$$$
ligand
 OpenBabel11021811473D
libRbt.so/2013.1/901 2013/11/27
 10  9  0  0  0  0  0  0  0  0999 V2000
    1.8176   49.0447    2.0346 N   0  0  0  0  0  0  0  0  0  0  0  0
    1.1212   47.9121    2.6999 C   0  0  2  0  0  0  0  0  0  0  0  0
    2.0295   46.6871    2.8110 C   0  0  0  0  0  0  0  0  0  0  0  0
    2.8407   46.4183    1.9304 O   0  0  0  0  0  0  0  0  0  0  0  0
   -0.1915   47.5947    1.9748 C   0  0  0  0  0  0  0  0  0  0  0  0
    0.0177   47.1591    0.5281 C   0  0  0  0  0  0  0  0  0  0  0  0
   -1.2384   46.5712   -0.0997 C   0  0  0  0  0  0  0  0  0  0  0  0
   -2.2671   47.6637   -0.3936 C   0  0  0  0  0  0  0  0  0  0  0  0
   -2.8681   48.2992    0.8420 N   0  0  0  0  0  0  0  0  0  0  0  0
    2.0293   45.9407    3.7831 O   0  0  0  0  0  0  0  0  0  0  0  0
  2  1  1  6  0  0  0
  2  3  1  0  0  0  0
  2  5  1  0  0  0  0
  3  4  1  0  0  0  0
  3 10  1  0  0  0  0
  5  6  1  0  0  0  0
  6  7  1  0  0  0  0
  7  8  1  0  0  0  0
  8  9  1  0  0  0  0
M  END
>  <CHROM.1>
-35.15791463,61.90662544,168.05378856,72.88567030,-68.05767213,0.35824611
47.30154965,1.62101302,0.01778091,-0.57416898,0.34531885

>  <Name>
ligand

>  <RI>
0

>  <Rbt.Current_Directory>
/home/itssahil/PROJECTS/Mol_Feturizer/New_Systems/rnas/3DIM

>  <Rbt.Executable>
rbdock ($Id: //depot/dev/client3/rdock/2013.1/src/exe/rbdock.cxx#4 $)

>  <Rbt.Library>
libRbt.so (2013.1, Build901 2013/11/27)

>  <Rbt.Parameter_File>
/export/apps/rDock/src/rDock_2013.1_src/data/scripts/dock_solv.prm

>  <Rbt.Receptor>
prm/blind_docking_80.prm

>  <SCORE>
-7.16988

>  <SCORE.INTER>
-6.6284

>  <SCORE.INTER.CONST>
1

>  <SCORE.INTER.POLAR>
0

>  <SCORE.INTER.ROT>
5

>  <SCORE.INTER.SOLV>
5.31698

>  <SCORE.INTER.VDW>
-13.1246

>  <SCORE.INTER.norm>
-0.66284

>  <SCORE.INTRA>
-0.541478

>  <SCORE.INTRA.DIHEDRAL>
-2.79382

>  <SCORE.INTRA.DIHEDRAL.0>
5.8785

>  <SCORE.INTRA.POLAR>
0

>  <SCORE.INTRA.POLAR.0>
0

>  <SCORE.INTRA.REPUL>
0

>  <SCORE.INTRA.REPUL.0>
0

>  <SCORE.INTRA.SOLV>
1.1489

>  <SCORE.INTRA.SOLV.lig_0>
-31.9559

>  <SCORE.INTRA.VDW>
0.280982

>  <SCORE.INTRA.VDW.0>
-0.507645

>  <SCORE.INTRA.norm>
-0.0541478

>  <SCORE.RESTR>
0

>  <SCORE.RESTR.CAVITY>
0

>  <SCORE.RESTR.norm>
0

>  <SCORE.SYSTEM>
0

>  <SCORE.SYSTEM.CONST>
0

>  <SCORE.SYSTEM.DIHEDRAL>
0

>  <SCORE.SYSTEM.SOLV>
0

>  <SCORE.SYSTEM.norm>
0

>  <SCORE.heavy>
10

>  <SCORE.norm>
-0.716988

>  <RMSD>
47.842

$$$$
ligand
 OpenBabel11021811473D
libRbt.so/2013.1/901 2013/11/27
 10  9  0  0  0  0  0  0  0  0999 V2000
    1.5165   48.9270    3.2555 N   0  0  0  0  0  0  0  0  0  0  0  0
    1.0391   47.8210    2.3842 C   0  0  2  0  0  0  0  0  0  0  0  0
    1.8886   46.5625    2.5649 C   0  0  0  0  0  0  0  0  0  0  0  0
    2.9709   46.4426    1.9994 O   0  0  0  0  0  0  0  0  0  0  0  0
    0.9882   48.2793    0.9223 C   0  0  0  0  0  0  0  0  0  0  0  0
    0.4181   47.2192   -0.0145 C   0  0  0  0  0  0  0  0  0  0  0  0
   -1.0435   46.9030    0.2704 C   0  0  0  0  0  0  0  0  0  0  0  0
   -1.9392   48.0934   -0.0747 C   0  0  0  0  0  0  0  0  0  0  0  0
   -3.4063   47.8746    0.2277 N   0  0  0  0  0  0  0  0  0  0  0  0
    1.5646   45.6374    3.3006 O   0  0  0  0  0  0  0  0  0  0  0  0
  2  1  1  1  0  0  0
  2  3  1  0  0  0  0
  2  5  1  0  0  0  0
  3  4  1  0  0  0  0
  3 10  1  0  0  0  0
  5  6  1  0  0  0  0
  6  7  1  0  0  0  0
  7  8  1  0  0  0  0
  8  9  1  0  0  0  0
M  END
>  <CHROM.1>
-80.72094540,-176.20120301,64.87175455,67.97303634,-177.93476956,0.42648084
47.34679601,1.49422690,-0.00569808,-0.57505020,0.34066340

>  <Name>
ligand

>  <RI>
0

>  <Rbt.Current_Directory>
/home/itssahil/PROJECTS/Mol_Feturizer/New_Systems/rnas/3DIM

>  <Rbt.Executable>
rbdock ($Id: //depot/dev/client3/rdock/2013.1/src/exe/rbdock.cxx#4 $)

>  <Rbt.Library>
libRbt.so (2013.1, Build901 2013/11/27)

>  <Rbt.Parameter_File>
/export/apps/rDock/src/rDock_2013.1_src/data/scripts/dock_solv.prm

>  <Rbt.Receptor>
prm/blind_docking_100.prm

>  <SCORE>
-8.2591

>  <SCORE.INTER>
-6.12861

>  <SCORE.INTER.CONST>
1

>  <SCORE.INTER.POLAR>
0

>  <SCORE.INTER.ROT>
5

>  <SCORE.INTER.SOLV>
7.29017

>  <SCORE.INTER.VDW>
-13.4491

>  <SCORE.INTER.norm>
-0.612861

>  <SCORE.INTRA>
-2.13049

>  <SCORE.INTRA.DIHEDRAL>
-4.02352

>  <SCORE.INTRA.DIHEDRAL.0>
5.8785

>  <SCORE.INTRA.POLAR>
0

>  <SCORE.INTRA.POLAR.0>
0

>  <SCORE.INTRA.REPUL>
0

>  <SCORE.INTRA.REPUL.0>
0

>  <SCORE.INTRA.SOLV>
-1.42164

>  <SCORE.INTRA.SOLV.lig_0>
-31.9559

>  <SCORE.INTRA.VDW>
0.592089

>  <SCORE.INTRA.VDW.0>
-0.507645

>  <SCORE.INTRA.norm>
-0.213049

>  <SCORE.RESTR>
0

>  <SCORE.RESTR.CAVITY>
0

>  <SCORE.RESTR.norm>
0

>  <SCORE.SYSTEM>
0

>  <SCORE.SYSTEM.CONST>
0

>  <SCORE.SYSTEM.DIHEDRAL>
0

>  <SCORE.SYSTEM.SOLV>
0

>  <SCORE.SYSTEM.norm>
0

>  <SCORE.heavy>
10

>  <SCORE.norm>
-0.82591

>  <RMSD>
47.891

$$$$
ligand
 OpenBabel11021811473D
libRbt.so/2013.1/901 2013/11/27
 10  9  0  0  0  0  0  0  0  0999 V2000
    1.8963   46.8179    1.1161 N   0  0  0  0  0  0  0  0  0  0  0  0
    1.9993   47.4725    2.4470 C   0  0  2  0  0  0  0  0  0  0  0  0
    1.7678   46.4721    3.5799 C   0  0  0  0  0  0  0  0  0  0  0  0
    1.2604   45.3761    3.3630 O   0  0  0  0  0  0  0  0  0  0  0  0
    1.0434   48.6683    2.5272 C   0  0  0  0  0  0  0  0  0  0  0  0
   -0.3995   48.3001    2.1972 C   0  0  0  0  0  0  0  0  0  0  0  0
   -1.3404   49.4960    2.2451 C   0  0  0  0  0  0  0  0  0  0  0  0
   -2.7905   49.0614    2.0291 C   0  0  0  0  0  0  0  0  0  0  0  0
   -3.7833   50.2039    2.0012 N   0  0  0  0  0  0  0  0  0  0  0  0
    2.1049   46.6850    4.7388 O   0  0  0  0  0  0  0  0  0  0  0  0
  2  1  1  6  0  0  0
  2  3  1  0  0  0  0
  2  5  1  0  0  0  0
  3  4  1  0  0  0  0
  3 10  1  0  0  0  0
  5  6  1  0  0  0  0
  6  7  1  0  0  0  0
  7  8  1  0  0  0  0
  8  9  1  0  0  0  0
M  END
>  <CHROM.1>
-15.56439110,54.53791516,-178.61902813,-175.04216203,-177.41498840,0.18251566
47.82662031,2.65227175,-0.44965268,0.46692066,-1.13113177

>  <Name>
ligand

>  <RI>
0

>  <Rbt.Current_Directory>
/home/itssahil/PROJECTS/Mol_Feturizer/New_Systems/rnas/3DIM

>  <Rbt.Executable>
rbdock ($Id: //depot/dev/client3/rdock/2013.1/src/exe/rbdock.cxx#4 $)

>  <Rbt.Library>
libRbt.so (2013.1, Build901 2013/11/27)

>  <Rbt.Parameter_File>
/export/apps/rDock/src/rDock_2013.1_src/data/scripts/dock_solv.prm

>  <Rbt.Receptor>
prm/blind_docking_60.prm

>  <SCORE>
-6.58542

>  <SCORE.INTER>
-3.96328

>  <SCORE.INTER.CONST>
1

>  <SCORE.INTER.POLAR>
0

>  <SCORE.INTER.ROT>
5

>  <SCORE.INTER.SOLV>
9.77078

>  <SCORE.INTER.VDW>
-12.8324

>  <SCORE.INTER.norm>
-0.396328

>  <SCORE.INTRA>
-2.62214

>  <SCORE.INTRA.DIHEDRAL>
-4.04231

>  <SCORE.INTRA.DIHEDRAL.0>
5.8785

>  <SCORE.INTRA.POLAR>
0

>  <SCORE.INTRA.POLAR.0>
0

>  <SCORE.INTRA.REPUL>
0

>  <SCORE.INTRA.REPUL.0>
0

>  <SCORE.INTRA.SOLV>
-0.8575

>  <SCORE.INTRA.SOLV.lig_0>
-31.9559

>  <SCORE.INTRA.VDW>
-0.172238

>  <SCORE.INTRA.VDW.0>
-0.507645

>  <SCORE.INTRA.norm>
-0.262214

>  <SCORE.RESTR>
0

>  <SCORE.RESTR.CAVITY>
0

>  <SCORE.RESTR.norm>
0

>  <SCORE.SYSTEM>
0

>  <SCORE.SYSTEM.CONST>
0

>  <SCORE.SYSTEM.DIHEDRAL>
0

>  <SCORE.SYSTEM.SOLV>
0

>  <SCORE.SYSTEM.norm>
0

>  <SCORE.heavy>
10

>  <SCORE.norm>
-0.658542

>  <RMSD>
47.911

$$$$
ligand
 OpenBabel11021811473D
libRbt.so/2013.1/901 2013/11/27
 10  9  0  0  0  0  0  0  0  0999 V2000
    1.6656   48.8152    4.3632 N   0  0  0  0  0  0  0  0  0  0  0  0
    1.1122   47.8996    3.3308 C   0  0  2  0  0  0  0  0  0  0  0  0
    1.9725   46.6445    3.1799 C   0  0  0  0  0  0  0  0  0  0  0  0
    2.1190   45.8613    4.1129 O   0  0  0  0  0  0  0  0  0  0  0  0
    0.9343   48.6419    2.0015 C   0  0  0  0  0  0  0  0  0  0  0  0
   -0.1607   49.7025    2.0539 C   0  0  0  0  0  0  0  0  0  0  0  0
   -1.5594   49.1053    2.1217 C   0  0  0  0  0  0  0  0  0  0  0  0
   -2.6175   50.2012    2.2542 C   0  0  0  0  0  0  0  0  0  0  0  0
   -4.0430   49.6916    2.2504 N   0  0  0  0  0  0  0  0  0  0  0  0
    2.5213   46.3328    2.1292 O   0  0  0  0  0  0  0  0  0  0  0  0
  2  1  1  1  0  0  0
  2  3  1  0  0  0  0
  2  5  1  0  0  0  0
  3  4  1  0  0  0  0
  3 10  1  0  0  0  0
  5  6  1  0  0  0  0
  6  7  1  0  0  0  0
  7  8  1  0  0  0  0
  8  9  1  0  0  0  0
M  END
>  <CHROM.1>
62.56110155,-68.22121112,-71.19296828,176.71294316,176.76645479,0.22229521
48.25430144,2.77951265,-0.52180007,-0.30566205,0.14169827

>  <Name>
ligand

>  <RI>
0

>  <Rbt.Current_Directory>
/home/itssahil/PROJECTS/Mol_Feturizer/New_Systems/rnas/3DIM

>  <Rbt.Executable>
rbdock ($Id: //depot/dev/client3/rdock/2013.1/src/exe/rbdock.cxx#4 $)

>  <Rbt.Library>
libRbt.so (2013.1, Build901 2013/11/27)

>  <Rbt.Parameter_File>
/export/apps/rDock/src/rDock_2013.1_src/data/scripts/dock_solv.prm

>  <Rbt.Receptor>
prm/blind_docking_100.prm

>  <SCORE>
-6.34604

>  <SCORE.INTER>
-4.52269

>  <SCORE.INTER.CONST>
1

>  <SCORE.INTER.POLAR>
0

>  <SCORE.INTER.ROT>
5

>  <SCORE.INTER.SOLV>
10.0631

>  <SCORE.INTER.VDW>
-13.3028

>  <SCORE.INTER.norm>
-0.452269

>  <SCORE.INTRA>
-1.82335

>  <SCORE.INTRA.DIHEDRAL>
-3.49341

>  <SCORE.INTRA.DIHEDRAL.0>
5.8785

>  <SCORE.INTRA.POLAR>
0

>  <SCORE.INTRA.POLAR.0>
0

>  <SCORE.INTRA.REPUL>
0

>  <SCORE.INTRA.REPUL.0>
0

>  <SCORE.INTRA.SOLV>
-0.665051

>  <SCORE.INTRA.SOLV.lig_0>
-31.9559

>  <SCORE.INTRA.VDW>
0.255879

>  <SCORE.INTRA.VDW.0>
-0.507645

>  <SCORE.INTRA.norm>
-0.182335

>  <SCORE.RESTR>
0

>  <SCORE.RESTR.CAVITY>
0

>  <SCORE.RESTR.norm>
0

>  <SCORE.SYSTEM>
0

>  <SCORE.SYSTEM.CONST>
0

>  <SCORE.SYSTEM.DIHEDRAL>
0

>  <SCORE.SYSTEM.SOLV>
0

>  <SCORE.SYSTEM.norm>
0

>  <SCORE.heavy>
10

>  <SCORE.norm>
-0.634604

>  <RMSD>
48.139

$$$$
ligand
 OpenBabel11021811473D
libRbt.so/2013.1/901 2013/11/27
 10  9  0  0  0  0  0  0  0  0999 V2000
   -0.2583   49.5626    0.2131 N   0  0  0  0  0  0  0  0  0  0  0  0
   -0.2568   48.1362   -0.2061 C   0  0  2  0  0  0  0  0  0  0  0  0
   -1.5876   47.4577    0.1201 C   0  0  0  0  0  0  0  0  0  0  0  0
   -2.1544   47.6569    1.1901 O   0  0  0  0  0  0  0  0  0  0  0  0
    0.9353   47.4000    0.4158 C   0  0  0  0  0  0  0  0  0  0  0  0
    0.8652   47.3327    1.9380 C   0  0  0  0  0  0  0  0  0  0  0  0
    2.0453   46.5926    2.5520 C   0  0  0  0  0  0  0  0  0  0  0  0
    1.9122   46.5151    4.0734 C   0  0  0  0  0  0  0  0  0  0  0  0
    3.0862   45.8569    4.7665 N   0  0  0  0  0  0  0  0  0  0  0  0
   -2.1738   46.7230   -0.6665 O   0  0  0  0  0  0  0  0  0  0  0  0
  2  1  1  1  0  0  0
  2  3  1  0  0  0  0
  2  5  1  0  0  0  0
  3  4  1  0  0  0  0
  3 10  1  0  0  0  0
  5  6  1  0  0  0  0
  6  7  1  0  0  0  0
  7  8  1  0  0  0  0
  8  9  1  0  0  0  0
M  END
>  <CHROM.1>
-42.26189267,64.28345542,179.59623374,-178.36067584,-176.90185081,0.20344316
47.31181036,1.43701895,-2.40364619,0.40408861,2.32643863

>  <Name>
ligand

>  <RI>
0

>  <Rbt.Current_Directory>
/home/itssahil/PROJECTS/Mol_Feturizer/New_Systems/rnas/3DIM

>  <Rbt.Executable>
rbdock ($Id: //depot/dev/client3/rdock/2013.1/src/exe/rbdock.cxx#4 $)

>  <Rbt.Library>
libRbt.so (2013.1, Build901 2013/11/27)

>  <Rbt.Parameter_File>
/export/apps/rDock/src/rDock_2013.1_src/data/scripts/dock_solv.prm

>  <Rbt.Receptor>
prm/blind_docking_80.prm

>  <SCORE>
-5.94271

>  <SCORE.INTER>
-3.12304

>  <SCORE.INTER.CONST>
1

>  <SCORE.INTER.POLAR>
0

>  <SCORE.INTER.ROT>
5

>  <SCORE.INTER.SOLV>
12.3652

>  <SCORE.INTER.VDW>
-13.1371

>  <SCORE.INTER.norm>
-0.312304

>  <SCORE.INTRA>
-2.81968

>  <SCORE.INTRA.DIHEDRAL>
-4.20129

>  <SCORE.INTRA.DIHEDRAL.0>
5.8785

>  <SCORE.INTRA.POLAR>
0

>  <SCORE.INTRA.POLAR.0>
0

>  <SCORE.INTRA.REPUL>
0

>  <SCORE.INTRA.REPUL.0>
0

>  <SCORE.INTRA.SOLV>
-1.00074

>  <SCORE.INTRA.SOLV.lig_0>
-31.9559

>  <SCORE.INTRA.VDW>
-0.218658

>  <SCORE.INTRA.VDW.0>
-0.507645

>  <SCORE.INTRA.norm>
-0.281968

>  <SCORE.RESTR>
0

>  <SCORE.RESTR.CAVITY>
0

>  <SCORE.RESTR.norm>
0

>  <SCORE.SYSTEM>
0

>  <SCORE.SYSTEM.CONST>
0

>  <SCORE.SYSTEM.DIHEDRAL>
0

>  <SCORE.SYSTEM.SOLV>
0

>  <SCORE.SYSTEM.norm>
0

>  <SCORE.heavy>
10

>  <SCORE.norm>
-0.594271

>  <RMSD>
48.159

$$$$
ligand
 OpenBabel11021811473D
libRbt.so/2013.1/901 2013/11/27
 10  9  0  0  0  0  0  0  0  0999 V2000
    1.2005   48.9669    2.3972 N   0  0  0  0  0  0  0  0  0  0  0  0
    0.8495   47.5255    2.4953 C   0  0  2  0  0  0  0  0  0  0  0  0
    2.0805   46.6715    2.8008 C   0  0  0  0  0  0  0  0  0  0  0  0
    2.2115   46.1149    3.8864 O   0  0  0  0  0  0  0  0  0  0  0  0
    0.1280   47.0658    1.2233 C   0  0  0  0  0  0  0  0  0  0  0  0
   -1.2930   47.6095    1.1154 C   0  0  0  0  0  0  0  0  0  0  0  0
   -2.0549   47.0405   -0.0734 C   0  0  0  0  0  0  0  0  0  0  0  0
   -3.5396   47.3978    0.0052 C   0  0  0  0  0  0  0  0  0  0  0  0
   -3.8251   48.8830   -0.0607 N   0  0  0  0  0  0  0  0  0  0  0  0
    2.9697   46.4641    1.9832 O   0  0  0  0  0  0  0  0  0  0  0  0
  2  1  1  6  0  0  0
  2  3  1  0  0  0  0
  2  5  1  0  0  0  0
  3  4  1  0  0  0  0
  3 10  1  0  0  0  0
  5  6  1  0  0  0  0
  6  7  1  0  0  0  0
  7  8  1  0  0  0  0
  8  9  1  0  0  0  0
M  END
>  <CHROM.1>
110.91916064,-72.06812302,-174.18467704,169.19114805,63.09009405,-0.08947269
47.35215590,1.59130631,-0.06931038,-0.50996529,0.25401042

>  <Name>
ligand

>  <RI>
0

>  <Rbt.Current_Directory>
/home/itssahil/PROJECTS/Mol_Feturizer/New_Systems/rnas/3DIM

>  <Rbt.Executable>
rbdock ($Id: //depot/dev/client3/rdock/2013.1/src/exe/rbdock.cxx#4 $)

>  <Rbt.Library>
libRbt.so (2013.1, Build901 2013/11/27)

>  <Rbt.Parameter_File>
/export/apps/rDock/src/rDock_2013.1_src/data/scripts/dock_solv.prm

>  <Rbt.Receptor>
prm/blind_docking_80.prm

>  <SCORE>
-7.97555

>  <SCORE.INTER>
-6.0008

>  <SCORE.INTER.CONST>
1

>  <SCORE.INTER.POLAR>
0

>  <SCORE.INTER.ROT>
5

>  <SCORE.INTER.SOLV>
4.55694

>  <SCORE.INTER.VDW>
-12.4528

>  <SCORE.INTER.norm>
-0.60008

>  <SCORE.INTRA>
-1.97475

>  <SCORE.INTRA.DIHEDRAL>
-3.09277

>  <SCORE.INTRA.DIHEDRAL.0>
5.8785

>  <SCORE.INTRA.POLAR>
0

>  <SCORE.INTRA.POLAR.0>
0

>  <SCORE.INTRA.REPUL>
0

>  <SCORE.INTRA.REPUL.0>
0

>  <SCORE.INTRA.SOLV>
-0.325858

>  <SCORE.INTRA.SOLV.lig_0>
-31.9559

>  <SCORE.INTRA.VDW>
-0.265439

>  <SCORE.INTRA.VDW.0>
-0.507645

>  <SCORE.INTRA.norm>
-0.197475

>  <SCORE.RESTR>
0

>  <SCORE.RESTR.CAVITY>
0

>  <SCORE.RESTR.norm>
0

>  <SCORE.SYSTEM>
0

>  <SCORE.SYSTEM.CONST>
0

>  <SCORE.SYSTEM.DIHEDRAL>
0

>  <SCORE.SYSTEM.SOLV>
0

>  <SCORE.SYSTEM.norm>
0

>  <SCORE.heavy>
10

>  <SCORE.norm>
-0.797555

>  <RMSD>
48.173

$$$$
ligand
 OpenBabel11021811473D
libRbt.so/2013.1/901 2013/11/27
 10  9  0  0  0  0  0  0  0  0999 V2000
    1.6361   49.1174    2.1780 N   0  0  0  0  0  0  0  0  0  0  0  0
    0.9992   47.7884    1.9820 C   0  0  2  0  0  0  0  0  0  0  0  0
    1.8633   46.6658    2.5574 C   0  0  0  0  0  0  0  0  0  0  0  0
    1.4009   45.8562    3.3550 O   0  0  0  0  0  0  0  0  0  0  0  0
    0.6750   47.5670    0.5002 C   0  0  0  0  0  0  0  0  0  0  0  0
   -0.6951   46.9343    0.2787 C   0  0  0  0  0  0  0  0  0  0  0  0
   -1.8426   47.8800    0.6050 C   0  0  0  0  0  0  0  0  0  0  0  0
   -3.1912   47.2408    0.2718 C   0  0  0  0  0  0  0  0  0  0  0  0
   -4.3780   48.1616    0.4601 N   0  0  0  0  0  0  0  0  0  0  0  0
    3.0315   46.4879    2.2321 O   0  0  0  0  0  0  0  0  0  0  0  0
  2  1  1  6  0  0  0
  2  3  1  0  0  0  0
  2  5  1  0  0  0  0
  3  4  1  0  0  0  0
  3 10  1  0  0  0  0
  5  6  1  0  0  0  0
  6  7  1  0  0  0  0
  7  8  1  0  0  0  0
  8  9  1  0  0  0  0
M  END
>  <CHROM.1>
126.76783770,-137.76300462,70.08252408,175.84384288,-175.17128735,-0.02116936
47.34316032,1.46006216,-0.27772319,-0.29718184,-0.39009094

>  <Name>
ligand

>  <RI>
0

>  <Rbt.Current_Directory>
/home/itssahil/PROJECTS/Mol_Feturizer/New_Systems/rnas/3DIM

>  <Rbt.Executable>
rbdock ($Id: //depot/dev/client3/rdock/2013.1/src/exe/rbdock.cxx#4 $)

>  <Rbt.Library>
libRbt.so (2013.1, Build901 2013/11/27)

>  <Rbt.Parameter_File>
/export/apps/rDock/src/rDock_2013.1_src/data/scripts/dock_solv.prm

>  <Rbt.Receptor>
prm/blind_docking_80.prm

>  <SCORE>
-7.2328

>  <SCORE.INTER>
-6.59489

>  <SCORE.INTER.CONST>
1

>  <SCORE.INTER.POLAR>
0

>  <SCORE.INTER.ROT>
5

>  <SCORE.INTER.SOLV>
5.46076

>  <SCORE.INTER.VDW>
-13.1502

>  <SCORE.INTER.norm>
-0.659489

>  <SCORE.INTRA>
-0.637907

>  <SCORE.INTRA.DIHEDRAL>
0.739185

>  <SCORE.INTRA.DIHEDRAL.0>
5.8785

>  <SCORE.INTRA.POLAR>
0

>  <SCORE.INTRA.POLAR.0>
0

>  <SCORE.INTRA.REPUL>
0

>  <SCORE.INTRA.REPUL.0>
0

>  <SCORE.INTRA.SOLV>
-1.2339

>  <SCORE.INTRA.SOLV.lig_0>
-31.9559

>  <SCORE.INTRA.VDW>
-0.39055

>  <SCORE.INTRA.VDW.0>
-0.507645

>  <SCORE.INTRA.norm>
-0.0637907

>  <SCORE.RESTR>
0

>  <SCORE.RESTR.CAVITY>
0

>  <SCORE.RESTR.norm>
0

>  <SCORE.SYSTEM>
0

>  <SCORE.SYSTEM.CONST>
0

>  <SCORE.SYSTEM.DIHEDRAL>
0

>  <SCORE.SYSTEM.SOLV>
0

>  <SCORE.SYSTEM.norm>
0

>  <SCORE.heavy>
10

>  <SCORE.norm>
-0.72328

>  <RMSD>
48.178

$$$$
ligand
 OpenBabel11021811473D
libRbt.so/2013.1/901 2013/11/27
 10  9  0  0  0  0  0  0  0  0999 V2000
    1.2831   48.9683    2.1599 N   0  0  0  0  0  0  0  0  0  0  0  0
    0.8242   47.5698    2.3692 C   0  0  2  0  0  0  0  0  0  0  0  0
    1.9828   46.6574    2.7731 C   0  0  0  0  0  0  0  0  0  0  0  0
    1.9264   45.9752    3.7915 O   0  0  0  0  0  0  0  0  0  0  0  0
    0.0922   47.0578    1.1235 C   0  0  0  0  0  0  0  0  0  0  0  0
   -1.3188   47.6211    0.9886 C   0  0  0  0  0  0  0  0  0  0  0  0
   -2.0885   47.0147   -0.1765 C   0  0  0  0  0  0  0  0  0  0  0  0
   -3.5423   47.4888   -0.1792 C   0  0  0  0  0  0  0  0  0  0  0  0
   -3.7081   48.9814   -0.3701 N   0  0  0  0  0  0  0  0  0  0  0  0
    2.9968   46.5257    2.0973 O   0  0  0  0  0  0  0  0  0  0  0  0
  2  1  1  6  0  0  0
  2  3  1  0  0  0  0
  2  5  1  0  0  0  0
  3  4  1  0  0  0  0
  3 10  1  0  0  0  0
  5  6  1  0  0  0  0
  6  7  1  0  0  0  0
  7  8  1  0  0  0  0
  8  9  1  0  0  0  0
M  END
>  <CHROM.1>
125.73594653,-75.93665516,-174.73285043,173.62121790,62.90211235,-0.11928651
47.36292525,1.47415241,-0.23787124,-0.49764818,-0.07110585

>  <Name>
ligand

>  <RI>
0

>  <Rbt.Current_Directory>
/home/itssahil/PROJECTS/Mol_Feturizer/New_Systems/rnas/3DIM

>  <Rbt.Executable>
rbdock ($Id: //depot/dev/client3/rdock/2013.1/src/exe/rbdock.cxx#4 $)

>  <Rbt.Library>
libRbt.so (2013.1, Build901 2013/11/27)

>  <Rbt.Parameter_File>
/export/apps/rDock/src/rDock_2013.1_src/data/scripts/dock_solv.prm

>  <Rbt.Receptor>
prm/blind_docking_100.prm

>  <SCORE>
-8.17195

>  <SCORE.INTER>
-6.08037

>  <SCORE.INTER.CONST>
1

>  <SCORE.INTER.POLAR>
0

>  <SCORE.INTER.ROT>
5

>  <SCORE.INTER.SOLV>
3.98262

>  <SCORE.INTER.VDW>
-12.3145

>  <SCORE.INTER.norm>
-0.608037

>  <SCORE.INTRA>
-2.09158

>  <SCORE.INTRA.DIHEDRAL>
-3.09604

>  <SCORE.INTRA.DIHEDRAL.0>
5.8785

>  <SCORE.INTRA.POLAR>
0

>  <SCORE.INTRA.POLAR.0>
0

>  <SCORE.INTRA.REPUL>
0

>  <SCORE.INTRA.REPUL.0>
0

>  <SCORE.INTRA.SOLV>
-0.353511

>  <SCORE.INTRA.SOLV.lig_0>
-31.9559

>  <SCORE.INTRA.VDW>
-0.3668

>  <SCORE.INTRA.VDW.0>
-0.507645

>  <SCORE.INTRA.norm>
-0.209158

>  <SCORE.RESTR>
0

>  <SCORE.RESTR.CAVITY>
0

>  <SCORE.RESTR.norm>
0

>  <SCORE.SYSTEM>
0

>  <SCORE.SYSTEM.CONST>
0

>  <SCORE.SYSTEM.DIHEDRAL>
0

>  <SCORE.SYSTEM.SOLV>
0

>  <SCORE.SYSTEM.norm>
0

>  <SCORE.heavy>
10

>  <SCORE.norm>
-0.817195

>  <RMSD>
48.248

$$$$
ligand
 OpenBabel11021811473D
libRbt.so/2013.1/901 2013/11/27
 10  9  0  0  0  0  0  0  0  0999 V2000
    1.2580   48.9380    2.0632 N   0  0  0  0  0  0  0  0  0  0  0  0
    0.8029   47.5506    2.3430 C   0  0  2  0  0  0  0  0  0  0  0  0
    1.9758   46.6441    2.7180 C   0  0  0  0  0  0  0  0  0  0  0  0
    2.0908   46.1947    3.8540 O   0  0  0  0  0  0  0  0  0  0  0  0
    0.0052   47.0022    1.1544 C   0  0  0  0  0  0  0  0  0  0  0  0
   -1.2954   47.7605    0.9096 C   0  0  0  0  0  0  0  0  0  0  0  0
   -2.1471   47.1348   -0.1861 C   0  0  0  0  0  0  0  0  0  0  0  0
   -3.3856   47.9854   -0.4707 C   0  0  0  0  0  0  0  0  0  0  0  0
   -4.2825   48.1974    0.7303 N   0  0  0  0  0  0  0  0  0  0  0  0
    2.8291   46.2880    1.9135 O   0  0  0  0  0  0  0  0  0  0  0  0
  2  1  1  6  0  0  0
  2  3  1  0  0  0  0
  2  5  1  0  0  0  0
  3  4  1  0  0  0  0
  3 10  1  0  0  0  0
  5  6  1  0  0  0  0
  6  7  1  0  0  0  0
  7  8  1  0  0  0  0
  8  9  1  0  0  0  0
M  END
>  <CHROM.1>
112.03279589,-64.72646662,-174.62609735,-175.65295177,-58.56423520,-0.17828641
47.34677507,1.51819240,0.09952697,-0.47833398,0.63235303

>  <Name>
ligand

>  <RI>
0

>  <Rbt.Current_Directory>
/home/itssahil/PROJECTS/Mol_Feturizer/New_Systems/rnas/3DIM

>  <Rbt.Executable>
rbdock ($Id: //depot/dev/client3/rdock/2013.1/src/exe/rbdock.cxx#4 $)

>  <Rbt.Library>
libRbt.so (2013.1, Build901 2013/11/27)

>  <Rbt.Parameter_File>
/export/apps/rDock/src/rDock_2013.1_src/data/scripts/dock_solv.prm

>  <Rbt.Receptor>
prm/blind_docking_100.prm

>  <SCORE>
-7.69507

>  <SCORE.INTER>
-5.43988

>  <SCORE.INTER.CONST>
1

>  <SCORE.INTER.POLAR>
0

>  <SCORE.INTER.ROT>
5

>  <SCORE.INTER.SOLV>
4.66301

>  <SCORE.INTER.VDW>
-12.1143

>  <SCORE.INTER.norm>
-0.543988

>  <SCORE.INTRA>
-2.25518

>  <SCORE.INTRA.DIHEDRAL>
-4.02662

>  <SCORE.INTRA.DIHEDRAL.0>
5.8785

>  <SCORE.INTRA.POLAR>
0

>  <SCORE.INTRA.POLAR.0>
0

>  <SCORE.INTRA.REPUL>
0

>  <SCORE.INTRA.REPUL.0>
0

>  <SCORE.INTRA.SOLV>
-0.133534

>  <SCORE.INTRA.SOLV.lig_0>
-31.9559

>  <SCORE.INTRA.VDW>
-0.175102

>  <SCORE.INTRA.VDW.0>
-0.507645

>  <SCORE.INTRA.norm>
-0.225518

>  <SCORE.RESTR>
0

>  <SCORE.RESTR.CAVITY>
0

>  <SCORE.RESTR.norm>
0

>  <SCORE.SYSTEM>
0

>  <SCORE.SYSTEM.CONST>
0

>  <SCORE.SYSTEM.DIHEDRAL>
0

>  <SCORE.SYSTEM.SOLV>
0

>  <SCORE.SYSTEM.norm>
0

>  <SCORE.heavy>
10

>  <SCORE.norm>
-0.769507

>  <RMSD>
48.258

$$$$
ligand
 OpenBabel11021811473D
libRbt.so/2013.1/901 2013/11/27
 10  9  0  0  0  0  0  0  0  0999 V2000
    1.3076   48.9159    1.9764 N   0  0  0  0  0  0  0  0  0  0  0  0
    0.7866   47.5803    2.3700 C   0  0  2  0  0  0  0  0  0  0  0  0
    1.9136   46.6567    2.8336 C   0  0  0  0  0  0  0  0  0  0  0  0
    2.9932   46.6332    2.2509 O   0  0  0  0  0  0  0  0  0  0  0  0
   -0.0283   46.9684    1.2249 C   0  0  0  0  0  0  0  0  0  0  0  0
   -1.2858   47.7666    0.8963 C   0  0  0  0  0  0  0  0  0  0  0  0
   -2.1283   47.1199   -0.1943 C   0  0  0  0  0  0  0  0  0  0  0  0
   -3.3341   47.9923   -0.5453 C   0  0  0  0  0  0  0  0  0  0  0  0
   -4.2909   48.2211    0.6053 N   0  0  0  0  0  0  0  0  0  0  0  0
    1.8212   45.9312    3.8171 O   0  0  0  0  0  0  0  0  0  0  0  0
  2  1  1  6  0  0  0
  2  3  1  0  0  0  0
  2  5  1  0  0  0  0
  3  4  1  0  0  0  0
  3 10  1  0  0  0  0
  5  6  1  0  0  0  0
  6  7  1  0  0  0  0
  7  8  1  0  0  0  0
  8  9  1  0  0  0  0
M  END
>  <CHROM.1>
-40.66370976,-64.35052893,-177.16988297,-176.79648089,-61.52666500,-0.18833939
47.35641921,1.54102990,-0.39717824,-0.32666080,-0.52774098

>  <Name>
ligand

>  <RI>
0

>  <Rbt.Current_Directory>
/home/itssahil/PROJECTS/Mol_Feturizer/New_Systems/rnas/3DIM

>  <Rbt.Executable>
rbdock ($Id: //depot/dev/client3/rdock/2013.1/src/exe/rbdock.cxx#4 $)

>  <Rbt.Library>
libRbt.so (2013.1, Build901 2013/11/27)

>  <Rbt.Parameter_File>
/export/apps/rDock/src/rDock_2013.1_src/data/scripts/dock_solv.prm

>  <Rbt.Receptor>
prm/blind_docking_60.prm

>  <SCORE>
-7.85279

>  <SCORE.INTER>
-5.45139

>  <SCORE.INTER.CONST>
1

>  <SCORE.INTER.POLAR>
0

>  <SCORE.INTER.ROT>
5

>  <SCORE.INTER.SOLV>
4.53456

>  <SCORE.INTER.VDW>
-12.0791

>  <SCORE.INTER.norm>
-0.545139

>  <SCORE.INTRA>
-2.4014

>  <SCORE.INTRA.DIHEDRAL>
-4.13746

>  <SCORE.INTRA.DIHEDRAL.0>
5.8785

>  <SCORE.INTRA.POLAR>
0

>  <SCORE.INTRA.POLAR.0>
0

>  <SCORE.INTRA.REPUL>
0

>  <SCORE.INTRA.REPUL.0>
0

>  <SCORE.INTRA.SOLV>
-0.118308

>  <SCORE.INTRA.SOLV.lig_0>
-31.9559

>  <SCORE.INTRA.VDW>
-0.273518

>  <SCORE.INTRA.VDW.0>
-0.507645

>  <SCORE.INTRA.norm>
-0.24014

>  <SCORE.RESTR>
0

>  <SCORE.RESTR.CAVITY>
0

>  <SCORE.RESTR.norm>
0

>  <SCORE.SYSTEM>
0

>  <SCORE.SYSTEM.CONST>
0

>  <SCORE.SYSTEM.DIHEDRAL>
0

>  <SCORE.SYSTEM.SOLV>
0

>  <SCORE.SYSTEM.norm>
0

>  <SCORE.heavy>
10

>  <SCORE.norm>
-0.785279

>  <RMSD>
48.261

$$$$
ligand
 OpenBabel11021811473D
libRbt.so/2013.1/901 2013/11/27
 10  9  0  0  0  0  0  0  0  0999 V2000
    1.3005   48.9694    2.0485 N   0  0  0  0  0  0  0  0  0  0  0  0
    0.8158   47.5920    2.3281 C   0  0  2  0  0  0  0  0  0  0  0  0
    1.9627   46.6716    2.7467 C   0  0  0  0  0  0  0  0  0  0  0  0
    1.8756   45.9659    3.7467 O   0  0  0  0  0  0  0  0  0  0  0  0
    0.0454   47.0439    1.1215 C   0  0  0  0  0  0  0  0  0  0  0  0
   -1.3485   47.6471    0.9811 C   0  0  0  0  0  0  0  0  0  0  0  0
   -2.1588   47.0088   -0.1386 C   0  0  0  0  0  0  0  0  0  0  0  0
   -3.6028   47.5116   -0.1255 C   0  0  0  0  0  0  0  0  0  0  0  0
   -3.7470   48.9928   -0.4030 N   0  0  0  0  0  0  0  0  0  0  0  0
    2.9975   46.5567    2.1001 O   0  0  0  0  0  0  0  0  0  0  0  0
  2  1  1  6  0  0  0
  2  3  1  0  0  0  0
  2  5  1  0  0  0  0
  3  4  1  0  0  0  0
  3 10  1  0  0  0  0
  5  6  1  0  0  0  0
  6  7  1  0  0  0  0
  7  8  1  0  0  0  0
  8  9  1  0  0  0  0
M  END
>  <CHROM.1>
130.78857397,-75.15238238,-174.66628186,172.56445680,64.11377308,-0.15021263
47.37275209,1.45719531,-0.28173315,-0.46387229,-0.16854745

>  <Name>
ligand

>  <RI>
0

>  <Rbt.Current_Directory>
/home/itssahil/PROJECTS/Mol_Feturizer/New_Systems/rnas/3DIM

>  <Rbt.Executable>
rbdock ($Id: //depot/dev/client3/rdock/2013.1/src/exe/rbdock.cxx#4 $)

>  <Rbt.Library>
libRbt.so (2013.1, Build901 2013/11/27)

>  <Rbt.Parameter_File>
/export/apps/rDock/src/rDock_2013.1_src/data/scripts/dock_solv.prm

>  <Rbt.Receptor>
prm/blind_docking_100.prm

>  <SCORE>
-8.25151

>  <SCORE.INTER>
-6.13161

>  <SCORE.INTER.CONST>
1

>  <SCORE.INTER.POLAR>
0

>  <SCORE.INTER.ROT>
5

>  <SCORE.INTER.SOLV>
3.77466

>  <SCORE.INTER.VDW>
-12.2793

>  <SCORE.INTER.norm>
-0.613161

>  <SCORE.INTRA>
-2.1199

>  <SCORE.INTRA.DIHEDRAL>
-3.1089

>  <SCORE.INTRA.DIHEDRAL.0>
5.8785

>  <SCORE.INTRA.POLAR>
0

>  <SCORE.INTRA.POLAR.0>
0

>  <SCORE.INTRA.REPUL>
0

>  <SCORE.INTRA.REPUL.0>
0

>  <SCORE.INTRA.SOLV>
-0.362239

>  <SCORE.INTRA.SOLV.lig_0>
-31.9559

>  <SCORE.INTRA.VDW>
-0.384334

>  <SCORE.INTRA.VDW.0>
-0.507645

>  <SCORE.INTRA.norm>
-0.21199

>  <SCORE.RESTR>
0

>  <SCORE.RESTR.CAVITY>
0

>  <SCORE.RESTR.norm>
0

>  <SCORE.SYSTEM>
0

>  <SCORE.SYSTEM.CONST>
0

>  <SCORE.SYSTEM.DIHEDRAL>
0

>  <SCORE.SYSTEM.SOLV>
0

>  <SCORE.SYSTEM.norm>
0

>  <SCORE.heavy>
10

>  <SCORE.norm>
-0.825151

>  <RMSD>
48.280

$$$$
ligand
 OpenBabel11021811473D
libRbt.so/2013.1/901 2013/11/27
 10  9  0  0  0  0  0  0  0  0999 V2000
    2.4744   46.4895    3.1024 N   0  0  0  0  0  0  0  0  0  0  0  0
    1.7258   47.4526    2.2525 C   0  0  2  0  0  0  0  0  0  0  0  0
    1.6329   48.8269    2.9164 C   0  0  0  0  0  0  0  0  0  0  0  0
    1.8110   49.8552    2.2711 O   0  0  0  0  0  0  0  0  0  0  0  0
    0.3457   46.8878    1.8970 C   0  0  0  0  0  0  0  0  0  0  0  0
   -0.3674   47.6944    0.8166 C   0  0  0  0  0  0  0  0  0  0  0  0
   -1.7415   47.1366    0.4727 C   0  0  0  0  0  0  0  0  0  0  0  0
   -2.4483   48.0174   -0.5583 C   0  0  0  0  0  0  0  0  0  0  0  0
   -3.8527   47.5678   -0.9005 N   0  0  0  0  0  0  0  0  0  0  0  0
    1.3418   48.9805    4.0970 O   0  0  0  0  0  0  0  0  0  0  0  0
  2  1  1  1  0  0  0
  2  3  1  0  0  0  0
  2  5  1  0  0  0  0
  3  4  1  0  0  0  0
  3 10  1  0  0  0  0
  5  6  1  0  0  0  0
  6  7  1  0  0  0  0
  7  8  1  0  0  0  0
  8  9  1  0  0  0  0
M  END
>  <CHROM.1>
136.89733517,-168.95293095,-179.60156267,176.98096828,-177.01585074,0.10021935
47.92356278,1.65744396,-0.19540288,0.63370415,-3.01961533

>  <Name>
ligand

>  <RI>
0

>  <Rbt.Current_Directory>
/home/itssahil/PROJECTS/Mol_Feturizer/New_Systems/rnas/3DIM

>  <Rbt.Executable>
rbdock ($Id: //depot/dev/client3/rdock/2013.1/src/exe/rbdock.cxx#4 $)

>  <Rbt.Library>
libRbt.so (2013.1, Build901 2013/11/27)

>  <Rbt.Parameter_File>
/export/apps/rDock/src/rDock_2013.1_src/data/scripts/dock_solv.prm

>  <Rbt.Receptor>
prm/blind_docking_80.prm

>  <SCORE>
-5.41981

>  <SCORE.INTER>
-2.07

>  <SCORE.INTER.CONST>
1

>  <SCORE.INTER.POLAR>
0

>  <SCORE.INTER.ROT>
5

>  <SCORE.INTER.SOLV>
10.1365

>  <SCORE.INTER.VDW>
-11.6922

>  <SCORE.INTER.norm>
-0.207

>  <SCORE.INTRA>
-3.34981

>  <SCORE.INTRA.DIHEDRAL>
-3.91593

>  <SCORE.INTRA.DIHEDRAL.0>
5.8785

>  <SCORE.INTRA.POLAR>
0

>  <SCORE.INTRA.POLAR.0>
0

>  <SCORE.INTRA.REPUL>
0

>  <SCORE.INTRA.REPUL.0>
0

>  <SCORE.INTRA.SOLV>
-1.8764

>  <SCORE.INTRA.SOLV.lig_0>
-31.9559

>  <SCORE.INTRA.VDW>
-0.453647

>  <SCORE.INTRA.VDW.0>
-0.507645

>  <SCORE.INTRA.norm>
-0.334981

>  <SCORE.RESTR>
0

>  <SCORE.RESTR.CAVITY>
0

>  <SCORE.RESTR.norm>
0

>  <SCORE.SYSTEM>
0

>  <SCORE.SYSTEM.CONST>
0

>  <SCORE.SYSTEM.DIHEDRAL>
0

>  <SCORE.SYSTEM.SOLV>
0

>  <SCORE.SYSTEM.norm>
0

>  <SCORE.heavy>
10

>  <SCORE.norm>
-0.541981

>  <RMSD>
48.335

$$$$
ligand
 OpenBabel11021811473D
libRbt.so/2013.1/901 2013/11/27
 10  9  0  0  0  0  0  0  0  0999 V2000
    2.0992   49.2649    2.6661 N   0  0  0  0  0  0  0  0  0  0  0  0
    1.1172   48.2019    3.0067 C   0  0  2  0  0  0  0  0  0  0  0  0
    1.6917   46.8087    2.7485 C   0  0  0  0  0  0  0  0  0  0  0  0
    1.3996   45.8597    3.4695 O   0  0  0  0  0  0  0  0  0  0  0  0
   -0.1991   48.4330    2.2557 C   0  0  0  0  0  0  0  0  0  0  0  0
   -0.7989   49.8110    2.5157 C   0  0  0  0  0  0  0  0  0  0  0  0
   -2.1576   49.9985    1.8551 C   0  0  0  0  0  0  0  0  0  0  0  0
   -3.2246   49.1478    2.5452 C   0  0  0  0  0  0  0  0  0  0  0  0
   -4.6184   49.3220    1.9806 N   0  0  0  0  0  0  0  0  0  0  0  0
    2.4293   46.5545    1.8033 O   0  0  0  0  0  0  0  0  0  0  0  0
  2  1  1  6  0  0  0
  2  3  1  0  0  0  0
  2  5  1  0  0  0  0
  3  4  1  0  0  0  0
  3 10  1  0  0  0  0
  5  6  1  0  0  0  0
  6  7  1  0  0  0  0
  7  8  1  0  0  0  0
  8  9  1  0  0  0  0
M  END
>  <CHROM.1>
145.41285312,-56.01436310,-175.58240835,70.26588265,177.63987387,-0.20302241
48.30315538,2.48141814,-0.46026759,-0.03008357,-0.13647672

>  <Name>
ligand

>  <RI>
0

>  <Rbt.Current_Directory>
/home/itssahil/PROJECTS/Mol_Feturizer/New_Systems/rnas/3DIM

>  <Rbt.Executable>
rbdock ($Id: //depot/dev/client3/rdock/2013.1/src/exe/rbdock.cxx#4 $)

>  <Rbt.Library>
libRbt.so (2013.1, Build901 2013/11/27)

>  <Rbt.Parameter_File>
/export/apps/rDock/src/rDock_2013.1_src/data/scripts/dock_solv.prm

>  <Rbt.Receptor>
prm/blind_docking_100.prm

>  <SCORE>
-6.90716

>  <SCORE.INTER>
-4.84317

>  <SCORE.INTER.CONST>
1

>  <SCORE.INTER.POLAR>
0

>  <SCORE.INTER.ROT>
5

>  <SCORE.INTER.SOLV>
6.05961

>  <SCORE.INTER.VDW>
-12.182

>  <SCORE.INTER.norm>
-0.484317

>  <SCORE.INTRA>
-2.06399

>  <SCORE.INTRA.DIHEDRAL>
-3.86374

>  <SCORE.INTRA.DIHEDRAL.0>
5.8785

>  <SCORE.INTRA.POLAR>
0

>  <SCORE.INTRA.POLAR.0>
0

>  <SCORE.INTRA.REPUL>
0

>  <SCORE.INTRA.REPUL.0>
0

>  <SCORE.INTRA.SOLV>
-0.757243

>  <SCORE.INTRA.SOLV.lig_0>
-31.9559

>  <SCORE.INTRA.VDW>
0.246499

>  <SCORE.INTRA.VDW.0>
-0.507645

>  <SCORE.INTRA.norm>
-0.206399

>  <SCORE.RESTR>
0

>  <SCORE.RESTR.CAVITY>
0

>  <SCORE.RESTR.norm>
0

>  <SCORE.SYSTEM>
0

>  <SCORE.SYSTEM.CONST>
0

>  <SCORE.SYSTEM.DIHEDRAL>
0

>  <SCORE.SYSTEM.SOLV>
0

>  <SCORE.SYSTEM.norm>
0

>  <SCORE.heavy>
10

>  <SCORE.norm>
-0.690716

>  <RMSD>
48.540

$$$$
ligand
 OpenBabel11021811473D
libRbt.so/2013.1/901 2013/11/27
 10  9  0  0  0  0  0  0  0  0999 V2000
    0.0973   52.8717   10.9330 N   0  0  0  0  0  0  0  0  0  0  0  0
   -0.7785   51.6721   10.8683 C   0  0  2  0  0  0  0  0  0  0  0  0
   -1.7946   51.7842    9.7311 C   0  0  0  0  0  0  0  0  0  0  0  0
   -2.0635   52.8702    9.2271 O   0  0  0  0  0  0  0  0  0  0  0  0
   -1.4522   51.4313   12.2240 C   0  0  0  0  0  0  0  0  0  0  0  0
   -0.4696   51.0042   13.3096 C   0  0  0  0  0  0  0  0  0  0  0  0
   -1.1286   50.8404   14.6721 C   0  0  0  0  0  0  0  0  0  0  0  0
   -0.1061   50.4196   15.7284 C   0  0  0  0  0  0  0  0  0  0  0  0
   -0.6714   50.3031   17.1279 N   0  0  0  0  0  0  0  0  0  0  0  0
   -2.3576   50.8128    9.2397 O   0  0  0  0  0  0  0  0  0  0  0  0
  2  1  1  1  0  0  0
  2  3  1  0  0  0  0
  2  5  1  0  0  0  0
  3  4  1  0  0  0  0
  3 10  1  0  0  0  0
  5  6  1  0  0  0  0
  6  7  1  0  0  0  0
  7  8  1  0  0  0  0
  8  9  1  0  0  0  0
M  END
>  <CHROM.1>
-18.74927367,-68.24011780,176.83095892,-179.70119871,177.07545836,-1.09631983
51.40580879,12.26677277,-1.81383350,0.73579318,1.96835736

>  <Name>
ligand

>  <RI>
0

>  <Rbt.Current_Directory>
/home/itssahil/PROJECTS/Mol_Feturizer/New_Systems/rnas/3DIM

>  <Rbt.Executable>
rbdock ($Id: //depot/dev/client3/rdock/2013.1/src/exe/rbdock.cxx#4 $)

>  <Rbt.Library>
libRbt.so (2013.1, Build901 2013/11/27)

>  <Rbt.Parameter_File>
/export/apps/rDock/src/rDock_2013.1_src/data/scripts/dock_solv.prm

>  <Rbt.Receptor>
prm/blind_docking_100.prm

>  <SCORE>
-4.61227

>  <SCORE.INTER>
-1.81752

>  <SCORE.INTER.CONST>
1

>  <SCORE.INTER.POLAR>
0

>  <SCORE.INTER.ROT>
5

>  <SCORE.INTER.SOLV>
4.69431

>  <SCORE.INTER.VDW>
-9.70979

>  <SCORE.INTER.norm>
-0.181752

>  <SCORE.INTRA>
-2.79475

>  <SCORE.INTRA.DIHEDRAL>
-3.94313

>  <SCORE.INTRA.DIHEDRAL.0>
5.8785

>  <SCORE.INTRA.POLAR>
0

>  <SCORE.INTRA.POLAR.0>
0

>  <SCORE.INTRA.REPUL>
0

>  <SCORE.INTRA.REPUL.0>
0

>  <SCORE.INTRA.SOLV>
-1.02031

>  <SCORE.INTRA.SOLV.lig_0>
-31.9559

>  <SCORE.INTRA.VDW>
-0.313029

>  <SCORE.INTRA.VDW.0>
-0.507645

>  <SCORE.INTRA.norm>
-0.279475

>  <SCORE.RESTR>
0

>  <SCORE.RESTR.CAVITY>
0

>  <SCORE.RESTR.norm>
0

>  <SCORE.SYSTEM>
0

>  <SCORE.SYSTEM.CONST>
0

>  <SCORE.SYSTEM.DIHEDRAL>
0

>  <SCORE.SYSTEM.SOLV>
0

>  <SCORE.SYSTEM.norm>
0

>  <SCORE.heavy>
10

>  <SCORE.norm>
-0.461227

>  <RMSD>
48.589

$$$$
ligand
 OpenBabel11021811473D
libRbt.so/2013.1/901 2013/11/27
 10  9  0  0  0  0  0  0  0  0999 V2000
   -2.5675   52.9373   10.4122 N   0  0  0  0  0  0  0  0  0  0  0  0
   -1.8278   51.7405    9.9316 C   0  0  2  0  0  0  0  0  0  0  0  0
   -2.7777   50.5788    9.6378 C   0  0  0  0  0  0  0  0  0  0  0  0
   -2.4024   49.5997    9.0006 O   0  0  0  0  0  0  0  0  0  0  0  0
   -0.7336   51.3536   10.9330 C   0  0  0  0  0  0  0  0  0  0  0  0
   -1.2857   50.9938   12.3086 C   0  0  0  0  0  0  0  0  0  0  0  0
   -0.2569   50.3096   13.1980 C   0  0  0  0  0  0  0  0  0  0  0  0
   -0.8767   49.8924   14.5322 C   0  0  0  0  0  0  0  0  0  0  0  0
    0.0639   49.1325   15.4430 N   0  0  0  0  0  0  0  0  0  0  0  0
   -3.9323   50.5397   10.0470 O   0  0  0  0  0  0  0  0  0  0  0  0
  2  1  1  1  0  0  0
  2  3  1  0  0  0  0
  2  5  1  0  0  0  0
  3  4  1  0  0  0  0
  3 10  1  0  0  0  0
  5  6  1  0  0  0  0
  6  7  1  0  0  0  0
  7  8  1  0  0  0  0
  8  9  1  0  0  0  0
M  END
>  <CHROM.1>
166.09395328,61.10354848,166.76871117,-176.57360429,176.65700122,-1.68477128
50.68431218,11.52627663,-2.56322237,1.02051698,2.73745827

>  <Name>
ligand

>  <RI>
0

>  <Rbt.Current_Directory>
/home/itssahil/PROJECTS/Mol_Feturizer/New_Systems/rnas/3DIM

>  <Rbt.Executable>
rbdock ($Id: //depot/dev/client3/rdock/2013.1/src/exe/rbdock.cxx#4 $)

>  <Rbt.Library>
libRbt.so (2013.1, Build901 2013/11/27)

>  <Rbt.Parameter_File>
/export/apps/rDock/src/rDock_2013.1_src/data/scripts/dock_solv.prm

>  <Rbt.Receptor>
prm/blind_docking_80.prm

>  <SCORE>
-8.03417

>  <SCORE.INTER>
-5.47751

>  <SCORE.INTER.CONST>
1

>  <SCORE.INTER.POLAR>
0

>  <SCORE.INTER.ROT>
5

>  <SCORE.INTER.SOLV>
10.0623

>  <SCORE.INTER.VDW>
-13.9391

>  <SCORE.INTER.norm>
-0.547751

>  <SCORE.INTRA>
-2.55666

>  <SCORE.INTRA.DIHEDRAL>
-3.63454

>  <SCORE.INTRA.DIHEDRAL.0>
5.8785

>  <SCORE.INTRA.POLAR>
0

>  <SCORE.INTRA.POLAR.0>
0

>  <SCORE.INTRA.REPUL>
0

>  <SCORE.INTRA.REPUL.0>
0

>  <SCORE.INTRA.SOLV>
-1.01716

>  <SCORE.INTRA.SOLV.lig_0>
-31.9559

>  <SCORE.INTRA.VDW>
-0.230811

>  <SCORE.INTRA.VDW.0>
-0.507645

>  <SCORE.INTRA.norm>
-0.255666

>  <SCORE.RESTR>
0

>  <SCORE.RESTR.CAVITY>
0

>  <SCORE.RESTR.norm>
0

>  <SCORE.SYSTEM>
0

>  <SCORE.SYSTEM.CONST>
0

>  <SCORE.SYSTEM.DIHEDRAL>
0

>  <SCORE.SYSTEM.SOLV>
0

>  <SCORE.SYSTEM.norm>
0

>  <SCORE.heavy>
10

>  <SCORE.norm>
-0.803417

>  <RMSD>
48.626

$$$$
ligand
 OpenBabel11021811473D
libRbt.so/2013.1/901 2013/11/27
 10  9  0  0  0  0  0  0  0  0999 V2000
   -1.9658   52.9830    9.4217 N   0  0  0  0  0  0  0  0  0  0  0  0
   -1.6070   51.6928   10.0674 C   0  0  2  0  0  0  0  0  0  0  0  0
   -2.6252   50.6013    9.7359 C   0  0  0  0  0  0  0  0  0  0  0  0
   -3.7791   50.6654   10.1482 O   0  0  0  0  0  0  0  0  0  0  0  0
   -1.4354   51.8837   11.5787 C   0  0  0  0  0  0  0  0  0  0  0  0
   -0.8970   50.6400   12.2785 C   0  0  0  0  0  0  0  0  0  0  0  0
   -0.8725   50.7786   13.7943 C   0  0  0  0  0  0  0  0  0  0  0  0
   -0.4214   49.4762   14.4566 C   0  0  0  0  0  0  0  0  0  0  0  0
   -0.3939   49.5260   15.9694 N   0  0  0  0  0  0  0  0  0  0  0  0
   -2.3657   49.6401    9.0211 O   0  0  0  0  0  0  0  0  0  0  0  0
  2  1  1  6  0  0  0
  2  3  1  0  0  0  0
  2  5  1  0  0  0  0
  3  4  1  0  0  0  0
  3 10  1  0  0  0  0
  5  6  1  0  0  0  0
  6  7  1  0  0  0  0
  7  8  1  0  0  0  0
  8  9  1  0  0  0  0
M  END
>  <CHROM.1>
-66.77597792,-172.79196059,-173.65166868,175.94959851,-178.98953549,-1.66266823
50.76702708,11.62780213,-2.33006427,1.04297328,2.49822576

>  <Name>
ligand

>  <RI>
0

>  <Rbt.Current_Directory>
/home/itssahil/PROJECTS/Mol_Feturizer/New_Systems/rnas/3DIM

>  <Rbt.Executable>
rbdock ($Id: //depot/dev/client3/rdock/2013.1/src/exe/rbdock.cxx#4 $)

>  <Rbt.Library>
libRbt.so (2013.1, Build901 2013/11/27)

>  <Rbt.Parameter_File>
/export/apps/rDock/src/rDock_2013.1_src/data/scripts/dock_solv.prm

>  <Rbt.Receptor>
prm/blind_docking_80.prm

>  <SCORE>
-8.2494

>  <SCORE.INTER>
-4.99063

>  <SCORE.INTER.CONST>
1

>  <SCORE.INTER.POLAR>
0

>  <SCORE.INTER.ROT>
5

>  <SCORE.INTER.SOLV>
12.0594

>  <SCORE.INTER.VDW>
-14.2802

>  <SCORE.INTER.norm>
-0.499063

>  <SCORE.INTRA>
-3.25877

>  <SCORE.INTRA.DIHEDRAL>
-3.98304

>  <SCORE.INTRA.DIHEDRAL.0>
5.8785

>  <SCORE.INTRA.POLAR>
0

>  <SCORE.INTRA.POLAR.0>
0

>  <SCORE.INTRA.REPUL>
0

>  <SCORE.INTRA.REPUL.0>
0

>  <SCORE.INTRA.SOLV>
-1.86625

>  <SCORE.INTRA.SOLV.lig_0>
-31.9559

>  <SCORE.INTRA.VDW>
-0.334124

>  <SCORE.INTRA.VDW.0>
-0.507645

>  <SCORE.INTRA.norm>
-0.325877

>  <SCORE.RESTR>
0

>  <SCORE.RESTR.CAVITY>
0

>  <SCORE.RESTR.norm>
0

>  <SCORE.SYSTEM>
0

>  <SCORE.SYSTEM.CONST>
0

>  <SCORE.SYSTEM.DIHEDRAL>
0

>  <SCORE.SYSTEM.SOLV>
0

>  <SCORE.SYSTEM.norm>
0

>  <SCORE.heavy>
10

>  <SCORE.norm>
-0.82494

>  <RMSD>
48.646

$$$$
ligand
 OpenBabel11021811473D
libRbt.so/2013.1/901 2013/11/27
 10  9  0  0  0  0  0  0  0  0999 V2000
   -2.7355   52.8822   10.7286 N   0  0  0  0  0  0  0  0  0  0  0  0
   -1.9468   51.8258   10.0415 C   0  0  2  0  0  0  0  0  0  0  0  0
   -2.8112   50.6069    9.7172 C   0  0  0  0  0  0  0  0  0  0  0  0
   -3.9782   50.5408   10.0904 O   0  0  0  0  0  0  0  0  0  0  0  0
   -0.7142   51.4554   10.8743 C   0  0  0  0  0  0  0  0  0  0  0  0
   -1.0703   50.8280   12.2182 C   0  0  0  0  0  0  0  0  0  0  0  0
    0.1383   50.2449   12.9371 C   0  0  0  0  0  0  0  0  0  0  0  0
   -0.2629   49.6442   14.2849 C   0  0  0  0  0  0  0  0  0  0  0  0
   -0.7017   50.6647   15.3134 N   0  0  0  0  0  0  0  0  0  0  0  0
   -2.4106   49.6631    9.0456 O   0  0  0  0  0  0  0  0  0  0  0  0
  2  1  1  1  0  0  0
  2  3  1  0  0  0  0
  2  5  1  0  0  0  0
  3  4  1  0  0  0  0
  3 10  1  0  0  0  0
  5  6  1  0  0  0  0
  6  7  1  0  0  0  0
  7  8  1  0  0  0  0
  8  9  1  0  0  0  0
M  END
>  <CHROM.1>
-4.59887588,64.31346250,170.12422510,179.26700752,-68.32186817,-1.67377695
50.81102711,11.50641096,2.93368760,1.05257623,-2.77074146

>  <Name>
ligand

>  <RI>
0

>  <Rbt.Current_Directory>
/home/itssahil/PROJECTS/Mol_Feturizer/New_Systems/rnas/3DIM

>  <Rbt.Executable>
rbdock ($Id: //depot/dev/client3/rdock/2013.1/src/exe/rbdock.cxx#4 $)

>  <Rbt.Library>
libRbt.so (2013.1, Build901 2013/11/27)

>  <Rbt.Parameter_File>
/export/apps/rDock/src/rDock_2013.1_src/data/scripts/dock_solv.prm

>  <Rbt.Receptor>
prm/blind_docking_100.prm

>  <SCORE>
-7.87459

>  <SCORE.INTER>
-5.83197

>  <SCORE.INTER.CONST>
1

>  <SCORE.INTER.POLAR>
0

>  <SCORE.INTER.ROT>
5

>  <SCORE.INTER.SOLV>
9.30842

>  <SCORE.INTER.VDW>
-13.9241

>  <SCORE.INTER.norm>
-0.583197

>  <SCORE.INTRA>
-2.04261

>  <SCORE.INTRA.DIHEDRAL>
-3.62227

>  <SCORE.INTRA.DIHEDRAL.0>
5.8785

>  <SCORE.INTRA.POLAR>
0

>  <SCORE.INTRA.POLAR.0>
0

>  <SCORE.INTRA.REPUL>
0

>  <SCORE.INTRA.REPUL.0>
0

>  <SCORE.INTRA.SOLV>
-0.222644

>  <SCORE.INTRA.SOLV.lig_0>
-31.9559

>  <SCORE.INTRA.VDW>
-0.120152

>  <SCORE.INTRA.VDW.0>
-0.507645

>  <SCORE.INTRA.norm>
-0.204261

>  <SCORE.RESTR>
0

>  <SCORE.RESTR.CAVITY>
0

>  <SCORE.RESTR.norm>
0

>  <SCORE.SYSTEM>
0

>  <SCORE.SYSTEM.CONST>
0

>  <SCORE.SYSTEM.DIHEDRAL>
0

>  <SCORE.SYSTEM.SOLV>
0

>  <SCORE.SYSTEM.norm>
0

>  <SCORE.heavy>
10

>  <SCORE.norm>
-0.787459

>  <RMSD>
48.715

$$$$
ligand
 OpenBabel11021811473D
libRbt.so/2013.1/901 2013/11/27
 10  9  0  0  0  0  0  0  0  0999 V2000
    2.1715   46.7814    2.6498 N   0  0  0  0  0  0  0  0  0  0  0  0
    1.2043   47.7428    2.0579 C   0  0  2  0  0  0  0  0  0  0  0  0
    0.8011   48.8197    3.0658 C   0  0  0  0  0  0  0  0  0  0  0  0
    1.4443   48.9956    4.0958 O   0  0  0  0  0  0  0  0  0  0  0  0
   -0.0095   46.9966    1.4925 C   0  0  0  0  0  0  0  0  0  0  0  0
   -0.8695   47.8644    0.5794 C   0  0  0  0  0  0  0  0  0  0  0  0
   -2.0817   47.1247    0.0307 C   0  0  0  0  0  0  0  0  0  0  0  0
   -2.9304   48.0415   -0.8511 C   0  0  0  0  0  0  0  0  0  0  0  0
   -4.1857   47.3926   -1.3941 N   0  0  0  0  0  0  0  0  0  0  0  0
   -0.1433   49.5807    2.8889 O   0  0  0  0  0  0  0  0  0  0  0  0
  2  1  1  1  0  0  0
  2  3  1  0  0  0  0
  2  5  1  0  0  0  0
  3  4  1  0  0  0  0
  3 10  1  0  0  0  0
  5  6  1  0  0  0  0
  6  7  1  0  0  0  0
  7  8  1  0  0  0  0
  8  9  1  0  0  0  0
M  END
>  <CHROM.1>
14.92798149,-165.95492652,-179.41843115,178.67137605,-177.81259511,-0.45859937
47.96080500,1.49138590,-0.52610638,0.55135016,-2.50179015

>  <Name>
ligand

>  <RI>
0

>  <Rbt.Current_Directory>
/home/itssahil/PROJECTS/Mol_Feturizer/New_Systems/rnas/3DIM

>  <Rbt.Executable>
rbdock ($Id: //depot/dev/client3/rdock/2013.1/src/exe/rbdock.cxx#4 $)

>  <Rbt.Library>
libRbt.so (2013.1, Build901 2013/11/27)

>  <Rbt.Parameter_File>
/export/apps/rDock/src/rDock_2013.1_src/data/scripts/dock_solv.prm

>  <Rbt.Receptor>
prm/blind_docking_80.prm

>  <SCORE>
-4.85194

>  <SCORE.INTER>
-2.10782

>  <SCORE.INTER.CONST>
1

>  <SCORE.INTER.POLAR>
0

>  <SCORE.INTER.ROT>
5

>  <SCORE.INTER.SOLV>
10.2197

>  <SCORE.INTER.VDW>
-11.7451

>  <SCORE.INTER.norm>
-0.210782

>  <SCORE.INTRA>
-2.74411

>  <SCORE.INTRA.DIHEDRAL>
-3.68546

>  <SCORE.INTRA.DIHEDRAL.0>
5.8785

>  <SCORE.INTRA.POLAR>
0

>  <SCORE.INTRA.POLAR.0>
0

>  <SCORE.INTRA.REPUL>
0

>  <SCORE.INTRA.REPUL.0>
0

>  <SCORE.INTRA.SOLV>
-1.84211

>  <SCORE.INTRA.SOLV.lig_0>
-31.9559

>  <SCORE.INTRA.VDW>
0.0196707

>  <SCORE.INTRA.VDW.0>
-0.507645

>  <SCORE.INTRA.norm>
-0.274411

>  <SCORE.RESTR>
0

>  <SCORE.RESTR.CAVITY>
0

>  <SCORE.RESTR.norm>
0

>  <SCORE.SYSTEM>
0

>  <SCORE.SYSTEM.CONST>
0

>  <SCORE.SYSTEM.DIHEDRAL>
0

>  <SCORE.SYSTEM.SOLV>
0

>  <SCORE.SYSTEM.norm>
0

>  <SCORE.heavy>
10

>  <SCORE.norm>
-0.485194

>  <RMSD>
48.791

$$$$
ligand
 OpenBabel11021811473D
libRbt.so/2013.1/901 2013/11/27
 10  9  0  0  0  0  0  0  0  0999 V2000
    0.5659   53.5980   14.0551 N   0  0  0  0  0  0  0  0  0  0  0  0
    0.0609   53.1243   12.7394 C   0  0  2  0  0  0  0  0  0  0  0  0
   -0.4769   54.2828   11.8988 C   0  0  0  0  0  0  0  0  0  0  0  0
   -1.2392   55.1146   12.3811 O   0  0  0  0  0  0  0  0  0  0  0  0
   -0.9832   52.0194   12.9366 C   0  0  0  0  0  0  0  0  0  0  0  0
   -1.2242   51.1961   11.6753 C   0  0  0  0  0  0  0  0  0  0  0  0
   -1.9806   51.9666   10.6021 C   0  0  0  0  0  0  0  0  0  0  0  0
   -2.2191   51.0961    9.3678 C   0  0  0  0  0  0  0  0  0  0  0  0
   -3.1440   49.9215    9.6058 N   0  0  0  0  0  0  0  0  0  0  0  0
   -0.1537   54.4676   10.7311 O   0  0  0  0  0  0  0  0  0  0  0  0
  2  1  1  1  0  0  0
  2  3  1  0  0  0  0
  2  5  1  0  0  0  0
  3  4  1  0  0  0  0
  3 10  1  0  0  0  0
  5  6  1  0  0  0  0
  6  7  1  0  0  0  0
  7  8  1  0  0  0  0
  8  9  1  0  0  0  0
M  END
>  <CHROM.1>
-47.28792436,-162.15238934,-71.54647510,-179.06148736,65.95353873,-1.08539944
52.71191717,11.58562946,-0.32058724,1.06810963,2.62018360

>  <Name>
ligand

>  <RI>
0

>  <Rbt.Current_Directory>
/home/itssahil/PROJECTS/Mol_Feturizer/New_Systems/rnas/3DIM

>  <Rbt.Executable>
rbdock ($Id: //depot/dev/client3/rdock/2013.1/src/exe/rbdock.cxx#4 $)

>  <Rbt.Library>
libRbt.so (2013.1, Build901 2013/11/27)

>  <Rbt.Parameter_File>
/export/apps/rDock/src/rDock_2013.1_src/data/scripts/dock_solv.prm

>  <Rbt.Receptor>
prm/blind_docking_80.prm

>  <SCORE>
-3.42682

>  <SCORE.INTER>
-1.48411

>  <SCORE.INTER.CONST>
1

>  <SCORE.INTER.POLAR>
0

>  <SCORE.INTER.ROT>
5

>  <SCORE.INTER.SOLV>
13.7007

>  <SCORE.INTER.VDW>
-12.4896

>  <SCORE.INTER.norm>
-0.148411

>  <SCORE.INTRA>
-1.94272

>  <SCORE.INTRA.DIHEDRAL>
-2.51862

>  <SCORE.INTRA.DIHEDRAL.0>
5.8785

>  <SCORE.INTRA.POLAR>
0

>  <SCORE.INTRA.POLAR.0>
0

>  <SCORE.INTRA.REPUL>
0

>  <SCORE.INTRA.REPUL.0>
0

>  <SCORE.INTRA.SOLV>
-0.890485

>  <SCORE.INTRA.SOLV.lig_0>
-31.9559

>  <SCORE.INTRA.VDW>
-0.238162

>  <SCORE.INTRA.VDW.0>
-0.507645

>  <SCORE.INTRA.norm>
-0.194272

>  <SCORE.RESTR>
0

>  <SCORE.RESTR.CAVITY>
0

>  <SCORE.RESTR.norm>
0

>  <SCORE.SYSTEM>
0

>  <SCORE.SYSTEM.CONST>
0

>  <SCORE.SYSTEM.DIHEDRAL>
0

>  <SCORE.SYSTEM.SOLV>
0

>  <SCORE.SYSTEM.norm>
0

>  <SCORE.heavy>
10

>  <SCORE.norm>
-0.342682

>  <RMSD>
49.508

$$$$
ligand
 OpenBabel11021811473D
libRbt.so/2013.1/901 2013/11/27
 10  9  0  0  0  0  0  0  0  0999 V2000
   -0.6695   50.6674   11.1826 N   0  0  0  0  0  0  0  0  0  0  0  0
   -1.9277   51.3583   10.7954 C   0  0  2  0  0  0  0  0  0  0  0  0
   -2.7785   50.4893    9.8686 C   0  0  0  0  0  0  0  0  0  0  0  0
   -2.2618   49.8069    8.9895 O   0  0  0  0  0  0  0  0  0  0  0  0
   -1.6155   52.7269   10.1795 C   0  0  0  0  0  0  0  0  0  0  0  0
   -0.8473   53.6442   11.1256 C   0  0  0  0  0  0  0  0  0  0  0  0
   -1.6299   53.9815   12.3870 C   0  0  0  0  0  0  0  0  0  0  0  0
   -0.8114   54.8786   13.3164 C   0  0  0  0  0  0  0  0  0  0  0  0
    0.4486   54.2325   13.8519 N   0  0  0  0  0  0  0  0  0  0  0  0
   -3.9960   50.3939    9.9730 O   0  0  0  0  0  0  0  0  0  0  0  0
  2  1  1  6  0  0  0
  2  3  1  0  0  0  0
  2  5  1  0  0  0  0
  3  4  1  0  0  0  0
  3 10  1  0  0  0  0
  5  6  1  0  0  0  0
  6  7  1  0  0  0  0
  7  8  1  0  0  0  0
  8  9  1  0  0  0  0
M  END
>  <CHROM.1>
-39.38803913,-59.07290510,-62.53196836,178.86628368,-63.76773202,-1.63283201
52.18950381,11.14063913,-2.01438240,-0.38066198,0.51775294

>  <Name>
ligand

>  <RI>
0

>  <Rbt.Current_Directory>
/home/itssahil/PROJECTS/Mol_Feturizer/New_Systems/rnas/3DIM

>  <Rbt.Executable>
rbdock ($Id: //depot/dev/client3/rdock/2013.1/src/exe/rbdock.cxx#4 $)

>  <Rbt.Library>
libRbt.so (2013.1, Build901 2013/11/27)

>  <Rbt.Parameter_File>
/export/apps/rDock/src/rDock_2013.1_src/data/scripts/dock_solv.prm

>  <Rbt.Receptor>
prm/blind_docking_80.prm

>  <SCORE>
-7.64802

>  <SCORE.INTER>
-5.79091

>  <SCORE.INTER.CONST>
1

>  <SCORE.INTER.POLAR>
0

>  <SCORE.INTER.ROT>
5

>  <SCORE.INTER.SOLV>
10.7392

>  <SCORE.INTER.VDW>
-14.3737

>  <SCORE.INTER.norm>
-0.579091

>  <SCORE.INTRA>
-1.8571

>  <SCORE.INTRA.DIHEDRAL>
-4.21689

>  <SCORE.INTRA.DIHEDRAL.0>
5.8785

>  <SCORE.INTRA.POLAR>
0

>  <SCORE.INTRA.POLAR.0>
0

>  <SCORE.INTRA.REPUL>
0

>  <SCORE.INTRA.REPUL.0>
0

>  <SCORE.INTRA.SOLV>
0.52329

>  <SCORE.INTRA.SOLV.lig_0>
-31.9559

>  <SCORE.INTRA.VDW>
-0.0103057

>  <SCORE.INTRA.VDW.0>
-0.507645

>  <SCORE.INTRA.norm>
-0.18571

>  <SCORE.RESTR>
0

>  <SCORE.RESTR.CAVITY>
0

>  <SCORE.RESTR.norm>
0

>  <SCORE.SYSTEM>
0

>  <SCORE.SYSTEM.CONST>
0

>  <SCORE.SYSTEM.DIHEDRAL>
0

>  <SCORE.SYSTEM.SOLV>
0

>  <SCORE.SYSTEM.norm>
0

>  <SCORE.heavy>
10

>  <SCORE.norm>
-0.764802

>  <RMSD>
49.779

$$$$
ligand
 OpenBabel11021811473D
libRbt.so/2013.1/901 2013/11/27
 10  9  0  0  0  0  0  0  0  0999 V2000
   -0.3697   50.9906   11.3528 N   0  0  0  0  0  0  0  0  0  0  0  0
   -1.7971   51.4022   11.2936 C   0  0  2  0  0  0  0  0  0  0  0  0
   -2.4610   50.9276   10.0006 C   0  0  0  0  0  0  0  0  0  0  0  0
   -3.6592   50.6654    9.9633 O   0  0  0  0  0  0  0  0  0  0  0  0
   -1.9221   52.9180   11.4851 C   0  0  0  0  0  0  0  0  0  0  0  0
   -1.4306   53.3881   12.8503 C   0  0  0  0  0  0  0  0  0  0  0  0
   -1.5902   54.8886   13.0515 C   0  0  0  0  0  0  0  0  0  0  0  0
   -1.1683   55.3004   14.4624 C   0  0  0  0  0  0  0  0  0  0  0  0
   -1.4061   56.7614   14.7800 N   0  0  0  0  0  0  0  0  0  0  0  0
   -1.8576   50.8221    8.9390 O   0  0  0  0  0  0  0  0  0  0  0  0
  2  1  1  6  0  0  0
  2  3  1  0  0  0  0
  2  5  1  0  0  0  0
  3  4  1  0  0  0  0
  3 10  1  0  0  0  0
  5  6  1  0  0  0  0
  6  7  1  0  0  0  0
  7  8  1  0  0  0  0
  8  9  1  0  0  0  0
M  END
>  <CHROM.1>
150.08862510,-62.75838332,-178.47751739,176.40326696,-175.17064648,-1.78403048
52.78533863,11.78104596,-1.72744976,-0.37280744,0.66824379

>  <Name>
ligand

>  <RI>
0

>  <Rbt.Current_Directory>
/home/itssahil/PROJECTS/Mol_Feturizer/New_Systems/rnas/3DIM

>  <Rbt.Executable>
rbdock ($Id: //depot/dev/client3/rdock/2013.1/src/exe/rbdock.cxx#4 $)

>  <Rbt.Library>
libRbt.so (2013.1, Build901 2013/11/27)

>  <Rbt.Parameter_File>
/export/apps/rDock/src/rDock_2013.1_src/data/scripts/dock_solv.prm

>  <Rbt.Receptor>
prm/blind_docking_80.prm

>  <SCORE>
-6.41886

>  <SCORE.INTER>
-3.46338

>  <SCORE.INTER.CONST>
1

>  <SCORE.INTER.POLAR>
0

>  <SCORE.INTER.ROT>
5

>  <SCORE.INTER.SOLV>
9.79815

>  <SCORE.INTER.VDW>
-12.5083

>  <SCORE.INTER.norm>
-0.346338

>  <SCORE.INTRA>
-2.95548

>  <SCORE.INTRA.DIHEDRAL>
-4.26723

>  <SCORE.INTRA.DIHEDRAL.0>
5.8785

>  <SCORE.INTRA.POLAR>
0

>  <SCORE.INTRA.POLAR.0>
0

>  <SCORE.INTRA.REPUL>
0

>  <SCORE.INTRA.REPUL.0>
0

>  <SCORE.INTRA.SOLV>
-0.995814

>  <SCORE.INTRA.SOLV.lig_0>
-31.9559

>  <SCORE.INTRA.VDW>
-0.323958

>  <SCORE.INTRA.VDW.0>
-0.507645

>  <SCORE.INTRA.norm>
-0.295548

>  <SCORE.RESTR>
0

>  <SCORE.RESTR.CAVITY>
0

>  <SCORE.RESTR.norm>
0

>  <SCORE.SYSTEM>
0

>  <SCORE.SYSTEM.CONST>
0

>  <SCORE.SYSTEM.DIHEDRAL>
0

>  <SCORE.SYSTEM.SOLV>
0

>  <SCORE.SYSTEM.norm>
0

>  <SCORE.heavy>
10

>  <SCORE.norm>
-0.641886

>  <RMSD>
50.189

$$$$
ligand
 OpenBabel11021811473D
libRbt.so/2013.1/901 2013/11/27
 10  9  0  0  0  0  0  0  0  0999 V2000
   -1.8251   52.8926    9.1260 N   0  0  0  0  0  0  0  0  0  0  0  0
   -1.8675   51.8287   10.1636 C   0  0  2  0  0  0  0  0  0  0  0  0
   -2.7400   50.6534    9.7217 C   0  0  0  0  0  0  0  0  0  0  0  0
   -3.9324   50.6073   10.0077 O   0  0  0  0  0  0  0  0  0  0  0  0
   -2.3210   52.4128   11.5064 C   0  0  0  0  0  0  0  0  0  0  0  0
   -1.4083   53.5263   12.0099 C   0  0  0  0  0  0  0  0  0  0  0  0
   -1.8666   54.1107   13.3388 C   0  0  0  0  0  0  0  0  0  0  0  0
   -0.9555   55.2582   13.7764 C   0  0  0  0  0  0  0  0  0  0  0  0
   -1.3416   55.8884   15.0975 N   0  0  0  0  0  0  0  0  0  0  0  0
   -2.3186   49.7286    9.0366 O   0  0  0  0  0  0  0  0  0  0  0  0
  2  1  1  6  0  0  0
  2  3  1  0  0  0  0
  2  5  1  0  0  0  0
  3  4  1  0  0  0  0
  3 10  1  0  0  0  0
  5  6  1  0  0  0  0
  6  7  1  0  0  0  0
  7  8  1  0  0  0  0
  8  9  1  0  0  0  0
M  END
>  <CHROM.1>
-92.09190149,-59.01447265,179.60608725,-177.75082256,-179.64027354,-2.07925135
52.65493228,11.35868565,-1.89468264,0.83854417,1.03938489

>  <Name>
ligand

>  <RI>
0

>  <Rbt.Current_Directory>
/home/itssahil/PROJECTS/Mol_Feturizer/New_Systems/rnas/3DIM

>  <Rbt.Executable>
rbdock ($Id: //depot/dev/client3/rdock/2013.1/src/exe/rbdock.cxx#4 $)

>  <Rbt.Library>
libRbt.so (2013.1, Build901 2013/11/27)

>  <Rbt.Parameter_File>
/export/apps/rDock/src/rDock_2013.1_src/data/scripts/dock_solv.prm

>  <Rbt.Receptor>
prm/blind_docking_80.prm

>  <SCORE>
-7.02059

>  <SCORE.INTER>
-4.42534

>  <SCORE.INTER.CONST>
1

>  <SCORE.INTER.POLAR>
0

>  <SCORE.INTER.ROT>
5

>  <SCORE.INTER.SOLV>
12.9917

>  <SCORE.INTER.VDW>
-14.2141

>  <SCORE.INTER.norm>
-0.442534

>  <SCORE.INTRA>
-2.59525

>  <SCORE.INTRA.DIHEDRAL>
-4.42993

>  <SCORE.INTRA.DIHEDRAL.0>
5.8785

>  <SCORE.INTRA.POLAR>
0

>  <SCORE.INTRA.POLAR.0>
0

>  <SCORE.INTRA.REPUL>
0

>  <SCORE.INTRA.REPUL.0>
0

>  <SCORE.INTRA.SOLV>
-0.937858

>  <SCORE.INTRA.SOLV.lig_0>
-31.9559

>  <SCORE.INTRA.VDW>
0.088645

>  <SCORE.INTRA.VDW.0>
-0.507645

>  <SCORE.INTRA.norm>
-0.259525

>  <SCORE.RESTR>
0

>  <SCORE.RESTR.CAVITY>
0

>  <SCORE.RESTR.norm>
0

>  <SCORE.SYSTEM>
0

>  <SCORE.SYSTEM.CONST>
0

>  <SCORE.SYSTEM.DIHEDRAL>
0

>  <SCORE.SYSTEM.SOLV>
0

>  <SCORE.SYSTEM.norm>
0

>  <SCORE.heavy>
10

>  <SCORE.norm>
-0.702059

>  <RMSD>
50.381

$$$$
ligand
 OpenBabel11021811473D
libRbt.so/2013.1/901 2013/11/27
 10  9  0  0  0  0  0  0  0  0999 V2000
   -1.8857   53.3275    9.3000 N   0  0  0  0  0  0  0  0  0  0  0  0
   -1.7104   52.2428   10.3016 C   0  0  2  0  0  0  0  0  0  0  0  0
   -2.4382   50.9674    9.8753 C   0  0  0  0  0  0  0  0  0  0  0  0
   -1.8797   49.8756    9.9170 O   0  0  0  0  0  0  0  0  0  0  0  0
   -2.1505   52.7235   11.6891 C   0  0  0  0  0  0  0  0  0  0  0  0
   -1.3020   53.8760   12.2167 C   0  0  0  0  0  0  0  0  0  0  0  0
   -1.7439   54.3535   13.5930 C   0  0  0  0  0  0  0  0  0  0  0  0
   -0.8790   55.5200   14.0722 C   0  0  0  0  0  0  0  0  0  0  0  0
   -1.2486   56.0446   15.4433 N   0  0  0  0  0  0  0  0  0  0  0  0
   -3.6091   50.9552    9.5135 O   0  0  0  0  0  0  0  0  0  0  0  0
  2  1  1  6  0  0  0
  2  3  1  0  0  0  0
  2  5  1  0  0  0  0
  3  4  1  0  0  0  0
  3 10  1  0  0  0  0
  5  6  1  0  0  0  0
  6  7  1  0  0  0  0
  7  8  1  0  0  0  0
  8  9  1  0  0  0  0
M  END
>  <CHROM.1>
132.36881886,-63.28842932,179.84652354,-179.21111757,-179.45484591,-1.90216479
52.95038550,11.57321502,-2.58484281,1.34160235,1.81832094

>  <Name>
ligand

>  <RI>
0

>  <Rbt.Current_Directory>
/home/itssahil/PROJECTS/Mol_Feturizer/New_Systems/rnas/3DIM

>  <Rbt.Executable>
rbdock ($Id: //depot/dev/client3/rdock/2013.1/src/exe/rbdock.cxx#4 $)

>  <Rbt.Library>
libRbt.so (2013.1, Build901 2013/11/27)

>  <Rbt.Parameter_File>
/export/apps/rDock/src/rDock_2013.1_src/data/scripts/dock_solv.prm

>  <Rbt.Receptor>
prm/blind_docking_80.prm

>  <SCORE>
-6.13293

>  <SCORE.INTER>
-3.10103

>  <SCORE.INTER.CONST>
1

>  <SCORE.INTER.POLAR>
0

>  <SCORE.INTER.ROT>
5

>  <SCORE.INTER.SOLV>
11.3102

>  <SCORE.INTER.VDW>
-12.7707

>  <SCORE.INTER.norm>
-0.310103

>  <SCORE.INTRA>
-3.0319

>  <SCORE.INTRA.DIHEDRAL>
-4.36219

>  <SCORE.INTRA.DIHEDRAL.0>
5.8785

>  <SCORE.INTRA.POLAR>
0

>  <SCORE.INTRA.POLAR.0>
0

>  <SCORE.INTRA.REPUL>
0

>  <SCORE.INTRA.REPUL.0>
0

>  <SCORE.INTRA.SOLV>
-1.00527

>  <SCORE.INTRA.SOLV.lig_0>
-31.9559

>  <SCORE.INTRA.VDW>
-0.348171

>  <SCORE.INTRA.VDW.0>
-0.507645

>  <SCORE.INTRA.norm>
-0.30319

>  <SCORE.RESTR>
0

>  <SCORE.RESTR.CAVITY>
0

>  <SCORE.RESTR.norm>
0

>  <SCORE.SYSTEM>
0

>  <SCORE.SYSTEM.CONST>
0

>  <SCORE.SYSTEM.DIHEDRAL>
0

>  <SCORE.SYSTEM.SOLV>
0

>  <SCORE.SYSTEM.norm>
0

>  <SCORE.heavy>
10

>  <SCORE.norm>
-0.613293

>  <RMSD>
50.444

$$$$
ligand
 OpenBabel11021811473D
libRbt.so/2013.1/901 2013/11/27
 10  9  0  0  0  0  0  0  0  0999 V2000
   -1.6903   51.6940    9.9582 N   0  0  0  0  0  0  0  0  0  0  0  0
   -1.3339   53.0047   10.5628 C   0  0  2  0  0  0  0  0  0  0  0  0
   -0.5382   53.8712    9.5861 C   0  0  0  0  0  0  0  0  0  0  0  0
    0.6469   54.1215    9.7824 O   0  0  0  0  0  0  0  0  0  0  0  0
   -0.5913   52.7954   11.8874 C   0  0  0  0  0  0  0  0  0  0  0  0
   -0.4224   54.0843   12.6853 C   0  0  0  0  0  0  0  0  0  0  0  0
   -1.7460   54.6516   13.1790 C   0  0  0  0  0  0  0  0  0  0  0  0
   -1.5248   55.9186   14.0062 C   0  0  0  0  0  0  0  0  0  0  0  0
   -0.7673   55.6927   15.2973 N   0  0  0  0  0  0  0  0  0  0  0  0
   -1.0157   54.3233    8.5518 O   0  0  0  0  0  0  0  0  0  0  0  0
  2  1  1  6  0  0  0
  2  3  1  0  0  0  0
  2  5  1  0  0  0  0
  3  4  1  0  0  0  0
  3 10  1  0  0  0  0
  5  6  1  0  0  0  0
  6  7  1  0  0  0  0
  7  8  1  0  0  0  0
  8  9  1  0  0  0  0
M  END
>  <CHROM.1>
-111.18430818,-169.41582270,66.12363629,178.36073857,-64.90606729,-0.88027395
54.03088139,11.51782547,1.40552916,-1.16731814,-2.11830961

>  <Name>
ligand

>  <RI>
0

>  <Rbt.Current_Directory>
/home/itssahil/PROJECTS/Mol_Feturizer/New_Systems/rnas/3DIM

>  <Rbt.Executable>
rbdock ($Id: //depot/dev/client3/rdock/2013.1/src/exe/rbdock.cxx#4 $)

>  <Rbt.Library>
libRbt.so (2013.1, Build901 2013/11/27)

>  <Rbt.Parameter_File>
/export/apps/rDock/src/rDock_2013.1_src/data/scripts/dock_solv.prm

>  <Rbt.Receptor>
prm/blind_docking_80.prm

>  <SCORE>
-3.39001

>  <SCORE.INTER>
-1.63989

>  <SCORE.INTER.CONST>
1

>  <SCORE.INTER.POLAR>
0

>  <SCORE.INTER.ROT>
5

>  <SCORE.INTER.SOLV>
9.06146

>  <SCORE.INTER.VDW>
-11.0471

>  <SCORE.INTER.norm>
-0.163989

>  <SCORE.INTRA>
-1.75012

>  <SCORE.INTRA.DIHEDRAL>
-3.73794

>  <SCORE.INTRA.DIHEDRAL.0>
5.8785

>  <SCORE.INTRA.POLAR>
0

>  <SCORE.INTRA.POLAR.0>
0

>  <SCORE.INTRA.REPUL>
0

>  <SCORE.INTRA.REPUL.0>
0

>  <SCORE.INTRA.SOLV>
-0.728136

>  <SCORE.INTRA.SOLV.lig_0>
-31.9559

>  <SCORE.INTRA.VDW>
0.482921

>  <SCORE.INTRA.VDW.0>
-0.507645

>  <SCORE.INTRA.norm>
-0.175012

>  <SCORE.RESTR>
0

>  <SCORE.RESTR.CAVITY>
0

>  <SCORE.RESTR.norm>
0

>  <SCORE.SYSTEM>
0

>  <SCORE.SYSTEM.CONST>
0

>  <SCORE.SYSTEM.DIHEDRAL>
0

>  <SCORE.SYSTEM.SOLV>
0

>  <SCORE.SYSTEM.norm>
0

>  <SCORE.heavy>
10

>  <SCORE.norm>
-0.339001

>  <RMSD>
50.510

$$$$
ligand
 OpenBabel11021811473D
libRbt.so/2013.1/901 2013/11/27
 10  9  0  0  0  0  0  0  0  0999 V2000
   -0.4560   52.2186   11.5959 N   0  0  0  0  0  0  0  0  0  0  0  0
   -1.0767   53.4883   11.1345 C   0  0  2  0  0  0  0  0  0  0  0  0
   -0.6768   53.8134    9.6949 C   0  0  0  0  0  0  0  0  0  0  0  0
    0.4895   54.0569    9.4013 O   0  0  0  0  0  0  0  0  0  0  0  0
   -0.7366   54.6287   12.1007 C   0  0  0  0  0  0  0  0  0  0  0  0
   -1.3955   54.4679   13.4670 C   0  0  0  0  0  0  0  0  0  0  0  0
   -1.0961   55.6267   14.4077 C   0  0  0  0  0  0  0  0  0  0  0  0
   -1.7463   55.4056   15.7739 C   0  0  0  0  0  0  0  0  0  0  0  0
   -1.4978   56.5205   16.7674 N   0  0  0  0  0  0  0  0  0  0  0  0
   -1.4730   53.8104    8.7632 O   0  0  0  0  0  0  0  0  0  0  0  0
  2  1  1  1  0  0  0
  2  3  1  0  0  0  0
  2  5  1  0  0  0  0
  3  4  1  0  0  0  0
  3 10  1  0  0  0  0
  5  6  1  0  0  0  0
  6  7  1  0  0  0  0
  7  8  1  0  0  0  0
  8  9  1  0  0  0  0
M  END
>  <CHROM.1>
-64.66705434,-68.01652286,-177.95914398,-178.55676042,-179.80587359,-0.95660621
54.40554310,12.26563673,-0.05913911,-1.43536626,2.73822199

>  <Name>
ligand

>  <RI>
0

>  <Rbt.Current_Directory>
/home/itssahil/PROJECTS/Mol_Feturizer/New_Systems/rnas/3DIM

>  <Rbt.Executable>
rbdock ($Id: //depot/dev/client3/rdock/2013.1/src/exe/rbdock.cxx#4 $)

>  <Rbt.Library>
libRbt.so (2013.1, Build901 2013/11/27)

>  <Rbt.Parameter_File>
/export/apps/rDock/src/rDock_2013.1_src/data/scripts/dock_solv.prm

>  <Rbt.Receptor>
prm/blind_docking_80.prm

>  <SCORE>
-3.90551

>  <SCORE.INTER>
-1.01025

>  <SCORE.INTER.CONST>
1

>  <SCORE.INTER.POLAR>
0

>  <SCORE.INTER.ROT>
5

>  <SCORE.INTER.SOLV>
4.61778

>  <SCORE.INTER.VDW>
-9.14609

>  <SCORE.INTER.norm>
-0.101025

>  <SCORE.INTRA>
-2.89526

>  <SCORE.INTRA.DIHEDRAL>
-4.10631

>  <SCORE.INTRA.DIHEDRAL.0>
5.8785

>  <SCORE.INTRA.POLAR>
0

>  <SCORE.INTRA.POLAR.0>
0

>  <SCORE.INTRA.REPUL>
0

>  <SCORE.INTRA.REPUL.0>
0

>  <SCORE.INTRA.SOLV>
-1.06234

>  <SCORE.INTRA.SOLV.lig_0>
-31.9559

>  <SCORE.INTRA.VDW>
-0.310939

>  <SCORE.INTRA.VDW.0>
-0.507645

>  <SCORE.INTRA.norm>
-0.289526

>  <SCORE.RESTR>
0

>  <SCORE.RESTR.CAVITY>
0

>  <SCORE.RESTR.norm>
0

>  <SCORE.SYSTEM>
0

>  <SCORE.SYSTEM.CONST>
0

>  <SCORE.SYSTEM.DIHEDRAL>
0

>  <SCORE.SYSTEM.SOLV>
0

>  <SCORE.SYSTEM.norm>
0

>  <SCORE.heavy>
10

>  <SCORE.norm>
-0.390551

>  <RMSD>
50.737

$$$$
ligand
 OpenBabel11021811473D
libRbt.so/2013.1/901 2013/11/27
 10  9  0  0  0  0  0  0  0  0999 V2000
   -7.7723   55.8906    2.3584 N   0  0  0  0  0  0  0  0  0  0  0  0
   -7.8237   55.0303    3.5698 C   0  0  2  0  0  0  0  0  0  0  0  0
   -7.1076   55.6867    4.7506 C   0  0  0  0  0  0  0  0  0  0  0  0
   -5.9141   55.9655    4.6918 O   0  0  0  0  0  0  0  0  0  0  0  0
   -7.2658   53.6371    3.2572 C   0  0  0  0  0  0  0  0  0  0  0  0
   -7.9812   52.9565    2.0947 C   0  0  0  0  0  0  0  0  0  0  0  0
   -7.2590   51.7089    1.6052 C   0  0  0  0  0  0  0  0  0  0  0  0
   -7.9090   51.1629    0.3333 C   0  0  0  0  0  0  0  0  0  0  0  0
   -7.1729   49.9949   -0.2878 N   0  0  0  0  0  0  0  0  0  0  0  0
   -7.6798   56.0030    5.7873 O   0  0  0  0  0  0  0  0  0  0  0  0
  2  1  1  6  0  0  0
  2  3  1  0  0  0  0
  2  5  1  0  0  0  0
  3  4  1  0  0  0  0
  3 10  1  0  0  0  0
  5  6  1  0  0  0  0
  6  7  1  0  0  0  0
  7  8  1  0  0  0  0
  8  9  1  0  0  0  0
M  END
>  <CHROM.1>
-60.53067368,-56.05871826,168.51101491,-172.76940466,174.73096698,-7.37288534
53.82920209,2.85128479,1.45640765,-1.02955641,0.61821862

>  <Name>
ligand

>  <RI>
0

>  <Rbt.Current_Directory>
/home/itssahil/PROJECTS/Mol_Feturizer/New_Systems/rnas/3DIM

>  <Rbt.Executable>
rbdock ($Id: //depot/dev/client3/rdock/2013.1/src/exe/rbdock.cxx#4 $)

>  <Rbt.Library>
libRbt.so (2013.1, Build901 2013/11/27)

>  <Rbt.Parameter_File>
/export/apps/rDock/src/rDock_2013.1_src/data/scripts/dock_solv.prm

>  <Rbt.Receptor>
prm/blind_docking_100.prm

>  <SCORE>
-5.02687

>  <SCORE.INTER>
-2.65529

>  <SCORE.INTER.CONST>
1

>  <SCORE.INTER.POLAR>
0

>  <SCORE.INTER.ROT>
5

>  <SCORE.INTER.SOLV>
11.3448

>  <SCORE.INTER.VDW>
-12.4851

>  <SCORE.INTER.norm>
-0.265529

>  <SCORE.INTRA>
-2.37598

>  <SCORE.INTRA.DIHEDRAL>
-3.47287

>  <SCORE.INTRA.DIHEDRAL.0>
5.8785

>  <SCORE.INTRA.POLAR>
0

>  <SCORE.INTRA.POLAR.0>
0

>  <SCORE.INTRA.REPUL>
0

>  <SCORE.INTRA.REPUL.0>
0

>  <SCORE.INTRA.SOLV>
-0.827749

>  <SCORE.INTRA.SOLV.lig_0>
-31.9559

>  <SCORE.INTRA.VDW>
-0.225673

>  <SCORE.INTRA.VDW.0>
-0.507645

>  <SCORE.INTRA.norm>
-0.237598

>  <SCORE.RESTR>
0.00440744

>  <SCORE.RESTR.CAVITY>
0.00440744

>  <SCORE.RESTR.norm>
0.000440744

>  <SCORE.SYSTEM>
0

>  <SCORE.SYSTEM.CONST>
0

>  <SCORE.SYSTEM.DIHEDRAL>
0

>  <SCORE.SYSTEM.SOLV>
0

>  <SCORE.SYSTEM.norm>
0

>  <SCORE.heavy>
10

>  <SCORE.norm>
-0.502687

>  <RMSD>
56.765

$$$$
ligand
 OpenBabel11021811473D
libRbt.so/2013.1/901 2013/11/27
 10  9  0  0  0  0  0  0  0  0999 V2000
   -7.2284   51.7016    1.1570 N   0  0  0  0  0  0  0  0  0  0  0  0
   -8.1219   52.6092    1.9239 C   0  0  2  0  0  0  0  0  0  0  0  0
   -7.5118   52.9809    3.2758 C   0  0  0  0  0  0  0  0  0  0  0  0
   -7.9393   53.9313    3.9236 O   0  0  0  0  0  0  0  0  0  0  0  0
   -9.5149   51.9861    2.0699 C   0  0  0  0  0  0  0  0  0  0  0  0
  -10.1298   51.5829    0.7335 C   0  0  0  0  0  0  0  0  0  0  0  0
  -11.5613   51.0830    0.8684 C   0  0  0  0  0  0  0  0  0  0  0  0
  -12.5292   52.2457    1.0913 C   0  0  0  0  0  0  0  0  0  0  0  0
  -12.6198   53.2099   -0.0723 N   0  0  0  0  0  0  0  0  0  0  0  0
   -6.6068   52.3413    3.7992 O   0  0  0  0  0  0  0  0  0  0  0  0
  2  1  1  1  0  0  0
  2  3  1  0  0  0  0
  2  5  1  0  0  0  0
  3  4  1  0  0  0  0
  3 10  1  0  0  0  0
  5  6  1  0  0  0  0
  6  7  1  0  0  0  0
  7  8  1  0  0  0  0
  8  9  1  0  0  0  0
M  END
>  <CHROM.1>
163.92325884,-54.08104661,-174.74252040,75.68338243,64.39301645,-9.35294531
52.37818646,1.91257532,-0.43594960,0.29028414,-2.34028837

>  <Name>
ligand

>  <RI>
0

>  <Rbt.Current_Directory>
/home/itssahil/PROJECTS/Mol_Feturizer/New_Systems/rnas/3DIM

>  <Rbt.Executable>
rbdock ($Id: //depot/dev/client3/rdock/2013.1/src/exe/rbdock.cxx#4 $)

>  <Rbt.Library>
libRbt.so (2013.1, Build901 2013/11/27)

>  <Rbt.Parameter_File>
/export/apps/rDock/src/rDock_2013.1_src/data/scripts/dock_solv.prm

>  <Rbt.Receptor>
prm/blind_docking_100.prm

>  <SCORE>
-4.51673

>  <SCORE.INTER>
-3.36009

>  <SCORE.INTER.CONST>
1

>  <SCORE.INTER.POLAR>
0

>  <SCORE.INTER.ROT>
5

>  <SCORE.INTER.SOLV>
5.54468

>  <SCORE.INTER.VDW>
-11.0216

>  <SCORE.INTER.norm>
-0.336009

>  <SCORE.INTRA>
-1.15665

>  <SCORE.INTRA.DIHEDRAL>
-3.1532

>  <SCORE.INTRA.DIHEDRAL.0>
5.8785

>  <SCORE.INTRA.POLAR>
0

>  <SCORE.INTRA.POLAR.0>
0

>  <SCORE.INTRA.REPUL>
0

>  <SCORE.INTRA.REPUL.0>
0

>  <SCORE.INTRA.SOLV>
0.388571

>  <SCORE.INTRA.SOLV.lig_0>
-31.9559

>  <SCORE.INTRA.VDW>
0.225668

>  <SCORE.INTRA.VDW.0>
-0.507645

>  <SCORE.INTRA.norm>
-0.115665

>  <SCORE.RESTR>
0

>  <SCORE.RESTR.CAVITY>
0

>  <SCORE.RESTR.norm>
0

>  <SCORE.SYSTEM>
0

>  <SCORE.SYSTEM.CONST>
0

>  <SCORE.SYSTEM.DIHEDRAL>
0

>  <SCORE.SYSTEM.SOLV>
0

>  <SCORE.SYSTEM.norm>
0

>  <SCORE.heavy>
10

>  <SCORE.norm>
-0.451673

>  <RMSD>
57.450

$$$$
ligand
 OpenBabel11021811473D
libRbt.so/2013.1/901 2013/11/27
 10  9  0  0  0  0  0  0  0  0999 V2000
   -7.2448   51.9559    1.4344 N   0  0  0  0  0  0  0  0  0  0  0  0
   -8.2421   53.0161    1.7375 C   0  0  2  0  0  0  0  0  0  0  0  0
   -7.6287   54.1337    2.5817 C   0  0  0  0  0  0  0  0  0  0  0  0
   -7.8059   55.3136    2.2954 O   0  0  0  0  0  0  0  0  0  0  0  0
   -9.4829   52.4060    2.3994 C   0  0  0  0  0  0  0  0  0  0  0  0
  -10.1710   51.3620    1.5258 C   0  0  0  0  0  0  0  0  0  0  0  0
  -10.8080   51.9610    0.2796 C   0  0  0  0  0  0  0  0  0  0  0  0
  -11.4327   50.8724   -0.5939 C   0  0  0  0  0  0  0  0  0  0  0  0
  -12.0479   51.3845   -1.8788 N   0  0  0  0  0  0  0  0  0  0  0  0
   -6.9721   53.9224    3.5949 O   0  0  0  0  0  0  0  0  0  0  0  0
  2  1  1  1  0  0  0
  2  3  1  0  0  0  0
  2  5  1  0  0  0  0
  3  4  1  0  0  0  0
  3 10  1  0  0  0  0
  5  6  1  0  0  0  0
  6  7  1  0  0  0  0
  7  8  1  0  0  0  0
  8  9  1  0  0  0  0
M  END
>  <CHROM.1>
133.28823552,-59.54444625,-67.62650725,177.57792848,-178.05999776,-9.16224442
52.66435831,1.36235574,-0.39478587,0.76060462,3.00704033

>  <Name>
ligand

>  <RI>
0

>  <Rbt.Current_Directory>
/home/itssahil/PROJECTS/Mol_Feturizer/New_Systems/rnas/3DIM

>  <Rbt.Executable>
rbdock ($Id: //depot/dev/client3/rdock/2013.1/src/exe/rbdock.cxx#4 $)

>  <Rbt.Library>
libRbt.so (2013.1, Build901 2013/11/27)

>  <Rbt.Parameter_File>
/export/apps/rDock/src/rDock_2013.1_src/data/scripts/dock_solv.prm

>  <Rbt.Receptor>
prm/blind_docking_100.prm

>  <SCORE>
-4.50692

>  <SCORE.INTER>
-2.06412

>  <SCORE.INTER.CONST>
1

>  <SCORE.INTER.POLAR>
0

>  <SCORE.INTER.ROT>
5

>  <SCORE.INTER.SOLV>
5.73353

>  <SCORE.INTER.VDW>
-10.2206

>  <SCORE.INTER.norm>
-0.206412

>  <SCORE.INTRA>
-2.4428

>  <SCORE.INTRA.DIHEDRAL>
-4.14022

>  <SCORE.INTRA.DIHEDRAL.0>
5.8785

>  <SCORE.INTRA.POLAR>
0

>  <SCORE.INTRA.POLAR.0>
0

>  <SCORE.INTRA.REPUL>
0

>  <SCORE.INTRA.REPUL.0>
0

>  <SCORE.INTRA.SOLV>
-0.453351

>  <SCORE.INTRA.SOLV.lig_0>
-31.9559

>  <SCORE.INTRA.VDW>
-0.146015

>  <SCORE.INTRA.VDW.0>
-0.507645

>  <SCORE.INTRA.norm>
-0.24428

>  <SCORE.RESTR>
0

>  <SCORE.RESTR.CAVITY>
0

>  <SCORE.RESTR.norm>
0

>  <SCORE.SYSTEM>
0

>  <SCORE.SYSTEM.CONST>
0

>  <SCORE.SYSTEM.DIHEDRAL>
0

>  <SCORE.SYSTEM.SOLV>
0

>  <SCORE.SYSTEM.norm>
0

>  <SCORE.heavy>
10

>  <SCORE.norm>
-0.450692

>  <RMSD>
57.670

$$$$
