@<TRIPOS>MOLECULE
3DIM_rdock.pdb
 3728 4173 0 0 0
SMALL
GASTEIGER

@<TRIPOS>ATOM
      1  P         38.8190   -8.7970   15.8710 P.3     1  G1          0.1280
      2  C5'       39.7040   -8.6760   13.4010 C.3     1  G1          0.1795
      3  O5'       39.0770   -9.4410   14.4250 O.3     1  G1         -0.3259
      4  C4'       39.0450   -8.9100   12.0540 C.3     1  G1          0.1772
      5  O4'       39.0060  -10.3340   11.7550 O.3     1  G1         -0.3307
      6  C3'       37.5960   -8.4560   11.9190 C.3     1  G1          0.1860
      7  O3'       37.5170   -7.0500   11.7070 O.3     1  G1         -0.3112
      8  C2'       37.1890   -9.2750   10.6960 C.3     1  G1          0.2309
      9  O2'       37.6650   -8.7460    9.4720 O.3     1  G1         -0.2156
     10  C1'       37.8280  -10.6250   11.0260 C.3     1  G1          0.2408
     11  N1        33.4560  -13.2470   11.2940 N.ar    1  G1         -0.1709
     12  C2        34.0190  -12.6070   10.2120 C.ar    1  G1          0.2606
     13  N2        33.3320  -12.6630    9.0650 N.pl3   1  G1         -0.0859
     14  N3        35.1730  -11.9510   10.2550 N.ar    1  G1         -0.1918
     15  C4        35.7340  -11.9860   11.4950 C.ar    1  G1          0.1723
     16  C5        35.2500  -12.5980   12.6360 C.ar    1  G1          0.1748
     17  C6        34.0170  -13.2950   12.5740 C.ar    1  G1          0.3023
     18  O6        33.4340  -13.8970   13.4890 O.2     1  G1         -0.2633
     19  N7        36.1180  -12.4100   13.7070 N.ar    1  G1         -0.2173
     20  C8        37.0920  -11.7000   13.2070 C.ar    1  G1          0.1817
     21  N9        36.9330  -11.4110   11.8690 N.ar    1  G1         -0.2693
     22  OP1       38.1940   -7.4550   15.7120 O.3     1  G1         -0.1955
     23  OP2       38.1210   -9.8600   16.6360 O.co2   1  G1         -0.7863
     24  P         36.1350   -6.2560   11.4690 P.3     2  G2          0.2141
     25  C5'       35.0970   -5.8240    9.0610 C.3     2  G2          0.1812
     26  O5'       35.7770   -6.6890    9.9670 O.3     2  G2         -0.3114
     27  C4'       34.1420   -6.6290    8.2010 C.3     2  G2          0.1773
     28  O4'       34.2320   -8.0490    8.4910 O.3     2  G2         -0.3307
     29  C3'       32.6730   -6.3450    8.4380 C.3     2  G2          0.1860
     30  O3'       32.3340   -5.1140    7.8660 O.3     2  G2         -0.3112
     31  C2'       32.0420   -7.5390    7.7350 C.3     2  G2          0.2309
     32  O2'       32.0550   -7.4570    6.3180 O.3     2  G2         -0.2156
     33  C1'       32.9750   -8.6500    8.2260 C.3     2  G2          0.2408
     34  N1        29.3080  -11.4540   10.4540 N.ar    2  G2         -0.1709
     35  C2        29.3660  -10.9470    9.1730 C.ar    2  G2          0.2606
     36  N2        28.3260  -11.2250    8.3760 N.pl3   2  G2         -0.0859
     37  N3        30.3770  -10.2260    8.6990 N.ar    2  G2         -0.1918
     38  C4        31.3530  -10.0390    9.6260 C.ar    2  G2          0.1723
     39  C5        31.3880  -10.4980   10.9300 C.ar    2  G2          0.1748
     40  C6        30.2980  -11.2740   11.4230 C.ar    2  G2          0.3023
     41  O6        30.1450  -11.7680   12.5530 O.2     2  G2         -0.2633
     42  N7        32.5600  -10.0860   11.5590 N.ar    2  G2         -0.2173
     43  C8        33.1950   -9.4070   10.6460 C.ar    2  G2          0.1817
     44  N9        32.5260   -9.3330    9.4440 N.ar    2  G2         -0.2693
     45  OP1       36.4320   -4.8030   11.5040 O.2     2  G2         -0.5172
     46  OP2       35.0900   -6.8130   12.3580 O.co2   2  G2         -0.4373
     47  P         31.7690   -3.9700    8.8210 P.3     3  C3          0.2141
     48  C5'       29.4390   -4.4080    7.7750 C.3     3  C3          0.1812
     49  O5'       30.2330   -4.3870    8.9570 O.3     3  C3         -0.3114
     50  C4'       28.2680   -5.3620    7.8750 C.3     3  C3          0.1773
     51  O4'       28.7270   -6.6980    8.1840 O.3     3  C3         -0.3307
     52  C3'       27.2990   -5.0770    9.0090 C.3     3  C3          0.1860
     53  O3'       26.4500   -3.9850    8.7090 O.3     3  C3         -0.3112
     54  C2'       26.5690   -6.4100    9.0890 C.3     3  C3          0.2309
     55  O2'       25.6710   -6.6360    8.0220 O.3     3  C3         -0.2156
     56  C1'       27.7510   -7.3630    8.9740 C.3     3  C3          0.2420
     57  N1        28.3280   -7.7170   10.3050 N.ar    3  C3         -0.2535
     58  C2        27.6260   -8.5630   11.1810 C.ar    3  C3          0.3532
     59  O2        26.5240   -9.0200   10.8540 O.2     3  C3         -0.2443
     60  N3        28.1830   -8.8640   12.3810 N.ar    3  C3         -0.1739
     61  C4        29.3750   -8.3550   12.7210 C.ar    3  C3          0.1759
     62  N4        29.8840   -8.6750   13.9140 N.pl3   3  C3         -0.1070
     63  C5        30.1050   -7.4900   11.8490 C.ar    3  C3          0.0566
     64  C6        29.5470   -7.2060   10.6650 C.ar    3  C3          0.0850
     65  OP1       31.8600   -2.6990    8.0830 O.2     3  C3         -0.5172
     66  OP2       32.4090   -4.0690   10.1460 O.co2   3  C3         -0.4373
     67  P         26.2180   -2.8760    9.8390 P.3     4  C4          0.2141
     68  C5'       23.8850   -4.0610   10.0240 C.3     4  C4          0.1812
     69  O5'       25.0210   -3.5090   10.6910 O.3     4  C4         -0.3114
     70  C4'       23.0900   -4.9620   10.9490 C.3     4  C4          0.1773
     71  O4'       23.7870   -6.2080   11.2220 O.3     4  C4         -0.3307
     72  C3'       22.8520   -4.3970   12.3400 C.3     4  C4          0.1860
     73  O3'       21.8660   -3.3730   12.3210 O.3     4  C4         -0.3112
     74  C2'       22.3950   -5.6650   13.0410 C.3     4  C4          0.2309
     75  O2'       21.1220   -6.0890   12.6170 O.3     4  C4         -0.2156
     76  C1'       23.4400   -6.6470   12.5280 C.3     4  C4          0.2420
     77  N1        24.6520   -6.7430   13.4280 N.ar    4  C4         -0.2535
     78  C2        24.6040   -7.5370   14.5960 C.ar    4  C4          0.3532
     79  O2        23.5780   -8.1650   14.8930 O.2     4  C4         -0.2443
     80  N3        25.7080   -7.6110   15.3840 N.ar    4  C4         -0.1739
     81  C4        26.8140   -6.9370   15.0580 C.ar    4  C4          0.1759
     82  N4        27.8640   -7.0470   15.8680 N.pl3   4  C4         -0.1070
     83  C5        26.8900   -6.1210   13.8910 C.ar    4  C4          0.0566
     84  C6        25.7980   -6.0580   13.1180 C.ar    4  C4          0.0850
     85  OP1       25.7530   -1.6480    9.1570 O.2     4  C4         -0.5172
     86  OP2       27.4030   -2.8190   10.7270 O.co2   4  C4         -0.4373
     87  P         21.9830   -2.1030   13.2970 P.3     5  G5          0.2141
     88  C5'       20.4380   -3.3780   15.0020 C.3     5  G5          0.1812
     89  O5'       21.6890   -2.7250   14.7420 O.3     5  G5         -0.3114
     90  C4'       20.4730   -4.1400   16.3140 C.3     5  G5          0.1773
     91  O4'       21.4000   -5.2590   16.2580 O.3     5  G5         -0.3307
     92  C3'       20.9560   -3.3470   17.5210 C.3     5  G5          0.1860
     93  O3'       19.9520   -2.4600   17.9540 O.3     5  G5         -0.3112
     94  C2'       21.1880   -4.4990   18.4920 C.3     5  G5          0.2309
     95  O2'       20.0010   -5.0700   19.0130 O.3     5  G5         -0.2156
     96  C1'       21.8870   -5.4940   17.5700 C.3     5  G5          0.2408
     97  N1        26.0200   -6.4720   20.3180 N.ar    5  G5         -0.1709
     98  C2        24.7030   -6.8200   20.5440 C.ar    5  G5          0.2606
     99  N2        24.4480   -7.5290   21.6540 N.pl3   5  G5         -0.0859
    100  N3        23.7030   -6.4980   19.7320 N.ar    5  G5         -0.1918
    101  C4        24.1330   -5.7850   18.6600 C.ar    5  G5          0.1723
    102  C5        25.4130   -5.3850   18.3450 C.ar    5  G5          0.1748
    103  C6        26.4760   -5.7370   19.2200 C.ar    5  G5          0.3023
    104  O6        27.6860   -5.4810   19.1170 O.2     5  G5         -0.2633
    105  N7        25.4160   -4.6710   17.1550 N.ar    5  G5         -0.2173
    106  C8        24.1670   -4.6500   16.7810 C.ar    5  G5          0.1817
    107  N9        23.3350   -5.3170   17.6470 N.ar    5  G5         -0.2693
    108  OP1       20.8840   -1.1740   12.9550 O.2     5  G5         -0.5172
    109  OP2       23.3780   -1.6080   13.2900 O.co2   5  G5         -0.4373
    110  P         20.2820   -1.2290   18.9190 P.3     6  A6          0.2141
    111  C5'       19.4920   -2.2990   21.1890 C.3     6  A6          0.1812
    112  O5'       20.5510   -1.9420   20.3250 O.3     6  A6         -0.3114
    113  C4'       20.0560   -3.0720   22.3630 C.3     6  A6          0.1773
    114  O4'       21.0200   -4.0510   21.9000 O.3     6  A6         -0.3307
    115  C3'       20.8310   -2.2370   23.3660 C.3     6  A6          0.1860
    116  O3'       19.9310   -1.5680   24.2520 O.3     6  A6         -0.3112
    117  C2'       21.6850   -3.3120   24.0380 C.3     6  A6          0.2309
    118  O2'       20.9830   -4.0930   24.9790 O.3     6  A6         -0.2156
    119  C1'       22.0540   -4.1960   22.8540 C.3     6  A6          0.2408
    120  N1        27.2130   -4.2460   23.1940 N.ar    6  A6         -0.2040
    121  C2        26.2630   -4.7620   23.9880 C.ar    6  A6          0.2016
    122  N3        24.9350   -4.7200   23.8470 N.ar    6  A6         -0.2048
    123  C4        24.5910   -4.0510   22.7370 C.ar    6  A6          0.1692
    124  C5        25.4520   -3.4700   21.8310 C.ar    6  A6          0.1518
    125  C6        26.8280   -3.5820   22.0870 C.ar    6  A6          0.1919
    126  N6        27.7540   -3.0640   21.2810 N.pl3   6  A6         -0.1054
    127  N7        24.7550   -2.8710   20.8030 N.ar    6  A6         -0.2193
    128  C8        23.5000   -3.0930   21.1080 C.ar    6  A6          0.1816
    129  N9        23.3270   -3.8030   22.2590 N.ar    6  A6         -0.2693
    130  OP1       19.0600   -0.3950   19.0240 O.3     6  A6         -0.4373
    131  OP2       21.5630   -0.6150   18.4960 O.co2   6  A6         -0.5172
    132  P         20.3470   -0.1580   24.8920 P.3     7  C7          0.2141
    133  C5'       21.1560   -1.2330   27.1450 C.3     7  C7          0.1812
    134  O5'       21.4840   -0.6090   25.9170 O.3     7  C7         -0.3114
    135  C4'       22.4250   -1.7230   27.8100 C.3     7  C7          0.1773
    136  O4'       23.1680   -2.5720   26.8910 O.3     7  C7         -0.3307
    137  C3'       23.4360   -0.6370   28.1530 C.3     7  C7          0.1860
    138  O3'       23.1160    0.0660   29.3310 O.3     7  C7         -0.3112
    139  C2'       24.7090   -1.4570   28.3010 C.3     7  C7          0.2309
    140  O2'       24.7330   -2.2250   29.4850 O.3     7  C7         -0.2156
    141  C1'       24.5660   -2.3380   27.0660 C.3     7  C7          0.2420
    142  N1        25.2170   -1.7130   25.8390 N.ar    7  C7         -0.2535
    143  C2        26.6060   -1.8110   25.6770 C.ar    7  C7          0.3532
    144  O2        27.2720   -2.4080   26.5250 O.2     7  C7         -0.2443
    145  N3        27.1990   -1.2610   24.5890 N.ar    7  C7         -0.1739
    146  C4        26.4580   -0.6300   23.6820 C.ar    7  C7          0.1759
    147  N4        27.0860   -0.1030   22.6300 N.pl3   7  C7         -0.1070
    148  C5        25.0460   -0.5110   23.8170 C.ar    7  C7          0.0566
    149  C6        24.4750   -1.0590   24.8940 C.ar    7  C7          0.0850
    150  OP1       19.1890    0.3840   25.6400 O.3     7  C7         -0.4373
    151  OP2       20.9950    0.6770   23.8590 O.co2   7  C7         -0.5172
    152  P         23.6770    1.5610   29.5030 P.3     8  G8          0.2141
    153  C5'       25.7760    0.7970   30.8520 C.3     8  G8          0.1812
    154  O5'       25.2570    1.3550   29.6600 O.3     8  G8         -0.3114
    155  C4'       27.2850    0.8870   30.8480 C.3     8  G8          0.1773
    156  O4'       27.8040    0.1950   29.6970 O.3     8  G8         -0.3307
    157  C3'       27.8450    2.2840   30.6950 C.3     8  G8          0.1860
    158  O3'       27.8290    2.9080   31.9570 O.3     8  G8         -0.3112
    159  C2'       29.2590    1.9760   30.2250 C.3     8  G8          0.2309
    160  O2'       30.1090    1.5270   31.2610 O.3     8  G8         -0.2156
    161  C1'       28.9960    0.8190   29.2810 C.3     8  G8          0.2408
    162  N1        31.4200    2.3320   25.0670 N.ar    8  G8         -0.1709
    163  C2        31.9260    2.0460   26.3160 C.ar    8  G8          0.2606
    164  N2        33.2470    2.1740   26.4880 N.pl3   8  G8         -0.0859
    165  N3        31.1900    1.6620   27.3460 N.ar    8  G8         -0.1918
    166  C4        29.8750    1.5830   27.0330 C.ar    8  G8          0.1723
    167  C5        29.2740    1.8370   25.8240 C.ar    8  G8          0.1748
    168  C6        30.0690    2.2500   24.7280 C.ar    8  G8          0.3023
    169  O6        29.6980    2.5320   23.5810 O.2     8  G8         -0.2633
    170  N7        27.9070    1.6330   25.9140 N.ar    8  G8         -0.2173
    171  C8        27.7080    1.2640   27.1480 C.ar    8  G8          0.1817
    172  N9        28.8590    1.2100   27.8840 N.ar    8  G8         -0.2693
    173  OP1       23.1050    2.0460   30.7790 O.3     8  G8         -0.4373
    174  OP2       23.4700    2.3310   28.2500 O.co2   8  G8         -0.5172
    175  P         27.8710    4.4990   32.0890 P.3     9  G9          0.2141
    176  C5'       29.8230    5.9010   30.9040 C.3     9  G9          0.1812
    177  O5'       29.4120    4.8390   31.7750 O.3     9  G9         -0.3114
    178  C4'       31.2520    5.6440   30.4490 C.3     9  G9          0.1773
    179  O4'       31.2920    4.5850   29.4630 O.3     9  G9         -0.3307
    180  C3'       31.9270    6.8170   29.7740 C.3     9  G9          0.1860
    181  O3'       32.6170    7.5560   30.7510 O.3     9  G9         -0.3112
    182  C2'       32.9070    6.1510   28.8150 C.3     9  G9          0.2309
    183  O2'       34.1170    5.7570   29.4300 O.3     9  G9         -0.2156
    184  C1'       32.1260    4.9270   28.3690 C.3     9  G9          0.2408
    185  N1        32.0060    6.1190   23.3600 N.ar    9  G9         -0.1709
    186  C2        33.0920    5.9940   24.1970 C.ar    9  G9          0.2606
    187  N2        34.2900    6.2060   23.6380 N.pl3   9  G9         -0.0859
    188  N3        33.0170    5.6750   25.4900 N.ar    9  G9         -0.1918
    189  C4        31.7330    5.4930   25.8970 C.ar    9  G9          0.1723
    190  C5        30.5850    5.6010   25.1340 C.ar    9  G9          0.1748
    191  C6        30.6810    5.9390   23.7560 C.ar    9  G9          0.3023
    192  O6        29.7630    6.0820   22.9310 O.2     9  G9         -0.2633
    193  N7        29.4640    5.3440   25.9060 N.ar    9  G9         -0.2173
    194  C8        29.9400    5.0870   27.0900 C.ar    9  G9          0.1817
    195  N9        31.3090    5.1590   27.1710 N.ar    9  G9         -0.2693
    196  OP1       27.5900    4.7370   33.5290 O.3     9  G9         -0.4373
    197  OP2       27.0210    5.1460   31.0490 O.co2   9  G9         -0.5172
    198  P         32.2940    9.0980   30.9690 P.3    10  A10         0.2141
    199  C5'       34.7690    9.5960   30.3710 C.3    10  A10         0.1812
    200  O5'       33.4040    9.8580   30.1150 O.3    10  A10        -0.3114
    201  C4'       35.6340    9.8960   29.1670 C.3    10  A10         0.1773
    202  O4'       35.2830    8.9970   28.0950 O.3    10  A10        -0.3307
    203  C3'       35.4590   11.2930   28.6060 C.3    10  A10         0.1860
    204  O3'       36.3500   12.1420   29.3070 O.3    10  A10        -0.3112
    205  C2'       35.8530   11.0890   27.1460 C.3    10  A10         0.2309
    206  O2'       37.2400   11.2430   26.9400 O.3    10  A10        -0.2156
    207  C1'       35.4530    9.6440   26.8590 C.3    10  A10         0.2408
    208  N1        33.1550    9.7560   22.2410 N.ar   10  A10        -0.2040
    209  C2        34.4300    9.9490   22.5990 C.ar   10  A10         0.2016
    210  N3        34.9600    9.9020   23.8210 N.ar   10  A10        -0.2048
    211  C4        34.0270    9.6240   24.7570 C.ar   10  A10         0.1692
    212  C5        32.6780    9.4030   24.5390 C.ar   10  A10         0.1518
    213  C6        32.2440    9.4770   23.2030 C.ar   10  A10         0.1919
    214  N6        30.9750    9.2800   22.8530 N.pl3  10  A10        -0.1054
    215  N7        32.0130    9.1460   25.7240 N.ar   10  A10        -0.2193
    216  C8        32.9630    9.2110   26.6270 C.ar   10  A10         0.1816
    217  N9        34.2020    9.5020   26.1180 N.ar   10  A10        -0.2693
    218  OP1       32.4920    9.3370   32.4150 O.3    10  A10        -0.4373
    219  OP2       31.0220    9.4400   30.3040 O.co2  10  A10        -0.5172
    220  P         36.0620   13.6860   29.6070 P.3    11  G11         0.2141
    221  C5'       37.5420   14.5280   27.6340 C.3    11  G11         0.1812
    222  O5'       36.2400   14.3770   28.1760 O.3    11  G11        -0.3114
    223  C4'       37.5450   14.8230   26.1420 C.3    11  G11         0.1773
    224  O4'       36.6160   13.9550   25.4520 O.3    11  G11        -0.3307
    225  C3'       37.1790   16.2550   25.7720 C.3    11  G11         0.1860
    226  O3'       38.2670   16.8790   25.0930 O.3    11  G11        -0.3112
    227  C2'       35.9590   16.0880   24.8760 C.3    11  G11         0.2309
    228  O2'       35.9560   16.9730   23.7770 O.3    11  G11        -0.2156
    229  C1'       36.1000   14.6730   24.3610 C.3    11  G11         0.2408
    230  N1        31.5330   12.7970   25.7520 N.ar   11  G11        -0.1709
    231  C2        32.5530   13.2570   26.5510 C.ar   11  G11         0.2606
    232  N2        32.3310   13.2210   27.8730 N.pl3  11  G11        -0.0859
    233  N3        33.7100   13.7260   26.0880 N.ar   11  G11        -0.1918
    234  C4        33.7740   13.6980   24.7350 C.ar   11  G11         0.1723
    235  C5        32.8160   13.2560   23.8580 C.ar   11  G11         0.1748
    236  C6        31.5950   12.7640   24.3620 C.ar   11  G11         0.3023
    237  O6        30.6430   12.3360   23.7110 O.2    11  G11        -0.2633
    238  N7        33.2360   13.3810   22.5480 N.ar   11  G11        -0.2173
    239  C8        34.4270   13.8890   22.6540 C.ar   11  G11         0.1817
    240  N9        34.8220   14.1090   23.9480 N.ar   11  G11        -0.2693
    241  OP1       37.1630   14.1050   30.5000 O.3    11  G11        -0.4373
    242  OP2       34.6550   13.9190   30.0140 O.co2  11  G11        -0.5172
    243  P         39.4170   17.6510   25.9050 P.3    12  G12         0.2141
    244  C5'       38.4130   19.9940   25.6050 C.3    12  G12         0.1812
    245  O5'       38.6840   18.9330   26.4700 O.3    12  G12        -0.3114
    246  C4'       37.2180   20.7410   26.1510 C.3    12  G12         0.1773
    247  O4'       36.2600   19.7600   26.6350 O.3    12  G12        -0.3307
    248  C3'       37.5160   21.6920   27.3070 C.3    12  G12         0.1860
    249  O3'       36.9310   22.9610   27.0310 O.3    12  G12        -0.3112
    250  C2'       36.9000   20.9810   28.5140 C.3    12  G12         0.2309
    251  O2'       36.4210   21.8640   29.5120 O.3    12  G12        -0.2156
    252  C1'       35.7280   20.2900   27.8320 C.3    12  G12         0.2408
    253  N1        32.1940   16.6560   27.6400 N.ar   12  G12        -0.1709
    254  C2        32.6490   17.4980   26.6540 C.ar   12  G12         0.2606
    255  N2        32.0830   17.3630   25.4520 N.pl3  12  G12        -0.0859
    256  N3        33.5910   18.4200   26.8220 N.ar   12  G12        -0.1918
    257  C4        34.0550   18.4260   28.0990 C.ar   12  G12         0.1723
    258  C5        33.6710   17.6270   29.1550 C.ar   12  G12         0.1748
    259  C6        32.6610   16.6550   28.9470 C.ar   12  G12         0.3023
    260  O6        32.1850   15.8460   29.7470 O.2    12  G12        -0.2633
    261  N7        34.3940   17.9490   30.2950 N.ar   12  G12        -0.2173
    262  C8        35.1790   18.9180   29.9150 C.ar   12  G12         0.1817
    263  N9        35.0320   19.2540   28.5910 N.ar   12  G12        -0.2693
    264  OP1       40.4680   18.0740   24.9560 O.2    12  G12        -0.5172
    265  OP2       39.7900   16.8500   27.0900 O.co2  12  G12        -0.4373
    266  P         37.8150   24.1680   26.4390 P.3    13  C13         0.2141
    267  C5'       37.2260   25.2000   28.7670 C.3    13  C13         0.1812
    268  O5'       37.5540   25.4020   27.4130 O.3    13  C13        -0.3114
    269  C4'       35.9250   25.9060   29.0910 C.3    13  C13         0.1773
    270  O4'       36.0480   27.3170   28.7740 O.3    13  C13        -0.3307
    271  C3'       34.6940   25.4170   28.3290 C.3    13  C13         0.1860
    272  O3'       33.6420   25.1300   29.2350 O.3    13  C13        -0.3112
    273  C2'       34.3040   26.5930   27.4430 C.3    13  C13         0.2309
    274  O2'       32.9070   26.6700   27.2400 O.3    13  C13        -0.2156
    275  C1'       34.7850   27.7390   28.3220 C.3    13  C13         0.2420
    276  N1        34.8940   29.0490   27.6340 N.ar   13  C13        -0.2535
    277  C2        33.9650   30.0390   27.9860 C.ar   13  C13         0.3532
    278  O2        33.1100   29.7780   28.8520 O.2    13  C13        -0.2443
    279  N3        34.0390   31.2530   27.3660 N.ar   13  C13        -0.1739
    280  C4        34.9750   31.4780   26.4390 C.ar   13  C13         0.1759
    281  N4        34.9880   32.6820   25.8700 N.pl3  13  C13        -0.1070
    282  C5        35.9300   30.4820   26.0620 C.ar   13  C13         0.0566
    283  C6        35.8550   29.2910   26.6810 C.ar   13  C13         0.0850
    284  OP1       37.2550   24.5210   25.1130 O.2    13  C13        -0.5172
    285  OP2       39.2430   23.8020   26.5630 O.co2  13  C13        -0.4373
    286  P         32.9850   23.6850   29.2100 P.3    14  G14         0.2141
    287  C5'       32.9570   23.2130   26.6050 C.3    14  G14         0.1812
    288  O5'       32.2650   23.6320   27.7770 O.3    14  G14        -0.3114
    289  C4'       32.0800   22.4480   25.6270 C.3    14  G14         0.1773
    290  O4'       32.2750   21.0100   25.7810 O.3    14  G14        -0.3307
    291  C3'       30.5880   22.6490   25.7770 C.3    14  G14         0.1860
    292  O3'       30.1960   23.7650   25.0200 O.3    14  G14        -0.3112
    293  C2'       30.0670   21.3390   25.2020 C.3    14  G14         0.2309
    294  O2'       30.2160   21.2640   23.8000 O.3    14  G14        -0.2156
    295  C1'       31.0200   20.3590   25.8630 C.3    14  G14         0.2408
    296  N1        27.7110   18.0770   29.0150 N.ar   14  G14        -0.1709
    297  C2        27.6930   18.1730   27.6440 C.ar   14  G14         0.2606
    298  N2        26.6660   17.5920   27.0100 N.pl3  14  G14        -0.0859
    299  N3        28.6290   18.7960   26.9360 N.ar   14  G14        -0.1918
    300  C4        29.6010   19.3370   27.7060 C.ar   14  G14         0.1723
    301  C5        29.7090   19.2990   29.0790 C.ar   14  G14         0.1748
    302  C6        28.7060   18.6300   29.8210 C.ar   14  G14         0.3023
    303  O6        28.6350   18.4920   31.0450 O.2    14  G14        -0.2633
    304  N7        30.8500   19.9670   29.5040 N.ar   14  G14        -0.2173
    305  C8        31.3990   20.3880   28.3940 C.ar   14  G14         0.1817
    306  N9        30.6960   20.0410   27.2570 N.ar   14  G14        -0.2693
    307  OP1       31.9100   23.6300   30.2240 O.3    14  G14        -0.4373
    308  OP2       34.0930   22.7070   29.2970 O.co2  14  G14        -0.5172
    309  P         28.8740   24.5590   25.4350 P.3    15  C15         0.2141
    310  C5'       27.4670   23.1240   23.6640 C.3    15  C15         0.1812
    311  O5'       27.7230   23.5270   25.0060 O.3    15  C15        -0.3114
    312  C4'       26.1960   22.3000   23.6370 C.3    15  C15         0.1773
    313  O4'       26.3960   21.0270   24.3210 O.3    15  C15        -0.3307
    314  C3'       24.9940   22.9170   24.3490 C.3    15  C15         0.1860
    315  O3'       24.3110   23.8570   23.5150 O.3    15  C15        -0.3112
    316  C2'       24.1710   21.6590   24.5910 C.3    15  C15         0.2309
    317  O2'       23.5790   21.2030   23.3900 O.3    15  C15        -0.2156
    318  C1'       25.2370   20.6700   25.0470 C.3    15  C15         0.2420
    319  N1        25.4880   20.7160   26.5300 N.ar   15  C15        -0.2535
    320  C2        24.6800   19.9820   27.4170 C.ar   15  C15         0.3532
    321  O2        23.7660   19.2870   26.9720 O.2    15  C15        -0.2443
    322  N3        24.9150   20.0410   28.7570 N.ar   15  C15        -0.1739
    323  C4        25.9130   20.8000   29.2290 C.ar   15  C15         0.1759
    324  N4        26.1310   20.8370   30.5500 N.pl3  15  C15        -0.1070
    325  C5        26.7480   21.5510   28.3490 C.ar   15  C15         0.0566
    326  C6        26.5020   21.4780   27.0350 C.ar   15  C15         0.0850
    327  OP1       28.7910   25.7820   24.6030 O.2    15  C15        -0.5172
    328  OP2       28.8290   24.6620   26.9130 O.co2  15  C15        -0.4373
    329  P         23.4660   25.0710   24.1390 P.3    16  G16         0.2141
    330  C5'       20.9940   24.2390   23.8990 C.3    16  G16         0.1812
    331  O5'       22.1580   24.3510   24.7000 O.3    16  G16        -0.3114
    332  C4'       20.0650   23.2080   24.4960 C.3    16  G16         0.1773
    333  O4'       20.8430   22.1430   25.0970 O.3    16  G16        -0.3307
    334  C3'       19.2130   23.7240   25.6370 C.3    16  G16         0.1860
    335  O3'       18.0410   24.3130   25.1540 O.3    16  G16        -0.3112
    336  C2'       18.8810   22.4160   26.3250 C.3    16  G16         0.2309
    337  O2'       17.9430   21.6510   25.6060 O.3    16  G16        -0.2156
    338  C1'       20.2400   21.7280   26.3060 C.3    16  G16         0.2408
    339  N1        20.6850   21.3770   31.3720 N.ar   16  G16        -0.1709
    340  C2        19.7000   20.9090   30.5350 C.ar   16  G16         0.2606
    341  N2        18.6960   20.2560   31.1220 N.pl3  16  G16        -0.0859
    342  N3        19.6980   21.0610   29.2190 N.ar   16  G16        -0.1918
    343  C4        20.7850   21.7470   28.7890 C.ar   16  G16         0.1723
    344  C5        21.8220   22.2620   29.5360 C.ar   16  G16         0.1748
    345  C6        21.8070   22.0790   30.9440 C.ar   16  G16         0.3023
    346  O6        22.6350   22.4580   31.7780 O.2    16  G16        -0.2633
    347  N7        22.7490   22.9000   28.7250 N.ar   16  G16        -0.2173
    348  C8        22.2550   22.7620   27.5240 C.ar   16  G16         0.1817
    349  N9        21.0670   22.0670   27.4800 N.ar   16  G16        -0.2693
    350  OP1       23.0960   25.9910   23.0370 O.2    16  G16        -0.5172
    351  OP2       24.2130   25.6180   25.2920 O.co2  16  G16        -0.4373
    352  P         17.5470   25.7550   25.6320 P.3    17  C17         0.2141
    353  C5'       15.4660   24.5630   26.5850 C.3    17  C17         0.1812
    354  O5'       16.5860   25.3760   26.8400 O.3    17  C17        -0.3114
    355  C4'       14.9870   23.9590   27.8820 C.3    17  C17         0.1773
    356  O4'       16.0240   23.0860   28.4020 O.3    17  C17        -0.3307
    357  C3'       14.7730   24.9490   29.0180 C.3    17  C17         0.1860
    358  O3'       13.5770   25.7080   28.8760 O.3    17  C17        -0.3112
    359  C2'       14.7740   23.9770   30.1960 C.3    17  C17         0.2309
    360  O2'       13.6120   23.1760   30.2910 O.3    17  C17        -0.2156
    361  C1'       15.9760   23.1030   29.8220 C.3    17  C17         0.2420
    362  N1        17.2840   23.6150   30.3770 N.ar   17  C17        -0.2535
    363  C2        17.5850   23.4700   31.7460 C.ar   17  C17         0.3532
    364  O2        16.7820   22.9140   32.5020 O.2    17  C17        -0.2443
    365  N3        18.7690   23.9490   32.2090 N.ar   17  C17        -0.1739
    366  C4        19.6250   24.5490   31.3750 C.ar   17  C17         0.1759
    367  N4        20.7760   25.0020   31.8710 N.pl3  17  C17        -0.1070
    368  C5        19.3390   24.7160   29.9860 C.ar   17  C17         0.0566
    369  C6        18.1710   24.2400   29.5390 C.ar   17  C17         0.0850
    370  OP1       16.7020   26.2900   24.5450 O.2    17  C17        -0.5172
    371  OP2       18.6730   26.5520   26.1590 O.co2  17  C17        -0.4373
    372  P         13.5620   27.2700   29.2550 P.3    18  C18         0.2141
    373  C5'       12.5590   26.6560   31.5180 C.3    18  C18         0.1812
    374  O5'       13.6860   27.1880   30.8460 O.3    18  C18        -0.3114
    375  C4'       12.8420   26.2690   32.9480 C.3    18  C18         0.1773
    376  O4'       14.0070   25.4060   33.0530 O.3    18  C18        -0.3307
    377  C3'       13.1690   27.4460   33.8440 C.3    18  C18         0.1860
    378  O3'       11.9970   28.1190   34.1970 O.3    18  C18        -0.3112
    379  C2'       13.8290   26.7390   35.0190 C.3    18  C18         0.2309
    380  O2'       12.9270   26.0380   35.8570 O.3    18  C18        -0.2156
    381  C1'       14.7120   25.7650   34.2380 C.3    18  C18         0.2420
    382  N1        16.0680   26.3240   33.8800 N.ar   18  C18        -0.2535
    383  C2        17.0290   26.5420   34.8830 C.ar   18  C18         0.3532
    384  O2        16.7480   26.2790   36.0570 O.2    18  C18        -0.2443
    385  N3        18.2490   27.0300   34.5320 N.ar   18  C18        -0.1739
    386  C4        18.5140   27.2950   33.2480 C.ar   18  C18         0.1759
    387  N4        19.7180   27.7720   32.9380 N.pl3  18  C18        -0.1070
    388  C5        17.5560   27.0930   32.2110 C.ar   18  C18         0.0566
    389  C6        16.3630   26.6080   32.5700 C.ar   18  C18         0.0850
    390  OP1       12.2280   27.7990   28.9150 O.3    18  C18        -0.4373
    391  OP2       14.7320   27.9790   28.6980 O.co2  18  C18        -0.5172
    392  P         12.0630   29.7030   34.3510 P.3    19  C19         0.2141
    393  C5'       12.0790   29.4150   36.9490 C.3    19  C19         0.1812
    394  O5'       12.7380   29.9150   35.7880 O.3    19  C19        -0.3114
    395  C4'       12.9100   29.5970   38.1990 C.3    19  C19         0.1773
    396  O4'       14.1870   28.9310   38.0820 O.3    19  C19        -0.3307
    397  C3'       13.2440   31.0420   38.4640 C.3    19  C19         0.1860
    398  O3'       12.1940   31.5630   39.2150 O.3    19  C19        -0.3112
    399  C2'       14.5500   30.9700   39.2520 C.3    19  C19         0.2309
    400  O2'       14.3760   30.9090   40.6580 O.3    19  C19        -0.2156
    401  C1'       15.1930   29.6990   38.7070 C.3    19  C19         0.2420
    402  N1        16.2820   29.9580   37.7060 N.ar   19  C19        -0.2535
    403  C2        17.5960   30.1910   38.1540 C.ar   19  C19         0.3532
    404  O2        17.8470   30.1860   39.3720 O.2    19  C19        -0.2443
    405  N3        18.5670   30.4120   37.2260 N.ar   19  C19        -0.1739
    406  C4        18.2770   30.4010   35.9240 C.ar   19  C19         0.1759
    407  N4        19.2730   30.6190   35.0680 N.pl3  19  C19        -0.1070
    408  C5        16.9540   30.1710   35.4450 C.ar   19  C19         0.0566
    409  C6        16.0030   29.9560   36.3630 C.ar   19  C19         0.0850
    410  OP1       10.6630   30.1780   34.3820 O.3    19  C19        -0.4373
    411  OP2       13.0100   30.2170   33.3440 O.co2  19  C19        -0.5172
    412  P         11.7850   33.0850   39.0240 P.3    20  G20         0.2141
    413  C5'       13.3590   34.2220   40.8050 C.3    20  G20         0.1812
    414  O5'       13.0990   33.8840   39.4550 O.3    20  G20        -0.3114
    415  C4'       14.7540   34.7860   40.8750 C.3    20  G20         0.1773
    416  O4'       15.6400   33.8820   40.1810 O.3    20  G20        -0.3307
    417  C3'       14.9200   36.1080   40.1560 C.3    20  G20         0.1860
    418  O3'       14.6410   37.1560   41.0570 O.3    20  G20        -0.3112
    419  C2'       16.3950   36.0820   39.7920 C.3    20  G20         0.2309
    420  O2'       17.2200   36.4310   40.8870 O.3    20  G20        -0.2156
    421  C1'       16.6170   34.6140   39.4600 C.3    20  G20         0.2408
    422  N1        19.1600   33.6930   35.1060 N.ar   20  G20        -0.1709
    423  C2        19.6620   34.0380   36.3460 C.ar   20  G20         0.2606
    424  N2        20.9910   34.1540   36.4620 N.pl3  20  G20        -0.0859
    425  N3        18.8980   34.2610   37.4100 N.ar   20  G20        -0.1918
    426  C4        17.5710   34.1060   37.1470 C.ar   20  G20         0.1723
    427  C5        16.9820   33.7590   35.9490 C.ar   20  G20         0.1748
    428  C6        17.7960   33.5280   34.8190 C.ar   20  G20         0.3023
    429  O6        17.4110   33.2240   33.6800 O.2    20  G20        -0.2633
    430  N7        15.6040   33.7030   36.0650 N.ar   20  G20        -0.2173
    431  C8        15.3880   34.0040   37.3170 C.ar   20  G20         0.1817
    432  N9        16.5290   34.2680   38.0380 N.ar   20  G20        -0.2693
    433  OP1       10.6860   33.3010   39.9900 O.3    20  G20        -0.4373
    434  OP2       11.5920   33.3850   37.5890 O.co2  20  G20        -0.5172
    435  P         13.2510   37.9330   40.9590 P.3    21  A21         0.2141
    436  C5'       13.6690   39.7100   42.9180 C.3    21  A21         0.1812
    437  O5'       13.5890   39.4030   41.5210 O.3    21  A21        -0.3114
    438  C4'       14.9230   40.4950   43.2830 C.3    21  A21         0.1773
    439  O4'       16.1060   39.6940   43.0140 O.3    21  A21        -0.3307
    440  C3'       15.2070   41.7780   42.5100 C.3    21  A21         0.1860
    441  O3'       14.4170   42.8840   42.9480 O.3    21  A21        -0.3112
    442  C2'       16.6970   41.9710   42.8100 C.3    21  A21         0.2309
    443  O2'       16.9870   42.5050   44.0890 O.3    21  A21        -0.2156
    444  C1'       17.2030   40.5370   42.7050 C.3    21  A21         0.2408
    445  N1        21.1070   40.7080   39.3350 N.ar   21  A21        -0.2040
    446  C2        21.0160   41.1220   40.6080 C.ar   21  A21         0.2016
    447  N3        19.9760   41.0510   41.4410 N.ar   21  A21        -0.2048
    448  C4        18.9220   40.4770   40.8350 C.ar   21  A21         0.1692
    449  C5        18.8680   40.0040   39.5330 C.ar   21  A21         0.1518
    450  C6        20.0280   40.1310   38.7590 C.ar   21  A21         0.1919
    451  N6        20.0810   39.7090   37.4960 N.pl3  21  A21        -0.1054
    452  N7        17.6310   39.4720   39.2360 N.ar   21  A21        -0.2193
    453  C8        16.9640   39.6310   40.3540 C.ar   21  A21         0.1816
    454  N9        17.6780   40.2240   41.3620 N.ar   21  A21        -0.2693
    455  OP1       12.2880   37.2330   41.8470 O.3    21  A21        -0.4373
    456  OP2       12.9760   38.0850   39.5050 O.co2  21  A21        -0.5172
    457  P         13.7000   43.8570   41.8890 P.3    22  G22         0.2141
    458  C5'       15.8440   45.3510   41.3440 C.3    22  G22         0.1812
    459  O5'       14.8720   44.3860   40.9300 O.3    22  G22        -0.3114
    460  C4'       17.1170   45.1750   40.5330 C.3    22  G22         0.1773
    461  O4'       17.3490   43.7700   40.2700 O.3    22  G22        -0.3307
    462  C3'       17.1080   45.7640   39.1300 C.3    22  G22         0.1860
    463  O3'       17.3160   47.1580   39.1660 O.3    22  G22        -0.3112
    464  C2'       18.2530   45.0040   38.4630 C.3    22  G22         0.2309
    465  O2'       19.5610   45.4080   38.8240 O.3    22  G22        -0.2156
    466  C1'       17.9850   43.6060   39.0100 C.3    22  G22         0.2408
    467  N1        17.7200   41.2200   34.5110 N.ar   22  G22        -0.1709
    468  C2        18.7590   41.9210   35.0730 C.ar   22  G22         0.2606
    469  N2        19.8790   42.0020   34.3480 N.pl3  22  G22        -0.0859
    470  N3        18.7100   42.5000   36.2620 N.ar   22  G22        -0.1918
    471  C4        17.5080   42.3260   36.8660 C.ar   22  G22         0.1723
    472  C5        16.4050   41.6500   36.3910 C.ar   22  G22         0.1748
    473  C6        16.4730   41.0320   35.1120 C.ar   22  G22         0.3023
    474  O6        15.5940   40.3790   34.5220 O.2    22  G22        -0.2633
    475  N7        15.3700   41.6970   37.3130 N.ar   22  G22        -0.2173
    476  C8        15.8490   42.3950   38.3090 C.ar   22  G22         0.1817
    477  N9        17.1460   42.8070   38.1090 N.ar   22  G22        -0.2693
    478  OP1       13.1390   44.9950   42.6460 O.3    22  G22        -0.4373
    479  OP2       12.8250   43.0050   41.0520 O.co2  22  G22        -0.5172
    480  P         16.3980   48.1140   38.2750 P.3    23  A23         0.2141
    481  C5'       18.6810   48.6670   37.1240 C.3    23  A23         0.1812
    482  O5'       17.2950   48.3680   36.9780 O.3    23  A23        -0.3114
    483  C4'       19.5020   48.2090   35.9360 C.3    23  A23         0.1773
    484  O4'       19.4800   46.7660   35.8710 O.3    23  A23        -0.3307
    485  C3'       18.9640   48.6270   34.5790 C.3    23  A23         0.1860
    486  O3'       19.3140   49.9570   34.2430 O.3    23  A23        -0.3112
    487  C2'       19.6310   47.6140   33.6630 C.3    23  A23         0.2309
    488  O2'       20.9760   47.9420   33.3770 O.3    23  A23        -0.2156
    489  C1'       19.5320   46.3620   34.5190 C.3    23  A23         0.2408
    490  N1        17.4040   43.0000   31.2810 N.ar   23  A23        -0.2040
    491  C2        18.5910   43.6270   31.2710 C.ar   23  A23         0.2016
    492  N3        19.0730   44.5030   32.1550 N.ar   23  A23        -0.2048
    493  C4        18.1920   44.7250   33.1530 C.ar   23  A23         0.1692
    494  C5        16.9390   44.1550   33.3000 C.ar   23  A23         0.1518
    495  C6        16.5450   43.2490   32.2920 C.ar   23  A23         0.1919
    496  N6        15.3700   42.6250   32.2840 N.pl3  23  A23        -0.1054
    497  N7        16.3200   44.6180   34.4460 N.ar   23  A23        -0.2193
    498  C8        17.2010   45.4500   34.9620 C.ar   23  A23         0.1816
    499  N9        18.3530   45.5570   34.2320 N.ar   23  A23        -0.2693
    500  OP1       16.2210   49.3770   39.0180 O.3    23  A23        -0.4373
    501  OP2       15.2190   47.3520   37.8140 O.co2  23  A23        -0.5172
    502  P         18.2880   50.7900   33.3400 P.3    24  U24         0.2141
    503  C5'       19.5090   50.0090   31.1780 C.3    24  U24         0.1812
    504  O5'       18.3380   49.9280   31.9950 O.3    24  U24        -0.3114
    505  C4'       19.4080   49.0580   30.0080 C.3    24  U24         0.1773
    506  O4'       19.1620   47.7140   30.4820 O.3    24  U24        -0.3307
    507  C3'       18.2430   49.3510   29.0770 C.3    24  U24         0.1860
    508  O3'       18.6170   50.3590   28.1610 O.3    24  U24        -0.3112
    509  C2'       18.0800   47.9970   28.4060 C.3    24  U24         0.2309
    510  O2'       19.0620   47.7590   27.4200 O.3    24  U24        -0.2156
    511  C1'       18.2810   47.0500   29.5860 C.3    24  U24         0.2420
    512  N1        16.9700   46.6690   30.2410 N.ar   24  U24        -0.2534
    513  C2        16.2290   45.6260   29.7150 C.ar   24  U24         0.3546
    514  O2        16.5770   44.9700   28.7510 O.2    24  U24        -0.2443
    515  N3        15.0450   45.3570   30.3660 N.ar   24  U24        -0.1530
    516  C4        14.5300   46.0190   31.4640 C.ar   24  U24         0.2846
    517  O4        13.4580   45.6660   31.9370 O.2    24  U24        -0.2650
    518  C5        15.3450   47.0970   31.9570 C.ar   24  U24         0.0814
    519  C6        16.5020   47.3750   31.3400 C.ar   24  U24         0.0870
    520  OP1       18.8410   52.1320   33.0460 O.2    24  U24        -0.5172
    521  OP2       16.9450   50.6790   33.9530 O.co2  24  U24        -0.4373
    522  P         17.5910   51.4910   27.7060 P.3    25  G25         0.2141
    523  C5'       16.2910   49.9910   25.9870 C.3    25  G25         0.1812
    524  O5'       16.3090   50.6410   27.2550 O.3    25  G25        -0.3114
    525  C4'       15.1930   48.9470   25.8580 C.3    25  G25         0.1773
    526  O4'       15.0290   48.1480   27.0550 O.3    25  G25        -0.3307
    527  C3'       13.8130   49.5140   25.5850 C.3    25  G25         0.1860
    528  O3'       13.7330   49.7900   24.2030 O.3    25  G25        -0.3112
    529  C2'       12.9260   48.3400   25.9880 C.3    25  G25         0.2309
    530  O2'       12.8470   47.3530   24.9770 O.3    25  G25        -0.2156
    531  C1'       13.6700   47.7800   27.1950 C.3    25  G25         0.2408
    532  N1        10.5520   47.0000   31.1780 N.ar   25  G25        -0.1709
    533  C2        10.7050   46.2400   30.0440 C.ar   25  G25         0.2606
    534  N2         9.9320   45.1530   29.9770 N.pl3  25  G25        -0.0859
    535  N3        11.5500   46.5360   29.0590 N.ar   25  G25        -0.1918
    536  C4        12.2450   47.6810   29.3030 C.ar   25  G25         0.1723
    537  C5        12.1590   48.5040   30.4070 C.ar   25  G25         0.1748
    538  C6        11.2560   48.1720   31.4420 C.ar   25  G25         0.3023
    539  O6        11.0430   48.7810   32.4950 O.2    25  G25        -0.2633
    540  N7        13.0260   49.5810   30.3000 N.ar   25  G25        -0.2173
    541  C8        13.6170   49.3910   29.1530 C.ar   25  G25         0.1817
    542  N9        13.1950   48.2590   28.4890 N.ar   25  G25        -0.2693
    543  OP1       18.2140   52.1620   26.5430 O.2    25  G25        -0.5172
    544  OP2       17.1800   52.2970   28.8760 O.co2  25  G25        -0.4373
    545  P         13.4370   51.2670   23.6880 P.3    26  A26         0.2141
    546  C5'       14.1490   53.6600   24.3710 C.3    26  A26         0.1812
    547  O5'       14.2810   52.2570   24.6090 O.3    26  A26        -0.3114
    548  C4'       13.7560   54.4110   25.6320 C.3    26  A26         0.1773
    549  O4'       12.4990   53.9250   26.1640 O.3    26  A26        -0.3307
    550  C3'       14.7540   54.3620   26.7860 C.3    26  A26         0.1860
    551  O3'       14.8320   55.6490   27.3560 O.3    26  A26        -0.3112
    552  C2'       14.0900   53.4240   27.7910 C.3    26  A26         0.2309
    553  O2'       14.4590   53.7140   29.1290 O.3    26  A26        -0.2156
    554  C1'       12.6180   53.7590   27.5620 C.3    26  A26         0.2408
    555  N1         9.7880   51.7620   31.4330 N.ar   26  A26        -0.2040
    556  C2        10.6120   52.8190   31.3830 C.ar   26  A26         0.2016
    557  N3        11.3190   53.2860   30.3480 N.ar   26  A26        -0.2048
    558  C4        11.1230   52.5460   29.2430 C.ar   26  A26         0.1692
    559  C5        10.3060   51.4340   29.1410 C.ar   26  A26         0.1518
    560  C6         9.6080   51.0350   30.3050 C.ar   26  A26         0.1919
    561  N6         8.7850   49.9810   30.3400 N.pl3  26  A26        -0.1054
    562  N7        10.3440   50.9180   27.8610 N.ar   26  A26        -0.2193
    563  C8        11.1710   51.7140   27.2280 C.ar   26  A26         0.1816
    564  N9        11.6790   52.7230   27.9950 N.ar   26  A26        -0.2693
    565  OP1       12.0030   51.5000   23.9660 O.3    26  A26        -0.4373
    566  OP2       13.9950   51.3990   22.3200 O.co2  26  A26        -0.5172
    567  P         15.9090   56.7460   26.9360 P.3    27  G27         0.2141
    568  C5'       14.5840   58.9780   27.5640 C.3    27  G27         0.1812
    569  O5'       15.5040   57.9320   27.9360 O.3    27  G27        -0.3114
    570  C4'       13.1280   58.5290   27.4260 C.3    27  G27         0.1773
    571  O4'       12.4810   58.3740   28.7260 O.3    27  G27        -0.3307
    572  C3'       12.2220   59.4960   26.6600 C.3    27  G27         0.1860
    573  O3'       11.2900   58.7370   25.8810 O.3    27  G27        -0.3112
    574  C2'       11.5440   60.2720   27.7920 C.3    27  G27         0.2309
    575  O2'       10.3640   60.9330   27.3830 O.3    27  G27        -0.2156
    576  C1'       11.2640   59.1080   28.7400 C.3    27  G27         0.2408
    577  N1         8.5480   57.7030   32.8460 N.ar   27  G27        -0.1709
    578  C2         8.6360   57.0990   31.6100 C.ar   27  G27         0.2606
    579  N2         7.9130   55.9830   31.4340 N.pl3  27  G27        -0.0859
    580  N3         9.3860   57.5680   30.6110 N.ar   27  G27        -0.1918
    581  C4        10.0560   58.7070   30.9410 C.ar   27  G27         0.1723
    582  C5        10.0330   59.3750   32.1460 C.ar   27  G27         0.1748
    583  C6         9.2300   58.8670   33.2030 C.ar   27  G27         0.3023
    584  O6         9.0840   59.3280   34.3420 O.2    27  G27        -0.2633
    585  N7        10.8540   60.4910   32.0980 N.ar   27  G27        -0.2173
    586  C8        11.3440   60.4780   30.8920 C.ar   27  G27         0.1817
    587  N9        10.9040   59.4280   30.1260 N.ar   27  G27        -0.2693
    588  OP1       15.6340   57.1990   25.5510 O.2    27  G27        -0.5172
    589  OP2       17.2410   56.2110   27.2940 O.co2  27  G27        -0.4373
    590  P         10.5150   59.3840   24.6440 P.3    28  U28         0.2141
    591  C5'       11.0660   57.5040   22.9100 C.3    28  U28         0.1812
    592  O5'       10.1220   58.0820   23.8020 O.3    28  U28        -0.3114
    593  C4'       10.7160   56.0740   22.5520 C.3    28  U28         0.1773
    594  O4'       11.0920   55.2070   23.6440 O.3    28  U28        -0.3307
    595  C3'        9.2440   55.7700   22.3400 C.3    28  U28         0.1860
    596  O3'        8.8790   56.0750   21.0150 O.3    28  U28        -0.3112
    597  C2'        9.2070   54.2710   22.5750 C.3    28  U28         0.2309
    598  O2'        9.7020   53.5340   21.4730 O.3    28  U28        -0.2156
    599  C1'       10.1560   54.1490   23.7630 C.3    28  U28         0.2420
    600  N1         9.5090   54.1800   25.1390 N.ar   28  U28        -0.2534
    601  C2         8.6820   53.1380   25.5410 C.ar   28  U28         0.3546
    602  O2         8.4110   52.1710   24.8520 O.2    28  U28        -0.2443
    603  N3         8.1670   53.2670   26.8080 N.ar   28  U28        -0.1530
    604  C4         8.3860   54.3050   27.6990 C.ar   28  U28         0.2846
    605  O4         7.8490   54.2780   28.8000 O.2    28  U28        -0.2650
    606  C5         9.2550   55.3500   27.2210 C.ar   28  U28         0.0814
    607  C6         9.7670   55.2500   25.9870 C.ar   28  U28         0.0870
    608  OP1       11.4920   60.1810   23.8720 O.2    28  U28        -0.5172
    609  OP2        9.2650   59.9920   25.1550 O.co2  28  U28        -0.4373
    610  P          7.3920   56.5430   20.6690 P.3    29  A29         0.2141
    611  C5'        6.5440   54.1650   19.8680 C.3    29  A29         0.1812
    612  O5'        6.5670   55.1790   20.8680 O.3    29  A29        -0.3114
    613  C4'        5.6840   52.9930   20.3130 C.3    29  A29         0.1773
    614  O4'        6.1670   52.4990   21.5860 O.3    29  A29        -0.3307
    615  C3'        4.2190   53.3080   20.5910 C.3    29  A29         0.1860
    616  O3'        3.4260   53.2480   19.4150 O.3    29  A29        -0.3112
    617  C2'        3.8180   52.2220   21.5830 C.3    29  A29         0.2309
    618  O2'        3.5460   50.9800   20.9660 O.3    29  A29        -0.2156
    619  C1'        5.0790   52.1430   22.4300 C.3    29  A29         0.2408
    620  N1         3.1280   52.9810   27.1570 N.ar   29  A29        -0.2040
    621  C2         2.9070   52.0050   26.2600 C.ar   29  A29         0.2016
    622  N3         3.4490   51.8410   25.0460 N.ar   29  A29        -0.2048
    623  C4         4.3140   52.8350   24.7620 C.ar   29  A29         0.1692
    624  C5         4.6400   53.9000   25.5820 C.ar   29  A29         0.1518
    625  C6         4.0070   53.9590   26.8400 C.ar   29  A29         0.1919
    626  N6         4.2350   54.9370   27.7190 N.pl3  29  A29        -0.1054
    627  N7         5.5640   54.7240   24.9710 N.ar   29  A29        -0.2193
    628  C8         5.7760   54.1530   23.8110 C.ar   29  A29         0.1816
    629  N9         5.0540   53.0100   23.6140 N.ar   29  A29        -0.2693
    630  OP1        7.3940   56.9360   19.2420 O.2    29  A29        -0.5172
    631  OP2        6.9390   57.5340   21.6780 O.co2  29  A29        -0.4373
    632  P          2.3360   54.3920   19.1760 P.3    30  G30         0.2141
    633  C5'        0.4970   53.0990   20.5660 C.3    30  G30         0.1812
    634  O5'        1.3570   54.2360   20.4350 O.3    30  G30        -0.3114
    635  C4'       -0.0550   52.9930   21.9810 C.3    30  G30         0.1773
    636  O4'        1.0110   53.0260   22.9690 O.3    30  G30        -0.3307
    637  C3'       -0.9510   54.1370   22.4410 C.3    30  G30         0.1860
    638  O3'       -2.2430   54.0740   21.8550 O.3    30  G30        -0.3112
    639  C2'       -0.9530   53.8950   23.9490 C.3    30  G30         0.2309
    640  O2'       -1.6940   52.7510   24.3450 O.3    30  G30        -0.2156
    641  C1'        0.5360   53.6420   24.1610 C.3    30  G30         0.2408
    642  N1         1.6500   57.3480   27.5280 N.ar   30  G30        -0.1709
    643  C2         0.7780   56.2870   27.6660 C.ar   30  G30         0.2606
    644  N2         0.1210   56.1910   28.8330 N.pl3  30  G30        -0.0859
    645  N3         0.5650   55.3780   26.7160 N.ar   30  G30        -0.1918
    646  C4         1.3020   55.6130   25.5970 C.ar   30  G30         0.1723
    647  C5         2.1950   56.6420   25.3720 C.ar   30  G30         0.1748
    648  C6         2.4160   57.6090   26.3870 C.ar   30  G30         0.3023
    649  O6         3.1750   58.5920   26.3510 O.2    30  G30        -0.2633
    650  N7         2.7540   56.5410   24.1090 N.ar   30  G30        -0.2173
    651  C8         2.2010   55.4760   23.6010 C.ar   30  G30         0.1817
    652  N9         1.3100   54.8560   24.4420 N.ar   30  G30        -0.2693
    653  OP1        1.6070   54.0240   17.9410 O.2    30  G30        -0.5172
    654  OP2        3.0010   55.7150   19.2670 O.co2  30  G30        -0.4373
    655  P         -3.0120   55.4300   21.4910 P.3    31  G31         0.2141
    656  C5'       -4.4610   55.2750   23.6810 C.3    31  G31         0.1812
    657  O5'       -3.4800   55.9710   22.9220 O.3    31  G31        -0.3114
    658  C4'       -4.7920   56.0640   24.9290 C.3    31  G31         0.1773
    659  O4'       -3.6440   56.0710   25.8110 O.3    31  G31        -0.3307
    660  C3'       -5.0690   57.5320   24.6720 C.3    31  G31         0.1860
    661  O3'       -6.4140   57.7370   24.2320 O.3    31  G31        -0.3112
    662  C2'       -4.7430   58.1480   26.0330 C.3    31  G31         0.2309
    663  O2'       -5.7540   58.0160   27.0160 O.3    31  G31        -0.2156
    664  C1'       -3.5040   57.3440   26.4150 C.3    31  G31         0.2408
    665  N1        -0.2440   61.1810   27.1820 N.ar   31  G31        -0.1709
    666  C2        -1.3660   60.8340   27.9010 C.ar   31  G31         0.2606
    667  N2        -1.6630   61.6070   28.9600 N.pl3  31  G31        -0.0859
    668  N3        -2.1380   59.7940   27.5970 N.ar   31  G31        -0.1918
    669  C4        -1.6990   59.1210   26.5000 C.ar   31  G31         0.1723
    670  C5        -0.5970   59.3910   25.7180 C.ar   31  G31         0.1748
    671  C6         0.2210   60.5030   26.0560 C.ar   31  G31         0.3023
    672  O6         1.2420   60.9090   25.4890 O.2    31  G31        -0.2633
    673  N7        -0.4890   58.4660   24.6840 N.ar   31  G31        -0.2173
    674  C8        -1.5080   57.6720   24.8560 C.ar   31  G31         0.1817
    675  N9        -2.2860   58.0050   25.9420 N.ar   31  G31        -0.2693
    676  OP1       -4.1960   55.0560   20.6820 O.2    31  G31        -0.5172
    677  OP2       -2.0420   56.4140   20.9560 O.co2  31  G31        -0.4373
    678  P         -6.7280   58.8110   23.0780 P.3    32  C32         0.2141
    679  C5'       -7.6160   60.3900   24.9960 C.3    32  C32         0.1812
    680  O5'       -6.7620   60.2070   23.8710 O.3    32  C32        -0.3114
    681  C4'       -7.1980   61.5930   25.8240 C.3    32  C32         0.1773
    682  O4'       -5.9110   61.3440   26.4480 O.3    32  C32        -0.3307
    683  C3'       -6.9610   62.8870   25.0540 C.3    32  C32         0.1860
    684  O3'       -8.1680   63.5620   24.6980 O.3    32  C32        -0.3112
    685  C2'       -6.1230   63.6630   26.0650 C.3    32  C32         0.2309
    686  O2'       -6.8590   64.1920   27.1560 O.3    32  C32        -0.2156
    687  C1'       -5.1690   62.5550   26.5020 C.3    32  C32         0.2420
    688  N1        -3.9590   62.4850   25.6010 N.ar   32  C32        -0.2535
    689  C2        -2.9160   63.4240   25.7430 C.ar   32  C32         0.3532
    690  O2        -2.9860   64.3000   26.6180 O.2    32  C32        -0.2443
    691  N3        -1.8420   63.3430   24.9100 N.ar   32  C32        -0.1739
    692  C4        -1.7820   62.3860   23.9740 C.ar   32  C32         0.1759
    693  N4        -0.7100   62.3460   23.1820 N.pl3  32  C32        -0.1070
    694  C5        -2.8220   61.4240   23.8050 C.ar   32  C32         0.0566
    695  C6        -3.8750   61.5150   24.6290 C.ar   32  C32         0.0850
    696  OP1       -8.0700   58.5240   22.5220 O.3    32  C32        -0.4373
    697  OP2       -5.5680   58.8290   22.1580 O.co2  32  C32        -0.5172
    698  P         -8.3630   64.1010   23.1940 P.3    33  U33         0.2141
    699  C5'       -7.4680   66.4890   23.9730 C.3    33  U33         0.1812
    700  O5'       -7.3700   65.3630   23.0930 O.3    33  U33        -0.3114
    701  C4'       -6.1790   67.2990   24.0020 C.3    33  U33         0.1773
    702  O4'       -5.0540   66.4340   24.2890 O.3    33  U33        -0.3307
    703  C3'       -5.7780   67.9710   22.6960 C.3    33  U33         0.1860
    704  O3'       -6.4620   69.2110   22.5000 O.3    33  U33        -0.3112
    705  C2'       -4.2760   68.1670   22.8980 C.3    33  U33         0.2309
    706  O2'       -3.9320   69.2560   23.7330 O.3    33  U33        -0.2156
    707  C1'       -3.9020   66.8610   23.5770 C.3    33  U33         0.2420
    708  N1        -3.4180   65.8310   22.5820 N.ar   33  U33        -0.2534
    709  C2        -2.1070   65.9050   22.1360 C.ar   33  U33         0.3546
    710  O2        -1.3140   66.7560   22.5040 O.2    33  U33        -0.2443
    711  N3        -1.7530   64.9340   21.2280 N.ar   33  U33        -0.1530
    712  C4        -2.5570   63.9220   20.7300 C.ar   33  U33         0.2846
    713  O4        -2.0970   63.1300   19.9210 O.2    33  U33        -0.2650
    714  C5        -3.9080   63.9010   21.2340 C.ar   33  U33         0.0814
    715  C6        -4.2730   64.8380   22.1200 C.ar   33  U33         0.0870
    716  OP1       -9.7560   64.5930   23.0630 O.3    33  U33        -0.4373
    717  OP2       -7.8590   63.0410   22.2810 O.co2  33  U33        -0.5172
    718  P         -6.5620   69.8470   21.0300 P.3    34  G34         0.2141
    719  C5'       -5.1210   71.9870   21.6790 C.3    34  G34         0.1812
    720  O5'       -5.2450   70.7580   20.9520 O.3    34  G34        -0.3114
    721  C4'       -3.8880   72.7490   21.2240 C.3    34  G34         0.1773
    722  O4'       -2.7020   72.0270   21.6460 O.3    34  G34        -0.3307
    723  C3'       -3.7460   72.8970   19.7120 C.3    34  G34         0.1860
    724  O3'       -4.3650   74.0950   19.2660 O.3    34  G34        -0.3112
    725  C2'       -2.2340   72.9370   19.5170 C.3    34  G34         0.2309
    726  O2'       -1.6840   74.2260   19.6990 O.3    34  G34        -0.2156
    727  C1'       -1.7400   71.9860   20.6030 C.3    34  G34         0.2408
    728  N1         1.1650   68.7930   17.8490 N.ar   34  G34        -0.1709
    729  C2         1.3580   70.1250   18.1290 C.ar   34  G34         0.2606
    730  N2         2.4600   70.6780   17.6120 N.pl3  34  G34        -0.0859
    731  N3         0.5310   70.8630   18.8630 N.ar   34  G34        -0.1918
    732  C4        -0.5340   70.1490   19.3110 C.ar   34  G34         0.1723
    733  C5        -0.8160   68.8180   19.0830 C.ar   34  G34         0.1748
    734  C6         0.0780   68.0460   18.2990 C.ar   34  G34         0.3023
    735  O6        -0.0090   66.8490   17.9940 O.2    34  G34        -0.2633
    736  N7        -2.0000   68.4510   19.7050 N.ar   34  G34        -0.2173
    737  C8        -2.4020   69.5460   20.2860 C.ar   34  G34         0.1817
    738  N9        -1.5650   70.6200   20.0980 N.ar   34  G34        -0.2693
    739  OP1       -7.7600   70.7180   21.0020 O.3    34  G34        -0.4373
    740  OP2       -6.4210   68.7590   20.0300 O.co2  34  G34        -0.5172
    741  P         -5.0410   74.1910   17.8170 P.3    35  U35         0.2141
    742  C5'       -3.1370   75.6530   16.7720 C.3    35  U35         0.1812
    743  O5'       -3.7880   74.3900   16.8520 O.3    35  U35        -0.3114
    744  C4'       -1.8370   75.5240   16.0070 C.3    35  U35         0.1773
    745  O4'       -1.0390   74.4880   16.6400 O.3    35  U35        -0.3307
    746  C3'       -1.9630   75.0320   14.5690 C.3    35  U35         0.1860
    747  O3'       -2.3350   76.0590   13.6390 O.3    35  U35        -0.3112
    748  C2'       -0.5470   74.5190   14.3390 C.3    35  U35         0.2309
    749  O2'        0.3800   75.5650   14.1010 O.3    35  U35        -0.2156
    750  C1'       -0.2610   73.8090   15.6630 C.3    35  U35         0.2420
    751  N1        -0.5420   72.3110   15.6400 N.ar   35  U35        -0.2534
    752  C2         0.3870   71.4570   15.0620 C.ar   35  U35         0.3546
    753  O2         1.4340   71.8280   14.5650 O.2    35  U35        -0.2443
    754  N3         0.0560   70.1220   15.0790 N.ar   35  U35        -0.1530
    755  C4        -1.0910   69.5570   15.6050 C.ar   35  U35         0.2846
    756  O4        -1.2410   68.3410   15.5410 O.2    35  U35        -0.2650
    757  C5        -2.0200   70.4970   16.1870 C.ar   35  U35         0.0814
    758  C6        -1.7150   71.8040   16.1810 C.ar   35  U35         0.0870
    759  OP1       -5.8580   75.4270   17.8120 O.3    35  U35        -0.4373
    760  OP2       -5.6590   72.8910   17.4720 O.co2  35  U35        -0.5172
    761  P         -3.1340   75.6780   12.2930 P.3    36  C36         0.2141
    762  C5'       -0.8440   75.5440   10.9750 C.3    36  C36         0.1812
    763  O5'       -2.0460   74.9080   11.4070 O.3    36  C36        -0.3114
    764  C4'        0.1740   74.5030   10.5620 C.3    36  C36         0.1773
    765  O4'        0.3770   73.5440   11.6280 O.3    36  C36        -0.3307
    766  C3'       -0.2890   73.6350    9.4120 C.3    36  C36         0.1860
    767  O3'       -0.0740   74.3120    8.1950 O.3    36  C36        -0.3112
    768  C2'        0.5890   72.4020    9.5740 C.3    36  C36         0.2309
    769  O2'        1.9010   72.5690    9.0740 O.3    36  C36        -0.2156
    770  C1'        0.6200   72.2530   11.0900 C.3    36  C36         0.2420
    771  N1        -0.3850   71.2450   11.5990 N.ar   36  C36        -0.2535
    772  C2        -0.1190   69.8650   11.4920 C.ar   36  C36         0.3532
    773  O2         0.9380   69.4830   10.9800 O.2    36  C36        -0.2443
    774  N3        -1.0340   68.9690   11.9540 N.ar   36  C36        -0.1739
    775  C4        -2.1770   69.4000   12.5000 C.ar   36  C36         0.1759
    776  N4        -3.0500   68.4900   12.9430 N.pl3  36  C36        -0.1070
    777  C5        -2.4720   70.7940   12.6220 C.ar   36  C36         0.0566
    778  C6        -1.5620   71.6680   12.1630 C.ar   36  C36         0.0850
    779  OP1       -3.5150   76.9380   11.6130 O.2    36  C36        -0.5172
    780  OP2       -4.1720   74.6790   12.6340 O.co2  36  C36        -0.4373
    781  P         -1.0660   74.0570    6.9670 P.3    37  C37         0.2141
    782  C5'        0.8200   72.4990    6.0050 C.3    37  C37         0.1812
    783  O5'       -0.5440   72.6430    6.4150 O.3    37  C37        -0.3114
    784  C4'        1.2550   71.0490    5.8830 C.3    37  C37         0.1773
    785  O4'        1.1580   70.3290    7.1390 O.3    37  C37        -0.3307
    786  C3'        0.3940   70.1960    4.9770 C.3    37  C37         0.1860
    787  O3'        0.6040   70.5210    3.6230 O.3    37  C37        -0.3112
    788  C2'        0.8970   68.8080    5.3510 C.3    37  C37         0.2309
    789  O2'        2.1920   68.5150    4.8600 O.3    37  C37        -0.2156
    790  C1'        0.9160   68.9520    6.8690 C.3    37  C37         0.2420
    791  N1        -0.3640   68.4810    7.5320 N.ar   37  C37        -0.2535
    792  C2        -0.6540   67.1060    7.6080 C.ar   37  C37         0.3532
    793  O2         0.1400   66.2850    7.1370 O.2    37  C37        -0.2443
    794  N3        -1.7990   66.7010    8.2140 N.ar   37  C37        -0.1739
    795  C4        -2.6440   67.6040    8.7170 C.ar   37  C37         0.1759
    796  N4        -3.7600   67.1600    9.2980 N.pl3  37  C37        -0.1070
    797  C5        -2.3850   69.0070    8.6480 C.ar   37  C37         0.0566
    798  C6        -1.2480   69.3930    8.0550 C.ar   37  C37         0.0850
    799  OP1       -0.8110   75.1240    5.9690 O.2    37  C37        -0.5172
    800  OP2       -2.4440   73.8760    7.4830 O.co2  37  C37        -0.4373
    801  P         -0.6230   70.3320    2.6200 P.3    38  C38         0.2141
    802  C5'        0.4680   67.9930    1.9920 C.3    38  C38         0.1812
    803  O5'       -0.6680   68.7380    2.4510 O.3    38  C38        -0.3114
    804  C4'        0.1490   66.5100    1.9710 C.3    38  C38         0.1773
    805  O4'       -0.1900   66.0800    3.3090 O.3    38  C38        -0.3307
    806  C3'       -1.0620   66.1500    1.1220 C.3    38  C38         0.1860
    807  O3'       -0.6760   65.8750   -0.2250 O.3    38  C38        -0.3112
    808  C2'       -1.6360   64.9170    1.8070 C.3    38  C38         0.2309
    809  O2'       -1.2200   63.7180    1.1810 O.3    38  C38        -0.2156
    810  C1'       -1.1150   65.0100    3.2430 C.3    38  C38         0.2420
    811  N1        -2.2250   65.2380    4.2240 N.ar   38  C38        -0.2535
    812  C2        -2.9470   64.1460    4.7360 C.ar   38  C38         0.3532
    813  O2        -2.6610   62.9940    4.3880 O.2    38  C38        -0.2443
    814  N3        -3.9510   64.3770    5.6180 N.ar   38  C38        -0.1739
    815  C4        -4.2460   65.6260    5.9830 C.ar   38  C38         0.1759
    816  N4        -5.2450   65.7960    6.8500 N.pl3  38  C38        -0.1070
    817  C5        -3.5330   66.7530    5.4710 C.ar   38  C38         0.0566
    818  C6        -2.5420   66.5150    4.6040 C.ar   38  C38         0.0850
    819  OP1       -0.2610   70.9650    1.3360 O.2    38  C38        -0.5172
    820  OP2       -1.8680   70.7510    3.3020 O.co2  38  C38        -0.4373
    821  P         -1.6080   66.3320   -1.4490 P.3    39  A39         0.2141
    822  C5'       -3.3120   64.3000   -1.2910 C.3    39  A39         0.1812
    823  O5'       -3.0220   65.6830   -1.0840 O.3    39  A39        -0.3114
    824  C4'       -4.7860   64.0800   -1.0130 C.3    39  A39         0.1773
    825  O4'       -5.1030   64.5380    0.3280 O.3    39  A39        -0.3307
    826  C3'       -5.7180   64.8330   -1.9620 C.3    39  A39         0.1860
    827  O3'       -6.7300   63.9400   -2.4170 O.3    39  A39        -0.3112
    828  C2'       -6.2660   65.9960   -1.1320 C.3    39  A39         0.2309
    829  O2'       -7.5990   66.3360   -1.4640 O.3    39  A39        -0.2156
    830  C1'       -6.1770   65.4610    0.2990 C.3    39  A39         0.2408
    831  N1        -7.5390   67.4140    4.9080 N.ar   39  A39        -0.2040
    832  C2        -8.0070   66.3640    4.2130 C.ar   39  A39         0.2016
    833  N3        -7.6080   65.9090    3.0200 N.ar   39  A39        -0.2048
    834  C4        -6.6020   66.6570    2.5160 C.ar   39  A39         0.1692
    835  C5        -6.0200   67.7650    3.1170 C.ar   39  A39         0.1518
    836  C6        -6.5300   68.1500    4.3820 C.ar   39  A39         0.1919
    837  N6        -6.0650   69.1960    5.0760 N.pl3  39  A39        -0.1054
    838  N7        -5.0140   68.2840    2.3170 N.ar   39  A39        -0.2193
    839  C8        -5.0070   67.4960    1.2670 C.ar   39  A39         0.1816
    840  N9        -5.9380   66.4920    1.3150 N.ar   39  A39        -0.2693
    841  OP1       -1.0950   65.6650   -2.6680 O.2    39  A39        -0.5172
    842  OP2       -1.7550   67.8080   -1.4220 O.co2  39  A39        -0.4373
    843  P         -6.6070   63.2500   -3.8560 P.3    40  U40         0.2141
    844  C5'       -5.9820   60.7770   -3.2160 C.3    40  U40         0.1812
    845  O5'       -6.9850   61.7220   -3.5820 O.3    40  U40        -0.3114
    846  C4'       -6.4900   59.8500   -2.1230 C.3    40  U40         0.1773
    847  O4'       -6.9470   60.6250   -0.9810 O.3    40  U40        -0.3307
    848  C3'       -7.6610   58.9500   -2.5220 C.3    40  U40         0.1860
    849  O3'       -7.4740   57.6430   -1.9570 O.3    40  U40        -0.3112
    850  C2'       -8.8570   59.6990   -1.9210 C.3    40  U40         0.2309
    851  O2'       -9.9980   58.8890   -1.7190 O.3    40  U40        -0.2156
    852  C1'       -8.2250   60.1430   -0.6020 C.3    40  U40         0.2420
    853  N1        -8.9660   61.1790    0.2120 N.ar   40  U40        -0.2534
    854  C2        -9.8310   60.7630    1.2160 C.ar   40  U40         0.3546
    855  O2       -10.0450   59.5920    1.4820 O.2    40  U40        -0.2443
    856  N3       -10.4500   61.7770    1.9130 N.ar   40  U40        -0.1530
    857  C4       -10.2970   63.1400    1.7150 C.ar   40  U40         0.2846
    858  O4       -10.9200   63.9350    2.4160 O.2    40  U40        -0.2650
    859  C5        -9.3800   63.4980    0.6580 C.ar   40  U40         0.0814
    860  C6        -8.7620   62.5280   -0.0340 C.ar   40  U40         0.0870
    861  OP1       -5.1920   63.3130   -4.2950 O.3    40  U40        -0.4373
    862  OP2       -7.6720   63.8400   -4.7010 O.co2  40  U40        -0.5172
    863  P         -6.6180   56.5010   -2.6950 P.3    41  C41         0.2141
    864  C5'       -5.8900   56.0340   -0.1950 C.3    41  C41         0.1812
    865  O5'       -5.5930   55.9700   -1.5860 O.3    41  C41        -0.3114
    866  C4'       -4.8780   56.9170    0.5090 C.3    41  C41         0.1773
    867  O4'       -5.4650   58.2050    0.7490 O.3    41  C41        -0.3307
    868  C3'       -4.4840   56.4730    1.9060 C.3    41  C41         0.1860
    869  O3'       -3.3420   55.6060    1.8250 O.3    41  C41        -0.3112
    870  C2'       -4.2370   57.7650    2.7000 C.3    41  C41         0.2309
    871  O2'       -2.8850   57.9630    3.0650 O.3    41  C41        -0.2156
    872  C1'       -4.6810   58.8500    1.7250 C.3    41  C41         0.2420
    873  N1        -5.5120   59.9530    2.2940 N.ar   41  C41        -0.2535
    874  C2        -6.7650   59.7150    2.8960 C.ar   41  C41         0.3532
    875  O2        -7.2180   58.5640    2.9890 O.2    41  C41        -0.2443
    876  N3        -7.4650   60.7770    3.3800 N.ar   41  C41        -0.1739
    877  C4        -6.9780   62.0180    3.2760 C.ar   41  C41         0.1759
    878  N4        -7.7100   63.0220    3.7680 N.pl3  41  C41        -0.1070
    879  C5        -5.7150   62.2790    2.6630 C.ar   41  C41         0.0566
    880  C6        -5.0300   61.2290    2.1910 C.ar   41  C41         0.0850
    881  OP1       -5.8230   57.1360   -3.7700 O.2    41  C41        -0.5172
    882  OP2       -7.5450   55.4010   -3.0270 O.co2  41  C41        -0.4373
    883  P         -3.4260   54.1600    2.5060 P.3    42  A42         0.2141
    884  C5'       -2.5770   54.9200    4.8660 C.3    42  A42         0.1812
    885  O5'       -3.6740   54.5730    4.0320 O.3    42  A42        -0.3114
    886  C4'       -2.5760   54.0170    6.0870 C.3    42  A42         0.1773
    887  O4'       -3.8720   54.1160    6.7250 O.3    42  A42        -0.3307
    888  C3'       -2.3490   52.5220    5.8220 C.3    42  A42         0.1860
    889  O3'       -1.2630   52.0100    6.6190 O.3    42  A42        -0.3112
    890  C2'       -3.6800   51.8720    6.2020 C.3    42  A42         0.2309
    891  O2'       -3.5020   50.5740    6.7370 O.3    42  A42        -0.2156
    892  C1'       -4.1790   52.8530    7.2620 C.3    42  A42         0.2408
    893  N1        -7.8030   52.6890   10.9440 N.ar   42  A42        -0.2040
    894  C2        -6.4640   52.7020   11.0080 C.ar   42  A42         0.2016
    895  N3        -5.5750   52.7420   10.0070 N.ar   42  A42        -0.2048
    896  C4        -6.1870   52.7830    8.8070 C.ar   42  A42         0.1692
    897  C5        -7.5520   52.7790    8.5790 C.ar   42  A42         0.1518
    898  C6        -8.3800   52.7250    9.7200 C.ar   42  A42         0.1919
    899  N6        -9.7090   52.7120    9.6290 N.pl3  42  A42        -0.1054
    900  N7        -7.8310   52.8260    7.2200 N.ar   42  A42        -0.2193
    901  C8        -6.6450   52.8580    6.6610 C.ar   42  A42         0.1816
    902  N9        -5.6090   52.8270    7.5570 N.ar   42  A42        -0.2693
    903  OP1       -2.1060   53.5010    2.3710 O.3    42  A42        -0.4373
    904  OP2       -4.6410   53.4690    2.0140 O.co2  42  A42        -0.5172
    905  P          0.2530   52.1550    6.1200 P.3    43  G43         0.2141
    906  C5'        1.2820   51.2150    8.3550 C.3    43  G43         0.1812
    907  O5'        1.0010   51.0340    6.9720 O.3    43  G43        -0.3114
    908  C4'        1.4050   49.8600    9.0340 C.3    43  G43         0.1773
    909  O4'        0.2360   49.0710    8.6890 O.3    43  G43        -0.3307
    910  C3'        2.6200   49.0200    8.6430 C.3    43  G43         0.1860
    911  O3'        3.0910   48.2460    9.7540 O.3    43  G43        -0.3112
    912  C2'        2.0640   48.1270    7.5370 C.3    43  G43         0.2309
    913  O2'        2.7000   46.8680    7.4110 O.3    43  G43        -0.2156
    914  C1'        0.6230   47.9130    7.9810 C.3    43  G43         0.2408
    915  N1        -1.0930   44.5440    4.6550 N.ar   43  G43        -0.1709
    916  C2        -0.2730   44.3710    5.7460 C.ar   43  G43         0.2606
    917  N2         0.1550   43.1300    5.9870 N.pl3  43  G43        -0.0859
    918  N3         0.1070   45.3480    6.5490 N.ar   43  G43        -0.1918
    919  C4        -0.4150   46.5370    6.1640 C.ar   43  G43         0.1723
    920  C5        -1.2360   46.8230    5.0940 C.ar   43  G43         0.1748
    921  C6        -1.6280   45.7640    4.2460 C.ar   43  G43         0.3023
    922  O6        -2.3510   45.8160    3.2480 O.2    43  G43        -0.2633
    923  N7        -1.5440   48.1760    5.0490 N.ar   43  G43        -0.2173
    924  C8        -0.9100   48.6740    6.0770 C.ar   43  G43         0.1817
    925  N9        -0.2130   47.7300    6.8020 N.ar   43  G43        -0.2693
    926  OP1        0.7340   53.4960    6.5280 O.3    43  G43        -0.4373
    927  OP2        0.3240   51.7640    4.6930 O.co2  43  G43        -0.5172
    928  P          4.6630   48.0600   10.0400 P.3    44  G44         0.2141
    929  C5'        6.2890   48.3050    7.9860 C.3    44  G44         0.1812
    930  O5'        5.2920   47.5370    8.6590 O.3    44  G44        -0.3114
    931  C4'        7.1470   47.4450    7.0810 C.3    44  G44         0.1773
    932  O4'        7.4030   46.1420    7.6780 O.3    44  G44        -0.3307
    933  C3'        6.4980   47.1300    5.7440 C.3    44  G44         0.1860
    934  O3'        6.7040   48.1790    4.8050 O.3    44  G44        -0.3112
    935  C2'        7.2640   45.8750    5.3490 C.3    44  G44         0.2309
    936  O2'        8.5470   46.1890    4.8310 O.3    44  G44        -0.2156
    937  C1'        7.3290   45.1330    6.6860 C.3    44  G44         0.2408
    938  N1         4.6050   40.9930    5.2970 N.ar   44  G44        -0.1709
    939  C2         5.7730   41.4770    4.7630 C.ar   44  G44         0.2606
    940  N2         6.2770   40.7800    3.7380 N.pl3  44  G44        -0.0859
    941  N3         6.4030   42.5650    5.2030 N.ar   44  G44        -0.1918
    942  C4         5.7610   43.1530    6.2480 C.ar   44  G44         0.1723
    943  C5         4.5890   42.7390    6.8460 C.ar   44  G44         0.1748
    944  C6         3.9340   41.5790    6.3650 C.ar   44  G44         0.3023
    945  O6         2.8930   41.0610    6.7770 O.2    44  G44        -0.2633
    946  N7         4.2400   43.5930    7.8780 N.ar   44  G44        -0.2173
    947  C8         5.1850   44.4900    7.8830 C.ar   44  G44         0.1817
    948  N9         6.1510   44.2930    6.9280 N.ar   44  G44        -0.2693
    949  OP1        4.7860   46.9730   11.0310 O.3    44  G44        -0.4373
    950  OP2        5.2080   49.4120   10.3200 O.co2  44  G44        -0.5172
    951  P          5.6670   48.3830    3.6000 P.3    45  G45         0.2141
    952  C5'        7.1190   47.0390    1.8220 C.3    45  G45         0.1812
    953  O5'        5.9490   47.1290    2.6440 O.3    45  G45        -0.3114
    954  C4'        6.9730   45.9340    0.7880 C.3    45  G45         0.1773
    955  O4'        6.9520   44.6290    1.4320 O.3    45  G45        -0.3307
    956  C3'        5.6590   45.9670    0.0160 C.3    45  G45         0.1860
    957  O3'        5.6730   46.8910   -1.0600 O.3    45  G45        -0.3112
    958  C2'        5.5150   44.5250   -0.4540 C.3    45  G45         0.2309
    959  O2'        6.2860   44.2190   -1.6010 O.3    45  G45        -0.2156
    960  C1'        6.0110   43.7850    0.7830 C.3    45  G45         0.2408
    961  N1         2.0680   40.6760    1.5810 N.ar   45  G45        -0.1709
    962  C2         2.9850   40.6900    0.5540 C.ar   45  G45         0.2606
    963  N2         2.8460   39.7540   -0.3910 N.pl3  45  G45        -0.0859
    964  N3         3.9790   41.5650    0.4610 N.ar   45  G45        -0.1918
    965  C4         3.9890   42.4470    1.4910 C.ar   45  G45         0.1723
    966  C5         3.1230   42.5180    2.5610 C.ar   45  G45         0.1748
    967  C6         2.0650   41.5760    2.6480 C.ar   45  G45         0.3023
    968  O6         1.1910   41.4840    3.5170 O.2    45  G45        -0.2633
    969  N7         3.4750   43.5620    3.4040 N.ar   45  G45        -0.2173
    970  C8         4.5230   44.0950    2.8350 C.ar   45  G45         0.1817
    971  N9         4.8960   43.4640    1.6720 N.ar   45  G45        -0.2693
    972  OP1        6.0290   49.6320    2.8910 O.2    45  G45        -0.5172
    973  OP2        4.2970   48.2280    4.1500 O.co2  45  G45        -0.4373
    974  P          4.3450   47.7540   -1.2880 P.3    46  G46         0.2141
    975  C5'        3.1450   46.4150   -3.1890 C.3    46  G46         0.1812
    976  O5'        3.2800   46.6720   -1.7980 O.3    46  G46        -0.3114
    977  C4'        2.5790   45.0320   -3.4460 C.3    46  G46         0.1773
    978  O4'        2.9170   44.1030   -2.3800 O.3    46  G46        -0.3307
    979  C3'        1.0640   44.9320   -3.4650 C.3    46  G46         0.1860
    980  O3'        0.4700   45.5320   -4.5950 O.3    46  G46        -0.3112
    981  C2'        0.9280   43.4160   -3.4390 C.3    46  G46         0.2309
    982  O2'        1.3750   42.7640   -4.6140 O.3    46  G46        -0.2156
    983  C1'        1.8740   43.1430   -2.2720 C.3    46  G46         0.2408
    984  N1        -1.7810   41.3300    0.7830 N.ar   46  G46        -0.1709
    985  C2        -1.3930   40.9030   -0.4640 C.ar   46  G46         0.2606
    986  N2        -2.0540   39.8560   -0.9690 N.pl3  46  G46        -0.0859
    987  N3        -0.4170   41.4590   -1.1660 N.ar   46  G46        -0.1918
    988  C4         0.1550   42.5060   -0.5180 C.ar   46  G46         0.1723
    989  C5        -0.1610   43.0110    0.7220 C.ar   46  G46         0.1748
    990  C6        -1.2010   42.4010    1.4650 C.ar   46  G46         0.3023
    991  O6        -1.6240   42.7070    2.5840 O.2    46  G46        -0.2633
    992  N7         0.6550   44.0860    1.0370 N.ar   46  G46        -0.2173
    993  C8         1.4350   44.2110    0.0000 C.ar   46  G46         0.1817
    994  N9         1.1940   43.2810   -0.9840 N.ar   46  G46        -0.2693
    995  OP1        4.6440   48.7060   -2.3830 O.2    46  G46        -0.5172
    996  OP2        3.8630   48.2380    0.0300 O.co2  46  G46        -0.4373
    997  P         -0.9350   46.2600   -4.3750 P.3    47  A47         0.2141
    998  C5'       -2.1630   44.1660   -5.3630 C.3    47  A47         0.1812
    999  O5'       -1.9700   45.0460   -4.2540 O.3    47  A47        -0.3114
   1000  C4'       -3.3870   43.2840   -5.2130 C.3    47  A47         0.1773
   1001  O4'       -3.1600   42.2960   -4.1730 O.3    47  A47        -0.3307
   1002  C3'       -4.6560   44.0130   -4.7970 C.3    47  A47         0.1860
   1003  O3'       -5.3340   44.5270   -5.9210 O.3    47  A47        -0.3112
   1004  C2'       -5.4360   42.9090   -4.0890 C.3    47  A47         0.2309
   1005  O2'       -6.0950   42.0300   -4.9780 O.3    47  A47        -0.2156
   1006  C1'       -4.3040   42.2070   -3.3430 C.3    47  A47         0.2408
   1007  N1        -5.7970   42.7500    1.5280 N.ar   47  A47        -0.2040
   1008  C2        -6.2900   42.0230    0.5160 C.ar   47  A47         0.2016
   1009  N3        -5.8410   41.9320   -0.7370 N.ar   47  A47        -0.2048
   1010  C4        -4.7570   42.7020   -0.9090 C.ar   47  A47         0.1692
   1011  C5        -4.1360   43.5010    0.0310 C.ar   47  A47         0.1518
   1012  C6        -4.7000   43.5120    1.3160 C.ar   47  A47         0.1919
   1013  N6        -4.1990   44.2330    2.3200 N.pl3  47  A47        -0.1054
   1014  N7        -3.0400   44.1470   -0.4990 N.ar   47  A47        -0.2193
   1015  C8        -3.0250   43.7250   -1.7380 C.ar   47  A47         0.1816
   1016  N9        -4.0290   42.8490   -2.0560 N.ar   47  A47        -0.2693
   1017  OP1       -1.2710   47.0420   -5.5870 O.2    47  A47        -0.5172
   1018  OP2       -0.8670   46.9420   -3.0680 O.co2  47  A47        -0.4373
   1019  P         -6.1600   45.8800   -5.7510 P.3    48  G48         0.2141
   1020  C5'       -8.4770   44.6470   -5.6190 C.3    48  G48         0.1812
   1021  O5'       -7.4710   45.4230   -4.9670 O.3    48  G48        -0.3114
   1022  C4'       -9.4430   44.0520   -4.6090 C.3    48  G48         0.1773
   1023  O4'       -8.7130   43.3330   -3.5750 O.3    48  G48        -0.3307
   1024  C3'      -10.2630   45.0540   -3.8140 C.3    48  G48         0.1860
   1025  O3'      -11.3530   45.5650   -4.5540 O.3    48  G48        -0.3112
   1026  C2'      -10.7060   44.1740   -2.6560 C.3    48  G48         0.2309
   1027  O2'      -11.7160   43.2550   -3.0290 O.3    48  G48        -0.2156
   1028  C1'       -9.3830   43.4760   -2.3350 C.3    48  G48         0.2408
   1029  N1        -8.7210   45.0360    2.4930 N.ar   48  G48        -0.1709
   1030  C2        -9.6620   44.1700    1.9820 C.ar   48  G48         0.2606
   1031  N2       -10.5410   43.6580    2.8570 N.pl3  48  G48        -0.0859
   1032  N3        -9.7330   43.8330    0.6970 N.ar   48  G48        -0.1918
   1033  C4        -8.7730   44.4380   -0.0560 C.ar   48  G48         0.1723
   1034  C5        -7.7940   45.3140    0.3660 C.ar   48  G48         0.1748
   1035  C6        -7.7300   45.6630    1.7370 C.ar   48  G48         0.3023
   1036  O6        -6.9280   46.4240    2.2910 O.2    48  G48        -0.2633
   1037  N7        -7.0010   45.7190   -0.6990 N.ar   48  G48        -0.2173
   1038  C8        -7.5050   45.0930   -1.7260 C.ar   48  G48         0.1817
   1039  N9        -8.5800   44.2900   -1.4170 N.ar   48  G48        -0.2693
   1040  OP1       -6.5520   46.3330   -7.1030 O.2    48  G48        -0.5172
   1041  OP2       -5.3940   46.7780   -4.8570 O.co2  48  G48        -0.4373
   1042  P        -11.9570   47.0050   -4.1670 P.3    49  G49         0.2141
   1043  C5'      -13.0260   47.5100   -1.8530 C.3    49  G49         0.1812
   1044  O5'      -12.9710   46.6600   -2.9780 O.3    49  G49        -0.3114
   1045  C4'      -13.5810   46.7640   -0.6660 C.3    49  G49         0.1773
   1046  O4'      -12.5360   45.9890   -0.0330 O.3    49  G49        -0.3307
   1047  C3'      -14.0530   47.7060    0.4150 C.3    49  G49         0.1860
   1048  O3'      -15.4040   48.0630    0.1700 O.3    49  G49        -0.3112
   1049  C2'      -13.8390   46.8900    1.6810 C.3    49  G49         0.2309
   1050  O2'      -14.7830   45.8530    1.8480 O.3    49  G49        -0.2156
   1051  C1'      -12.4860   46.2820    1.3530 C.3    49  G49         0.2408
   1052  N1        -9.6860   48.6240    4.9520 N.ar   49  G49        -0.1709
   1053  C2       -10.8190   47.8510    5.1040 C.ar   49  G49         0.2606
   1054  N2       -11.2630   47.6720    6.3590 N.pl3  49  G49        -0.0859
   1055  N3       -11.4680   47.2860    4.0880 N.ar   49  G49        -0.1918
   1056  C4       -10.8910   47.5650    2.8880 C.ar   49  G49         0.1723
   1057  C5        -9.7630   48.3250    2.6420 C.ar   49  G49         0.1748
   1058  C6        -9.0770   48.9160    3.7270 C.ar   49  G49         0.3023
   1059  O6        -8.0580   49.6180    3.6850 O.2    49  G49        -0.2633
   1060  N7        -9.4820   48.3800    1.2880 N.ar   49  G49        -0.2173
   1061  C8       -10.4290   47.6650    0.7470 C.ar   49  G49         0.1817
   1062  N9       -11.3270   47.1370    1.6490 N.ar   49  G49        -0.2693
   1063  OP1      -12.7550   47.5100   -5.3160 O.2    49  G49        -0.5172
   1064  OP2      -10.8470   47.8230   -3.6150 O.co2  49  G49        -0.4373
   1065  P        -15.7900   49.6190    0.1310 P.3    50  A50         0.2141
   1066  C5'      -17.2100   49.2710    2.2970 C.3    50  A50         0.1812
   1067  O5'      -16.1190   49.9320    1.6650 O.3    50  A50        -0.3114
   1068  C4'      -17.0180   49.1950    3.7960 C.3    50  A50         0.1773
   1069  O4'      -15.6970   48.6940    4.1170 O.3    50  A50        -0.3307
   1070  C3'      -17.0630   50.5360    4.4940 C.3    50  A50         0.1860
   1071  O3'      -18.4020   50.9460    4.6690 O.3    50  A50        -0.3112
   1072  C2'      -16.3600   50.2150    5.8050 C.3    50  A50         0.2309
   1073  O2'      -17.1650   49.4820    6.7080 O.3    50  A50        -0.2156
   1074  C1'      -15.2250   49.3320    5.2940 C.3    50  A50         0.2408
   1075  N1       -11.1970   51.8880    7.2860 N.ar   50  A50        -0.2040
   1076  C2       -12.2640   51.3140    7.8640 C.ar   50  A50         0.2016
   1077  N3       -13.2750   50.6640    7.2820 N.ar   50  A50        -0.2048
   1078  C4       -13.1280   50.6290    5.9400 C.ar   50  A50         0.1692
   1079  C5       -12.0880   51.1770    5.2050 C.ar   50  A50         0.1518
   1080  C6       -11.0750   51.8350    5.9380 C.ar   50  A50         0.1919
   1081  N6       -10.0080   52.4060    5.3730 N.pl3  50  A50        -0.1054
   1082  N7       -12.2700   50.9500    3.8540 N.ar   50  A50        -0.2193
   1083  C8       -13.3970   50.2840    3.7950 C.ar   50  A50         0.1816
   1084  N9       -13.9750   50.0510    5.0160 N.ar   50  A50        -0.2693
   1085  OP1      -17.0260   49.7590   -0.6680 O.2    50  A50        -0.5172
   1086  OP2      -14.5810   50.3890   -0.2410 O.co2  50  A50        -0.4373
   1087  P        -18.8150   52.3900    4.1290 P.3    51  A51         0.2141
   1088  C5'      -18.4660   53.4040    6.5280 C.3    51  A51         0.1812
   1089  O5'      -18.0750   53.3760    5.1510 O.3    51  A51        -0.3114
   1090  C4'      -17.3740   53.9150    7.4610 C.3    51  A51         0.1773
   1091  O4'      -16.1300   53.1770    7.2960 O.3    51  A51        -0.3307
   1092  C3'      -16.9650   55.3710    7.2810 C.3    51  A51         0.1860
   1093  O3'      -17.9460   56.2620    7.8130 O.3    51  A51        -0.3112
   1094  C2'      -15.6310   55.3700    8.0300 C.3    51  A51         0.2309
   1095  O2'      -15.7540   55.3650    9.4400 O.3    51  A51        -0.2156
   1096  C1'      -15.0390   54.0410    7.5620 C.3    51  A51         0.2408
   1097  N1       -10.4430   55.3130    5.5850 N.ar   51  A51        -0.2040
   1098  C2       -10.8870   55.2690    6.8500 C.ar   51  A51         0.2016
   1099  N3       -12.0990   54.9240    7.2930 N.ar   51  A51        -0.2048
   1100  C4       -12.9180   54.5950    6.2770 C.ar   51  A51         0.1692
   1101  C5       -12.6020   54.5910    4.9260 C.ar   51  A51         0.1518
   1102  C6       -11.2860   54.9760    4.5820 C.ar   51  A51         0.1919
   1103  N6       -10.8380   55.0140    3.3230 N.pl3  51  A51        -0.1054
   1104  N7       -13.6930   54.1980    4.1640 N.ar   51  A51        -0.2193
   1105  C8       -14.6290   53.9740    5.0580 C.ar   51  A51         0.1816
   1106  N9       -14.2330   54.1900    6.3530 N.ar   51  A51        -0.2693
   1107  OP1      -20.2790   52.5420    4.2730 O.3    51  A51        -0.4373
   1108  OP2      -18.1940   52.5770    2.8020 O.co2  51  A51        -0.5172
   1109  P        -18.6350   57.3380    6.8380 P.3    52  U52         0.2141
   1110  C5'      -16.9210   59.1970    7.5170 C.3    52  U52         0.1812
   1111  O5'      -17.4070   58.3100    6.5060 O.3    52  U52        -0.3114
   1112  C4'      -16.3600   60.4860    6.9410 C.3    52  U52         0.1773
   1113  O4'      -15.0550   60.2050    6.3820 O.3    52  U52        -0.3307
   1114  C3'      -17.1940   61.1650    5.8410 C.3    52  U52         0.1860
   1115  O3'      -17.7200   62.4930    6.1820 O.3    52  U52        -0.3112
   1116  C2'      -16.3320   61.0760    4.5710 C.3    52  U52         0.2309
   1117  O2'      -16.2860   62.2660    3.8090 O.3    52  U52        -0.2156
   1118  C1'      -14.9340   60.7300    5.0770 C.3    52  U52         0.2420
   1119  N1       -14.2180   59.7170    4.2270 N.ar   52  U52        -0.2534
   1120  C2       -13.0350   60.0700    3.5940 C.ar   52  U52         0.3546
   1121  O2       -12.5210   61.1730    3.6790 O.2    52  U52        -0.2443
   1122  N3       -12.4630   59.0660    2.8420 N.ar   52  U52        -0.1530
   1123  C4       -12.9420   57.7770    2.6620 C.ar   52  U52         0.2846
   1124  O4       -12.3210   56.9950    1.9550 O.2    52  U52        -0.2650
   1125  C5       -14.1750   57.4790    3.3490 C.ar   52  U52         0.0814
   1126  C6       -14.7490   58.4400    4.0890 C.ar   52  U52         0.0870
   1127  OP1      -19.6630   58.0960    7.5920 O.3    52  U52        -0.4373
   1128  OP2      -19.0430   56.6520    5.5930 O.co2  52  U52        -0.5172
   1129  P        -16.9240   63.7740    6.7500 P.3    53  C53         0.2141
   1130  C5'      -16.6370   64.2730    9.3270 C.3    53  C53         0.1812
   1131  O5'      -17.4950   63.9130    8.2410 O.3    53  C53        -0.3114
   1132  C4'      -17.0940   63.6210   10.6210 C.3    53  C53         0.1773
   1133  O4'      -18.5410   63.5330   10.6420 O.3    53  C53        -0.3307
   1134  C3'      -16.5740   62.2030   10.8450 C.3    53  C53         0.1860
   1135  O3'      -15.9910   62.0910   12.1290 O.3    53  C53        -0.3112
   1136  C2'      -17.8150   61.3230   10.8040 C.3    53  C53         0.2309
   1137  O2'      -17.7380   60.2360   11.7090 O.3    53  C53        -0.2156
   1138  C1'      -18.8950   62.3060   11.2370 C.3    53  C53         0.2420
   1139  N1       -20.2320   61.8830   10.7650 N.ar   53  C53        -0.2535
   1140  C2       -21.1540   61.3380   11.6770 C.ar   53  C53         0.3532
   1141  O2       -20.8580   61.2230   12.8770 O.2    53  C53        -0.2443
   1142  N3       -22.3670   60.9490   11.2030 N.ar   53  C53        -0.1739
   1143  C4       -22.6590   61.0810    9.9020 C.ar   53  C53         0.1759
   1144  N4       -23.8650   60.6840    9.4870 N.pl3  53  C53        -0.1070
   1145  C5       -21.7330   61.6290    8.9620 C.ar   53  C53         0.0566
   1146  C6       -20.5430   62.0100    9.4360 C.ar   53  C53         0.0850
   1147  OP1      -17.4050   64.9380    5.9740 O.2    53  C53        -0.5172
   1148  OP2      -15.4670   63.5040    6.8120 O.co2  53  C53        -0.4373
   1149  P        -14.4130   62.1560   12.3430 P.3    54  G54         0.2141
   1150  C5'      -14.2740   59.5810   11.8980 C.3    54  G54         0.1812
   1151  O5'      -13.8720   60.8910   11.5300 O.3    54  G54        -0.3114
   1152  C4'      -13.7660   58.5620   10.8960 C.3    54  G54         0.1773
   1153  O4'      -14.1230   58.9420    9.5420 O.3    54  G54        -0.3307
   1154  C3'      -12.2600   58.4070   10.8340 C.3    54  G54         0.1860
   1155  O3'      -11.8350   57.5860   11.8920 O.3    54  G54        -0.3112
   1156  C2'      -12.1480   57.6890    9.5040 C.3    54  G54         0.2309
   1157  O2'      -12.6080   56.3540    9.5940 O.3    54  G54        -0.2156
   1158  C1'      -13.1010   58.5290    8.6560 C.3    54  G54         0.2408
   1159  N1        -9.7270   60.2530    5.2120 N.ar   54  G54        -0.1709
   1160  C2       -10.0830   58.9560    5.5020 C.ar   54  G54         0.2606
   1161  N2        -9.4780   57.9860    4.8040 N.pl3  54  G54        -0.0859
   1162  N3       -10.9790   58.6340    6.4250 N.ar   54  G54        -0.1918
   1163  C4       -11.5120   59.7190    7.0500 C.ar   54  G54         0.1723
   1164  C5       -11.2210   61.0480    6.8270 C.ar   54  G54         0.1748
   1165  C6       -10.2570   61.3810    5.8400 C.ar   54  G54         0.3023
   1166  O6        -9.8710   62.5070    5.5020 O.2    54  G54        -0.2633
   1167  N7       -11.9710   61.8640    7.6670 N.ar   54  G54        -0.2173
   1168  C8       -12.6860   61.0280    8.3690 C.ar   54  G54         0.1817
   1169  N9       -12.4650   59.7060    8.0520 N.ar   54  G54        -0.2693
   1170  OP1      -14.1640   61.9520   13.7920 O.3    54  G54        -0.4373
   1171  OP2      -13.9290   63.3820   11.6580 O.co2  54  G54        -0.5172
   1172  P        -10.4550   57.8610   12.6460 P.3    55  G55         0.2141
   1173  C5'       -9.0860   56.3200   11.0450 C.3    55  G55         0.1812
   1174  O5'       -9.3620   57.6250   11.5110 O.3    55  G55        -0.3114
   1175  C4'       -8.2110   56.3910    9.8130 C.3    55  G55         0.1773
   1176  O4'       -8.7750   57.2950    8.8340 O.3    55  G55        -0.3307
   1177  C3'       -6.8380   56.9770   10.0550 C.3    55  G55         0.1860
   1178  O3'       -6.0110   56.0570   10.7510 O.3    55  G55        -0.3112
   1179  C2'       -6.4210   57.2760    8.6160 C.3    55  G55         0.2309
   1180  O2'       -6.0770   56.1460    7.8400 O.3    55  G55        -0.2156
   1181  C1'       -7.7220   57.8680    8.0760 C.3    55  G55         0.2408
   1182  N1        -5.6760   62.3290    6.5830 N.ar   55  G55        -0.1709
   1183  C2        -5.2750   61.0430    6.2850 C.ar   55  G55         0.2606
   1184  N2        -4.1990   60.9080    5.4970 N.pl3  55  G55        -0.0859
   1185  N3        -5.8930   59.9550    6.7340 N.ar   55  G55        -0.1918
   1186  C4        -6.9630   60.2440    7.5230 C.ar   55  G55         0.1723
   1187  C5        -7.4380   61.4890    7.8760 C.ar   55  G55         0.1748
   1188  C6        -6.7730   62.6450    7.3860 C.ar   55  G55         0.3023
   1189  O6        -7.0550   63.8300    7.5940 O.2    55  G55        -0.2633
   1190  N7        -8.5540   61.3730    8.6940 N.ar   55  G55        -0.2173
   1191  C8        -8.7250   60.0870    8.8210 C.ar   55  G55         0.1817
   1192  N9        -7.7980   59.3340    8.1400 N.ar   55  G55        -0.2693
   1193  OP1      -10.3170   56.8240   13.6920 O.3    55  G55        -0.4373
   1194  OP2      -10.3880   59.2890   13.0140 O.co2  55  G55        -0.5172
   1195  P         -5.0320   56.6030   11.8980 P.3    56  G56         0.2141
   1196  C5'       -3.0700   56.1970   10.2300 C.3    56  G56         0.1812
   1197  O5'       -3.7900   57.1230   11.0430 O.3    56  G56        -0.3114
   1198  C4'       -2.2730   56.9090    9.1520 C.3    56  G56         0.1773
   1199  O4'       -3.1440   57.6800    8.2790 O.3    56  G56        -0.3307
   1200  C3'       -1.2560   57.9240    9.6600 C.3    56  G56         0.1860
   1201  O3'       -0.0720   57.2760   10.0890 O.3    56  G56        -0.3112
   1202  C2'       -1.0490   58.7310    8.3910 C.3    56  G56         0.2309
   1203  O2'       -0.3300   58.0110    7.4140 O.3    56  G56        -0.2156
   1204  C1'       -2.5030   58.8980    7.9600 C.3    56  G56         0.2408
   1205  N1        -2.7550   63.9480    8.7520 N.ar   56  G56        -0.1709
   1206  C2        -1.8900   63.2300    7.9530 C.ar   56  G56         0.2606
   1207  N2        -0.9740   63.9330    7.2770 N.pl3  56  G56        -0.0859
   1208  N3        -1.9180   61.9080    7.8210 N.ar   56  G56        -0.1918
   1209  C4        -2.8980   61.3390    8.5700 C.ar   56  G56         0.1723
   1210  C5        -3.8090   61.9670    9.3950 C.ar   56  G56         0.1748
   1211  C6        -3.7670   63.3760    9.5270 C.ar   56  G56         0.3023
   1212  O6        -4.5030   64.0910   10.2210 O.2    56  G56        -0.2633
   1213  N7        -4.6580   61.0440    9.9880 N.ar   56  G56        -0.2173
   1214  C8        -4.2470   59.8940    9.5240 C.ar   56  G56         0.1817
   1215  N9        -3.1860   59.9920    8.6530 N.ar   56  G56        -0.2693
   1216  OP1       -4.5660   55.4590   12.7090 O.3    56  G56        -0.4373
   1217  OP2       -5.6670   57.7630   12.5610 O.co2  56  G56        -0.5172
   1218  P          0.7030   57.7310   11.4180 P.3    57  G57         0.2141
   1219  C5'        2.4910   58.7210    9.8280 C.3    57  G57         0.1812
   1220  O5'        1.5540   58.9670   10.8720 O.3    57  G57        -0.3114
   1221  C4'        2.9740   60.0070    9.1970 C.3    57  G57         0.1773
   1222  O4'        1.8620   60.7440    8.6320 O.3    57  G57        -0.3307
   1223  C3'        3.6110   60.9760   10.1760 C.3    57  G57         0.1860
   1224  O3'        4.9530   60.6070   10.4090 O.3    57  G57        -0.3112
   1225  C2'        3.4840   62.2810    9.4080 C.3    57  G57         0.2309
   1226  O2'        4.4340   62.3990    8.3660 O.3    57  G57        -0.2156
   1227  C1'        2.0660   62.1260    8.8600 C.3    57  G57         0.2408
   1228  N1        -0.0710   66.1650   11.1420 N.ar   57  G57        -0.1709
   1229  C2         0.9620   66.1200   10.2270 C.ar   57  G57         0.2606
   1230  N2         1.5030   67.2900    9.8630 N.pl3  57  G57        -0.0859
   1231  N3         1.4370   65.0010    9.6950 N.ar   57  G57        -0.1918
   1232  C4         0.7910   63.9010   10.1590 C.ar   57  G57         0.1723
   1233  C5        -0.2420   63.8400   11.0710 C.ar   57  G57         0.1748
   1234  C6        -0.7420   65.0410   11.6300 C.ar   57  G57         0.3023
   1235  O6        -1.6580   65.1700   12.4530 O.2    57  G57        -0.2633
   1236  N7        -0.6300   62.5250   11.2890 N.ar   57  G57        -0.2173
   1237  C8         0.1600   61.8280   10.5200 C.ar   57  G57         0.1817
   1238  N9         1.0480   62.5950    9.8010 N.ar   57  G57        -0.2693
   1239  OP1        1.6360   56.6380   11.7710 O.2    57  G57        -0.5172
   1240  OP2       -0.2660   58.2000   12.4360 O.co2  57  G57        -0.4373
   1241  P          5.6040   60.8580   11.8450 P.3    58  A58         0.2141
   1242  C5'        6.9380   62.8130   10.6850 C.3    58  A58         0.1812
   1243  O5'        6.0510   62.3920   11.7270 O.3    58  A58        -0.3114
   1244  C4'        7.1430   64.3200   10.6900 C.3    58  A58         0.1773
   1245  O4'        5.9470   65.0070   10.2290 O.3    58  A58        -0.3307
   1246  C3'        7.4200   64.9390   12.0540 C.3    58  A58         0.1860
   1247  O3'        8.7830   64.7760   12.4280 O.3    58  A58        -0.3112
   1248  C2'        7.0260   66.3900   11.8070 C.3    58  A58         0.2309
   1249  O2'        8.0210   67.1000   11.0930 O.3    58  A58        -0.2156
   1250  C1'        5.7530   66.1990   10.9750 C.3    58  A58         0.2408
   1251  N1         2.1140   68.6610   13.7440 N.ar   58  A58        -0.2040
   1252  C2         3.1990   69.1090   13.0910 C.ar   58  A58         0.2016
   1253  N3         4.1010   68.4150   12.3890 N.ar   58  A58        -0.2048
   1254  C4         3.8130   67.0980   12.3880 C.ar   58  A58         0.1692
   1255  C5         2.7340   66.4900   13.0190 C.ar   58  A58         0.1518
   1256  C6         1.8470   67.3350   13.7270 C.ar   58  A58         0.1919
   1257  N6         0.7690   66.8930   14.3810 N.pl3  58  A58        -0.1054
   1258  N7         2.7520   65.1210   12.8090 N.ar   58  A58        -0.2193
   1259  C8         3.8230   64.9340   12.0710 C.ar   58  A58         0.1816
   1260  N9         4.5180   66.0810   11.7730 N.ar   58  A58        -0.2693
   1261  OP1        6.7980   59.9900   11.9380 O.2    58  A58        -0.5172
   1262  OP2        4.5630   60.7540   12.8930 O.co2  58  A58        -0.4373
   1263  P          9.1500   64.3280   13.9270 P.3    59  C59         0.2141
   1264  C5'        9.7980   66.8660   14.1530 C.3    59  C59         0.1812
   1265  O5'        9.1120   65.7340   14.6890 O.3    59  C59        -0.3114
   1266  C4'        9.3020   68.1560   14.7810 C.3    59  C59         0.1773
   1267  O4'        7.9930   68.5040   14.2550 O.3    59  C59        -0.3307
   1268  C3'        9.0910   68.0850   16.2880 C.3    59  C59         0.1860
   1269  O3'       10.3000   68.2910   16.9930 O.3    59  C59        -0.3112
   1270  C2'        8.0850   69.2100   16.5110 C.3    59  C59         0.2309
   1271  O2'        8.6860   70.4910   16.5250 O.3    59  C59        -0.2156
   1272  C1'        7.1770   69.0080   15.3010 C.3    59  C59         0.2420
   1273  N1         6.0210   68.0700   15.5880 N.ar   59  C59        -0.2535
   1274  C2         4.8080   68.5960   16.0700 C.ar   59  C59         0.3532
   1275  O2         4.6960   69.8150   16.2460 O.2    59  C59        -0.2443
   1276  N3         3.7720   67.7530   16.3290 N.ar   59  C59        -0.1739
   1277  C4         3.9120   66.4410   16.1300 C.ar   59  C59         0.1759
   1278  N4         2.8640   65.6590   16.3950 N.pl3  59  C59        -0.1070
   1279  C5         5.1300   65.8750   15.6450 C.ar   59  C59         0.0566
   1280  C6         6.1420   66.7160   15.3930 C.ar   59  C59         0.0850
   1281  OP1       10.5330   63.8070   13.9250 O.2    59  C59        -0.5172
   1282  OP2        8.0820   63.4630   14.4820 O.co2  59  C59        -0.4373
   1283  P         10.4810   67.6900   18.4660 P.3    60  G60         0.2141
   1284  C5'        8.8230   68.0230   20.5100 C.3    60  G60         0.1812
   1285  O5'        9.0160   67.7730   19.1190 O.3    60  G60        -0.3114
   1286  C4'        8.2100   69.3910   20.7650 C.3    60  G60         0.1773
   1287  O4'        7.3210   69.7880   19.6810 O.3    60  G60        -0.3307
   1288  C3'        7.3360   69.4400   22.0090 C.3    60  G60         0.1860
   1289  O3'        8.1020   69.7790   23.1580 O.3    60  G60        -0.3112
   1290  C2'        6.3170   70.5110   21.6410 C.3    60  G60         0.2309
   1291  O2'        6.8580   71.8130   21.7160 O.3    60  G60        -0.2156
   1292  C1'        6.0400   70.1160   20.1920 C.3    60  G60         0.2408
   1293  N1         1.5260   67.8280   21.2740 N.ar   60  G60        -0.1709
   1294  C2         1.9660   69.0680   21.6740 C.ar   60  G60         0.2606
   1295  N2         1.1230   69.7730   22.4440 N.pl3  60  G60        -0.0859
   1296  N3         3.1560   69.5690   21.3360 N.ar   60  G60        -0.1918
   1297  C4         3.8920   68.7270   20.5520 C.ar   60  G60         0.1723
   1298  C5         3.5260   67.4710   20.1070 C.ar   60  G60         0.1748
   1299  C6         2.2600   66.9480   20.4750 C.ar   60  G60         0.3023
   1300  O6         1.7740   65.8520   20.1690 O.2    60  G60        -0.2633
   1301  N7         4.5270   66.9030   19.3310 N.ar   60  G60        -0.2173
   1302  C8         5.4630   67.8080   19.3170 C.ar   60  G60         0.1817
   1303  N9         5.1610   68.9460   20.0320 N.ar   60  G60        -0.2693
   1304  OP1       11.3850   68.6310   19.1700 O.3    60  G60        -0.4373
   1305  OP2       10.8140   66.2510   18.3450 O.co2  60  G60        -0.5172
   1306  P          7.8180   69.0190   24.5390 P.3    61  G61         0.2141
   1307  C5'        6.2050   70.7510   25.6970 C.3    61  G61         0.1812
   1308  O5'        6.3720   69.5570   24.9500 O.3    61  G61        -0.3114
   1309  C4'        4.7690   70.8290   26.1720 C.3    61  G61         0.1773
   1310  O4'        3.8720   70.5070   25.0770 O.3    61  G61        -0.3307
   1311  C3'        4.3820   69.7930   27.2110 C.3    61  G61         0.1860
   1312  O3'        4.8650   70.1170   28.5050 O.3    61  G61        -0.3112
   1313  C2'        2.8610   69.8110   27.0990 C.3    61  G61         0.2309
   1314  O2'        2.2600   70.9590   27.6730 O.3    61  G61        -0.2156
   1315  C1'        2.7320   69.8230   25.5780 C.3    61  G61         0.2408
   1316  N1        -0.0850   65.6160   24.8490 N.ar   61  G61        -0.1709
   1317  C2        -0.4040   66.7780   25.5220 C.ar   61  G61         0.2606
   1318  N2        -1.6240   66.8440   26.0740 N.pl3  61  G61        -0.0859
   1319  N3         0.4200   67.8150   25.6440 N.ar   61  G61        -0.1918
   1320  C4         1.6150   67.6020   25.0340 C.ar   61  G61         0.1723
   1321  C5         2.0250   66.4840   24.3400 C.ar   61  G61         0.1748
   1322  C6         1.1370   65.3880   24.2130 C.ar   61  G61         0.3023
   1323  O6         1.3380   64.3180   23.6310 O.2    61  G61        -0.2633
   1324  N7         3.3160   66.6480   23.8600 N.ar   61  G61        -0.2173
   1325  C8         3.6550   67.8380   24.2690 C.ar   61  G61         0.1817
   1326  N9         2.6730   68.4830   24.9860 N.ar   61  G61        -0.2693
   1327  OP1        8.8130   69.4940   25.5290 O.3    61  G61        -0.4373
   1328  OP2        7.6700   67.5720   24.2510 O.co2  61  G61        -0.5172
   1329  P          5.4130   68.9030   29.3920 P.3    62  C62         0.2141
   1330  C5'        3.1460   68.9520   30.7710 C.3    62  C62         0.1812
   1331  O5'        4.0880   68.2220   29.9760 O.3    62  C62        -0.3114
   1332  C4'        1.9120   68.1110   31.0520 C.3    62  C62         0.1773
   1333  O4'        1.2180   67.8280   29.8060 O.3    62  C62        -0.3307
   1334  C3'        2.2000   66.7310   31.6290 C.3    62  C62         0.1860
   1335  O3'        2.3790   66.7660   33.0320 O.3    62  C62        -0.3112
   1336  C2'        0.9550   65.9520   31.2260 C.3    62  C62         0.2309
   1337  O2'       -0.1550   66.2050   32.0670 O.3    62  C62        -0.2156
   1338  C1'        0.7200   66.4960   29.8160 C.3    62  C62         0.2420
   1339  N1         1.3770   65.6310   28.7570 N.ar   62  C62        -0.2535
   1340  C2         0.7110   64.4810   28.2900 C.ar   62  C62         0.3532
   1341  O2        -0.4070   64.1870   28.7280 O.2    62  C62        -0.2443
   1342  N3         1.3110   63.7040   27.3520 N.ar   62  C62        -0.1739
   1343  C4         2.5170   64.0270   26.8830 C.ar   62  C62         0.1759
   1344  N4         3.0520   63.2250   25.9570 N.pl3  62  C62        -0.1070
   1345  C5         3.2200   65.1860   27.3400 C.ar   62  C62         0.0566
   1346  C6         2.6190   65.9440   28.2650 C.ar   62  C62         0.0850
   1347  OP1        6.1980   69.4770   30.5030 O.3    62  C62        -0.4373
   1348  OP2        6.0320   67.9130   28.4810 O.co2  62  C62        -0.5172
   1349  P          3.5820   65.9210   33.6610 P.3    63  U63         0.2141
   1350  C5'        3.1320   63.3190   33.8290 C.3    63  U63         0.1812
   1351  O5'        3.4240   64.4580   33.0230 O.3    63  U63        -0.3114
   1352  C4'        2.1390   62.3680   33.1730 C.3    63  U63         0.1773
   1353  O4'        1.8640   62.7080   31.7860 O.3    63  U63        -0.3307
   1354  C3'        2.6150   60.9290   33.1030 C.3    63  U63         0.1860
   1355  O3'        2.3420   60.2830   34.3220 O.3    63  U63        -0.3112
   1356  C2'        1.7590   60.3630   31.9800 C.3    63  U63         0.2309
   1357  O2'        0.4500   60.0280   32.4070 O.3    63  U63        -0.2156
   1358  C1'        1.7480   61.5330   30.9950 C.3    63  U63         0.2420
   1359  N1         2.8440   61.4970   29.9340 N.ar   63  U63        -0.2534
   1360  C2         2.8900   60.4910   28.9680 C.ar   63  U63         0.3546
   1361  O2         2.0880   59.5760   28.8840 O.2    63  U63        -0.2443
   1362  N3         3.9350   60.5850   28.0750 N.ar   63  U63        -0.1530
   1363  C4         4.9190   61.5610   28.0410 C.ar   63  U63         0.2846
   1364  O4         5.7930   61.5230   27.1840 O.2    63  U63        -0.2650
   1365  C5         4.8180   62.5660   29.0650 C.ar   63  U63         0.0814
   1366  C6         3.8080   62.4940   29.9430 C.ar   63  U63         0.0870
   1367  OP1        3.3480   65.8570   35.1230 O.3    63  U63        -0.4373
   1368  OP2        4.8470   66.4890   33.1390 O.co2  63  U63        -0.5172
   1369  P          3.5220   59.5320   35.0880 P.3    64  G64         0.2141
   1370  C5'        2.6930   57.2960   34.0340 C.3    64  G64         0.1812
   1371  O5'        3.7560   58.2150   34.2150 O.3    64  G64        -0.3114
   1372  C4'        2.9170   56.4750   32.7780 C.3    64  G64         0.1773
   1373  O4'        2.8530   57.3250   31.6000 O.3    64  G64        -0.3307
   1374  C3'        4.2900   55.8200   32.6680 C.3    64  G64         0.1860
   1375  O3'        4.3980   54.6300   33.4220 O.3    64  G64        -0.3112
   1376  C2'        4.3970   55.5810   31.1670 C.3    64  G64         0.2309
   1377  O2'        3.6610   54.4470   30.7360 O.3    64  G64        -0.2156
   1378  C1'        3.8210   56.9020   30.6530 C.3    64  G64         0.2408
   1379  N1         7.4530   58.9600   27.6970 N.ar   64  G64        -0.1709
   1380  C2         6.5890   57.9200   27.4240 C.ar   64  G64         0.2606
   1381  N2         6.7050   57.3530   26.2140 N.pl3  64  G64        -0.0859
   1382  N3         5.6770   57.4670   28.2820 N.ar   64  G64        -0.1918
   1383  C4         5.6850   58.1460   29.4580 C.ar   64  G64         0.1723
   1384  C5         6.5020   59.1940   29.8240 C.ar   64  G64         0.1748
   1385  C6         7.4770   59.6630   28.9050 C.ar   64  G64         0.3023
   1386  O6         8.2860   60.5880   29.0620 O.2    64  G64        -0.2633
   1387  N7         6.2060   59.6260   31.1090 N.ar   64  G64        -0.2173
   1388  C8         5.2370   58.8430   31.4860 C.ar   64  G64         0.1817
   1389  N9         4.8630   57.9230   30.5370 N.ar   64  G64        -0.2693
   1390  OP1        2.9790   59.1160   36.3990 O.3    64  G64        -0.4373
   1391  OP2        4.7420   60.3760   35.0080 O.co2  64  G64        -0.5172
   1392  P          5.8480   54.2600   33.9790 P.3    65  A65         0.2141
   1393  C5'        6.5540   52.0400   32.7110 C.3    65  A65         0.1812
   1394  O5'        6.4540   53.4640   32.7280 O.3    65  A65        -0.3114
   1395  C4'        5.2170   51.3510   32.4960 C.3    65  A65         0.1773
   1396  O4'        4.4860   51.9210   31.3790 O.3    65  A65        -0.3307
   1397  C3'        5.3850   49.8840   32.1440 C.3    65  A65         0.1860
   1398  O3'        5.4530   49.1140   33.3270 O.3    65  A65        -0.3112
   1399  C2'        4.1480   49.5820   31.3110 C.3    65  A65         0.2309
   1400  O2'        2.9930   49.3370   32.0870 O.3    65  A65        -0.2156
   1401  C1'        4.0380   50.8840   30.5220 C.3    65  A65         0.2408
   1402  N1         4.9040   48.7220   25.9040 N.ar   65  A65        -0.2040
   1403  C2         3.9940   48.4590   26.8550 C.ar   65  A65         0.2016
   1404  N3         3.8250   49.0580   28.0360 N.ar   65  A65        -0.2048
   1405  C4         4.7250   50.0430   28.2140 C.ar   65  A65         0.1692
   1406  C5         5.7170   50.4280   27.3260 C.ar   65  A65         0.1518
   1407  C6         5.7920   49.7200   26.1080 C.ar   65  A65         0.1919
   1408  N6         6.6960   49.9790   25.1610 N.pl3  65  A65        -0.1054
   1409  N7         6.4550   51.4790   27.8390 N.ar   65  A65        -0.2193
   1410  C8         5.9050   51.7060   29.0070 C.ar   65  A65         0.1816
   1411  N9         4.8520   50.8800   29.3010 N.ar   65  A65        -0.2693
   1412  OP1        5.6720   53.3400   35.1270 O.3    65  A65        -0.4373
   1413  OP2        6.6340   55.5050   34.1480 O.co2  65  A65        -0.5172
   1414  P          6.6230   48.0380   33.4850 P.3    66  A66         0.2141
   1415  C5'        4.9940   46.1460   32.7340 C.3    66  A66         0.1812
   1416  O5'        6.1500   46.9220   32.4480 O.3    66  A66        -0.3114
   1417  C4'        4.5790   45.3770   31.5000 C.3    66  A66         0.1773
   1418  O4'        4.4180   46.3050   30.3980 O.3    66  A66        -0.3307
   1419  C3'        5.6130   44.3870   30.9930 C.3    66  A66         0.1860
   1420  O3'        5.5490   43.1740   31.7270 O.3    66  A66        -0.3112
   1421  C2'        5.1860   44.2580   29.5330 C.3    66  A66         0.2309
   1422  O2'        4.0200   43.4740   29.3660 O.3    66  A66        -0.2156
   1423  C1'        4.8610   45.7070   29.1950 C.3    66  A66         0.2408
   1424  N1         8.0390   46.6510   25.2250 N.ar   66  A66        -0.2040
   1425  C2         7.0340   45.7800   25.3730 C.ar   66  A66         0.2016
   1426  N3         6.2480   45.5760   26.4310 N.ar   66  A66        -0.2048
   1427  C4         6.5730   46.4040   27.4380 C.ar   66  A66         0.1692
   1428  C5         7.5780   47.3540   27.4290 C.ar   66  A66         0.1518
   1429  C6         8.3440   47.4730   26.2490 C.ar   66  A66         0.1919
   1430  N6         9.3460   48.3480   26.0900 N.pl3  66  A66        -0.1054
   1431  N7         7.6150   48.0240   28.6380 N.ar   66  A66        -0.2193
   1432  C8         6.6550   47.4770   29.3400 C.ar   66  A66         0.1816
   1433  N9         5.9810   46.4900   28.6790 N.ar   66  A66        -0.2693
   1434  OP1        6.5230   47.4740   34.8480 O.3    66  A66        -0.4373
   1435  OP2        7.9100   48.6160   33.0220 O.co2  66  A66        -0.5172
   1436  P          6.7980   42.1760   31.7050 P.3    67  A67         0.2141
   1437  C5'        5.6630   40.7050   29.8490 C.3    67  A67         0.1812
   1438  O5'        6.7360   41.5580   30.2380 O.3    67  A67        -0.3114
   1439  C4'        5.7780   40.3810   28.3720 C.3    67  A67         0.1773
   1440  O4'        5.8200   41.5840   27.5630 O.3    67  A67        -0.3307
   1441  C3'        7.0840   39.7010   28.0320 C.3    67  A67         0.1860
   1442  O3'        7.0320   38.3480   28.3900 O.3    67  A67        -0.3112
   1443  C2'        7.2030   39.9650   26.5340 C.3    67  A67         0.2309
   1444  O2'        6.4000   39.1330   25.7180 O.3    67  A67        -0.2156
   1445  C1'        6.7120   41.4020   26.4770 C.3    67  A67         0.2408
   1446  N1        10.3500   44.1170   24.0150 N.ar   67  A67        -0.2040
   1447  C2         9.4570   43.2210   23.5680 C.ar   67  A67         0.2016
   1448  N3         8.5360   42.5470   24.2630 N.ar   67  A67        -0.2048
   1449  C4         8.5820   42.8610   25.5710 C.ar   67  A67         0.1692
   1450  C5         9.4440   43.7580   26.1740 C.ar   67  A67         0.1518
   1451  C6        10.3620   44.4130   25.3380 C.ar   67  A67         0.1919
   1452  N6        11.2430   45.2980   25.8110 N.pl3  67  A67        -0.1054
   1453  N7         9.2120   43.8440   27.5310 N.ar   67  A67        -0.2193
   1454  C8         8.2250   43.0020   27.7250 C.ar   67  A67         0.1816
   1455  N9         7.7910   42.3770   26.5880 N.ar   67  A67        -0.2693
   1456  OP1        6.5480   41.0550   32.6350 O.3    67  A67        -0.4373
   1457  OP2        8.0340   42.9940   31.7930 O.co2  67  A67        -0.5172
   1458  P          8.3670   37.7060   28.9830 P.3    68  G68         0.2141
   1459  C5'        8.8990   36.6870   26.5950 C.3    68  G68         0.1812
   1460  O5'        9.2640   37.5680   27.6630 O.3    68  G68        -0.3114
   1461  C4'        9.5720   37.1230   25.3050 C.3    68  G68         0.1773
   1462  O4'        9.3730   38.5430   25.0850 O.3    68  G68        -0.3307
   1463  C3'       11.0870   37.0140   25.2810 C.3    68  G68         0.1860
   1464  O3'       11.5180   35.6920   25.0660 O.3    68  G68        -0.3112
   1465  C2'       11.4210   37.9170   24.1030 C.3    68  G68         0.2309
   1466  O2'       11.1310   37.2980   22.8690 O.3    68  G68        -0.2156
   1467  C1'       10.4710   39.0790   24.3650 C.3    68  G68         0.2408
   1468  N1        13.6720   43.0370   24.3970 N.ar   68  G68        -0.1709
   1469  C2        13.2540   42.2550   23.3400 C.ar   68  G68         0.2606
   1470  N2        13.7630   42.5700   22.1430 N.pl3  68  G68        -0.0859
   1471  N3        12.4040   41.2390   23.4460 N.ar   68  G68        -0.1918
   1472  C4        12.0010   41.0650   24.7290 C.ar   68  G68         0.1723
   1473  C5        12.3570   41.7910   25.8540 C.ar   68  G68         0.1748
   1474  C6        13.2660   42.8720   25.7240 C.ar   68  G68         0.3023
   1475  O6        13.6910   43.6320   26.6140 O.2    68  G68        -0.2633
   1476  N7        11.7130   41.3050   26.9870 N.ar   68  G68        -0.2173
   1477  C8        11.0020   40.3040   26.5320 C.ar   68  G68         0.1817
   1478  N9        11.1220   40.1050   25.1720 N.ar   68  G68        -0.2693
   1479  OP1        8.0560   36.3450   29.4770 O.2    68  G68        -0.5172
   1480  OP2        8.9930   38.7000   29.8820 O.co2  68  G68        -0.4373
   1481  P         12.5670   35.0580   26.0920 P.3    69  G69         0.2141
   1482  C5'       14.5290   35.7560   24.4820 C.3    69  G69         0.1812
   1483  O5'       13.9070   35.8750   25.7690 O.3    69  G69        -0.3114
   1484  C4'       15.7630   36.6350   24.3150 C.3    69  G69         0.1773
   1485  O4'       15.3940   38.0240   24.0780 O.3    69  G69        -0.3307
   1486  C3'       16.6840   36.7170   25.5180 C.3    69  G69         0.1860
   1487  O3'       17.5880   35.6340   25.5330 O.3    69  G69        -0.3112
   1488  C2'       17.3750   38.0550   25.2930 C.3    69  G69         0.2309
   1489  O2'       18.3340   38.0160   24.2550 O.3    69  G69        -0.2156
   1490  C1'       16.1700   38.8910   24.8910 C.3    69  G69         0.2408
   1491  N1        15.8960   42.0370   28.9320 N.ar   69  G69        -0.1709
   1492  C2        16.8670   41.9460   27.9520 C.ar   69  G69         0.2606
   1493  N2        17.9070   42.7830   28.0370 N.pl3  69  G69        -0.0859
   1494  N3        16.8400   41.0940   26.9420 N.ar   69  G69        -0.1918
   1495  C4        15.7370   40.3120   26.9750 C.ar   69  G69         0.1723
   1496  C5        14.7200   40.3220   27.9040 C.ar   69  G69         0.1748
   1497  C6        14.7530   41.2350   28.9870 C.ar   69  G69         0.3023
   1498  O6        13.9040   41.3670   29.8900 O.2    69  G69        -0.2633
   1499  N7        13.7700   39.3630   27.5970 N.ar   69  G69        -0.2173
   1500  C8        14.2130   38.8070   26.5110 C.ar   69  G69         0.1817
   1501  N9        15.4050   39.3270   26.0660 N.ar   69  G69        -0.2693
   1502  OP1       12.7330   33.6320   25.7180 O.2    69  G69        -0.5172
   1503  OP2       12.1360   35.3890   27.4720 O.co2  69  G69        -0.4373
   1504  P         18.1090   35.1660   26.9660 P.3    70  C70         0.2141
   1505  C5'       20.3210   36.5560   27.2160 C.3    70  C70         0.1812
   1506  O5'       18.9330   36.4360   27.5150 O.3    70  C70        -0.3114
   1507  C4'       20.9530   37.7870   27.8250 C.3    70  C70         0.1773
   1508  O4'       19.9750   38.8490   27.8400 O.3    70  C70        -0.3307
   1509  C3'       21.3810   37.6730   29.2780 C.3    70  C70         0.1860
   1510  O3'       22.6660   37.0860   29.3810 O.3    70  C70        -0.3112
   1511  C2'       21.3710   39.1380   29.7150 C.3    70  C70         0.2309
   1512  O2'       22.4690   39.9160   29.2760 O.3    70  C70        -0.2156
   1513  C1'       20.0970   39.6260   29.0270 C.3    70  C70         0.2420
   1514  N1        18.8510   39.4760   29.8710 N.ar   70  C70        -0.2535
   1515  C2        18.7710   40.0630   31.1440 C.ar   70  C70         0.3532
   1516  O2        19.7190   40.7170   31.5940 O.2    70  C70        -0.2443
   1517  N3        17.6330   39.8950   31.8680 N.ar   70  C70        -0.1739
   1518  C4        16.6180   39.1820   31.3790 C.ar   70  C70         0.1759
   1519  N4        15.5330   39.0540   32.1400 N.pl3  70  C70        -0.1070
   1520  C5        16.6740   38.5680   30.0970 C.ar   70  C70         0.0566
   1521  C6        17.7950   38.7440   29.3920 C.ar   70  C70         0.0850
   1522  OP1       19.0360   34.0330   26.7760 O.2    70  C70        -0.5172
   1523  OP2       16.9020   34.9970   27.8000 O.co2  70  C70        -0.4373
   1524  P         22.8770   35.7970   30.3200 P.3    71  G71         0.2141
   1525  C5'       23.6680   37.4080   32.2360 C.3    71  G71         0.1812
   1526  O5'       22.7180   36.4670   31.7660 O.3    71  G71        -0.3114
   1527  C4'       23.1660   38.0570   33.5090 C.3    71  G71         0.1773
   1528  O4'       21.8530   38.6100   33.2530 O.3    71  G71        -0.3307
   1529  C3'       22.9760   37.1230   34.7010 C.3    71  G71         0.1860
   1530  O3'       24.1460   37.0440   35.5030 O.3    71  G71        -0.3112
   1531  C2'       21.8860   37.8280   35.4840 C.3    71  G71         0.2309
   1532  O2'       22.4110   38.8970   36.2450 O.3    71  G71        -0.2156
   1533  C1'       21.0080   38.3800   34.3670 C.3    71  G71         0.2408
   1534  N1        16.1210   37.0000   35.1650 N.ar   71  G71        -0.1709
   1535  C2        16.8990   37.8690   35.8850 C.ar   71  G71         0.2606
   1536  N2        16.3000   38.4450   36.9350 N.pl3  71  G71        -0.0859
   1537  N3        18.1620   38.1570   35.5900 N.ar   71  G71        -0.1918
   1538  C4        18.6090   37.4870   34.4990 C.ar   71  G71         0.1723
   1539  C5        17.9060   36.6060   33.7210 C.ar   71  G71         0.1748
   1540  C6        16.5620   36.3190   34.0390 C.ar   71  G71         0.3023
   1541  O6        15.7930   35.5450   33.4610 O.2    71  G71        -0.2633
   1542  N7        18.6900   36.1190   32.6940 N.ar   71  G71        -0.2173
   1543  C8        19.8360   36.7110   32.8580 C.ar   71  G71         0.1817
   1544  N9        19.8700   37.5530   33.9390 N.ar   71  G71        -0.2693
   1545  OP1       24.2670   35.3360   30.1240 O.2    71  G71        -0.5172
   1546  OP2       21.7920   34.8140   30.1340 O.co2  71  G71        -0.4373
   1547  P         25.3400   36.0410   35.1170 P.3    72  A72         0.2141
   1548  C5'       27.0980   36.7260   36.9580 C.3    72  A72         0.1812
   1549  O5'       26.0740   35.8120   36.5280 O.3    72  A72        -0.3114
   1550  C4'       27.3090   36.6400   38.4550 C.3    72  A72         0.1773
   1551  O4'       26.2310   37.3690   39.0810 O.3    72  A72        -0.3307
   1552  C3'       27.2720   35.2360   39.0490 C.3    72  A72         0.1860
   1553  O3'       28.5910   34.7360   39.2670 O.3    72  A72        -0.3112
   1554  C2'       26.5330   35.3950   40.3760 C.3    72  A72         0.2309
   1555  O2'       27.4090   35.5880   41.4720 O.3    72  A72        -0.2156
   1556  C1'       25.6790   36.6370   40.1600 C.3    72  A72         0.2408
   1557  N1        20.7140   37.4700   41.3250 N.ar   72  A72        -0.2040
   1558  C2        21.8320   37.9380   41.8890 C.ar   72  A72         0.2016
   1559  N3        23.0910   37.6820   41.5380 N.ar   72  A72        -0.2048
   1560  C4        23.1590   36.8430   40.4830 C.ar   72  A72         0.1692
   1561  C5        22.0910   36.2930   39.8150 C.ar   72  A72         0.1518
   1562  C6        20.8130   36.6310   40.2720 C.ar   72  A72         0.1919
   1563  N6        19.7030   36.1560   39.7040 N.pl3  72  A72        -0.1054
   1564  N7        22.5140   35.4860   38.7870 N.ar   72  A72        -0.2193
   1565  C8        23.8200   35.5570   38.8450 C.ar   72  A72         0.1816
   1566  N9        24.2820   36.3530   39.8480 N.ar   72  A72        -0.2693
   1567  OP1       26.2860   36.8370   34.2780 O.2    72  A72        -0.5172
   1568  OP2       24.7380   34.7610   34.6560 O.co2  72  A72        -0.4373
   1569  P         29.3220   33.8250   38.1680 P.3    73  G73         0.2141
   1570  C5'       28.9970   31.3030   38.9750 C.3    73  G73         0.1812
   1571  O5'       29.7800   32.5070   38.9720 O.3    73  G73        -0.3114
   1572  C4'       28.0710   31.2280   40.1820 C.3    73  G73         0.1773
   1573  O4'       27.0320   32.2470   40.1010 O.3    73  G73        -0.3307
   1574  C3'       27.3030   29.9180   40.3200 C.3    73  G73         0.1860
   1575  O3'       27.9820   29.0420   41.1700 O.3    73  G73        -0.3112
   1576  C2'       25.9780   30.3400   40.9440 C.3    73  G73         0.2309
   1577  O2'       26.0770   30.5990   42.3320 O.3    73  G73        -0.2156
   1578  C1'       25.7460   31.6480   40.2100 C.3    73  G73         0.2408
   1579  N1        21.3590   30.9050   37.6400 N.ar   73  G73        -0.1709
   1580  C2        21.5760   30.9050   38.9950 C.ar   73  G73         0.2606
   1581  N2        20.5120   30.6870   39.7820 N.pl3  73  G73        -0.0859
   1582  N3        22.7650   31.1080   39.5460 N.ar   73  G73        -0.1918
   1583  C4        23.7490   31.3140   38.6350 C.ar   73  G73         0.1723
   1584  C5        23.6230   31.3300   37.2680 C.ar   73  G73         0.1748
   1585  C6        22.3520   31.1150   36.6850 C.ar   73  G73         0.3023
   1586  O6        22.0680   31.0970   35.4810 O.2    73  G73        -0.2633
   1587  N7        24.8440   31.5670   36.6620 N.ar   73  G73        -0.2173
   1588  C8        25.6700   31.6870   37.6630 C.ar   73  G73         0.1817
   1589  N9        25.0860   31.5430   38.8970 N.ar   73  G73        -0.2693
   1590  OP1       30.5310   34.5760   37.7580 O.3    73  G73        -0.4373
   1591  OP2       28.3080   33.4270   37.1470 O.co2  73  G73        -0.5172
   1592  P         28.0080   27.4920   40.8070 P.3    74  G74         0.2141
   1593  C5'       26.0430   26.5910   42.2450 C.3    74  G74         0.1812
   1594  O5'       26.4850   27.0280   40.9710 O.3    74  G74        -0.3114
   1595  C4'       24.5320   26.5290   42.3660 C.3    74  G74         0.1773
   1596  O4'       23.8910   27.7060   41.8010 O.3    74  G74        -0.3307
   1597  C3'       23.8870   25.3550   41.6550 C.3    74  G74         0.1860
   1598  O3'       24.0190   24.1810   42.4340 O.3    74  G74        -0.3112
   1599  C2'       22.4500   25.8660   41.5530 C.3    74  G74         0.2309
   1600  O2'       21.7420   25.8170   42.7740 O.3    74  G74        -0.2156
   1601  C1'       22.6910   27.3220   41.1600 C.3    74  G74         0.2408
   1602  N1        20.2160   27.3090   36.6960 N.ar   74  G74        -0.1709
   1603  C2        19.7380   27.1020   37.9720 C.ar   74  G74         0.2606
   1604  N2        18.4290   26.8540   38.1020 N.pl3  74  G74        -0.0859
   1605  N3        20.4930   27.1310   39.0650 N.ar   74  G74        -0.1918
   1606  C4        21.7990   27.3980   38.7910 C.ar   74  G74         0.1723
   1607  C5        22.3780   27.6250   37.5600 C.ar   74  G74         0.1748
   1608  C6        21.5530   27.5850   36.3970 C.ar   74  G74         0.3023
   1609  O6        21.8900   27.7680   35.2160 O.2    74  G74        -0.2633
   1610  N7        23.7440   27.8570   37.7010 N.ar   74  G74        -0.2173
   1611  C8        23.9520   27.7670   38.9850 C.ar   74  G74         0.1817
   1612  N9        22.8180   27.4960   39.7130 N.ar   74  G74        -0.2693
   1613  OP1       28.8340   26.8410   41.8470 O.3    74  G74        -0.4373
   1614  OP2       28.3860   27.3580   39.3790 O.co2  74  G74        -0.5172
   1615  P         24.1560   22.7490   41.7210 P.3    75  G75         0.2141
   1616  C5'       21.6750   22.2000   42.3530 C.3    75  G75         0.1812
   1617  O5'       22.6580   22.3440   41.3260 O.3    75  G75        -0.3114
   1618  C4'       20.2540   22.2400   41.8130 C.3    75  G75         0.1773
   1619  O4'       19.9700   23.4900   41.1350 O.3    75  G75        -0.3307
   1620  C3'       19.9320   21.1880   40.7680 C.3    75  G75         0.1860
   1621  O3'       19.6710   19.9510   41.4040 O.3    75  G75        -0.3112
   1622  C2'       18.6970   21.8060   40.1210 C.3    75  G75         0.2309
   1623  O2'       17.5550   21.7680   40.9450 O.3    75  G75        -0.2156
   1624  C1'       19.1510   23.2520   40.0000 C.3    75  G75         0.2408
   1625  N1        18.9970   23.5930   34.9040 N.ar   75  G75        -0.1709
   1626  C2        17.9790   23.3000   35.7820 C.ar   75  G75         0.2606
   1627  N2        16.7670   23.0700   35.2460 N.pl3  75  G75        -0.0859
   1628  N3        18.1410   23.2400   37.1020 N.ar   75  G75        -0.1918
   1629  C4        19.4190   23.5010   37.4840 C.ar   75  G75         0.1723
   1630  C5        20.4970   23.8030   36.6820 C.ar   75  G75         0.1748
   1631  C6        20.3070   23.8650   35.2830 C.ar   75  G75         0.3023
   1632  O6        21.1480   24.1220   34.4220 O.2    75  G75        -0.2633
   1633  N7        21.6430   24.0060   37.4410 N.ar   75  G75        -0.2173
   1634  C8        21.2430   23.8270   38.6670 C.ar   75  G75         0.1817
   1635  N9        19.9040   23.5190   38.7730 N.ar   75  G75        -0.2693
   1636  OP1       24.6250   21.7800   42.7360 O.3    75  G75        -0.4373
   1637  OP2       24.9120   22.9440   40.4630 O.co2  75  G75        -0.5172
   1638  P         20.3810   18.6320   40.8580 P.3    76  C76         0.2141
   1639  C5'       18.0850   18.1580   39.6450 C.3    76  C76         0.1812
   1640  O5'       19.5160   18.2850   39.5550 O.3    76  C76        -0.3114
   1641  C4'       17.4280   18.2170   38.2750 C.3    76  C76         0.1773
   1642  O4'       17.5950   19.5350   37.6860 O.3    76  C76        -0.3307
   1643  C3'       18.0450   17.2970   37.2370 C.3    76  C76         0.1860
   1644  O3'       17.6190   15.9560   37.3900 O.3    76  C76        -0.3112
   1645  C2'       17.5690   17.9470   35.9420 C.3    76  C76         0.2309
   1646  O2'       16.2270   17.6990   35.5910 O.3    76  C76        -0.2156
   1647  C1'       17.7360   19.4180   36.2820 C.3    76  C76         0.2420
   1648  N1        19.0620   19.9130   35.8100 N.ar   76  C76        -0.2535
   1649  C2        19.2390   20.1460   34.4330 C.ar   76  C76         0.3532
   1650  O2        18.2940   19.9530   33.6540 O.2    76  C76        -0.2443
   1651  N3        20.4480   20.5890   33.9880 N.ar   76  C76        -0.1739
   1652  C4        21.4530   20.7930   34.8500 C.ar   76  C76         0.1759
   1653  N4        22.6210   21.2320   34.3570 N.pl3  76  C76        -0.1070
   1654  C5        21.2940   20.5530   36.2530 C.ar   76  C76         0.0566
   1655  C6        20.0980   20.1170   36.6810 C.ar   76  C76         0.0850
   1656  OP1       20.1570   17.5400   41.8320 O.3    76  C76        -0.4373
   1657  OP2       21.7580   19.0010   40.4660 O.co2  76  C76        -0.5172
   1658  P         18.6240   14.7800   36.9700 P.3    77  G77         0.2141
   1659  C5'       17.3480   14.3980   34.7090 C.3    77  G77         0.1812
   1660  O5'       18.5530   14.7740   35.3710 O.3    77  G77        -0.3114
   1661  C4'       17.3760   14.8550   33.2670 C.3    77  G77         0.1773
   1662  O4'       17.7730   16.2470   33.1930 O.3    77  G77        -0.3307
   1663  C3'       18.4080   14.1590   32.3990 C.3    77  G77         0.1860
   1664  O3'       17.9410   12.8870   32.0380 O.3    77  G77        -0.3112
   1665  C2'       18.4860   15.1340   31.2280 C.3    77  G77         0.2309
   1666  O2'       17.3700   15.1120   30.3540 O.3    77  G77        -0.2156
   1667  C1'       18.4980   16.4520   31.9950 C.3    77  G77         0.2408
   1668  N1        22.5950   18.6910   30.0430 N.ar   77  G77        -0.1709
   1669  C2        21.4160   18.3120   29.4360 C.ar   77  G77         0.2606
   1670  N2        21.2710   18.5590   28.1280 N.pl3  77  G77        -0.0859
   1671  N3        20.4190   17.7270   30.0800 N.ar   77  G77        -0.1918
   1672  C4        20.6890   17.5350   31.3980 C.ar   77  G77         0.1723
   1673  C5        21.8310   17.8640   32.0990 C.ar   77  G77         0.1748
   1674  C6        22.8930   18.4990   31.3990 C.ar   77  G77         0.3023
   1675  O6        23.9880   18.8740   31.8440 O.2    77  G77        -0.2633
   1676  N7        21.7050   17.4990   33.4350 N.ar   77  G77        -0.2173
   1677  C8        20.5090   16.9650   33.5030 C.ar   77  G77         0.1817
   1678  N9        19.8360   16.9530   32.3030 N.ar   77  G77        -0.2693
   1679  OP1       18.0620   13.5020   37.4680 O.3    77  G77        -0.4373
   1680  OP2       20.0050   15.1910   37.3350 O.co2  77  G77        -0.5172
   1681  P         18.9560   11.6720   31.8060 P.3    78  C78         0.2141
   1682  C5'       21.0100   11.8630   30.1580 C.3    78  C78         0.1812
   1683  O5'       19.6310   12.0700   30.4150 O.3    78  C78        -0.3114
   1684  C4'       21.4400   12.9400   29.1860 C.3    78  C78         0.1773
   1685  O4'       21.7360   14.1660   29.8890 O.3    78  C78        -0.3307
   1686  C3'       22.7230   12.6590   28.4410 C.3    78  C78         0.1860
   1687  O3'       22.4840   11.7460   27.3730 O.3    78  C78        -0.3112
   1688  C2'       23.0750   14.0580   27.9460 C.3    78  C78         0.2309
   1689  O2'       22.3720   14.4100   26.7670 O.3    78  C78        -0.2156
   1690  C1'       22.6320   14.9380   29.1110 C.3    78  C78         0.2420
   1691  N1        23.7490   15.4300   29.9870 N.ar   78  C78        -0.2535
   1692  C2        24.6610   16.3970   29.5370 C.ar   78  C78         0.3532
   1693  O2        24.5600   16.8680   28.4000 O.2    78  C78        -0.2443
   1694  N3        25.6440   16.8210   30.3700 N.ar   78  C78        -0.1739
   1695  C4        25.7430   16.3150   31.6010 C.ar   78  C78         0.1759
   1696  N4        26.7340   16.7520   32.3860 N.pl3  78  C78        -0.1070
   1697  C5        24.8310   15.3330   32.0850 C.ar   78  C78         0.0566
   1698  C6        23.8650   14.9280   31.2520 C.ar   78  C78         0.0850
   1699  OP1       18.1310   10.4610   31.5770 O.2    78  C78        -0.5172
   1700  OP2       20.0040   11.6640   32.8580 O.co2  78  C78        -0.4373
   1701  P         23.6890   10.8180   26.9020 P.3    79  C79         0.2141
   1702  C5'       24.3780   12.4090   24.9180 C.3    79  C79         0.1812
   1703  O5'       24.6830   11.8440   26.1930 O.3    79  C79        -0.3114
   1704  C4'       25.6540   12.8400   24.2150 C.3    79  C79         0.1773
   1705  O4'       26.3330   13.8590   24.9960 O.3    79  C79        -0.3307
   1706  C3'       26.6550   11.7120   24.0270 C.3    79  C79         0.1860
   1707  O3'       27.2910   11.8020   22.7520 O.3    79  C79        -0.3112
   1708  C2'       27.6130   11.9450   25.1890 C.3    79  C79         0.2309
   1709  O2'       28.8780   11.4070   24.9160 O.3    79  C79        -0.2156
   1710  C1'       27.6620   13.4650   25.2410 C.3    79  C79         0.2420
   1711  N1        28.1030   14.0230   26.5550 N.ar   79  C79        -0.2535
   1712  C2        29.1690   14.9390   26.6370 C.ar   79  C79         0.3532
   1713  O2        29.7550   15.3010   25.6130 O.2    79  C79        -0.2443
   1714  N3        29.5390   15.4140   27.8570 N.ar   79  C79        -0.1739
   1715  C4        28.8980   15.0100   28.9570 C.ar   79  C79         0.1759
   1716  N4        29.2860   15.4940   30.1340 N.pl3  79  C79        -0.1070
   1717  C5        27.8160   14.0870   28.9010 C.ar   79  C79         0.0566
   1718  C6        27.4590   13.6270   27.6940 C.ar   79  C79         0.0850
   1719  OP1       23.1790    9.8320   25.9210 O.2    79  C79        -0.5172
   1720  OP2       24.3930   10.3680   28.1220 O.co2  79  C79        -0.4373
   1721  P         26.6850   11.0950   21.4460 P.3    80  G80         0.2141
   1722  C5'       24.5090   11.5920   20.1200 C.3    80  G80         0.1812
   1723  O5'       25.3830   11.9540   21.1660 O.3    80  G80        -0.3114
   1724  C4'       23.7150   12.8280   19.7630 C.3    80  G80         0.1773
   1725  O4'       24.5490   13.6300   18.8910 O.3    80  G80        -0.3307
   1726  C3'       22.3850   12.6060   19.0500 C.3    80  G80         0.1860
   1727  O3'       21.3700   13.3870   19.6980 O.3    80  G80        -0.3112
   1728  C2'       22.6720   13.1240   17.6380 C.3    80  G80         0.2309
   1729  O2'       21.5570   13.7130   17.0000 O.3    80  G80        -0.2156
   1730  C1'       23.7050   14.2070   17.9310 C.3    80  G80         0.2408
   1731  N1        26.9000   17.7520   16.2090 N.ar   80  G80        -0.1709
   1732  C2        26.3000   17.6450   17.4400 C.ar   80  G80         0.2606
   1733  N2        26.5840   18.6060   18.3260 N.pl3  80  G80        -0.0859
   1734  N3        25.4740   16.6590   17.7720 N.ar   80  G80        -0.1918
   1735  C4        25.2990   15.7670   16.7610 C.ar   80  G80         0.1723
   1736  C5        25.8530   15.7820   15.5010 C.ar   80  G80         0.1748
   1737  C6        26.7230   16.8420   15.1660 C.ar   80  G80         0.3023
   1738  O6        27.2980   17.0160   14.0910 O.2    80  G80        -0.2633
   1739  N7        25.4300   14.6970   14.7420 N.ar   80  G80        -0.2173
   1740  C8        24.6420   14.0520   15.5550 C.ar   80  G80         0.1817
   1741  N9        24.5120   14.6450   16.7940 N.ar   80  G80        -0.2693
   1742  OP1       26.2940    9.6960   21.7440 O.3    80  G80        -0.4373
   1743  OP2       27.6230   11.3830   20.3490 O.co2  80  G80        -0.5172
   1744  P         20.5470   12.8650   20.9730 P.3    81  A81         0.2141
   1745  C5'       21.3850   14.9770   22.2720 C.3    81  A81         0.1812
   1746  O5'       21.3360   13.5640   22.1760 O.3    81  A81        -0.3114
   1747  C4'       22.3650   15.3710   23.3580 C.3    81  A81         0.1773
   1748  O4'       23.7330   15.3270   22.8650 O.3    81  A81        -0.3307
   1749  C3'       22.1770   16.7770   23.8950 C.3    81  A81         0.1860
   1750  O3'       21.1970   16.7360   24.9270 O.3    81  A81        -0.3112
   1751  C2'       23.5660   17.0330   24.4750 C.3    81  A81         0.2309
   1752  O2'       23.7150   16.5200   25.7820 O.3    81  A81        -0.2156
   1753  C1'       24.5120   16.2920   23.5320 C.3    81  A81         0.2408
   1754  N1        28.4020   19.5370   22.6030 N.ar   81  A81        -0.2040
   1755  C2        28.1530   18.7200   23.6280 C.ar   81  A81         0.2016
   1756  N3        27.1170   17.9010   23.8060 N.ar   81  A81        -0.2048
   1757  C4        26.2660   17.9530   22.7670 C.ar   81  A81         0.1692
   1758  C5        26.3990   18.7400   21.6410 C.ar   81  A81         0.1518
   1759  C6        27.5330   19.5720   21.5750 C.ar   81  A81         0.1919
   1760  N6        27.7910   20.3970   20.5560 N.pl3  81  A81        -0.1054
   1761  N7        25.3330   18.5360   20.7870 N.ar   81  A81        -0.2193
   1762  C8        24.5920   17.6420   21.4010 C.ar   81  A81         0.1816
   1763  N9        25.1000   17.2360   22.5970 N.ar   81  A81        -0.2693
   1764  OP1       20.7270   11.3930   21.0960 O.3    81  A81        -0.4373
   1765  OP2       19.1920   13.4490   20.9090 O.co2  81  A81        -0.5172
   1766  P         19.7510   17.4180   24.8510 P.3    82  A82         0.2141
   1767  C5'       19.6280   19.0410   22.7760 C.3    82  A82         0.1812
   1768  O5'       20.0490   18.8050   24.1170 O.3    82  A82        -0.3114
   1769  C4'       20.6280   19.9910   22.1660 C.3    82  A82         0.1773
   1770  O4'       21.7860   19.2660   21.7080 O.3    82  A82        -0.3307
   1771  C3'       20.1830   20.7660   20.9490 C.3    82  A82         0.1860
   1772  O3'       19.3980   21.8550   21.3920 O.3    82  A82        -0.3112
   1773  C2'       21.5460   21.2210   20.4670 C.3    82  A82         0.2309
   1774  O2'       22.0980   22.1860   21.3410 O.3    82  A82        -0.2156
   1775  C1'       22.3230   19.9160   20.5760 C.3    82  A82         0.2408
   1776  N1        23.5200   18.8430   15.6800 N.ar   82  A82        -0.2040
   1777  C2        23.9090   19.8370   16.4920 C.ar   82  A82         0.2016
   1778  N3        23.5660   20.0680   17.7630 N.ar   82  A82        -0.2048
   1779  C4        22.7130   19.1210   18.1930 C.ar   82  A82         0.1692
   1780  C5        22.2200   18.0450   17.4710 C.ar   82  A82         0.1518
   1781  C6        22.6580   17.9130   16.1440 C.ar   82  A82         0.1919
   1782  N6        22.2580   16.9190   15.3490 N.pl3  82  A82        -0.1054
   1783  N7        21.3640   17.2780   18.2350 N.ar   82  A82        -0.2193
   1784  C8        21.3540   17.8970   19.3870 C.ar   82  A82         0.1816
   1785  N9        22.1450   19.0140   19.4380 N.ar   82  A82        -0.2693
   1786  OP1       19.3460   17.7470   26.2420 O.3    82  A82        -0.4373
   1787  OP2       18.8810   16.5720   24.0010 O.co2  82  A82        -0.5172
   1788  P         18.4290   22.6260   20.3920 P.3    83  G83         0.2141
   1789  C5'       19.9790   24.5290   19.4790 C.3    83  G83         0.1812
   1790  O5'       19.4890   23.2030   19.3510 O.3    83  G83        -0.3114
   1791  C4'       20.8310   24.8440   18.2700 C.3    83  G83         0.1773
   1792  O4'       21.7090   23.7180   17.9840 O.3    83  G83        -0.3307
   1793  C3'       20.0600   24.9810   16.9700 C.3    83  G83         0.1860
   1794  O3'       19.4890   26.2460   16.8700 O.3    83  G83        -0.3112
   1795  C2'       21.2090   24.8540   15.9930 C.3    83  G83         0.2309
   1796  O2'       22.0620   25.9870   16.0470 O.3    83  G83        -0.2156
   1797  C1'       21.8980   23.6390   16.5820 C.3    83  G83         0.2408
   1798  N1        22.1900   20.5000   12.6570 N.ar   83  G83        -0.1709
   1799  C2        22.7910   21.7080   12.8970 C.ar   83  G83         0.2606
   1800  N2        23.6060   22.1570   11.9430 N.pl3  83  G83        -0.0859
   1801  N3        22.6240   22.4360   13.9870 N.ar   83  G83        -0.1918
   1802  C4        21.7660   21.8440   14.8440 C.ar   83  G83         0.1723
   1803  C5        21.1020   20.6390   14.7120 C.ar   83  G83         0.1748
   1804  C6        21.3140   19.8800   13.5320 C.ar   83  G83         0.3023
   1805  O6        20.8440   18.7880   13.2010 O.2    83  G83        -0.2633
   1806  N7        20.3290   20.3940   15.8370 N.ar   83  G83        -0.2173
   1807  C8        20.5330   21.4450   16.6020 C.ar   83  G83         0.1817
   1808  N9        21.3990   22.3690   16.0560 N.ar   83  G83        -0.2693
   1809  OP1       17.8130   23.7320   21.1540 O.3    83  G83        -0.4373
   1810  OP2       17.5810   21.6480   19.6620 O.co2  83  G83        -0.5172
   1811  P         18.0830   26.3960   16.1340 P.3    84  G84         0.2141
   1812  C5'       19.1940   27.3350   13.9580 C.3    84  G84         0.1812
   1813  O5'       18.4260   26.3200   14.5750 O.3    84  G84        -0.3114
   1814  C4'       19.8880   26.7560   12.7450 C.3    84  G84         0.1773
   1815  O4'       20.3640   25.4110   13.0140 O.3    84  G84        -0.3307
   1816  C3'       18.9740   26.4930   11.5700 C.3    84  G84         0.1860
   1817  O3'       18.5960   27.6790   10.9380 O.3    84  G84        -0.3112
   1818  C2'       19.8590   25.5970   10.7070 C.3    84  G84         0.2309
   1819  O2'       20.8270   26.3020    9.9500 O.3    84  G84        -0.2156
   1820  C1'       20.5030   24.7210   11.7850 C.3    84  G84         0.2408
   1821  N1        19.5580   20.2670    9.5350 N.ar   84  G84        -0.1709
   1822  C2        20.3030   21.3380    9.0860 C.ar   84  G84         0.2606
   1823  N2        20.8710   21.2150    7.8800 N.pl3  84  G84        -0.0859
   1824  N3        20.4780   22.4610    9.7750 N.ar   84  G84        -0.1918
   1825  C4        19.8410   22.4270   10.9730 C.ar   84  G84         0.1723
   1826  C5        19.0730   21.4150   11.5070 C.ar   84  G84         0.1748
   1827  C6        18.8940   20.2240   10.7630 C.ar   84  G84         0.3023
   1828  O6        18.2500   19.2150   11.0810 O.2    84  G84        -0.2633
   1829  N7        18.5910   21.7680   12.7570 N.ar   84  G84        -0.2173
   1830  C8        19.0710   22.9700   12.9450 C.ar   84  G84         0.1817
   1831  N9        19.8380   23.4320   11.9040 N.ar   84  G84        -0.2693
   1832  OP1       17.6200   27.7620   16.4880 O.3    84  G84        -0.4373
   1833  OP2       17.2430   25.1980   16.4170 O.co2  84  G84        -0.5172
   1834  P         17.0850   27.7370   10.4220 P.3    85  G85         0.2141
   1835  C5'       18.0340   27.3410    7.9780 C.3    85  G85         0.1812
   1836  O5'       17.1310   26.9620    9.0190 O.3    85  G85        -0.3114
   1837  C4'       18.2520   26.2040    6.9940 C.3    85  G85         0.1773
   1838  O4'       18.7640   25.0170    7.6550 O.3    85  G85        -0.3307
   1839  C3'       16.9950   25.6900    6.3180 C.3    85  G85         0.1860
   1840  O3'       16.5630   26.5860    5.2910 O.3    85  G85        -0.3112
   1841  C2'       17.4810   24.3360    5.7960 C.3    85  G85         0.2309
   1842  O2'       18.2640   24.4210    4.6150 O.3    85  G85        -0.2156
   1843  C1'       18.3110   23.8500    6.9860 C.3    85  G85         0.2408
   1844  N1        15.6800   19.5150    8.0270 N.ar   85  G85        -0.1709
   1845  C2        16.2720   19.8890    6.8490 C.ar   85  G85         0.2606
   1846  N2        16.1640   19.0220    5.8370 N.pl3  85  G85        -0.0859
   1847  N3        16.9360   21.0280    6.6680 N.ar   85  G85        -0.1918
   1848  C4        16.9660   21.7950    7.7910 C.ar   85  G85         0.1723
   1849  C5        16.3980   21.4890    9.0140 C.ar   85  G85         0.1748
   1850  C6        15.6990   20.2750    9.1850 C.ar   85  G85         0.3023
   1851  O6        15.1390   19.8630   10.2040 O.2    85  G85        -0.2633
   1852  N7        16.6220   22.5040    9.9250 N.ar   85  G85        -0.2173
   1853  C8        17.3070   23.3920    9.2530 C.ar   85  G85         0.1817
   1854  N9        17.5630   23.0410    7.9500 N.ar   85  G85        -0.2693
   1855  OP1       16.7250   29.1560   10.1960 O.2    85  G85        -0.5172
   1856  OP2       16.2800   26.9230   11.3540 O.co2  85  G85        -0.4373
   1857  P         15.0010   26.8960    5.0970 P.3    86  U86         0.2141
   1858  C5'       14.7170   24.9900    3.2780 C.3    86  U86         0.1812
   1859  O5'       14.3950   25.5180    4.5540 O.3    86  U86        -0.3114
   1860  C4'       14.1320   23.5930    3.1360 C.3    86  U86         0.1773
   1861  O4'       14.7830   22.6670    4.0510 O.3    86  U86        -0.3307
   1862  C3'       12.6590   23.4760    3.4980 C.3    86  U86         0.1860
   1863  O3'       11.8360   23.8680    2.4390 O.3    86  U86        -0.3112
   1864  C2'       12.5340   21.9840    3.7590 C.3    86  U86         0.2309
   1865  O2'       12.4610   21.2130    2.5700 O.3    86  U86        -0.2156
   1866  C1'       13.8230   21.7520    4.5540 C.3    86  U86         0.2420
   1867  N1        13.6020   21.9530    6.0330 N.ar   86  U86        -0.2534
   1868  C2        12.9900   20.9420    6.7600 C.ar   86  U86         0.3546
   1869  O2        12.6280   19.8850    6.2730 O.2    86  U86        -0.2443
   1870  N3        12.8130   21.2060    8.1000 N.ar   86  U86        -0.1530
   1871  C4        13.1690   22.3560    8.7790 C.ar   86  U86         0.2846
   1872  O4        12.9470   22.4400    9.9870 O.2    86  U86        -0.2650
   1873  C5        13.7960   23.3690    7.9590 C.ar   86  U86         0.0814
   1874  C6        13.9810   23.1370    6.6520 C.ar   86  U86         0.0870
   1875  OP1       14.8920   27.9420    4.0570 O.2    86  U86        -0.5172
   1876  OP2       14.3970   27.1060    6.4360 O.co2  86  U86        -0.4373
   1877  P         10.4300   24.5540    2.7620 P.3    87  G87         0.2141
   1878  C5'        9.2110   22.3250    2.1120 C.3    87  G87         0.1812
   1879  O5'        9.5110   23.2890    3.1130 O.3    87  G87        -0.3114
   1880  C4'        8.4650   21.1390    2.6990 C.3    87  G87         0.1773
   1881  O4'        9.2980   20.4230    3.6580 O.3    87  G87        -0.3307
   1882  C3'        7.2050   21.4960    3.4780 C.3    87  G87         0.1860
   1883  O3'        6.0980   21.6650    2.6180 O.3    87  G87        -0.3112
   1884  C2'        7.0530   20.2810    4.3830 C.3    87  G87         0.2309
   1885  O2'        6.5440   19.1630    3.6930 O.3    87  G87        -0.2156
   1886  C1'        8.5040   20.0390    4.7750 C.3    87  G87         0.2408
   1887  N1         8.4210   20.3030    9.8850 N.ar   87  G87        -0.1709
   1888  C2         7.8730   19.3630    9.0550 C.ar   87  G87         0.2606
   1889  N2         7.2420   18.3770    9.6740 N.pl3  87  G87        -0.0859
   1890  N3         7.9490   19.3830    7.7300 N.ar   87  G87        -0.1918
   1891  C4         8.6390   20.4700    7.2840 C.ar   87  G87         0.1723
   1892  C5         9.2190   21.4700    8.0360 C.ar   87  G87         0.1748
   1893  C6         9.1260   21.4160    9.4480 C.ar   87  G87         0.3023
   1894  O6         9.5700   22.2060   10.2850 O.2    87  G87        -0.2633
   1895  N7         9.8310   22.4030    7.2180 N.ar   87  G87        -0.2173
   1896  C8         9.6210   21.9640    6.0110 C.ar   87  G87         0.1817
   1897  N9         8.9060   20.7940    5.9680 N.ar   87  G87        -0.2693
   1898  OP1        9.9430   25.1780    1.5070 O.2    87  G87        -0.5172
   1899  OP2       10.5700   25.3840    3.9780 O.co2  87  G87        -0.4373
   1900  P          4.9670   22.7130    3.0330 P.3    88  C88         0.2141
   1901  C5'        3.4420   20.7860    3.9630 C.3    88  C88         0.1812
   1902  O5'        4.2240   21.9480    4.2200 O.3    88  C88        -0.3114
   1903  C4'        2.9820   20.1970    5.2760 C.3    88  C88         0.1773
   1904  O4'        4.1400   19.9000    6.0920 O.3    88  C88        -0.3307
   1905  C3'        2.2110   21.1420    6.1790 C.3    88  C88         0.1860
   1906  O3'        0.8870   21.3000    5.7690 O.3    88  C88        -0.3112
   1907  C2'        2.3150   20.3990    7.4980 C.3    88  C88         0.2309
   1908  O2'        1.5860   19.1890    7.5230 O.3    88  C88        -0.2156
   1909  C1'        3.7980   20.0670    7.4600 C.3    88  C88         0.2420
   1910  N1         4.6510   21.1030    8.1450 N.ar   88  C88        -0.2535
   1911  C2         4.7690   21.0420    9.5400 C.ar   88  C88         0.3532
   1912  O2         4.1760   20.1470   10.1570 O.2    88  C88        -0.2443
   1913  N3         5.5350   21.9610   10.1850 N.ar   88  C88        -0.1739
   1914  C4         6.1690   22.9120    9.4950 C.ar   88  C88         0.1759
   1915  N4         6.9080   23.7880   10.1840 N.pl3  88  C88        -0.1070
   1916  C5         6.0610   22.9950    8.0720 C.ar   88  C88         0.0566
   1917  C6         5.3000   22.0830    7.4440 C.ar   88  C88         0.0850
   1918  OP1        4.0620   22.8770    1.8790 O.2    88  C88        -0.5172
   1919  OP2        5.5860   23.9130    3.6330 O.co2  88  C88        -0.4373
   1920  P          0.2130   22.7300    5.9640 P.3    89  A89         0.2141
   1921  C5'       -1.0030   22.1730    8.1740 C.3    89  A89         0.1812
   1922  O5'        0.0840   22.8320    7.5520 O.3    89  A89        -0.3114
   1923  C4'       -0.9250   22.2190    9.6860 C.3    89  A89         0.1773
   1924  O4'        0.3830   21.7870   10.1330 O.3    89  A89        -0.3307
   1925  C3'       -1.0660   23.5920   10.3200 C.3    89  A89         0.1860
   1926  O3'       -2.4090   24.0060   10.3370 O.3    89  A89        -0.3112
   1927  C2'       -0.5500   23.2630   11.7110 C.3    89  A89         0.2309
   1928  O2'       -1.4690   22.4850   12.4480 O.3    89  A89        -0.2156
   1929  C1'        0.6940   22.4630   11.3360 C.3    89  A89         0.2408
   1930  N1         4.2300   25.5230   13.4510 N.ar   89  A89        -0.2040
   1931  C2         3.2720   24.7540   13.9920 C.ar   89  A89         0.2016
   1932  N3         2.3790   23.9740   13.3760 N.ar   89  A89        -0.2048
   1933  C4         2.5400   24.0230   12.0400 C.ar   89  A89         0.1692
   1934  C5         3.4760   24.7610   11.3340 C.ar   89  A89         0.1518
   1935  C6         4.3570   25.5430   12.1030 C.ar   89  A89         0.1919
   1936  N6         5.3050   26.2900   11.5440 N.pl3  89  A89        -0.1054
   1937  N7         3.3510   24.5710    9.9650 N.ar   89  A89        -0.2193
   1938  C8         2.3470   23.7260    9.8750 C.ar   89  A89         0.1816
   1939  N9         1.8170   23.3540   11.0860 N.ar   89  A89        -0.2693
   1940  OP1       -1.1290   22.6820    5.3460 O.2    89  A89        -0.5172
   1941  OP2        1.1490   23.7790    5.5130 O.co2  89  A89        -0.4373
   1942  P         -2.7590   25.5600   10.3610 P.3    90  G90         0.2141
   1943  C5'       -3.4520   25.5730   12.8690 C.3    90  G90         0.1812
   1944  O5'       -2.5060   25.9590   11.8830 O.3    90  G90        -0.3114
   1945  C4'       -2.9400   25.9260   14.2460 C.3    90  G90         0.1773
   1946  O4'       -1.6110   25.3660   14.4050 O.3    90  G90        -0.3307
   1947  C3'       -2.7460   27.4140   14.4920 C.3    90  G90         0.1860
   1948  O3'       -3.9670   28.0320   14.8620 O.3    90  G90        -0.3112
   1949  C2'       -1.7360   27.3670   15.6320 C.3    90  G90         0.2309
   1950  O2'       -2.2980   27.0010   16.8790 O.3    90  G90        -0.2156
   1951  C1'       -0.7930   26.2760   15.1220 C.3    90  G90         0.2408
   1952  N1         3.4020   29.1280   15.0380 N.ar   90  G90        -0.1709
   1953  C2         2.6090   28.7450   16.1030 C.ar   90  G90         0.2606
   1954  N2         2.9520   29.1670   17.3260 N.pl3  90  G90        -0.0859
   1955  N3         1.5330   27.9860   15.9800 N.ar   90  G90        -0.1918
   1956  C4         1.2980   27.6290   14.6920 C.ar   90  G90         0.1723
   1957  C5         2.0190   27.9530   13.5650 C.ar   90  G90         0.1748
   1958  C6         3.1730   28.7660   13.7030 C.ar   90  G90         0.3023
   1959  O6         3.9380   29.1560   12.8080 O.2    90  G90        -0.2633
   1960  N7         1.4490   27.3800   12.4340 N.ar   90  G90        -0.2173
   1961  C8         0.4060   26.7410   12.8970 C.ar   90  G90         0.1817
   1962  N9         0.2560   26.8420   14.2640 N.ar   90  G90        -0.2693
   1963  OP1       -4.2030   25.6770   10.0600 O.3    90  G90        -0.4373
   1964  OP2       -1.7750   26.3010    9.5370 O.co2  90  G90        -0.5172
   1965  P         -4.4040   29.4550   14.2600 P.3    91  A91         0.2141
   1966  C5'       -3.8080   30.3610   16.6360 C.3    91  A91         0.1812
   1967  O5'       -3.6710   30.4990   15.2210 O.3    91  A91        -0.3114
   1968  C4'       -2.6650   31.0310   17.3730 C.3    91  A91         0.1773
   1969  O4'       -1.4170   30.3180   17.1760 O.3    91  A91        -0.3307
   1970  C3'       -2.3440   32.4380   16.9090 C.3    91  A91         0.1860
   1971  O3'       -3.2530   33.3530   17.4510 O.3    91  A91        -0.3112
   1972  C2'       -0.9590   32.6080   17.5110 C.3    91  A91         0.2309
   1973  O2'       -0.9910   32.8380   18.9080 O.3    91  A91        -0.2156
   1974  C1'       -0.3520   31.2540   17.1490 C.3    91  A91         0.2408
   1975  N1         3.6790   32.8440   14.3870 N.ar   91  A91        -0.2040
   1976  C2         3.3820   32.9330   15.6910 C.ar   91  A91         0.2016
   1977  N3         2.3090   32.4880   16.3450 N.ar   91  A91        -0.2048
   1978  C4         1.4590   31.8910   15.4970 C.ar   91  A91         0.1692
   1979  C5         1.6160   31.7270   14.1280 C.ar   91  A91         0.1518
   1980  C6         2.8040   32.2430   13.5630 C.ar   91  A91         0.1919
   1981  N6         3.1160   32.1750   12.2730 N.pl3  91  A91        -0.1054
   1982  N7         0.5250   31.0630   13.5890 N.ar   91  A91        -0.2193
   1983  C8        -0.2550   30.8450   14.6260 C.ar   91  A91         0.1816
   1984  N9         0.2530   31.3100   15.8150 N.ar   91  A91        -0.2693
   1985  OP1       -5.8640   29.5600   14.4520 O.3    91  A91        -0.4373
   1986  OP2       -3.8400   29.6430   12.9090 O.co2  91  A91        -0.5172
   1987  P         -3.6180   34.6730   16.6320 P.3    92  G92         0.2141
   1988  C5'       -1.9220   36.2540   17.8360 C.3    92  G92         0.1812
   1989  O5'       -2.2530   35.5170   16.6590 O.3    92  G92        -0.3114
   1990  C4'       -0.5120   36.8110   17.7940 C.3    92  G92         0.1773
   1991  O4'        0.4200   35.8110   17.3140 O.3    92  G92        -0.3307
   1992  C3'       -0.2930   37.9590   16.8250 C.3    92  G92         0.1860
   1993  O3'       -0.8420   39.1690   17.3300 O.3    92  G92        -0.3112
   1994  C2'        1.2310   37.9460   16.7390 C.3    92  G92         0.2309
   1995  O2'        1.8910   38.3710   17.9090 O.3    92  G92        -0.2156
   1996  C1'        1.4740   36.4530   16.6120 C.3    92  G92         0.2408
   1997  N1         4.1110   36.3900   12.2660 N.ar   92  G92        -0.1709
   1998  C2         4.4330   36.9630   13.4760 C.ar   92  G92         0.2606
   1999  N2         5.6090   37.5990   13.5520 N.pl3  92  G92        -0.0859
   2000  N3         3.6610   36.9140   14.5500 N.ar   92  G92        -0.1918
   2001  C4         2.5110   36.2350   14.3100 C.ar   92  G92         0.1723
   2002  C5         2.0990   35.6360   13.1420 C.ar   92  G92         0.1748
   2003  C6         2.9360   35.6910   12.0060 C.ar   92  G92         0.3023
   2004  O6         2.7280   35.2140   10.8830 O.2    92  G92        -0.2633
   2005  N7         0.8600   35.0440   13.3030 N.ar   92  G92        -0.2173
   2006  C8         0.5480   35.2940   14.5410 C.ar   92  G92         0.1817
   2007  N9         1.5040   36.0090   15.2190 N.ar   92  G92        -0.2693
   2008  OP1       -4.6770   35.3640   17.4040 O.3    92  G92        -0.4373
   2009  OP2       -3.8840   34.2870   15.2270 O.co2  92  G92        -0.5172
   2010  P         -1.6940   40.1180   16.3550 P.3    93  U93         0.2141
   2011  C5'        0.4950   41.5620   15.9160 C.3    93  U93         0.1812
   2012  O5'       -0.5640   40.7460   15.4050 O.3    93  U93        -0.3114
   2013  C4'        1.4950   41.8710   14.8200 C.3    93  U93         0.1773
   2014  O4'        2.0860   40.6380   14.3380 O.3    93  U93        -0.3307
   2015  C3'        0.8880   42.4820   13.5660 C.3    93  U93         0.1860
   2016  O3'        0.7100   43.8710   13.7160 O.3    93  U93        -0.3112
   2017  C2'        1.9290   42.1460   12.5050 C.3    93  U93         0.2309
   2018  O2'        3.0260   43.0360   12.5130 O.3    93  U93        -0.2156
   2019  C1'        2.3650   40.7550   12.9510 C.3    93  U93         0.2420
   2020  N1         1.6870   39.6530   12.1960 N.ar   93  U93        -0.2534
   2021  C2         2.3130   39.1400   11.0740 C.ar   93  U93         0.3546
   2022  O2         3.3900   39.5520   10.6710 O.2    93  U93        -0.2443
   2023  N3         1.6260   38.1220   10.4370 N.ar   93  U93        -0.1530
   2024  C4         0.4000   37.5820   10.8030 C.ar   93  U93         0.2846
   2025  O4        -0.0940   36.6740   10.1410 O.2    93  U93        -0.2650
   2026  C5        -0.1930   38.1670   11.9820 C.ar   93  U93         0.0814
   2027  C6         0.4580   39.1540   12.6170 C.ar   93  U93         0.0870
   2028  OP1       -2.3030   41.1990   17.1670 O.3    93  U93        -0.4373
   2029  OP2       -2.5710   39.2580   15.5220 O.co2  93  U93        -0.5172
   2030  P         -0.7670   44.4770   13.8180 P.3    94  U94         0.2141
   2031  C5'       -0.4030   46.6160   12.2870 C.3    94  U94         0.1812
   2032  O5'       -0.9050   45.2950   12.4470 O.3    94  U94        -0.3114
   2033  C4'       -1.4350   47.4630   11.5570 C.3    94  U94         0.1773
   2034  O4'       -1.6270   46.9850   10.1970 O.3    94  U94        -0.3307
   2035  C3'       -2.8220   47.4920   12.1960 C.3    94  U94         0.1860
   2036  O3'       -3.3020   48.8250   12.1660 O.3    94  U94        -0.3112
   2037  C2'       -3.6470   46.5490   11.3220 C.3    94  U94         0.2309
   2038  O2'       -5.0180   46.8910   11.3020 O.3    94  U94        -0.2156
   2039  C1'       -2.9970   46.7430    9.9490 C.3    94  U94         0.2420
   2040  N1        -3.1170   45.5720    9.0210 N.ar   94  U94        -0.2534
   2041  C2        -3.8130   45.7030    7.8290 C.ar   94  U94         0.3546
   2042  O2        -4.3550   46.7250    7.4570 O.2    94  U94        -0.2443
   2043  N3        -3.8700   44.5700    7.0560 N.ar   94  U94        -0.1530
   2044  C4        -3.3170   43.3400    7.3460 C.ar   94  U94         0.2846
   2045  O4        -3.4580   42.4240    6.5480 O.2    94  U94        -0.2650
   2046  C5        -2.6080   43.2670    8.5980 C.ar   94  U94         0.0814
   2047  C6        -2.5370   44.3640    9.3680 C.ar   94  U94         0.0870
   2048  OP1       -0.7750   45.3980   14.9810 O.3    94  U94        -0.4373
   2049  OP2       -1.7420   43.3640   13.7450 O.co2  94  U94        -0.5172
   2050  P         -4.1890   49.4010   13.3630 P.3    95  C95         0.2141
   2051  C5'       -6.7070   48.7880   13.9140 C.3    95  C95         0.1812
   2052  O5'       -5.6460   48.8560   12.9640 O.3    95  C95        -0.3114
   2053  C4'       -8.0520   48.5390   13.2460 C.3    95  C95         0.1773
   2054  O4'       -8.3140   49.5680   12.2590 O.3    95  C95        -0.3307
   2055  C3'       -8.1960   47.2470   12.4480 C.3    95  C95         0.1860
   2056  O3'       -8.4720   46.1340   13.2770 O.3    95  C95        -0.3112
   2057  C2'       -9.3910   47.5740   11.5690 C.3    95  C95         0.2309
   2058  O2'      -10.6070   47.4420   12.2760 O.3    95  C95        -0.2156
   2059  C1'       -9.1170   49.0360   11.2180 C.3    95  C95         0.2420
   2060  N1        -8.4210   49.2070    9.8880 N.ar   95  C95        -0.2535
   2061  C2        -9.1620   49.1640    8.6890 C.ar   95  C95         0.3532
   2062  O2       -10.3900   48.9880    8.7200 O.2    95  C95        -0.2443
   2063  N3        -8.5010   49.3170    7.5070 N.ar   95  C95        -0.1739
   2064  C4        -7.1750   49.5070    7.4820 C.ar   95  C95         0.1759
   2065  N4        -6.5790   49.6520    6.2920 N.pl3  95  C95        -0.1070
   2066  C5        -6.4050   49.5500    8.6840 C.ar   95  C95         0.0566
   2067  C6        -7.0620   49.3990    9.8430 C.ar   95  C95         0.0850
   2068  OP1       -4.1910   50.8790   13.2540 O.2    95  C95        -0.5172
   2069  OP2       -3.7430   48.7600   14.6250 O.co2  95  C95        -0.4373
   2070  P         -7.8650   44.7110   12.8770 P.3    96  C96         0.2141
   2071  C5'      -10.2460   44.0070   11.9600 C.3    96  C96         0.1812
   2072  O5'       -8.8450   44.2000   11.7170 O.3    96  C96        -0.3114
   2073  C4'      -11.0030   43.4790   10.7470 C.3    96  C96         0.1773
   2074  O4'      -11.2790   44.5580    9.8080 O.3    96  C96        -0.3307
   2075  C3'      -10.2760   42.4240    9.9170 C.3    96  C96         0.1860
   2076  O3'      -10.3980   41.1210   10.4610 O.3    96  C96        -0.3112
   2077  C2'      -10.9660   42.5660    8.5630 C.3    96  C96         0.2309
   2078  O2'      -12.1990   41.8790    8.4840 O.3    96  C96        -0.2156
   2079  C1'      -11.1500   44.0830    8.4770 C.3    96  C96         0.2420
   2080  N1        -9.9840   44.7520    7.7780 N.ar   96  C96        -0.2535
   2081  C2        -9.9440   44.7930    6.3710 C.ar   96  C96         0.3532
   2082  O2       -10.8700   44.2960    5.7200 O.2    96  C96        -0.2443
   2083  N3        -8.8890   45.3900    5.7540 N.ar   96  C96        -0.1739
   2084  C4        -7.9030   45.9240    6.4790 C.ar   96  C96         0.1759
   2085  N4        -6.8890   46.5000    5.8310 N.pl3  96  C96        -0.1070
   2086  C5        -7.9120   45.8930    7.9060 C.ar   96  C96         0.0566
   2087  C6        -8.9560   45.3030    8.5020 C.ar   96  C96         0.0850
   2088  OP1       -7.9930   43.8300   14.0590 O.3    96  C96        -0.4373
   2089  OP2       -6.5350   44.9290   12.2690 O.co2  96  C96        -0.5172
   2090  P         -9.1940   40.0870   10.2120 P.3    97  U97         0.2141
   2091  C5'      -10.6070   38.8870    8.3360 C.3    97  U97         0.1812
   2092  O5'       -9.4510   39.6400    8.7000 O.3    97  U97        -0.3114
   2093  C4'      -10.6740   38.7250    6.8310 C.3    97  U97         0.1773
   2094  O4'      -10.7070   40.0280    6.1960 O.3    97  U97        -0.3307
   2095  C3'       -9.4410   38.0770    6.2220 C.3    97  U97         0.1860
   2096  O3'       -9.4420   36.6640    6.3510 O.3    97  U97        -0.3112
   2097  C2'       -9.5040   38.5540    4.7740 C.3    97  U97         0.2309
   2098  O2'      -10.4310   37.8430    3.9730 O.3    97  U97        -0.2156
   2099  C1'       -9.9710   39.9880    4.9810 C.3    97  U97         0.2420
   2100  N1        -8.8470   40.9940    4.9900 N.ar   97  U97        -0.2534
   2101  C2        -8.3680   41.4660    3.7800 C.ar   97  U97         0.3546
   2102  O2        -8.8000   41.1070    2.6990 O.2    97  U97        -0.2443
   2103  N3        -7.3530   42.3890    3.8720 N.ar   97  U97        -0.1530
   2104  C4        -6.7750   42.8800    5.0260 C.ar   97  U97         0.2846
   2105  O4        -5.8720   43.7030    4.9420 O.2    97  U97        -0.2650
   2106  C5        -7.3180   42.3500    6.2500 C.ar   97  U97         0.0814
   2107  C6        -8.3100   41.4480    6.1850 C.ar   97  U97         0.0870
   2108  OP1       -9.3560   38.9000   11.0830 O.3    97  U97        -0.4373
   2109  OP2       -7.9280   40.8510   10.2800 O.co2  97  U97        -0.5172
   2110  P         -8.0230   35.9530    6.5750 P.3    98  C98         0.2141
   2111  C5'       -8.0970   35.2030    4.0200 C.3    98  C98         0.1812
   2112  O5'       -7.4120   35.8710    5.0920 O.3    98  C98        -0.3114
   2113  C4'       -7.3980   35.4010    2.6830 C.3    98  C98         0.1773
   2114  O4'       -7.4670   36.7900    2.2590 O.3    98  C98        -0.3307
   2115  C3'       -5.9070   35.1080    2.6800 C.3    98  C98         0.1860
   2116  O3'       -5.6450   33.7220    2.5930 O.3    98  C98        -0.3112
   2117  C2'       -5.4490   35.8750    1.4440 C.3    98  C98         0.2309
   2118  O2'       -5.6790   35.1880    0.2310 O.3    98  C98        -0.2156
   2119  C1'       -6.3040   37.1360    1.5210 C.3    98  C98         0.2420
   2120  N1        -5.5740   38.2860    2.1770 N.ar   98  C98        -0.2535
   2121  C2        -4.4860   38.9080    1.5240 C.ar   98  C98         0.3532
   2122  O2        -4.1190   38.5190    0.4050 O.2    98  C98        -0.2443
   2123  N3        -3.8480   39.9380    2.1430 N.ar   98  C98        -0.1739
   2124  C4        -4.2430   40.3550    3.3500 C.ar   98  C98         0.1759
   2125  N4        -3.5780   41.3710    3.9100 N.pl3  98  C98        -0.1070
   2126  C5        -5.3390   39.7390    4.0310 C.ar   98  C98         0.0566
   2127  C6        -5.9640   38.7250    3.4160 C.ar   98  C98         0.0850
   2128  OP1       -8.2810   34.5870    7.0940 O.2    98  C98        -0.5172
   2129  OP2       -7.1640   36.8940    7.3410 O.co2  98  C98        -0.4373
   2130  P         -4.2970   33.1570    3.2430 P.3    99  C99         0.2141
   2131  C5'       -3.0750   33.1140    0.9410 C.3    99  C99         0.1812
   2132  O5'       -3.1960   33.7040    2.2230 O.3    99  C99        -0.3114
   2133  C4'       -2.0720   33.8700    0.0940 C.3    99  C99         0.1773
   2134  O4'       -2.4150   35.2750    0.0570 O.3    99  C99        -0.3307
   2135  C3'       -0.6440   33.8850    0.6120 C.3    99  C99         0.1860
   2136  O3'        0.0300   32.6690    0.3430 O.3    99  C99        -0.3112
   2137  C2'       -0.0760   35.0450   -0.1970 C.3    99  C99         0.2309
   2138  O2'        0.2220   34.7120   -1.5440 O.3    99  C99        -0.2156
   2139  C1'       -1.2340   36.0340   -0.1190 C.3    99  C99         0.2420
   2140  N1        -1.0810   36.9970    1.0100 N.ar   99  C99        -0.2535
   2141  C2        -0.2000   38.0750    0.8670 C.ar   99  C99         0.3532
   2142  O2         0.4240   38.2070   -0.1900 O.2    99  C99        -0.2443
   2143  N3        -0.0600   38.9520    1.8960 N.ar   99  C99        -0.1739
   2144  C4        -0.7530   38.7770    3.0230 C.ar   99  C99         0.1759
   2145  N4        -0.5830   39.6680    4.0000 N.pl3  99  C99        -0.1070
   2146  C5        -1.6510   37.6850    3.1990 C.ar   99  C99         0.0566
   2147  C6        -1.7800   36.8310    2.1760 C.ar   99  C99         0.0850
   2148  OP1       -4.3300   31.6790    3.2000 O.2    99  C99        -0.5172
   2149  OP2       -4.0770   33.8210    4.5440 O.co2  99  C99        -0.4373
   2150  P          1.2050   32.1700    1.3130 P.3   100  C100        0.2141
   2151  C5'        3.2770   33.3680    0.2040 C.3   100  C100        0.1812
   2152  O5'        2.3130   33.3370    1.2560 O.3   100  C100       -0.3114
   2153  C4'        4.1540   34.6100    0.2410 C.3   100  C100        0.1773
   2154  O4'        3.3580   35.8230    0.3760 O.3   100  C100       -0.3307
   2155  C3'        5.1150   34.6970    1.4170 C.3   100  C100        0.1860
   2156  O3'        6.2380   33.8240    1.2940 O.3   100  C100       -0.3112
   2157  C2'        5.4710   36.1840    1.3660 C.3   100  C100        0.2309
   2158  O2'        6.3850   36.5320    0.3400 O.3   100  C100       -0.2156
   2159  C1'        4.0880   36.7920    1.1140 C.3   100  C100        0.2420
   2160  N1         3.3750   37.1370    2.4000 N.ar  100  C100       -0.2535
   2161  C2         3.7020   38.3160    3.0980 C.ar  100  C100        0.3532
   2162  O2         4.5660   39.0830    2.6580 O.2   100  C100       -0.2443
   2163  N3         3.0530   38.6030    4.2540 N.ar  100  C100       -0.1739
   2164  C4         2.1210   37.7730    4.7260 C.ar  100  C100        0.1759
   2165  N4         1.5160   38.1010    5.8730 N.pl3 100  C100       -0.1070
   2166  C5         1.7740   36.5680    4.0440 C.ar  100  C100        0.0566
   2167  C6         2.4170   36.2950    2.9030 C.ar  100  C100        0.0850
   2168  OP1        1.7680   30.9360    0.7080 O.2   100  C100       -0.5172
   2169  OP2        0.6370   32.1240    2.6870 O.co2 100  C100       -0.4373
   2170  P          6.9340   33.2420    2.6240 P.3   101  G101        0.2141
   2171  C5'        8.9080   34.9820    2.5920 C.3   101  G101        0.1812
   2172  O5'        7.7120   34.5200    3.1860 O.3   101  G101       -0.3114
   2173  C4'        9.2750   36.2780    3.2750 C.3   101  G101        0.1773
   2174  O4'        8.1290   37.1700    3.2360 O.3   101  G101       -0.3307
   2175  C3'        9.5810   36.1500    4.7630 C.3   101  G101        0.1860
   2176  O3'       10.9080   35.6990    5.0130 O.3   101  G101       -0.3112
   2177  C2'        9.3360   37.5810    5.2270 C.3   101  G101        0.2309
   2178  O2'       10.3660   38.4690    4.8420 O.3   101  G101       -0.2156
   2179  C1'        8.0410   37.8750    4.4660 C.3   101  G101        0.2408
   2180  N1         4.9970   38.9610    8.3880 N.ar  101  G101       -0.1709
   2181  C2         6.1290   39.6070    7.9380 C.ar  101  G101        0.2606
   2182  N2         6.5260   40.7010    8.6040 N.pl3 101  G101       -0.0859
   2183  N3         6.8310   39.2110    6.8870 N.ar  101  G101       -0.1918
   2184  C4         6.3180   38.1010    6.3060 C.ar  101  G101        0.1723
   2185  C5         5.2030   37.3840    6.6710 C.ar  101  G101        0.1748
   2186  C6         4.4510   37.8190    7.7960 C.ar  101  G101        0.3023
   2187  O6         3.4260   37.3110    8.2760 O.2   101  G101       -0.2633
   2188  N7         5.0160   36.3050    5.8150 N.ar  101  G101       -0.2173
   2189  C8         6.0040   36.4000    4.9690 C.ar  101  G101        0.1817
   2190  N9         6.8370   37.4690    5.2030 N.ar  101  G101       -0.2693
   2191  OP1        7.9360   32.2100    2.2460 O.2   101  G101       -0.5172
   2192  OP2        5.8650   32.9280    3.6020 O.co2 101  G101       -0.4373
   2193  P         11.1630   34.5930    6.1540 P.3   102  C102        0.2141
   2194  C5'       11.9500   36.5220    7.7410 C.3   102  C102        0.1812
   2195  O5'       11.0930   35.4110    7.5260 O.3   102  C102       -0.3114
   2196  C4'       11.4660   37.3650    8.9020 C.3   102  C102        0.1773
   2197  O4'       10.2010   38.0020    8.5810 O.3   102  C102       -0.3307
   2198  C3'       11.1910   36.5850   10.1730 C.3   102  C102        0.1860
   2199  O3'       12.4030   36.3780   10.8490 O.3   102  C102       -0.3112
   2200  C2'       10.2490   37.5400   10.8950 C.3   102  C102        0.2309
   2201  O2'       10.8810   38.6550   11.4920 O.3   102  C102       -0.2156
   2202  C1'        9.3790   37.9980    9.7300 C.3   102  C102        0.2420
   2203  N1         8.2240   37.0750    9.5580 N.ar  102  C102       -0.2535
   2204  C2         7.1340   37.2300   10.4190 C.ar  102  C102        0.3532
   2205  O2         7.1580   38.1250   11.2710 O.2   102  C102       -0.2443
   2206  N3         6.0740   36.3930   10.2990 N.ar  102  C102       -0.1739
   2207  C4         6.0810   35.4350    9.3770 C.ar  102  C102        0.1759
   2208  N4         5.0040   34.6580    9.3140 N.pl3 102  C102       -0.1070
   2209  C5         7.1840   35.2470    8.4860 C.ar  102  C102        0.0566
   2210  C6         8.2220   36.0820    8.6120 C.ar  102  C102        0.0850
   2211  OP1       12.5380   34.0810    5.9800 O.2   102  C102       -0.5172
   2212  OP2       10.0380   33.6250    6.1590 O.co2 102  C102       -0.4373
   2213  P         12.6630   35.0420   11.6910 P.3   103  U103        0.2141
   2214  C5'       12.1210   36.3340   13.9050 C.3   103  U103        0.1812
   2215  O5'       11.7800   35.2950   13.0030 O.3   103  U103       -0.3114
   2216  C4'       11.0730   36.4140   14.9840 C.3   103  U103        0.1773
   2217  O4'        9.8060   36.7610   14.3810 O.3   103  U103       -0.3307
   2218  C3'       10.7850   35.0830   15.6480 C.3   103  U103        0.1860
   2219  O3'       11.7270   34.8070   16.6550 O.3   103  U103       -0.3112
   2220  C2'        9.3990   35.3270   16.2210 C.3   103  U103        0.2309
   2221  O2'        9.4230   36.1040   17.4020 O.3   103  U103       -0.2156
   2222  C1'        8.7580   36.0840   15.0620 C.3   103  U103        0.2420
   2223  N1         7.9740   35.1850   14.1150 N.ar  103  U103       -0.2534
   2224  C2         6.6940   34.7840   14.4620 C.ar  103  U103        0.3546
   2225  O2         6.1370   35.1130   15.4960 O.2   103  U103       -0.2443
   2226  N3         6.0660   33.9820   13.5390 N.ar  103  U103       -0.1530
   2227  C4         6.5730   33.5390   12.3300 C.ar  103  U103        0.2846
   2228  O4         5.8920   32.8150   11.6130 O.2   103  U103       -0.2650
   2229  C5         7.9080   33.9890   12.0310 C.ar  103  U103        0.0814
   2230  C6         8.5390   34.7740   12.9150 C.ar  103  U103        0.0870
   2231  OP1       14.1060   35.0300   12.0400 O.3   103  U103       -0.4373
   2232  OP2       12.0770   33.8760   10.9890 O.co2 103  U103       -0.5172
   2233  P         12.1360   33.2850   16.9420 P.3   104  C104        0.2141
   2234  C5'       10.5640   33.2980   19.0550 C.3   104  C104        0.1812
   2235  O5'       10.9030   32.7160   17.7910 O.3   104  C104       -0.3114
   2236  C4'        9.2670   32.7280   19.5940 C.3   104  C104        0.1773
   2237  O4'        8.1490   33.2290   18.8120 O.3   104  C104       -0.3307
   2238  C3'        9.1500   31.2170   19.4890 C.3   104  C104        0.1860
   2239  O3'        9.7680   30.6010   20.5850 O.3   104  C104       -0.3112
   2240  C2'        7.6360   31.0270   19.4950 C.3   104  C104        0.2309
   2241  O2'        7.0380   31.0710   20.7790 O.3   104  C104       -0.2156
   2242  C1'        7.1850   32.2030   18.6310 C.3   104  C104        0.2420
   2243  N1         7.0610   31.7730   17.1910 N.ar  104  C104       -0.2535
   2244  C2         5.8810   31.1450   16.7700 C.ar  104  C104        0.3532
   2245  O2         4.9620   30.9860   17.5830 O.2   104  C104       -0.2443
   2246  N3         5.7720   30.7380   15.4780 N.ar  104  C104       -0.1739
   2247  C4         6.7880   30.9300   14.6280 C.ar  104  C104        0.1759
   2248  N4         6.6470   30.5220   13.3660 N.pl3 104  C104       -0.1070
   2249  C5         8.0030   31.5540   15.0320 C.ar  104  C104        0.0566
   2250  C6         8.0910   31.9500   16.3060 C.ar  104  C104        0.0850
   2251  OP1       13.3290   33.3380   17.8110 O.3   104  C104       -0.4373
   2252  OP2       12.2040   32.5540   15.6550 O.co2 104  C104       -0.5172
   2253  P         10.4140   29.1420   20.4610 P.3   105  U105        0.2141
   2254  C5'        8.2070   28.0720   21.4730 C.3   105  U105        0.1812
   2255  O5'        9.1580   28.1400   20.4110 O.3   105  U105       -0.3114
   2256  C4'        6.9980   27.2280   21.1050 C.3   105  U105        0.1773
   2257  O4'        6.1630   27.9010   20.1230 O.3   105  U105       -0.3307
   2258  C3'        7.3200   25.8990   20.4420 C.3   105  U105        0.1860
   2259  O3'        7.7270   24.9260   21.3890 O.3   105  U105       -0.3112
   2260  C2'        5.9830   25.5790   19.7720 C.3   105  U105        0.2309
   2261  O2'        4.9880   25.0740   20.6290 O.3   105  U105       -0.2156
   2262  C1'        5.5510   26.9460   19.2670 C.3   105  U105        0.2420
   2263  N1         5.9710   27.0910   17.8320 N.ar  105  U105       -0.2534
   2264  C2         5.2070   26.4710   16.8540 C.ar  105  U105        0.3546
   2265  O2         4.1960   25.8300   17.0920 O.2   105  U105       -0.2443
   2266  N3         5.6660   26.6380   15.5670 N.ar  105  U105       -0.1530
   2267  C4         6.7910   27.3420   15.1780 C.ar  105  U105        0.2846
   2268  O4         7.0770   27.4040   13.9930 O.2   105  U105       -0.2650
   2269  C5         7.5440   27.9520   16.2460 C.ar  105  U105        0.0814
   2270  C6         7.1150   27.8060   17.5050 C.ar  105  U105        0.0870
   2271  OP1       11.1670   28.9570   21.7180 O.3   105  U105       -0.4373
   2272  OP2       11.1010   29.0040   19.1620 O.co2 105  U105       -0.5172
   2273  P          8.3640   23.5640   20.8630 P.3   106  G106        0.2141
   2274  C5'        6.2350   22.0340   21.1650 C.3   106  G106        0.1812
   2275  O5'        7.0880   22.7810   20.3180 O.3   106  G106       -0.3114
   2276  C4'        5.2880   21.2530   20.2780 C.3   106  G106        0.1773
   2277  O4'        4.5680   22.1520   19.3870 O.3   106  G106       -0.3307
   2278  C3'        5.9760   20.2830   19.3290 C.3   106  G106        0.1860
   2279  O3'        6.2660   19.0810   20.0020 O.3   106  G106       -0.3112
   2280  C2'        4.8600   20.0990   18.3160 C.3   106  G106        0.2309
   2281  O2'        3.7850   19.3550   18.8460 O.3   106  G106       -0.2156
   2282  C1'        4.4390   21.5460   18.1090 C.3   106  G106        0.2408
   2283  N1         5.3880   21.9530   13.1070 N.ar  106  G106       -0.1709
   2284  C2         4.4470   21.1980   13.7720 C.ar  106  G106        0.2606
   2285  N2         3.6400   20.4390   13.0250 N.pl3 106  G106       -0.0859
   2286  N3         4.2990   21.1850   15.0910 N.ar  106  G106       -0.1918
   2287  C4         5.1850   21.9980   15.7220 C.ar  106  G106        0.1723
   2288  C5         6.1630   22.7870   15.1530 C.ar  106  G106        0.1748
   2289  C6         6.3080   22.7960   13.7360 C.ar  106  G106        0.3023
   2290  O6         7.1190   23.4310   13.0430 O.2   106  G106       -0.2633
   2291  N7         6.8650   23.4650   16.1420 N.ar  106  G106       -0.2173
   2292  C8         6.3090   23.0820   17.2610 C.ar  106  G106        0.1817
   2293  N9         5.2730   22.1920   17.0860 N.ar  106  G106       -0.2693
   2294  OP1        8.9410   22.8120   21.9970 O.3   106  G106       -0.4373
   2295  OP2        9.1970   23.8880   19.6850 O.co2 106  G106       -0.5172
   2296  P          7.4000   18.0570   19.5230 P.3   107  C107        0.2141
   2297  C5'        5.8100   16.5910   18.1010 C.3   107  C107        0.1812
   2298  O5'        6.8600   17.5210   18.1340 O.3   107  C107       -0.3114
   2299  C4'        5.5310   16.3420   16.6400 C.3   107  C107        0.1773
   2300  O4'        5.2900   17.6100   15.9810 O.3   107  C107       -0.3307
   2301  C3'        6.7130   15.8090   15.8510 C.3   107  C107        0.1860
   2302  O3'        6.9430   14.4460   16.1210 O.3   107  C107       -0.3112
   2303  C2'        6.2050   16.0690   14.4400 C.3   107  C107        0.2309
   2304  O2'        5.2040   15.1570   14.0300 O.3   107  C107       -0.2156
   2305  C1'        5.6440   17.4780   14.6190 C.3   107  C107        0.2420
   2306  N1         6.6450   18.5200   14.2620 N.ar  107  C107       -0.2535
   2307  C2         6.8730   18.7890   12.9080 C.ar  107  C107        0.3532
   2308  O2         6.2370   18.1640   12.0560 O.2   107  C107       -0.2443
   2309  N3         7.7860   19.7350   12.5670 N.ar  107  C107       -0.1739
   2310  C4         8.4580   20.3920   13.5160 C.ar  107  C107        0.1759
   2311  N4         9.3370   21.3060   13.1140 N.pl3 107  C107       -0.1070
   2312  C5         8.2490   20.1380   14.9050 C.ar  107  C107        0.0566
   2313  C6         7.3410   19.2030   15.2280 C.ar  107  C107        0.0850
   2314  OP1        7.3770   16.9440   20.4980 O.3   107  C107       -0.4373
   2315  OP2        8.6460   18.7850   19.2070 O.co2 107  C107       -0.5172
   2316  P          8.4160   13.8490   15.9400 P.3   108  A108        0.2141
   2317  C5'        7.8420   13.0560   13.4830 C.3   108  A108        0.1812
   2318  O5'        8.6140   13.9060   14.3460 O.3   108  A108       -0.3114
   2319  C4'        8.1590   13.3000   12.0170 C.3   108  A108        0.1773
   2320  O4'        7.8690   14.6730   11.6320 O.3   108  A108       -0.3307
   2321  C3'        9.6170   13.0990   11.6260 C.3   108  A108        0.1860
   2322  O3'        9.8820   11.7160   11.4110 O.3   108  A108       -0.3112
   2323  C2'        9.6850   13.8950   10.3250 C.3   108  A108        0.2309
   2324  O2'        9.2180   13.1500    9.2070 O.3   108  A108       -0.2156
   2325  C1'        8.7990   15.0980   10.6460 C.3   108  A108        0.2408
   2326  N1        11.6780   19.2510    9.5390 N.ar  108  A108       -0.2040
   2327  C2        11.0740   18.3500    8.7470 C.ar  108  A108        0.2016
   2328  N3        10.3370   17.2950    9.0970 N.ar  108  A108       -0.2048
   2329  C4        10.2440   17.1910   10.4330 C.ar  108  A108        0.1692
   2330  C5        10.8190   18.0420   11.3690 C.ar  108  A108        0.1518
   2331  C6        11.5690   19.1230   10.8790 C.ar  108  A108        0.1919
   2332  N6        12.1710   20.0100   11.6700 N.pl3 108  A108       -0.1054
   2333  N7        10.5210   17.6410   12.6530 N.ar  108  A108       -0.2193
   2334  C8         9.7820   16.5640   12.4700 C.ar  108  A108        0.1816
   2335  N9         9.5710   16.2310   11.1580 N.ar  108  A108       -0.2693
   2336  OP1        8.3710   12.4350   16.3780 O.2   108  A108       -0.5172
   2337  OP2        9.3820   14.7600   16.5830 O.co2 108  A108       -0.4373
   2338  P         11.3680   11.1430   11.4930 P.3   109  U109        0.2141
   2339  C5'       12.0540   11.4750    8.9030 C.3   109  U109        0.1812
   2340  O5'       12.1040   11.8940   10.2800 O.3   109  U109       -0.3114
   2341  C4'       12.8720   12.4140    8.0130 C.3   109  U109        0.1773
   2342  O4'       12.4070   13.7870    8.1690 O.3   109  U109       -0.3307
   2343  C3'       14.3720   12.5030    8.3000 C.3   109  U109        0.1860
   2344  O3'       15.1150   11.4890    7.6290 O.3   109  U109       -0.3112
   2345  C2'       14.7350   13.8940    7.7880 C.3   109  U109        0.2309
   2346  O2'       14.9290   13.9400    6.3870 O.3   109  U109       -0.2156
   2347  C1'       13.4950   14.6970    8.1550 C.3   109  U109        0.2420
   2348  N1        13.6160   15.4220    9.4680 N.ar  109  U109       -0.2534
   2349  C2        14.1770   16.6910    9.4900 C.ar  109  U109        0.3546
   2350  O2        14.5840   17.2730    8.5020 O.2   109  U109       -0.2443
   2351  N3        14.2490   17.2790   10.7290 N.ar  109  U109       -0.1530
   2352  C4        13.8230   16.7420   11.9290 C.ar  109  U109        0.2846
   2353  O4        13.9530   17.3960   12.9600 O.2   109  U109       -0.2650
   2354  C5        13.2550   15.4200   11.8330 C.ar  109  U109        0.0814
   2355  C6        13.1780   14.8250   10.6360 C.ar  109  U109        0.0870
   2356  OP1       11.3080    9.6850   11.2300 O.2   109  U109       -0.5172
   2357  OP2       11.9490   11.6430   12.7610 O.co2 109  U109       -0.4373
   2358  P         15.5880   10.2040    8.4590 P.3   110  G110        0.2141
   2359  C5'       17.8810   10.4290    7.1210 C.3   110  G110        0.1812
   2360  O5'       17.1790   10.1080    8.3150 O.3   110  G110       -0.3114
   2361  C4'       18.8910   11.5210    7.4280 C.3   110  G110        0.1773
   2362  O4'       19.4260   11.2890    8.7600 O.3   110  G110       -0.3307
   2363  C3'       20.0690   11.6390    6.4570 C.3   110  G110        0.1860
   2364  O3'       19.8610   12.7060    5.4940 O.3   110  G110       -0.3112
   2365  C2'       21.2560   11.9310    7.3910 C.3   110  G110        0.2309
   2366  O2'       21.5250   13.3140    7.5580 O.3   110  G110       -0.2156
   2367  C1'       20.8400   11.3560    8.7550 C.3   110  G110        0.2408
   2368  N1        22.1380    6.6210    7.2400 N.ar  110  G110       -0.1709
   2369  C2        21.5840    7.6460    6.5050 C.ar  110  G110        0.2606
   2370  N2        21.3370    7.4140    5.2130 N.pl3 110  G110       -0.0859
   2371  N3        21.2890    8.8320    7.0050 N.ar  110  G110       -0.1918
   2372  C4        21.5930    8.9300    8.3270 C.ar  110  G110        0.1723
   2373  C5        22.1460    7.9660    9.1470 C.ar  110  G110        0.1748
   2374  C6        22.4580    6.6970    8.5990 C.ar  110  G110        0.3023
   2375  O6        22.9560    5.7180    9.1730 O.2   110  G110       -0.2633
   2376  N7        22.3060    8.4480   10.4370 N.ar  110  G110       -0.2173
   2377  C8        21.8520    9.6740   10.3800 C.ar  110  G110        0.1817
   2378  N9        21.4030   10.0430    9.1290 N.ar  110  G110       -0.2693
   2379  OP1       14.9790    9.0310    7.7900 O.2   110  G110       -0.5172
   2380  OP2       15.3570   10.4810    9.8960 O.co2 110  G110       -0.4373
   2381  P         18.7730   12.6700    4.3030 P.3   111  C111        0.2141
   2382  C5'       20.1790   14.3270    2.7820 C.3   111  C111        0.1812
   2383  O5'       19.0110   14.0480    3.5290 O.3   111  C111       -0.3114
   2384  C4'       20.4800   15.8170    2.8100 C.3   111  C111        0.1773
   2385  O4'       19.3290   16.6080    3.2290 O.3   111  C111       -0.3307
   2386  C3'       21.5670   16.1910    3.8000 C.3   111  C111        0.1860
   2387  O3'       22.8370   15.9680    3.2350 O.3   111  C111       -0.3112
   2388  C2'       21.2830   17.6710    4.0450 C.3   111  C111        0.2309
   2389  O2'       21.8010   18.5420    3.0530 O.3   111  C111       -0.2156
   2390  C1'       19.7560   17.6700    4.0680 C.3   111  C111        0.2420
   2391  N1        19.2630   17.4960    5.4770 N.ar  111  C111       -0.2535
   2392  C2        19.3030   18.5910    6.3570 C.ar  111  C111        0.3532
   2393  O2        19.7160   19.6840    5.9600 O.2   111  C111       -0.2443
   2394  N3        18.8710   18.4290    7.6320 N.ar  111  C111       -0.1739
   2395  C4        18.4230   17.2420    8.0420 C.ar  111  C111        0.1759
   2396  N4        18.0080   17.1410    9.3040 N.pl3 111  C111       -0.1070
   2397  C5        18.3820   16.1060    7.1760 C.ar  111  C111        0.0566
   2398  C6        18.8090   16.2790    5.9180 C.ar  111  C111        0.0850
   2399  OP1       17.4070   12.7690    4.8770 O.3   111  C111       -0.4373
   2400  OP2       19.1290   11.5390    3.4200 O.co2 111  C111       -0.5172
   2401  P         24.0500   15.5400    4.1850 P.3   112  C112        0.2141
   2402  C5'       24.9230   18.0290    4.2110 C.3   112  C112        0.1812
   2403  O5'       24.3980   16.9160    4.9190 O.3   112  C112       -0.3114
   2404  C4'       25.2780   19.1150    5.2080 C.3   112  C112        0.1773
   2405  O4'       24.0720   19.6400    5.8170 O.3   112  C112       -0.3307
   2406  C3'       26.1030   18.6610    6.4050 C.3   112  C112        0.1860
   2407  O3'       27.4760   18.5520    6.0690 O.3   112  C112       -0.3112
   2408  C2'       25.8390   19.8010    7.3760 C.3   112  C112        0.2309
   2409  O2'       26.5610   20.9710    7.0520 O.3   112  C112       -0.2156
   2410  C1'       24.3530   20.0370    7.1460 C.3   112  C112        0.2420
   2411  N1        23.4550   19.3120    8.1110 N.ar  112  C112       -0.2535
   2412  C2        23.3070   19.7990    9.4240 C.ar  112  C112        0.3532
   2413  O2        23.9210   20.8110    9.7820 O.2   112  C112       -0.2443
   2414  N3        22.4820   19.1390   10.2770 N.ar  112  C112       -0.1739
   2415  C4        21.8270   18.0440    9.8750 C.ar  112  C112        0.1759
   2416  N4        21.0300   17.4340   10.7590 N.pl3 112  C112       -0.1070
   2417  C5        21.9600   17.5320    8.5470 C.ar  112  C112        0.0566
   2418  C6        22.7730   18.1910    7.7110 C.ar  112  C112        0.0850
   2419  OP1       25.1810   15.1430    3.3200 O.2   112  C112       -0.5172
   2420  OP2       23.5690   14.6010    5.2220 O.co2 112  C112       -0.4373
   2421  P         28.4650   17.7220    7.0140 P.3   113  U113        0.2141
   2422  C5'       29.5700   19.2810    8.8690 C.3   113  U113        0.1812
   2423  O5'       28.4350   18.6030    8.3550 O.3   113  U113       -0.3114
   2424  C4'       29.2100   19.9390   10.1880 C.3   113  U113        0.1773
   2425  O4'       27.7850   20.2080   10.2290 O.3   113  U113       -0.3307
   2426  C3'       29.3790   19.1220   11.4600 C.3   113  U113        0.1860
   2427  O3'       30.7160   19.0170   11.9040 O.3   113  U113       -0.3112
   2428  C2'       28.6290   20.0680   12.3890 C.3   113  U113        0.2309
   2429  O2'       29.2830   21.3130   12.5480 O.3   113  U113       -0.2156
   2430  C1'       27.3640   20.2890   11.5810 C.3   113  U113        0.2420
   2431  N1        26.2750   19.2980   11.9110 N.ar  113  U113       -0.2534
   2432  C2        25.4800   19.5220   13.0310 C.ar  113  U113        0.3546
   2433  O2        25.6060   20.4770   13.7740 O.2   113  U113       -0.2443
   2434  N3        24.5090   18.5730   13.2650 N.ar  113  U113       -0.1530
   2435  C4        24.2580   17.4370   12.5130 C.ar  113  U113        0.2846
   2436  O4        23.3570   16.6850   12.8550 O.2   113  U113       -0.2650
   2437  C5        25.1200   17.2600   11.3650 C.ar  113  U113        0.0814
   2438  C6        26.0740   18.1750   11.1150 C.ar  113  U113        0.0870
   2439  OP1       29.8260   17.7570    6.4100 O.2   113  U113       -0.5172
   2440  OP2       27.8100   16.4300    7.3480 O.co2 113  U113       -0.4373
   2441  P         31.7680   17.9070   11.4370 P.3   114  G114        0.2141
   2442  C5'       30.9580   16.2150   13.3030 C.3   114  G114        0.1812
   2443  O5'       31.9940   17.0130   12.7470 O.3   114  G114       -0.3114
   2444  C4'       31.0140   16.2470   14.8240 C.3   114  G114        0.1773
   2445  O4'       32.1360   15.4500   15.2890 O.3   114  G114       -0.3307
   2446  C3'       31.2160   17.6100   15.4800 C.3   114  G114        0.1860
   2447  O3'       29.9710   18.2520   15.6500 O.3   114  G114       -0.3112
   2448  C2'       31.8270   17.1950   16.8140 C.3   114  G114        0.2309
   2449  O2'       30.8880   16.6960   17.7460 O.3   114  G114       -0.2156
   2450  C1'       32.7750   16.0880   16.3770 C.3   114  G114        0.2408
   2451  N1        37.1190   18.2460   17.9220 N.ar  114  G114       -0.1709
   2452  C2        36.0560   17.8070   18.6780 C.ar  114  G114        0.2606
   2453  N2        36.1550   17.9570   20.0050 N.pl3 114  G114       -0.0859
   2454  N3        34.9680   17.2600   18.1590 N.ar  114  G114       -0.1918
   2455  C4        35.0270   17.1760   16.8020 C.ar  114  G114        0.1723
   2456  C5        36.0400   17.5850   15.9670 C.ar  114  G114        0.1748
   2457  C6        37.1920   18.1720   16.5290 C.ar  114  G114        0.3023
   2458  O6        38.1900   18.5890   15.9240 O.2   114  G114       -0.2633
   2459  N7        35.7340   17.3290   14.6410 N.ar  114  G114       -0.2173
   2460  C8        34.5550   16.7790   14.6930 C.ar  114  G114        0.1817
   2461  N9        34.0640   16.6440   15.9690 N.ar  114  G114       -0.2693
   2462  OP1       33.0070   18.6910   11.2410 O.3   114  G114       -0.4373
   2463  OP2       31.2300   17.0360   10.3530 O.co2 114  G114       -0.5172
   2464  P         29.8320   19.8020   16.0180 P.3   115  G115        0.2141
   2465  C5'       30.1990   19.6560   18.6050 C.3   115  G115        0.1812
   2466  O5'       30.7000   20.0370   17.3330 O.3   115  G115       -0.3114
   2467  C4'       31.1360   20.0790   19.7210 C.3   115  G115        0.1773
   2468  O4'       32.4580   19.4890   19.5760 O.3   115  G115       -0.3307
   2469  C3'       31.3820   21.5710   19.7410 C.3   115  G115        0.1860
   2470  O3'       30.3230   22.1990   20.4420 O.3   115  G115       -0.3112
   2471  C2'       32.7070   21.6330   20.4750 C.3   115  G115        0.2309
   2472  O2'       32.5300   21.4340   21.8620 O.3   115  G115       -0.2156
   2473  C1'       33.4550   20.4440   19.8780 C.3   115  G115        0.2408
   2474  N1        37.8250   22.4160   18.0020 N.ar  115  G115       -0.1709
   2475  C2        37.4100   22.3260   19.3130 C.ar  115  G115        0.2606
   2476  N2        38.2600   22.8280   20.2270 N.pl3 115  G115       -0.0859
   2477  N3        36.2480   21.7880   19.6920 N.ar  115  G115       -0.1918
   2478  C4        35.5190   21.3390   18.6380 C.ar  115  G115        0.1723
   2479  C5        35.8580   21.3850   17.3020 C.ar  115  G115        0.1748
   2480  C6        37.0940   21.9570   16.9090 C.ar  115  G115        0.3023
   2481  O6        37.5550   22.0840   15.7650 O.2   115  G115       -0.2633
   2482  N7        34.8580   20.8270   16.5230 N.ar  115  G115       -0.2173
   2483  C8        33.9500   20.4610   17.3830 C.ar  115  G115        0.1817
   2484  N9        34.2710   20.7390   18.6910 N.ar  115  G115       -0.2693
   2485  OP1       28.4050   20.0050   16.3410 O.3   115  G115       -0.4373
   2486  OP2       30.4690   20.6010   14.9550 O.co2 115  G115       -0.5172
   2487  P         29.9850   23.7150   20.1080 P.3   116  G116        0.2141
   2488  C5'       31.1400   24.7970   22.1980 C.3   116  G116        0.1812
   2489  O5'       31.1890   24.4720   20.8230 O.3   116  G116       -0.3114
   2490  C4'       32.4680   25.3840   22.6360 C.3   116  G116        0.1773
   2491  O4'       33.5440   24.4730   22.2750 O.3   116  G116       -0.3307
   2492  C3'       32.8730   26.6910   21.9690 C.3   116  G116        0.1860
   2493  O3'       32.2280   27.8140   22.5400 O.3   116  G116       -0.3112
   2494  C2'       34.3600   26.6700   22.2880 C.3   116  G116        0.2309
   2495  O2'       34.6320   26.9690   23.6440 O.3   116  G116       -0.2156
   2496  C1'       34.7030   25.2190   21.9500 C.3   116  G116        0.2408
   2497  N1        38.1040   26.1040   18.2570 N.ar  116  G116       -0.1709
   2498  C2        38.2180   26.3380   19.6100 C.ar  116  G116        0.2606
   2499  N2        39.3690   26.8750   20.0360 N.pl3 116  G116       -0.0859
   2500  N3        37.2580   26.0610   20.4890 N.ar  116  G116       -0.1918
   2501  C4        36.1600   25.5200   19.8950 C.ar  116  G116        0.1723
   2502  C5        35.9610   25.2570   18.5590 C.ar  116  G116        0.1748
   2503  C6        36.9840   25.5530   17.6370 C.ar  116  G116        0.3023
   2504  O6        36.9650   25.3800   16.4140 O.2   116  G116       -0.2633
   2505  N7        34.7120   24.7080   18.3430 N.ar  116  G116       -0.2173
   2506  C8        34.1820   24.6530   19.5290 C.ar  116  G116        0.1817
   2507  N9        35.0040   25.1160   20.5250 N.ar  116  G116       -0.2693
   2508  OP1       28.6960   24.0410   20.7370 O.3   116  G116       -0.4373
   2509  OP2       30.1600   23.9300   18.6590 O.co2 116  G116       -0.5172
   2510  P         31.9350   29.1220   21.6600 P.3   117  G117        0.2141
   2511  C5'       34.1520   30.2810   22.5230 C.3   117  G117        0.1812
   2512  O5'       33.3810   29.7650   21.4290 O.3   117  G117       -0.3114
   2513  C4'       35.6010   30.4950   22.1150 C.3   117  G117        0.1773
   2514  O4'       36.1060   29.3260   21.4150 O.3   117  G117       -0.3307
   2515  C3'       35.8450   31.6290   21.1320 C.3   117  G117        0.1860
   2516  O3'       35.9330   32.8560   21.8030 O.3   117  G117       -0.3112
   2517  C2'       37.2030   31.2520   20.5790 C.3   117  G117        0.2309
   2518  O2'       38.2500   31.5900   21.4620 O.3   117  G117       -0.2156
   2519  C1'       37.0810   29.7360   20.4740 C.3   117  G117        0.2408
   2520  N1        38.3970   29.5490   15.5550 N.ar  117  G117       -0.1709
   2521  C2        39.0870   30.0800   16.6210 C.ar  117  G117        0.2606
   2522  N2        40.2800   30.6350   16.3650 N.pl3 117  G117       -0.0859
   2523  N3        38.6330   30.0680   17.8660 N.ar  117  G117       -0.1918
   2524  C4        37.4170   29.4770   17.9730 C.ar  117  G117        0.1723
   2525  C5        36.6570   28.9230   16.9750 C.ar  117  G117        0.1748
   2526  C6        37.1440   28.9360   15.6450 C.ar  117  G117        0.3023
   2527  O6        36.6040   28.4850   14.6250 O.2   117  G117       -0.2633
   2528  N7        35.4780   28.4170   17.4940 N.ar  117  G117       -0.2173
   2529  C8        35.5430   28.6690   18.7690 C.ar  117  G117        0.1817
   2530  N9        36.6940   29.3080   19.1330 N.ar  117  G117       -0.2693
   2531  OP1       31.1200   30.0660   22.4620 O.3   117  G117       -0.4373
   2532  OP2       31.4530   28.6690   20.3460 O.co2 117  G117       -0.5172
   2533  P         35.3710   34.1690   21.0840 P.3   118  G118        0.2141
   2534  C5'       37.8470   34.9000   20.5850 C.3   118  G118        0.1812
   2535  O5'       36.5540   34.5820   20.1010 O.3   118  G118       -0.3114
   2536  C4'       38.7500   35.1110   19.3900 C.3   118  G118        0.1773
   2537  O4'       38.9140   33.8530   18.6910 O.3   118  G118       -0.3307
   2538  C3'       38.1670   36.0230   18.3260 C.3   118  G118        0.1860
   2539  O3'       38.3530   37.3790   18.6650 O.3   118  G118       -0.3112
   2540  C2'       38.9600   35.6010   17.0940 C.3   118  G118        0.2309
   2541  O2'       40.2690   36.1440   17.0370 O.3   118  G118       -0.2156
   2542  C1'       39.0090   34.0910   17.2960 C.3   118  G118        0.2408
   2543  N1        37.5320   32.1610   12.8240 N.ar  118  G118       -0.1709
   2544  C2        38.6900   32.8320   13.1570 C.ar  118  G118        0.2606
   2545  N2        39.5840   33.0200   12.1750 N.pl3 118  G118       -0.0859
   2546  N3        38.9550   33.2900   14.3740 N.ar  118  G118       -0.1918
   2547  C4        37.9580   33.0230   15.2530 C.ar  118  G118        0.1723
   2548  C5        36.7680   32.3660   15.0230 C.ar  118  G118        0.1748
   2549  C6        36.4930   31.8790   13.7150 C.ar  118  G118        0.3023
   2550  O6        35.4880   31.2730   13.3110 O.2   118  G118       -0.2633
   2551  N7        36.0110   32.3070   16.1860 N.ar  118  G118       -0.2173
   2552  C8        36.7510   32.9120   17.0760 C.ar  118  G118        0.1817
   2553  N9        37.9480   33.3760   16.5810 N.ar  118  G118       -0.2693
   2554  OP1       35.2150   35.2240   22.1120 O.3   118  G118       -0.4373
   2555  OP2       34.2380   33.7680   20.2180 O.co2 118  G118       -0.5172
   2556  P         37.2350   38.4510   18.2510 P.3   119  U119        0.2141
   2557  C5'       38.5230   39.2330   16.0860 C.3   119  U119        0.1812
   2558  O5'       37.4000   38.5570   16.6590 O.3   119  U119       -0.3114
   2559  C4'       38.6280   38.9840   14.5920 C.3   119  U119        0.1773
   2560  O4'       38.7320   37.5600   14.3390 O.3   119  U119       -0.3307
   2561  C3'       37.4330   39.4030   13.7490 C.3   119  U119        0.1860
   2562  O3'       37.4100   40.8050   13.5420 O.3   119  U119       -0.3112
   2563  C2'       37.7540   38.6240   12.4810 C.3   119  U119        0.2309
   2564  O2'       38.8330   39.1580   11.7450 O.3   119  U119       -0.2156
   2565  C1'       38.1600   37.2810   13.0750 C.3   119  U119        0.2420
   2566  N1        37.0010   36.3230   13.1870 N.ar  119  U119       -0.2534
   2567  C2        36.6420   35.5880   12.0660 C.ar  119  U119        0.3546
   2568  O2        37.2130   35.6620   10.9930 O.2   119  U119       -0.2443
   2569  N3        35.5740   34.7420   12.2380 N.ar  119  U119       -0.1530
   2570  C4        34.8370   34.5640   13.3930 C.ar  119  U119        0.2846
   2571  O4        33.9140   33.7620   13.3810 O.2   119  U119       -0.2650
   2572  C5        35.2570   35.3620   14.5230 C.ar  119  U119        0.0814
   2573  C6        36.2990   36.1930   14.3790 C.ar  119  U119        0.0870
   2574  OP1       37.5990   39.7480   18.8780 O.3   119  U119       -0.4373
   2575  OP2       35.9040   37.8620   18.5170 O.co2 119  U119       -0.5172
   2576  P         36.0660   41.5880   13.1370 P.3   120  A120        0.2141
   2577  C5'       36.4010   41.4440   10.5290 C.3   120  A120        0.1812
   2578  O5'       35.7060   41.0100   11.6900 O.3   120  A120       -0.3114
   2579  C4'       35.8300   40.7520    9.3110 C.3   120  A120        0.1773
   2580  O4'       35.9410   39.3190    9.4820 O.3   120  A120       -0.3307
   2581  C3'       34.3380   40.9550    9.0980 C.3   120  A120        0.1860
   2582  O3'       34.0410   42.2030    8.4990 O.3   120  A120       -0.3112
   2583  C2'       34.0150   39.7740    8.1900 C.3   120  A120        0.2309
   2584  O2'       34.4040   39.9640    6.8410 O.3   120  A120       -0.2156
   2585  C1'       34.8450   38.6830    8.8490 C.3   120  A120        0.2408
   2586  N1        31.6100   34.7590    9.6250 N.ar  120  A120       -0.2040
   2587  C2        32.1930   35.2320    8.5120 C.ar  120  A120        0.2016
   2588  N3        33.0330   36.2650    8.3870 N.ar  120  A120       -0.2048
   2589  C4        33.2640   36.8540    9.5760 C.ar  120  A120        0.1692
   2590  C5        32.7370   36.4870   10.8020 C.ar  120  A120        0.1518
   2591  C6        31.8640   35.3770   10.8030 C.ar  120  A120        0.1919
   2592  N6        31.2820   34.9150   11.9080 N.pl3 120  A120       -0.1054
   2593  N7        33.1970   37.3200   11.8070 N.ar  120  A120       -0.2193
   2594  C8        33.9820   38.1660   11.1800 C.ar  120  A120        0.1816
   2595  N9        34.0690   37.9380    9.8330 N.ar  120  A120       -0.2693
   2596  OP1       36.3950   43.0320   13.0430 O.2   120  A120       -0.5172
   2597  OP2       34.9670   41.1530   14.0230 O.co2 120  A120       -0.4373
   2598  P         32.6470   42.9130    8.8400 P.3   121  U121        0.2141
   2599  C5'       31.7860   42.1290    6.4610 C.3   121  U121        0.1812
   2600  O5'       31.6000   42.1770    7.8760 O.3   121  U121       -0.3114
   2601  C4'       31.0040   40.9760    5.8600 C.3   121  U121        0.1773
   2602  O4'       31.4080   39.7330    6.4840 O.3   121  U121       -0.3307
   2603  C3'       29.5080   41.0240    6.1200 C.3   121  U121        0.1860
   2604  O3'       28.8540   41.8530    5.1870 O.3   121  U121       -0.3112
   2605  C2'       29.1110   39.5660    5.9520 C.3   121  U121        0.2309
   2606  O2'       29.0080   39.2040    4.5860 O.3   121  U121       -0.2156
   2607  C1'       30.2900   38.8710    6.6320 C.3   121  U121        0.2420
   2608  N1        30.0470   38.5480    8.0910 N.ar  121  U121       -0.2534
   2609  C2        29.3740   37.3850    8.4210 C.ar  121  U121        0.3546
   2610  O2        28.9640   36.5960    7.5880 O.2   121  U121       -0.2443
   2611  N3        29.1940   37.1680    9.7720 N.ar  121  U121       -0.1530
   2612  C4        29.6040   37.9820   10.8150 C.ar  121  U121        0.2846
   2613  O4        29.3670   37.6630   11.9740 O.2   121  U121       -0.2650
   2614  C5        30.2960   39.1740   10.4030 C.ar  121  U121        0.0814
   2615  C6        30.4840   39.4030    9.0920 C.ar  121  U121        0.0870
   2616  OP1       32.7930   44.3260    8.4350 O.2   121  U121       -0.5172
   2617  OP2       32.2480   42.5800   10.2270 O.co2 121  U121       -0.4373
   2618  P         27.6720   42.7790    5.7350 P.3   122  G122        0.2141
   2619  C5'       25.4850   41.4160    5.0440 C.3   122  G122        0.1812
   2620  O5'       26.4780   41.7400    6.0220 O.3   122  G122       -0.3114
   2621  C4'       24.7530   40.1360    5.4100 C.3   122  G122        0.1773
   2622  O4'       25.6860   39.1880    5.9940 O.3   122  G122       -0.3307
   2623  C3'       23.6670   40.2840    6.4660 C.3   122  G122        0.1860
   2624  O3'       22.4210   40.7070    5.9270 O.3   122  G122       -0.3112
   2625  C2'       23.5620   38.8630    7.0070 C.3   122  G122        0.2309
   2626  O2'       22.6930   38.0130    6.2790 O.3   122  G122       -0.2156
   2627  C1'       25.0090   38.3780    6.9390 C.3   122  G122        0.2408
   2628  N1        24.9980   36.4460   11.6170 N.ar  122  G122       -0.1709
   2629  C2        24.3190   36.0410   10.4840 C.ar  122  G122        0.2606
   2630  N2        23.5230   34.9750   10.5970 N.pl3 122  G122       -0.0859
   2631  N3        24.4180   36.6370    9.3050 N.ar  122  G122       -0.1918
   2632  C4        25.2600   37.7010    9.3440 C.ar  122  G122        0.1723
   2633  C5        25.9770   38.1910   10.4110 C.ar  122  G122        0.1748
   2634  C6        25.8690   37.5370   11.6690 C.ar  122  G122        0.3023
   2635  O6        26.4320   37.8220   12.7340 O.2   122  G122       -0.2633
   2636  N7        26.7210   39.2980   10.0250 N.ar  122  G122       -0.2173
   2637  C8        26.4410   39.4520    8.7600 C.ar  122  G122        0.1817
   2638  N9        25.5700   38.5090    8.2790 N.ar  122  G122       -0.2693
   2639  OP1       27.3150   43.7330    4.6530 O.2   122  G122       -0.5172
   2640  OP2       28.0870   43.2870    7.0630 O.co2 122  G122       -0.4373
   2641  P         21.3750   41.4840    6.8760 P.3   123  G123        0.2141
   2642  C5'       19.7240   39.4500    7.0150 C.3   123  G123        0.1812
   2643  O5'       20.6310   40.3170    7.6730 O.3   123  G123       -0.3114
   2644  C4'       19.2190   38.3980    7.9830 C.3   123  G123        0.1773
   2645  O4'       20.2940   37.5290    8.4280 O.3   123  G123       -0.3307
   2646  C3'       18.6480   38.9260    9.2850 C.3   123  G123        0.1860
   2647  O3'       17.3590   39.4380    9.0610 O.3   123  G123       -0.3112
   2648  C2'       18.6320   37.6250   10.0750 C.3   123  G123        0.2309
   2649  O2'       17.6590   36.7060    9.6080 O.3   123  G123       -0.2156
   2650  C1'       20.0370   37.1270    9.7620 C.3   123  G123        0.2408
   2651  N1        22.0240   37.1300   14.4710 N.ar  123  G123       -0.1709
   2652  C2        20.9510   36.4160   13.9670 C.ar  123  G123        0.2606
   2653  N2        20.3180   35.5830   14.8010 N.pl3 123  G123       -0.0859
   2654  N3        20.5260   36.4940   12.7120 N.ar  123  G123       -0.1918
   2655  C4        21.2580   37.3710   11.9790 C.ar  123  G123        0.1723
   2656  C5        22.3330   38.1320   12.3860 C.ar  123  G123        0.1748
   2657  C6        22.7870   38.0360   13.7250 C.ar  123  G123        0.3023
   2658  O6        23.7360   38.6460   14.2390 O.2   123  G123       -0.2633
   2659  N7        22.8190   38.9010   11.3420 N.ar  123  G123       -0.2173
   2660  C8        22.0350   38.6000   10.3450 C.ar  123  G123        0.1817
   2661  N9        21.0640   37.6780   10.6530 N.ar  123  G123       -0.2693
   2662  OP1       20.4140   42.1720    5.9820 O.2   123  G123       -0.5172
   2663  OP2       22.1200   42.2490    7.9080 O.co2 123  G123       -0.4373
   2664  P         16.7470   40.5300   10.0450 P.3   124  G124        0.2141
   2665  C5'       15.4400   38.7500   11.4900 C.3   124  G124        0.1812
   2666  O5'       16.5060   39.6950   11.3880 O.3   124  G124       -0.3114
   2667  C4'       15.4600   38.0640   12.8440 C.3   124  G124        0.1773
   2668  O4'       16.7670   37.4670   13.0610 O.3   124  G124       -0.3307
   2669  C3'       15.2770   38.9710   14.0590 C.3   124  G124        0.1860
   2670  O3'       13.9200   39.2400   14.3200 O.3   124  G124       -0.3112
   2671  C2'       15.8990   38.1250   15.1620 C.3   124  G124        0.2309
   2672  O2'       15.0780   37.0610   15.5910 O.3   124  G124       -0.2156
   2673  C1'       17.1190   37.5690   14.4330 C.3   124  G124        0.2408
   2674  N1        20.5230   39.1530   17.8280 N.ar  124  G124       -0.1709
   2675  C2        19.4800   38.2690   17.9620 C.ar  124  G124        0.2606
   2676  N2        19.3020   37.7110   19.1600 N.pl3 124  G124       -0.0859
   2677  N3        18.6600   37.9380   16.9760 N.ar  124  G124       -0.1918
   2678  C4        18.9580   38.5760   15.8160 C.ar  124  G124        0.1723
   2679  C5        19.9670   39.4750   15.5730 C.ar  124  G124        0.1748
   2680  C6        20.8370   39.8090   16.6400 C.ar  124  G124        0.3023
   2681  O6        21.7950   40.5830   16.6250 O.2   124  G124       -0.2633
   2682  N7        19.9390   39.8960   14.2500 N.ar  124  G124       -0.2173
   2683  C8        18.9240   39.2530   13.7350 C.ar  124  G124        0.1817
   2684  N9        18.2870   38.4270   14.6300 N.ar  124  G124       -0.2693
   2685  OP1       15.4500   40.9480    9.4710 O.2   124  G124       -0.5172
   2686  OP2       17.7730   41.5610   10.3160 O.co2 124  G124       -0.4373
   2687  P         13.4760   40.7470   14.6320 P.3   125  G125        0.2141
   2688  C5'       13.8000   40.5660   17.2420 C.3   125  G125        0.1812
   2689  O5'       14.2480   41.0940   15.9930 O.3   125  G125       -0.3114
   2690  C4'       14.7120   41.0110   18.3620 C.3   125  G125        0.1773
   2691  O4'       16.0590   40.5150   18.1300 O.3   125  G125       -0.3307
   2692  C3'       14.8860   42.5150   18.4590 C.3   125  G125        0.1860
   2693  O3'       13.8060   43.1000   19.1600 O.3   125  G125       -0.3112
   2694  C2'       16.2330   42.6260   19.1740 C.3   125  G125        0.2309
   2695  O2'       16.1830   42.4420   20.5750 O.3   125  G125       -0.2156
   2696  C1'       17.0150   41.4880   18.5220 C.3   125  G125        0.2408
   2697  N1        21.3720   43.5410   16.8410 N.ar  125  G125       -0.1709
   2698  C2        21.0330   43.1390   18.1180 C.ar  125  G125        0.2606
   2699  N2        21.9740   43.3070   19.0600 N.pl3 125  G125       -0.0859
   2700  N3        19.8590   42.6020   18.4440 N.ar  125  G125       -0.1918
   2701  C4        19.0310   42.5080   17.3700 C.ar  125  G125        0.1723
   2702  C5        19.2780   42.8870   16.0610 C.ar  125  G125        0.1748
   2703  C6        20.5360   43.4490   15.7280 C.ar  125  G125        0.3023
   2704  O6        20.9280   43.8330   14.6180 O.2   125  G125       -0.2633
   2705  N7        18.1820   42.6310   15.2510 N.ar  125  G125       -0.2173
   2706  C8        17.3120   42.1110   16.0690 C.ar  125  G125        0.1817
   2707  N9        17.7540   41.9960   17.3690 N.ar  125  G125       -0.2693
   2708  OP1       12.0180   40.7300   14.9170 O.3   125  G125       -0.4373
   2709  OP2       14.0010   41.6220   13.5510 O.co2 125  G125       -0.5172
   2710  P         12.9680   44.2960   18.4970 P.3   126  A126        0.2141
   2711  C5'       13.8630   46.6900   18.1390 C.3   126  A126        0.1812
   2712  O5'       13.7240   45.5970   19.0160 O.3   126  A126       -0.3114
   2713  C4'       14.7210   47.7550   18.7770 C.3   126  A126        0.1773
   2714  O4'       14.3130   47.9310   20.1500 O.3   126  A126       -0.3307
   2715  C3'       16.2000   47.4240   18.8560 C.3   126  A126        0.1860
   2716  O3'       16.8290   47.8130   17.6560 O.3   126  A126       -0.3112
   2717  C2'       16.6290   48.3400   19.9830 C.3   126  A126        0.2309
   2718  O2'       16.7160   49.6810   19.5550 O.3   126  A126       -0.2156
   2719  C1'       15.4510   48.2090   20.9380 C.3   126  A126        0.2408
   2720  N1        17.9920   46.6390   25.1590 N.ar  126  A126       -0.2040
   2721  C2        18.1930   47.6830   24.3440 C.ar  126  A126        0.2016
   2722  N3        17.4970   48.0350   23.2630 N.ar  126  A126       -0.2048
   2723  C4        16.4890   47.1680   23.0280 C.ar  126  A126        0.1692
   2724  C5        16.1690   46.0530   23.7800 C.ar  126  A126        0.1518
   2725  C6        16.9760   45.7950   24.9020 C.ar  126  A126        0.1919
   2726  N6        16.7890   44.7540   25.7130 N.pl3 126  A126       -0.1054
   2727  N7        15.0750   45.3940   23.2460 N.ar  126  A126       -0.2193
   2728  C8        14.7530   46.1150   22.1980 C.ar  126  A126        0.1816
   2729  N9        15.5670   47.2000   21.9980 N.ar  126  A126       -0.2693
   2730  OP1       11.6330   44.3000   19.1170 O.3   126  A126       -0.4373
   2731  OP2       13.0920   44.2530   17.0220 O.co2 126  A126       -0.5172
   2732  P         17.8140   46.8250   16.8750 P.3   127  A127        0.2141
   2733  C5'       19.8340   48.0040   18.0010 C.3   127  A127        0.1812
   2734  O5'       19.1090   46.7960   17.8090 O.3   127  A127       -0.3114
   2735  C4'       20.6770   47.9740   19.2600 C.3   127  A127        0.1773
   2736  O4'       19.8680   47.7280   20.4360 O.3   127  A127       -0.3307
   2737  C3'       21.7370   46.8910   19.2560 C.3   127  A127        0.1860
   2738  O3'       22.8600   47.4300   18.5820 O.3   127  A127       -0.3112
   2739  C2'       21.9680   46.6570   20.7470 C.3   127  A127        0.2309
   2740  O2'       22.8920   47.5780   21.2880 O.3   127  A127       -0.2156
   2741  C1'       20.5970   46.9370   21.3580 C.3   127  A127        0.2408
   2742  N1        19.2010   43.2950   24.7900 N.ar  127  A127       -0.2040
   2743  C2        20.1250   44.2660   24.8670 C.ar  127  A127        0.2016
   2744  N3        20.4470   45.1800   23.9490 N.ar  127  A127       -0.2048
   2745  C4        19.7090   45.0350   22.8310 C.ar  127  A127        0.1692
   2746  C5        18.7300   44.0770   22.6120 C.ar  127  A127        0.1518
   2747  C6        18.4750   43.1730   23.6550 C.ar  127  A127        0.1919
   2748  N6        17.5550   42.2120   23.5570 N.pl3 127  A127       -0.1054
   2749  N7        18.1680   44.2090   21.3600 N.ar  127  A127       -0.2193
   2750  C8        18.8070   45.2340   20.8460 C.ar  127  A127        0.1816
   2751  N9        19.7570   45.7800   21.6670 N.ar  127  A127       -0.2693
   2752  OP1       18.1420   47.5090   15.6050 O.2   127  A127       -0.5172
   2753  OP2       17.2490   45.4610   16.8450 O.co2 127  A127       -0.4373
   2754  P         23.9540   46.5200   17.8600 P.3   128  U128        0.2141
   2755  C5'       26.1460   46.8220   19.3220 C.3   128  U128        0.1812
   2756  O5'       24.9220   46.1190   19.0700 O.3   128  U128       -0.3114
   2757  C4'       26.6630   46.6070   20.7400 C.3   128  U128        0.1773
   2758  O4'       26.0660   47.5740   21.6430 O.3   128  U128       -0.3307
   2759  C3'       26.3610   45.2660   21.4000 C.3   128  U128        0.1860
   2760  O3'       27.2820   44.2900   20.9180 O.3   128  U128       -0.3112
   2761  C2'       26.5510   45.6170   22.8850 C.3   128  U128        0.2309
   2762  O2'       27.8840   45.4550   23.3350 O.3   128  U128       -0.2156
   2763  C1'       26.1630   47.1010   22.9790 C.3   128  U128        0.2420
   2764  N1        24.8820   47.5030   23.7180 N.ar  128  U128       -0.2534
   2765  C2        23.7910   46.6540   23.8770 C.ar  128  U128        0.3546
   2766  O2        23.7380   45.5150   23.4650 O.2   128  U128       -0.2443
   2767  N3        22.7140   47.1850   24.5500 N.ar  128  U128       -0.1530
   2768  C4        22.5950   48.4580   25.0830 C.ar  128  U128        0.2846
   2769  O4        21.5580   48.7810   25.6640 O.2   128  U128       -0.2650
   2770  C5        23.7590   49.2930   24.8820 C.ar  128  U128        0.0814
   2771  C6        24.8250   48.7960   24.2250 C.ar  128  U128        0.0870
   2772  OP1       24.6380   47.4150   16.8990 O.2   128  U128       -0.5172
   2773  OP2       23.3610   45.2460   17.4030 O.co2 128  U128       -0.4373
   2774  P         26.9230   42.7320   20.7440 P.3   129  A129        0.2141
   2775  C5'       27.2980   42.0670   23.2630 C.3   129  A129        0.1812
   2776  O5'       26.3870   42.2990   22.1890 O.3   129  A129       -0.3114
   2777  C4'       26.5810   42.0640   24.5990 C.3   129  A129        0.1773
   2778  O4'       25.5150   43.0570   24.6220 O.3   129  A129       -0.3307
   2779  C3'       25.8940   40.7480   24.9200 C.3   129  A129        0.1860
   2780  O3'       26.8050   39.8110   25.4820 O.3   129  A129       -0.3112
   2781  C2'       24.8240   41.2200   25.8990 C.3   129  A129        0.2309
   2782  O2'       25.3360   41.5070   27.1820 O.3   129  A129       -0.2156
   2783  C1'       24.3470   42.5030   25.2070 C.3   129  A129        0.2408
   2784  N1        19.8240   40.2300   24.0430 N.ar  129  A129       -0.2040
   2785  C2        20.5070   40.3160   25.1890 C.ar  129  A129        0.2016
   2786  N3        21.6690   40.9230   25.4300 N.ar  129  A129       -0.2048
   2787  C4        22.1570   41.5040   24.3150 C.ar  129  A129        0.1692
   2788  C5        21.5630   41.4990   23.0640 C.ar  129  A129        0.1518
   2789  C6        20.3310   40.8150   22.9370 C.ar  129  A129        0.1919
   2790  N6        19.6330   40.7280   21.7940 N.pl3 129  A129       -0.1054
   2791  N7        22.3410   42.1920   22.1590 N.ar  129  A129       -0.2193
   2792  C8        23.3690   42.5940   22.8610 C.ar  129  A129        0.1816
   2793  N9        23.3330   42.2240   24.1740 N.ar  129  A129       -0.2693
   2794  OP1       28.1970   42.0130   20.4950 O.3   129  A129       -0.4373
   2795  OP2       25.8120   42.6070   19.7730 O.co2 129  A129       -0.5172
   2796  P         27.1760   38.4620   24.7010 P.3   130  C130        0.2141
   2797  C5'       25.2050   37.0260   25.6070 C.3   130  C130        0.1812
   2798  O5'       25.8030   37.6880   24.4980 O.3   130  C130       -0.3114
   2799  C4'       23.8250   36.5590   25.2260 C.3   130  C130        0.1773
   2800  O4'       23.0440   37.7230   24.8520 O.3   130  C130       -0.3307
   2801  C3'       23.8350   35.7100   23.9710 C.3   130  C130        0.1860
   2802  O3'       24.1360   34.3570   24.2690 O.3   130  C130       -0.3112
   2803  C2'       22.4260   35.9510   23.4370 C.3   130  C130        0.2309
   2804  O2'       21.4180   35.2660   24.1550 O.3   130  C130       -0.2156
   2805  C1'       22.3100   37.4560   23.6630 C.3   130  C130        0.2420
   2806  N1        22.8070   38.2840   22.4900 N.ar  130  C130       -0.2535
   2807  C2        22.0160   38.4040   21.3370 C.ar  130  C130        0.3532
   2808  O2        20.9260   37.8400   21.3000 O.2   130  C130       -0.2443
   2809  N3        22.4620   39.1420   20.2860 N.ar  130  C130       -0.1739
   2810  C4        23.6530   39.7520   20.3460 C.ar  130  C130        0.1759
   2811  N4        24.0510   40.4730   19.2940 N.pl3 130  C130       -0.1070
   2812  C5        24.4820   39.6470   21.5030 C.ar  130  C130        0.0566
   2813  C6        24.0220   38.9150   22.5300 C.ar  130  C130        0.0850
   2814  OP1       28.0030   37.6420   25.6050 O.3   130  C130       -0.4373
   2815  OP2       27.6680   38.8020   23.3530 O.co2 130  C130       -0.5172
   2816  P         24.8900   33.4580   23.1730 P.3   131  C131        0.2141
   2817  C5'       22.5290   32.5790   22.4920 C.3   131  C131        0.1812
   2818  O5'       23.7360   33.2210   22.0940 O.3   131  C131       -0.3114
   2819  C4'       21.5520   32.5520   21.3460 C.3   131  C131        0.1773
   2820  O4'       21.2140   33.9150   21.0000 O.3   131  C131       -0.3307
   2821  C3'       22.1390   32.0000   20.0650 C.3   131  C131        0.1860
   2822  O3'       22.1160   30.5870   20.0850 O.3   131  C131       -0.3112
   2823  C2'       21.2130   32.6170   19.0220 C.3   131  C131        0.2309
   2824  O2'       19.9730   31.9560   18.8940 O.3   131  C131       -0.2156
   2825  C1'       20.9680   34.0000   19.6090 C.3   131  C131        0.2420
   2826  N1        21.8410   35.0340   18.9940 N.ar  131  C131       -0.2535
   2827  C2        21.4620   35.5870   17.7610 C.ar  131  C131        0.3532
   2828  O2        20.4110   35.2060   17.2220 O.2   131  C131       -0.2443
   2829  N3        22.2610   36.5340   17.1980 N.ar  131  C131       -0.1739
   2830  C4        23.3830   36.9120   17.8230 C.ar  131  C131        0.1759
   2831  N4        24.1380   37.8410   17.2410 N.pl3 131  C131       -0.1070
   2832  C5        23.7910   36.3600   19.0750 C.ar  131  C131        0.0566
   2833  C6        22.9950   35.4340   19.6190 C.ar  131  C131        0.0850
   2834  OP1       25.2060   32.1520   23.7920 O.3   131  C131       -0.4373
   2835  OP2       25.9770   34.2310   22.5410 O.co2 131  C131       -0.5172
   2836  P         23.2950   29.8160   19.3180 P.3   132  C132        0.2141
   2837  C5'       21.7070   29.5300   17.2450 C.3   132  C132        0.1812
   2838  O5'       22.9080   30.0850   17.7820 O.3   132  C132       -0.3114
   2839  C4'       21.4360   30.0810   15.8680 C.3   132  C132        0.1773
   2840  O4'       21.3940   31.5230   15.9250 O.3   132  C132       -0.3307
   2841  C3'       22.5410   29.8450   14.8610 C.3   132  C132        0.1860
   2842  O3'       22.5530   28.5260   14.3910 O.3   132  C132       -0.3112
   2843  C2'       22.1420   30.8420   13.7840 C.3   132  C132        0.2309
   2844  O2'       21.0320   30.4240   13.0160 O.3   132  C132       -0.2156
   2845  C1'       21.7850   32.0420   14.6600 C.3   132  C132        0.2420
   2846  N1        22.9290   33.0190   14.7990 N.ar  132  C132       -0.2535
   2847  C2        23.1320   33.9890   13.8130 C.ar  132  C132        0.3532
   2848  O2        22.3520   34.0220   12.8570 O.2   132  C132       -0.2443
   2849  N3        24.1640   34.8680   13.9440 N.ar  132  C132       -0.1739
   2850  C4        24.9800   34.7890   15.0040 C.ar  132  C132        0.1759
   2851  N4        25.9900   35.6530   15.1150 N.pl3 132  C132       -0.1070
   2852  C5        24.8010   33.8070   16.0140 C.ar  132  C132        0.0566
   2853  C6        23.7760   32.9570   15.8720 C.ar  132  C132        0.0850
   2854  OP1       23.1850   28.3580   19.6040 O.3   132  C132       -0.4373
   2855  OP2       24.5720   30.5340   19.5660 O.co2 132  C132       -0.5172
   2856  P         23.9400   27.9640   13.8480 P.3   133  A133        0.2141
   2857  C5'       23.1690   28.1470   11.3740 C.3   133  A133        0.1812
   2858  O5'       24.0450   28.5930   12.3830 O.3   133  A133       -0.3114
   2859  C4'       23.4420   28.8960   10.0910 C.3   133  A133        0.1773
   2860  O4'       23.2920   30.3260   10.2960 O.3   133  A133       -0.3307
   2861  C3'       24.8510   28.7180    9.5450 C.3   133  A133        0.1860
   2862  O3'       24.8940   27.5310    8.7780 O.3   133  A133       -0.3112
   2863  C2'       25.0160   29.9850    8.7080 C.3   133  A133        0.2309
   2864  O2'       24.3730   29.9190    7.4530 O.3   133  A133       -0.2156
   2865  C1'       24.3060   31.0140    9.5800 C.3   133  A133        0.2408
   2866  N1        27.7270   34.7780   10.3270 N.ar  133  A133       -0.2040
   2867  C2        27.0420   34.3960    9.2360 C.ar  133  A133        0.2016
   2868  N3        26.1600   33.4010    9.1100 N.ar  133  A133       -0.2048
   2869  C4        26.0070   32.7520   10.2790 C.ar  133  A133        0.1692
   2870  C5        26.6410   33.0280   11.4810 C.ar  133  A133        0.1518
   2871  C6        27.5440   34.1040   11.4850 C.ar  133  A133        0.1919
   2872  N6        28.2170   34.4760   12.5760 N.pl3 133  A133       -0.1054
   2873  N7        26.2380   32.1580   12.4750 N.ar  133  A133       -0.2193
   2874  C8        25.3810   31.3800   11.8580 C.ar  133  A133        0.1816
   2875  N9        25.1900   31.6810   10.5330 N.ar  133  A133       -0.2693
   2876  OP1       23.7950   26.5010   13.7160 O.2   133  A133       -0.5172
   2877  OP2       25.0290   28.5470   14.6660 O.co2 133  A133       -0.4373
   2878  P         26.2150   26.6370    8.6910 P.3   134  U134        0.2141
   2879  C5'       26.8150   27.5960    6.3060 C.3   134  U134        0.1812
   2880  O5'       27.1380   27.4760    7.6930 O.3   134  U134       -0.3114
   2881  C4'       27.6390   28.7150    5.6900 C.3   134  U134        0.1773
   2882  O4'       27.3610   29.9970    6.3260 O.3   134  U134       -0.3307
   2883  C3'       29.1380   28.5670    5.8940 C.3   134  U134        0.1860
   2884  O3'       29.6910   27.6420    4.9990 O.3   134  U134       -0.3112
   2885  C2'       29.6400   29.9870    5.6570 C.3   134  U134        0.2309
   2886  O2'       29.7410   30.3320    4.2890 O.3   134  U134       -0.2156
   2887  C1'       28.5450   30.7910    6.3550 C.3   134  U134        0.2420
   2888  N1        28.9560   31.1600    7.7620 N.ar  134  U134       -0.2534
   2889  C2        29.7180   32.3030    7.9540 C.ar  134  U134        0.3546
   2890  O2        30.0700   33.0430    7.0540 O.2   134  U134       -0.2443
   2891  N3        30.0590   32.5610    9.2610 N.ar  134  U134       -0.1530
   2892  C4        29.7260   31.8050   10.3750 C.ar  134  U134        0.2846
   2893  O4        30.1090   32.1660   11.4800 O.2   134  U134       -0.2650
   2894  C5        28.9370   30.6240   10.1060 C.ar  134  U134        0.0814
   2895  C6        28.5950   30.3520    8.8360 C.ar  134  U134        0.0870
   2896  OP1       25.8270   25.3660    8.0350 O.2   134  U134       -0.5172
   2897  OP2       26.8880   26.6130   10.0060 O.co2 134  U134       -0.4373
   2898  P         30.9930   26.8670    5.4870 P.3   135  A135        0.2141
   2899  C5'       32.5620   28.3640    3.9410 C.3   135  A135        0.1812
   2900  O5'       32.1710   27.9330    5.2480 O.3   135  A135       -0.3114
   2901  C4'       33.3960   29.6410    3.9640 C.3   135  A135        0.1773
   2902  O4'       32.6980   30.7080    4.6610 O.3   135  A135       -0.3307
   2903  C3'       34.7470   29.5550    4.6680 C.3   135  A135        0.1860
   2904  O3'       35.7460   28.9350    3.8440 O.3   135  A135       -0.3112
   2905  C2'       35.0070   31.0320    4.9630 C.3   135  A135        0.2309
   2906  O2'       35.4280   31.7920    3.8480 O.3   135  A135       -0.2156
   2907  C1'       33.6200   31.4780    5.4130 C.3   135  A135        0.2408
   2908  N1        34.6140   33.2480   10.1770 N.ar  135  A135       -0.2040
   2909  C2        34.9670   33.6920    8.9640 C.ar  135  A135        0.2016
   2910  N3        34.6670   33.1840    7.7640 N.ar  135  A135       -0.2048
   2911  C4        33.9120   32.0750    7.8760 C.ar  135  A135        0.1692
   2912  C5        33.4710   31.4980    9.0600 C.ar  135  A135        0.1518
   2913  C6        33.8560   32.1380   10.2590 C.ar  135  A135        0.1919
   2914  N6        33.5130   31.6990   11.4670 N.pl3 135  A135       -0.1054
   2915  N7        32.7180   30.3620    8.8020 N.ar  135  A135       -0.2193
   2916  C8        32.7170   30.2830    7.4860 C.ar  135  A135        0.1816
   2917  N9        33.4170   31.2830    6.8560 N.ar  135  A135       -0.2693
   2918  OP1       31.1670   25.7110    4.5840 O.2   135  A135       -0.5172
   2919  OP2       30.8750   26.6540    6.9490 O.co2 135  A135       -0.4373
   2920  P         36.6830   27.7530    4.4130 P.3   136  C136        0.2141
   2921  C5'       38.6370   29.4920    4.2720 C.3   136  C136        0.1812
   2922  O5'       37.9020   28.5600    5.0580 O.3   136  C136       -0.3114
   2923  C4'       39.2290   30.5970    5.1290 C.3   136  C136        0.1773
   2924  O4'       38.1760   31.3860    5.7490 O.3   136  C136       -0.3307
   2925  C3'       40.0830   30.1360    6.3020 C.3   136  C136        0.1860
   2926  O3'       41.3740   29.7620    5.8500 O.3   136  C136       -0.3112
   2927  C2'       40.0460   31.3990    7.1630 C.3   136  C136        0.2309
   2928  O2'       40.7990   32.4820    6.6460 O.3   136  C136       -0.2156
   2929  C1'       38.5610   31.7420    7.0680 C.3   136  C136        0.2420
   2930  N1        37.7060   31.0280    8.0960 N.ar  136  C136       -0.2535
   2931  C2        37.6520   31.5030    9.4220 C.ar  136  C136        0.3532
   2932  O2        38.2970   32.5090    9.7480 O.2   136  C136       -0.2443
   2933  N3        36.8800   30.8410   10.3270 N.ar  136  C136       -0.1739
   2934  C4        36.1920   29.7520    9.9590 C.ar  136  C136        0.1759
   2935  N4        35.4480   29.1370   10.8810 N.pl3 136  C136       -0.1070
   2936  C5        36.2270   29.2480    8.6240 C.ar  136  C136        0.0566
   2937  C6        36.9870   29.9130    7.7440 C.ar  136  C136        0.0850
   2938  OP1       37.1880   26.9690    3.2660 O.2   136  C136       -0.5172
   2939  OP2       35.9840   27.0310    5.5000 O.co2 136  C136       -0.4373
   2940  P         42.0540   28.3890    6.3200 P.3   137  C137        0.2141
   2941  C5'       43.5800   29.9550    7.8200 C.3   137  C137        0.1812
   2942  O5'       42.7270   28.8010    7.7100 O.3   137  C137       -0.3114
   2943  C4'       43.6520   30.4710    9.2530 C.3   137  C137        0.1773
   2944  O4'       42.3730   31.0200    9.6770 O.3   137  C137       -0.3307
   2945  C3'       43.9020   29.4280   10.3250 C.3   137  C137        0.1860
   2946  O3'       45.2460   29.0390   10.3440 O.3   137  C137       -0.3112
   2947  C2'       43.4900   30.1960   11.5690 C.3   137  C137        0.2309
   2948  O2'       44.4030   31.2150   11.9170 O.3   137  C137       -0.2156
   2949  C1'       42.1830   30.7900   11.0650 C.3   137  C137        0.2420
   2950  N1        40.9890   29.8940   11.3200 N.ar  137  C137       -0.2535
   2951  C2        40.4000   29.8700   12.6010 C.ar  137  C137        0.3532
   2952  O2        40.8570   30.5830   13.5030 O.2   137  C137       -0.2443
   2953  N3        39.3280   29.0660   12.8260 N.ar  137  C137       -0.1739
   2954  C4        38.8420   28.3000   11.8460 C.ar  137  C137        0.1759
   2955  N4        37.7890   27.5270   12.1250 N.pl3 137  C137       -0.1070
   2956  C5        39.4240   28.2970   10.5410 C.ar  137  C137        0.0566
   2957  C6        40.4780   29.0990   10.3260 C.ar  137  C137        0.0850
   2958  OP1       43.1320   28.0810    5.3580 O.2   137  C137       -0.5172
   2959  OP2       41.0190   27.3650    6.5910 O.co2 137  C137       -0.4373
   2960  P         45.6030   27.5940    9.7840 P.3   138  A138        0.2141
   2961  C5'       46.2660   26.2470   11.9460 C.3   138  A138        0.1812
   2962  O5'       46.6670   27.0590   10.8470 O.3   138  A138       -0.3114
   2963  C4'       46.3740   27.0480   13.2310 C.3   138  A138        0.1773
   2964  O4'       45.4190   28.1470   13.2110 O.3   138  A138       -0.3307
   2965  C3'       46.0660   26.2680   14.5020 C.3   138  A138        0.1860
   2966  O3'       47.2660   25.7630   15.0270 O.3   138  A138       -0.3112
   2967  C2'       45.4990   27.3550   15.4050 C.3   138  A138        0.2309
   2968  O2'       46.5060   28.1830   15.9570 O.3   138  A138       -0.2156
   2969  C1'       44.6500   28.1330   14.4050 C.3   138  A138        0.2408
   2970  N1        40.0650   26.7670   16.3560 N.ar  138  A138       -0.2040
   2971  C2        41.1320   27.3450   16.9180 C.ar  138  A138        0.2016
   2972  N3        42.2940   27.6720   16.3540 N.ar  138  A138       -0.2048
   2973  C4        42.3070   27.3430   15.0480 C.ar  138  A138        0.1692
   2974  C5        41.2850   26.7410   14.3310 C.ar  138  A138        0.1518
   2975  C6        40.1050   26.4400   15.0440 C.ar  138  A138        0.1919
   2976  N6        39.0390   25.8580   14.4790 N.pl3 138  A138       -0.1054
   2977  N7        41.6490   26.5470   13.0080 N.ar  138  A138       -0.2193
   2978  C8        42.8650   27.0310   12.9520 C.ar  138  A138        0.1816
   2979  N9        43.3320   27.5300   14.1430 N.ar  138  A138       -0.2693
   2980  OP1       46.2600   27.7940    8.4720 O.2   138  A138       -0.5172
   2981  OP2       44.3900   26.7490    9.8780 O.co2 138  A138       -0.4373
   2982  P         47.3560   24.2770   15.6000 P.3   139  C139        0.2141
   2983  C5'       46.7400   25.0930   18.0100 C.3   139  C139        0.1812
   2984  O5'       46.3830   24.3420   16.8660 O.3   139  C139       -0.3114
   2985  C4'       45.5970   25.0600   18.9960 C.3   139  C139        0.1773
   2986  O4'       44.4110   25.6330   18.3980 O.3   139  C139       -0.3307
   2987  C3'       45.1400   23.6730   19.3790 C.3   139  C139        0.1860
   2988  O3'       46.0220   23.1160   20.3230 O.3   139  C139       -0.3112
   2989  C2'       43.7740   24.0100   19.9620 C.3   139  C139        0.2309
   2990  O2'       43.8490   24.6580   21.2170 O.3   139  C139       -0.2156
   2991  C1'       43.2580   24.9810   18.9040 C.3   139  C139        0.2420
   2992  N1        42.4710   24.3030   17.7930 N.ar  139  C139       -0.2535
   2993  C2        41.1240   23.9470   17.9970 C.ar  139  C139        0.3532
   2994  O2        40.5940   24.1980   19.0810 O.2   139  C139       -0.2443
   2995  N3        40.4370   23.3350   16.9910 N.ar  139  C139       -0.1739
   2996  C4        41.0400   23.0730   15.8210 C.ar  139  C139        0.1759
   2997  N4        40.3390   22.4680   14.8600 N.pl3 139  C139       -0.1070
   2998  C5        42.4040   23.4180   15.5870 C.ar  139  C139        0.0566
   2999  C6        43.0690   24.0210   16.5860 C.ar  139  C139        0.0850
   3000  OP1       48.7420   24.0880   16.0730 O.3   139  C139       -0.4373
   3001  OP2       46.7780   23.3390   14.6090 O.co2 139  C139       -0.5172
   3002  P         46.2980   21.5410   20.2690 P.3   140  U140        0.2141
   3003  C5'       44.5070   21.1220   22.1360 C.3   140  U140        0.1812
   3004  O5'       44.9090   20.9600   20.7880 O.3   140  U140       -0.3114
   3005  C4'       43.0750   20.6610   22.2920 C.3   140  U140        0.1773
   3006  O4'       42.2390   21.3650   21.3440 O.3   140  U140       -0.3307
   3007  C3'       42.8450   19.2190   21.9100 C.3   140  U140        0.1860
   3008  O3'       43.3030   18.3530   22.9350 O.3   140  U140       -0.3112
   3009  C2'       41.3360   19.2360   21.6990 C.3   140  U140        0.2309
   3010  O2'       40.5910   19.3900   22.8870 O.3   140  U140       -0.2156
   3011  C1'       41.2040   20.5140   20.8830 C.3   140  U140        0.2420
   3012  N1        41.3170   20.3110   19.3920 N.ar  140  U140       -0.2534
   3013  C2        40.2370   19.8340   18.6700 C.ar  140  U140        0.3546
   3014  O2        39.1520   19.5480   19.1550 O.2   140  U140       -0.2443
   3015  N3        40.4760   19.6970   17.3230 N.ar  140  U140       -0.1530
   3016  C4        41.6450   19.9730   16.6410 C.ar  140  U140        0.2846
   3017  O4        41.7070   19.7920   15.4340 O.2   140  U140       -0.2650
   3018  C5        42.7180   20.4650   17.4490 C.ar  140  U140        0.0814
   3019  C6        42.5090   20.6140   18.7600 C.ar  140  U140        0.0870
   3020  OP1       47.3630   21.1940   21.2420 O.3   140  U140       -0.4373
   3021  OP2       46.3970   21.1180   18.8490 O.co2 140  U140       -0.5172
   3022  P         43.9210   16.9360   22.5220 P.3   141  G141        0.2141
   3023  C5'       41.8770   15.6220   23.4460 C.3   141  G141        0.1812
   3024  O5'       42.5960   16.0730   22.3080 O.3   141  G141       -0.3114
   3025  C4'       40.5940   14.9490   23.0210 C.3   141  G141        0.1773
   3026  O4'       39.8120   15.8810   22.2230 O.3   141  G141       -0.3307
   3027  C3'       40.7680   13.7250   22.1290 C.3   141  G141        0.1860
   3028  O3'       41.1250   12.5460   22.8600 O.3   141  G141       -0.3112
   3029  C2'       39.3840   13.6730   21.4750 C.3   141  G141        0.2309
   3030  O2'       38.3650   13.1110   22.2850 O.3   141  G141       -0.2156
   3031  C1'       39.1290   15.1590   21.2120 C.3   141  G141        0.2408
   3032  N1        38.2570   15.1910   16.1730 N.ar  141  G141       -0.1709
   3033  C2        37.4550   14.7370   17.1920 C.ar  141  G141        0.2606
   3034  N2        36.2710   14.2150   16.8330 N.pl3 141  G141       -0.0859
   3035  N3        37.7890   14.7870   18.4780 N.ar  141  G141       -0.1918
   3036  C4        39.0130   15.3350   18.6820 C.ar  141  G141        0.1723
   3037  C5        39.8790   15.8170   17.7350 C.ar  141  G141        0.1748
   3038  C6        39.5050   15.7510   16.3750 C.ar  141  G141        0.3023
   3039  O6        40.1510   16.1270   15.4020 O.2   141  G141       -0.2633
   3040  N7        41.0350   16.3040   18.3280 N.ar  141  G141       -0.2173
   3041  C8        40.8530   16.1090   19.6010 C.ar  141  G141        0.1817
   3042  N9        39.6410   15.5310   19.8940 N.ar  141  G141       -0.2693
   3043  OP1       44.6730   16.4050   23.6810 O.3   141  G141       -0.4373
   3044  OP2       44.5690   17.0660   21.1980 O.co2 141  G141       -0.5172
   3045  P         42.1470   11.4720   22.2180 P.3   142  U142        0.2141
   3046  C5'       40.0600   10.1040   21.3770 C.3   142  U142        0.1812
   3047  O5'       41.2890   10.7370   21.0970 O.3   142  U142       -0.3114
   3048  C4'       39.3920    9.7880   20.0560 C.3   142  U142        0.1773
   3049  O4'       39.0790   11.0340   19.3930 O.3   142  U142       -0.3307
   3050  C3'       40.2590    9.0630   19.0370 C.3   142  U142        0.1860
   3051  O3'       40.2980    7.6710   19.2900 O.3   142  U142       -0.3112
   3052  C2'       39.5260    9.3950   17.7420 C.3   142  U142        0.2309
   3053  O2'       38.3780    8.5950   17.4970 O.3   142  U142       -0.2156
   3054  C1'       39.1340   10.8450   17.9910 C.3   142  U142        0.2420
   3055  N1        40.1170   11.7760   17.3900 N.ar  142  U142       -0.2534
   3056  C2        40.0640   12.0100   16.0250 C.ar  142  U142        0.3546
   3057  O2        39.2480   11.4980   15.2820 O.2   142  U142       -0.2443
   3058  N3        41.0140   12.8780   15.5470 N.ar  142  U142       -0.1530
   3059  C4        41.9950   13.5110   16.2820 C.ar  142  U142        0.2846
   3060  O4        42.7730   14.2640   15.7030 O.2   142  U142       -0.2650
   3061  C5        41.9940   13.2150   17.6950 C.ar  142  U142        0.0814
   3062  C6        41.0730   12.3810   18.1890 C.ar  142  U142        0.0870
   3063  OP1       42.5160   10.4730   23.2520 O.3   142  U142       -0.4373
   3064  OP2       43.2020   12.2150   21.4890 O.co2 142  U142       -0.5172
   3065  P         41.6890    6.9110   19.4640 P.3   143  C143        0.2141
   3066  C5'       41.2040    5.1920   17.5410 C.3   143  C143        0.1812
   3067  O5'       41.9730    6.2820   18.0210 O.3   143  C143       -0.3114
   3068  C4'       40.7180    5.4140   16.1190 C.3   143  C143        0.1773
   3069  O4'       40.2540    6.7760   15.9580 O.3   143  C143       -0.3307
   3070  C3'       41.7650    5.2370   15.0300 C.3   143  C143        0.1860
   3071  O3'       41.9140    3.8760   14.6890 O.3   143  C143       -0.3112
   3072  C2'       41.1770    6.0570   13.8890 C.3   143  C143        0.2309
   3073  O2'       40.1560    5.4190   13.1570 O.3   143  C143       -0.2156
   3074  C1'       40.5550    7.2220   14.6460 C.3   143  C143        0.2420
   3075  N1        41.4590    8.4160   14.6580 N.ar  143  C143       -0.2535
   3076  C2        41.5300    9.2140   13.4990 C.ar  143  C143        0.3532
   3077  O2        40.8500    8.9210   12.5050 O.2   143  C143       -0.2443
   3078  N3        42.3460   10.2990   13.4970 N.ar  143  C143       -0.1739
   3079  C4        43.0740   10.5920   14.5780 C.ar  143  C143        0.1759
   3080  N4        43.8560   11.6730   14.5130 N.pl3 143  C143       -0.1070
   3081  C5        43.0240    9.7950   15.7670 C.ar  143  C143        0.0566
   3082  C6        42.2140    8.7250   15.7620 C.ar  143  C143        0.0850
   3083  OP1       41.4410    5.8520   20.4550 O.3   143  C143       -0.4373
   3084  OP2       42.7570    7.9010   19.7090 O.co2 143  C143       -0.5172
   3085  P         43.3640    3.3310   14.2610 P.3   144  A144        0.2141
   3086  C5'       42.6120    3.4490   11.7060 C.3   144  A144        0.1812
   3087  O5'       43.4920    3.8820   12.7590 O.3   144  A144       -0.3114
   3088  C4'       42.8690    4.2010   10.4080 C.3   144  A144        0.1773
   3089  O4'       42.4530    5.5800   10.5580 O.3   144  A144       -0.3307
   3090  C3'       44.3300    4.2940    9.9960 C.3   144  A144        0.1860
   3091  O3'       44.7210    3.1540    9.2720 O.3   144  A144       -0.3112
   3092  C2'       44.3630    5.5630    9.1480 C.3   144  A144        0.2309
   3093  O2'       44.0090    5.3720    7.7930 O.3   144  A144       -0.2156
   3094  C1'       43.3460    6.4380    9.8750 C.3   144  A144        0.2408
   3095  N1        46.0190   10.7680   10.6010 N.ar  144  A144       -0.2040
   3096  C2        45.5210   10.2050    9.4920 C.ar  144  A144        0.2016
   3097  N3        44.8320    9.0760    9.3740 N.ar  144  A144       -0.2048
   3098  C4        44.6640    8.4880   10.5740 C.ar  144  A144        0.1692
   3099  C5        45.1210    8.9450   11.8010 C.ar  144  A144        0.1518
   3100  C6        45.8340   10.1570   11.7950 C.ar  144  A144        0.1919
   3101  N6        46.3330   10.7110   12.9070 N.pl3 144  A144       -0.1054
   3102  N7        44.7600    8.0810   12.8220 N.ar  144  A144       -0.2193
   3103  C8        44.1000    7.1260   12.2000 C.ar  144  A144        0.1816
   3104  N9        43.9980    7.3100   10.8450 N.ar  144  A144       -0.2693
   3105  OP1       43.3200    1.8500   14.2350 O.2   144  A144       -0.5172
   3106  OP2       44.3940    3.9930   15.0950 O.co2 144  A144       -0.4373
   3107  P         46.1640    2.5280    9.5600 P.3   145  C145        0.2141
   3108  C5'       46.7810    3.3960    7.1380 C.3   145  C145        0.1812
   3109  O5'       47.0910    3.3260    8.5290 O.3   145  C145       -0.3114
   3110  C4'       47.4730    4.5800    6.4870 C.3   145  C145        0.1773
   3111  O4'       46.8360    5.8150    6.9170 O.3   145  C145       -0.3307
   3112  C3'       48.9240    4.8150    6.8860 C.3   145  C145        0.1860
   3113  O3'       49.8420    3.8900    6.3200 O.3   145  C145       -0.3112
   3114  C2'       49.0960    6.2600    6.4180 C.3   145  C145        0.2309
   3115  O2'       49.0740    6.4470    5.0170 O.3   145  C145       -0.2156
   3116  C1'       47.8190    6.8400    7.0160 C.3   145  C145        0.2420
   3117  N1        48.0200    7.3000    8.4400 N.ar  145  C145       -0.2535
   3118  C2        48.6220    8.5440    8.6510 C.ar  145  C145        0.3532
   3119  O2        48.9500    9.2090    7.6690 O.2   145  C145       -0.2443
   3120  N3        48.8190    8.9810    9.9240 N.ar  145  C145       -0.1739
   3121  C4        48.4460    8.2180   10.9600 C.ar  145  C145        0.1759
   3122  N4        48.6600    8.6840   12.1930 N.pl3 145  C145       -0.1070
   3123  C5        47.8350    6.9380   10.7760 C.ar  145  C145        0.0566
   3124  C6        47.6470    6.5270    9.5130 C.ar  145  C145        0.0850
   3125  OP1       46.1420    1.1020    9.1660 O.2   145  C145       -0.5172
   3126  OP2       46.5620    2.9010   10.9410 O.co2 145  C145       -0.4373
   3127  P         51.1210    3.4560    7.1900 P.3   146  G146        0.2141
   3128  C5'       52.6150    5.0230    5.6770 C.3   146  G146        0.1812
   3129  O5'       52.1100    4.6850    6.9620 O.3   146  G146       -0.3114
   3130  C4'       53.4730    6.2750    5.7810 C.3   146  G146        0.1773
   3131  O4'       52.6710    7.4140    6.1870 O.3   146  G146       -0.3307
   3132  C3'       54.5570    6.2390    6.8490 C.3   146  G146        0.1860
   3133  O3'       55.6910    5.5040    6.4450 O.3   146  G146       -0.3112
   3134  C2'       54.8750    7.7170    7.0000 C.3   146  G146        0.2309
   3135  O2'       55.7300    8.1920    5.9740 O.3   146  G146       -0.2156
   3136  C1'       53.4600    8.3000    6.9730 C.3   146  G146        0.2408
   3137  N1        53.5720   10.7890   11.4430 N.ar  146  G146       -0.1709
   3138  C2        54.2490   11.0590   10.2670 C.ar  146  G146        0.2606
   3139  N2        55.0630   12.1170   10.2660 N.pl3 146  G146       -0.0859
   3140  N3        54.1350   10.3350    9.1570 N.ar  146  G146       -0.1918
   3141  C4        53.2740    9.2950    9.3090 C.ar  146  G146        0.1723
   3142  C5        52.5510    8.9430   10.4360 C.ar  146  G146        0.1748
   3143  C6        52.6800    9.7220   11.6150 C.ar  146  G146        0.3023
   3144  O6        52.1090    9.5560   12.7020 O.2   146  G146       -0.2633
   3145  N7        51.7760    7.8160   10.1930 N.ar  146  G146       -0.2173
   3146  C8        52.0410    7.5160    8.9490 C.ar  146  G146        0.1817
   3147  N9        52.9370    8.3740    8.3410 N.ar  146  G146       -0.2693
   3148  OP1       51.7050    2.2210    6.6260 O.2   146  G146       -0.5172
   3149  OP2       50.7410    3.4810    8.6190 O.co2 146  G146       -0.4373
   3150  P         56.5170    4.6870    7.5480 P.3   147  G147        0.2141
   3151  C5'       58.1320    6.6660    7.9910 C.3   147  G147        0.1812
   3152  O5'       57.0790    5.8590    8.4810 O.3   147  G147       -0.3114
   3153  C4'       58.4150    7.8230    8.9250 C.3   147  G147        0.1773
   3154  O4'       57.1900    8.5080    9.2980 O.3   147  G147       -0.3307
   3155  C3'       59.0170    7.4620   10.2740 C.3   147  G147        0.1860
   3156  O3'       60.3840    7.0980   10.1630 O.3   147  G147       -0.3112
   3157  C2'       58.8240    8.7940   10.9850 C.3   147  G147        0.2309
   3158  O2'       59.7290    9.7890   10.5460 O.3   147  G147       -0.2156
   3159  C1'       57.3890    9.1120   10.5640 C.3   147  G147        0.2408
   3160  N1        55.4450    9.7030   15.2110 N.ar  147  G147       -0.1709
   3161  C2        56.4230   10.4270   14.5570 C.ar  147  G147        0.2606
   3162  N2        56.9830   11.4560   15.2110 N.pl3 147  G147       -0.0859
   3163  N3        56.8370   10.1580   13.3290 N.ar  147  G147       -0.1918
   3164  C4        56.1930    9.0970   12.7880 C.ar  147  G147        0.1723
   3165  C5        55.2070    8.3090   13.3470 C.ar  147  G147        0.1748
   3166  C6        54.7700    8.6040   14.6670 C.ar  147  G147        0.3023
   3167  O6        53.9060    8.0250   15.3360 O.2   147  G147       -0.2633
   3168  N7        54.8100    7.3190   12.4540 N.ar  147  G147       -0.2173
   3169  C8        55.5540    7.5290   11.3970 C.ar  147  G147        0.1817
   3170  N9        56.4160    8.5960   11.5280 N.ar  147  G147       -0.2693
   3171  OP1       57.6420    4.0190    6.8430 O.2   147  G147       -0.5172
   3172  OP2       55.5880    3.8390    8.3320 O.co2 147  G147       -0.4373
   3173  P         61.0710    6.1680   11.2680 P.3   148  A148        0.2141
   3174  C5'       62.5390    8.0820   12.2940 C.3   148  A148        0.1812
   3175  O5'       61.4040    7.2390   12.4040 O.3   148  A148       -0.3114
   3176  C4'       62.6490    8.9370   13.5380 C.3   148  A148        0.1773
   3177  O4'       61.4140    9.6760   13.7240 O.3   148  A148       -0.3307
   3178  C3'       62.7820    8.1560   14.8340 C.3   148  A148        0.1860
   3179  O3'       64.1050    7.7780   15.0860 O.3   148  A148       -0.3112
   3180  C2'       62.2700    9.1570   15.8570 C.3   148  A148        0.2309
   3181  O2'       63.1970   10.1790   16.1430 O.3   148  A148       -0.2156
   3182  C1'       61.0660    9.7040   15.1000 C.3   148  A148        0.2408
   3183  N1        57.3560    8.5490   18.5000 N.ar  148  A148       -0.2040
   3184  C2        58.3970    9.3870   18.5610 C.ar  148  A148        0.2016
   3185  N3        59.3210    9.6310   17.6310 N.ar  148  A148       -0.2048
   3186  C4        59.1110    8.9070   16.5160 C.ar  148  A148        0.1692
   3187  C5        58.0860    8.0080   16.3040 C.ar  148  A148        0.1518
   3188  C6        57.1710    7.8350   17.3690 C.ar  148  A148        0.1919
   3189  N6        56.1330    7.0010   17.3210 N.pl3 148  A148       -0.1054
   3190  N7        58.1860    7.4490   15.0410 N.ar  148  A148       -0.2193
   3191  C8        59.2500    8.0110   14.5250 C.ar  148  A148        0.1816
   3192  N9        59.8590    8.9070   15.3580 N.ar  148  A148       -0.2693
   3193  OP1       62.3360    5.6510   10.6980 O.2   148  A148       -0.5172
   3194  OP2       60.0720    5.2270   11.8220 O.co2 148  A148       -0.4373
   3195  P         64.3520    6.3650   15.7870 P.3   149  G149        0.2141
   3196  C5'       64.8270    7.4670   18.0880 C.3   149  G149        0.1812
   3197  O5'       63.9790    6.6390   17.3140 O.3   149  G149       -0.3114
   3198  C4'       64.1300    7.8690   19.3640 C.3   149  G149        0.1773
   3199  O4'       62.7860    8.2940   19.0490 O.3   149  G149       -0.3307
   3200  C3'       63.9030    6.7360   20.3460 C.3   149  G149        0.1860
   3201  O3'       65.0760    6.4520   21.0850 O.3   149  G149       -0.3112
   3202  C2'       62.8060    7.3370   21.2140 C.3   149  G149        0.2309
   3203  O2'       63.2760    8.2920   22.1440 O.3   149  G149       -0.2156
   3204  C1'       61.9420    8.0070   20.1500 C.3   149  G149        0.2408
   3205  N1        57.5320    5.8950   21.5460 N.ar  149  G149       -0.1709
   3206  C2        58.3840    6.7110   22.2640 C.ar  149  G149        0.2606
   3207  N2        58.0340    7.0210   23.5200 N.pl3 149  G149       -0.0859
   3208  N3        59.5160    7.1990   21.7780 N.ar  149  G149       -0.1918
   3209  C4        59.7430    6.8070   20.4970 C.ar  149  G149        0.1723
   3210  C5        58.9630    6.0000   19.6970 C.ar  149  G149        0.1748
   3211  C6        57.7530    5.4860   20.2250 C.ar  149  G149        0.3023
   3212  O6        56.9370    4.7500   19.6570 O.2   149  G149       -0.2633
   3213  N7        59.5420    5.8350   18.4420 N.ar  149  G149       -0.2173
   3214  C8        60.6430    6.5350   18.5110 C.ar  149  G149        0.1817
   3215  N9        60.8290    7.1560   19.7270 N.ar  149  G149       -0.2693
   3216  OP1       65.8070    6.0950   15.7160 O.3   149  G149       -0.4373
   3217  OP2       63.3700    5.3950   15.2350 O.co2 149  G149       -0.5172
   3218  P         65.3640    4.9560   21.5640 P.3   150  G150        0.2141
   3219  C5'       64.0260    4.8580   23.8300 C.3   150  G150        0.1812
   3220  O5'       64.0700    4.5820   22.4280 O.3   150  G150       -0.3114
   3221  C4'       62.6680    4.5220   24.4240 C.3   150  G150        0.1773
   3222  O4'       61.6150    5.0070   23.5510 O.3   150  G150       -0.3307
   3223  C3'       62.3770    3.0350   24.5940 C.3   150  G150        0.1860
   3224  O3'       62.8720    2.5510   25.8460 O.3   150  G150       -0.3112
   3225  C2'       60.8520    2.9970   24.5280 C.3   150  G150        0.2309
   3226  O2'       60.2300    3.3520   25.7460 O.3   150  G150       -0.2156
   3227  C1'       60.5520    4.0660   23.4920 C.3   150  G150        0.2408
   3228  N1        57.6670    1.5350   20.0590 N.ar  150  G150       -0.1709
   3229  C2        57.4010    1.8020   21.3860 C.ar  150  G150        0.2606
   3230  N2        56.2280    1.3390   21.8400 N.pl3 150  G150       -0.0859
   3231  N3        58.2200    2.4710   22.2020 N.ar  150  G150       -0.1918
   3232  C4        59.3600    2.8620   21.5720 C.ar  150  G150        0.1723
   3233  C5        59.7120    2.6420   20.2520 C.ar  150  G150        0.1748
   3234  C6        58.8260    1.9310   19.3940 C.ar  150  G150        0.3023
   3235  O6        58.9740    1.6420   18.1950 O.2   150  G150       -0.2633
   3236  N7        60.9570    3.1930   19.9800 N.ar  150  G150       -0.2173
   3237  C8        61.3270    3.7260   21.1090 C.ar  150  G150        0.1817
   3238  N9        60.4150    3.5650   22.1240 N.ar  150  G150       -0.2693
   3239  OP1       66.5340    4.9930   22.4610 O.3   150  G150       -0.4373
   3240  OP2       65.3790    4.0930   20.3640 O.co2 150  G150       -0.5172
   3241  P         63.6040    1.1270   25.9580 P.3   151  U151        0.2141
   3242  C5'       61.1930    0.1880   26.6280 C.3   151  U151        0.1812
   3243  O5'       62.4310    0.0380   25.9130 O.3   151  U151       -0.3114
   3244  C4'       60.0600   -0.5810   25.9500 C.3   151  U151        0.1773
   3245  O4'       59.8730   -0.1700   24.5660 O.3   151  U151       -0.3307
   3246  C3'       60.2540   -2.0980   25.9190 C.3   151  U151        0.1860
   3247  O3'       59.0270   -2.7640   26.2340 O.3   151  U151       -0.3112
   3248  C2'       60.7240   -2.3640   24.4850 C.3   151  U151        0.2309
   3249  O2'       60.4320   -3.6660   24.0120 O.3   151  U151       -0.2156
   3250  C1'       59.9380   -1.3030   23.7150 C.3   151  U151        0.2420
   3251  N1        60.5480   -0.9200   22.3920 N.ar  151  U151       -0.2534
   3252  C2        59.7960   -1.0560   21.2350 C.ar  151  U151        0.3546
   3253  O2        58.6480   -1.4720   21.2100 O.2   151  U151       -0.2443
   3254  N3        60.4500   -0.6820   20.0810 N.ar  151  U151       -0.1530
   3255  C4        61.7450   -0.1960   19.9610 C.ar  151  U151        0.2846
   3256  O4        62.1870    0.0980   18.8510 O.2   151  U151       -0.2650
   3257  C5        62.4650   -0.0840   21.2080 C.ar  151  U151        0.0814
   3258  C6        61.8510   -0.4430   22.3460 C.ar  151  U151        0.0870
   3259  OP1       64.2430    1.0630   27.2880 O.3   151  U151       -0.4373
   3260  OP2       64.4180    0.9370   24.7370 O.co2 151  U151       -0.5172
   3261  P         58.4450   -2.8240   27.7270 P.3   152  C152        0.2141
   3262  C5'       55.9750   -2.0940   28.3510 C.3   152  C152        0.1812
   3263  O5'       57.1730   -1.8530   27.6110 O.3   152  C152       -0.3114
   3264  C4'       54.7780   -2.3530   27.4420 C.3   152  C152        0.1773
   3265  O4'       55.1910   -2.8190   26.1230 O.3   152  C152       -0.3307
   3266  C3'       53.7950   -3.4150   27.9300 C.3   152  C152        0.1860
   3267  O3'       52.4930   -3.0700   27.4530 O.3   152  C152       -0.3112
   3268  C2'       54.3250   -4.6610   27.2280 C.3   152  C152        0.2309
   3269  O2'       53.3780   -5.7060   27.1960 O.3   152  C152       -0.2156
   3270  C1'       54.5410   -4.0520   25.8440 C.3   152  C152        0.2420
   3271  N1        55.3260   -4.8710   24.8330 N.ar  152  C152       -0.2535
   3272  C2        54.7350   -5.9540   24.1420 C.ar  152  C152        0.3532
   3273  O2        53.5570   -6.2660   24.3520 O.2   152  C152       -0.2443
   3274  N3        55.4800   -6.6500   23.2400 N.ar  152  C152       -0.1739
   3275  C4        56.7530   -6.3100   23.0120 C.ar  152  C152        0.1759
   3276  N4        57.4490   -7.0160   22.1190 N.pl3 152  C152       -0.1070
   3277  C5        57.3740   -5.2190   23.6940 C.ar  152  C152        0.0566
   3278  C6        56.6310   -4.5390   24.5800 C.ar  152  C152        0.0850
   3279  OP1       59.4160   -2.1990   28.6580 O.3   152  C152       -0.4373
   3280  OP2       58.0130   -4.2230   27.9680 O.co2 152  C152       -0.5172
   3281  P         51.2620   -2.7190   28.4190 P.3   153  U153        0.2141
   3282  C5'       50.8430   -0.2010   27.6410 C.3   153  U153        0.1812
   3283  O5'       50.4680   -1.5840   27.5990 O.3   153  U153       -0.3114
   3284  C4'       51.3510    0.2870   26.2900 C.3   153  U153        0.1773
   3285  O4'       52.3790   -0.5900   25.7480 O.3   153  U153       -0.3307
   3286  C3'       50.3030    0.4190   25.1790 C.3   153  U153        0.1860
   3287  O3'       50.3120    1.7530   24.6890 O.3   153  U153       -0.3112
   3288  C2'       50.7960   -0.5360   24.0970 C.3   153  U153        0.2309
   3289  O2'       50.4900   -0.1000   22.7890 O.3   153  U153       -0.2156
   3290  C1'       52.2920   -0.4120   24.3510 C.3   153  U153        0.2420
   3291  N1        53.1990   -1.3340   23.5770 N.ar  153  U153       -0.2534
   3292  C2        54.5230   -0.9670   23.4160 C.ar  153  U153        0.3546
   3293  O2        54.9910    0.0540   23.8850 O.2   153  U153       -0.2443
   3294  N3        55.2930   -1.8460   22.6890 N.ar  153  U153       -0.1530
   3295  C4        54.8740   -3.0320   22.1100 C.ar  153  U153        0.2846
   3296  O4        55.6740   -3.7170   21.4850 O.2   153  U153       -0.2650
   3297  C5        53.4820   -3.3480   22.3150 C.ar  153  U153        0.0814
   3298  C6        52.7120   -2.5060   23.0190 C.ar  153  U153        0.0870
   3299  OP1       51.7890   -2.1390   29.6780 O.3   153  U153       -0.4373
   3300  OP2       50.4060   -3.9260   28.4660 O.co2 153  U153       -0.5172
   3301  P         49.0100    2.6850   24.7290 P.3   154  C154        0.2141
   3302  C5'       50.0640    4.1440   26.6460 C.3   154  C154        0.1812
   3303  O5'       49.6120    4.0580   25.2940 O.3   154  C154       -0.3114
   3304  C4'       51.3450    4.9490   26.7610 C.3   154  C154        0.1773
   3305  O4'       52.4910    4.1330   26.4100 O.3   154  C154       -0.3307
   3306  C3'       51.4730    6.1320   25.8200 C.3   154  C154        0.1860
   3307  O3'       50.7190    7.2150   26.3090 O.3   154  C154       -0.3112
   3308  C2'       52.9690    6.3750   25.9330 C.3   154  C154        0.2309
   3309  O2'       53.3390    6.9330   27.1800 O.3   154  C154       -0.2156
   3310  C1'       53.4850    4.9470   25.8070 C.3   154  C154        0.2420
   3311  N1        53.7280    4.5420   24.3690 N.ar  154  C154       -0.2535
   3312  C2        54.8900    4.9650   23.6910 C.ar  154  C154        0.3532
   3313  O2        55.7250    5.6680   24.2730 O.2   154  C154       -0.2443
   3314  N3        55.0700    4.5880   22.3960 N.ar  154  C154       -0.1739
   3315  C4        54.1540    3.8290   21.7810 C.ar  154  C154        0.1759
   3316  N4        54.3620    3.4780   20.5110 N.pl3 154  C154       -0.1070
   3317  C5        52.9710    3.3890   22.4410 C.ar  154  C154        0.0566
   3318  C6        52.8050    3.7670   23.7140 C.ar  154  C154        0.0850
   3319  OP1       48.0580    2.1210   25.7220 O.3   154  C154       -0.4373
   3320  OP2       48.5790    2.9180   23.3280 O.co2 154  C154       -0.5172
   3321  P         50.2500    8.4050   25.3490 P.3   155  U155        0.2141
   3322  C5'       52.2390    9.9550   26.0850 C.3   155  U155        0.1812
   3323  O5'       51.6210    9.1760   25.0540 O.3   155  U155       -0.3114
   3324  C4'       53.6180   10.4480   25.6820 C.3   155  U155        0.1773
   3325  O4'       54.4620    9.3410   25.2650 O.3   155  U155       -0.3307
   3326  C3'       53.6530   11.3780   24.4790 C.3   155  U155        0.1860
   3327  O3'       53.2810   12.6930   24.8280 O.3   155  U155       -0.3112
   3328  C2'       55.1240   11.2830   24.1020 C.3   155  U155        0.2309
   3329  O2'       55.9820   11.9730   24.9950 O.3   155  U155       -0.2156
   3330  C1'       55.3250    9.7760   24.2230 C.3   155  U155        0.2420
   3331  N1        55.0550    9.0120   22.9440 N.ar  155  U155       -0.2534
   3332  C2        55.9890    9.0330   21.9170 C.ar  155  U155        0.3546
   3333  O2        57.0430    9.6420   21.9670 O.2   155  U155       -0.2443
   3334  N3        55.6520    8.2980   20.8060 N.ar  155  U155       -0.1530
   3335  C4        54.4960    7.5600   20.6210 C.ar  155  U155        0.2846
   3336  O4        54.3240    6.9520   19.5750 O.2   155  U155       -0.2650
   3337  C5        53.5670    7.5840   21.7200 C.ar  155  U155        0.0814
   3338  C6        53.8800    8.2920   22.8130 C.ar  155  U155        0.0870
   3339  OP1       49.3860    9.2880   26.1660 O.3   155  U155       -0.4373
   3340  OP2       49.7330    7.8300   24.0840 O.co2 155  U155       -0.5172
   3341  P         52.2020   13.4630   23.9350 P.3   156  C156        0.2141
   3342  C5'       53.9950   14.8670   22.6690 C.3   156  C156        0.1812
   3343  O5'       53.0010   13.8610   22.6130 O.3   156  C156       -0.3114
   3344  C4'       55.0960   14.5710   21.6690 C.3   156  C156        0.1773
   3345  O4'       55.3330   13.1450   21.5510 O.3   156  C156       -0.3307
   3346  C3'       54.7970   14.9610   20.2350 C.3   156  C156        0.1860
   3347  O3'       54.9030   16.3640   20.1050 O.3   156  C156       -0.3112
   3348  C2'       55.9120   14.1970   19.5270 C.3   156  C156        0.2309
   3349  O2'       57.2120   14.7070   19.7570 O.3   156  C156       -0.2156
   3350  C1'       55.8180   12.8620   20.2500 C.3   156  C156        0.2420
   3351  N1        54.9460   11.8450   19.5800 N.ar  156  C156       -0.2535
   3352  C2        55.3120   11.3210   18.3250 C.ar  156  C156        0.3532
   3353  O2        56.3410   11.7040   17.7620 O.2   156  C156       -0.2443
   3354  N3        54.5150   10.3940   17.7410 N.ar  156  C156       -0.1739
   3355  C4        53.4020    9.9860   18.3570 C.ar  156  C156        0.1759
   3356  N4        52.6590    9.0710   17.7310 N.pl3 156  C156       -0.1070
   3357  C5        53.0070   10.4970   19.6340 C.ar  156  C156        0.0566
   3358  C6        53.8050   11.4130   20.2030 C.ar  156  C156        0.0850
   3359  OP1       51.8330   14.6950   24.6720 O.3   156  C156       -0.4373
   3360  OP2       51.1650   12.4880   23.5350 O.co2 156  C156       -0.5172
   3361  P         53.9050   17.1910   19.1670 P.3   157  C157        0.2141
   3362  C5'       55.6550   17.5930   17.2790 C.3   157  C157        0.1812
   3363  O5'       54.4860   16.8990   17.7020 O.3   157  C157       -0.3114
   3364  C4'       56.1320   17.1630   15.9040 C.3   157  C157        0.1773
   3365  O4'       56.4920   15.7580   15.8750 O.3   157  C157       -0.3307
   3366  C3'       55.1090   17.2660   14.7940 C.3   157  C157        0.1860
   3367  O3'       55.0020   18.5890   14.3860 O.3   157  C157       -0.3112
   3368  C2'       55.7560   16.4010   13.7280 C.3   157  C157        0.2309
   3369  O2'       56.8430   17.0430   13.0790 O.3   157  C157       -0.2156
   3370  C1'       56.1860   15.2180   14.6000 C.3   157  C157        0.2420
   3371  N1        55.1030   14.1900   14.7660 N.ar  157  C157       -0.2535
   3372  C2        54.7790   13.3330   13.6970 C.ar  157  C157        0.3532
   3373  O2        55.3970   13.4320   12.6330 O.2   157  C157       -0.2443
   3374  N3        53.7890   12.4110   13.8590 N.ar  157  C157       -0.1739
   3375  C4        53.1330   12.3330   15.0260 C.ar  157  C157        0.1759
   3376  N4        52.1670   11.4180   15.1440 N.pl3 157  C157       -0.1070
   3377  C5        53.4410   13.1920   16.1290 C.ar  157  C157        0.0566
   3378  C6        54.4200   14.0920   15.9570 C.ar  157  C157        0.0850
   3379  OP1       54.1090   18.6200   19.5200 O.3   157  C157       -0.4373
   3380  OP2       52.5440   16.6140   19.2510 O.co2 157  C157       -0.5172
   3381  P         53.5460   19.1940   14.1450 P.3   158  G158        0.2141
   3382  C5'       53.8250   18.8730   11.5650 C.3   158  G158        0.1812
   3383  O5'       53.1590   18.4900   12.7600 O.3   158  G158       -0.3114
   3384  C4'       53.7140   17.8020   10.5020 C.3   158  G158        0.1773
   3385  O4'       53.9550   16.4920   11.0640 O.3   158  G158       -0.3307
   3386  C3'       52.3600   17.6060    9.8410 C.3   158  G158        0.1860
   3387  O3'       52.0650   18.7070    8.9830 O.3   158  G158       -0.3112
   3388  C2'       52.6710   16.3010    9.1060 C.3   158  G158        0.2309
   3389  O2'       53.6130   16.4300    8.0560 O.3   158  G158       -0.2156
   3390  C1'       53.3400   15.5220   10.2290 C.3   158  G158        0.2408
   3391  N1        50.2910   11.4270   10.3040 N.ar  158  G158       -0.1709
   3392  C2        51.0330   11.9340    9.2670 C.ar  158  G158        0.2606
   3393  N2        50.9520   11.2650    8.1070 N.pl3 158  G158       -0.0859
   3394  N3        51.7990   13.0200    9.3640 N.ar  158  G158       -0.1918
   3395  C4        51.7600   13.5670   10.6070 C.ar  158  G158        0.1723
   3396  C5        51.0510   13.1320   11.7070 C.ar  158  G158        0.1748
   3397  C6        50.2470   11.9770   11.5820 C.ar  158  G158        0.3023
   3398  O6        49.5490   11.4380   12.4460 O.2   158  G158       -0.2633
   3399  N7        51.2710   13.9580   12.8030 N.ar  158  G158       -0.2173
   3400  C8        52.0950   14.8630   12.3520 C.ar  158  G158        0.1817
   3401  N9        52.4370   14.6920   11.0270 N.ar  158  G158       -0.2693
   3402  OP1       53.7630   20.6510   13.9760 O.2   158  G158       -0.5172
   3403  OP2       52.5970   18.7030   15.1720 O.co2 158  G158       -0.4373
   3404  P         50.5660   19.1390    8.6040 P.3   159  U159        0.2141
   3405  C5'       50.3520   17.5680    6.4780 C.3   159  U159        0.1812
   3406  O5'       50.0170   17.8420    7.8430 O.3   159  U159       -0.3114
   3407  C4'       49.5920   16.3430    6.0090 C.3   159  U159        0.1773
   3408  O4'       49.8940   15.2210    6.8790 O.3   159  U159       -0.3307
   3409  C3'       48.0850   16.4400    6.1380 C.3   159  U159        0.1860
   3410  O3'       47.4930   17.2600    5.1230 O.3   159  U159       -0.3112
   3411  C2'       47.7130   14.9610    6.0650 C.3   159  U159        0.2309
   3412  O2'       47.7610   14.4170    4.7660 O.3   159  U159       -0.2156
   3413  C1'       48.7910   14.3410    6.9490 C.3   159  U159        0.2420
   3414  N1        48.3070   14.2170    8.3590 N.ar  159  U159       -0.2534
   3415  C2        47.4240   13.1900    8.6750 C.ar  159  U159        0.3546
   3416  O2        47.0270   12.3610    7.8760 O.2   159  U159       -0.2443
   3417  N3        47.0140   13.1590    9.9860 N.ar  159  U159       -0.1530
   3418  C4        47.3850   14.0330   10.9940 C.ar  159  U159        0.2846
   3419  O4        46.9250   13.8720   12.1200 O.2   159  U159       -0.2650
   3420  C5        48.3030   15.0750   10.5980 C.ar  159  U159        0.0814
   3421  C6        48.7190   15.1270    9.3240 C.ar  159  U159        0.0870
   3422  OP1       50.6730   20.2570    7.6350 O.2   159  U159       -0.5172
   3423  OP2       49.7670   19.2740    9.8470 O.co2 159  U159       -0.4373
   3424  P         46.1270   18.0500    5.4330 P.3   160  G160        0.2141
   3425  C5'       44.6340   16.1990    4.4000 C.3   160  G160        0.1812
   3426  O5'       45.0220   16.9010    5.5600 O.3   160  G160       -0.3114
   3427  C4'       43.9530   14.8970    4.7500 C.3   160  G160        0.1773
   3428  O4'       44.7000   14.1560    5.7420 O.3   160  G160       -0.3307
   3429  C3'       42.5820   15.0230    5.3890 C.3   160  G160        0.1860
   3430  O3'       41.6400   15.4630    4.4180 O.3   160  G160       -0.3112
   3431  C2'       42.4090   13.5700    5.8210 C.3   160  G160        0.2309
   3432  O2'       42.2380   12.6710    4.7430 O.3   160  G160       -0.2156
   3433  C1'       43.7770   13.3290    6.4380 C.3   160  G160        0.2408
   3434  N1        42.6180   11.7080   11.1360 N.ar  160  G160       -0.1709
   3435  C2        42.3740   11.1070    9.9220 C.ar  160  G160        0.2606
   3436  N2        41.7500    9.9290    9.9690 N.pl3 160  G160       -0.0859
   3437  N3        42.7210   11.6230    8.7460 N.ar  160  G160       -0.1918
   3438  C4        43.3460   12.8240    8.8880 C.ar  160  G160        0.1723
   3439  C5        43.6330   13.5050   10.0550 C.ar  160  G160        0.1748
   3440  C6        43.2610   12.9340   11.3000 C.ar  160  G160        0.3023
   3441  O6        43.4320   13.3970   12.4380 O.2   160  G160       -0.2633
   3442  N7        44.2810   14.6990    9.7800 N.ar  160  G160       -0.2173
   3443  C8        44.3760   14.7210    8.4810 C.ar  160  G160        0.1817
   3444  N9        43.8290   13.6190    7.8710 N.ar  160  G160       -0.2693
   3445  OP1       45.8440   18.9320    4.2730 O.2   160  G160       -0.5172
   3446  OP2       46.2090   18.5990    6.7990 O.co2 160  G160       -0.4373
   3447  P         40.2110   16.0770    4.8160 P.3   161  G161        0.2141
   3448  C5'       39.1010   13.7140    4.5080 C.3   161  G161        0.1812
   3449  O5'       39.4650   14.7820    5.3830 O.3   161  G161       -0.3114
   3450  C4'       38.2690   12.6760    5.2400 C.3   161  G161        0.1773
   3451  O4'       39.0830   11.9970    6.2250 O.3   161  G161       -0.3307
   3452  C3'       37.1090   13.2340    6.0410 C.3   161  G161        0.1860
   3453  O3'       36.0020   13.3640    5.1960 O.3   161  G161       -0.3112
   3454  C2'       36.9030   12.1600    7.1000 C.3   161  G161        0.2309
   3455  O2'       36.2020   11.0330    6.6290 O.3   161  G161       -0.2156
   3456  C1'       38.3230   11.7340    7.3890 C.3   161  G161        0.2408
   3457  N1        39.0190   11.5990   12.4200 N.ar  161  G161       -0.1709
   3458  C2        38.3340   10.7160   11.6070 C.ar  161  G161        0.2606
   3459  N2        37.7760    9.6620   12.2200 N.pl3 161  G161       -0.0859
   3460  N3        38.2150   10.8570   10.2880 N.ar  161  G161       -0.1918
   3461  C4        38.8490   11.9780    9.8420 C.ar  161  G161        0.1723
   3462  C5        39.5530   12.9120   10.5690 C.ar  161  G161        0.1748
   3463  C6        39.6710   12.7430   11.9720 C.ar  161  G161        0.3023
   3464  O6        40.2540   13.4670   12.7860 O.2   161  G161       -0.2633
   3465  N7        40.0450   13.9080    9.7400 N.ar  161  G161       -0.2173
   3466  C8        39.6440   13.5680    8.5510 C.ar  161  G161        0.1817
   3467  N9        38.9140   12.4100    8.5390 N.ar  161  G161       -0.2693
   3468  OP1       39.5670   16.5010    3.5500 O.2   161  G161       -0.5172
   3469  OP2       40.3630   17.0610    5.9130 O.co2 161  G161       -0.4373
   3470  P         34.8310   14.3890    5.5640 P.3   162  A162        0.2141
   3471  C5'       33.3990   12.4320    6.6110 C.3   162  A162        0.1812
   3472  O5'       34.0510   13.6930    6.7740 O.3   162  A162       -0.3114
   3473  C4'       33.1590   11.7930    7.9740 C.3   162  A162        0.1773
   3474  O4'       34.2900   12.0190    8.8630 O.3   162  A162       -0.3307
   3475  C3'       31.9450   12.3110    8.7390 C.3   162  A162        0.1860
   3476  O3'       31.4410   11.2590    9.5510 O.3   162  A162       -0.3112
   3477  C2'       32.5580   13.4240    9.5780 C.3   162  A162        0.2309
   3478  O2'       31.7600   13.7810   10.6890 O.3   162  A162       -0.2156
   3479  C1'       33.8680   12.7540    9.9930 C.3   162  A162        0.2408
   3480  N1        37.1900   14.2530   13.6260 N.ar  162  A162       -0.2040
   3481  C2        36.3240   13.2290   13.5770 C.ar  162  A162        0.2016
   3482  N3        35.4920   12.8930   12.5920 N.ar  162  A162       -0.2048
   3483  C4        35.5990   13.7460   11.5550 C.ar  162  A162        0.1692
   3484  C5        36.4440   14.8380   11.4610 C.ar  162  A162        0.1518
   3485  C6        37.2800   15.0920   12.5720 C.ar  162  A162        0.1919
   3486  N6        38.1500   16.1040   12.6380 N.pl3 162  A162       -0.1054
   3487  N7        36.2770   15.4780   10.2430 N.ar  162  A162       -0.2193
   3488  C8        35.3530   14.7710    9.6370 C.ar  162  A162        0.1816
   3489  N9        34.8990   13.7130   10.3710 N.ar  162  A162       -0.2693
   3490  OP1       33.9110   14.4220    4.3990 O.2   162  A162       -0.5172
   3491  OP2       35.4440   15.6330    6.0900 O.co2 162  A162       -0.4373
   3492  P         29.9070   10.8130    9.5270 P.3   163  G163        0.2141
   3493  C5'       30.3820   11.0560   12.1080 C.3   163  G163        0.1812
   3494  O5'       29.6380   10.4650   11.0630 O.3   163  G163       -0.3114
   3495  C4'       29.7290   10.6580   13.4150 C.3   163  G163        0.1773
   3496  O4'       30.7050   10.5650   14.4820 O.3   163  G163       -0.3307
   3497  C3'       28.6760   11.6310   13.9140 C.3   163  G163        0.1860
   3498  O3'       27.6440   10.8720   14.5280 O.3   163  G163       -0.3112
   3499  C2'       29.4600   12.4940   14.9030 C.3   163  G163        0.2309
   3500  O2'       28.6400   13.1050   15.8750 O.3   163  G163       -0.2156
   3501  C1'       30.3550   11.4380   15.5390 C.3   163  G163        0.2408
   3502  N1        32.6210   12.6290   19.9250 N.ar  163  G163       -0.1709
   3503  C2        31.3500   12.1560   19.6880 C.ar  163  G163        0.2606
   3504  N2        30.5650   11.9630   20.7540 N.pl3 163  G163       -0.0859
   3505  N3        30.8770   11.8790   18.4810 N.ar  163  G163       -0.1918
   3506  C4        31.7850   12.1250   17.5060 C.ar  163  G163        0.1723
   3507  C5        33.0720   12.6040   17.6350 C.ar  163  G163        0.1748
   3508  C6        33.5690   12.8900   18.9330 C.ar  163  G163        0.3023
   3509  O6        34.6880   13.3130   19.2580 O.2   163  G163       -0.2633
   3510  N7        33.6750   12.7100   16.3890 N.ar  163  G163       -0.2173
   3511  C8        32.7550   12.3100   15.5500 C.ar  163  G163        0.1817
   3512  N9        31.5790   11.9410   16.1610 N.ar  163  G163       -0.2693
   3513  OP1       29.8000    9.5280    8.8020 O.2   163  G163       -0.5172
   3514  OP2       29.0820   11.9880    9.1340 O.co2 163  G163       -0.4373
   3515  P         26.1840   10.8230   13.8820 P.3   164  A164        0.2141
   3516  C5'       26.0360    8.1900   13.7780 C.3   164  A164        0.1812
   3517  O5'       26.2470    9.4320   13.1060 O.3   164  A164       -0.3114
   3518  C4'       26.2450    7.0320   12.8070 C.3   164  A164        0.1773
   3519  O4'       25.4560    7.2100   11.5940 O.3   164  A164       -0.3307
   3520  C3'       27.6810    6.8640   12.3330 C.3   164  A164        0.1860
   3521  O3'       27.9850    5.4770   12.1770 O.3   164  A164       -0.3112
   3522  C2'       27.6920    7.6410   11.0170 C.3   164  A164        0.2309
   3523  O2'       28.7120    7.2410   10.1310 O.3   164  A164       -0.2156
   3524  C1'       26.3030    7.3270   10.4620 C.3   164  A164        0.2408
   3525  N1        24.8920    8.5690    5.6200 N.ar  164  A164       -0.2040
   3526  C2        25.3260    7.4160    6.1610 C.ar  164  A164        0.2016
   3527  N3        25.6750    7.1590    7.4310 N.ar  164  A164       -0.2048
   3528  C4        25.5430    8.2580    8.2050 C.ar  164  A164        0.1692
   3529  C5        25.1110    9.5160    7.7880 C.ar  164  A164        0.1518
   3530  C6        24.7710    9.6580    6.4170 C.ar  164  A164        0.1919
   3531  N6        24.3360   10.8020    5.8720 N.pl3 164  A164       -0.1054
   3532  N7        25.0990   10.4070    8.8510 N.ar  164  A164       -0.2193
   3533  C8        25.5170    9.6780    9.8660 C.ar  164  A164        0.1816
   3534  N9        25.8030    8.3700    9.5580 N.ar  164  A164       -0.2693
   3535  OP1       26.0430   11.9660   12.9340 O.2   164  A164       -0.5172
   3536  OP2       25.2010   10.6750   14.9860 O.co2 164  A164       -0.4373
   3537  P         29.0410    4.7660   13.1520 P.3   165  G165        0.2141
   3538  C5'       31.2170    6.0150   12.2450 C.3   165  G165        0.1812
   3539  O5'       30.2010    5.8750   13.2420 O.3   165  G165       -0.3114
   3540  C4'       32.3960    6.8030   12.7890 C.3   165  G165        0.1773
   3541  O4'       31.9340    8.0370   13.4100 O.3   165  G165       -0.3307
   3542  C3'       33.2220    6.1080   13.8690 C.3   165  G165        0.1860
   3543  O3'       34.2210    5.3050   13.2920 O.3   165  G165       -0.3112
   3544  C2'       33.8570    7.2920   14.5940 C.3   165  G165        0.2309
   3545  O2'       34.9990    7.8310   13.9480 O.3   165  G165       -0.2156
   3546  C1'       32.7140    8.3000   14.5680 C.3   165  G165        0.2408
   3547  N1        32.6340    9.2970   19.5370 N.ar  165  G165       -0.1709
   3548  C2        33.6330    9.4780   18.6100 C.ar  165  G165        0.2606
   3549  N2        34.7860   10.0080   19.0420 N.pl3 165  G165       -0.0859
   3550  N3        33.5120    9.1670   17.3310 N.ar  165  G165       -0.1918
   3551  C4        32.3000    8.6510   17.0330 C.ar  165  G165        0.1723
   3552  C5        31.2400    8.4300   17.8770 C.ar  165  G165        0.1748
   3553  C6        31.3820    8.7690   19.2480 C.ar  165  G165        0.3023
   3554  O6        30.5690    8.6550   20.1660 O.2   165  G165       -0.2633
   3555  N7        30.1750    7.8820   17.1710 N.ar  165  G165       -0.2173
   3556  C8        30.6090    7.7910   15.9420 C.ar  165  G165        0.1817
   3557  N9        31.8980    8.2440   15.7850 N.ar  165  G165       -0.2693
   3558  OP1       29.5950    3.5640   12.4890 O.2   165  G165       -0.5172
   3559  OP2       28.3990    4.6610   14.4860 O.co2 165  G165       -0.4373
   3560  P         34.5570    3.8840   13.9270 P.3   166  C166        0.2141
   3561  C5'       36.6020    4.9520   15.2200 C.3   166  C166        0.1812
   3562  O5'       35.3840    4.2100   15.2560 O.3   166  C166       -0.3114
   3563  C4'       36.9050    5.5680   16.5770 C.3   166  C166        0.1773
   3564  O4'       35.8790    6.5060   16.9800 O.3   166  C166       -0.3307
   3565  C3'       36.9370    4.5800   17.7250 C.3   166  C166        0.1860
   3566  O3'       38.1760    3.9200   17.7530 O.3   166  C166       -0.3112
   3567  C2'       36.7730    5.4950   18.9250 C.3   166  C166        0.2309
   3568  O2'       37.9950    6.0580   19.3490 O.3   166  C166       -0.2156
   3569  C1'       35.8060    6.5510   18.3900 C.3   166  C166        0.2420
   3570  N1        34.4200    6.2140   18.8300 N.ar  166  C166       -0.2535
   3571  C2        34.0030    6.5100   20.1470 C.ar  166  C166        0.3532
   3572  O2        34.7730    7.0800   20.9310 O.2   166  C166       -0.2443
   3573  N3        32.7460    6.1730   20.5310 N.ar  166  C166       -0.1739
   3574  C4        31.9230    5.5630   19.6690 C.ar  166  C166        0.1759
   3575  N4        30.6890    5.2490   20.0830 N.pl3 166  C166       -0.1070
   3576  C5        32.3310    5.2490   18.3350 C.ar  166  C166        0.0566
   3577  C6        33.5710    5.5840   17.9610 C.ar  166  C166        0.0850
   3578  OP1       35.4090    3.1650   12.9540 O.2   166  C166       -0.5172
   3579  OP2       33.2990    3.2750   14.3980 O.co2 166  C166       -0.4373
   3580  P         38.2090    2.3550   18.0190 P.3   167  C167        0.2141
   3581  C5'       39.2640    2.8340   20.3250 C.3   167  C167        0.1812
   3582  O5'       38.1530    2.3130   19.6160 O.3   167  C167       -0.3114
   3583  C4'       38.9310    3.0040   21.7830 C.3   167  C167        0.1773
   3584  O4'       37.8180    3.9080   21.9200 O.3   167  C167       -0.3307
   3585  C3'       38.4200    1.7470   22.4380 C.3   167  C167        0.1860
   3586  O3'       39.4980    0.9490   22.8120 O.3   167  C167       -0.3112
   3587  C2'       37.7060    2.3070   23.6510 C.3   167  C167        0.2309
   3588  O2'       38.5830    2.7560   24.6560 O.3   167  C167       -0.2156
   3589  C1'       37.0080    3.4940   23.0100 C.3   167  C167        0.2420
   3590  N1        35.6090    3.1420   22.5730 N.ar  167  C167       -0.2535
   3591  C2        34.5960    3.0970   23.5400 C.ar  167  C167        0.3532
   3592  O2        34.8710    3.3610   24.7180 O.2   167  C167       -0.2443
   3593  N3        33.3330    2.7790   23.1570 N.ar  167  C167       -0.1739
   3594  C4        33.0740    2.5070   21.8760 C.ar  167  C167        0.1759
   3595  N4        31.8190    2.1910   21.5490 N.pl3 167  C167       -0.1070
   3596  C5        34.0900    2.5370   20.8710 C.ar  167  C167        0.0566
   3597  C6        35.3310    2.8540   21.2620 C.ar  167  C167        0.0850
   3598  OP1       39.5410    1.8800   17.5990 O.3   167  C167       -0.4373
   3599  OP2       36.9750    1.7500   17.4750 O.co2 167  C167       -0.5172
   3600  P         39.4010   -0.6100   22.5070 P.3   168  G168        0.2141
   3601  C5'       38.4410   -1.5490   24.7240 C.3   168  G168        0.1812
   3602  O5'       38.1750   -1.0510   23.4400 O.3   168  G168       -0.3114
   3603  C4'       37.2130   -1.4700   25.5990 C.3   168  G168        0.1773
   3604  O4'       36.2880   -0.4510   25.1630 O.3   168  G168       -0.3307
   3605  C3'       36.3450   -2.7080   25.6320 C.3   168  G168        0.1860
   3606  O3'       36.9880   -3.6880   26.3990 O.3   168  G168       -0.3112
   3607  C2'       35.1600   -2.1330   26.3790 C.3   168  G168        0.2309
   3608  O2'       35.4540   -1.9690   27.7530 O.3   168  G168       -0.2156
   3609  C1'       35.0190   -0.7700   25.7000 C.3   168  G168        0.2408
   3610  N1        30.0780   -1.1730   24.4000 N.ar  168  G168       -0.1709
   3611  C2        30.6700   -1.2980   25.6410 C.ar  168  G168        0.2606
   3612  N2        29.8540   -1.5580   26.6710 N.pl3 168  G168       -0.0859
   3613  N3        31.9710   -1.1670   25.8640 N.ar  168  G168       -0.1918
   3614  C4        32.6620   -0.9050   24.7290 C.ar  168  G168        0.1723
   3615  C5        32.1660   -0.7650   23.4480 C.ar  168  G168        0.1748
   3616  C6        30.7770   -0.9000   23.2260 C.ar  168  G168        0.3023
   3617  O6        30.1740   -0.8070   22.1530 O.2   168  G168       -0.2633
   3618  N7        33.1830   -0.5010   22.5430 N.ar  168  G168       -0.2173
   3619  C8        34.2570   -0.4880   23.2890 C.ar  168  G168        0.1817
   3620  N9        34.0250   -0.7280   24.6250 N.ar  168  G168       -0.2693
   3621  OP1       40.6910   -1.1880   22.9660 O.3   168  G168       -0.4373
   3622  OP2       38.9370   -0.8130   21.1090 O.co2 168  G168       -0.5172
   3623  P         36.8690   -5.2160   25.9720 P.3   169  U169        0.2141
   3624  C5'       35.1630   -5.5140   27.8980 C.3   169  U169        0.1812
   3625  O5'       35.4200   -5.6360   26.4980 O.3   169  U169       -0.3114
   3626  C4'       33.7230   -5.8240   28.2380 C.3   169  U169        0.1773
   3627  O4'       32.8620   -4.7150   27.8800 O.3   169  U169       -0.3307
   3628  C3'       33.1760   -7.0020   27.4660 C.3   169  U169        0.1860
   3629  O3'       33.5400   -8.1880   28.1160 O.3   169  U169       -0.3112
   3630  C2'       31.6850   -6.7410   27.5610 C.3   169  U169        0.2309
   3631  O2'       31.1400   -7.1630   28.7920 O.3   169  U169       -0.2156
   3632  C1'       31.6160   -5.2250   27.4410 C.3   169  U169        0.2420
   3633  N1        31.3240   -4.8330   26.0230 N.ar  169  U169       -0.2534
   3634  C2        30.0040   -4.7530   25.5940 C.ar  169  U169        0.3546
   3635  O2        29.0340   -4.9720   26.3110 O.2   169  U169       -0.2443
   3636  N3        29.8580   -4.4030   24.2670 N.ar  169  U169       -0.1530
   3637  C4        30.8650   -4.1410   23.3540 C.ar  169  U169        0.2846
   3638  O4        30.5840   -3.8390   22.2050 O.2   169  U169       -0.2650
   3639  C5        32.2030   -4.2550   23.8670 C.ar  169  U169        0.0814
   3640  C6        32.3770   -4.5890   25.1500 C.ar  169  U169        0.0870
   3641  OP1       37.8770   -5.9530   26.7700 O.3   169  U169       -0.4373
   3642  OP2       36.8560   -5.2810   24.4920 O.co2 169  U169       -0.5172
   3643  P         33.6930   -9.5070   27.2390 P.3   170  C170        0.2141
   3644  C5'       31.4990  -10.3030   25.9550 C.3   170  C170        0.1812
   3645  O5'       32.2040  -10.1090   27.1920 O.3   170  C170       -0.3114
   3646  C4'       30.0010  -10.1150   26.1600 C.3   170  C170        0.1773
   3647  O4'       29.6420   -8.7060   26.0600 O.3   170  C170       -0.3307
   3648  C3'       29.0930  -10.7970   25.1500 C.3   170  C170        0.1860
   3649  O3'       28.8140  -12.1430   25.5380 O.3   170  C170       -0.3112
   3650  C2'       27.8650   -9.8920   25.2090 C.3   170  C170        0.2309
   3651  O2'       27.1480  -10.0240   26.4160 O.3   170  C170       -0.2156
   3652  C1'       28.5190   -8.5220   25.2210 C.3   170  C170        0.2420
   3653  N1        28.9330   -7.9540   23.8660 N.ar  170  C170       -0.2535
   3654  C2        27.9690   -7.6210   22.8870 C.ar  170  C170        0.3532
   3655  O2        26.7620   -7.7920   23.1070 O.2   170  C170       -0.2443
   3656  N3        28.3820   -7.1100   21.6920 N.ar  170  C170       -0.1739
   3657  C4        29.6820   -6.9210   21.4440 C.ar  170  C170        0.1759
   3658  N4        30.0250   -6.4200   20.2570 N.pl3 170  C170       -0.1070
   3659  C5        30.6790   -7.2440   22.4130 C.ar  170  C170        0.0566
   3660  C6        30.2620   -7.7440   23.5880 C.ar  170  C170        0.0850
   3661  OP1       34.5880  -10.4120   27.9950 O.3   170  C170       -0.4373
   3662  OP2       34.0510   -9.1030   25.8570 O.co2 170  C170       -0.5172
   3663  P         28.7880  -13.3150   24.4410 P.3   171  G171        0.2141
   3664  C5'       26.1350  -13.5520   24.4380 C.3   171  G171        0.1812
   3665  O5'       27.3350  -13.1310   23.7910 O.3   171  G171       -0.3114
   3666  C4'       24.9090  -13.1030   23.6510 C.3   171  G171        0.1773
   3667  O4'       24.9400  -11.6530   23.4840 O.3   171  G171       -0.3307
   3668  C3'       24.7910  -13.6300   22.2190 C.3   171  G171        0.1860
   3669  O3'       24.2450  -14.9410   22.1220 O.3   171  G171       -0.3112
   3670  C2'       23.8830  -12.5810   21.5860 C.3   171  G171        0.2309
   3671  O2'       22.5310  -12.7480   21.9420 O.3   171  G171       -0.2156
   3672  C1'       24.4530  -11.3040   22.1950 C.3   171  G171        0.2408
   3673  N1        25.7400   -8.9740   17.8440 N.ar  171  G171       -0.1709
   3674  C2        24.4990   -9.3120   18.3190 C.ar  171  G171        0.2606
   3675  N2        23.4690   -8.9840   17.5390 N.pl3 171  G171       -0.0859
   3676  N3        24.2810   -9.9160   19.4760 N.ar  171  G171       -0.1918
   3677  C4        25.4320  -10.1730   20.1470 C.ar  171  G171        0.1723
   3678  C5        26.7200   -9.8820   19.7600 C.ar  171  G171        0.1748
   3679  C6        26.9350   -9.2270   18.5150 C.ar  171  G171        0.3023
   3680  O6        28.0080   -8.8850   17.9910 O.2   171  G171       -0.2633
   3681  N7        27.6290  -10.3130   20.7220 N.ar  171  G171       -0.2173
   3682  C8        26.8880  -10.8400   21.6520 C.ar  171  G171        0.1817
   3683  N9        25.5440  -10.7870   21.3740 N.ar  171  G171       -0.2693
   3684  OP1       28.8900  -14.6350   25.1140 O.3   171  G171       -0.4373
   3685  OP2       29.7810  -12.9690   23.3990 O.co2 171  G171       -0.5172
   3686  P         24.7820  -15.9040   20.9560 P.3   172  G172        0.2141
   3687  C5'       22.7010  -15.3030   19.4570 C.3   172  G172        0.1812
   3688  O5'       24.1210  -15.3280   19.6210 O.3   172  G172       -0.3114
   3689  C4'       22.2940  -14.5030   18.2340 C.3   172  G172        0.1773
   3690  O4'       22.7450  -13.1280   18.3330 O.3   172  G172       -0.3307
   3691  C3'       22.9050  -15.0050   16.9380 C.3   172  G172        0.1860
   3692  O3'       22.1640  -16.1110   16.4550 O.3   172  G172       -0.3112
   3693  C2'       22.7760  -13.7740   16.0530 C.3   172  G172        0.2309
   3694  O2'       21.4880  -13.6210   15.4960 O.3   172  G172       -0.2156
   3695  C1'       23.1010  -12.6570   17.0450 C.3   172  G172        0.2408
   3696  N1        26.8380  -10.6040   14.2940 N.ar  172  G172       -0.1709
   3697  C2        25.4890  -10.6890   14.0120 C.ar  172  G172        0.2606
   3698  N2        25.0870  -10.1590   12.8500 N.pl3 172  G172       -0.0859
   3699  N3        24.6000  -11.2530   14.8220 N.ar  172  G172       -0.1918
   3700  C4        25.1810  -11.7310   15.9570 C.ar  172  G172        0.1723
   3701  C5        26.5110  -11.7010   16.3230 C.ar  172  G172        0.1748
   3702  C6        27.4430  -11.0940   15.4520 C.ar  172  G172        0.3023
   3703  O6        28.6650  -10.9820   15.6050 O.2   172  G172       -0.2633
   3704  N7        26.7060  -12.3050   17.5520 N.ar  172  G172       -0.2173
   3705  C8        25.5080  -12.6850   17.9010 C.ar  172  G172        0.1817
   3706  N9        24.5300  -12.3630   16.9890 N.ar  172  G172       -0.2693
   3707  OP1       24.2680  -17.2650   21.2190 O.3   172  G172       -0.4373
   3708  OP2       26.2360  -15.6950   20.8120 O.co2 172  G172       -0.5172
   3709  P         22.8930  -17.3160   15.6960 P.3   173  U173        0.2141
   3710  C5'       22.4480  -16.3770   13.2290 C.3   173  U173        0.1813
   3711  O5'       23.3520  -16.6330   14.3150 O.3   173  U173       -0.3114
   3712  C4'       23.0270  -15.3800   12.2350 C.3   173  U173        0.1801
   3713  O4'       23.6090  -14.2490   12.9420 O.3   173  U173       -0.3306
   3714  C3'       24.1660  -15.9040   11.3750 C.3   173  U173        0.2161
   3715  O3'       23.6810  -16.6010   10.2340 O.3   173  U173       -0.2175
   3716  C2'       24.8840  -14.6130   10.9970 C.3   173  U173        0.2338
   3717  O2'       24.2730  -13.9140    9.9320 O.3   173  U173       -0.2155
   3718  C1'       24.7770  -13.7930   12.2800 C.3   173  U173        0.2421
   3719  N1        25.9970  -13.9070   13.1720 N.ar  173  U173       -0.2534
   3720  C2        27.1900  -13.2750   12.8240 C.ar  173  U173        0.3546
   3721  O2        27.3430  -12.5960   11.8240 O.2   173  U173       -0.2443
   3722  N3        28.2300  -13.4560   13.7100 N.ar  173  U173       -0.1530
   3723  C4        28.2100  -14.1940   14.8840 C.ar  173  U173        0.2846
   3724  O4        29.2200  -14.2620   15.5790 O.2   173  U173       -0.2650
   3725  C5        26.9470  -14.8250   15.1840 C.ar  173  U173        0.0814
   3726  C6        25.9200  -14.6610   14.3350 C.ar  173  U173        0.0870
   3727  OP1       21.8510  -18.3360   15.4500 O.2   173  U173       -0.5172
   3728  OP2       24.1180  -17.7010   16.4340 O.co2 173  U173       -0.4373
@<TRIPOS>BOND
     1  1040  1019    2
     2  1003  1019    1
     3  1003  1002    1
     4  1019  1021    1
     5  1019  1041    1
     6  1020  1021    1
     7  1020  1022    1
     8  1017   997    2
     9   998  1000    1
    10   998   999    1
    11  1063  1042    2
    12  1000  1002    1
    13  1000  1001    1
    14  1005  1004    1
    15  1002  1004    1
    16   862   843    2
    17   982   981    1
    18  1022  1024    1
    19  1022  1023    1
    20   980   997    1
    21   980   979    1
    22  1025  1042    1
    23  1025  1024    1
    24   997   999    1
    25   997  1018    1
    26   861   843    1
    27  1001  1006    1
    28  1042  1064    1
    29  1042  1044    1
    30  1004  1006    1
    31   843   845    1
    32   843   827    1
    33  1024  1026    1
    34   881   863    2
    35   845   844    1
    36  1023  1028    1
    37   979   977    1
    38   979   981    1
    39   977   975    1
    40   977   978    1
    41   981   983    1
    42  1006  1016    1
    43   844   846    1
    44   975   976    1
    45  1027  1026    1
    46   882   863    1
    47  1044  1043    1
    48   863   849    1
    49   863   865    1
    50   841   821    2
    51  1026  1028    1
    52   848   846    1
    53   848   849    1
    54   848   850    1
    55   827   826    1
    56   995   974    2
    57   978   983    1
    58  1028  1039    1
    59   983   994    1
    60   846   847    1
    61  1016  1015   ar
    62  1016  1010   ar
    63   826   828    1
    64   826   824    1
    65   850   851    1
    66   850   852    1
    67  1043  1045    1
    68   976   974    1
    69  1015  1014   ar
    70  1038  1039   ar
    71  1038  1037   ar
    72   959   958    1
    73   865   864    1
    74  2138  2137    1
    75   829   828    1
    76   821   842    1
    77   821   823    1
    78   821   807    1
    79  1039  1033   ar
    80   822   823    1
    81   822   824    1
    82   974   957    1
    83   974   996    1
    84   987   988   ar
    85   987   985   ar
    86   828   830    1
    87   957   956    1
    88   824   825    1
    89   994   988   ar
    90   994   993   ar
    91   847   852    1
    92   986   985    1
    93  1010  1009   ar
    94  1010  1011   ar
    95  1009  1008   ar
    96  1037  1034   ar
    97  1085  1065    2
    98  1045  1046    1
    99  1045  1047    1
   100   852   853    1
   101   988   989   ar
   102  1014  1011   ar
   103   985   984   ar
   104   958   956    1
   105   958   960    1
   106   963   962    1
   107  1086  1065    1
   108   807   806    1
   109  2137  2139    1
   110  2137  2135    1
   111   864   866    1
   112  2142  2141    2
   113  2139  2134    1
   114  2139  2140    1
   115  1033  1034   ar
   116  1033  1032   ar
   117   860   853   ar
   118   860   859   ar
   119  1046  1051    1
   120   993   992   ar
   121   956   954    1
   122  1011  1012   ar
   123  2134  2133    1
   124  2133  2135    1
   125  2133  2131    1
   126  1065  1048    1
   127  1065  1067    1
   128  1048  1047    1
   129  2151  2153    1
   130  2151  2152    1
   131   853   854   ar
   132  2118  2117    1
   133  2153  2154    1
   134  2153  2155    1
   135   830   825    1
   136   830   840    1
   137  2158  2157    1
   138  2136  2135    1
   139  2136  2150    1
   140  1034  1035   ar
   141  2154  2159    1
   142  2122  2121    2
   143  1047  1049    1
   144   964   962   ar
   145   964   965   ar
   146   866   867    1
   147   866   868    1
   148  1008  1007   ar
   149   962   961   ar
   150   859   857   ar
   151  1032  1030   ar
   152  2168  2150    2
   153   989   992   ar
   154   989   990   ar
   155  1061  1060   ar
   156  1061  1062   ar
   157   867   872    1
   158   984   990   ar
   159   960   955    1
   160   960   971    1
   161   954   955    1
   162   954   952    1
   163  2141  2140   ar
   164  2141  2143   ar
   165  2131  2132    1
   166  2140  2147   ar
   167  2159  2157    1
   168  2159  2160    1
   169   806   808    1
   170   806   804    1
   171   809   808    1
   172   854   855    2
   173   854   856   ar
   174  2152  2150    1
   175   839   840   ar
   176   839   838   ar
   177  1060  1057   ar
   178  2156  2155    1
   179  2156  2170    1
   180  2150  2169    1
   181   840   834   ar
   182  1012  1007   ar
   183  1012  1013    1
   184   819   801    2
   185  1051  1062    1
   186  1051  1049    1
   187  2157  2155    1
   188  2117  2119    1
   189  2117  2115    1
   190   990   991    2
   191   965   971   ar
   192   965   966   ar
   193  1898  1877    2
   194  2119  2120    1
   195  2119  2114    1
   196  2121  2123   ar
   197  2121  2120   ar
   198   961   967   ar
   199  1062  1056   ar
   200  1067  1066    1
   201   971   970   ar
   202  1049  1050    1
   203   857   856   ar
   204   857   858    2
   205   872   873    1
   206   872   870    1
   207  1035  1036    2
   208  1035  1029   ar
   209   808   810    1
   210   952   953    1
   211   869   868    1
   212   869   883    1
   213  1918  1900    2
   214  2143  2144   ar
   215   868   870    1
   216  1124  1123    2
   217   804   802    1
   218   804   805    1
   219  1030  1029   ar
   220  1030  1031    1
   221   802   803    1
   222   904   883    2
   223  1878  1880    1
   224  1878  1879    1
   225  2123  2124   ar
   226  2147  2146   ar
   227  2120  2127   ar
   228   880   873   ar
   229   880   879   ar
   230  2132  2130    1
   231  2191  2170    2
   232  2114  2113    1
   233   873   874   ar
   234  1066  1068    1
   235   838   835   ar
   236   903   883    1
   237  2160  2167   ar
   238  2160  2161   ar
   239  1863  1877    1
   240  1863  1862    1
   241   803   801    1
   242   883   885    1
   243   834   833   ar
   244   834   835   ar
   245   966   967   ar
   246   966   969   ar
   247  1865  1864    1
   248  2171  2172    1
   249  2171  2173    1
   250  2116  2115    1
   251  2116  2130    1
   252  1883  1900    1
   253  1883  1882    1
   254   801   820    1
   255   801   787    1
   256  2170  2172    1
   257  2170  2192    1
   258  1057  1056   ar
   259  1057  1058   ar
   260   953   951    1
   261   967   968    2
   262  2162  2161    2
   263  1123  1122   ar
   264  1123  1125   ar
   265   879   877   ar
   266  2115  2113    1
   267  2113  2111    1
   268  1880  1882    1
   269  1880  1881    1
   270  2102  2101    2
   271   870   871    1
   272  1877  1879    1
   273  1877  1899    1
   274  2382  2384    1
   275  2382  2383    1
   276  1108  1087    2
   277  2384  2385    1
   278  2384  2386    1
   279   970   969   ar
   280  1122  1120   ar
   281  1056  1055   ar
   282   972   951    2
   283   874   875    2
   284   874   876   ar
   285  2167  2166   ar
   286   833   832   ar
   287  2144  2146   ar
   288  2144  2145    1
   289  1900  1919    1
   290  1900  1902    1
   291  2389  2388    1
   292  2161  2163   ar
   293   835   836   ar
   294  1860  1858    1
   295  1860  1862    1
   296  1860  1861    1
   297  2148  2130    2
   298  2385  2390    1
   299  2387  2386    1
   300  2387  2401    1
   301  2174  2173    1
   302  2174  2179    1
   303   810   805    1
   304   810   811    1
   305  2130  2149    1
   306   922   921    2
   307  2938  2920    2
   308  2173  2175    1
   309   877   876   ar
   310   877   878    1
   311  1858  1859    1
   312  2419  2401    2
   313  1103  1102    1
   314  1125  1126   ar
   315  2124  2125    1
   316  2124  2126   ar
   317  2127  2126   ar
   318  2400  2381    2
   319  1882  1884    1
   320  1862  1864    1
   321  2383  2381    1
   322  3468  3447    2
   323  1120  1121    2
   324  1120  1119   ar
   325   951   973    1
   326   951   934    1
   327   787   786    1
   328  1881  1886    1
   329  1059  1058    2
   330  1885  1884    1
   331  1058  1052   ar
   332   940   939    1
   333  1864  1866    1
   334  2101  2103   ar
   335  2101  2100   ar
   336  1083  1082   ar
   337  1083  1084   ar
   338  1068  1069    1
   339  1068  1070    1
   340  2386  2388    1
   341  1117  1116    1
   342  2904  2920    1
   343  2904  2903    1
   344  2906  2905    1
   345  1082  1079   ar
   346  2103  2104   ar
   347  2899  2901    1
   348  2899  2900    1
   349  1901  1902    1
   350  1901  1903    1
   351  2901  2902    1
   352  2901  2903    1
   353  2098  2097    1
   354  2111  2112    1
   355   885   884    1
   356  2166  2164   ar
   357  2388  2390    1
   358  1861  1866    1
   359  1875  1857    2
   360  2390  2391    1
   361  1055  1053   ar
   362  1126  1119   ar
   363  1069  1074    1
   364  1087  1107    1
   365  1087  1071    1
   366  1087  1089    1
   367  1104  1101   ar
   368  1104  1105   ar
   369  2401  2403    1
   370  2401  2420    1
   371  2402  2403    1
   372  2402  2404    1
   373   832   831   ar
   374   811   818   ar
   375   811   812   ar
   376  1119  1118    1
   377   921   915   ar
   378   921   920   ar
   379  2163  2164   ar
   380  2921  2922    1
   381  2921  2923    1
   382  3445  3424    2
   383  2886  2885    1
   384  2381  2399    1
   385  2381  2364    1
   386   836   831   ar
   387   836   837    1
   388  1884  1886    1
   389   813   812    2
   390  3490  3470    2
   391  3425  3427    1
   392  3425  3426    1
   393  2920  2922    1
   394  2920  2939    1
   395  3430  3447    1
   396  3430  3429    1
   397  2179  2190    1
   398  2179  2177    1
   399  1070  1071    1
   400  1070  1072    1
   401  3448  3450    1
   402  3448  3449    1
   403  1866  1867    1
   404  1859  1857    1
   405  1116  1118    1
   406  1116  1114    1
   407  1102  1101   ar
   408  1102  1097   ar
   409  2918  2898    2
   410  2606  2605    1
   411   818   817   ar
   412  1842  1841    1
   413  2639  2618    2
   414   915   916   ar
   415  2902  2907    1
   416  2903  2905    1
   417   927   905    2
   418  2164  2165    1
   419   812   814   ar
   420  3432  3431    1
   421  3427  3429    1
   422  3427  3428    1
   423  2175  2176    1
   424  2175  2177    1
   425   939   941   ar
   426   939   938   ar
   427  3412  3411    1
   428  2097  2099    1
   429  2097  2095    1
   430  1886  1897    1
   431  1161  1160    1
   432   934   933    1
   433  3447  3449    1
   434  3447  3469    1
   435   936   935    1
   436  2178  2177    1
   437   789   788    1
   438   884   886    1
   439  1101  1100   ar
   440  2105  2104    2
   441  1052  1053   ar
   442  2905  2907    1
   443  2189  2190   ar
   444  2189  2188   ar
   445   786   788    1
   446   786   784    1
   447  2099  2100    1
   448  2099  2094    1
   449  2100  2107   ar
   450  2884  2898    1
   451  2884  2883    1
   452  2176  2193    1
   453  1084  1074    1
   454  1084  1078   ar
   455  3115  3114    1
   456  2104  2106   ar
   457  2619  2621    1
   458  2619  2620    1
   459   923   920   ar
   460   923   924   ar
   461  1105  1106   ar
   462  1118  1113    1
   463  2112  2110    1
   464   920   919   ar
   465  1857  1840    1
   466  1857  1876    1
   467  1053  1054    1
   468  3410  3424    1
   469  3410  3409    1
   470  2923  2924    1
   471  2923  2925    1
   472  1089  1088    1
   473  2604  2618    1
   474  2604  2603    1
   475  3453  3470    1
   476  3453  3452    1
   477   941   942   ar
   478  2190  2184   ar
   479  1079  1080   ar
   480  1079  1078   ar
   481  2404  2405    1
   482  2404  2406    1
   483  1159  1160   ar
   484  1159  1165   ar
   485  2370  2369    1
   486  3450  3452    1
   487  3450  3451    1
   488  2900  2898    1
   489  1903  1904    1
   490  1903  1905    1
   491  1840  1839    1
   492  1074  1072    1
   493   938   944   ar
   494  1940  1920    2
   495   935   933    1
   496   935   937    1
   497   788   790    1
   498  2958  2940    2
   499  1081  1080    1
   500  3429  3431    1
   501  2621  2622    1
   502  2621  2623    1
   503  2907  2917    1
   504  3424  3426    1
   505  3424  3446    1
   506   817   815   ar
   507  2391  2398   ar
   508  2391  2392   ar
   509  2898  2919    1
   510  2364  2363    1
   511  1184  1183    1
   512  1166  1165    2
   513  1160  1162   ar
   514  1941  1920    1
   515  3470  3491    1
   516  3470  3472    1
   517  1097  1098   ar
   518  1128  1109    2
   519   814   815   ar
   520  3525  3526   ar
   521  3525  3530   ar
   522  2885  2883    1
   523  2885  2887    1
   524  3128  3130    1
   525  3128  3129    1
   526  2881  2883    1
   527  2881  2879    1
   528  2881  2882    1
   529  2082  2081    2
   530  2618  2620    1
   531  2618  2640    1
   532  3428  3433    1
   533   933   931    1
   534   916   917    1
   535   916   918   ar
   536  2924  2929    1
   537  2083  2081   ar
   538  2083  2084   ar
   539  1906  1920    1
   540  1906  1905    1
   541  3130  3131    1
   542  3130  3132    1
   543  1841  1839    1
   544  1841  1843    1
   545  1072  1073    1
   546  2188  2185   ar
   547  2405  2410    1
   548  3431  3433    1
   549   888   886    1
   550   888   890    1
   551   888   889    1
   552  2085  2084    1
   553  1846  1845    1
   554  1165  1164   ar
   555  1114  1115    1
   556  1114  1112    1
   557  2926  2925    1
   558  2926  2940    1
   559  2601  2603    1
   560  2601  2599    1
   561  2601  2602    1
   562  3531  3530    1
   563   784   782    1
   564   784   785    1
   565  2398  2397   ar
   566  2624  2623    1
   567  2624  2641    1
   568  1080  1075   ar
   569  1078  1077   ar
   570  2605  2603    1
   571  2605  2607    1
   572  2393  2392    2
   573  1920  1922    1
   574  1897  1896   ar
   575  1897  1891   ar
   576   799   781    2
   577  3135  3134    1
   578  1147  1129    2
   579  2211  2193    2
   580  2662  2641    2
   581   815   816    1
   582  2622  2627    1
   583   782   783    1
   584  3407  3409    1
   585  3407  3405    1
   586  3407  3408    1
   587  1896  1895   ar
   588  1867  1874   ar
   589  1867  1868   ar
   590  3452  3454    1
   591  3411  3409    1
   592  3411  3413    1
   593  2407  2406    1
   594  2407  2421    1
   595   924   925   ar
   596   886   887    1
   597  1904  1909    1
   598   905   926    1
   599   905   889    1
   600   905   907    1
   601  2193  2212    1
   602  2193  2195    1
   603  3526  3527   ar
   604   919   918   ar
   605   919   925   ar
   606  1905  1907    1
   607  1115  1129    1
   608  2107  2106   ar
   609  3131  3136    1
   610  2094  2093    1
   611   890   891    1
   612   890   892    1
   613  2095  2096    1
   614  2095  2093    1
   615  3451  3456    1
   616   942   943   ar
   617   942   948   ar
   618  1869  1868    2
   619  1100  1106   ar
   620  1100  1099   ar
   621  2626  2625    1
   622  1183  1182   ar
   623  1183  1185   ar
   624  2065  2064    1
   625  2925  2927    1
   626  2879  2880    1
   627  2184  2185   ar
   628  2184  2183   ar
   629    32    31    1
   630  1839  1837    1
   631  2940  2959    1
   632  2940  2942    1
   633  3113  3112    1
   634  3113  3127    1
   635  2882  2887    1
   636  2096  2110    1
   637  1106  1096    1
   638  2887  2888    1
   639  2392  2394   ar
   640   944   945    2
   641   944   943   ar
   642  2081  2080   ar
   643  1113  1112    1
   644  2346  2345    1
   645  2406  2408    1
   646  2439  2421    2
   647   783   781    1
   648  3530  3529   ar
   649  3114  3112    1
   650  3114  3116    1
   651  1162  1163   ar
   652  3433  3444    1
   653  3133  3132    1
   654  3133  3150    1
   655  2363  2365    1
   656  2363  2361    1
   657  2599  2600    1
   658  2623  2625    1
   659  3405  3406    1
   660  2084  2086   ar
   661  2602  2607    1
   662  3110  3112    1
   663  3110  3111    1
   664  3110  3108    1
   665  2369  2371   ar
   666  2369  2368   ar
   667  1111  1109    1
   668  1111  1110    1
   669  1088  1090    1
   670  2045  2044    2
   671  2110  2128    2
   672  2110  2129    1
   673  1182  1188   ar
   674  3471  3472    1
   675  3471  3473    1
   676  3148  3127    2
   677  3455  3454    1
   678  2607  2608    1
   679  2928  2927    1
   680  1874  1873   ar
   681   901   900   ar
   682   901   902   ar
   683  1847  1845   ar
   684  1847  1848   ar
   685  2185  2186   ar
   686   937   948    1
   687   937   932    1
   688   887   892    1
   689  1185  1186   ar
   690  1129  1148    1
   691  1129  1131    1
   692  1868  1870   ar
   693   925   914    1
   694  1164  1163   ar
   695  1164  1167   ar
   696  2093  2091    1
   697  1109  1127    1
   698  1109  1093    1
   699  2584  2583    1
   700  3171  3150    2
   701   943   946   ar
   702  3132  3134    1
   703  1845  1844   ar
   704  1098  1099   ar
   705  2917  2916   ar
   706  2917  2911   ar
   707   790   785    1
   708   790   791    1
   709  2641  2643    1
   710  2641  2663    1
   711  3408  3413    1
   712  2183  2181   ar
   713  3111  3116    1
   714   948   947   ar
   715  2627  2625    1
   716  2627  2638    1
   717  1112  1110    1
   718  3413  3414    1
   719  3129  3127    1
   720   781   800    1
   721   781   767    1
   722   907   906    1
   723  3136  3134    1
   724  3136  3147    1
   725  1843  1838    1
   726  1843  1854    1
   727  1837  1838    1
   728  1837  1835    1
   729  2371  2372   ar
   730  2421  2440    1
   731  2421  2423    1
   732  2642  2643    1
   733  2642  2644    1
   734  3116  3117    1
   735  1163  1169   ar
   736  2409  2408    1
   737  2890  2889    2
   738  2043  2044   ar
   739  2043  2041   ar
   740  2929  2927    1
   741  2929  2930    1
   742   931   932    1
   743   931   929    1
   744  3454  3456    1
   745  2359  2361    1
   746  2359  2360    1
   747   793   792    2
   748  3108  3109    1
   749  2410  2408    1
   750  2410  2411    1
   751  2397  2395   ar
   752  3127  3149    1
   753  1895  1892   ar
   754   900   897   ar
   755  2368  2374   ar
   756   892   902    1
   757  1207  1206    1
   758  1092  1090    1
   759  1092  1093    1
   760  1092  1094    1
   761  1077  1076   ar
   762  1891  1890   ar
   763  1891  1892   ar
   764  1075  1076   ar
   765  1091  1090    1
   766  1091  1096    1
   767  2044  2046   ar
   768  1188  1189    2
   769  1188  1187   ar
   770  3456  3467    1
   771  2365  2366    1
   772  2365  2367    1
   773   913   912    1
   774  1203  1202    1
   775  2361  2362    1
   776  3527  3528   ar
   777  1917  1916   ar
   778  1917  1910   ar
   779  2864  2863    1
   780  2042  2041    2
   781  1909  1907    1
   782  1909  1910    1
   783  2064  2063   ar
   784  2064  2066   ar
   785  2916  2915   ar
   786  1907  1908    1
   787  2063  2061   ar
   788  1186  1187   ar
   789  1186  1192   ar
   790  2195  2194    1
   791   791   792   ar
   792   791   798   ar
   793   912   914    1
   794   912   910    1
   795  3150  3172    1
   796  3150  3152    1
   797  1922  1921    1
   798   902   896   ar
   799  1096  1094    1
   800  2610  2609    2
   801   792   794   ar
   802  2344  2343    1
   803  2344  2358    1
   804  2394  2395   ar
   805  3422  3404    2
   806  1167  1168   ar
   807  3119  3118    2
   808  2880  2878    1
   809  2942  2941    1
   810  2418  2411   ar
   811  2418  2417   ar
   812  1890  1888   ar
   813    31    33    1
   814    31    29    1
   815  2194  2196    1
   816  2937  2930   ar
   817  2937  2936   ar
   818  2888  2889   ar
   819  2888  2895   ar
   820  2910  2911   ar
   821  2910  2909   ar
   822    48    50    1
   823    48    49    1
   824  2080  2079    1
   825  2080  2087   ar
   826  3529  3528   ar
   827  3529  3532   ar
   828  2345  2347    1
   829  2345  2343    1
   830  2379  2358    2
   831  1848  1854   ar
   832  1848  1849   ar
   833  3093  3092    1
   834  2186  2187    2
   835  2186  2180   ar
   836  2941  2943    1
   837  1208  1206   ar
   838  1208  1209   ar
   839  2041  2040   ar
   840  1180  1179    1
   841  3406  3404    1
   842    30    29    1
   843    30    47    1
   844  3444  3443   ar
   845  3444  3438   ar
   846    50    51    1
   847    50    52    1
   848  1187  1190   ar
   849  2600  2598    1
   850  2911  2912   ar
   851  3416  3415    2
   852   946   947   ar
   853  1823  1822    1
   854  2086  2087   ar
   855  2181  2180   ar
   856  2181  2182    1
   857  1854  1853   ar
   858  1206  1205   ar
   859  2889  2891   ar
   860  1873  1871   ar
   861  1204  1199    1
   862  1204  1202    1
   863  1204  1215    1
   864  3473  3475    1
   865  3473  3474    1
   866  1835  1836    1
   867   914   909    1
   868  2644  2645    1
   869  2644  2646    1
   870   929   930    1
   871  3151  3152    1
   872  3151  3153    1
   873  2341  2342    1
   874  2341  2343    1
   875  2341  2339    1
   876    55    54    1
   877  1844  1850   ar
   878  1094  1095    1
   879  2896  2878    2
   880  1892  1893   ar
   881  2395  2396    1
   882  1169  1168   ar
   883  1169  1158    1
   884   798   797   ar
   885  3389  3388    1
   886  1916  1914   ar
   887  1181  1192    1
   888  1181  1179    1
   889  1181  1176    1
   890    65    47    2
   891  2608  2609   ar
   892  2608  2615   ar
   893  2930  2931   ar
   894  1870  1871   ar
   895  3393  3392    1
   896  2411  2412   ar
   897  1192  1191   ar
   898  1910  1911   ar
   899  2347  2342    1
   900  2347  2348    1
   901  1921  1923    1
   902    51    56    1
   903  2583  2585    1
   904  2583  2581    1
   905   767   766    1
   906    27    29    1
   907    27    28    1
   908    27    25    1
   909  3528  3534   ar
   910   794   795   ar
   911    33    28    1
   912    33    44    1
   913  1131  1130    1
   914  1199  1198    1
   915  2638  2637   ar
   916  2638  2632   ar
   917  2360  2358    1
   918  2372  2378   ar
   919  2372  2373   ar
   920  2091  2092    1
   921  3147  3146   ar
   922  3147  3141   ar
   923  2423  2422    1
   924   906   908    1
   925  3414  3415   ar
   926  3414  3421   ar
   927  1226  1225    1
   928    36    35    1
   929  2588  2587   ar
   930  2588  2589   ar
   931  1202  1200    1
   932  2609  2611   ar
   933  2645  2650    1
   934  2616  2598    2
   935  3117  3118   ar
   936  3117  3124   ar
   937  2358  2380    1
   938  2980  2960    2
   939  2079  2077    1
   940  2079  2074    1
   941  3443  3442   ar
   942  2078  2077    1
   943  2209  2210   ar
   944  2209  2207   ar
   945  2582  2598    1
   946  2582  2581    1
   947  2350  2349    2
   948  2587  2586   ar
   949  3109  3107    1
   950  3467  3466   ar
   951  3467  3461   ar
   952  2417  2415   ar
   953  3466  3465   ar
   954  2077  2075    1
   955  1209  1215   ar
   956  1209  1210   ar
   957   897   896   ar
   958   897   898   ar
   959  2197  2196    1
   960  2197  2202    1
   961  2046  2047   ar
   962  2374  2373   ar
   963  2374  2375    2
   964  3404  3387    1
   965  3404  3423    1
   966  2210  2203   ar
   967  1179  1177    1
   968  2936  2934   ar
   969  1222  1227    1
   970  1222  1221    1
   971   910   908    1
   972   910   911    1
   973   797   795   ar
   974  3118  3120   ar
   975  1215  1214   ar
   976  1158  1156    1
   977  1158  1153    1
   978   930   928    1
   979  3415  3417   ar
   980  2066  2067   ar
   981   909   908    1
   982  2061  2062    2
   983  2061  2060   ar
   984  2878  2862    1
   985  2878  2897    1
   986  1190  1191   ar
   987    37    35   ar
   988    37    38   ar
   989  2092  2090    1
   990  2863  2861    1
   991  2863  2865    1
   992    53    52    1
   993    53    67    1
   994   795   796    1
   995  3475  3476    1
   996  3475  3477    1
   997  3437  3438   ar
   998  3437  3435   ar
   999  2327  2328   ar
  1000  2327  2326   ar
  1001  1205  1211   ar
  1002  2367  2362    1
  1003  2367  2378    1
  1004  2637  2636   ar
  1005  2862  2861    1
  1006  1871  1872    2
  1007  2915  2912   ar
  1008  3513  3492    2
  1009   896   895   ar
  1010    47    49    1
  1011    47    66    1
  1012  1176  1175    1
  1013  2895  2894   ar
  1014  2598  2617    1
  1015  2585  2580    1
  1016  2585  2595    1
  1017  3532  3533   ar
  1018  1227  1225    1
  1019  1227  1238    1
  1020  3474  3479    1
  1021  2422  2424    1
  1022  3438  3439   ar
  1023  2196  2198    1
  1024  2339  2340    1
  1025  3153  3154    1
  1026  3153  3155    1
  1027  3146  3145   ar
  1028  1145  1146   ar
  1029  1145  1143   ar
  1030  2909  2908   ar
  1031    56    54    1
  1032    56    57    1
  1033  3387  3386    1
  1034    52    54    1
  1035  1849  1850   ar
  1036  1849  1852   ar
  1037  1836  1834    1
  1038  2040  2047   ar
  1039  2040  2039    1
  1040  1888  1889    1
  1041  1888  1887   ar
  1042  2912  2913   ar
  1043    25    26    1
  1044  2647  2646    1
  1045  2647  2664    1
  1046    13    12    1
  1047   769   768    1
  1048  1822  1821   ar
  1049  1822  1824   ar
  1050  2615  2614   ar
  1051  2328  2329   ar
  1052  2581  2579    1
  1053  3388  3386    1
  1054  3388  3390    1
  1055  2868  2867   ar
  1056  2868  2869   ar
  1057  2378  2377   ar
  1058  3514  3492    1
  1059  2373  2376   ar
  1060  3092  3094    1
  1061  3092  3090    1
  1062  1198  1200    1
  1063  1198  1196    1
  1064    85    67    2
  1065  3140  3141   ar
  1066  3140  3138   ar
  1067  3125  3107    2
  1068    35    34   ar
  1069  1850  1851    2
  1070  1221  1219    1
  1071  1221  1223    1
  1072  2324  2323    1
  1073  2867  2866   ar
  1074  1853  1852   ar
  1075  2943  2944    1
  1076  2943  2945    1
  1077  2891  2892   ar
  1078  3392  3394   ar
  1079  3392  3391   ar
  1080  3091  3107    1
  1081  3091  3090    1
  1082  2646  2648    1
  1083  3154  3159    1
  1084  2631  2632   ar
  1085  2631  2629   ar
  1086  3141  3142   ar
  1087  2579  2580    1
  1088  2579  2577    1
  1089  2208  2207    1
  1090  3421  3420   ar
  1091  1130  1132    1
  1092  2632  2633   ar
  1093  3394  3395   ar
  1094  3097  3096   ar
  1095  3097  3098   ar
  1096  2207  2206   ar
  1097  1210  1211   ar
  1098  1210  1213   ar
  1099  1225  1223    1
  1100   766   768    1
  1101   766   764    1
  1102  2931  2932    2
  1103  2931  2933   ar
  1104  2412  2413    2
  1105  2412  2414   ar
  1106  1146  1139   ar
  1107    44    38   ar
  1108    44    43   ar
  1109  1893  1887   ar
  1110  1893  1894    2
  1111  2348  2349   ar
  1112  2348  2355   ar
  1113  2685  2664    2
  1114     9     8    1
  1115  1144  1143    1
  1116  2349  2351   ar
  1117  3096  3095   ar
  1118  1914  1915    1
  1119  1914  1913   ar
  1120  1156  1157    1
  1121  1156  1154    1
  1122  3124  3123   ar
  1123  1214  1213   ar
  1124  3492  3476    1
  1125  3492  3494    1
  1126  1211  1212    2
  1127  1821  1827   ar
  1128  1964  1942    2
  1129  2326  2331   ar
  1130  1911  1912    2
  1131  1911  1913   ar
  1132  1153  1152    1
  1133  2861  2859    1
  1134  3534  3533   ar
  1135  3534  3524    1
  1136  2203  2202    1
  1137  2203  2204   ar
  1138  3107  3126    1
  1139   768   770    1
  1140  2589  2595   ar
  1141  2589  2590   ar
  1142  3477  3479    1
  1143  3477  3478    1
  1144  2865  2860    1
  1145  2865  2875    1
  1146  2649  2648    1
  1147  2586  2591   ar
  1148    38    39   ar
  1149   899   898    1
  1150  3488  3487   ar
  1151  3488  3489   ar
  1152  1200  1201    1
  1153  2944  2949    1
  1154  1923  1924    1
  1155  1923  1925    1
  1156  1231  1232   ar
  1157  1231  1229   ar
  1158   898   893   ar
  1159  2202  2200    1
  1160  3465  3462   ar
  1161   911   928    1
  1162  2650  2648    1
  1163  2650  2661    1
  1164  2611  2612   ar
  1165  1824  1825   ar
  1166  3442  3439   ar
  1167  2960  2981    1
  1168  2960  2946    1
  1169  2960  2962    1
  1170  1238  1232   ar
  1171  1238  1237   ar
  1172  2074  2073    1
  1173  1175  1177    1
  1174  1175  1173    1
  1175  1219  1220    1
  1176  2595  2594   ar
  1177    67    69    1
  1178    67    86    1
  1179  3386  3384    1
  1180  3461  3460   ar
  1181  3461  3462   ar
  1182  2067  2060   ar
  1183  1230  1229    1
  1184  3094  3089    1
  1185  3094  3104    1
  1186  1938  1937   ar
  1187  1938  1939   ar
  1188  2415  2414   ar
  1189  2415  2416    1
  1190  2060  2059    1
  1191  1143  1142   ar
  1192  2075  2076    1
  1193  2075  2073    1
  1194  3435  3436    1
  1195  3435  3434   ar
  1196  3120  3121   ar
  1197  3717  3716    1
  1198  2039  2034    1
  1199  2039  2037    1
  1200  1819  1818    1
  1201  2934  2933   ar
  1202  2934  2935    1
  1203  1937  1934   ar
  1204    26    24    1
  1205  3417  3418   ar
  1206  3479  3489    1
  1207  3090  3088    1
  1208   895   894   ar
  1209    68    69    1
  1210    68    70    1
  1211  2636  2633   ar
  1212   928   950    2
  1213   928   949    1
  1214  2664  2686    1
  1215  2664  2666    1
  1216  1177  1178    1
  1217  3439  3440   ar
  1218  1963  1942    1
  1219  1201  1218    1
  1220  2859  2860    1
  1221  2859  2857    1
  1222  2894  2892   ar
  1223  3523  3522    1
  1224  1924  1929    1
  1225  2025  2024    2
  1226  1232  1233   ar
  1227  3156  3155    1
  1228  3156  3173    1
  1229  2198  2199    1
  1230  2198  2200    1
  1231  1223  1224    1
  1232  2908  2913   ar
  1233  2424  2425    1
  1234  2424  2426    1
  1235  3145  3142   ar
  1236  1855  1834    2
  1237  2034  2033    1
  1238    12    14   ar
  1239    12    11   ar
  1240  2090  2109    2
  1241  2090  2076    1
  1242  2090  2108    1
  1243  1229  1228   ar
  1244  2425  2430    1
  1245  3390  3401    1
  1246  3390  3385    1
  1247  1245  1244    1
  1248  1245  1250    1
  1249  1196  1197    1
  1250  3715  3714    1
  1251  3487  3484   ar
  1252    14    15   ar
  1253  2913  2914    1
  1254  3139  3138    1
  1255  3138  3137   ar
  1256  3155  3157    1
  1257  2869  2875   ar
  1258  2869  2870   ar
  1259  2340  2338    1
  1260  3460  3458   ar
  1261  2206  2204   ar
  1262  3391  3397   ar
  1263    57    64   ar
  1264    57    58   ar
  1265  1925  1926    1
  1266  1925  1927    1
  1267  2323  2325    1
  1268  2323  2321    1
  1269  2945  2946    1
  1270  2945  2947    1
  1271  2957  2956   ar
  1272  2957  2950   ar
  1273  2866  2871   ar
  1274  1926  1942    1
  1275  2660  2661   ar
  1276  2660  2659   ar
  1277  2463  2441    2
  1278  1942  1944    1
  1279  3489  3483   ar
  1280  2892  2893    2
  1281  2377  2376   ar
  1282  2614  2612   ar
  1283  3088  3089    1
  1284  3088  3086    1
  1285  1224  1241    1
  1286  2633  2634   ar
  1287  2204  2205    2
  1288  1834  1817    1
  1289  1834  1856    1
  1290  2329  2335   ar
  1291  2329  2330   ar
  1292  3142  3143   ar
  1293  2023  2024   ar
  1294  2023  2021   ar
  1295    34    40   ar
  1296  3524  3522    1
  1297  3524  3519    1
  1298  2629  2630    1
  1299  2629  2628   ar
  1300  3384  3385    1
  1301  3384  3382    1
  1302  1237  1236   ar
  1303  2577  2578    1
  1304  2875  2874   ar
  1305  2956  2954   ar
  1306  3158  3157    1
  1307   764   762    1
  1308   764   765    1
  1309  3159  3157    1
  1310  3159  3170    1
  1311  3462  3463   ar
  1312  3098  3104   ar
  1313  3098  3099   ar
  1314  3420  3418   ar
  1315  3095  3100   ar
  1316  3395  3401   ar
  1317  3395  3396   ar
  1318  1132  1133    1
  1319  1132  1134    1
  1320  2355  2354   ar
  1321  1133  1138    1
  1322    43    42   ar
  1323  2325  2335    1
  1324  2325  2320    1
  1325  2661  2655   ar
  1326    64    63   ar
  1327  2022  2021    2
  1328  1242  1244    1
  1329  1242  1243    1
  1330  1244  1246    1
  1331     8    10    1
  1332     8     6    1
  1333  3193  3173    2
  1334  1818  1816    1
  1335  1818  1820    1
  1336  2351  2352   ar
  1337  2073  2071    1
  1338  1178  1195    1
  1339  1827  1828    2
  1340  1827  1826   ar
  1341  1139  1138    1
  1342  1139  1140   ar
  1343  3123  3121   ar
  1344  2590  2591   ar
  1345  2590  2593   ar
  1346  2591  2592    1
  1347  2024  2026   ar
  1348  1136  1134    1
  1349  1136  1138    1
  1350  1136  1137    1
  1351  2612  2613    2
  1352  1154  1152    1
  1353  1154  1155    1
  1354  1134  1135    1
  1355  3104  3103   ar
  1356  2962  2961    1
  1357  2199  2213    1
  1358    59    58    2
  1359  1220  1218    1
  1360  2331  2330   ar
  1361  2331  2332    1
  1362  2004  2003    2
  1363  2200  2201    1
  1364  1152  1150    1
  1365    39    40   ar
  1366    39    42   ar
  1367  1817  1816    1
  1368   893   894   ar
  1369    70    71    1
  1370    70    72    1
  1371  3121  3122    1
  1372  1825  1826   ar
  1373  1825  1831   ar
  1374  1250  1260    1
  1375  1250  1248    1
  1376   762   763    1
  1377   773   772    2
  1378  2232  2213    2
  1379  2568  2567    2
  1380  3418  3419    2
  1381  3716  3714    1
  1382  3716  3718    1
  1383  3522  3520    1
  1384    10     5    1
  1385    10    21    1
  1386  3401  3400   ar
  1387  1197  1195    1
  1388  1173  1174    1
  1389  3494  3493    1
  1390  2949  2950    1
  1391  2949  2947    1
  1392  1233  1236   ar
  1393  1233  1234   ar
  1394  2021  2020   ar
  1395  1939  1929    1
  1396  1939  1933   ar
  1397   770   771    1
  1398   770   765    1
  1399  1249  1248    1
  1400  2438  2437   ar
  1401  2438  2431   ar
  1402  3434  3440   ar
  1403  1228  1234   ar
  1404  2335  2334   ar
  1405  2594  2593   ar
  1406    58    60   ar
  1407  1142  1140   ar
  1408  2059  2057    1
  1409  2059  2054    1
  1410    71    76    1
  1411  2356  2338    2
  1412  2462  2441    1
  1413  3173  3194    1
  1414  3173  3175    1
  1415    11    17   ar
  1416  3440  3441    2
  1417  2038  2037    1
  1418  2950  2951   ar
  1419  2037  2035    1
  1420  1934  1933   ar
  1421  1934  1935   ar
  1422  1929  1927    1
  1423  2659  2656   ar
  1424  2437  2435   ar
  1425  2330  2333   ar
  1426  2857  2858    1
  1427  3714  3712    1
  1428  2666  2665    1
  1429  3169  3170   ar
  1430  3169  3168   ar
  1431   763   761    1
  1432  2322  2338    1
  1433  2322  2321    1
  1434  1218  1239    2
  1435  1218  1240    1
  1436    40    41    2
  1437  2441  2427    1
  1438  2441  2443    1
  1439  3137  3143   ar
  1440  2426  2427    1
  1441  2426  2428    1
  1442  3484  3483   ar
  1443  3484  3485   ar
  1444    24    45    2
  1445    24     7    1
  1446    24    46    1
  1447  2870  2871   ar
  1448  2870  2873   ar
  1449  2871  2872    1
  1450  2665  2667    1
  1451   772   771   ar
  1452   772   774   ar
  1453  2338  2357    1
  1454    15    21   ar
  1455    15    16   ar
  1456  1826  1829   ar
  1457  1174  1172    1
  1458  3170  3164   ar
  1459  1151  1150    1
  1460  1151  1149    1
  1461  1936  1935    1
  1462  3483  3482   ar
  1463  2033  2035    1
  1464  2033  2031    1
  1465  3382  3383    1
  1466  2947  2948    1
  1467  2057  2058    1
  1468  2057  2055    1
  1469  1816  1814    1
  1470  2430  2431    1
  1471  2430  2428    1
  1472  3397  3396   ar
  1473  3397  3398    2
  1474  3519  3518    1
  1475   771   778   ar
  1476  3458  3459    1
  1477  3458  3457   ar
  1478   779   761    2
  1479  2228  2227    2
  1480  3143  3144    2
  1481  2628  2634   ar
  1482  2321  2319    1
  1483  1234  1235    2
  1484  2320  2319    1
  1485  1171  1149    2
  1486  2634  2635    2
  1487  1140  1141    2
  1488  2578  2576    1
  1489  2213  2231    1
  1490  2213  2215    1
  1491  3086  3087    1
  1492  3396  3399   ar
  1493     7     6    1
  1494  1927  1928    1
  1495  2072  2071    1
  1496  2072  2070    1
  1497  1243  1241    1
  1498  2564  2563    1
  1499     5     4    1
  1500  1260  1259   ar
  1501  1260  1254   ar
  1502  1820  1831    1
  1503  1820  1815    1
  1504  3100  3099   ar
  1505  3100  3101    1
  1506  3099  3102   ar
  1507  1248  1246    1
  1508  3721  3720    2
  1509  2354  2352   ar
  1510  1241  1261    2
  1511  1241  1262    1
  1512  2954  2955    1
  1513  2954  2953   ar
  1514    63    61   ar
  1515  2874  2873   ar
  1516    21    20   ar
  1517  1944  1943    1
  1518  1155  1172    1
  1519  1195  1217    2
  1520  1195  1216    1
  1521  1831  1830   ar
  1522  2431  2432   ar
  1523     6     4    1
  1524  2352  2353    2
  1525  1800  1799    1
  1526  2961  2963    1
  1527   774   775   ar
  1528  3463  3457   ar
  1529  3463  3464    2
  1530  2655  2656   ar
  1531  2655  2654   ar
  1532  2026  2027   ar
  1533  2003  1997   ar
  1534  2003  2002   ar
  1535  2319  2317    1
  1536  2229  2227   ar
  1537  2229  2230   ar
  1538  1933  1932   ar
  1539  1246  1247    1
  1540     4     2    1
  1541  2308  2307    2
  1542  2567  2569   ar
  1543  2567  2566   ar
  1544  1259  1258   ar
  1545  1935  1930   ar
  1546  3493  3495    1
  1547  1135  1149    1
  1548   778   777   ar
  1549  2036  2035    1
  1550  2036  2050    1
  1551  2545  2544    1
  1552  3521  3520    1
  1553  3521  3537    1
  1554  2020  2027   ar
  1555  2020  2019    1
  1556  3103  3102   ar
  1557  3712  3713    1
  1558  3712  3710    1
  1559  2569  2570   ar
  1560  3538  3540    1
  1561  3538  3539    1
  1562  2054  2053    1
  1563  1997  1998   ar
  1564  2089  2070    2
  1565  1981  1980    1
  1566  3718  3713    1
  1567  3718  3719    1
  1568  2031  2032    1
  1569   761   780    1
  1570   761   747    1
  1571  3174  3175    1
  1572  3174  3176    1
  1573    73    72    1
  1574    73    87    1
  1575  2227  2226   ar
  1576  3520  3518    1
  1577    72    74    1
  1578  1149  1170    1
  1579  3400  3399   ar
  1580    60    61   ar
  1581  2858  2856    1
  1582  2656  2657   ar
  1583  1254  1253   ar
  1584  1254  1255   ar
  1585  1253  1252   ar
  1586  2428  2429    1
  1587  1247  1263    1
  1588  1960  1961   ar
  1589  1960  1957   ar
  1590  2032  2030    1
  1591  2055  2053    1
  1592  2055  2056    1
  1593  3168  3165   ar
  1594  2334  2333   ar
  1595  2563  2565    1
  1596  2563  2561    1
  1597  3558  3537    2
  1598   775   777   ar
  1599   775   776    1
  1600  3077  3076    2
  1601  2017  2018    1
  1602  2017  2019    1
  1603  2017  2015    1
  1604  2435  2436    2
  1605  2435  2434   ar
  1606    76    74    1
  1607    76    77    1
  1608  2309  2307   ar
  1609  2309  2310   ar
  1610  3485  3486    1
  1611  3485  3480   ar
  1612    17    16   ar
  1613    17    18    2
  1614  3482  3481   ar
  1615  2951  2953   ar
  1616  2951  2952    2
  1617    75    74    1
  1618  3373  3372    2
  1619    16    19   ar
  1620  1172  1194    2
  1621  1172  1193    1
  1622  1798  1799   ar
  1623  1798  1804   ar
  1624  2654  2652   ar
  1625    61    62    1
  1626  1814  1815    1
  1627  1814  1812    1
  1628  2443  2442    1
  1629  1829  1830   ar
  1630  3087  3085    1
  1631  3383  3381    1
  1632  3164  3163   ar
  1633  3164  3165   ar
  1634  3540  3541    1
  1635  3540  3542    1
  1636  3518  3516    1
  1637  1959  1958    2
  1638  1258  1255   ar
  1639  3720  3719   ar
  1640  3720  3722   ar
  1641  2543  2544   ar
  1642  2543  2549   ar
  1643  2667  2668    1
  1644  2667  2669    1
  1645  3698  3697    1
  1646  2848  2847    2
  1647  1943  1945    1
  1648  2070  2056    1
  1649  2070  2088    1
  1650  1799  1801   ar
  1651  1961  1962   ar
  1652  2307  2306   ar
  1653  1986  1965    2
  1654  2230  2223   ar
  1655  3535  3515    2
  1656  2019  2014    1
  1657  2978  2977   ar
  1658  2978  2979   ar
  1659  3578  3560    2
  1660   108    87    2
  1661  2052  2050    1
  1662  2052  2051    1
  1663  2215  2214    1
  1664  2977  2974   ar
  1665  2844  2843    1
  1666  1255  1256   ar
  1667  2285  2284    1
  1668  2432  2434   ar
  1669  2432  2433    2
  1670  2596  2576    2
  1671  2290  2289    2
  1672  2668  2673    1
  1673  2565  2566    1
  1674  2565  2560    1
  1675  3369  3368    1
  1676  1252  1251   ar
  1677  3517  3516    1
  1678  3517  3515    1
  1679  2283  2289   ar
  1680  2283  2284   ar
  1681  2311  2310    1
  1682    84    77   ar
  1683    84    83   ar
  1684  2576  2562    1
  1685  2576  2597    1
  1686  2002  2005   ar
  1687  2002  2001   ar
  1688  3537  3539    1
  1689  3537  3559    1
  1690  2544  2546   ar
  1691  3073  3072    1
  1692  3719  3726   ar
  1693  2566  2573   ar
  1694  1805  1804    2
  1695    20    19   ar
  1696  2964  2963    1
  1697  2964  2969    1
  1698  3710  3711    1
  1699  2963  2965    1
  1700  2053  2051    1
  1701  2068  2050    2
  1702   109    87    1
  1703  3543  3542    1
  1704  3543  3560    1
  1705    87    89    1
  1706  2005  2006   ar
  1707  2442  2444    1
  1708  2550  2549    2
  1709  3163  3161   ar
  1710  3165  3166   ar
  1711  2050  2069    1
  1712  2248  2247    1
  1713  1932  1931   ar
  1714  2571  2570    2
  1715  2570  2572   ar
  1716     2     3    1
  1717  3541  3546    1
  1718  3495  3497    1
  1719  3495  3496    1
  1720    77    78   ar
  1721  1930  1931   ar
  1722  1998  1999    1
  1723  1998  2000   ar
  1724  2317  2318    1
  1725  3078  3076   ar
  1726  3078  3079   ar
  1727  3076  3075   ar
  1728  2310  2312   ar
  1729  1804  1803   ar
  1730  3176  3177    1
  1731  3176  3178    1
  1732  2226  2224   ar
  1733  2562  2561    1
  1734  2709  2687    2
  1735  1980  1979   ar
  1736  1980  1975   ar
  1737  1957  1958   ar
  1738  1957  1956   ar
  1739  2015  2016    1
  1740  2015  2013    1
  1741  3481  3480   ar
  1742  1982  1979   ar
  1743  1982  1983   ar
  1744   747   746    1
  1745  3372  3374   ar
  1746  3372  3371   ar
  1747  1958  1952   ar
  1748  3722  3723   ar
  1749  2549  2548   ar
  1750  2016  2030    1
  1751  2876  2856    2
  1752  3177  3182    1
  1753  2657  2658    2
  1754  2657  2651   ar
  1755  1256  1251   ar
  1756  1256  1257    1
  1757  3368  3370    1
  1758  3368  3366    1
  1759  2683  2682   ar
  1760  2683  2684   ar
  1761  2289  2288   ar
  1762  2049  2030    2
  1763  2561  2559    1
  1764  2284  2286   ar
  1765  2843  2845    1
  1766  2843  2841    1
  1767  2847  2849   ar
  1768  2847  2846   ar
  1769  2030  2048    1
  1770  2856  2842    1
  1771  2856  2877    1
  1772  3374  3375   ar
  1773  3542  3544    1
  1774  3515  3498    1
  1775  3515  3536    1
  1776  3072  3074    1
  1777  3072  3070    1
  1778    83    81   ar
  1779  2214  2216    1
  1780  3497  3498    1
  1781  3497  3499    1
  1782  1281  1263    2
  1783  1263  1282    1
  1784  1263  1265    1
  1785  3560  3579    1
  1786  3560  3562    1
  1787  2849  2850   ar
  1788  3545  3544    1
  1789  1812  1813    1
  1790  2652  2651   ar
  1791  2652  2653    1
  1792  3402  3381    2
  1793  1801  1802   ar
  1794  2268  2267    2
  1795  3697  3696   ar
  1796  3697  3699   ar
  1797  2304  2303    1
  1798  2669  2670    1
  1799  2669  2671    1
  1800  1738  1737    2
  1801   749   748    1
  1802  2223  2224   ar
  1803  2223  2222    1
  1804  1979  1978   ar
  1805  2979  2969    1
  1806  2979  2973   ar
  1807  3381  3367    1
  1808  3381  3403    1
  1809  1264  1265    1
  1810  1264  1266    1
  1811  3105  3085    2
  1812  1945  1946    1
  1813  1945  1947    1
  1814  2682  2679   ar
  1815  1267  1266    1
  1816  1267  1272    1
  1817  1965  1985    1
  1818  1965  1948    1
  1819  1965  1967    1
  1820  3085  3071    1
  1821  3085  3106    1
  1822  2306  2305    1
  1823  2306  2313   ar
  1824  1962  1956   ar
  1825  1962  1951    1
  1826  3696  3702   ar
  1827  2001  2000   ar
  1828  2001  2007   ar
  1829  3711  3709    1
  1830  2670  2687    1
  1831  2974  2975   ar
  1832  2974  2973   ar
  1833  3726  3725   ar
  1834  2014  2013    1
  1835   748   746    1
  1836   748   750    1
  1837  2560  2559    1
  1838  2318  2316    1
  1839  2546  2547   ar
  1840  2573  2572   ar
  1841  2217  2216    1
  1842  2217  2222    1
  1843  3367  3366    1
  1844  1975  1976   ar
  1845  2842  2841    1
  1846  1946  1951    1
  1847  2969  2967    1
  1848     3     1    1
  1849  2673  2684    1
  1850  2673  2671    1
  1851  2303  2305    1
  1852  2303  2301    1
  1853  2224  2225    2
  1854  2976  2975    1
  1855  3496  3501    1
  1856  1947  1948    1
  1857  1947  1949    1
  1858  2965  2966    1
  1859  2965  2967    1
  1860  3080  3079    1
  1861  3191  3190   ar
  1862  3191  3192   ar
  1863  2006  2007   ar
  1864  3161  3162    1
  1865  3161  3160   ar
  1866   753   752    2
  1867  3546  3544    1
  1868  3546  3557    1
  1869   746   744    1
  1870  1813  1811    1
  1871  3079  3081   ar
  1872  2559  2557    1
  1873    78    79    2
  1874    78    80   ar
  1875  3370  3371    1
  1876  3370  3365    1
  1877  3001  2982    2
  1878  2704  2703    2
  1879  2305  2300    1
  1880  2527  2526    2
  1881  1983  1984   ar
  1882  2247  2249   ar
  1883  2247  2246   ar
  1884  2684  2678   ar
  1885  2687  2708    1
  1886  2687  2689    1
  1887  2459  2460   ar
  1888  2459  2456   ar
  1889  3074  3075    1
  1890  3074  3069    1
  1891  3075  3082   ar
  1892  2845  2846    1
  1893  2845  2840    1
  1894  3166  3160   ar
  1895  3166  3167    2
  1896  3071  3070    1
  1897  1956  1955   ar
  1898  2460  2461   ar
  1899  1803  1802   ar
  1900  1803  1806   ar
  1901    89    88    1
  1902  1739  1736   ar
  1903  1739  1740   ar
  1904  3371  3378   ar
  1905  1266  1268    1
  1906  3366  3364    1
  1907  2846  2853   ar
  1908  2013  2011    1
  1909  3699  3700   ar
  1910  2444  2445    1
  1911  2444  2446    1
  1912  3178  3179    1
  1913  3178  3180    1
  1914  1802  1808   ar
  1915  2997  2996    1
  1916  2841  2839    1
  1917  3723  3725   ar
  1918  3723  3724    2
  1919  3499  3501    1
  1920  3499  3500    1
  1921  2312  2313   ar
  1922  2486  2464    2
  1923  2216  2218    1
  1924    88    90    1
  1925  2850  2851    1
  1926  2850  2852   ar
  1927  2548  2547   ar
  1928  2548  2551   ar
  1929  3375  3376    1
  1930  3375  3377   ar
  1931  2966  2982    1
  1932  3070  3068    1
  1933  2249  2250   ar
  1934  1952  1953   ar
  1935  3190  3187   ar
  1936  2975  2970   ar
  1937  2973  2972   ar
  1938    81    80   ar
  1939    81    82    1
  1940   752   754   ar
  1941   752   751   ar
  1942  2222  2220    1
  1943   754   755   ar
  1944  3179  3195    1
  1945  2286  2287   ar
  1946  3182  3192    1
  1947  3182  3180    1
  1948  1951  1949    1
  1949  2288  2287   ar
  1950  2288  2291   ar
  1951  2671  2672    1
  1952  1737  1736   ar
  1953  1737  1731   ar
  1954  2267  2266   ar
  1955  2267  2269   ar
  1956  2007  1996    1
  1957  3561  3562    1
  1958  3561  3563    1
  1959  1967  1966    1
  1960  2009  1987    2
  1961  3217  3195    2
  1962  2705  2702   ar
  1963  2705  2706   ar
  1964  2547  2553   ar
  1965  3057  3056    2
  1966  2445  2450    1
  1967  1272  1273    1
  1968  1272  1270    1
  1969  1782  1781    1
  1970  3192  3186   ar
  1971  1280  1273   ar
  1972  1280  1279   ar
  1973  3039  3038    2
  1974  2012  2011    1
  1975  2012  2010    1
  1976  2967  2968    1
  1977  3017  3016    2
  1978  3727  3709    2
  1979  3702  3703    2
  1980  3702  3701   ar
  1981  2246  2244   ar
  1982  2446  2447    1
  1983  2446  2448    1
  1984  3694  3693    1
  1985  1978  1984   ar
  1986  1978  1977   ar
  1987  1736  1735   ar
  1988  2029  2010    2
  1989  3501  3512    1
  1990   756   755    2
  1991  3058  3056   ar
  1992  3058  3059   ar
  1993  3511  3512   ar
  1994  3511  3510   ar
  1995  2520  2526   ar
  1996  2520  2521   ar
  1997  1740  1741   ar
  1998  2266  2264   ar
  1999  2679  2678   ar
  2000  2679  2680   ar
  2001  2998  2996   ar
  2002  2998  2999   ar
  2003  1273  1274   ar
  2004  2982  3000    1
  2005  2982  2984    1
  2006   755   757   ar
  2007  2752  2732    2
  2008  1949  1950    1
  2009   751   750    1
  2010   751   758   ar
  2011  2526  2525   ar
  2012  1279  1277   ar
  2013  2218  2220    1
  2014  2218  2219    1
  2015  2447  2464    1
  2016  2252  2233    2
  2017   750   745    1
  2018  1776  1781   ar
  2019  1776  1777   ar
  2020  1976  1977   ar
  2021  3709  3728    1
  2022  3709  3692    1
  2023  3060  3059    2
  2024    22     1    1
  2025  3216  3195    1
  2026  2287  2293   ar
  2027  2703  2702   ar
  2028  2703  2697   ar
  2029  3082  3081   ar
  2030  2481  2480    2
  2031  3557  3556   ar
  2032  3557  3551   ar
  2033  3195  3197    1
  2034  1984  1974    1
  2035  2678  2677   ar
  2036  2996  2995   ar
  2037  1806  1807   ar
  2038  2301  2302    1
  2039  2301  2299    1
  2040  3180  3181    1
  2041  2839  2840    1
  2042  2839  2837    1
  2043     1    23    1
  2044  2853  2852   ar
  2045  3365  3364    1
  2046  3364  3362    1
  2047  2458  2457    2
  2048  2316  2302    1
  2049  2316  2336    2
  2050  2316  2337    1
  2051  3556  3555   ar
  2052  3700  3701   ar
  2053  3700  3706   ar
  2054  3378  3377   ar
  2055  3069  3068    1
  2056  2456  2457   ar
  2057  2456  2455   ar
  2058  2461  2450    1
  2059  2461  2455   ar
  2060  1955  1953   ar
  2061  2300  2299    1
  2062  1795  1796    1
  2063  1795  1797    1
  2064  1795  1793    1
  2065  2689  2688    1
  2066   744   745    1
  2067   744   742    1
  2068  2464  2485    1
  2069  2464  2466    1
  2070  3056  3055   ar
  2071  3693  3691    1
  2072  3693  3695    1
  2073  1808  1797    1
  2074  1808  1807   ar
  2075  2702  2701   ar
  2076  2706  2707   ar
  2077  1274  1275    2
  2078  1274  1276   ar
  2079  2557  2558    1
  2080  1953  1954    1
  2081  3068  3066    1
  2082  1277  1276   ar
  2083  1277  1278    1
  2084  1811  1833    2
  2085  1811  1832    1
  2086  1811  1794    1
  2087  2291  2292   ar
  2088  1781  1780   ar
  2089  3512  3506   ar
  2090  3032  3038   ar
  2091  3032  3033   ar
  2092   758   757   ar
  2093  2551  2552   ar
  2094  1731  1732   ar
  2095  2220  2221    1
  2096  2269  2270   ar
  2097    91    90    1
  2098    91    96    1
  2099  3059  3061   ar
  2100  1268  1270    1
  2101  1268  1269    1
  2102  3187  3186   ar
  2103  3187  3188   ar
  2104  2250  2243   ar
  2105    90    92    1
  2106  3701  3704   ar
  2107  2972  2971   ar
  2108  2010  2028    1
  2109  2010  1993    1
  2110  2970  2971   ar
  2111  2522  2521    1
  2112  3038  3037   ar
  2113  2450  2448    1
  2114  3510  3507   ar
  2115  2504  2503    2
  2116  3692  3691    1
  2117  1777  1778   ar
  2118  1270  1271    1
  2119  3186  3185   ar
  2120  2482  2479   ar
  2121  2482  2483   ar
  2122  2457  2451   ar
  2123  3563  3564    1
  2124  3563  3565    1
  2125  2553  2552   ar
  2126  2553  2542    1
  2127  1797  1792    1
  2128  2999  2992   ar
  2129  1996  1994    1
  2130  1996  1991    1
  2131  2521  2523   ar
  2132  2681  2680    2
  2133  1987  1989    1
  2134  1987  2008    1
  2135  1987  1971    1
  2136  1966  1968    1
  2137  2680  2674   ar
  2138  2299  2297    1
  2139  3016  3015   ar
  2140  3016  3018   ar
  2141  2219  2233    1
  2142  2558  2556    1
  2143  1989  1988    1
  2144  1994  1992    1
  2145  1994  1995    1
  2146  1735  1741   ar
  2147  1735  1734   ar
  2148  2244  2243   ar
  2149  2244  2245    2
  2150   742   743    1
  2151   106   105   ar
  2152   106   107   ar
  2153  1741  1730    1
  2154  2455  2454   ar
  2155  2448  2449    1
  2156  1992  1993    1
  2157  1992  1990    1
  2158  3034  3033    1
  2159  2697  2698   ar
  2160  2753  2732    1
  2161   743   741    1
  2162  2264  2265    2
  2163  2264  2263   ar
  2164  2984  2983    1
  2165  1794  1793    1
  2166  2732  2716    1
  2167  2732  2734    1
  2168  2772  2754    2
  2169  1970  1968    1
  2170  1970  1971    1
  2171  1970  1972    1
  2172  2480  2479   ar
  2173  2480  2474   ar
  2174  3691  3689    1
  2175  2233  2235    1
  2176  2233  2251    1
  2177  1793  1791    1
  2178  2525  2528   ar
  2179  2525  2524   ar
  2180  2677  2675   ar
  2181  3564  3569    1
  2182  3706  3695    1
  2183  3706  3705   ar
  2184  2995  2993   ar
  2185  1269  1283    1
  2186  1729  1728    1
  2187  2731  2710    2
  2188  3551  3550   ar
  2189  3551  3552   ar
  2190  2541  2540    1
  2191  3695  3690    1
  2192  2293  2292   ar
  2193  2293  2282    1
  2194  2540  2542    1
  2195  2540  2538    1
  2196  1974  1969    1
  2197  1974  1972    1
  2198   105   102   ar
  2199  3555  3552   ar
  2200  1969  1968    1
  2201  2243  2242    1
  2202  3033  3035   ar
  2203  2829  2827   ar
  2204  2829  2830   ar
  2205  2828  2827    2
  2206  2831  2830    1
  2207  2688  2690    1
  2208  2837  2838    1
  2209  3362  3363    1
  2210  2542  2537    1
  2211  2479  2478   ar
  2212  1991  1990    1
  2213  3197  3196    1
  2214  3189  3188    1
  2215  3015  3013   ar
  2216  3550  3548   ar
  2217  2466  2465    1
  2218  2707  2701   ar
  2219  2707  2696    1
  2220  3188  3183   ar
  2221  2701  2700   ar
  2222  2483  2484   ar
  2223  3055  3054    1
  2224  3055  3062   ar
  2225  2773  2754    1
  2226  1732  1734   ar
  2227  1732  1733    1
  2228  3018  3019   ar
  2229  1780  1779   ar
  2230  1780  1783   ar
  2231   760   741    2
  2232  3599  3580    2
  2233  2528  2529   ar
  2234  3053  3052    1
  2235  2270  2263   ar
  2236  3506  3507   ar
  2237  3506  3505   ar
  2238  1972  1973    1
  2239    92    93    1
  2240    92    94    1
  2241  3675  3674    1
  2242  3066  3067    1
  2243  3704  3705   ar
  2244    96   107    1
  2245    96    94    1
  2246  3598  3580    1
  2247   730   729    1
  2248  3185  3184   ar
  2249  3507  3508   ar
  2250  2503  2497   ar
  2251  2503  2502   ar
  2252  1728  1730    1
  2253  1728  1726    1
  2254   107   101   ar
  2255  2716  2715    1
  2256  3061  3062   ar
  2257  3363  3361    1
  2258  3565  3566    1
  2259  3565  3567    1
  2260  3356  3355    1
  2261  3037  3040   ar
  2262  3037  3036   ar
  2263  3354  3352   ar
  2264  3354  3355   ar
  2265  3052  3054    1
  2266  3052  3050    1
  2267  3566  3580    1
  2268  2827  2826   ar
  2269  3353  3352    2
  2270  1778  1779   ar
  2271  2838  2836    1
  2272  2235  2234    1
  2273  2992  2993   ar
  2274  2992  2991    1
  2275  1990  1988    1
  2276  2734  2733    1
  2277   759   741    1
  2278   741   724    1
  2279  2830  2832   ar
  2280  2674  2675   ar
  2281  2263  2262    1
  2282  3673  3674   ar
  2283  3673  3679   ar
  2284   728   729   ar
  2285   728   734   ar
  2286  2754  2738    1
  2287  2754  2756    1
  2288  2523  2524   ar
  2289  3552  3553   ar
  2290  2451  2452   ar
  2291  1730  1725    1
  2292   653   632    2
  2293    93   110    1
  2294  3577  3576   ar
  2295  3577  3570   ar
  2296  2675  2676    1
  2297  2524  2530   ar
  2298  1792  1791    1
  2299  3054  3049    1
  2300  3680  3679    2
  2301   735   734    2
  2302  2993  2994    2
  2303  2733  2735    1
  2304  2474  2475   ar
  2305  2983  2985    1
  2306  3580  3582    1
  2307  3067  3065    1
  2308  3196  3198    1
  2309  2297  2298    1
  2310  2282  2280    1
  2311  2282  2277    1
  2312  2698  2700   ar
  2313  2698  2699    1
  2314   729   731   ar
  2315  2691  2690    1
  2316  2691  2696    1
  2317  2298  2296    1
  2318  2711  2713    1
  2319  2711  2712    1
  2320  2454  2452   ar
  2321  1779  1785   ar
  2322  3235  3234    2
  2323  3689  3690    1
  2324  3689  3687    1
  2325  1783  1784   ar
  2326  2556  2575    2
  2327  2556  2539    1
  2328  2556  2574    1
  2329  2497  2498   ar
  2330  1791  1789    1
  2331   734   733   ar
  2332  2280  2281    1
  2333  2280  2278    1
  2334  3674  3676   ar
  2335  3352  3351   ar
  2336  2538  2539    1
  2337  2538  2536    1
  2338  3040  3041   ar
  2339  3576  3574   ar
  2340  2505  2502   ar
  2341  2505  2506   ar
  2342  1305  1283    2
  2343   102   101   ar
  2344   102   103   ar
  2345  3355  3357   ar
  2346  2690  2692    1
  2347  3569  3570    1
  2348  3569  3567    1
  2349  2986  2991    1
  2350  2986  2985    1
  2351  3213  3214   ar
  2352  3213  3210   ar
  2353  2692  2693    1
  2354  2692  2694    1
  2355  1283  1285    1
  2356  1283  1304    1
  2357  3035  3036   ar
  2358  3505  3503   ar
  2359    94    95    1
  2360   131   110    2
  2361  2710  2712    1
  2362  2710  2730    1
  2363  2710  2693    1
  2364  3183  3184   ar
  2365  3214  3215   ar
  2366  3679  3678   ar
  2367  2696  2694    1
  2368  2502  2501   ar
  2369  2738  2737    1
  2370  2465  2467    1
  2371  3548  3549    1
  2372  3548  3547   ar
  2373  2242  2237    1
  2374  2242  2240    1
  2375  2478  2484   ar
  2376  2478  2477   ar
  2377  2509  2487    2
  2378   101   100   ar
  2379  3013  3014    2
  2380  3013  3012   ar
  2381  2452  2453    1
  2382  3036  3042   ar
  2383  2484  2473    1
  2384  2537  2536    1
  2385  3019  3012   ar
  2386  2529  2530   ar
  2387  2713  2715    1
  2388  2713  2714    1
  2389  2237  2236    1
  2390  3570  3571   ar
  2391  3021  3002    2
  2392  3256  3255    2
  2393  2715  2717    1
  2394   731   732   ar
  2395  1725  1724    1
  2396  2824  2823    1
  2397  2991  2989    1
  2398   110   130    1
  2399   110   112    1
  2400  3567  3568    1
  2401  3508  3509    2
  2402  3508  3502   ar
  2403  2826  2825    1
  2404  2826  2833   ar
  2405  2985  2987    1
  2406  2823  2825    1
  2407  2823  2821    1
  2408  3050  3051    1
  2409  3050  3048    1
  2410  3199  3198    1
  2411  3199  3204    1
  2412  1726  1727    1
  2413  1726  1724    1
  2414  2234  2236    1
  2415  2756  2755    1
  2416  2832  2833   ar
  2417   733   732   ar
  2418   733   736   ar
  2419   104   103    2
  2420  1285  1284    1
  2421  2530  2519    1
  2422  2272  2253    2
  2423  3361  3380    2
  2424  3361  3379    1
  2425  3361  3347    1
  2426  2694  2695    1
  2427   632   654    1
  2428   632   616    1
  2429   632   634    1
  2430  2315  2296    2
  2431   103    97   ar
  2432   630   610    2
  2433  3553  3547   ar
  2434  3553  3554    2
  2435  2737  2735    1
  2436  2737  2739    1
  2437  2735  2736    1
  2438   724   723    1
  2439  2262  2260    1
  2440  2262  2257    1
  2441  3051  3065    1
  2442  2811  2810    1
  2443   732   738   ar
  2444  2475  2477   ar
  2445  2475  2476    1
  2446  1302  1301   ar
  2447  1302  1303   ar
  2448  2836  2855    2
  2449  2836  2854    1
  2450  2836  2822    1
  2451  2755  2757    1
  2452  2278  2279    1
  2453  2278  2276    1
  2454  1301  1298   ar
  2455  1790  1789    1
  2456  1790  1788    1
  2457  3198  3200    1
  2458  2987  2989    1
  2459  2987  2988    1
  2460  2277  2276    1
  2461  1784  1785   ar
  2462  2536  2534    1
  2463  3012  3011    1
  2464  3049  3048    1
  2465  3234  3228   ar
  2466  3234  3233   ar
  2467   616   615    1
  2468  1785  1775    1
  2469  3687  3688    1
  2470  3065  3084    2
  2471  3065  3083    1
  2472  3676  3677   ar
  2473  2238  2240    1
  2474  2238  2236    1
  2475  2238  2239    1
  2476  2240  2241    1
  2477   725   726    1
  2478   725   723    1
  2479   725   727    1
  2480  2296  2279    1
  2481  2296  2314    1
  2482  3348  3349    1
  2483  3348  3346    1
  2484  3348  3350    1
  2485  2506  2507   ar
  2486  2718  2717    1
  2487  3336  3335    2
  2488  2468  2467    1
  2489  2468  2473    1
  2490  3351  3358   ar
  2491  3351  3350    1
  2492  3041  3042   ar
  2493  2825  2820    1
  2494  2498  2499    1
  2495  2498  2500   ar
  2496  3582  3581    1
  2497  3688  3686    1
  2498  3357  3358   ar
  2499  3212  3211    2
  2500  1810  1788    2
  2501  3574  3575    1
  2502  3574  3573   ar
  2503  1287  1292    1
  2504  1287  1286    1
  2505  2295  2273    2
  2506  3503  3502   ar
  2507  3503  3504    1
  2508  3210  3211   ar
  2509  3210  3209   ar
  2510  1727  1744    1
  2511   736   737   ar
  2512   723   721    1
  2513  2467  2469    1
  2514  3215  3204    1
  2515  3215  3209   ar
  2516   100    98   ar
  2517  2469  2470    1
  2518  2469  2471    1
  2519  3678  3677   ar
  2520  3678  3681   ar
  2521  1724  1722    1
  2522  2260  2258    1
  2523  2260  2261    1
  2524  2795  2774    2
  2525   611   613    1
  2526   611   612    1
  2527  2473  2471    1
  2528  3042  3031    1
  2529  2501  2500   ar
  2530  2501  2507   ar
  2531   713   712    2
  2532  3255  3254   ar
  2533  3255  3257   ar
  2534  2989  2990    1
  2535  3236  3233   ar
  2536  3236  3237   ar
  2537  2717  2719    1
  2538   740   718    2
  2539  1303  1292    1
  2540  1303  1297   ar
  2541  3048  3046    1
  2542  3228  3229   ar
  2543  2821  2822    1
  2544  2821  2819    1
  2545  3254  3252   ar
  2546   738   737   ar
  2547   738   727    1
  2548  2535  2534    1
  2549  2535  2533    1
  2550  3347  3346    1
  2551  1298  1299   ar
  2552  1298  1297   ar
  2553  2487  2470    1
  2554  2487  2508    1
  2555  2487  2489    1
  2556  1722  1723    1
  2557  2257  2256    1
  2558  3677  3683   ar
  2559  3571  3573   ar
  2560  3571  3572    2
  2561  3204  3202    1
  2562  2714  2719    1
  2563  1300  1299    2
  2564  1292  1290    1
  2565  2555  2533    2
  2566  3211  3205   ar
  2567  3346  3344    1
  2568  3350  3345    1
  2569  3233  3232   ar
  2570  3658  3657    1
  2571  3002  2988    1
  2572  3002  3004    1
  2573  3002  3020    1
  2574  2276  2274    1
  2575  2809  2810   ar
  2576  2809  2807   ar
  2577   613   615    1
  2578   613   614    1
  2579    97    98   ar
  2580  2275  2273    1
  2581  2275  2274    1
  2582   112   111    1
  2583  3581  3583    1
  2584  2532  2510    2
  2585  2810  2812   ar
  2586  3200  3201    1
  2587  3200  3202    1
  2588  1743  1721    2
  2589  3240  3218    2
  2590  1788  1809    1
  2591  1788  1772    1
  2592  2255  2253    1
  2593  2255  2254    1
  2594   634   633    1
  2595  2736  2741    1
  2596  2258  2256    1
  2597  2258  2259    1
  2598  2253  2239    1
  2599  2253  2271    1
  2600  1773  1775    1
  2601  1773  1771    1
  2602  1773  1774    1
  2603  2519  2517    1
  2604  2519  2514    1
  2605  1299  1293   ar
  2606  2471  2472    1
  2607  2794  2774    1
  2608  3209  3208   ar
  2609  1284  1286    1
  2610  3316  3315    1
  2611  2507  2496    1
  2612    98    99    1
  2613  1297  1296   ar
  2614  1760  1759    1
  2615   633   635    1
  2616  1775  1770    1
  2617  2517  2515    1
  2618  2517  2518    1
  2619   615   617    1
  2620   727   722    1
  2621  3335  3334   ar
  2622  3335  3337   ar
  2623   610   612    1
  2624   610   596    1
  2625   610   631    1
  2626   676   655    2
  2627  3681  3682   ar
  2628   712   711   ar
  2629   712   714   ar
  2630  2757  2759    1
  2631  2757  2758    1
  2632  2774  2760    1
  2633  2774  2776    1
  2634  2739  2740    1
  2635  2739  2741    1
  2636  1286  1288    1
  2637  1761  1762   ar
  2638  1761  1758   ar
  2639  3004  3003    1
  2640   127   128   ar
  2641   127   124   ar
  2642  3334  3332   ar
  2643  3708  3686    2
  2644  2489  2488    1
  2645  2750  2749   ar
  2646  2750  2751   ar
  2647  2273  2259    1
  2648  2273  2294    1
  2649  3596  3597   ar
  2650  3596  3594   ar
  2651  3011  3006    1
  2652  3011  3009    1
  2653  1765  1744    2
  2654  2760  2759    1
  2655  2719  2729    1
  2656  1771  1772    1
  2657  1771  1769    1
  2658   720   718    1
  2659   720   719    1
  2660   677   655    1
  2661  3686  3707    1
  2662  3686  3669    1
  2663   618   617    1
  2664  1744  1764    1
  2665  1744  1746    1
  2666  2820  2819    1
  2667   739   718    1
  2668   596   595    1
  2669   718   704    1
  2670  2533  2516    1
  2671  2533  2554    1
  2672  3201  3218    1
  2673  3047  3046    1
  2674  3047  3045    1
  2675  2256  2254    1
  2676   128   129   ar
  2677  3622  3600    2
  2678  3237  3238   ar
  2679  2515  2516    1
  2680  2515  2513    1
  2681  1723  1721    1
  2682   111   113    1
  2683  3044  3022    2
  2684  3257  3258   ar
  2685  3253  3252    2
  2686  3031  3029    1
  2687  3031  3026    1
  2688  3202  3203    1
  2689   721   722    1
  2690   721   719    1
  2691   711   709   ar
  2692   714   715   ar
  2693  3252  3251   ar
  2694  3597  3590   ar
  2695  1293  1294   ar
  2696   126   125    1
  2697  2808  2807    2
  2698  1296  1294   ar
  2699  2807  2806   ar
  2700  3006  3005    1
  2701  2819  2817    1
  2702  2741  2751    1
  2703  2749  2746   ar
  2704  3683  3682   ar
  2705  3683  3672    1
  2706  3229  3230    1
  2707  3229  3231   ar
  2708  2759  2761    1
  2709  1762  1763   ar
  2710  2514  2513    1
  2711  2512  2510    1
  2712  2512  2511    1
  2713  3657  3656   ar
  2714  3657  3659   ar
  2715  1721  1742    1
  2716  1721  1707    1
  2717   598   597    1
  2718  3029  3027    1
  2719  3029  3030    1
  2720  3296  3295    2
  2721  3064  3045    2
  2722   655   638    1
  2723   655   657    1
  2724  2812  2813   ar
  2725  3205  3206   ar
  2726  3595  3594    1
  2727  3345  3344    1
  2728  3218  3220    1
  2729  3218  3239    1
  2730  3232  3238   ar
  2731  3232  3231   ar
  2732  1759  1758   ar
  2733  1759  1754   ar
  2734   617   619    1
  2735   614   619    1
  2736  3670  3671    1
  2737  3670  3672    1
  2738  3670  3668    1
  2739  1758  1757   ar
  2740  1290  1291    1
  2741  1290  1288    1
  2742  2758  2763    1
  2743  2510  2531    1
  2744  2510  2493    1
  2745  2751  2745   ar
  2746  3344  3342    1
  2747  1294  1295    1
  2748  3656  3654   ar
  2749  3009  3007    1
  2750  3009  3010    1
  2751  1770  1769    1
  2752  3337  3338   ar
  2753  3208  3206   ar
  2754  3315  3314   ar
  2755  3315  3317   ar
  2756  3583  3584    1
  2757  3583  3585    1
  2758  2790  2789    1
  2759   124   125   ar
  2760   124   123   ar
  2761   638   637    1
  2762  3594  3593   ar
  2763   114   113    1
  2764   114   119    1
  2765  3007  3005    1
  2766  3007  3008    1
  2767  3332  3333    2
  2768  3332  3331   ar
  2769  3584  3589    1
  2770  2496  2491    1
  2771  2496  2494    1
  2772  2492  2494    1
  2773  2492  2493    1
  2774  2492  2490    1
  2775   635   637    1
  2776   635   636    1
  2777  2729  2728   ar
  2778  2729  2723   ar
  2779  1288  1289    1
  2780   125   120   ar
  2781  2818  2817    1
  2782  2818  2816    1
  2783  3295  3297   ar
  2784  3295  3294   ar
  2785  2513  2511    1
  2786  3276  3275    1
  2787   715   708   ar
  2788  3669  3668    1
  2789  3238  3227    1
  2790  3027  3028    1
  2791  3027  3025    1
  2792   709   710    2
  2793   709   708   ar
  2794  3003  3005    1
  2795  1470  1469    1
  2796  3617  3616    2
  2797   697   678    2
  2798  2791  2792   ar
  2799  2791  2788   ar
  2800  1769  1767    1
  2801  1746  1745    1
  2802  2776  2775    1
  2803  3672  3667    1
  2804  2488  2490    1
  2805  2728  2727   ar
  2806  3638  3637    2
  2807  3045  3028    1
  2808  3045  3063    1
  2809  3668  3666    1
  2810  3026  3025    1
  2811   208   209   ar
  2812   208   213   ar
  2813   129   123   ar
  2814   129   119    1
  2815  3206  3207    1
  2816  1745  1747    1
  2817  2491  2490    1
  2818   717   698    2
  2819  2494  2495    1
  2820  3024  3022    1
  2821  3024  3023    1
  2822  3297  3298   ar
  2823   566   545    2
  2824   595   593    1
  2825   595   597    1
  2826  3258  3251   ar
  2827   113   115    1
  2828  3251  3250    1
  2829  3314  3312   ar
  2830  3659  3660   ar
  2831  3220  3219    1
  2832   619   629    1
  2833  3585  3586    1
  2834  3585  3587    1
  2835   637   639    1
  2836  3317  3318   ar
  2837  2806  2813   ar
  2838  2806  2805    1
  2839   704   703    1
  2840  3600  3586    1
  2841  3600  3621    1
  2842  3600  3602    1
  2843  3022  3008    1
  2844  3022  3043    1
  2845   696   678    1
  2846  2835  2816    2
  2847  3618  3619   ar
  2848  3618  3615   ar
  2849   238   239   ar
  2850   238   235   ar
  2851   593   591    1
  2852   593   594    1
  2853  3590  3589    1
  2854  3590  3591   ar
  2855   597   599    1
  2856   708   707    1
  2857  1763  1757   ar
  2858  1763  1753    1
  2859   209   210   ar
  2860  1754  1755   ar
  2861  2746  2745   ar
  2862  2746  2747   ar
  2863  3343  3342    1
  2864  3343  3341    1
  2865   147   146    1
  2866   239   240   ar
  2867  3294  3292   ar
  2868   703   705    1
  2869   703   701    1
  2870   123   122   ar
  2871  1707  1706    1
  2872  1757  1756   ar
  2873  1767  1768    1
  2874  3289  3288    1
  2875  3338  3331   ar
  2876  2745  2744   ar
  2877   214   213    1
  2878   119   117    1
  2879  2792  2793   ar
  2880  1748  1747    1
  2881  1748  1753    1
  2882  1466  1465    1
  2883  2761  2763    1
  2884  2761  2762    1
  2885  3654  3655    2
  2886  3654  3653   ar
  2887   705   707    1
  2888   705   706    1
  2889   591   592    1
  2890   657   656    1
  2891   192   191    2
  2892  2789  2788   ar
  2893  2789  2784   ar
  2894  3331  3330    1
  2895   636   641    1
  2896  2763  2764    1
  2897  3589  3587    1
  2898  3275  3274   ar
  2899  3275  3277   ar
  2900  3298  3291   ar
  2901  3025  3023    1
  2902  2723  2722   ar
  2903  2723  2724   ar
  2904   350   329    2
  2905   716   698    1
  2906  2788  2787   ar
  2907   678   680    1
  2908   678   661    1
  2909   700   698    1
  2910   700   699    1
  2911  3593  3591   ar
  2912  1289  1306    1
  2913  2816  2834    1
  2914  2816  2802    1
  2915   693   692    1
  2916   120   121   ar
  2917   698   684    1
  2918   213   212   ar
  2919  3616  3615   ar
  2920  3616  3610   ar
  2921  3274  3272   ar
  2922  2727  2724   ar
  2923  2775  2777    1
  2924  2722  2721   ar
  2925  3619  3620   ar
  2926  3320  3301    2
  2927  1469  1471   ar
  2928  1469  1468   ar
  2929  2815  2796    2
  2930  3637  3639   ar
  2931  3637  3636   ar
  2932  1747  1749    1
  2933   185   191   ar
  2934   185   186   ar
  2935   115   117    1
  2936   115   116    1
  2937   317   316    1
  2938  3685  3663    2
  2939  3292  3291   ar
  2940  3292  3293    2
  2941  2803  2805    1
  2942  2803  2801    1
  2943  2803  2804    1
  2944  3602  3601    1
  2945  1471  1472   ar
  2946  3615  3614   ar
  2947  2766  2765    2
  2948  3667  3666    1
  2949  3227  3222    1
  2950  3227  3225    1
  2951   315   329    1
  2952   315   314    1
  2953  1753  1751    1
  2954  3360  3341    2
  2955  3591  3592    2
  2956  3222  3221    1
  2957  2748  2747    1
  2958  1447  1446   ar
  2959  1447  1448   ar
  2960   707   702    1
  2961  3291  3290    1
  2962   169   168    2
  2963  3660  3653   ar
  2964   651   650   ar
  2965   651   652   ar
  2966   629   628   ar
  2967   629   623   ar
  2968  1755  1756   ar
  2969  1323  1322    2
  2970   312   310    1
  2971   312   313    1
  2972   312   314    1
  2973   187   186    1
  2974   594   599    1
  2975  3587  3588    1
  2976  3666  3664    1
  2977  2747  2742   ar
  2978  2805  2800    1
  2979   310   311    1
  2980   656   658    1
  2981   146   148   ar
  2982   146   145   ar
  2983   545   565    1
  2984   545   528    1
  2985   545   547    1
  2986  3312  3313    2
  2987  3312  3311   ar
  2988  3277  3278   ar
  2989   237   236    2
  2990  3318  3311   ar
  2991  3250  3248    1
  2992  3250  3245    1
  2993  2764  2765   ar
  2994  2764  2771   ar
  2995   191   190   ar
  2996   599   600    1
  2997   228   227    1
  2998  2724  2725   ar
  2999  3665  3664    1
  3000  3665  3663    1
  3001   294   293    1
  3002   592   590    1
  3003   694   692   ar
  3004   694   695   ar
  3005   628   627   ar
  3006   148   149   ar
  3007   210   211   ar
  3008  3219  3221    1
  3009   122   121   ar
  3010   235   236   ar
  3011   235   234   ar
  3012   151   132    2
  3013  1324  1325   ar
  3014  1324  1321   ar
  3015  3653  3652    1
  3016  3639  3640   ar
  3017   680   679    1
  3018   608   590    2
  3019  2765  2767   ar
  3020  1749  1751    1
  3021  1749  1750    1
  3022   330   332    1
  3023   330   331    1
  3024  3341  3359    1
  3025  3341  3327    1
  3026   240   229    1
  3027   240   234   ar
  3028   639   641    1
  3029   639   640    1
  3030  2744  2743   ar
  3031  2801  2802    1
  3032  2801  2799    1
  3033   699   701    1
  3034   692   691   ar
  3035  1787  1766    2
  3036   701   702    1
  3037  3249  3248    1
  3038  1446  1451   ar
  3039  1706  1704    1
  3040  1706  1708    1
  3041   117   118    1
  3042  2784  2785   ar
  3043  1485  1484    1
  3044  1485  1490    1
  3045  3340  3321    2
  3046  3288  3290    1
  3047  3288  3286    1
  3048  3328  3330    1
  3049  3328  3326    1
  3050  3328  3329    1
  3051  1465  1467    1
  3052  1465  1463    1
  3053   650   647   ar
  3054  1768  1766    1
  3055   329   331    1
  3056   329   351    1
  3057  3272  3273    2
  3058  3272  3271   ar
  3059   641   652    1
  3060  2793  2787   ar
  3061  2793  2783    1
  3062   186   188   ar
  3063   528   527    1
  3064  1322  1321   ar
  3065  1322  1316   ar
  3066  1704  1702    1
  3067  1704  1705    1
  3068  3330  3325    1
  3069  2771  2770   ar
  3070   661   660    1
  3071  1328  1306    2
  3072   116   132    1
  3073  1489  1488    1
  3074  1448  1449   ar
  3075  3636  3634   ar
  3076  1325  1326   ar
  3077  1484  1482    1
  3078  1484  1486    1
  3079  2787  2786   ar
  3080   313   318    1
  3081  1321  1320   ar
  3082  2721  2720   ar
  3083   314   316    1
  3084  3290  3285    1
  3085   229   227    1
  3086   229   224    1
  3087   236   230   ar
  3088  1467  1462    1
  3089  1467  1478    1
  3090  3311  3310    1
  3091   546   547    1
  3092   546   548    1
  3093  1468  1474   ar
  3094  3610  3611   ar
  3095  3221  3223    1
  3096  3663  3684    1
  3097  3663  3649    1
  3098   652   646   ar
  3099  1751  1752    1
  3100  3326  3327    1
  3101  3326  3324    1
  3102  1482  1483    1
  3103  3248  3246    1
  3104  3642  3623    2
  3105   332   333    1
  3106   332   334    1
  3107  2798  2796    1
  3108  2798  2797    1
  3109  3225  3223    1
  3110  3225  3226    1
  3111   212   211   ar
  3112   212   215   ar
  3113  1306  1308    1
  3114  1306  1327    1
  3115   370   352    2
  3116  2767  2768   ar
  3117  3245  3244    1
  3118  3278  3271   ar
  3119   145   143   ar
  3120   316   318    1
  3121  3223  3224    1
  3122  2777  2778    1
  3123  2777  2779    1
  3124   327   309    2
  3125  2778  2783    1
  3126  3620  3614   ar
  3127  3620  3609    1
  3128   695   688   ar
  3129   590   609    1
  3130   590   573    1
  3131   660   658    1
  3132   660   662    1
  3133   673   674   ar
  3134   673   670   ar
  3135  3287  3301    1
  3136  3287  3286    1
  3137   684   683    1
  3138  2796  2780    1
  3139  2796  2814    1
  3140  3601  3603    1
  3141   168   162   ar
  3142   168   167   ar
  3143  3614  3613   ar
  3144  3301  3303    1
  3145  3301  3319    1
  3146  1472  1478   ar
  3147  1472  1473   ar
  3148   234   233   ar
  3149  3260  3241    2
  3150   211   217   ar
  3151   623   622   ar
  3152   623   624   ar
  3153  2742  2743   ar
  3154  3271  3270    1
  3155  1316  1317   ar
  3156  1766  1750    1
  3157  1766  1786    1
  3158  2800  2799    1
  3159   602   601    2
  3160   674   675   ar
  3161   227   225    1
  3162  2770  2768   ar
  3163  1490  1488    1
  3164  1490  1501    1
  3165   132   150    1
  3166   132   134    1
  3167   149   142   ar
  3168  2725  2720   ar
  3169  2725  2726    1
  3170   691   689   ar
  3171  1709  1708    1
  3172  1702  1703    1
  3173  2779  2780    1
  3174  2779  2781    1
  3175   658   659    1
  3176  1308  1307    1
  3177   264   243    2
  3178   627   624   ar
  3179   530   529    1
  3180  1326  1320   ar
  3181  1326  1315    1
  3182  1705  1710    1
  3183   679   681    1
  3184   311   309    1
  3185   292   309    1
  3186   292   291    1
  3187  1320  1319   ar
  3188   622   621   ar
  3189   318   319    1
  3190  3323  3321    1
  3191  3323  3322    1
  3192   683   681    1
  3193   683   685    1
  3194  1464  1463    1
  3195  1464  1481    1
  3196   162   163   ar
  3197  1310  1315    1
  3198  1310  1309    1
  3199  2768  2769    2
  3200  1462  1461    1
  3201   226   225    1
  3202   226   243    1
  3203   333   338    1
  3204   284   266    2
  3205   190   189   ar
  3206   190   193   ar
  3207   600   601   ar
  3208   600   607   ar
  3209  3640  3633   ar
  3210  3648  3650    1
  3211  3648  3649    1
  3212  3648  3646    1
  3213   335   352    1
  3214   335   334    1
  3215  1408  1407    1
  3216  3604  3603    1
  3217  3604  3609    1
  3218  1478  1477   ar
  3219  3286  3284    1
  3220  2785  2786   ar
  3221  1708  1710    1
  3222   293   291    1
  3223   293   295    1
  3224  2783  2781    1
  3225  3650  3652    1
  3226  3650  3651    1
  3227  3652  3647    1
  3228  1424  1425   ar
  3229  1424  1429   ar
  3230  2799  2797    1
  3231  1710  1711    1
  3232  3325  3324    1
  3233  1463  1461    1
  3234  1488  1486    1
  3235  3303  3302    1
  3236  1461  1459    1
  3237  1451  1452    1
  3238  1451  1450   ar
  3239  3321  3339    1
  3240  3321  3307    1
  3241   647   646   ar
  3242   647   648   ar
  3243  1425  1426   ar
  3244   309   328    1
  3245   255   254    1
  3246   224   223    1
  3247   672   671    2
  3248   188   189   ar
  3249  1486  1487    1
  3250  1317  1319   ar
  3251  1317  1318    1
  3252  1487  1504    1
  3253   601   603   ar
  3254   588   567    2
  3255  1449  1450   ar
  3256  1449  1455   ar
  3257  1315  1313    1
  3258   624   625   ar
  3259   527   525    1
  3260   527   529    1
  3261  3634  3633   ar
  3262  3634  3635    2
  3263   646   645   ar
  3264  3603  3605    1
  3265   688   689   ar
  3266   688   687    1
  3267   244   246    1
  3268   244   245    1
  3269   337   336    1
  3270  1713  1712    2
  3271   289   291    1
  3272   289   290    1
  3273   289   287    1
  3274   548   549    1
  3275   548   550    1
  3276  3605  3607    1
  3277  3605  3606    1
  3278   352   371    1
  3279   352   354    1
  3280   334   336    1
  3281  3611  3613   ar
  3282  3611  3612    1
  3283   143   142   ar
  3284   143   144    2
  3285  3324  3322    1
  3286  1307  1309    1
  3287  3609  3607    1
  3288   670   671   ar
  3289   670   669   ar
  3290  1502  1481    2
  3291  1444  1443    1
  3292  1474  1473   ar
  3293  1474  1475    2
  3294   215   216   ar
  3295   689   690    2
  3296  3285  3284    1
  3297   230   231   ar
  3298  1483  1481    1
  3299   225   223    1
  3300   290   295    1
  3301  3310  3308    1
  3302  3310  3305    1
  3303   659   664    1
  3304  3306  3308    1
  3305  3306  3307    1
  3306  3306  3304    1
  3307   167   170   ar
  3308   167   166   ar
  3309   681   682    1
  3310   142   141    1
  3311  3270  3265    1
  3312  3270  3268    1
  3313  3224  3241    1
  3314  1473  1476   ar
  3315  3662  3643    2
  3316   525   523    1
  3317   525   526    1
  3318   295   306    1
  3319   281   280    1
  3320   573   572    1
  3321   189   195   ar
  3322  2781  2782    1
  3323  1402  1407   ar
  3324  1402  1403   ar
  3325   243   245    1
  3326   243   265    1
  3327   193   194   ar
  3328  3243  3241    1
  3329  3243  3242    1
  3330   170   171   ar
  3331   134   133    1
  3332  3246  3244    1
  3333  3246  3247    1
  3334  1719  1701    2
  3335  3308  3309    1
  3336   675   664    1
  3337   675   669   ar
  3338  3244  3242    1
  3339  3644  3646    1
  3340  3644  3645    1
  3341  1344  1343    1
  3342  3241  3259    1
  3343  3623  3606    1
  3344  3623  3625    1
  3345  3623  3641    1
  3346   523   524    1
  3347   607   606   ar
  3348   529   531    1
  3349  3633  3632    1
  3350   662   664    1
  3351   662   663    1
  3352   671   665   ar
  3353  3647  3646    1
  3354   282   280   ar
  3355   282   283   ar
  3356   685   687    1
  3357   685   686    1
  3358  1501  1500   ar
  3359  1501  1495   ar
  3360   233   231   ar
  3361  1430  1429    1
  3362  1481  1503    1
  3363  1407  1406   ar
  3364   217   216   ar
  3365   217   207    1
  3366  3265  3264    1
  3367   223   221    1
  3368   246   247    1
  3369   246   248    1
  3370   549   554    1
  3371  1309  1311    1
  3372  1450  1453   ar
  3373  1703  1701    1
  3374  1381  1380    1
  3375  3247  3261    1
  3376  1429  1428   ar
  3377   621   620   ar
  3378  3284  3282    1
  3379   338   336    1
  3380   338   349    1
  3381   163   164    1
  3382   163   165   ar
  3383   649   648    2
  3384  3607  3608    1
  3385   648   642   ar
  3386  3305  3304    1
  3387  1426  1427   ar
  3388   280   279   ar
  3389   266   285    1
  3390   266   249    1
  3391   266   268    1
  3392   682   687    1
  3393  1445  1443    1
  3394  1445  1455    1
  3395  1445  1440    1
  3396  3625  3624    1
  3397   669   668   ar
  3398  1500  1499   ar
  3399   319   326   ar
  3400   319   320   ar
  3401  1477  1476   ar
  3402  1443  1441    1
  3403   543   522    2
  3404   231   232    1
  3405  1711  1712   ar
  3406  1711  1718   ar
  3407   353   354    1
  3408   353   355    1
  3409  1455  1454   ar
  3410  1459  1460    1
  3411   287   288    1
  3412   247   252    1
  3413  1712  1714   ar
  3414  3302  3304    1
  3415   254   256   ar
  3416   254   253   ar
  3417   572   570    1
  3418   572   574    1
  3419   283   276   ar
  3420   645   643   ar
  3421  1689  1688    1
  3422  1522  1504    2
  3423   550   551    1
  3424   550   552    1
  3425   603   604   ar
  3426   256   257   ar
  3427   625   620   ar
  3428   625   626    1
  3429  1403  1404   ar
  3430   207   205    1
  3431   207   202    1
  3432  1343  1345   ar
  3433  1343  1342   ar
  3434   136   141    1
  3435   136   135    1
  3436  1701  1687    1
  3437  1701  1720    1
  3438   299   297   ar
  3439   299   300   ar
  3440   567   589    1
  3441   567   551    1
  3442   567   569    1
  3443   206   205    1
  3444  1494  1495   ar
  3445  1494  1492   ar
  3446  1504  1506    1
  3447  1504  1523    1
  3448   321   320    2
  3449  1495  1496   ar
  3450   298   297    1
  3451   249   248    1
  3452   166   165   ar
  3453   166   172   ar
  3454   326   325   ar
  3455   526   531    1
  3456   141   139    1
  3457   194   195   ar
  3458  1313  1311    1
  3459  1313  1314    1
  3460   133   135    1
  3461   205   203    1
  3462   171   172   ar
  3463   195   184    1
  3464   665   666   ar
  3465  1364  1363    2
  3466  3645  3643    1
  3467   531   542    1
  3468  3269  3268    1
  3469  1311  1312    1
  3470  1505  1506    1
  3471  1505  1507    1
  3472   606   604   ar
  3473   563   562   ar
  3474   563   564   ar
  3475  3268  3266    1
  3476  3643  3661    1
  3477  3643  3629    1
  3478   274   273    1
  3479   524   522    1
  3480   306   300   ar
  3481   306   305   ar
  3482   248   250    1
  3483  1406  1409   ar
  3484  1406  1405   ar
  3485  1345  1346   ar
  3486  1342  1340   ar
  3487   279   277   ar
  3488  1687  1686    1
  3489   575   574    1
  3490   268   267    1
  3491   320   322   ar
  3492   510   509    1
  3493  1380  1379   ar
  3494  1380  1382   ar
  3495   570   568    1
  3496   570   571    1
  3497  1428  1427   ar
  3498  1428  1431   ar
  3499  1427  1433   ar
  3500  3632  3630    1
  3501  3632  3627    1
  3502  3264  3266    1
  3503  3264  3262    1
  3504   273   275    1
  3505   273   271    1
  3506  3267  3266    1
  3507  3267  3281    1
  3508  3628  3630    1
  3509  3628  3629    1
  3510  3628  3626    1
  3511   349   348   ar
  3512   349   343   ar
  3513   348   347   ar
  3514   642   643   ar
  3515  1453  1454   ar
  3516  3630  3631    1
  3517   554   552    1
  3518   554   564    1
  3519  1440  1439    1
  3520   568   569    1
  3521   668   666   ar
  3522  1499  1496   ar
  3523  3283  3282    1
  3524  3283  3281    1
  3525  3263  3261    1
  3526  3263  3262    1
  3527   221   222    1
  3528   276   277   ar
  3529   276   275    1
  3530   253   259   ar
  3531   297   296   ar
  3532  1460  1458    1
  3533   643   644    1
  3534  1718  1717   ar
  3535  1379  1385   ar
  3536   604   605    2
  3537   300   301   ar
  3538   522   508    1
  3539   522   544    1
  3540  3261  3280    2
  3541  3261  3279    1
  3542   288   286    1
  3543   552   553    1
  3544   574   576    1
  3545   135   137    1
  3546  1507  1508    1
  3547  1507  1509    1
  3548   252   250    1
  3549   252   263    1
  3550  1409  1410   ar
  3551  1508  1513    1
  3552  1714  1715   ar
  3553   562   559   ar
  3554  3627  3626    1
  3555   355   356    1
  3556   355   357    1
  3557   172   161    1
  3558  3624  3626    1
  3559   666   667    1
  3560  1496  1497   ar
  3561  1688  1686    1
  3562  1688  1690    1
  3563  1492  1493    1
  3564  1492  1491   ar
  3565   277   278    2
  3566   564   558   ar
  3567  1441  1439    1
  3568  1441  1442    1
  3569  1404  1405   ar
  3570  1363  1362   ar
  3571  1363  1365   ar
  3572  1362  1360   ar
  3573   202   201    1
  3574   257   263   ar
  3575   257   258   ar
  3576  1670  1669    1
  3577   137   139    1
  3578   137   138    1
  3579   508   507    1
  3580   222   220    1
  3581  1405  1411   ar
  3582   174   152    2
  3583  1346  1339   ar
  3584  1382  1383   ar
  3585  1340  1341    2
  3586  1340  1339   ar
  3587   139   140    1
  3588   275   270    1
  3589   271   269    1
  3590   271   272    1
  3591   325   323   ar
  3592   184   182    1
  3593   184   179    1
  3594  1439  1437    1
  3595  1442  1458    1
  3596   305   304   ar
  3597  1693  1692    2
  3598   356   361    1
  3599   509   507    1
  3600   509   511    1
  3601  3281  3300    2
  3602  3281  3299    1
  3603  1686  1684    1
  3604  1348  1329    2
  3605   542   541   ar
  3606   542   536   ar
  3607  1312  1329    1
  3608   250   251    1
  3609   263   262   ar
  3610   203   201    1
  3611   203   204    1
  3612  1431  1432   ar
  3613  1433  1423    1
  3614  1433  1432   ar
  3615   391   372    2
  3616   347   344   ar
  3617   571   576    1
  3618   576   587    1
  3619   514   513    2
  3620   322   323   ar
  3621  1339  1338    1
  3622   267   269    1
  3623   270   269    1
  3624   343   342   ar
  3625   343   344   ar
  3626   182   183    1
  3627   182   180    1
  3628   358   357    1
  3629   358   372    1
  3630  1361  1360    2
  3631  1717  1715   ar
  3632  1385  1386    2
  3633  1385  1384   ar
  3634   390   372    1
  3635  1491  1497   ar
  3636   259   258   ar
  3637   259   260    2
  3638  1715  1716    1
  3639  1360  1359   ar
  3640  1458  1479    2
  3641  1458  1480    1
  3642  1497  1498    2
  3643  1410  1411   ar
  3644   296   302   ar
  3645   357   359    1
  3646  1513  1511    1
  3647  1513  1514    1
  3648   535   536   ar
  3649   535   533   ar
  3650  1365  1366   ar
  3651   507   505    1
  3652   301   304   ar
  3653   301   302   ar
  3654  1690  1685    1
  3655  1690  1691    1
  3656   559   558   ar
  3657   559   560   ar
  3658   541   540   ar
  3659   258   261   ar
  3660   201   199    1
  3661  1684  1685    1
  3662  1684  1682    1
  3663  1423  1421    1
  3664  1423  1418    1
  3665   286   272    1
  3666   286   308    2
  3667   286   307    1
  3668   342   340   ar
  3669   323   324    1
  3670   558   557   ar
  3671   372   374    1
  3672  1512  1511    1
  3673  1509  1510    1
  3674  1509  1511    1
  3675   161   156    1
  3676   161   159    1
  3677  1411  1401    1
  3678   536   537   ar
  3679   204   220    1
  3680   138   152    1
  3681  1422  1421    1
  3682  1510  1524    1
  3683  1521  1514   ar
  3684  1521  1520   ar
  3685  1329  1331    1
  3686  1329  1347    1
  3687  1669  1668   ar
  3688  1669  1671   ar
  3689  1383  1384   ar
  3690  1383  1389   ar
  3691   179   178    1
  3692   152   154    1
  3693   152   173    1
  3694  1421  1419    1
  3695   344   345   ar
  3696  1692  1691   ar
  3697  1692  1694   ar
  3698   369   368   ar
  3699   369   362   ar
  3700   511   512    1
  3701   511   506    1
  3702   220   242    2
  3703   220   241    1
  3704   154   153    1
  3705   156   155    1
  3706   513   512   ar
  3707   513   515   ar
  3708   180   178    1
  3709   180   181    1
  3710  1333  1338    1
  3711  1333  1332    1
  3712  1338  1336    1
  3713   302   303    2
  3714   361   359    1
  3715   361   362    1
  3716  1384  1387   ar
  3717  1437  1438    1
  3718  1514  1515   ar
  3719   262   261   ar
  3720  1359  1366   ar
  3721  1359  1358    1
  3722  1331  1330    1
  3723   534   533    1
  3724   368   366   ar
  3725  1691  1698   ar
  3726   505   506    1
  3727   505   503    1
  3728  1668  1674   ar
  3729   533   532   ar
  3730  1671  1672   ar
  3731  1520  1518   ar
  3732   200   199    1
  3733   200   198    1
  3734  1545  1524    2
  3735   587   586   ar
  3736   587   581   ar
  3737  1546  1524    1
  3738  1682  1683    1
  3739   359   360    1
  3740   159   157    1
  3741   159   160    1
  3742  1438  1436    1
  3743   512   519   ar
  3744   540   537   ar
  3745   219   198    2
  3746   560   561    1
  3747   560   555   ar
  3748  1524  1526    1
  3749   557   556   ar
  3750  1666  1665    1
  3751   515   516   ar
  3752  1694  1695   ar
  3753   362   363   ar
  3754  1418  1417    1
  3755   537   538   ar
  3756  1683  1681    1
  3757   178   176    1
  3758  1401  1399    1
  3759  1401  1396    1
  3760   340   341    1
  3761   340   339   ar
  3762  1389  1378    1
  3763  1389  1388   ar
  3764   580   581   ar
  3765   580   578   ar
  3766  1378  1376    1
  3767  1378  1373    1
  3768   157   155    1
  3769   157   158    1
  3770  1377  1376    1
  3771   181   198    1
  3772  1330  1332    1
  3773   374   373    1
  3774   155   153    1
  3775   586   585   ar
  3776   176   177    1
  3777   581   582   ar
  3778   345   339   ar
  3779   345   346    2
  3780   198   218    1
  3781  1419  1417    1
  3782  1419  1420    1
  3783  1358  1353    1
  3784  1358  1356    1
  3785   197   175    2
  3786  1332  1334    1
  3787  1387  1388   ar
  3788  1515  1516    2
  3789  1515  1517   ar
  3790  1376  1374    1
  3791   532   538   ar
  3792   503   504    1
  3793  1336  1334    1
  3794  1336  1337    1
  3795  1665  1667    1
  3796  1665  1663    1
  3797  1698  1697   ar
  3798   491   490   ar
  3799   491   492   ar
  3800   490   495   ar
  3801  1399  1400    1
  3802  1399  1397    1
  3803   519   518   ar
  3804   366   367    1
  3805   366   365   ar
  3806  1518  1517   ar
  3807  1518  1519    1
  3808  1396  1395    1
  3809   556   555   ar
  3810  1672  1673   ar
  3811  1672  1678   ar
  3812  1674  1675    2
  3813  1674  1673   ar
  3814   579   578    1
  3815   538   539    2
  3816   516   517    2
  3817   516   518   ar
  3818  1417  1415    1
  3819   373   375    1
  3820  1699  1681    2
  3821  1373  1372    1
  3822  1695  1697   ar
  3823  1695  1696    1
  3824   578   577   ar
  3825  1334  1335    1
  3826  1436  1420    1
  3827  1436  1457    2
  3828  1436  1456    1
  3829   363   365   ar
  3830   363   364    2
  3831  1526  1525    1
  3832   177   175    1
  3833  1353  1352    1
  3834  1681  1664    1
  3835  1681  1700    1
  3836   158   175    1
  3837  1356  1357    1
  3838  1356  1354    1
  3839   504   502    1
  3840  1667  1678    1
  3841  1667  1662    1
  3842  1664  1663    1
  3843   175   196    1
  3844   585   582   ar
  3845  1673  1676   ar
  3846  1397  1395    1
  3847  1397  1398    1
  3848   582   583   ar
  3849   492   493   ar
  3850   388   389   ar
  3851   388   386   ar
  3852  1525  1527    1
  3853   496   495    1
  3854   495   494   ar
  3855  1678  1677   ar
  3856  1663  1661    1
  3857  1416  1415    1
  3858  1416  1414    1
  3859  1395  1393    1
  3860   389   382   ar
  3861  1374  1372    1
  3862  1374  1375    1
  3863  1542  1543   ar
  3864  1542  1539   ar
  3865  1393  1394    1
  3866  1394  1392    1
  3867  1372  1370    1
  3868   577   583   ar
  3869  1543  1544   ar
  3870   387   386    1
  3871   375   376    1
  3872   375   377    1
  3873  1435  1414    2
  3874  1351  1349    1
  3875  1351  1350    1
  3876  1335  1349    1
  3877   520   502    2
  3878   376   381    1
  3879  1354  1352    1
  3880  1354  1355    1
  3881  1368  1349    2
  3882   493   494   ar
  3883   493   499   ar
  3884  1352  1350    1
  3885  1662  1661    1
  3886   583   584    2
  3887   386   385   ar
  3888  1528  1527    1
  3889  1528  1533    1
  3890  1661  1659    1
  3891   494   497   ar
  3892  1398  1414    1
  3893   502   521    1
  3894   502   486    1
  3895   411   392    2
  3896   488   487    1
  3897  1375  1392    1
  3898  1676  1677   ar
  3899  1541  1540    2
  3900  1414  1434    1
  3901  1527  1529    1
  3902  1650  1649    2
  3903  1349  1367    1
  3904   487   489    1
  3905   487   485    1
  3906   429   428    2
  3907  1539  1540   ar
  3908  1539  1538   ar
  3909   377   378    1
  3910   377   379    1
  3911   382   381    1
  3912   382   383   ar
  3913  1544  1533    1
  3914  1544  1538   ar
  3915  1392  1413    2
  3916  1392  1412    1
  3917  1651  1649   ar
  3918  1651  1652   ar
  3919  1370  1371    1
  3920  1540  1534   ar
  3921   378   392    1
  3922  1371  1369    1
  3923   499   489    1
  3924   499   498   ar
  3925   381   379    1
  3926   486   485    1
  3927  1567  1547    2
  3928  1355  1369    1
  3929   469   468    1
  3930   392   410    1
  3931   392   394    1
  3932  1653  1652    1
  3933  1533  1531    1
  3934  1632  1631    2
  3935  1649  1648   ar
  3936   497   498   ar
  3937  1538  1537   ar
  3938   467   468   ar
  3939   467   473   ar
  3940   489   484    1
  3941   474   473    2
  3942   385   383   ar
  3943   485   483    1
  3944  1568  1547    1
  3945  1529  1531    1
  3946  1529  1530    1
  3947  1659  1660    1
  3948   428   422   ar
  3949   428   427   ar
  3950  1652  1654   ar
  3951   383   384    2
  3952  1625  1631   ar
  3953  1625  1626   ar
  3954  1391  1369    2
  3955   379   380    1
  3956   407   406    1
  3957   468   470   ar
  3958  1369  1390    1
  3959   422   423   ar
  3960   473   472   ar
  3961  1547  1530    1
  3962  1547  1549    1
  3963  1534  1535   ar
  3964  1609  1608    2
  3965  1627  1626    1
  3966  1631  1630   ar
  3967  1660  1658    1
  3968   408   406   ar
  3969   408   409   ar
  3970  1586  1585    2
  3971  1531  1532    1
  3972  1537  1535   ar
  3973  1646  1645    1
  3974  1626  1628   ar
  3975   394   393    1
  3976  1648  1647    1
  3977  1648  1655   ar
  3978   484   483    1
  3979  1535  1536    1
  3980   406   405   ar
  3981   483   481    1
  3982  1645  1647    1
  3983  1645  1643    1
  3984   427   430   ar
  3985   427   426   ar
  3986   430   431   ar
  3987  1654  1655   ar
  3988   470   471   ar
  3989  1647  1642    1
  3990   423   424    1
  3991   423   425   ar
  3992   409   402   ar
  3993   472   471   ar
  3994   472   475   ar
  3995  1608  1602   ar
  3996  1608  1607   ar
  3997  1549  1548    1
  3998  1587  1584   ar
  3999  1587  1588   ar
  4000  1630  1633   ar
  4001  1630  1629   ar
  4002  1585  1584   ar
  4003  1585  1579   ar
  4004  1602  1603   ar
  4005   471   477   ar
  4006   393   395    1
  4007  1548  1550    1
  4008  1658  1680    2
  4009  1658  1644    1
  4010  1658  1679    1
  4011   482   481    1
  4012   482   480    1
  4013  1628  1629   ar
  4014  1591  1569    2
  4015   426   425   ar
  4016   426   432   ar
  4017   405   403   ar
  4018  1643  1644    1
  4019  1643  1641    1
  4020  1584  1583   ar
  4021   475   476   ar
  4022   431   432   ar
  4023  1633  1634   ar
  4024  1629  1635   ar
  4025   451   450    1
  4026  1607  1610   ar
  4027  1607  1606   ar
  4028   434   412    2
  4029  1579  1580   ar
  4030  1588  1589   ar
  4031  1642  1641    1
  4032  1610  1611   ar
  4033   402   403   ar
  4034   402   401    1
  4035  1590  1569    1
  4036   501   480    2
  4037  1603  1604    1
  4038  1603  1605   ar
  4039   432   421    1
  4040   396   395    1
  4041   396   401    1
  4042   477   476   ar
  4043   477   466    1
  4044   403   404    2
  4045  1569  1571    1
  4046  1569  1553    1
  4047   395   397    1
  4048  1641  1639    1
  4049   480   500    1
  4050   480   463    1
  4051  1550  1552    1
  4052  1550  1551    1
  4053   464   465    1
  4054   464   466    1
  4055   464   462    1
  4056   397   398    1
  4057   397   399    1
  4058  1583  1589   ar
  4059  1583  1582   ar
  4060  1634  1635   ar
  4061   401   399    1
  4062   450   445   ar
  4063   450   449   ar
  4064  1635  1624    1
  4065  1564  1565   ar
  4066  1564  1561   ar
  4067  1606  1605   ar
  4068  1606  1612   ar
  4069  1565  1566   ar
  4070  1589  1578    1
  4071  1571  1570    1
  4072  1570  1572    1
  4073  1611  1612   ar
  4074  1580  1582   ar
  4075  1580  1581    1
  4076   466   461    1
  4077   412   398    1
  4078   412   414    1
  4079   412   433    1
  4080  1552  1553    1
  4081  1552  1554    1
  4082  1551  1556    1
  4083   462   463    1
  4084   462   460    1
  4085   452   449   ar
  4086   452   453   ar
  4087   399   400    1
  4088   445   446   ar
  4089  1614  1592    2
  4090   414   413    1
  4091   421   419    1
  4092   421   416    1
  4093   456   435    2
  4094   449   448   ar
  4095  1640  1639    1
  4096  1640  1638    1
  4097  1563  1562    1
  4098  1612  1601    1
  4099   419   417    1
  4100   419   420    1
  4101  1561  1562   ar
  4102  1561  1560   ar
  4103  1566  1556    1
  4104  1566  1560   ar
  4105  1624  1622    1
  4106  1624  1619    1
  4107  1573  1572    1
  4108  1573  1578    1
  4109  1622  1620    1
  4110  1622  1623    1
  4111   417   415    1
  4112   417   418    1
  4113  1556  1554    1
  4114   416   415    1
  4115  1572  1574    1
  4116  1578  1576    1
  4117   461   460    1
  4118  1562  1557   ar
  4119  1574  1576    1
  4120  1574  1575    1
  4121   453   454   ar
  4122  1554  1555    1
  4123  1637  1615    2
  4124  1657  1638    2
  4125  1560  1559   ar
  4126   460   458    1
  4127   446   447   ar
  4128  1620  1621    1
  4129  1620  1618    1
  4130   413   415    1
  4131  1592  1594    1
  4132  1592  1575    1
  4133  1592  1613    1
  4134   448   454   ar
  4135   448   447   ar
  4136  1638  1621    1
  4137  1638  1656    1
  4138   459   458    1
  4139   459   457    1
  4140  1576  1577    1
  4141   435   418    1
  4142   435   437    1
  4143   435   455    1
  4144  1594  1593    1
  4145   479   457    2
  4146  1619  1618    1
  4147  1601  1599    1
  4148  1601  1596    1
  4149  1557  1558   ar
  4150  1617  1615    1
  4151  1617  1616    1
  4152   454   444    1
  4153   437   436    1
  4154  1559  1558   ar
  4155  1599  1597    1
  4156  1599  1600    1
  4157  1597  1595    1
  4158  1597  1598    1
  4159  1615  1598    1
  4160  1615  1636    1
  4161  1596  1595    1
  4162  1618  1616    1
  4163   457   478    1
  4164   457   441    1
  4165  1593  1595    1
  4166   440   442    1
  4167   440   441    1
  4168   440   438    1
  4169   444   442    1
  4170   444   439    1
  4171   442   443    1
  4172   436   438    1
  4173   439   438    1
