ligand
 OpenBabel11021811483D
libRbt.so/2013.1/901 2013/11/27
 26 28  0  0  0  0  0  0  0  0999 V2000
   33.2694   17.2815    7.7229 N   0  0  0  0  0  0  0  0  0  0  0  0
   34.0304   16.9383    8.9178 C   0  0  2  0  0  0  0  0  0  0  0  0
   34.8258   18.1361    9.4245 C   0  0  0  0  0  0  0  0  0  0  0  0
   35.1094   19.0705    8.6759 O   0  0  0  0  0  0  0  0  0  0  0  0
   34.9672   15.7702    8.6369 C   0  0  0  0  0  0  0  0  0  0  0  0
   35.7965   15.9283    7.3692 C   0  0  0  0  0  0  0  0  0  0  0  0
   36.9814   14.5782    7.1420 S   0  0  0  0  0  0  0  0  0  0  0  0
   38.2237   15.5071    8.0757 C   0  0  0  0  0  0  0  0  0  0  0  0
   39.6027   15.4610    7.4278 C   0  0  1  0  0  0  0  0  0  0  0  0
   40.1156   14.1421    7.4763 O   0  0  0  0  0  0  0  0  0  0  0  0
   39.5490   15.8852    5.9692 C   0  0  1  0  0  0  0  0  0  0  0  0
   40.3048   17.0581    5.7813 O   0  0  0  0  0  0  0  0  0  0  0  0
   40.1591   14.7430    5.1836 C   0  0  1  0  0  0  0  0  0  0  0  0
   41.2666   15.2017    4.4438 O   0  0  0  0  0  0  0  0  0  0  0  0
   40.6064   13.7230    6.2166 C   0  0  2  0  0  0  0  0  0  0  0  0
   35.2032   18.1974   10.5952 O   0  0  0  0  0  0  0  0  0  0  0  0
   41.3165    9.2912    3.4923 N   0  0  0  0  0  0  0  0  0  0  0  0
   42.1330   10.4034    3.5357 C   0  0  0  0  0  0  0  0  0  0  0  0
   41.7868   11.4898    4.3146 N   0  0  0  0  0  0  0  0  0  0  0  0
   40.6428   11.4738    5.0412 C   0  0  0  0  0  0  0  0  0  0  0  0
   39.8084   10.3647    5.0102 C   0  0  0  0  0  0  0  0  0  0  0  0
   40.1500    9.2669    4.2296 C   0  0  0  0  0  0  0  0  0  0  0  0
   39.3579    8.1995    4.1916 N   0  0  0  0  0  0  0  0  0  0  0  0
   38.7540   10.6150    5.8162 N   0  0  0  0  0  0  0  0  0  0  0  0
   38.8997   11.8482    6.3532 C   0  0  0  0  0  0  0  0  0  0  0  0
   40.0663   12.3930    5.8819 N   0  0  0  0  0  0  0  0  0  0  0  0
  2  1  1  6  0  0  0
  2  3  1  0  0  0  0
  2  5  1  0  0  0  0
  3  4  1  0  0  0  0
  3 16  1  0  0  0  0
  5  6  1  0  0  0  0
  6  7  1  0  0  0  0
  7  8  1  0  0  0  0
  9  8  1  6  0  0  0
  9 10  1  0  0  0  0
  9 11  1  0  0  0  0
 10 15  1  0  0  0  0
 11 12  1  1  0  0  0
 11 13  1  0  0  0  0
 13 14  1  1  0  0  0
 13 15  1  0  0  0  0
 15 26  1  6  0  0  0
 17 18  2  0  0  0  0
 17 22  1  0  0  0  0
 18 19  1  0  0  0  0
 19 20  2  0  0  0  0
 20 21  1  0  0  0  0
 20 26  1  0  0  0  0
 21 22  2  0  0  0  0
 21 24  1  0  0  0  0
 22 23  1  0  0  0  0
 24 25  2  0  0  0  0
 25 26  1  0  0  0  0
M  END
>  <CHROM.1>
-21.84703204,48.56735475,175.71330930,-89.81424555,-136.32910170,-66.66557666
-154.89345430,38.46300556,14.11086931,6.50299127,2.23377782,0.40088209,0.26172440

>  <Name>
ligand

>  <RI>
0

>  <Rbt.Current_Directory>
/home/itssahil/PROJECTS/Mol_Feturizer/New_Systems/rnas/3NPQ

>  <Rbt.Executable>
rbdock ($Id: //depot/dev/client3/rdock/2013.1/src/exe/rbdock.cxx#4 $)

>  <Rbt.Library>
libRbt.so (2013.1, Build901 2013/11/27)

>  <Rbt.Parameter_File>
/export/apps/rDock/src/rDock_2013.1_src/data/scripts/dock_solv.prm

>  <Rbt.Receptor>
prm/pocket_docking_4.prm

>  <SCORE>
-27.1165

>  <SCORE.INTER>
-25.8304

>  <SCORE.INTER.CONST>
1

>  <SCORE.INTER.POLAR>
0

>  <SCORE.INTER.ROT>
7

>  <SCORE.INTER.SOLV>
26.8833

>  <SCORE.INTER.VDW>
-34.448

>  <SCORE.INTER.norm>
-0.993476

>  <SCORE.INTRA>
-1.28616

>  <SCORE.INTRA.DIHEDRAL>
-0.379675

>  <SCORE.INTRA.DIHEDRAL.0>
6.97628

>  <SCORE.INTRA.POLAR>
0

>  <SCORE.INTRA.POLAR.0>
0

>  <SCORE.INTRA.REPUL>
0

>  <SCORE.INTRA.REPUL.0>
0

>  <SCORE.INTRA.SOLV>
0.120307

>  <SCORE.INTRA.SOLV.lig_0>
-49.8243

>  <SCORE.INTRA.VDW>
-1.15647

>  <SCORE.INTRA.VDW.0>
-1.35881

>  <SCORE.INTRA.norm>
-0.0494676

>  <SCORE.RESTR>
0

>  <SCORE.RESTR.CAVITY>
0

>  <SCORE.RESTR.norm>
0

>  <SCORE.SYSTEM>
0

>  <SCORE.SYSTEM.CONST>
0

>  <SCORE.SYSTEM.DIHEDRAL>
0

>  <SCORE.SYSTEM.SOLV>
0

>  <SCORE.SYSTEM.norm>
0

>  <SCORE.heavy>
26

>  <SCORE.norm>
-1.04294

>  <RMSD>
0.813

$$$$
ligand
 OpenBabel11021811483D
libRbt.so/2013.1/901 2013/11/27
 26 28  0  0  0  0  0  0  0  0999 V2000
   34.4906   17.3733   10.3858 N   0  0  0  0  0  0  0  0  0  0  0  0
   35.3713   17.8848    9.3430 C   0  0  2  0  0  0  0  0  0  0  0  0
   34.7297   19.0571    8.6094 C   0  0  0  0  0  0  0  0  0  0  0  0
   33.5126   19.2346    8.6413 O   0  0  0  0  0  0  0  0  0  0  0  0
   35.7257   16.7809    8.3547 C   0  0  0  0  0  0  0  0  0  0  0  0
   36.3921   15.5674    8.9896 C   0  0  0  0  0  0  0  0  0  0  0  0
   37.5164   14.7185    7.8522 S   0  0  0  0  0  0  0  0  0  0  0  0
   38.8596   15.8267    8.3478 C   0  0  0  0  0  0  0  0  0  0  0  0
   40.0110   15.8391    7.3491 C   0  0  1  0  0  0  0  0  0  0  0  0
   40.5840   14.5476    7.2561 O   0  0  0  0  0  0  0  0  0  0  0  0
   39.5414   16.2401    5.9602 C   0  0  1  0  0  0  0  0  0  0  0  0
   40.1573   17.4458    5.5738 O   0  0  0  0  0  0  0  0  0  0  0  0
   39.9722   15.1184    5.0381 C   0  0  1  0  0  0  0  0  0  0  0  0
   40.8122   15.6205    4.0249 O   0  0  0  0  0  0  0  0  0  0  0  0
   40.7346   14.1358    5.9103 C   0  0  2  0  0  0  0  0  0  0  0  0
   35.4143   19.8548    7.9676 O   0  0  0  0  0  0  0  0  0  0  0  0
   41.3450    9.4662    3.5888 N   0  0  0  0  0  0  0  0  0  0  0  0
   42.1501   10.5823    3.4800 C   0  0  0  0  0  0  0  0  0  0  0  0
   41.8347   11.7366    4.1691 N   0  0  0  0  0  0  0  0  0  0  0  0
   40.7321   11.7839    4.9559 C   0  0  0  0  0  0  0  0  0  0  0  0
   39.9098   10.6721    5.0777 C   0  0  0  0  0  0  0  0  0  0  0  0
   40.2207    9.5062    4.3883 C   0  0  0  0  0  0  0  0  0  0  0  0
   39.4398    8.4354    4.4967 N   0  0  0  0  0  0  0  0  0  0  0  0
   38.8981   10.9927    5.9129 N   0  0  0  0  0  0  0  0  0  0  0  0
   39.0589   12.2728    6.3202 C   0  0  0  0  0  0  0  0  0  0  0  0
   40.1920   12.7765    5.7351 N   0  0  0  0  0  0  0  0  0  0  0  0
  2  1  1  1  0  0  0
  2  3  1  0  0  0  0
  2  5  1  0  0  0  0
  3  4  1  0  0  0  0
  3 16  1  0  0  0  0
  5  6  1  0  0  0  0
  6  7  1  0  0  0  0
  7  8  1  0  0  0  0
  9  8  1  1  0  0  0
  9 10  1  0  0  0  0
  9 11  1  0  0  0  0
 10 15  1  0  0  0  0
 11 12  1  6  0  0  0
 11 13  1  0  0  0  0
 13 14  1  6  0  0  0
 13 15  1  0  0  0  0
 15 26  1  1  0  0  0
 17 18  2  0  0  0  0
 17 22  1  0  0  0  0
 18 19  1  0  0  0  0
 19 20  2  0  0  0  0
 20 21  1  0  0  0  0
 20 26  1  0  0  0  0
 21 22  2  0  0  0  0
 21 24  1  0  0  0  0
 22 23  1  0  0  0  0
 24 25  2  0  0  0  0
 25 26  1  0  0  0  0
M  END
>  <CHROM.1>
-20.17106178,-57.71311603,-150.68506563,86.91874716,-161.76720839,-61.94342309
-141.04909204,38.64916103,14.50656177,6.55293492,2.27123378,0.58350015,0.09028401

>  <Name>
ligand

>  <RI>
0

>  <Rbt.Current_Directory>
/home/itssahil/PROJECTS/Mol_Feturizer/New_Systems/rnas/3NPQ

>  <Rbt.Executable>
rbdock ($Id: //depot/dev/client3/rdock/2013.1/src/exe/rbdock.cxx#4 $)

>  <Rbt.Library>
libRbt.so (2013.1, Build901 2013/11/27)

>  <Rbt.Parameter_File>
/export/apps/rDock/src/rDock_2013.1_src/data/scripts/dock_solv.prm

>  <Rbt.Receptor>
prm/pocket_docking_2.prm

>  <SCORE>
-26.3441

>  <SCORE.INTER>
-25.0723

>  <SCORE.INTER.CONST>
1

>  <SCORE.INTER.POLAR>
0

>  <SCORE.INTER.ROT>
7

>  <SCORE.INTER.SOLV>
25.8414

>  <SCORE.INTER.VDW>
-33.5953

>  <SCORE.INTER.norm>
-0.964317

>  <SCORE.INTRA>
-1.27184

>  <SCORE.INTRA.DIHEDRAL>
-0.100192

>  <SCORE.INTRA.DIHEDRAL.0>
6.97628

>  <SCORE.INTRA.POLAR>
0

>  <SCORE.INTRA.POLAR.0>
0

>  <SCORE.INTRA.REPUL>
0

>  <SCORE.INTRA.REPUL.0>
0

>  <SCORE.INTRA.SOLV>
0.0434431

>  <SCORE.INTRA.SOLV.lig_0>
-49.8243

>  <SCORE.INTRA.VDW>
-1.24346

>  <SCORE.INTRA.VDW.0>
-1.35881

>  <SCORE.INTRA.norm>
-0.0489168

>  <SCORE.RESTR>
0

>  <SCORE.RESTR.CAVITY>
0

>  <SCORE.RESTR.norm>
0

>  <SCORE.SYSTEM>
0

>  <SCORE.SYSTEM.CONST>
0

>  <SCORE.SYSTEM.DIHEDRAL>
0

>  <SCORE.SYSTEM.SOLV>
0

>  <SCORE.SYSTEM.norm>
0

>  <SCORE.heavy>
26

>  <SCORE.norm>
-1.01323

>  <RMSD>
0.868

$$$$
ligand
 OpenBabel11021811483D
libRbt.so/2013.1/901 2013/11/27
 26 28  0  0  0  0  0  0  0  0999 V2000
   33.0177   17.7699    7.8545 N   0  0  0  0  0  0  0  0  0  0  0  0
   33.8528   17.0448    8.8040 C   0  0  2  0  0  0  0  0  0  0  0  0
   34.4791   17.9934    9.8198 C   0  0  0  0  0  0  0  0  0  0  0  0
   34.5513   19.2014    9.5977 O   0  0  0  0  0  0  0  0  0  0  0  0
   34.9414   16.2688    8.0733 C   0  0  0  0  0  0  0  0  0  0  0  0
   35.7376   15.3245    8.9644 C   0  0  0  0  0  0  0  0  0  0  0  0
   37.1105   14.5346    8.0872 S   0  0  0  0  0  0  0  0  0  0  0  0
   38.2066   15.8905    8.5754 C   0  0  0  0  0  0  0  0  0  0  0  0
   39.4592   15.9749    7.7109 C   0  0  1  0  0  0  0  0  0  0  0  0
   40.0987   14.7125    7.6623 O   0  0  0  0  0  0  0  0  0  0  0  0
   39.1272   16.3826    6.2848 C   0  0  1  0  0  0  0  0  0  0  0  0
   39.7248   17.6224    5.9876 O   0  0  0  0  0  0  0  0  0  0  0  0
   39.7090   15.3004    5.3992 C   0  0  1  0  0  0  0  0  0  0  0  0
   40.6311   15.8602    4.4932 O   0  0  0  0  0  0  0  0  0  0  0  0
   40.4158   14.3353    6.3355 C   0  0  2  0  0  0  0  0  0  0  0  0
   34.9273   17.5734   10.8873 O   0  0  0  0  0  0  0  0  0  0  0  0
   41.3306    9.8487    3.7663 N   0  0  0  0  0  0  0  0  0  0  0  0
   42.0652   11.0167    3.7271 C   0  0  0  0  0  0  0  0  0  0  0  0
   41.6742   12.1093    4.4756 N   0  0  0  0  0  0  0  0  0  0  0  0
   40.5658   12.0445    5.2530 C   0  0  0  0  0  0  0  0  0  0  0  0
   39.8136   10.8790    5.3052 C   0  0  0  0  0  0  0  0  0  0  0  0
   40.2009    9.7746    4.5558 C   0  0  0  0  0  0  0  0  0  0  0  0
   39.4875    8.6532    4.5973 N   0  0  0  0  0  0  0  0  0  0  0  0
   38.7786   11.0895    6.1470 N   0  0  0  0  0  0  0  0  0  0  0  0
   38.8568   12.3524    6.6257 C   0  0  0  0  0  0  0  0  0  0  0  0
   39.9600   12.9570    6.0803 N   0  0  0  0  0  0  0  0  0  0  0  0
  2  1  1  6  0  0  0
  2  3  1  0  0  0  0
  2  5  1  0  0  0  0
  3  4  1  0  0  0  0
  3 16  1  0  0  0  0
  5  6  1  0  0  0  0
  6  7  1  0  0  0  0
  7  8  1  0  0  0  0
  9  8  1  1  0  0  0
  9 10  1  0  0  0  0
  9 11  1  0  0  0  0
 10 15  1  0  0  0  0
 11 12  1  6  0  0  0
 11 13  1  0  0  0  0
 13 14  1  6  0  0  0
 13 15  1  0  0  0  0
 15 26  1  6  0  0  0
 17 18  2  0  0  0  0
 17 22  1  0  0  0  0
 18 19  1  0  0  0  0
 19 20  2  0  0  0  0
 20 21  1  0  0  0  0
 20 26  1  0  0  0  0
 21 22  2  0  0  0  0
 21 24  1  0  0  0  0
 22 23  1  0  0  0  0
 24 25  2  0  0  0  0
 25 26  1  0  0  0  0
M  END
>  <CHROM.1>
-18.70637272,-171.68928162,-174.96329599,90.56915685,-161.16289068,-51.88343050
-147.38555552,38.30757253,14.45229908,6.85013355,2.31996000,0.50513716,0.18226855

>  <Name>
ligand

>  <RI>
0

>  <Rbt.Current_Directory>
/home/itssahil/PROJECTS/Mol_Feturizer/New_Systems/rnas/3NPQ

>  <Rbt.Executable>
rbdock ($Id: //depot/dev/client3/rdock/2013.1/src/exe/rbdock.cxx#4 $)

>  <Rbt.Library>
libRbt.so (2013.1, Build901 2013/11/27)

>  <Rbt.Parameter_File>
/export/apps/rDock/src/rDock_2013.1_src/data/scripts/dock_solv.prm

>  <Rbt.Receptor>
prm/pocket_docking_4.prm

>  <SCORE>
-31.6281

>  <SCORE.INTER>
-29.0039

>  <SCORE.INTER.CONST>
1

>  <SCORE.INTER.POLAR>
0

>  <SCORE.INTER.ROT>
7

>  <SCORE.INTER.SOLV>
27.8949

>  <SCORE.INTER.VDW>
-36.9009

>  <SCORE.INTER.norm>
-1.11553

>  <SCORE.INTRA>
-2.62909

>  <SCORE.INTRA.DIHEDRAL>
-1.94118

>  <SCORE.INTRA.DIHEDRAL.0>
6.97628

>  <SCORE.INTRA.POLAR>
0

>  <SCORE.INTRA.POLAR.0>
0

>  <SCORE.INTRA.REPUL>
0

>  <SCORE.INTRA.REPUL.0>
0

>  <SCORE.INTRA.SOLV>
-0.656293

>  <SCORE.INTRA.SOLV.lig_0>
-49.8243

>  <SCORE.INTRA.VDW>
-1.33035

>  <SCORE.INTRA.VDW.0>
-1.35881

>  <SCORE.INTRA.norm>
-0.101119

>  <SCORE.RESTR>
0.00492484

>  <SCORE.RESTR.CAVITY>
0.00492484

>  <SCORE.RESTR.norm>
0.000189417

>  <SCORE.SYSTEM>
0

>  <SCORE.SYSTEM.CONST>
0

>  <SCORE.SYSTEM.DIHEDRAL>
0

>  <SCORE.SYSTEM.SOLV>
0

>  <SCORE.SYSTEM.norm>
0

>  <SCORE.heavy>
26

>  <SCORE.norm>
-1.21646

>  <RMSD>
0.938

$$$$
ligand
 OpenBabel11021811483D
libRbt.so/2013.1/901 2013/11/27
 26 28  0  0  0  0  0  0  0  0999 V2000
   32.8863   17.9941    7.8589 N   0  0  0  0  0  0  0  0  0  0  0  0
   33.7275   17.1464    8.6945 C   0  0  2  0  0  0  0  0  0  0  0  0
   34.3995   17.9568    9.7971 C   0  0  0  0  0  0  0  0  0  0  0  0
   34.5891   17.4734   10.9126 O   0  0  0  0  0  0  0  0  0  0  0  0
   34.7804   16.4404    7.8495 C   0  0  0  0  0  0  0  0  0  0  0  0
   35.5693   15.3754    8.5998 C   0  0  0  0  0  0  0  0  0  0  0  0
   36.8796   14.6409    7.5887 S   0  0  0  0  0  0  0  0  0  0  0  0
   38.0930   15.7469    8.3522 C   0  0  0  0  0  0  0  0  0  0  0  0
   39.4082   15.7978    7.5835 C   0  0  1  0  0  0  0  0  0  0  0  0
   40.0193   14.5205    7.5862 O   0  0  0  0  0  0  0  0  0  0  0  0
   39.1934   16.2068    6.1354 C   0  0  1  0  0  0  0  0  0  0  0  0
   39.8408   17.4308    5.8803 O   0  0  0  0  0  0  0  0  0  0  0  0
   39.8136   15.1072    5.2987 C   0  0  1  0  0  0  0  0  0  0  0  0
   40.8138   15.6410    4.4626 O   0  0  0  0  0  0  0  0  0  0  0  0
   40.4253   14.1300    6.2878 C   0  0  2  0  0  0  0  0  0  0  0  0
   34.7691   19.1146    9.5977 O   0  0  0  0  0  0  0  0  0  0  0  0
   41.3022    9.6900    3.6260 N   0  0  0  0  0  0  0  0  0  0  0  0
   42.0478   10.8517    3.6123 C   0  0  0  0  0  0  0  0  0  0  0  0
   41.6658   11.9319    4.3831 N   0  0  0  0  0  0  0  0  0  0  0  0
   40.5557   11.8611    5.1575 C   0  0  0  0  0  0  0  0  0  0  0  0
   39.7925   10.7018    5.1842 C   0  0  0  0  0  0  0  0  0  0  0  0
   40.1706    9.6099    4.4121 C   0  0  0  0  0  0  0  0  0  0  0  0
   39.4467    8.4946    4.4291 N   0  0  0  0  0  0  0  0  0  0  0  0
   38.7582   10.9043    6.0287 N   0  0  0  0  0  0  0  0  0  0  0  0
   38.8475   12.1561    6.5340 C   0  0  0  0  0  0  0  0  0  0  0  0
   39.9571   12.7616    6.0030 N   0  0  0  0  0  0  0  0  0  0  0  0
  2  1  1  6  0  0  0
  2  3  1  0  0  0  0
  2  5  1  0  0  0  0
  3  4  1  0  0  0  0
  3 16  1  0  0  0  0
  5  6  1  0  0  0  0
  6  7  1  0  0  0  0
  7  8  1  0  0  0  0
  9  8  1  1  0  0  0
  9 10  1  0  0  0  0
  9 11  1  0  0  0  0
 10 15  1  0  0  0  0
 11 12  1  1  0  0  0
 11 13  1  0  0  0  0
 13 14  1  6  0  0  0
 13 15  1  0  0  0  0
 15 26  1  6  0  0  0
 17 18  2  0  0  0  0
 17 22  1  0  0  0  0
 18 19  1  0  0  0  0
 19 20  2  0  0  0  0
 20 21  1  0  0  0  0
 20 26  1  0  0  0  0
 21 22  2  0  0  0  0
 21 24  1  0  0  0  0
 22 23  1  0  0  0  0
 24 25  2  0  0  0  0
 25 26  1  0  0  0  0
M  END
>  <CHROM.1>
144.59092461,-171.25592903,-176.23281378,97.90731656,-165.17870869,-63.06896926
-151.88932564,38.26162031,14.35428713,6.70967418,2.30615660,0.46940388,0.20692120

>  <Name>
ligand

>  <RI>
0

>  <Rbt.Current_Directory>
/home/itssahil/PROJECTS/Mol_Feturizer/New_Systems/rnas/3NPQ

>  <Rbt.Executable>
rbdock ($Id: //depot/dev/client3/rdock/2013.1/src/exe/rbdock.cxx#4 $)

>  <Rbt.Library>
libRbt.so (2013.1, Build901 2013/11/27)

>  <Rbt.Parameter_File>
/export/apps/rDock/src/rDock_2013.1_src/data/scripts/dock_solv.prm

>  <Rbt.Receptor>
prm/pocket_docking_2.prm

>  <SCORE>
-30.5685

>  <SCORE.INTER>
-27.7534

>  <SCORE.INTER.CONST>
1

>  <SCORE.INTER.POLAR>
0

>  <SCORE.INTER.ROT>
7

>  <SCORE.INTER.SOLV>
28.4554

>  <SCORE.INTER.VDW>
-36.2541

>  <SCORE.INTER.norm>
-1.06744

>  <SCORE.INTRA>
-2.81509

>  <SCORE.INTRA.DIHEDRAL>
-1.90675

>  <SCORE.INTRA.DIHEDRAL.0>
6.97628

>  <SCORE.INTRA.POLAR>
0

>  <SCORE.INTRA.POLAR.0>
0

>  <SCORE.INTRA.REPUL>
0

>  <SCORE.INTRA.REPUL.0>
0

>  <SCORE.INTRA.SOLV>
-0.654111

>  <SCORE.INTRA.SOLV.lig_0>
-49.8243

>  <SCORE.INTRA.VDW>
-1.53466

>  <SCORE.INTRA.VDW.0>
-1.35881

>  <SCORE.INTRA.norm>
-0.108273

>  <SCORE.RESTR>
0

>  <SCORE.RESTR.CAVITY>
0

>  <SCORE.RESTR.norm>
0

>  <SCORE.SYSTEM>
0

>  <SCORE.SYSTEM.CONST>
0

>  <SCORE.SYSTEM.DIHEDRAL>
0

>  <SCORE.SYSTEM.SOLV>
0

>  <SCORE.SYSTEM.norm>
0

>  <SCORE.heavy>
26

>  <SCORE.norm>
-1.17571

>  <RMSD>
0.945

$$$$
ligand
 OpenBabel11021811483D
libRbt.so/2013.1/901 2013/11/27
 26 28  0  0  0  0  0  0  0  0999 V2000
   33.0083   17.7432    7.8951 N   0  0  0  0  0  0  0  0  0  0  0  0
   33.8504   17.0233    8.8422 C   0  0  2  0  0  0  0  0  0  0  0  0
   34.5078   17.9807    9.8297 C   0  0  0  0  0  0  0  0  0  0  0  0
   34.9613   19.0621    9.4572 O   0  0  0  0  0  0  0  0  0  0  0  0
   34.9151   16.2198    8.1061 C   0  0  0  0  0  0  0  0  0  0  0  0
   35.7289   15.2961    9.0029 C   0  0  0  0  0  0  0  0  0  0  0  0
   37.1122   14.5212    8.1286 S   0  0  0  0  0  0  0  0  0  0  0  0
   38.1863   15.9008    8.5989 C   0  0  0  0  0  0  0  0  0  0  0  0
   39.4187   16.0168    7.7094 C   0  0  1  0  0  0  0  0  0  0  0  0
   40.0984   14.7755    7.6611 O   0  0  0  0  0  0  0  0  0  0  0  0
   39.0462   16.3981    6.2860 C   0  0  1  0  0  0  0  0  0  0  0  0
   39.5968   17.6534    5.9647 O   0  0  0  0  0  0  0  0  0  0  0  0
   39.6462   15.3260    5.4002 C   0  0  1  0  0  0  0  0  0  0  0  0
   40.5318   15.9058    4.4708 O   0  0  0  0  0  0  0  0  0  0  0  0
   40.4021   14.3947    6.3322 C   0  0  2  0  0  0  0  0  0  0  0  0
   34.6002   17.6950   11.0242 O   0  0  0  0  0  0  0  0  0  0  0  0
   41.3457    9.9479    3.7048 N   0  0  0  0  0  0  0  0  0  0  0  0
   42.0305   11.1440    3.6269 C   0  0  0  0  0  0  0  0  0  0  0  0
   41.6398   12.2202    4.3988 N   0  0  0  0  0  0  0  0  0  0  0  0
   40.5806   12.1117    5.2375 C   0  0  0  0  0  0  0  0  0  0  0  0
   39.8789   10.9174    5.3295 C   0  0  0  0  0  0  0  0  0  0  0  0
   40.2662    9.8293    4.5567 C   0  0  0  0  0  0  0  0  0  0  0  0
   39.6009    8.6807    4.6359 N   0  0  0  0  0  0  0  0  0  0  0  0
   38.8857   11.0869    6.2289 N   0  0  0  0  0  0  0  0  0  0  0  0
   38.9412   12.3519    6.7054 C   0  0  0  0  0  0  0  0  0  0  0  0
   39.9872   12.9995    6.1000 N   0  0  0  0  0  0  0  0  0  0  0  0
  2  1  1  6  0  0  0
  2  3  1  0  0  0  0
  2  5  1  0  0  0  0
  3  4  1  0  0  0  0
  3 16  1  0  0  0  0
  5  6  1  0  0  0  0
  6  7  1  0  0  0  0
  7  8  1  0  0  0  0
  9  8  1  1  0  0  0
  9 10  1  0  0  0  0
  9 11  1  0  0  0  0
 10 15  1  0  0  0  0
 11 12  1  6  0  0  0
 11 13  1  0  0  0  0
 13 14  1  6  0  0  0
 13 15  1  0  0  0  0
 15 26  1  1  0  0  0
 17 18  2  0  0  0  0
 17 22  1  0  0  0  0
 18 19  1  0  0  0  0
 19 20  2  0  0  0  0
 20 21  1  0  0  0  0
 20 26  1  0  0  0  0
 21 22  2  0  0  0  0
 21 24  1  0  0  0  0
 22 23  1  0  0  0  0
 24 25  2  0  0  0  0
 25 26  1  0  0  0  0
M  END
>  <CHROM.1>
-41.06154192,-172.58917887,-172.77866237,90.44399370,-159.88819015,-52.84035495
-149.65472448,38.30785789,14.47617251,6.85786376,2.34078230,0.53517650,0.15712413

>  <Name>
ligand

>  <RI>
0

>  <Rbt.Current_Directory>
/home/itssahil/PROJECTS/Mol_Feturizer/New_Systems/rnas/3NPQ

>  <Rbt.Executable>
rbdock ($Id: //depot/dev/client3/rdock/2013.1/src/exe/rbdock.cxx#4 $)

>  <Rbt.Library>
libRbt.so (2013.1, Build901 2013/11/27)

>  <Rbt.Parameter_File>
/export/apps/rDock/src/rDock_2013.1_src/data/scripts/dock_solv.prm

>  <Rbt.Receptor>
prm/pocket_docking_3.prm

>  <SCORE>
-32.0863

>  <SCORE.INTER>
-29.2668

>  <SCORE.INTER.CONST>
1

>  <SCORE.INTER.POLAR>
0

>  <SCORE.INTER.ROT>
7

>  <SCORE.INTER.SOLV>
27.649

>  <SCORE.INTER.VDW>
-36.9942

>  <SCORE.INTER.norm>
-1.12564

>  <SCORE.INTRA>
-2.81957

>  <SCORE.INTRA.DIHEDRAL>
-1.88658

>  <SCORE.INTRA.DIHEDRAL.0>
6.97628

>  <SCORE.INTRA.POLAR>
0

>  <SCORE.INTRA.POLAR.0>
0

>  <SCORE.INTRA.REPUL>
0

>  <SCORE.INTRA.REPUL.0>
0

>  <SCORE.INTRA.SOLV>
-0.658718

>  <SCORE.INTRA.SOLV.lig_0>
-49.8243

>  <SCORE.INTRA.VDW>
-1.54692

>  <SCORE.INTRA.VDW.0>
-1.35881

>  <SCORE.INTRA.norm>
-0.108445

>  <SCORE.RESTR>
0

>  <SCORE.RESTR.CAVITY>
0

>  <SCORE.RESTR.norm>
0

>  <SCORE.SYSTEM>
0

>  <SCORE.SYSTEM.CONST>
0

>  <SCORE.SYSTEM.DIHEDRAL>
0

>  <SCORE.SYSTEM.SOLV>
0

>  <SCORE.SYSTEM.norm>
0

>  <SCORE.heavy>
26

>  <SCORE.norm>
-1.23409

>  <RMSD>
0.960

$$$$
ligand
 OpenBabel11021811483D
libRbt.so/2013.1/901 2013/11/27
 26 28  0  0  0  0  0  0  0  0999 V2000
   33.3456   17.1808    7.8214 N   0  0  0  0  0  0  0  0  0  0  0  0
   34.4134   17.0122    8.7991 C   0  0  2  0  0  0  0  0  0  0  0  0
   34.2122   17.9348    9.9958 C   0  0  0  0  0  0  0  0  0  0  0  0
   33.5767   18.9829    9.8878 O   0  0  0  0  0  0  0  0  0  0  0  0
   35.7703   17.2760    8.1584 C   0  0  0  0  0  0  0  0  0  0  0  0
   36.2170   16.1976    7.1800 C   0  0  0  0  0  0  0  0  0  0  0  0
   36.9831   14.7821    8.0094 S   0  0  0  0  0  0  0  0  0  0  0  0
   38.2826   15.8624    8.6595 C   0  0  0  0  0  0  0  0  0  0  0  0
   39.4811   15.9700    7.7239 C   0  0  1  0  0  0  0  0  0  0  0  0
   40.1336   14.7169    7.6284 O   0  0  0  0  0  0  0  0  0  0  0  0
   39.0606   16.3827    6.3228 C   0  0  1  0  0  0  0  0  0  0  0  0
   39.6230   17.6326    6.0005 O   0  0  0  0  0  0  0  0  0  0  0  0
   39.6040   15.3146    5.3964 C   0  0  1  0  0  0  0  0  0  0  0  0
   40.4637   15.8933    4.4423 O   0  0  0  0  0  0  0  0  0  0  0  0
   40.3773   14.3532    6.2824 C   0  0  2  0  0  0  0  0  0  0  0  0
   34.6803   17.6531   11.0996 O   0  0  0  0  0  0  0  0  0  0  0  0
   41.3001    9.8424    3.7589 N   0  0  0  0  0  0  0  0  0  0  0  0
   42.0301   11.0127    3.7043 C   0  0  0  0  0  0  0  0  0  0  0  0
   41.6376   12.1118    4.4422 N   0  0  0  0  0  0  0  0  0  0  0  0
   40.5323   12.0513    5.2244 C   0  0  0  0  0  0  0  0  0  0  0  0
   39.7848   10.8835    5.2921 C   0  0  0  0  0  0  0  0  0  0  0  0
   40.1736    9.7725    4.5533 C   0  0  0  0  0  0  0  0  0  0  0  0
   39.4647    8.6489    4.6097 N   0  0  0  0  0  0  0  0  0  0  0  0
   38.7521   11.0992    6.1353 N   0  0  0  0  0  0  0  0  0  0  0  0
   38.8271   12.3676    6.5999 C   0  0  0  0  0  0  0  0  0  0  0  0
   39.9260   12.9704    6.0440 N   0  0  0  0  0  0  0  0  0  0  0  0
  2  1  1  6  0  0  0
  2  3  1  0  0  0  0
  2  5  1  0  0  0  0
  3  4  1  0  0  0  0
  3 16  1  0  0  0  0
  5  6  1  0  0  0  0
  6  7  1  0  0  0  0
  7  8  1  0  0  0  0
  9  8  1  1  0  0  0
  9 10  1  0  0  0  0
  9 11  1  0  0  0  0
 10 15  1  0  0  0  0
 11 12  1  6  0  0  0
 11 13  1  0  0  0  0
 13 14  1  6  0  0  0
 13 15  1  0  0  0  0
 15 26  1  1  0  0  0
 17 18  2  0  0  0  0
 17 22  1  0  0  0  0
 18 19  1  0  0  0  0
 19 20  2  0  0  0  0
 20 21  1  0  0  0  0
 20 26  1  0  0  0  0
 21 22  2  0  0  0  0
 21 24  1  0  0  0  0
 22 23  1  0  0  0  0
 24 25  2  0  0  0  0
 25 26  1  0  0  0  0
M  END
>  <CHROM.1>
-25.65770299,-71.07106682,-82.64622026,-61.31888117,-89.73240834,-65.96376470
-144.02321607,38.29241188,14.51594764,6.79969966,2.31546821,0.51520175,0.17740542

>  <Name>
ligand

>  <RI>
0

>  <Rbt.Current_Directory>
/home/itssahil/PROJECTS/Mol_Feturizer/New_Systems/rnas/3NPQ

>  <Rbt.Executable>
rbdock ($Id: //depot/dev/client3/rdock/2013.1/src/exe/rbdock.cxx#4 $)

>  <Rbt.Library>
libRbt.so (2013.1, Build901 2013/11/27)

>  <Rbt.Parameter_File>
/export/apps/rDock/src/rDock_2013.1_src/data/scripts/dock_solv.prm

>  <Rbt.Receptor>
prm/pocket_docking_3.prm

>  <SCORE>
-26.3742

>  <SCORE.INTER>
-26.3025

>  <SCORE.INTER.CONST>
1

>  <SCORE.INTER.POLAR>
0

>  <SCORE.INTER.ROT>
7

>  <SCORE.INTER.SOLV>
25.4968

>  <SCORE.INTER.VDW>
-34.3006

>  <SCORE.INTER.norm>
-1.01164

>  <SCORE.INTRA>
-0.0717066

>  <SCORE.INTRA.DIHEDRAL>
-0.777767

>  <SCORE.INTRA.DIHEDRAL.0>
6.97628

>  <SCORE.INTRA.POLAR>
0

>  <SCORE.INTRA.POLAR.0>
0

>  <SCORE.INTRA.REPUL>
0

>  <SCORE.INTRA.REPUL.0>
0

>  <SCORE.INTRA.SOLV>
0.367992

>  <SCORE.INTRA.SOLV.lig_0>
-49.8243

>  <SCORE.INTRA.VDW>
0.133181

>  <SCORE.INTRA.VDW.0>
-1.35881

>  <SCORE.INTRA.norm>
-0.00275795

>  <SCORE.RESTR>
0

>  <SCORE.RESTR.CAVITY>
0

>  <SCORE.RESTR.norm>
0

>  <SCORE.SYSTEM>
0

>  <SCORE.SYSTEM.CONST>
0

>  <SCORE.SYSTEM.DIHEDRAL>
0

>  <SCORE.SYSTEM.SOLV>
0

>  <SCORE.SYSTEM.norm>
0

>  <SCORE.heavy>
26

>  <SCORE.norm>
-1.01439

>  <RMSD>
0.976

$$$$
ligand
 OpenBabel11021811483D
libRbt.so/2013.1/901 2013/11/27
 26 28  0  0  0  0  0  0  0  0999 V2000
   32.4745   18.0480    7.9583 N   0  0  0  0  0  0  0  0  0  0  0  0
   33.7225   17.9904    8.7092 C   0  0  2  0  0  0  0  0  0  0  0  0
   34.6146   19.1828    8.3829 C   0  0  0  0  0  0  0  0  0  0  0  0
   35.5442   19.4998    9.1239 O   0  0  0  0  0  0  0  0  0  0  0  0
   34.4612   16.6901    8.4180 C   0  0  0  0  0  0  0  0  0  0  0  0
   35.7863   16.5484    9.1552 C   0  0  0  0  0  0  0  0  0  0  0  0
   36.5033   14.8948    8.9827 S   0  0  0  0  0  0  0  0  0  0  0  0
   37.1554   15.3440    7.3544 C   0  0  0  0  0  0  0  0  0  0  0  0
   38.6780   15.3014    7.2981 C   0  0  1  0  0  0  0  0  0  0  0  0
   39.1360   13.9939    7.5906 O   0  0  0  0  0  0  0  0  0  0  0  0
   39.1967   15.6778    5.9199 C   0  0  1  0  0  0  0  0  0  0  0  0
   39.9615   16.8572    5.9995 O   0  0  0  0  0  0  0  0  0  0  0  0
   40.0694   14.5221    5.4766 C   0  0  1  0  0  0  0  0  0  0  0  0
   41.3762   14.9764    5.2115 O   0  0  0  0  0  0  0  0  0  0  0  0
   40.0814   13.5436    6.6384 C   0  0  2  0  0  0  0  0  0  0  0  0
   34.4265   19.8570    7.3695 O   0  0  0  0  0  0  0  0  0  0  0  0
   41.3334    9.5565    3.4599 N   0  0  0  0  0  0  0  0  0  0  0  0
   41.9927   10.7591    3.6166 C   0  0  0  0  0  0  0  0  0  0  0  0
   41.5174   11.7015    4.5070 N   0  0  0  0  0  0  0  0  0  0  0  0
   40.3997   11.4544    5.2326 C   0  0  0  0  0  0  0  0  0  0  0  0
   39.7224   10.2512    5.0886 C   0  0  0  0  0  0  0  0  0  0  0  0
   40.1947    9.2971    4.1954 C   0  0  0  0  0  0  0  0  0  0  0  0
   39.5536    8.1414    4.0485 N   0  0  0  0  0  0  0  0  0  0  0  0
   38.6589   10.2705    5.9209 N   0  0  0  0  0  0  0  0  0  0  0  0
   38.6465   11.4496    6.5840 C   0  0  0  0  0  0  0  0  0  0  0  0
   39.7199   12.1943    6.1678 N   0  0  0  0  0  0  0  0  0  0  0  0
  2  1  1  6  0  0  0
  2  3  1  0  0  0  0
  2  5  1  0  0  0  0
  3  4  1  0  0  0  0
  3 16  1  0  0  0  0
  5  6  1  0  0  0  0
  6  7  1  0  0  0  0
  7  8  1  0  0  0  0
  9  8  1  6  0  0  0
  9 10  1  0  0  0  0
  9 11  1  0  0  0  0
 10 15  1  0  0  0  0
 11 12  1  1  0  0  0
 11 13  1  0  0  0  0
 13 14  1  1  0  0  0
 13 15  1  0  0  0  0
 15 26  1  6  0  0  0
 17 18  2  0  0  0  0
 17 22  1  0  0  0  0
 18 19  1  0  0  0  0
 19 20  2  0  0  0  0
 20 21  1  0  0  0  0
 20 26  1  0  0  0  0
 21 22  2  0  0  0  0
 21 24  1  0  0  0  0
 22 23  1  0  0  0  0
 24 25  2  0  0  0  0
 25 26  1  0  0  0  0
M  END
>  <CHROM.1>
162.23529095,179.58373871,171.18625279,80.92025712,117.35653087,60.26272781
179.15653796,38.14366852,14.31660956,6.63984662,2.24468222,0.43989061,0.13782612

>  <Name>
ligand

>  <RI>
0

>  <Rbt.Current_Directory>
/home/itssahil/PROJECTS/Mol_Feturizer/New_Systems/rnas/3NPQ

>  <Rbt.Executable>
rbdock ($Id: //depot/dev/client3/rdock/2013.1/src/exe/rbdock.cxx#4 $)

>  <Rbt.Library>
libRbt.so (2013.1, Build901 2013/11/27)

>  <Rbt.Parameter_File>
/export/apps/rDock/src/rDock_2013.1_src/data/scripts/dock_solv.prm

>  <Rbt.Receptor>
prm/pocket_docking_2.prm

>  <SCORE>
-30.9471

>  <SCORE.INTER>
-29.7999

>  <SCORE.INTER.CONST>
1

>  <SCORE.INTER.POLAR>
0

>  <SCORE.INTER.ROT>
7

>  <SCORE.INTER.SOLV>
29.8569

>  <SCORE.INTER.VDW>
-38.0856

>  <SCORE.INTER.norm>
-1.14615

>  <SCORE.INTRA>
-1.15244

>  <SCORE.INTRA.DIHEDRAL>
-0.980213

>  <SCORE.INTRA.DIHEDRAL.0>
6.97628

>  <SCORE.INTRA.POLAR>
0

>  <SCORE.INTRA.POLAR.0>
0

>  <SCORE.INTRA.REPUL>
0

>  <SCORE.INTRA.REPUL.0>
0

>  <SCORE.INTRA.SOLV>
-0.850366

>  <SCORE.INTRA.SOLV.lig_0>
-49.8243

>  <SCORE.INTRA.VDW>
-0.237152

>  <SCORE.INTRA.VDW.0>
-1.35881

>  <SCORE.INTRA.norm>
-0.0443247

>  <SCORE.RESTR>
0.00520109

>  <SCORE.RESTR.CAVITY>
0.00520109

>  <SCORE.RESTR.norm>
0.000200042

>  <SCORE.SYSTEM>
0

>  <SCORE.SYSTEM.CONST>
0

>  <SCORE.SYSTEM.DIHEDRAL>
0

>  <SCORE.SYSTEM.SOLV>
0

>  <SCORE.SYSTEM.norm>
0

>  <SCORE.heavy>
26

>  <SCORE.norm>
-1.19027

>  <RMSD>
1.010

$$$$
ligand
 OpenBabel11021811483D
libRbt.so/2013.1/901 2013/11/27
 26 28  0  0  0  0  0  0  0  0999 V2000
   33.9767   18.6636    9.3169 N   0  0  0  0  0  0  0  0  0  0  0  0
   35.1019   17.7405    9.2382 C   0  0  2  0  0  0  0  0  0  0  0  0
   36.0818   18.1616    8.1490 C   0  0  0  0  0  0  0  0  0  0  0  0
   37.0711   18.8428    8.4160 O   0  0  0  0  0  0  0  0  0  0  0  0
   34.6111   16.3216    8.9792 C   0  0  0  0  0  0  0  0  0  0  0  0
   35.6083   15.2375    9.3666 C   0  0  0  0  0  0  0  0  0  0  0  0
   36.7513   14.8331    8.0219 S   0  0  0  0  0  0  0  0  0  0  0  0
   37.9937   15.9357    8.7421 C   0  0  0  0  0  0  0  0  0  0  0  0
   39.2200   16.1015    7.8521 C   0  0  1  0  0  0  0  0  0  0  0  0
   39.9259   14.8768    7.7689 O   0  0  0  0  0  0  0  0  0  0  0  0
   38.8342   16.5120    6.4404 C   0  0  1  0  0  0  0  0  0  0  0  0
   39.3567   17.7869    6.1506 O   0  0  0  0  0  0  0  0  0  0  0  0
   39.4537   15.4767    5.5247 C   0  0  1  0  0  0  0  0  0  0  0  0
   40.3232   16.0997    4.6081 O   0  0  0  0  0  0  0  0  0  0  0  0
   40.2328   14.5377    6.4295 C   0  0  2  0  0  0  0  0  0  0  0  0
   35.9071   17.8298    6.9759 O   0  0  0  0  0  0  0  0  0  0  0  0
   41.4045   10.1084    3.8652 N   0  0  0  0  0  0  0  0  0  0  0  0
   42.0843   11.3096    3.8432 C   0  0  0  0  0  0  0  0  0  0  0  0
   41.6286   12.3799    4.5873 N   0  0  0  0  0  0  0  0  0  0  0  0
   40.5101   12.2605    5.3434 C   0  0  0  0  0  0  0  0  0  0  0  0
   39.8124   11.0608    5.3781 C   0  0  0  0  0  0  0  0  0  0  0  0
   40.2649    9.9786    4.6329 C   0  0  0  0  0  0  0  0  0  0  0  0
   39.6041    8.8250    4.6578 N   0  0  0  0  0  0  0  0  0  0  0  0
   38.7531   11.2196    6.2008 N   0  0  0  0  0  0  0  0  0  0  0  0
   38.7632   12.4830    6.6845 C   0  0  0  0  0  0  0  0  0  0  0  0
   39.8469   13.1405    6.1618 N   0  0  0  0  0  0  0  0  0  0  0  0
  2  1  1  6  0  0  0
  2  3  1  0  0  0  0
  2  5  1  0  0  0  0
  3  4  1  0  0  0  0
  3 16  1  0  0  0  0
  5  6  1  0  0  0  0
  6  7  1  0  0  0  0
  7  8  1  0  0  0  0
  9  8  1  1  0  0  0
  9 10  1  0  0  0  0
  9 11  1  0  0  0  0
 10 15  1  0  0  0  0
 11 12  1  6  0  0  0
 11 13  1  0  0  0  0
 13 14  1  6  0  0  0
 13 15  1  0  0  0  0
 15 26  1  6  0  0  0
 17 18  2  0  0  0  0
 17 22  1  0  0  0  0
 18 19  1  0  0  0  0
 19 20  2  0  0  0  0
 20 21  1  0  0  0  0
 20 26  1  0  0  0  0
 21 22  2  0  0  0  0
 21 24  1  0  0  0  0
 22 23  1  0  0  0  0
 24 25  2  0  0  0  0
 25 26  1  0  0  0  0
M  END
>  <CHROM.1>
95.24477505,-159.23952200,-88.24835944,97.23431443,-173.50647016,-66.93085888
-144.88806038,38.45956077,14.65367160,6.76148699,2.26735812,0.58594001,0.09124448

>  <Name>
ligand

>  <RI>
0

>  <Rbt.Current_Directory>
/home/itssahil/PROJECTS/Mol_Feturizer/New_Systems/rnas/3NPQ

>  <Rbt.Executable>
rbdock ($Id: //depot/dev/client3/rdock/2013.1/src/exe/rbdock.cxx#4 $)

>  <Rbt.Library>
libRbt.so (2013.1, Build901 2013/11/27)

>  <Rbt.Parameter_File>
/export/apps/rDock/src/rDock_2013.1_src/data/scripts/dock_solv.prm

>  <Rbt.Receptor>
prm/pocket_docking_3.prm

>  <SCORE>
-26.7674

>  <SCORE.INTER>
-25.07

>  <SCORE.INTER.CONST>
1

>  <SCORE.INTER.POLAR>
0

>  <SCORE.INTER.ROT>
7

>  <SCORE.INTER.SOLV>
24.824

>  <SCORE.INTER.VDW>
-33.2547

>  <SCORE.INTER.norm>
-0.964231

>  <SCORE.INTRA>
-1.69736

>  <SCORE.INTRA.DIHEDRAL>
1.61773

>  <SCORE.INTRA.DIHEDRAL.0>
6.97628

>  <SCORE.INTRA.POLAR>
0

>  <SCORE.INTRA.POLAR.0>
0

>  <SCORE.INTRA.REPUL>
0

>  <SCORE.INTRA.REPUL.0>
0

>  <SCORE.INTRA.SOLV>
-0.365016

>  <SCORE.INTRA.SOLV.lig_0>
-49.8243

>  <SCORE.INTRA.VDW>
-2.32372

>  <SCORE.INTRA.VDW.0>
-1.35881

>  <SCORE.INTRA.norm>
-0.0652831

>  <SCORE.RESTR>
0

>  <SCORE.RESTR.CAVITY>
0

>  <SCORE.RESTR.norm>
0

>  <SCORE.SYSTEM>
0

>  <SCORE.SYSTEM.CONST>
0

>  <SCORE.SYSTEM.DIHEDRAL>
0

>  <SCORE.SYSTEM.SOLV>
0

>  <SCORE.SYSTEM.norm>
0

>  <SCORE.heavy>
26

>  <SCORE.norm>
-1.02951

>  <RMSD>
1.017

$$$$
ligand
 OpenBabel11021811483D
libRbt.so/2013.1/901 2013/11/27
 26 28  0  0  0  0  0  0  0  0999 V2000
   34.4171   17.6623   10.9483 N   0  0  0  0  0  0  0  0  0  0  0  0
   35.2573   17.3919    9.7883 C   0  0  2  0  0  0  0  0  0  0  0  0
   35.5093   18.6629    8.9853 C   0  0  0  0  0  0  0  0  0  0  0  0
   34.6109   19.4824    8.7980 O   0  0  0  0  0  0  0  0  0  0  0  0
   34.6170   16.3317    8.9011 C   0  0  0  0  0  0  0  0  0  0  0  0
   35.5330   15.8000    7.8065 C   0  0  0  0  0  0  0  0  0  0  0  0
   36.7775   14.6483    8.4415 S   0  0  0  0  0  0  0  0  0  0  0  0
   37.8392   16.0421    8.8977 C   0  0  0  0  0  0  0  0  0  0  0  0
   38.9780   16.2626    7.9089 C   0  0  1  0  0  0  0  0  0  0  0  0
   39.7547   15.0841    7.7956 O   0  0  0  0  0  0  0  0  0  0  0  0
   38.4561   16.6097    6.5242 C   0  0  1  0  0  0  0  0  0  0  0  0
   38.8686   17.9074    6.1661 O   0  0  0  0  0  0  0  0  0  0  0  0
   39.0688   15.5924    5.5842 C   0  0  1  0  0  0  0  0  0  0  0  0
   39.8205   16.2453    4.5877 O   0  0  0  0  0  0  0  0  0  0  0  0
   39.9771   14.7298    6.4435 C   0  0  2  0  0  0  0  0  0  0  0  0
   36.6184   18.9003    8.5051 O   0  0  0  0  0  0  0  0  0  0  0  0
   41.2576   10.3092    3.9164 N   0  0  0  0  0  0  0  0  0  0  0  0
   41.8559   11.5493    3.8182 C   0  0  0  0  0  0  0  0  0  0  0  0
   41.3830   12.6104    4.5647 N   0  0  0  0  0  0  0  0  0  0  0  0
   40.3272   12.4436    5.3981 C   0  0  0  0  0  0  0  0  0  0  0  0
   39.7118   11.2043    5.5102 C   0  0  0  0  0  0  0  0  0  0  0  0
   40.1822   10.1311    4.7631 C   0  0  0  0  0  0  0  0  0  0  0  0
   39.5999    8.9397    4.8617 N   0  0  0  0  0  0  0  0  0  0  0  0
   38.7015   11.3207    6.3990 N   0  0  0  0  0  0  0  0  0  0  0  0
   38.6626   12.5958    6.8492 C   0  0  0  0  0  0  0  0  0  0  0  0
   39.6647   13.3041    6.2377 N   0  0  0  0  0  0  0  0  0  0  0  0
  2  1  1  1  0  0  0
  2  3  1  0  0  0  0
  2  5  1  0  0  0  0
  3  4  1  0  0  0  0
  3 16  1  0  0  0  0
  5  6  1  0  0  0  0
  6  7  1  0  0  0  0
  7  8  1  0  0  0  0
  9  8  1  1  0  0  0
  9 10  1  0  0  0  0
  9 11  1  0  0  0  0
 10 15  1  0  0  0  0
 11 12  1  6  0  0  0
 11 13  1  0  0  0  0
 13 14  1  6  0  0  0
 13 15  1  0  0  0  0
 15 26  1  1  0  0  0
 17 18  2  0  0  0  0
 17 22  1  0  0  0  0
 18 19  1  0  0  0  0
 19 20  2  0  0  0  0
 20 21  1  0  0  0  0
 20 26  1  0  0  0  0
 21 22  2  0  0  0  0
 21 24  1  0  0  0  0
 22 23  1  0  0  0  0
 24 25  2  0  0  0  0
 25 26  1  0  0  0  0
M  END
>  <CHROM.1>
-40.46304433,-169.36526526,75.77405780,-83.91949926,-102.09719728,-57.10116339
-144.16365556,38.24335227,14.79944159,6.97198899,2.32152322,0.68487054,0.03248686

>  <Name>
ligand

>  <RI>
0

>  <Rbt.Current_Directory>
/home/itssahil/PROJECTS/Mol_Feturizer/New_Systems/rnas/3NPQ

>  <Rbt.Executable>
rbdock ($Id: //depot/dev/client3/rdock/2013.1/src/exe/rbdock.cxx#4 $)

>  <Rbt.Library>
libRbt.so (2013.1, Build901 2013/11/27)

>  <Rbt.Parameter_File>
/export/apps/rDock/src/rDock_2013.1_src/data/scripts/dock_solv.prm

>  <Rbt.Receptor>
prm/pocket_docking_3.prm

>  <SCORE>
-28.4427

>  <SCORE.INTER>
-26.3836

>  <SCORE.INTER.CONST>
1

>  <SCORE.INTER.POLAR>
0

>  <SCORE.INTER.ROT>
7

>  <SCORE.INTER.SOLV>
27.7573

>  <SCORE.INTER.VDW>
-35.1082

>  <SCORE.INTER.norm>
-1.01475

>  <SCORE.INTRA>
-2.05908

>  <SCORE.INTRA.DIHEDRAL>
-0.226293

>  <SCORE.INTRA.DIHEDRAL.0>
6.97628

>  <SCORE.INTRA.POLAR>
0

>  <SCORE.INTRA.POLAR.0>
0

>  <SCORE.INTRA.REPUL>
0

>  <SCORE.INTRA.REPUL.0>
0

>  <SCORE.INTRA.SOLV>
-0.0705313

>  <SCORE.INTRA.SOLV.lig_0>
-49.8243

>  <SCORE.INTRA.VDW>
-1.91067

>  <SCORE.INTRA.VDW.0>
-1.35881

>  <SCORE.INTRA.norm>
-0.0791955

>  <SCORE.RESTR>
0

>  <SCORE.RESTR.CAVITY>
0

>  <SCORE.RESTR.norm>
0

>  <SCORE.SYSTEM>
0

>  <SCORE.SYSTEM.CONST>
0

>  <SCORE.SYSTEM.DIHEDRAL>
0

>  <SCORE.SYSTEM.SOLV>
0

>  <SCORE.SYSTEM.norm>
0

>  <SCORE.heavy>
26

>  <SCORE.norm>
-1.09395

>  <RMSD>
1.029

$$$$
ligand
 OpenBabel11021811483D
libRbt.so/2013.1/901 2013/11/27
 26 28  0  0  0  0  0  0  0  0999 V2000
   33.7595   16.6480    7.6712 N   0  0  0  0  0  0  0  0  0  0  0  0
   33.7736   17.7101    8.6693 C   0  0  2  0  0  0  0  0  0  0  0  0
   34.3089   19.0100    8.0796 C   0  0  0  0  0  0  0  0  0  0  0  0
   35.0610   19.0013    7.1059 O   0  0  0  0  0  0  0  0  0  0  0  0
   34.6106   17.2993    9.8742 C   0  0  0  0  0  0  0  0  0  0  0  0
   35.7335   16.3232    9.5484 C   0  0  0  0  0  0  0  0  0  0  0  0
   36.9658   17.0319    8.4270 S   0  0  0  0  0  0  0  0  0  0  0  0
   37.7519   15.4094    8.2604 C   0  0  0  0  0  0  0  0  0  0  0  0
   39.1218   15.4846    7.5963 C   0  0  1  0  0  0  0  0  0  0  0  0
   39.7436   14.2128    7.6256 O   0  0  0  0  0  0  0  0  0  0  0  0
   39.0150   15.9161    6.1428 C   0  0  1  0  0  0  0  0  0  0  0  0
   39.6679   17.1497    5.9581 O   0  0  0  0  0  0  0  0  0  0  0  0
   39.7087   14.8361    5.3387 C   0  0  1  0  0  0  0  0  0  0  0  0
   40.7649   15.3926    4.5910 O   0  0  0  0  0  0  0  0  0  0  0  0
   40.2522   13.8477    6.3562 C   0  0  2  0  0  0  0  0  0  0  0  0
   34.0012   20.1000    8.5634 O   0  0  0  0  0  0  0  0  0  0  0  0
   41.2785    9.5278    3.5541 N   0  0  0  0  0  0  0  0  0  0  0  0
   41.9970   10.7057    3.5957 C   0  0  0  0  0  0  0  0  0  0  0  0
   41.5766   11.7484    4.3974 N   0  0  0  0  0  0  0  0  0  0  0  0
   40.4550   11.6247    5.1482 C   0  0  0  0  0  0  0  0  0  0  0  0
   39.7186   10.4483    5.1195 C   0  0  0  0  0  0  0  0  0  0  0  0
   40.1354    9.3938    4.3160 C   0  0  0  0  0  0  0  0  0  0  0  0
   39.4374    8.2626    4.2798 N   0  0  0  0  0  0  0  0  0  0  0  0
   38.6652   10.5967    5.9516 N   0  0  0  0  0  0  0  0  0  0  0  0
   38.7165   11.8311    6.5028 C   0  0  0  0  0  0  0  0  0  0  0  0
   39.8209   12.4804    6.0142 N   0  0  0  0  0  0  0  0  0  0  0  0
  2  1  1  6  0  0  0
  2  3  1  0  0  0  0
  2  5  1  0  0  0  0
  3  4  1  0  0  0  0
  3 16  1  0  0  0  0
  5  6  1  0  0  0  0
  6  7  1  0  0  0  0
  7  8  1  0  0  0  0
  9  8  1  6  0  0  0
  9 10  1  0  0  0  0
  9 11  1  0  0  0  0
 10 15  1  0  0  0  0
 11 12  1  1  0  0  0
 11 13  1  0  0  0  0
 13 14  1  1  0  0  0
 13 15  1  0  0  0  0
 15 26  1  6  0  0  0
 17 18  2  0  0  0  0
 17 22  1  0  0  0  0
 18 19  1  0  0  0  0
 19 20  2  0  0  0  0
 20 21  1  0  0  0  0
 20 26  1  0  0  0  0
 21 22  2  0  0  0  0
 21 24  1  0  0  0  0
 22 23  1  0  0  0  0
 24 25  2  0  0  0  0
 25 26  1  0  0  0  0
M  END
>  <CHROM.1>
-24.74973027,28.73574403,63.34904374,-171.48668947,-167.37623525,173.71421651
-155.54099098,38.20206590,14.56654336,6.61753858,2.23504066,0.46865109,0.13357048

>  <Name>
ligand

>  <RI>
0

>  <Rbt.Current_Directory>
/home/itssahil/PROJECTS/Mol_Feturizer/New_Systems/rnas/3NPQ

>  <Rbt.Executable>
rbdock ($Id: //depot/dev/client3/rdock/2013.1/src/exe/rbdock.cxx#4 $)

>  <Rbt.Library>
libRbt.so (2013.1, Build901 2013/11/27)

>  <Rbt.Parameter_File>
/export/apps/rDock/src/rDock_2013.1_src/data/scripts/dock_solv.prm

>  <Rbt.Receptor>
prm/pocket_docking_2.prm

>  <SCORE>
-27.3715

>  <SCORE.INTER>
-27.1699

>  <SCORE.INTER.CONST>
1

>  <SCORE.INTER.POLAR>
0

>  <SCORE.INTER.ROT>
7

>  <SCORE.INTER.SOLV>
25.4522

>  <SCORE.INTER.VDW>
-34.864

>  <SCORE.INTER.norm>
-1.045

>  <SCORE.INTRA>
-0.296362

>  <SCORE.INTRA.DIHEDRAL>
-0.618039

>  <SCORE.INTRA.DIHEDRAL.0>
6.97628

>  <SCORE.INTRA.POLAR>
0

>  <SCORE.INTRA.POLAR.0>
0

>  <SCORE.INTRA.REPUL>
0

>  <SCORE.INTRA.REPUL.0>
0

>  <SCORE.INTRA.SOLV>
1.48421

>  <SCORE.INTRA.SOLV.lig_0>
-49.8243

>  <SCORE.INTRA.VDW>
-0.729446

>  <SCORE.INTRA.VDW.0>
-1.35881

>  <SCORE.INTRA.norm>
-0.0113985

>  <SCORE.RESTR>
0.0947378

>  <SCORE.RESTR.CAVITY>
0.0947378

>  <SCORE.RESTR.norm>
0.00364376

>  <SCORE.SYSTEM>
0

>  <SCORE.SYSTEM.CONST>
0

>  <SCORE.SYSTEM.DIHEDRAL>
0

>  <SCORE.SYSTEM.SOLV>
0

>  <SCORE.SYSTEM.norm>
0

>  <SCORE.heavy>
26

>  <SCORE.norm>
-1.05275

>  <RMSD>
1.050

$$$$
ligand
 OpenBabel11021811483D
libRbt.so/2013.1/901 2013/11/27
 26 28  0  0  0  0  0  0  0  0999 V2000
   32.8652   17.9381    8.7471 N   0  0  0  0  0  0  0  0  0  0  0  0
   34.0070   18.2350    9.6032 C   0  0  2  0  0  0  0  0  0  0  0  0
   34.8777   19.3294    8.9964 C   0  0  0  0  0  0  0  0  0  0  0  0
   36.0785   19.3999    9.2554 O   0  0  0  0  0  0  0  0  0  0  0  0
   34.8364   16.9794    9.8412 C   0  0  0  0  0  0  0  0  0  0  0  0
   35.2569   16.2602    8.5663 C   0  0  0  0  0  0  0  0  0  0  0  0
   36.3439   14.8491    8.8915 S   0  0  0  0  0  0  0  0  0  0  0  0
   37.0817   15.0347    7.2485 C   0  0  0  0  0  0  0  0  0  0  0  0
   38.6054   15.0102    7.2815 C   0  0  1  0  0  0  0  0  0  0  0  0
   39.0617   13.6988    7.5589 O   0  0  0  0  0  0  0  0  0  0  0  0
   39.1998   15.4367    5.9492 C   0  0  1  0  0  0  0  0  0  0  0  0
   39.9438   16.6209    6.1117 O   0  0  0  0  0  0  0  0  0  0  0  0
   40.1116   14.3053    5.5220 C   0  0  1  0  0  0  0  0  0  0  0  0
   41.4260   14.7819    5.3496 O   0  0  0  0  0  0  0  0  0  0  0  0
   40.0673   13.2897    6.6507 C   0  0  2  0  0  0  0  0  0  0  0  0
   34.4004   20.1688    8.2320 O   0  0  0  0  0  0  0  0  0  0  0  0
   41.4914    9.4713    3.3403 N   0  0  0  0  0  0  0  0  0  0  0  0
   42.1158   10.6823    3.5616 C   0  0  0  0  0  0  0  0  0  0  0  0
   41.5969   11.5746    4.4789 N   0  0  0  0  0  0  0  0  0  0  0  0
   40.4702   11.2696    5.1677 C   0  0  0  0  0  0  0  0  0  0  0  0
   39.8275   10.0570    4.9587 C   0  0  0  0  0  0  0  0  0  0  0  0
   40.3438    9.1531    4.0381 C   0  0  0  0  0  0  0  0  0  0  0  0
   39.7361    7.9890    3.8290 N   0  0  0  0  0  0  0  0  0  0  0  0
   38.7458   10.0151    5.7664 N   0  0  0  0  0  0  0  0  0  0  0  0
   38.6884   11.1649    6.4770 C   0  0  0  0  0  0  0  0  0  0  0  0
   39.7511   11.9527    6.1167 N   0  0  0  0  0  0  0  0  0  0  0  0
  2  1  1  6  0  0  0
  2  3  1  0  0  0  0
  2  5  1  0  0  0  0
  3  4  1  0  0  0  0
  3 16  1  0  0  0  0
  5  6  1  0  0  0  0
  6  7  1  0  0  0  0
  7  8  1  0  0  0  0
  9  8  1  6  0  0  0
  9 10  1  0  0  0  0
  9 11  1  0  0  0  0
 10 15  1  0  0  0  0
 11 12  1  1  0  0  0
 11 13  1  0  0  0  0
 13 14  1  1  0  0  0
 13 15  1  0  0  0  0
 15 26  1  6  0  0  0
 17 18  2  0  0  0  0
 17 22  1  0  0  0  0
 18 19  1  0  0  0  0
 19 20  2  0  0  0  0
 20 21  1  0  0  0  0
 20 26  1  0  0  0  0
 21 22  2  0  0  0  0
 21 24  1  0  0  0  0
 22 23  1  0  0  0  0
 24 25  2  0  0  0  0
 25 26  1  0  0  0  0
M  END
>  <CHROM.1>
-153.28483342,52.97833142,175.61681348,-153.02442354,131.88261606,71.63980412
176.84678983,38.20856763,14.19310551,6.75565866,2.23016755,0.49175604,0.16636230

>  <Name>
ligand

>  <RI>
0

>  <Rbt.Current_Directory>
/home/itssahil/PROJECTS/Mol_Feturizer/New_Systems/rnas/3NPQ

>  <Rbt.Executable>
rbdock ($Id: //depot/dev/client3/rdock/2013.1/src/exe/rbdock.cxx#4 $)

>  <Rbt.Library>
libRbt.so (2013.1, Build901 2013/11/27)

>  <Rbt.Parameter_File>
/export/apps/rDock/src/rDock_2013.1_src/data/scripts/dock_solv.prm

>  <Rbt.Receptor>
prm/pocket_docking_3.prm

>  <SCORE>
-33.2162

>  <SCORE.INTER>
-32.7494

>  <SCORE.INTER.CONST>
1

>  <SCORE.INTER.POLAR>
0

>  <SCORE.INTER.ROT>
7

>  <SCORE.INTER.SOLV>
27.943

>  <SCORE.INTER.VDW>
-39.4139

>  <SCORE.INTER.norm>
-1.25959

>  <SCORE.INTRA>
-0.466872

>  <SCORE.INTRA.DIHEDRAL>
-0.368086

>  <SCORE.INTRA.DIHEDRAL.0>
6.97628

>  <SCORE.INTRA.POLAR>
0

>  <SCORE.INTRA.POLAR.0>
0

>  <SCORE.INTRA.REPUL>
0

>  <SCORE.INTRA.REPUL.0>
0

>  <SCORE.INTRA.SOLV>
-0.166529

>  <SCORE.INTRA.SOLV.lig_0>
-49.8243

>  <SCORE.INTRA.VDW>
-0.199565

>  <SCORE.INTRA.VDW.0>
-1.35881

>  <SCORE.INTRA.norm>
-0.0179566

>  <SCORE.RESTR>
0

>  <SCORE.RESTR.CAVITY>
0

>  <SCORE.RESTR.norm>
0

>  <SCORE.SYSTEM>
0

>  <SCORE.SYSTEM.CONST>
0

>  <SCORE.SYSTEM.DIHEDRAL>
0

>  <SCORE.SYSTEM.SOLV>
0

>  <SCORE.SYSTEM.norm>
0

>  <SCORE.heavy>
26

>  <SCORE.norm>
-1.27755

>  <RMSD>
1.069

$$$$
ligand
 OpenBabel11021811483D
libRbt.so/2013.1/901 2013/11/27
 26 28  0  0  0  0  0  0  0  0999 V2000
   33.8757   16.6403    7.8523 N   0  0  0  0  0  0  0  0  0  0  0  0
   33.9337   17.6791    8.8731 C   0  0  2  0  0  0  0  0  0  0  0  0
   34.4342   18.9952    8.2887 C   0  0  0  0  0  0  0  0  0  0  0  0
   35.1644   19.0115    7.2985 O   0  0  0  0  0  0  0  0  0  0  0  0
   34.8301   17.2451   10.0260 C   0  0  0  0  0  0  0  0  0  0  0  0
   35.9021   16.2362    9.6353 C   0  0  0  0  0  0  0  0  0  0  0  0
   37.0579   16.8924    8.4057 S   0  0  0  0  0  0  0  0  0  0  0  0
   37.7719   15.2424    8.1916 C   0  0  0  0  0  0  0  0  0  0  0  0
   39.1695   15.2803    7.5845 C   0  0  1  0  0  0  0  0  0  0  0  0
   39.7521   13.9906    7.6318 O   0  0  0  0  0  0  0  0  0  0  0  0
   39.1350   15.7212    6.1303 C   0  0  1  0  0  0  0  0  0  0  0  0
   39.8308   16.9359    5.9794 O   0  0  0  0  0  0  0  0  0  0  0  0
   39.8292   14.6249    5.3491 C   0  0  1  0  0  0  0  0  0  0  0  0
   40.9309   15.1534    4.6482 O   0  0  0  0  0  0  0  0  0  0  0  0
   40.3014   13.6164    6.3822 C   0  0  2  0  0  0  0  0  0  0  0  0
   34.1192   20.0736    8.7932 O   0  0  0  0  0  0  0  0  0  0  0  0
   41.2464    9.3311    3.4995 N   0  0  0  0  0  0  0  0  0  0  0  0
   41.9867   10.4945    3.5625 C   0  0  0  0  0  0  0  0  0  0  0  0
   41.5860   11.5297    4.3838 N   0  0  0  0  0  0  0  0  0  0  0  0
   40.4625   11.4129    5.1329 C   0  0  0  0  0  0  0  0  0  0  0  0
   39.7044   10.2511    5.0827 C   0  0  0  0  0  0  0  0  0  0  0  0
   40.1013    9.2042    4.2595 C   0  0  0  0  0  0  0  0  0  0  0  0
   39.3824    8.0870    4.2028 N   0  0  0  0  0  0  0  0  0  0  0  0
   38.6542   10.4035    5.9182 N   0  0  0  0  0  0  0  0  0  0  0  0
   38.7286   11.6263    6.4922 C   0  0  0  0  0  0  0  0  0  0  0  0
   39.8447   12.2639    6.0151 N   0  0  0  0  0  0  0  0  0  0  0  0
  2  1  1  6  0  0  0
  2  3  1  0  0  0  0
  2  5  1  0  0  0  0
  3  4  1  0  0  0  0
  3 16  1  0  0  0  0
  5  6  1  0  0  0  0
  6  7  1  0  0  0  0
  7  8  1  0  0  0  0
  9  8  1  6  0  0  0
  9 10  1  0  0  0  0
  9 11  1  0  0  0  0
 10 15  1  0  0  0  0
 11 12  1  1  0  0  0
 11 13  1  0  0  0  0
 13 14  1  1  0  0  0
 13 15  1  0  0  0  0
 15 26  1  6  0  0  0
 17 18  2  0  0  0  0
 17 22  1  0  0  0  0
 18 19  1  0  0  0  0
 19 20  2  0  0  0  0
 20 21  1  0  0  0  0
 20 26  1  0  0  0  0
 21 22  2  0  0  0  0
 21 24  1  0  0  0  0
 22 23  1  0  0  0  0
 24 25  2  0  0  0  0
 25 26  1  0  0  0  0
M  END
>  <CHROM.1>
-26.51337147,26.20726313,61.80233515,-170.49973350,-159.51243882,171.07609208
-158.11112367,38.27093583,14.41280843,6.65311287,2.21320488,0.47892502,0.15200018

>  <Name>
ligand

>  <RI>
0

>  <Rbt.Current_Directory>
/home/itssahil/PROJECTS/Mol_Feturizer/New_Systems/rnas/3NPQ

>  <Rbt.Executable>
rbdock ($Id: //depot/dev/client3/rdock/2013.1/src/exe/rbdock.cxx#4 $)

>  <Rbt.Library>
libRbt.so (2013.1, Build901 2013/11/27)

>  <Rbt.Parameter_File>
/export/apps/rDock/src/rDock_2013.1_src/data/scripts/dock_solv.prm

>  <Rbt.Receptor>
prm/pocket_docking_3.prm

>  <SCORE>
-27.8198

>  <SCORE.INTER>
-28.0889

>  <SCORE.INTER.CONST>
1

>  <SCORE.INTER.POLAR>
0

>  <SCORE.INTER.ROT>
7

>  <SCORE.INTER.SOLV>
25.7017

>  <SCORE.INTER.VDW>
-35.5599

>  <SCORE.INTER.norm>
-1.08034

>  <SCORE.INTRA>
0.269137

>  <SCORE.INTRA.DIHEDRAL>
0.276387

>  <SCORE.INTRA.DIHEDRAL.0>
6.97628

>  <SCORE.INTRA.POLAR>
0

>  <SCORE.INTRA.POLAR.0>
0

>  <SCORE.INTRA.REPUL>
0

>  <SCORE.INTRA.REPUL.0>
0

>  <SCORE.INTRA.SOLV>
1.5957

>  <SCORE.INTRA.SOLV.lig_0>
-49.8243

>  <SCORE.INTRA.VDW>
-0.666908

>  <SCORE.INTRA.VDW.0>
-1.35881

>  <SCORE.INTRA.norm>
0.0103514

>  <SCORE.RESTR>
0

>  <SCORE.RESTR.CAVITY>
0

>  <SCORE.RESTR.norm>
0

>  <SCORE.SYSTEM>
0

>  <SCORE.SYSTEM.CONST>
0

>  <SCORE.SYSTEM.DIHEDRAL>
0

>  <SCORE.SYSTEM.SOLV>
0

>  <SCORE.SYSTEM.norm>
0

>  <SCORE.heavy>
26

>  <SCORE.norm>
-1.06999

>  <RMSD>
1.085

$$$$
ligand
 OpenBabel11021811483D
libRbt.so/2013.1/901 2013/11/27
 26 28  0  0  0  0  0  0  0  0999 V2000
   35.6500   17.3592    7.1051 N   0  0  0  0  0  0  0  0  0  0  0  0
   34.7318   16.9959    8.1771 C   0  0  2  0  0  0  0  0  0  0  0  0
   34.8557   17.9561    9.3547 C   0  0  0  0  0  0  0  0  0  0  0  0
   34.4676   17.6351   10.4772 O   0  0  0  0  0  0  0  0  0  0  0  0
   34.9891   15.5670    8.6389 C   0  0  0  0  0  0  0  0  0  0  0  0
   36.4264   15.3003    9.0665 C   0  0  0  0  0  0  0  0  0  0  0  0
   37.4805   14.7979    7.6827 S   0  0  0  0  0  0  0  0  0  0  0  0
   38.7999   15.8781    8.2914 C   0  0  0  0  0  0  0  0  0  0  0  0
   40.0500   15.8280    7.4208 C   0  0  1  0  0  0  0  0  0  0  0  0
   40.5650   14.5094    7.3901 O   0  0  0  0  0  0  0  0  0  0  0  0
   39.7509   16.2433    5.9896 C   0  0  1  0  0  0  0  0  0  0  0  0
   40.4632   17.4150    5.6701 O   0  0  0  0  0  0  0  0  0  0  0  0
   40.2212   15.0964    5.1193 C   0  0  1  0  0  0  0  0  0  0  0  0
   41.1878   15.5506    4.2008 O   0  0  0  0  0  0  0  0  0  0  0  0
   40.8371   14.0827    6.0683 C   0  0  2  0  0  0  0  0  0  0  0  0
   35.3478   19.0759    9.2108 O   0  0  0  0  0  0  0  0  0  0  0  0
   41.3387    9.4637    3.6229 N   0  0  0  0  0  0  0  0  0  0  0  0
   42.1873   10.5511    3.5698 C   0  0  0  0  0  0  0  0  0  0  0  0
   41.8957   11.6958    4.2849 N   0  0  0  0  0  0  0  0  0  0  0  0
   40.7741   11.7617    5.0430 C   0  0  0  0  0  0  0  0  0  0  0  0
   39.9081   10.6787    5.1087 C   0  0  0  0  0  0  0  0  0  0  0  0
   40.1947    9.5227    4.3928 C   0  0  0  0  0  0  0  0  0  0  0  0
   39.3719    8.4795    4.4475 N   0  0  0  0  0  0  0  0  0  0  0  0
   38.8860   11.0127    5.9259 N   0  0  0  0  0  0  0  0  0  0  0  0
   39.0827   12.2733    6.3761 C   0  0  0  0  0  0  0  0  0  0  0  0
   40.2496   12.7507    5.8373 N   0  0  0  0  0  0  0  0  0  0  0  0
  2  1  1  6  0  0  0
  2  3  1  0  0  0  0
  2  5  1  0  0  0  0
  3  4  1  0  0  0  0
  3 16  1  0  0  0  0
  5  6  1  0  0  0  0
  6  7  1  0  0  0  0
  7  8  1  0  0  0  0
  9  8  1  1  0  0  0
  9 10  1  0  0  0  0
  9 11  1  0  0  0  0
 10 15  1  0  0  0  0
 11 12  1  6  0  0  0
 11 13  1  0  0  0  0
 13 14  1  6  0  0  0
 13 15  1  0  0  0  0
 15 26  1  6  0  0  0
 17 18  2  0  0  0  0
 17 22  1  0  0  0  0
 18 19  1  0  0  0  0
 19 20  2  0  0  0  0
 20 21  1  0  0  0  0
 20 26  1  0  0  0  0
 21 22  2  0  0  0  0
 21 24  1  0  0  0  0
 22 23  1  0  0  0  0
 24 25  2  0  0  0  0
 25 26  1  0  0  0  0
M  END
>  <CHROM.1>
-159.57060894,55.22445026,-87.97483724,137.13255311,179.48373948,-60.30221074
-146.01274464,38.73327916,14.28199573,6.58784936,2.26429815,0.52555057,0.19624784

>  <Name>
ligand

>  <RI>
0

>  <Rbt.Current_Directory>
/home/itssahil/PROJECTS/Mol_Feturizer/New_Systems/rnas/3NPQ

>  <Rbt.Executable>
rbdock ($Id: //depot/dev/client3/rdock/2013.1/src/exe/rbdock.cxx#4 $)

>  <Rbt.Library>
libRbt.so (2013.1, Build901 2013/11/27)

>  <Rbt.Parameter_File>
/export/apps/rDock/src/rDock_2013.1_src/data/scripts/dock_solv.prm

>  <Rbt.Receptor>
prm/pocket_docking_2.prm

>  <SCORE>
-26.8149

>  <SCORE.INTER>
-26.7109

>  <SCORE.INTER.CONST>
1

>  <SCORE.INTER.POLAR>
0

>  <SCORE.INTER.ROT>
7

>  <SCORE.INTER.SOLV>
21.6355

>  <SCORE.INTER.VDW>
-33.2858

>  <SCORE.INTER.norm>
-1.02734

>  <SCORE.INTRA>
-0.131117

>  <SCORE.INTRA.DIHEDRAL>
0.209411

>  <SCORE.INTRA.DIHEDRAL.0>
6.97628

>  <SCORE.INTRA.POLAR>
0

>  <SCORE.INTRA.POLAR.0>
0

>  <SCORE.INTRA.REPUL>
0

>  <SCORE.INTRA.REPUL.0>
0

>  <SCORE.INTRA.SOLV>
1.94653

>  <SCORE.INTRA.SOLV.lig_0>
-49.8243

>  <SCORE.INTRA.VDW>
-1.20909

>  <SCORE.INTRA.VDW.0>
-1.35881

>  <SCORE.INTRA.norm>
-0.00504296

>  <SCORE.RESTR>
0.0271129

>  <SCORE.RESTR.CAVITY>
0.0271129

>  <SCORE.RESTR.norm>
0.0010428

>  <SCORE.SYSTEM>
0

>  <SCORE.SYSTEM.CONST>
0

>  <SCORE.SYSTEM.DIHEDRAL>
0

>  <SCORE.SYSTEM.SOLV>
0

>  <SCORE.SYSTEM.norm>
0

>  <SCORE.heavy>
26

>  <SCORE.norm>
-1.03134

>  <RMSD>
1.092

$$$$
ligand
 OpenBabel11021811483D
libRbt.so/2013.1/901 2013/11/27
 26 28  0  0  0  0  0  0  0  0999 V2000
   32.7637   17.8960    8.5849 N   0  0  0  0  0  0  0  0  0  0  0  0
   33.8691   18.2587    9.4631 C   0  0  2  0  0  0  0  0  0  0  0  0
   34.7070   19.3785    8.8564 C   0  0  0  0  0  0  0  0  0  0  0  0
   34.2014   20.2128    8.1066 O   0  0  0  0  0  0  0  0  0  0  0  0
   34.7457   17.0453    9.7468 C   0  0  0  0  0  0  0  0  0  0  0  0
   35.2176   16.3126    8.4977 C   0  0  0  0  0  0  0  0  0  0  0  0
   36.2732   14.8928    8.8829 S   0  0  0  0  0  0  0  0  0  0  0  0
   37.0412   15.0162    7.2479 C   0  0  0  0  0  0  0  0  0  0  0  0
   38.5639   14.9875    7.3094 C   0  0  1  0  0  0  0  0  0  0  0  0
   39.0118   13.6724    7.5831 O   0  0  0  0  0  0  0  0  0  0  0  0
   39.1844   15.4248    5.9926 C   0  0  1  0  0  0  0  0  0  0  0  0
   39.9281   16.6055    6.1801 O   0  0  0  0  0  0  0  0  0  0  0  0
   40.1014   14.2951    5.5720 C   0  0  1  0  0  0  0  0  0  0  0  0
   41.4199   14.7698    5.4290 O   0  0  0  0  0  0  0  0  0  0  0  0
   40.0333   13.2691    6.6902 C   0  0  2  0  0  0  0  0  0  0  0  0
   35.9098   19.4752    9.1027 O   0  0  0  0  0  0  0  0  0  0  0  0
   41.5052    9.4821    3.3648 N   0  0  0  0  0  0  0  0  0  0  0  0
   42.1275   10.6900    3.6081 C   0  0  0  0  0  0  0  0  0  0  0  0
   41.5951   11.5737    4.5259 N   0  0  0  0  0  0  0  0  0  0  0  0
   40.4572   11.2634    5.1937 C   0  0  0  0  0  0  0  0  0  0  0  0
   39.8165   10.0538    4.9624 C   0  0  0  0  0  0  0  0  0  0  0  0
   40.3463    9.1585    4.0410 C   0  0  0  0  0  0  0  0  0  0  0  0
   39.7406    7.9974    3.8107 N   0  0  0  0  0  0  0  0  0  0  0  0
   38.7221   10.0053    5.7523 N   0  0  0  0  0  0  0  0  0  0  0  0
   38.6548   11.1480    6.4735 C   0  0  0  0  0  0  0  0  0  0  0  0
   39.7240   11.9380    6.1380 N   0  0  0  0  0  0  0  0  0  0  0  0
  2  1  1  6  0  0  0
  2  3  1  0  0  0  0
  2  5  1  0  0  0  0
  3  4  1  0  0  0  0
  3 16  1  0  0  0  0
  5  6  1  0  0  0  0
  6  7  1  0  0  0  0
  7  8  1  0  0  0  0
  9  8  1  6  0  0  0
  9 10  1  0  0  0  0
  9 11  1  0  0  0  0
 10 15  1  0  0  0  0
 11 12  1  1  0  0  0
 11 13  1  0  0  0  0
 13 14  1  1  0  0  0
 13 15  1  0  0  0  0
 15 26  1  6  0  0  0
 17 18  2  0  0  0  0
 17 22  1  0  0  0  0
 18 19  1  0  0  0  0
 19 20  2  0  0  0  0
 20 21  1  0  0  0  0
 20 26  1  0  0  0  0
 21 22  2  0  0  0  0
 21 24  1  0  0  0  0
 22 23  1  0  0  0  0
 24 25  2  0  0  0  0
 25 26  1  0  0  0  0
M  END
>  <CHROM.1>
29.63645944,52.36643100,179.22606118,-155.22268892,130.99167541,74.24465723
176.65643283,38.15722827,14.20125071,6.73913582,2.23257188,0.46372067,0.16662319

>  <Name>
ligand

>  <RI>
0

>  <Rbt.Current_Directory>
/home/itssahil/PROJECTS/Mol_Feturizer/New_Systems/rnas/3NPQ

>  <Rbt.Executable>
rbdock ($Id: //depot/dev/client3/rdock/2013.1/src/exe/rbdock.cxx#4 $)

>  <Rbt.Library>
libRbt.so (2013.1, Build901 2013/11/27)

>  <Rbt.Parameter_File>
/export/apps/rDock/src/rDock_2013.1_src/data/scripts/dock_solv.prm

>  <Rbt.Receptor>
prm/pocket_docking_6.prm

>  <SCORE>
-33.1815

>  <SCORE.INTER>
-32.817

>  <SCORE.INTER.CONST>
1

>  <SCORE.INTER.POLAR>
0

>  <SCORE.INTER.ROT>
7

>  <SCORE.INTER.SOLV>
28.3768

>  <SCORE.INTER.VDW>
-39.6036

>  <SCORE.INTER.norm>
-1.26219

>  <SCORE.INTRA>
-0.364451

>  <SCORE.INTRA.DIHEDRAL>
-0.281946

>  <SCORE.INTRA.DIHEDRAL.0>
6.97628

>  <SCORE.INTRA.POLAR>
0

>  <SCORE.INTRA.POLAR.0>
0

>  <SCORE.INTRA.REPUL>
0

>  <SCORE.INTRA.REPUL.0>
0

>  <SCORE.INTRA.SOLV>
-0.16822

>  <SCORE.INTRA.SOLV.lig_0>
-49.8243

>  <SCORE.INTRA.VDW>
-0.139368

>  <SCORE.INTRA.VDW.0>
-1.35881

>  <SCORE.INTRA.norm>
-0.0140174

>  <SCORE.RESTR>
0

>  <SCORE.RESTR.CAVITY>
0

>  <SCORE.RESTR.norm>
0

>  <SCORE.SYSTEM>
0

>  <SCORE.SYSTEM.CONST>
0

>  <SCORE.SYSTEM.DIHEDRAL>
0

>  <SCORE.SYSTEM.SOLV>
0

>  <SCORE.SYSTEM.norm>
0

>  <SCORE.heavy>
26

>  <SCORE.norm>
-1.27621

>  <RMSD>
1.096

$$$$
ligand
 OpenBabel11021811483D
libRbt.so/2013.1/901 2013/11/27
 26 28  0  0  0  0  0  0  0  0999 V2000
   34.2934   17.8156   10.9249 N   0  0  0  0  0  0  0  0  0  0  0  0
   34.7386   17.7111    9.5409 C   0  0  2  0  0  0  0  0  0  0  0  0
   33.6624   18.2031    8.5798 C   0  0  0  0  0  0  0  0  0  0  0  0
   32.5783   17.6275    8.4945 O   0  0  0  0  0  0  0  0  0  0  0  0
   35.1174   16.2732    9.2093 C   0  0  0  0  0  0  0  0  0  0  0  0
   35.7143   16.0913    7.8199 C   0  0  0  0  0  0  0  0  0  0  0  0
   36.8305   14.6688    7.7247 S   0  0  0  0  0  0  0  0  0  0  0  0
   38.1333   15.6331    8.5316 C   0  0  0  0  0  0  0  0  0  0  0  0
   39.3931   15.7476    7.6812 C   0  0  1  0  0  0  0  0  0  0  0  0
   40.0454   14.4927    7.6124 O   0  0  0  0  0  0  0  0  0  0  0  0
   39.0705   16.1819    6.2607 C   0  0  1  0  0  0  0  0  0  0  0  0
   39.6587   17.4333    5.9952 O   0  0  0  0  0  0  0  0  0  0  0  0
   39.6712   15.1241    5.3583 C   0  0  1  0  0  0  0  0  0  0  0  0
   40.5962   15.7115    4.4731 O   0  0  0  0  0  0  0  0  0  0  0  0
   40.3785   14.1464    6.2810 C   0  0  2  0  0  0  0  0  0  0  0  0
   33.8521   19.1887    7.8661 O   0  0  0  0  0  0  0  0  0  0  0  0
   41.3707    9.7179    3.6408 N   0  0  0  0  0  0  0  0  0  0  0  0
   42.0956   10.8926    3.6350 C   0  0  0  0  0  0  0  0  0  0  0  0
   41.6839   11.9673    4.3981 N   0  0  0  0  0  0  0  0  0  0  0  0
   40.5647   11.8782    5.1574 C   0  0  0  0  0  0  0  0  0  0  0  0
   39.8220   10.7055    5.1761 C   0  0  0  0  0  0  0  0  0  0  0  0
   40.2300    9.6191    4.4117 C   0  0  0  0  0  0  0  0  0  0  0  0
   39.5259    8.4911    4.4211 N   0  0  0  0  0  0  0  0  0  0  0  0
   38.7728   10.8911    6.0061 N   0  0  0  0  0  0  0  0  0  0  0  0
   38.8328   12.1452    6.5099 C   0  0  0  0  0  0  0  0  0  0  0  0
   39.9387   12.7695    5.9928 N   0  0  0  0  0  0  0  0  0  0  0  0
  2  1  1  1  0  0  0
  2  3  1  0  0  0  0
  2  5  1  0  0  0  0
  3  4  1  0  0  0  0
  3 16  1  0  0  0  0
  5  6  1  0  0  0  0
  6  7  1  0  0  0  0
  7  8  1  0  0  0  0
  9  8  1  1  0  0  0
  9 10  1  0  0  0  0
  9 11  1  0  0  0  0
 10 15  1  0  0  0  0
 11 12  1  6  0  0  0
 11 13  1  0  0  0  0
 13 14  1  6  0  0  0
 13 15  1  0  0  0  0
 15 26  1  6  0  0  0
 17 18  2  0  0  0  0
 17 22  1  0  0  0  0
 18 19  1  0  0  0  0
 19 20  2  0  0  0  0
 20 21  1  0  0  0  0
 20 26  1  0  0  0  0
 21 22  2  0  0  0  0
 21 24  1  0  0  0  0
 22 23  1  0  0  0  0
 24 25  2  0  0  0  0
 25 26  1  0  0  0  0
M  END
>  <CHROM.1>
-63.65603342,-174.75705682,152.77030289,-78.20165746,-121.29642245,-70.18488572
-147.05008466,38.19908694,14.40787917,6.69290523,2.32820275,0.46410011,0.16211739

>  <Name>
ligand

>  <RI>
0

>  <Rbt.Current_Directory>
/home/itssahil/PROJECTS/Mol_Feturizer/New_Systems/rnas/3NPQ

>  <Rbt.Executable>
rbdock ($Id: //depot/dev/client3/rdock/2013.1/src/exe/rbdock.cxx#4 $)

>  <Rbt.Library>
libRbt.so (2013.1, Build901 2013/11/27)

>  <Rbt.Parameter_File>
/export/apps/rDock/src/rDock_2013.1_src/data/scripts/dock_solv.prm

>  <Rbt.Receptor>
prm/pocket_docking_3.prm

>  <SCORE>
-28.0644

>  <SCORE.INTER>
-27.5071

>  <SCORE.INTER.CONST>
1

>  <SCORE.INTER.POLAR>
0

>  <SCORE.INTER.ROT>
7

>  <SCORE.INTER.SOLV>
28.9108

>  <SCORE.INTER.VDW>
-36.2416

>  <SCORE.INTER.norm>
-1.05796

>  <SCORE.INTRA>
-0.557356

>  <SCORE.INTRA.DIHEDRAL>
1.42287

>  <SCORE.INTRA.DIHEDRAL.0>
6.97628

>  <SCORE.INTRA.POLAR>
0

>  <SCORE.INTRA.POLAR.0>
0

>  <SCORE.INTRA.REPUL>
0

>  <SCORE.INTRA.REPUL.0>
0

>  <SCORE.INTRA.SOLV>
-0.643391

>  <SCORE.INTRA.SOLV.lig_0>
-49.8243

>  <SCORE.INTRA.VDW>
-0.947096

>  <SCORE.INTRA.VDW.0>
-1.35881

>  <SCORE.INTRA.norm>
-0.0214368

>  <SCORE.RESTR>
0

>  <SCORE.RESTR.CAVITY>
0

>  <SCORE.RESTR.norm>
0

>  <SCORE.SYSTEM>
0

>  <SCORE.SYSTEM.CONST>
0

>  <SCORE.SYSTEM.DIHEDRAL>
0

>  <SCORE.SYSTEM.SOLV>
0

>  <SCORE.SYSTEM.norm>
0

>  <SCORE.heavy>
26

>  <SCORE.norm>
-1.0794

>  <RMSD>
1.116

$$$$
ligand
 OpenBabel11021811483D
libRbt.so/2013.1/901 2013/11/27
 26 28  0  0  0  0  0  0  0  0999 V2000
   35.1332   17.7789    9.9331 N   0  0  0  0  0  0  0  0  0  0  0  0
   34.8443   17.6210    8.5132 C   0  0  2  0  0  0  0  0  0  0  0  0
   33.7274   18.5605    8.0729 C   0  0  0  0  0  0  0  0  0  0  0  0
   32.5719   18.1565    7.9490 O   0  0  0  0  0  0  0  0  0  0  0  0
   34.4660   16.1782    8.2027 C   0  0  0  0  0  0  0  0  0  0  0  0
   35.5263   15.1581    8.5966 C   0  0  0  0  0  0  0  0  0  0  0  0
   36.7711   14.9164    7.3042 S   0  0  0  0  0  0  0  0  0  0  0  0
   37.9559   15.8994    8.2572 C   0  0  0  0  0  0  0  0  0  0  0  0
   39.3456   15.9153    7.6311 C   0  0  1  0  0  0  0  0  0  0  0  0
   39.9233   14.6246    7.7042 O   0  0  0  0  0  0  0  0  0  0  0  0
   39.2937   16.3188    6.1666 C   0  0  1  0  0  0  0  0  0  0  0  0
   39.9925   17.5261    5.9754 O   0  0  0  0  0  0  0  0  0  0  0  0
   39.9730   15.1996    5.4050 C   0  0  1  0  0  0  0  0  0  0  0  0
   41.0676   15.7049    4.6764 O   0  0  0  0  0  0  0  0  0  0  0  0
   40.4546   14.2159    6.4575 C   0  0  2  0  0  0  0  0  0  0  0  0
   33.9549   19.7465    7.8310 O   0  0  0  0  0  0  0  0  0  0  0  0
   41.3523    9.8477    3.6864 N   0  0  0  0  0  0  0  0  0  0  0  0
   42.0996   11.0081    3.7114 C   0  0  0  0  0  0  0  0  0  0  0  0
   41.7113   12.0678    4.5071 N   0  0  0  0  0  0  0  0  0  0  0  0
   40.5933   11.9780    5.2681 C   0  0  0  0  0  0  0  0  0  0  0  0
   39.8284   10.8196    5.2560 C   0  0  0  0  0  0  0  0  0  0  0  0
   40.2128    9.7482    4.4587 C   0  0  0  0  0  0  0  0  0  0  0  0
   39.4873    8.6341    4.4385 N   0  0  0  0  0  0  0  0  0  0  0  0
   38.7859   11.0010    6.0952 N   0  0  0  0  0  0  0  0  0  0  0  0
   38.8717   12.2386    6.6348 C   0  0  0  0  0  0  0  0  0  0  0  0
   39.9874   12.8565    6.1315 N   0  0  0  0  0  0  0  0  0  0  0  0
  2  1  1  1  0  0  0
  2  3  1  0  0  0  0
  2  5  1  0  0  0  0
  3  4  1  0  0  0  0
  3 16  1  0  0  0  0
  5  6  1  0  0  0  0
  6  7  1  0  0  0  0
  7  8  1  0  0  0  0
  9  8  1  6  0  0  0
  9 10  1  0  0  0  0
  9 11  1  0  0  0  0
 10 15  1  0  0  0  0
 11 12  1  1  0  0  0
 11 13  1  0  0  0  0
 13 14  1  1  0  0  0
 13 15  1  0  0  0  0
 15 26  1  6  0  0  0
 17 18  2  0  0  0  0
 17 22  1  0  0  0  0
 18 19  1  0  0  0  0
 19 20  2  0  0  0  0
 20 21  1  0  0  0  0
 20 26  1  0  0  0  0
 21 22  2  0  0  0  0
 21 24  1  0  0  0  0
 22 23  1  0  0  0  0
 24 25  2  0  0  0  0
 25 26  1  0  0  0  0
M  END
>  <CHROM.1>
-99.68499605,-57.40105282,-86.22171644,104.25311326,174.31475743,-67.45633079
-157.79719596,38.24867410,14.51766645,6.56794281,2.30372577,0.36331795,0.17686915

>  <Name>
ligand

>  <RI>
0

>  <Rbt.Current_Directory>
/home/itssahil/PROJECTS/Mol_Feturizer/New_Systems/rnas/3NPQ

>  <Rbt.Executable>
rbdock ($Id: //depot/dev/client3/rdock/2013.1/src/exe/rbdock.cxx#4 $)

>  <Rbt.Library>
libRbt.so (2013.1, Build901 2013/11/27)

>  <Rbt.Parameter_File>
/export/apps/rDock/src/rDock_2013.1_src/data/scripts/dock_solv.prm

>  <Rbt.Receptor>
prm/pocket_docking_2.prm

>  <SCORE>
-27.7666

>  <SCORE.INTER>
-27.4679

>  <SCORE.INTER.CONST>
1

>  <SCORE.INTER.POLAR>
0

>  <SCORE.INTER.ROT>
7

>  <SCORE.INTER.SOLV>
23.9193

>  <SCORE.INTER.VDW>
-34.5517

>  <SCORE.INTER.norm>
-1.05646

>  <SCORE.INTRA>
-0.298767

>  <SCORE.INTRA.DIHEDRAL>
0.198022

>  <SCORE.INTRA.DIHEDRAL.0>
6.97628

>  <SCORE.INTRA.POLAR>
0

>  <SCORE.INTRA.POLAR.0>
0

>  <SCORE.INTRA.REPUL>
0

>  <SCORE.INTRA.REPUL.0>
0

>  <SCORE.INTRA.SOLV>
1.03724

>  <SCORE.INTRA.SOLV.lig_0>
-49.8243

>  <SCORE.INTRA.VDW>
-0.916397

>  <SCORE.INTRA.VDW.0>
-1.35881

>  <SCORE.INTRA.norm>
-0.0114911

>  <SCORE.RESTR>
0

>  <SCORE.RESTR.CAVITY>
0

>  <SCORE.RESTR.norm>
0

>  <SCORE.SYSTEM>
0

>  <SCORE.SYSTEM.CONST>
0

>  <SCORE.SYSTEM.DIHEDRAL>
0

>  <SCORE.SYSTEM.SOLV>
0

>  <SCORE.SYSTEM.norm>
0

>  <SCORE.heavy>
26

>  <SCORE.norm>
-1.06795

>  <RMSD>
1.122

$$$$
ligand
 OpenBabel11021811483D
libRbt.so/2013.1/901 2013/11/27
 26 28  0  0  0  0  0  0  0  0999 V2000
   33.4874   18.6447    9.9846 N   0  0  0  0  0  0  0  0  0  0  0  0
   34.8865   18.3174    9.7401 C   0  0  2  0  0  0  0  0  0  0  0  0
   35.4779   19.2119    8.6566 C   0  0  0  0  0  0  0  0  0  0  0  0
   34.7523   19.8075    7.8612 O   0  0  0  0  0  0  0  0  0  0  0  0
   35.0309   16.8531    9.3450 C   0  0  0  0  0  0  0  0  0  0  0  0
   36.4726   16.3964    9.1639 C   0  0  0  0  0  0  0  0  0  0  0  0
   36.5932   14.6614    8.6602 S   0  0  0  0  0  0  0  0  0  0  0  0
   37.3262   15.1668    7.0837 C   0  0  0  0  0  0  0  0  0  0  0  0
   38.8482   15.0837    7.0890 C   0  0  1  0  0  0  0  0  0  0  0  0
   39.2591   13.7661    7.4055 O   0  0  0  0  0  0  0  0  0  0  0  0
   39.4317   15.4386    5.7311 C   0  0  1  0  0  0  0  0  0  0  0  0
   40.2239   16.5977    5.8362 O   0  0  0  0  0  0  0  0  0  0  0  0
   40.2904   14.2577    5.3284 C   0  0  1  0  0  0  0  0  0  0  0  0
   41.6184   14.6757    5.1142 O   0  0  0  0  0  0  0  0  0  0  0  0
   40.2296   13.2856    6.4942 C   0  0  2  0  0  0  0  0  0  0  0  0
   36.6961   19.3603    8.5517 O   0  0  0  0  0  0  0  0  0  0  0  0
   41.4518    9.2879    3.3174 N   0  0  0  0  0  0  0  0  0  0  0  0
   42.1289   10.4791    3.4852 C   0  0  0  0  0  0  0  0  0  0  0  0
   41.6591   11.4266    4.3732 N   0  0  0  0  0  0  0  0  0  0  0  0
   40.5294   11.1956    5.0855 C   0  0  0  0  0  0  0  0  0  0  0  0
   39.8342   10.0041    4.9303 C   0  0  0  0  0  0  0  0  0  0  0  0
   40.3009    9.0450    4.0394 C   0  0  0  0  0  0  0  0  0  0  0  0
   39.6427    7.9004    3.8819 N   0  0  0  0  0  0  0  0  0  0  0  0
   38.7620   10.0383    5.7508 N   0  0  0  0  0  0  0  0  0  0  0  0
   38.7614   11.2156    6.4174 C   0  0  0  0  0  0  0  0  0  0  0  0
   39.8514   11.9438    6.0155 N   0  0  0  0  0  0  0  0  0  0  0  0
  2  1  1  6  0  0  0
  2  3  1  0  0  0  0
  2  5  1  0  0  0  0
  3  4  1  0  0  0  0
  3 16  1  0  0  0  0
  5  6  1  0  0  0  0
  6  7  1  0  0  0  0
  7  8  1  0  0  0  0
  9  8  1  6  0  0  0
  9 10  1  0  0  0  0
  9 11  1  0  0  0  0
 10 15  1  0  0  0  0
 11 12  1  1  0  0  0
 11 13  1  0  0  0  0
 13 14  1  1  0  0  0
 13 15  1  0  0  0  0
 15 26  1  6  0  0  0
 17 18  2  0  0  0  0
 17 22  1  0  0  0  0
 18 19  1  0  0  0  0
 19 20  2  0  0  0  0
 20 21  1  0  0  0  0
 20 26  1  0  0  0  0
 21 22  2  0  0  0  0
 21 24  1  0  0  0  0
 22 23  1  0  0  0  0
 24 25  2  0  0  0  0
 25 26  1  0  0  0  0
M  END
>  <CHROM.1>
-20.02325174,-175.95969285,-178.75361799,115.83038246,97.29358610,57.28413125
177.32921900,38.46801788,14.16139102,6.65803838,2.20603478,0.56970389,0.13475283

>  <Name>
ligand

>  <RI>
0

>  <Rbt.Current_Directory>
/home/itssahil/PROJECTS/Mol_Feturizer/New_Systems/rnas/3NPQ

>  <Rbt.Executable>
rbdock ($Id: //depot/dev/client3/rdock/2013.1/src/exe/rbdock.cxx#4 $)

>  <Rbt.Library>
libRbt.so (2013.1, Build901 2013/11/27)

>  <Rbt.Parameter_File>
/export/apps/rDock/src/rDock_2013.1_src/data/scripts/dock_solv.prm

>  <Rbt.Receptor>
prm/pocket_docking_2.prm

>  <SCORE>
-30.114

>  <SCORE.INTER>
-29.1479

>  <SCORE.INTER.CONST>
1

>  <SCORE.INTER.POLAR>
0

>  <SCORE.INTER.ROT>
7

>  <SCORE.INTER.SOLV>
29.2431

>  <SCORE.INTER.VDW>
-37.4463

>  <SCORE.INTER.norm>
-1.12107

>  <SCORE.INTRA>
-1.25982

>  <SCORE.INTRA.DIHEDRAL>
-0.198523

>  <SCORE.INTRA.DIHEDRAL.0>
6.97628

>  <SCORE.INTRA.POLAR>
0

>  <SCORE.INTRA.POLAR.0>
0

>  <SCORE.INTRA.REPUL>
0

>  <SCORE.INTRA.REPUL.0>
0

>  <SCORE.INTRA.SOLV>
-0.822831

>  <SCORE.INTRA.SOLV.lig_0>
-49.8243

>  <SCORE.INTRA.VDW>
-0.749142

>  <SCORE.INTRA.VDW.0>
-1.35881

>  <SCORE.INTRA.norm>
-0.0484546

>  <SCORE.RESTR>
0.293725

>  <SCORE.RESTR.CAVITY>
0.293725

>  <SCORE.RESTR.norm>
0.0112971

>  <SCORE.SYSTEM>
0

>  <SCORE.SYSTEM.CONST>
0

>  <SCORE.SYSTEM.DIHEDRAL>
0

>  <SCORE.SYSTEM.SOLV>
0

>  <SCORE.SYSTEM.norm>
0

>  <SCORE.heavy>
26

>  <SCORE.norm>
-1.15823

>  <RMSD>
1.124

$$$$
ligand
 OpenBabel11021811483D
libRbt.so/2013.1/901 2013/11/27
 26 28  0  0  0  0  0  0  0  0999 V2000
   32.6219   17.6859    8.3790 N   0  0  0  0  0  0  0  0  0  0  0  0
   33.8090   18.2634    8.9968 C   0  0  2  0  0  0  0  0  0  0  0  0
   34.5521   19.1665    8.0190 C   0  0  0  0  0  0  0  0  0  0  0  0
   34.4148   20.3887    8.0560 O   0  0  0  0  0  0  0  0  0  0  0  0
   34.7363   17.1648    9.5012 C   0  0  0  0  0  0  0  0  0  0  0  0
   35.0294   16.0779    8.4754 C   0  0  0  0  0  0  0  0  0  0  0  0
   36.4050   15.0094    8.9698 S   0  0  0  0  0  0  0  0  0  0  0  0
   37.0951   15.1197    7.2995 C   0  0  0  0  0  0  0  0  0  0  0  0
   38.6192   15.0966    7.2898 C   0  0  1  0  0  0  0  0  0  0  0  0
   39.0843   13.7870    7.5614 O   0  0  0  0  0  0  0  0  0  0  0  0
   39.1756   15.5163    5.9391 C   0  0  1  0  0  0  0  0  0  0  0  0
   39.9228   16.7020    6.0742 O   0  0  0  0  0  0  0  0  0  0  0  0
   40.0760   14.3833    5.4925 C   0  0  1  0  0  0  0  0  0  0  0  0
   41.3846   14.8599    5.2808 O   0  0  0  0  0  0  0  0  0  0  0  0
   40.0643   13.3738    6.6275 C   0  0  2  0  0  0  0  0  0  0  0  0
   35.3081   18.6946    7.1689 O   0  0  0  0  0  0  0  0  0  0  0  0
   41.4690    9.4857    3.3908 N   0  0  0  0  0  0  0  0  0  0  0  0
   42.1088   10.6907    3.6012 C   0  0  0  0  0  0  0  0  0  0  0  0
   41.5928   11.6041    4.4991 N   0  0  0  0  0  0  0  0  0  0  0  0
   40.4540   11.3260    5.1794 C   0  0  0  0  0  0  0  0  0  0  0  0
   39.7958   10.1199    4.9811 C   0  0  0  0  0  0  0  0  0  0  0  0
   40.3091    9.1948    4.0799 C   0  0  0  0  0  0  0  0  0  0  0  0
   39.6866    8.0367    3.8812 N   0  0  0  0  0  0  0  0  0  0  0  0
   38.7046   10.1059    5.7768 N   0  0  0  0  0  0  0  0  0  0  0  0
   38.6562   11.2669    6.4696 C   0  0  0  0  0  0  0  0  0  0  0  0
   39.7344   12.0337    6.1099 N   0  0  0  0  0  0  0  0  0  0  0  0
  2  1  1  6  0  0  0
  2  3  1  0  0  0  0
  2  5  1  0  0  0  0
  3  4  1  0  0  0  0
  3 16  1  0  0  0  0
  5  6  1  0  0  0  0
  6  7  1  0  0  0  0
  7  8  1  0  0  0  0
  9  8  1  6  0  0  0
  9 10  1  0  0  0  0
  9 11  1  0  0  0  0
 10 15  1  0  0  0  0
 11 12  1  1  0  0  0
 11 13  1  0  0  0  0
 13 14  1  1  0  0  0
 13 15  1  0  0  0  0
 15 26  1  6  0  0  0
 17 18  2  0  0  0  0
 17 22  1  0  0  0  0
 18 19  1  0  0  0  0
 19 20  2  0  0  0  0
 20 21  1  0  0  0  0
 20 26  1  0  0  0  0
 21 22  2  0  0  0  0
 21 24  1  0  0  0  0
 22 23  1  0  0  0  0
 24 25  2  0  0  0  0
 25 26  1  0  0  0  0
M  END
>  <CHROM.1>
99.36598605,49.53968534,167.09046787,-134.77994041,146.16220549,73.94454280
179.33650226,38.13116700,14.21620018,6.58751925,2.27019157,0.47725737,0.09730535

>  <Name>
ligand

>  <RI>
0

>  <Rbt.Current_Directory>
/home/itssahil/PROJECTS/Mol_Feturizer/New_Systems/rnas/3NPQ

>  <Rbt.Executable>
rbdock ($Id: //depot/dev/client3/rdock/2013.1/src/exe/rbdock.cxx#4 $)

>  <Rbt.Library>
libRbt.so (2013.1, Build901 2013/11/27)

>  <Rbt.Parameter_File>
/export/apps/rDock/src/rDock_2013.1_src/data/scripts/dock_solv.prm

>  <Rbt.Receptor>
prm/pocket_docking_2.prm

>  <SCORE>
-31.4416

>  <SCORE.INTER>
-31.4406

>  <SCORE.INTER.CONST>
1

>  <SCORE.INTER.POLAR>
0

>  <SCORE.INTER.ROT>
7

>  <SCORE.INTER.SOLV>
28.8729

>  <SCORE.INTER.VDW>
-38.8514

>  <SCORE.INTER.norm>
-1.20925

>  <SCORE.INTRA>
-0.00328845

>  <SCORE.INTRA.DIHEDRAL>
0.912478

>  <SCORE.INTRA.DIHEDRAL.0>
6.97628

>  <SCORE.INTRA.POLAR>
0

>  <SCORE.INTRA.POLAR.0>
0

>  <SCORE.INTRA.REPUL>
0

>  <SCORE.INTRA.REPUL.0>
0

>  <SCORE.INTRA.SOLV>
-0.17458

>  <SCORE.INTRA.SOLV.lig_0>
-49.8243

>  <SCORE.INTRA.VDW>
-0.372238

>  <SCORE.INTRA.VDW.0>
-1.35881

>  <SCORE.INTRA.norm>
-0.000126479

>  <SCORE.RESTR>
0.00234178

>  <SCORE.RESTR.CAVITY>
0.00234178

>  <SCORE.RESTR.norm>
9.00685e-05

>  <SCORE.SYSTEM>
0

>  <SCORE.SYSTEM.CONST>
0

>  <SCORE.SYSTEM.DIHEDRAL>
0

>  <SCORE.SYSTEM.SOLV>
0

>  <SCORE.SYSTEM.norm>
0

>  <SCORE.heavy>
26

>  <SCORE.norm>
-1.20929

>  <RMSD>
1.132

$$$$
ligand
 OpenBabel11021811483D
libRbt.so/2013.1/901 2013/11/27
 26 28  0  0  0  0  0  0  0  0999 V2000
   34.1784   18.1769   10.5987 N   0  0  0  0  0  0  0  0  0  0  0  0
   34.6271   17.8534    9.2501 C   0  0  2  0  0  0  0  0  0  0  0  0
   33.6573   18.3932    8.2050 C   0  0  0  0  0  0  0  0  0  0  0  0
   32.5549   17.8736    8.0358 O   0  0  0  0  0  0  0  0  0  0  0  0
   34.7853   16.3469    9.0873 C   0  0  0  0  0  0  0  0  0  0  0  0
   35.5220   15.9316    7.8206 C   0  0  0  0  0  0  0  0  0  0  0  0
   36.7776   14.6647    8.1315 S   0  0  0  0  0  0  0  0  0  0  0  0
   37.9233   15.9390    8.7160 C   0  0  0  0  0  0  0  0  0  0  0  0
   39.1236   16.1189    7.7939 C   0  0  1  0  0  0  0  0  0  0  0  0
   39.8572   14.9104    7.7142 O   0  0  0  0  0  0  0  0  0  0  0  0
   38.6942   16.4954    6.3852 C   0  0  1  0  0  0  0  0  0  0  0  0
   39.1782   17.7773    6.0614 O   0  0  0  0  0  0  0  0  0  0  0  0
   39.3170   15.4596    5.4723 C   0  0  1  0  0  0  0  0  0  0  0  0
   40.1489   16.0874    4.5246 O   0  0  0  0  0  0  0  0  0  0  0  0
   40.1403   14.5555    6.3736 C   0  0  2  0  0  0  0  0  0  0  0  0
   33.9538   19.3625    7.5055 O   0  0  0  0  0  0  0  0  0  0  0  0
   41.3861   10.0991    3.8926 N   0  0  0  0  0  0  0  0  0  0  0  0
   42.0394   11.3140    3.8391 C   0  0  0  0  0  0  0  0  0  0  0  0
   41.5669   12.3897    4.5646 N   0  0  0  0  0  0  0  0  0  0  0  0
   40.4578   12.2623    5.3332 C   0  0  0  0  0  0  0  0  0  0  0  0
   39.7867   11.0489    5.3995 C   0  0  0  0  0  0  0  0  0  0  0  0
   40.2562    9.9611    4.6732 C   0  0  0  0  0  0  0  0  0  0  0  0
   39.6209    8.7943    4.7283 N   0  0  0  0  0  0  0  0  0  0  0  0
   38.7313   11.2022    6.2282 N   0  0  0  0  0  0  0  0  0  0  0  0
   38.7181   12.4755    6.6851 C   0  0  0  0  0  0  0  0  0  0  0  0
   39.7826   13.1450    6.1389 N   0  0  0  0  0  0  0  0  0  0  0  0
  2  1  1  1  0  0  0
  2  3  1  0  0  0  0
  2  5  1  0  0  0  0
  3  4  1  0  0  0  0
  3 16  1  0  0  0  0
  5  6  1  0  0  0  0
  6  7  1  0  0  0  0
  7  8  1  0  0  0  0
  9  8  1  1  0  0  0
  9 10  1  0  0  0  0
  9 11  1  0  0  0  0
 10 15  1  0  0  0  0
 11 12  1  6  0  0  0
 11 13  1  0  0  0  0
 13 14  1  6  0  0  0
 13 15  1  0  0  0  0
 15 26  1  1  0  0  0
 17 18  2  0  0  0  0
 17 22  1  0  0  0  0
 18 19  1  0  0  0  0
 19 20  2  0  0  0  0
 20 21  1  0  0  0  0
 20 26  1  0  0  0  0
 21 22  2  0  0  0  0
 21 24  1  0  0  0  0
 22 23  1  0  0  0  0
 24 25  2  0  0  0  0
 25 26  1  0  0  0  0
M  END
>  <CHROM.1>
-72.53589755,-167.85517889,134.31537161,-80.33987952,-112.89912509,-60.81837450
-143.97517677,38.05482235,14.68143655,6.75967607,2.36618992,0.49478219,0.06710830

>  <Name>
ligand

>  <RI>
0

>  <Rbt.Current_Directory>
/home/itssahil/PROJECTS/Mol_Feturizer/New_Systems/rnas/3NPQ

>  <Rbt.Executable>
rbdock ($Id: //depot/dev/client3/rdock/2013.1/src/exe/rbdock.cxx#4 $)

>  <Rbt.Library>
libRbt.so (2013.1, Build901 2013/11/27)

>  <Rbt.Parameter_File>
/export/apps/rDock/src/rDock_2013.1_src/data/scripts/dock_solv.prm

>  <Rbt.Receptor>
prm/pocket_docking_2.prm

>  <SCORE>
-27.6452

>  <SCORE.INTER>
-27.9674

>  <SCORE.INTER.CONST>
1

>  <SCORE.INTER.POLAR>
0

>  <SCORE.INTER.ROT>
7

>  <SCORE.INTER.SOLV>
27.6921

>  <SCORE.INTER.VDW>
-36.1423

>  <SCORE.INTER.norm>
-1.07567

>  <SCORE.INTRA>
0.322167

>  <SCORE.INTRA.DIHEDRAL>
3.96432

>  <SCORE.INTRA.DIHEDRAL.0>
6.97628

>  <SCORE.INTRA.POLAR>
0

>  <SCORE.INTRA.POLAR.0>
0

>  <SCORE.INTRA.REPUL>
0

>  <SCORE.INTRA.REPUL.0>
0

>  <SCORE.INTRA.SOLV>
-0.598654

>  <SCORE.INTRA.SOLV.lig_0>
-49.8243

>  <SCORE.INTRA.VDW>
-1.36067

>  <SCORE.INTRA.VDW.0>
-1.35881

>  <SCORE.INTRA.norm>
0.0123911

>  <SCORE.RESTR>
0

>  <SCORE.RESTR.CAVITY>
0

>  <SCORE.RESTR.norm>
0

>  <SCORE.SYSTEM>
0

>  <SCORE.SYSTEM.CONST>
0

>  <SCORE.SYSTEM.DIHEDRAL>
0

>  <SCORE.SYSTEM.SOLV>
0

>  <SCORE.SYSTEM.norm>
0

>  <SCORE.heavy>
26

>  <SCORE.norm>
-1.06328

>  <RMSD>
1.167

$$$$
ligand
 OpenBabel11021811483D
libRbt.so/2013.1/901 2013/11/27
 26 28  0  0  0  0  0  0  0  0999 V2000
   34.1238   17.7499   10.3713 N   0  0  0  0  0  0  0  0  0  0  0  0
   34.9441   17.9669    9.1861 C   0  0  2  0  0  0  0  0  0  0  0  0
   34.7732   19.3847    8.6528 C   0  0  0  0  0  0  0  0  0  0  0  0
   33.7340   20.0139    8.8480 O   0  0  0  0  0  0  0  0  0  0  0  0
   34.5939   16.9552    8.1021 C   0  0  0  0  0  0  0  0  0  0  0  0
   34.8021   15.5039    8.5145 C   0  0  0  0  0  0  0  0  0  0  0  0
   36.4832   15.1846    9.1062 S   0  0  0  0  0  0  0  0  0  0  0  0
   37.0815   15.1507    7.3976 C   0  0  0  0  0  0  0  0  0  0  0  0
   38.6030   15.1539    7.3068 C   0  0  1  0  0  0  0  0  0  0  0  0
   39.1059   13.8579    7.5760 O   0  0  0  0  0  0  0  0  0  0  0  0
   39.0790   15.5582    5.9211 C   0  0  1  0  0  0  0  0  0  0  0  0
   39.8105   16.7590    5.9952 O   0  0  0  0  0  0  0  0  0  0  0  0
   39.9751   14.4330    5.4469 C   0  0  1  0  0  0  0  0  0  0  0  0
   41.2616   14.9282    5.1571 O   0  0  0  0  0  0  0  0  0  0  0  0
   40.0423   13.4446    6.5985 C   0  0  2  0  0  0  0  0  0  0  0  0
   35.6713   19.9346    8.0141 O   0  0  0  0  0  0  0  0  0  0  0  0
   41.3985    9.4849    3.4285 N   0  0  0  0  0  0  0  0  0  0  0  0
   42.0343   10.6990    3.5932 C   0  0  0  0  0  0  0  0  0  0  0  0
   41.5330   11.6315    4.4797 N   0  0  0  0  0  0  0  0  0  0  0  0
   40.4126   11.3633    5.1937 C   0  0  0  0  0  0  0  0  0  0  0  0
   39.7587   10.1482    5.0415 C   0  0  0  0  0  0  0  0  0  0  0  0
   40.2572    9.2040    4.1521 C   0  0  0  0  0  0  0  0  0  0  0  0
   39.6387    8.0371    3.9975 N   0  0  0  0  0  0  0  0  0  0  0  0
   38.6867   10.1472    5.8630 N   0  0  0  0  0  0  0  0  0  0  0  0
   38.6462   11.3251    6.5272 C   0  0  0  0  0  0  0  0  0  0  0  0
   39.7100   12.0896    6.1228 N   0  0  0  0  0  0  0  0  0  0  0  0
  2  1  1  1  0  0  0
  2  3  1  0  0  0  0
  2  5  1  0  0  0  0
  3  4  1  0  0  0  0
  3 16  1  0  0  0  0
  5  6  1  0  0  0  0
  6  7  1  0  0  0  0
  7  8  1  0  0  0  0
  9  8  1  6  0  0  0
  9 10  1  0  0  0  0
  9 11  1  0  0  0  0
 10 15  1  0  0  0  0
 11 12  1  1  0  0  0
 11 13  1  0  0  0  0
 13 14  1  1  0  0  0
 13 15  1  0  0  0  0
 15 26  1  6  0  0  0
 17 18  2  0  0  0  0
 17 22  1  0  0  0  0
 18 19  1  0  0  0  0
 19 20  2  0  0  0  0
 20 21  1  0  0  0  0
 20 26  1  0  0  0  0
 21 22  2  0  0  0  0
 21 24  1  0  0  0  0
 22 23  1  0  0  0  0
 24 25  2  0  0  0  0
 25 26  1  0  0  0  0
M  END
>  <CHROM.1>
-26.88443692,-59.93365020,-54.83080091,-77.92751315,169.26510028,78.24229056
-178.80092484,38.18008409,14.26414815,6.72736208,2.25443026,0.56248536,0.09344774

>  <Name>
ligand

>  <RI>
0

>  <Rbt.Current_Directory>
/home/itssahil/PROJECTS/Mol_Feturizer/New_Systems/rnas/3NPQ

>  <Rbt.Executable>
rbdock ($Id: //depot/dev/client3/rdock/2013.1/src/exe/rbdock.cxx#4 $)

>  <Rbt.Library>
libRbt.so (2013.1, Build901 2013/11/27)

>  <Rbt.Parameter_File>
/export/apps/rDock/src/rDock_2013.1_src/data/scripts/dock_solv.prm

>  <Rbt.Receptor>
prm/pocket_docking_4.prm

>  <SCORE>
-32.3058

>  <SCORE.INTER>
-30.7292

>  <SCORE.INTER.CONST>
1

>  <SCORE.INTER.POLAR>
0

>  <SCORE.INTER.ROT>
7

>  <SCORE.INTER.SOLV>
27.6263

>  <SCORE.INTER.VDW>
-37.9616

>  <SCORE.INTER.norm>
-1.18189

>  <SCORE.INTRA>
-1.57654

>  <SCORE.INTRA.DIHEDRAL>
-2.41407

>  <SCORE.INTRA.DIHEDRAL.0>
6.97628

>  <SCORE.INTRA.POLAR>
0

>  <SCORE.INTRA.POLAR.0>
0

>  <SCORE.INTRA.REPUL>
0

>  <SCORE.INTRA.REPUL.0>
0

>  <SCORE.INTRA.SOLV>
0.541836

>  <SCORE.INTRA.SOLV.lig_0>
-49.8243

>  <SCORE.INTRA.VDW>
-0.640428

>  <SCORE.INTRA.VDW.0>
-1.35881

>  <SCORE.INTRA.norm>
-0.0606363

>  <SCORE.RESTR>
0

>  <SCORE.RESTR.CAVITY>
0

>  <SCORE.RESTR.norm>
0

>  <SCORE.SYSTEM>
0

>  <SCORE.SYSTEM.CONST>
0

>  <SCORE.SYSTEM.DIHEDRAL>
0

>  <SCORE.SYSTEM.SOLV>
0

>  <SCORE.SYSTEM.norm>
0

>  <SCORE.heavy>
26

>  <SCORE.norm>
-1.24253

>  <RMSD>
1.170

$$$$
ligand
 OpenBabel11021811483D
libRbt.so/2013.1/901 2013/11/27
 26 28  0  0  0  0  0  0  0  0999 V2000
   34.1555   18.0571   10.9457 N   0  0  0  0  0  0  0  0  0  0  0  0
   34.9176   17.7284    9.7475 C   0  0  2  0  0  0  0  0  0  0  0  0
   35.1689   18.9700    8.8994 C   0  0  0  0  0  0  0  0  0  0  0  0
   36.2812   19.1991    8.4259 O   0  0  0  0  0  0  0  0  0  0  0  0
   34.1899   16.6725    8.9250 C   0  0  0  0  0  0  0  0  0  0  0  0
   35.0434   16.0330    7.8377 C   0  0  0  0  0  0  0  0  0  0  0  0
   36.4567   15.1226    8.5101 S   0  0  0  0  0  0  0  0  0  0  0  0
   37.3045   15.2551    6.9158 C   0  0  0  0  0  0  0  0  0  0  0  0
   38.8186   15.1330    7.0425 C   0  0  1  0  0  0  0  0  0  0  0  0
   39.1682   13.8086    7.4016 O   0  0  0  0  0  0  0  0  0  0  0  0
   39.5169   15.4587    5.7323 C   0  0  1  0  0  0  0  0  0  0  0  0
   40.3287   16.5981    5.8904 O   0  0  0  0  0  0  0  0  0  0  0  0
   40.3733   14.2520    5.4090 C   0  0  1  0  0  0  0  0  0  0  0  0
   41.7247   14.6336    5.2974 O   0  0  0  0  0  0  0  0  0  0  0  0
   40.1948   13.2940    6.5742 C   0  0  2  0  0  0  0  0  0  0  0  0
   34.2646   19.7733    8.6674 O   0  0  0  0  0  0  0  0  0  0  0  0
   41.4563    9.3193    3.3840 N   0  0  0  0  0  0  0  0  0  0  0  0
   42.1341   10.5069    3.5728 C   0  0  0  0  0  0  0  0  0  0  0  0
   41.6528   11.4483    4.4610 N   0  0  0  0  0  0  0  0  0  0  0  0
   40.5111   11.2150    5.1530 C   0  0  0  0  0  0  0  0  0  0  0  0
   39.8149   10.0269    4.9765 C   0  0  0  0  0  0  0  0  0  0  0  0
   40.2930    9.0739    4.0852 C   0  0  0  0  0  0  0  0  0  0  0  0
   39.6340    7.9328    3.9074 N   0  0  0  0  0  0  0  0  0  0  0  0
   38.7296   10.0577    5.7798 N   0  0  0  0  0  0  0  0  0  0  0  0
   38.7218   11.2293    6.4562 C   0  0  0  0  0  0  0  0  0  0  0  0
   39.8203   11.9575    6.0781 N   0  0  0  0  0  0  0  0  0  0  0  0
  2  1  1  1  0  0  0
  2  3  1  0  0  0  0
  2  5  1  0  0  0  0
  3  4  1  0  0  0  0
  3 16  1  0  0  0  0
  5  6  1  0  0  0  0
  6  7  1  0  0  0  0
  7  8  1  0  0  0  0
  9  8  1  6  0  0  0
  9 10  1  0  0  0  0
  9 11  1  0  0  0  0
 10 15  1  0  0  0  0
 11 12  1  1  0  0  0
 11 13  1  0  0  0  0
 13 14  1  1  0  0  0
 13 15  1  0  0  0  0
 15 26  1  6  0  0  0
 17 18  2  0  0  0  0
 17 22  1  0  0  0  0
 18 19  1  0  0  0  0
 19 20  2  0  0  0  0
 20 21  1  0  0  0  0
 20 26  1  0  0  0  0
 21 22  2  0  0  0  0
 21 24  1  0  0  0  0
 22 23  1  0  0  0  0
 24 25  2  0  0  0  0
 25 26  1  0  0  0  0
M  END
>  <CHROM.1>
134.61620529,-166.55166381,63.08617195,-158.56246148,156.47968688,69.20292542
173.34709157,38.35174986,14.13588377,6.67982800,2.21900608,0.49641793,0.18734727

>  <Name>
ligand

>  <RI>
0

>  <Rbt.Current_Directory>
/home/itssahil/PROJECTS/Mol_Feturizer/New_Systems/rnas/3NPQ

>  <Rbt.Executable>
rbdock ($Id: //depot/dev/client3/rdock/2013.1/src/exe/rbdock.cxx#4 $)

>  <Rbt.Library>
libRbt.so (2013.1, Build901 2013/11/27)

>  <Rbt.Parameter_File>
/export/apps/rDock/src/rDock_2013.1_src/data/scripts/dock_solv.prm

>  <Rbt.Receptor>
prm/pocket_docking_3.prm

>  <SCORE>
-31.7524

>  <SCORE.INTER>
-29.2858

>  <SCORE.INTER.CONST>
1

>  <SCORE.INTER.POLAR>
0

>  <SCORE.INTER.ROT>
7

>  <SCORE.INTER.SOLV>
29.9308

>  <SCORE.INTER.VDW>
-37.7675

>  <SCORE.INTER.norm>
-1.12638

>  <SCORE.INTRA>
-2.46658

>  <SCORE.INTRA.DIHEDRAL>
-1.8178

>  <SCORE.INTRA.DIHEDRAL.0>
6.97628

>  <SCORE.INTRA.POLAR>
0

>  <SCORE.INTRA.POLAR.0>
0

>  <SCORE.INTRA.REPUL>
0

>  <SCORE.INTRA.REPUL.0>
0

>  <SCORE.INTRA.SOLV>
-0.662601

>  <SCORE.INTRA.SOLV.lig_0>
-49.8243

>  <SCORE.INTRA.VDW>
-1.22638

>  <SCORE.INTRA.VDW.0>
-1.35881

>  <SCORE.INTRA.norm>
-0.0948683

>  <SCORE.RESTR>
0

>  <SCORE.RESTR.CAVITY>
0

>  <SCORE.RESTR.norm>
0

>  <SCORE.SYSTEM>
0

>  <SCORE.SYSTEM.CONST>
0

>  <SCORE.SYSTEM.DIHEDRAL>
0

>  <SCORE.SYSTEM.SOLV>
0

>  <SCORE.SYSTEM.norm>
0

>  <SCORE.heavy>
26

>  <SCORE.norm>
-1.22124

>  <RMSD>
1.187

$$$$
ligand
 OpenBabel11021811483D
libRbt.so/2013.1/901 2013/11/27
 26 28  0  0  0  0  0  0  0  0999 V2000
   34.0736   18.0533   10.8804 N   0  0  0  0  0  0  0  0  0  0  0  0
   34.8144   17.7665    9.6583 C   0  0  2  0  0  0  0  0  0  0  0  0
   34.9414   19.0121    8.7887 C   0  0  0  0  0  0  0  0  0  0  0  0
   36.0258   19.3427    8.3103 O   0  0  0  0  0  0  0  0  0  0  0  0
   34.1384   16.6487    8.8743 C   0  0  0  0  0  0  0  0  0  0  0  0
   35.0232   16.0106    7.8114 C   0  0  0  0  0  0  0  0  0  0  0  0
   36.4549   15.1584    8.5202 S   0  0  0  0  0  0  0  0  0  0  0  0
   37.3113   15.2669    6.9287 C   0  0  0  0  0  0  0  0  0  0  0  0
   38.8236   15.1321    7.0639 C   0  0  1  0  0  0  0  0  0  0  0  0
   39.1607   13.8027    7.4160 O   0  0  0  0  0  0  0  0  0  0  0  0
   39.5325   15.4613    5.7602 C   0  0  1  0  0  0  0  0  0  0  0  0
   40.3521   16.5933    5.9311 O   0  0  0  0  0  0  0  0  0  0  0  0
   40.3814   14.2502    5.4339 C   0  0  1  0  0  0  0  0  0  0  0  0
   41.7364   14.6220    5.3332 O   0  0  0  0  0  0  0  0  0  0  0  0
   40.1884   13.2857    6.5914 C   0  0  2  0  0  0  0  0  0  0  0  0
   33.9617   19.7171    8.5436 O   0  0  0  0  0  0  0  0  0  0  0  0
   41.4594    9.3058    3.4115 N   0  0  0  0  0  0  0  0  0  0  0  0
   42.1483   10.4843    3.6168 C   0  0  0  0  0  0  0  0  0  0  0  0
   41.6623   11.4288    4.4992 N   0  0  0  0  0  0  0  0  0  0  0  0
   40.5051   11.2075    5.1692 C   0  0  0  0  0  0  0  0  0  0  0  0
   39.7977   10.0288    4.9758 C   0  0  0  0  0  0  0  0  0  0  0  0
   40.2804    9.0727    4.0902 C   0  0  0  0  0  0  0  0  0  0  0  0
   39.6108    7.9404    3.8963 N   0  0  0  0  0  0  0  0  0  0  0  0
   38.6982   10.0705    5.7590 N   0  0  0  0  0  0  0  0  0  0  0  0
   38.6924   11.2399    6.4391 C   0  0  0  0  0  0  0  0  0  0  0  0
   39.8066   11.9556    6.0839 N   0  0  0  0  0  0  0  0  0  0  0  0
  2  1  1  1  0  0  0
  2  3  1  0  0  0  0
  2  5  1  0  0  0  0
  3  4  1  0  0  0  0
  3 16  1  0  0  0  0
  5  6  1  0  0  0  0
  6  7  1  0  0  0  0
  7  8  1  0  0  0  0
  9  8  1  6  0  0  0
  9 10  1  0  0  0  0
  9 11  1  0  0  0  0
 10 15  1  0  0  0  0
 11 12  1  1  0  0  0
 11 13  1  0  0  0  0
 13 14  1  1  0  0  0
 13 15  1  0  0  0  0
 15 26  1  6  0  0  0
 17 18  2  0  0  0  0
 17 22  1  0  0  0  0
 18 19  1  0  0  0  0
 19 20  2  0  0  0  0
 20 21  1  0  0  0  0
 20 26  1  0  0  0  0
 21 22  2  0  0  0  0
 21 24  1  0  0  0  0
 22 23  1  0  0  0  0
 24 25  2  0  0  0  0
 25 26  1  0  0  0  0
M  END
>  <CHROM.1>
132.05099998,-163.49675383,64.44120133,-159.03366080,158.81728888,70.17996318
174.13048449,38.30969768,14.14152834,6.66904483,2.22550415,0.47442940,0.18593930

>  <Name>
ligand

>  <RI>
0

>  <Rbt.Current_Directory>
/home/itssahil/PROJECTS/Mol_Feturizer/New_Systems/rnas/3NPQ

>  <Rbt.Executable>
rbdock ($Id: //depot/dev/client3/rdock/2013.1/src/exe/rbdock.cxx#4 $)

>  <Rbt.Library>
libRbt.so (2013.1, Build901 2013/11/27)

>  <Rbt.Parameter_File>
/export/apps/rDock/src/rDock_2013.1_src/data/scripts/dock_solv.prm

>  <Rbt.Receptor>
prm/pocket_docking_3.prm

>  <SCORE>
-31.6046

>  <SCORE.INTER>
-29.2663

>  <SCORE.INTER.CONST>
1

>  <SCORE.INTER.POLAR>
0

>  <SCORE.INTER.ROT>
7

>  <SCORE.INTER.SOLV>
29.9024

>  <SCORE.INTER.VDW>
-37.745

>  <SCORE.INTER.norm>
-1.12563

>  <SCORE.INTRA>
-2.3434

>  <SCORE.INTRA.DIHEDRAL>
-1.54975

>  <SCORE.INTRA.DIHEDRAL.0>
6.97628

>  <SCORE.INTRA.POLAR>
0

>  <SCORE.INTRA.POLAR.0>
0

>  <SCORE.INTRA.REPUL>
0

>  <SCORE.INTRA.REPUL.0>
0

>  <SCORE.INTRA.SOLV>
-0.65375

>  <SCORE.INTRA.SOLV.lig_0>
-49.8243

>  <SCORE.INTRA.VDW>
-1.24166

>  <SCORE.INTRA.VDW.0>
-1.35881

>  <SCORE.INTRA.norm>
-0.090131

>  <SCORE.RESTR>
0.00514861

>  <SCORE.RESTR.CAVITY>
0.00514861

>  <SCORE.RESTR.norm>
0.000198023

>  <SCORE.SYSTEM>
0

>  <SCORE.SYSTEM.CONST>
0

>  <SCORE.SYSTEM.DIHEDRAL>
0

>  <SCORE.SYSTEM.SOLV>
0

>  <SCORE.SYSTEM.norm>
0

>  <SCORE.heavy>
26

>  <SCORE.norm>
-1.21556

>  <RMSD>
1.195

$$$$
ligand
 OpenBabel11021811483D
libRbt.so/2013.1/901 2013/11/27
 26 28  0  0  0  0  0  0  0  0999 V2000
   33.8139   18.4785   10.5129 N   0  0  0  0  0  0  0  0  0  0  0  0
   35.0827   18.2403    9.8361 C   0  0  2  0  0  0  0  0  0  0  0  0
   35.2714   19.2034    8.6695 C   0  0  0  0  0  0  0  0  0  0  0  0
   34.3031   19.6892    8.0863 O   0  0  0  0  0  0  0  0  0  0  0  0
   35.1628   16.8009    9.3435 C   0  0  0  0  0  0  0  0  0  0  0  0
   36.5150   16.4184    8.7560 C   0  0  0  0  0  0  0  0  0  0  0  0
   36.5548   14.7088    8.1609 S   0  0  0  0  0  0  0  0  0  0  0  0
   37.4453   15.2425    6.6776 C   0  0  0  0  0  0  0  0  0  0  0  0
   38.9565   15.0982    6.8147 C   0  0  1  0  0  0  0  0  0  0  0  0
   39.2825   13.7762    7.2034 O   0  0  0  0  0  0  0  0  0  0  0  0
   39.6664   15.3846    5.5015 C   0  0  1  0  0  0  0  0  0  0  0  0
   40.4961   16.5136    5.6397 O   0  0  0  0  0  0  0  0  0  0  0  0
   40.5042   14.1574    5.2081 C   0  0  1  0  0  0  0  0  0  0  0  0
   41.8623   14.5143    5.0955 O   0  0  0  0  0  0  0  0  0  0  0  0
   40.3043   13.2274    6.3924 C   0  0  2  0  0  0  0  0  0  0  0  0
   36.3976   19.5186    8.2832 O   0  0  0  0  0  0  0  0  0  0  0  0
   41.5495    9.1380    3.3438 N   0  0  0  0  0  0  0  0  0  0  0  0
   42.2510   10.3140    3.5183 C   0  0  0  0  0  0  0  0  0  0  0  0
   41.7703   11.2905    4.3681 N   0  0  0  0  0  0  0  0  0  0  0  0
   40.6060   11.1033    5.0361 C   0  0  0  0  0  0  0  0  0  0  0  0
   39.8859    9.9276    4.8734 C   0  0  0  0  0  0  0  0  0  0  0  0
   40.3632    8.9395    4.0208 C   0  0  0  0  0  0  0  0  0  0  0  0
   39.6813    7.8098    3.8564 N   0  0  0  0  0  0  0  0  0  0  0  0
   38.7816   10.0060    5.6470 N   0  0  0  0  0  0  0  0  0  0  0  0
   38.7850   11.1956    6.2913 C   0  0  0  0  0  0  0  0  0  0  0  0
   39.9102   11.8870    5.9227 N   0  0  0  0  0  0  0  0  0  0  0  0
  2  1  1  6  0  0  0
  2  3  1  0  0  0  0
  2  5  1  0  0  0  0
  3  4  1  0  0  0  0
  3 16  1  0  0  0  0
  5  6  1  0  0  0  0
  6  7  1  0  0  0  0
  7  8  1  0  0  0  0
  9  8  1  6  0  0  0
  9 10  1  0  0  0  0
  9 11  1  0  0  0  0
 10 15  1  0  0  0  0
 11 12  1  1  0  0  0
 11 13  1  0  0  0  0
 13 14  1  1  0  0  0
 13 15  1  0  0  0  0
 15 26  1  6  0  0  0
 17 18  2  0  0  0  0
 17 22  1  0  0  0  0
 18 19  1  0  0  0  0
 19 20  2  0  0  0  0
 20 21  1  0  0  0  0
 20 26  1  0  0  0  0
 21 22  2  0  0  0  0
 21 24  1  0  0  0  0
 22 23  1  0  0  0  0
 24 25  2  0  0  0  0
 25 26  1  0  0  0  0
M  END
>  <CHROM.1>
-26.68018783,-173.74276911,-179.10436929,137.22931368,95.03459854,53.26245283
174.65997234,38.52402837,14.11070709,6.54909658,2.20444709,0.53839248,0.15181792

>  <Name>
ligand

>  <RI>
0

>  <Rbt.Current_Directory>
/home/itssahil/PROJECTS/Mol_Feturizer/New_Systems/rnas/3NPQ

>  <Rbt.Executable>
rbdock ($Id: //depot/dev/client3/rdock/2013.1/src/exe/rbdock.cxx#4 $)

>  <Rbt.Library>
libRbt.so (2013.1, Build901 2013/11/27)

>  <Rbt.Parameter_File>
/export/apps/rDock/src/rDock_2013.1_src/data/scripts/dock_solv.prm

>  <Rbt.Receptor>
prm/pocket_docking_2.prm

>  <SCORE>
-29.5036

>  <SCORE.INTER>
-28.0546

>  <SCORE.INTER.CONST>
1

>  <SCORE.INTER.POLAR>
0

>  <SCORE.INTER.ROT>
7

>  <SCORE.INTER.SOLV>
29.0547

>  <SCORE.INTER.VDW>
-36.6546

>  <SCORE.INTER.norm>
-1.07902

>  <SCORE.INTRA>
-1.53728

>  <SCORE.INTRA.DIHEDRAL>
-0.541574

>  <SCORE.INTRA.DIHEDRAL.0>
6.97628

>  <SCORE.INTRA.POLAR>
0

>  <SCORE.INTRA.POLAR.0>
0

>  <SCORE.INTRA.REPUL>
0

>  <SCORE.INTRA.REPUL.0>
0

>  <SCORE.INTRA.SOLV>
-0.806452

>  <SCORE.INTRA.SOLV.lig_0>
-49.8243

>  <SCORE.INTRA.VDW>
-0.863267

>  <SCORE.INTRA.VDW.0>
-1.35881

>  <SCORE.INTRA.norm>
-0.0591261

>  <SCORE.RESTR>
0.0883067

>  <SCORE.RESTR.CAVITY>
0.0883067

>  <SCORE.RESTR.norm>
0.00339641

>  <SCORE.SYSTEM>
0

>  <SCORE.SYSTEM.CONST>
0

>  <SCORE.SYSTEM.DIHEDRAL>
0

>  <SCORE.SYSTEM.SOLV>
0

>  <SCORE.SYSTEM.norm>
0

>  <SCORE.heavy>
26

>  <SCORE.norm>
-1.13475

>  <RMSD>
1.196

$$$$
ligand
 OpenBabel11021811483D
libRbt.so/2013.1/901 2013/11/27
 26 28  0  0  0  0  0  0  0  0999 V2000
   34.1374   18.2621   10.5578 N   0  0  0  0  0  0  0  0  0  0  0  0
   34.8356   17.7714    9.3762 C   0  0  2  0  0  0  0  0  0  0  0  0
   34.8278   18.8123    8.2625 C   0  0  0  0  0  0  0  0  0  0  0  0
   35.7440   18.8702    7.4432 O   0  0  0  0  0  0  0  0  0  0  0  0
   34.2051   16.4748    8.8837 C   0  0  0  0  0  0  0  0  0  0  0  0
   35.0349   15.7353    7.8424 C   0  0  0  0  0  0  0  0  0  0  0  0
   36.5784   15.0782    8.5237 S   0  0  0  0  0  0  0  0  0  0  0  0
   37.3587   15.2147    6.8956 C   0  0  0  0  0  0  0  0  0  0  0  0
   38.8777   15.1057    6.9601 C   0  0  1  0  0  0  0  0  0  0  0  0
   39.2529   13.7879    7.3173 O   0  0  0  0  0  0  0  0  0  0  0  0
   39.5180   15.4235    5.6187 C   0  0  1  0  0  0  0  0  0  0  0  0
   40.3263   16.5707    5.7314 O   0  0  0  0  0  0  0  0  0  0  0  0
   40.3700   14.2202    5.2717 C   0  0  1  0  0  0  0  0  0  0  0  0
   41.7124   14.6112    5.1000 O   0  0  0  0  0  0  0  0  0  0  0  0
   40.2482   13.2728    6.4528 C   0  0  2  0  0  0  0  0  0  0  0  0
   33.9041   19.6200    8.1557 O   0  0  0  0  0  0  0  0  0  0  0  0
   41.4769    9.2241    3.3439 N   0  0  0  0  0  0  0  0  0  0  0  0
   42.1624   10.4113    3.5057 C   0  0  0  0  0  0  0  0  0  0  0  0
   41.6892   11.3741    4.3752 N   0  0  0  0  0  0  0  0  0  0  0  0
   40.5480   11.1624    5.0750 C   0  0  0  0  0  0  0  0  0  0  0  0
   39.8443    9.9751    4.9255 C   0  0  0  0  0  0  0  0  0  0  0  0
   40.3141    9.0007    4.0532 C   0  0  0  0  0  0  0  0  0  0  0  0
   39.6478    7.8600    3.9012 N   0  0  0  0  0  0  0  0  0  0  0  0
   38.7614   10.0294    5.7308 N   0  0  0  0  0  0  0  0  0  0  0  0
   38.7625   11.2151    6.3823 C   0  0  0  0  0  0  0  0  0  0  0  0
   39.8643   11.9284    5.9860 N   0  0  0  0  0  0  0  0  0  0  0  0
  2  1  1  1  0  0  0
  2  3  1  0  0  0  0
  2  5  1  0  0  0  0
  3  4  1  0  0  0  0
  3 16  1  0  0  0  0
  5  6  1  0  0  0  0
  6  7  1  0  0  0  0
  7  8  1  0  0  0  0
  9  8  1  6  0  0  0
  9 10  1  0  0  0  0
  9 11  1  0  0  0  0
 10 15  1  0  0  0  0
 11 12  1  1  0  0  0
 11 13  1  0  0  0  0
 13 14  1  1  0  0  0
 13 15  1  0  0  0  0
 15 26  1  6  0  0  0
 17 18  2  0  0  0  0
 17 22  1  0  0  0  0
 18 19  1  0  0  0  0
 19 20  2  0  0  0  0
 20 21  1  0  0  0  0
 20 26  1  0  0  0  0
 21 22  2  0  0  0  0
 21 24  1  0  0  0  0
 22 23  1  0  0  0  0
 24 25  2  0  0  0  0
 25 26  1  0  0  0  0
M  END
>  <CHROM.1>
150.37897111,-167.79856115,67.52241122,-151.58494070,164.93000440,68.72811047
175.80875654,38.32900535,14.06822716,6.51300987,2.25360611,0.49950847,0.13318776

>  <Name>
ligand

>  <RI>
0

>  <Rbt.Current_Directory>
/home/itssahil/PROJECTS/Mol_Feturizer/New_Systems/rnas/3NPQ

>  <Rbt.Executable>
rbdock ($Id: //depot/dev/client3/rdock/2013.1/src/exe/rbdock.cxx#4 $)

>  <Rbt.Library>
libRbt.so (2013.1, Build901 2013/11/27)

>  <Rbt.Parameter_File>
/export/apps/rDock/src/rDock_2013.1_src/data/scripts/dock_solv.prm

>  <Rbt.Receptor>
prm/pocket_docking_2.prm

>  <SCORE>
-31.0346

>  <SCORE.INTER>
-28.5209

>  <SCORE.INTER.CONST>
1

>  <SCORE.INTER.POLAR>
0

>  <SCORE.INTER.ROT>
7

>  <SCORE.INTER.SOLV>
29.0595

>  <SCORE.INTER.VDW>
-36.9671

>  <SCORE.INTER.norm>
-1.09696

>  <SCORE.INTRA>
-2.51374

>  <SCORE.INTRA.DIHEDRAL>
-1.81442

>  <SCORE.INTRA.DIHEDRAL.0>
6.97628

>  <SCORE.INTRA.POLAR>
0

>  <SCORE.INTRA.POLAR.0>
0

>  <SCORE.INTRA.REPUL>
0

>  <SCORE.INTRA.REPUL.0>
0

>  <SCORE.INTRA.SOLV>
-0.698503

>  <SCORE.INTRA.SOLV.lig_0>
-49.8243

>  <SCORE.INTRA.VDW>
-1.25728

>  <SCORE.INTRA.VDW.0>
-1.35881

>  <SCORE.INTRA.norm>
-0.0966823

>  <SCORE.RESTR>
0

>  <SCORE.RESTR.CAVITY>
0

>  <SCORE.RESTR.norm>
0

>  <SCORE.SYSTEM>
0

>  <SCORE.SYSTEM.CONST>
0

>  <SCORE.SYSTEM.DIHEDRAL>
0

>  <SCORE.SYSTEM.SOLV>
0

>  <SCORE.SYSTEM.norm>
0

>  <SCORE.heavy>
26

>  <SCORE.norm>
-1.19364

>  <RMSD>
1.211

$$$$
ligand
 OpenBabel11021811483D
libRbt.so/2013.1/901 2013/11/27
 26 28  0  0  0  0  0  0  0  0999 V2000
   35.8183   17.3643    7.5358 N   0  0  0  0  0  0  0  0  0  0  0  0
   34.5843   16.6784    7.8980 C   0  0  2  0  0  0  0  0  0  0  0  0
   33.6928   17.5694    8.7556 C   0  0  0  0  0  0  0  0  0  0  0  0
   34.1062   18.0528    9.8089 O   0  0  0  0  0  0  0  0  0  0  0  0
   34.8914   15.3815    8.6361 C   0  0  0  0  0  0  0  0  0  0  0  0
   36.3392   15.2519    9.0910 C   0  0  0  0  0  0  0  0  0  0  0  0
   37.4313   14.6636    7.7721 S   0  0  0  0  0  0  0  0  0  0  0  0
   38.7256   15.7984    8.3333 C   0  0  0  0  0  0  0  0  0  0  0  0
   39.9402   15.8073    7.4124 C   0  0  1  0  0  0  0  0  0  0  0  0
   40.5094   14.5122    7.3508 O   0  0  0  0  0  0  0  0  0  0  0  0
   39.5656   16.2178    5.9977 C   0  0  1  0  0  0  0  0  0  0  0  0
   40.2136   17.4209    5.6586 O   0  0  0  0  0  0  0  0  0  0  0  0
   40.0485   15.0973    5.1003 C   0  0  1  0  0  0  0  0  0  0  0  0
   40.9566   15.5981    4.1470 O   0  0  0  0  0  0  0  0  0  0  0  0
   40.7453   14.1054    6.0158 C   0  0  2  0  0  0  0  0  0  0  0  0
   32.5378   17.8270    8.4146 O   0  0  0  0  0  0  0  0  0  0  0  0
   41.3889    9.4983    3.5811 N   0  0  0  0  0  0  0  0  0  0  0  0
   42.1942   10.6174    3.5114 C   0  0  0  0  0  0  0  0  0  0  0  0
   41.8691   11.7532    4.2263 N   0  0  0  0  0  0  0  0  0  0  0  0
   40.7569   11.7792    5.0004 C   0  0  0  0  0  0  0  0  0  0  0  0
   39.9342   10.6640    5.0830 C   0  0  0  0  0  0  0  0  0  0  0  0
   40.2548    9.5167    4.3674 C   0  0  0  0  0  0  0  0  0  0  0  0
   39.4736    8.4429    4.4382 N   0  0  0  0  0  0  0  0  0  0  0  0
   38.9120   10.9621    5.9138 N   0  0  0  0  0  0  0  0  0  0  0  0
   39.0665   12.2312    6.3562 C   0  0  0  0  0  0  0  0  0  0  0  0
   40.2062   12.7508    5.7985 N   0  0  0  0  0  0  0  0  0  0  0  0
  2  1  1  1  0  0  0
  2  3  1  0  0  0  0
  2  5  1  0  0  0  0
  3  4  1  0  0  0  0
  3 16  1  0  0  0  0
  5  6  1  0  0  0  0
  6  7  1  0  0  0  0
  7  8  1  0  0  0  0
  9  8  1  1  0  0  0
  9 10  1  0  0  0  0
  9 11  1  0  0  0  0
 10 15  1  0  0  0  0
 11 12  1  6  0  0  0
 11 13  1  0  0  0  0
 13 14  1  6  0  0  0
 13 15  1  0  0  0  0
 15 26  1  1  0  0  0
 17 18  2  0  0  0  0
 17 22  1  0  0  0  0
 18 19  1  0  0  0  0
 19 20  2  0  0  0  0
 20 21  1  0  0  0  0
 20 26  1  0  0  0  0
 21 22  2  0  0  0  0
 21 24  1  0  0  0  0
 22 23  1  0  0  0  0
 24 25  2  0  0  0  0
 25 26  1  0  0  0  0
M  END
>  <CHROM.1>
-56.47273921,12.76352611,-82.40526344,141.04110760,-174.44622197,-60.18272173
-144.37250948,38.51181720,14.20265810,6.50420787,-2.34330727,-0.43304065
-2.94523131

>  <Name>
ligand

>  <RI>
0

>  <Rbt.Current_Directory>
/home/itssahil/PROJECTS/Mol_Feturizer/New_Systems/rnas/3NPQ

>  <Rbt.Executable>
rbdock ($Id: //depot/dev/client3/rdock/2013.1/src/exe/rbdock.cxx#4 $)

>  <Rbt.Library>
libRbt.so (2013.1, Build901 2013/11/27)

>  <Rbt.Parameter_File>
/export/apps/rDock/src/rDock_2013.1_src/data/scripts/dock_solv.prm

>  <Rbt.Receptor>
prm/pocket_docking_4.prm

>  <SCORE>
-25.7499

>  <SCORE.INTER>
-28.4613

>  <SCORE.INTER.CONST>
1

>  <SCORE.INTER.POLAR>
0

>  <SCORE.INTER.ROT>
7

>  <SCORE.INTER.SOLV>
21.452

>  <SCORE.INTER.VDW>
-34.3916

>  <SCORE.INTER.norm>
-1.09467

>  <SCORE.INTRA>
2.71147

>  <SCORE.INTRA.DIHEDRAL>
4.39504

>  <SCORE.INTRA.DIHEDRAL.0>
6.97628

>  <SCORE.INTRA.POLAR>
0

>  <SCORE.INTRA.POLAR.0>
0

>  <SCORE.INTRA.REPUL>
0

>  <SCORE.INTRA.REPUL.0>
0

>  <SCORE.INTRA.SOLV>
2.58692

>  <SCORE.INTRA.SOLV.lig_0>
-49.8243

>  <SCORE.INTRA.VDW>
-0.77951

>  <SCORE.INTRA.VDW.0>
-1.35881

>  <SCORE.INTRA.norm>
0.104287

>  <SCORE.RESTR>
0

>  <SCORE.RESTR.CAVITY>
0

>  <SCORE.RESTR.norm>
0

>  <SCORE.SYSTEM>
0

>  <SCORE.SYSTEM.CONST>
0

>  <SCORE.SYSTEM.DIHEDRAL>
0

>  <SCORE.SYSTEM.SOLV>
0

>  <SCORE.SYSTEM.norm>
0

>  <SCORE.heavy>
26

>  <SCORE.norm>
-0.99038

>  <RMSD>
1.227

$$$$
ligand
 OpenBabel11021811483D
libRbt.so/2013.1/901 2013/11/27
 26 28  0  0  0  0  0  0  0  0999 V2000
   34.7699   17.8403   10.4426 N   0  0  0  0  0  0  0  0  0  0  0  0
   34.7801   17.5611    9.0120 C   0  0  2  0  0  0  0  0  0  0  0  0
   33.7481   18.4114    8.2799 C   0  0  0  0  0  0  0  0  0  0  0  0
   34.0367   19.5278    7.8508 O   0  0  0  0  0  0  0  0  0  0  0  0
   34.5163   16.0828    8.7548 C   0  0  0  0  0  0  0  0  0  0  0  0
   35.5589   15.1504    9.3575 C   0  0  0  0  0  0  0  0  0  0  0  0
   36.8207   14.6523    8.1582 S   0  0  0  0  0  0  0  0  0  0  0  0
   37.8799   16.0167    8.7013 C   0  0  0  0  0  0  0  0  0  0  0  0
   39.1138   16.1892    7.8232 C   0  0  1  0  0  0  0  0  0  0  0  0
   39.8396   14.9747    7.7656 O   0  0  0  0  0  0  0  0  0  0  0  0
   38.7383   16.5737    6.4015 C   0  0  1  0  0  0  0  0  0  0  0  0
   39.2442   17.8525    6.0996 O   0  0  0  0  0  0  0  0  0  0  0  0
   39.3844   15.5355    5.5078 C   0  0  1  0  0  0  0  0  0  0  0  0
   40.2549   16.1591    4.5926 O   0  0  0  0  0  0  0  0  0  0  0  0
   40.1674   14.6216    6.4348 C   0  0  2  0  0  0  0  0  0  0  0  0
   32.6009   18.0010    8.0999 O   0  0  0  0  0  0  0  0  0  0  0  0
   41.3826   10.2035    3.8715 N   0  0  0  0  0  0  0  0  0  0  0  0
   42.0357   11.4188    3.8292 C   0  0  0  0  0  0  0  0  0  0  0  0
   41.5721   12.4835    4.5765 N   0  0  0  0  0  0  0  0  0  0  0  0
   40.4719   12.3445    5.3557 C   0  0  0  0  0  0  0  0  0  0  0  0
   39.8011   11.1304    5.4111 C   0  0  0  0  0  0  0  0  0  0  0  0
   40.2617   10.0538    4.6628 C   0  0  0  0  0  0  0  0  0  0  0  0
   39.6266    8.8864    4.7073 N   0  0  0  0  0  0  0  0  0  0  0  0
   38.7554   11.2713    6.2541 N   0  0  0  0  0  0  0  0  0  0  0  0
   38.7479   12.5374    6.7307 C   0  0  0  0  0  0  0  0  0  0  0  0
   39.8064   13.2149    6.1826 N   0  0  0  0  0  0  0  0  0  0  0  0
  2  1  1  1  0  0  0
  2  3  1  0  0  0  0
  2  5  1  0  0  0  0
  3  4  1  0  0  0  0
  3 16  1  0  0  0  0
  5  6  1  0  0  0  0
  6  7  1  0  0  0  0
  7  8  1  0  0  0  0
  9  8  1  1  0  0  0
  9 10  1  0  0  0  0
  9 11  1  0  0  0  0
 10 15  1  0  0  0  0
 11 12  1  6  0  0  0
 11 13  1  0  0  0  0
 13 14  1  6  0  0  0
 13 15  1  0  0  0  0
 15 26  1  6  0  0  0
 17 18  2  0  0  0  0
 17 22  1  0  0  0  0
 18 19  1  0  0  0  0
 19 20  2  0  0  0  0
 20 21  1  0  0  0  0
 20 26  1  0  0  0  0
 21 22  2  0  0  0  0
 21 24  1  0  0  0  0
 22 23  1  0  0  0  0
 24 25  2  0  0  0  0
 25 26  1  0  0  0  0
M  END
>  <CHROM.1>
88.91839788,-61.37344720,-96.90843881,93.54727827,-172.18084756,-55.55627698
-146.80434587,38.09902540,14.68322237,6.82720181,2.38330279,0.52419461,0.05301447

>  <Name>
ligand

>  <RI>
0

>  <Rbt.Current_Directory>
/home/itssahil/PROJECTS/Mol_Feturizer/New_Systems/rnas/3NPQ

>  <Rbt.Executable>
rbdock ($Id: //depot/dev/client3/rdock/2013.1/src/exe/rbdock.cxx#4 $)

>  <Rbt.Library>
libRbt.so (2013.1, Build901 2013/11/27)

>  <Rbt.Parameter_File>
/export/apps/rDock/src/rDock_2013.1_src/data/scripts/dock_solv.prm

>  <Rbt.Receptor>
prm/pocket_docking_3.prm

>  <SCORE>
-30.0103

>  <SCORE.INTER>
-29.6743

>  <SCORE.INTER.CONST>
1

>  <SCORE.INTER.POLAR>
0

>  <SCORE.INTER.ROT>
7

>  <SCORE.INTER.SOLV>
25.525

>  <SCORE.INTER.VDW>
-36.5579

>  <SCORE.INTER.norm>
-1.14132

>  <SCORE.INTRA>
-0.335972

>  <SCORE.INTRA.DIHEDRAL>
1.03345

>  <SCORE.INTRA.DIHEDRAL.0>
6.97628

>  <SCORE.INTRA.POLAR>
0

>  <SCORE.INTRA.POLAR.0>
0

>  <SCORE.INTRA.REPUL>
0

>  <SCORE.INTRA.REPUL.0>
0

>  <SCORE.INTRA.SOLV>
0.659862

>  <SCORE.INTRA.SOLV.lig_0>
-49.8243

>  <SCORE.INTRA.VDW>
-1.18263

>  <SCORE.INTRA.VDW.0>
-1.35881

>  <SCORE.INTRA.norm>
-0.012922

>  <SCORE.RESTR>
0

>  <SCORE.RESTR.CAVITY>
0

>  <SCORE.RESTR.norm>
0

>  <SCORE.SYSTEM>
0

>  <SCORE.SYSTEM.CONST>
0

>  <SCORE.SYSTEM.DIHEDRAL>
0

>  <SCORE.SYSTEM.SOLV>
0

>  <SCORE.SYSTEM.norm>
0

>  <SCORE.heavy>
26

>  <SCORE.norm>
-1.15424

>  <RMSD>
1.234

$$$$
ligand
 OpenBabel11021811483D
libRbt.so/2013.1/901 2013/11/27
 26 28  0  0  0  0  0  0  0  0999 V2000
   34.1222   18.2414   10.5688 N   0  0  0  0  0  0  0  0  0  0  0  0
   34.8239   17.7445    9.3918 C   0  0  2  0  0  0  0  0  0  0  0  0
   34.7981   18.7700    8.2642 C   0  0  0  0  0  0  0  0  0  0  0  0
   33.8409   19.5297    8.1207 O   0  0  0  0  0  0  0  0  0  0  0  0
   34.2103   16.4326    8.9189 C   0  0  0  0  0  0  0  0  0  0  0  0
   35.0546   15.6833    7.8965 C   0  0  0  0  0  0  0  0  0  0  0  0
   36.6225   15.0972    8.5868 S   0  0  0  0  0  0  0  0  0  0  0  0
   37.4079   15.2791    6.9656 C   0  0  0  0  0  0  0  0  0  0  0  0
   38.9231   15.1244    7.0251 C   0  0  1  0  0  0  0  0  0  0  0  0
   39.2596   13.7945    7.3759 O   0  0  0  0  0  0  0  0  0  0  0  0
   39.5687   15.4283    5.6830 C   0  0  1  0  0  0  0  0  0  0  0  0
   40.4113   16.5504    5.7978 O   0  0  0  0  0  0  0  0  0  0  0  0
   40.3832   14.2015    5.3286 C   0  0  1  0  0  0  0  0  0  0  0  0
   41.7362   14.5528    5.1543 O   0  0  0  0  0  0  0  0  0  0  0  0
   40.2365   13.2534    6.5063 C   0  0  2  0  0  0  0  0  0  0  0  0
   35.7349   18.8631    7.4701 O   0  0  0  0  0  0  0  0  0  0  0  0
   41.3535    9.1665    3.4052 N   0  0  0  0  0  0  0  0  0  0  0  0
   42.0775   10.3296    3.5737 C   0  0  0  0  0  0  0  0  0  0  0  0
   41.6300   11.3076    4.4397 N   0  0  0  0  0  0  0  0  0  0  0  0
   40.4762   11.1345    5.1296 C   0  0  0  0  0  0  0  0  0  0  0  0
   39.7338    9.9720    4.9732 C   0  0  0  0  0  0  0  0  0  0  0  0
   40.1778    8.9824    4.1044 C   0  0  0  0  0  0  0  0  0  0  0  0
   39.4744    7.8652    3.9459 N   0  0  0  0  0  0  0  0  0  0  0  0
   38.6466   10.0627    5.7693 N   0  0  0  0  0  0  0  0  0  0  0  0
   38.6824   11.2474    6.4217 C   0  0  0  0  0  0  0  0  0  0  0  0
   39.8112   11.9230    6.0353 N   0  0  0  0  0  0  0  0  0  0  0  0
  2  1  1  1  0  0  0
  2  3  1  0  0  0  0
  2  5  1  0  0  0  0
  3  4  1  0  0  0  0
  3 16  1  0  0  0  0
  5  6  1  0  0  0  0
  6  7  1  0  0  0  0
  7  8  1  0  0  0  0
  9  8  1  6  0  0  0
  9 10  1  0  0  0  0
  9 11  1  0  0  0  0
 10 15  1  0  0  0  0
 11 12  1  1  0  0  0
 11 13  1  0  0  0  0
 13 14  1  1  0  0  0
 13 15  1  0  0  0  0
 15 26  1  6  0  0  0
 17 18  2  0  0  0  0
 17 22  1  0  0  0  0
 18 19  1  0  0  0  0
 19 20  2  0  0  0  0
 20 21  1  0  0  0  0
 20 26  1  0  0  0  0
 21 22  2  0  0  0  0
 21 24  1  0  0  0  0
 22 23  1  0  0  0  0
 24 25  2  0  0  0  0
 25 26  1  0  0  0  0
M  END
>  <CHROM.1>
-32.31504760,-167.16298018,65.83559992,-148.97209343,169.79668259,66.56262569
176.53820250,38.30382898,14.05138661,6.55895808,2.23893802,0.47929730,0.15318003

>  <Name>
ligand

>  <RI>
0

>  <Rbt.Current_Directory>
/home/itssahil/PROJECTS/Mol_Feturizer/New_Systems/rnas/3NPQ

>  <Rbt.Executable>
rbdock ($Id: //depot/dev/client3/rdock/2013.1/src/exe/rbdock.cxx#4 $)

>  <Rbt.Library>
libRbt.so (2013.1, Build901 2013/11/27)

>  <Rbt.Parameter_File>
/export/apps/rDock/src/rDock_2013.1_src/data/scripts/dock_solv.prm

>  <Rbt.Receptor>
prm/pocket_docking_2.prm

>  <SCORE>
-31.0763

>  <SCORE.INTER>
-28.4594

>  <SCORE.INTER.CONST>
1

>  <SCORE.INTER.POLAR>
0

>  <SCORE.INTER.ROT>
7

>  <SCORE.INTER.SOLV>
29.7355

>  <SCORE.INTER.VDW>
-37.1515

>  <SCORE.INTER.norm>
-1.09459

>  <SCORE.INTRA>
-2.61686

>  <SCORE.INTRA.DIHEDRAL>
-1.97762

>  <SCORE.INTRA.DIHEDRAL.0>
6.97628

>  <SCORE.INTRA.POLAR>
0

>  <SCORE.INTRA.POLAR.0>
0

>  <SCORE.INTRA.REPUL>
0

>  <SCORE.INTRA.REPUL.0>
0

>  <SCORE.INTRA.SOLV>
-0.677319

>  <SCORE.INTRA.SOLV.lig_0>
-49.8243

>  <SCORE.INTRA.VDW>
-1.28939

>  <SCORE.INTRA.VDW.0>
-1.35881

>  <SCORE.INTRA.norm>
-0.100648

>  <SCORE.RESTR>
0

>  <SCORE.RESTR.CAVITY>
0

>  <SCORE.RESTR.norm>
0

>  <SCORE.SYSTEM>
0

>  <SCORE.SYSTEM.CONST>
0

>  <SCORE.SYSTEM.DIHEDRAL>
0

>  <SCORE.SYSTEM.SOLV>
0

>  <SCORE.SYSTEM.norm>
0

>  <SCORE.heavy>
26

>  <SCORE.norm>
-1.19524

>  <RMSD>
1.236

$$$$
ligand
 OpenBabel11021811483D
libRbt.so/2013.1/901 2013/11/27
 26 28  0  0  0  0  0  0  0  0999 V2000
   36.0307   18.6914    8.8319 N   0  0  0  0  0  0  0  0  0  0  0  0
   34.9640   18.0654    8.0606 C   0  0  2  0  0  0  0  0  0  0  0  0
   33.7048   17.8960    8.9029 C   0  0  0  0  0  0  0  0  0  0  0  0
   33.7553   17.9309   10.1318 O   0  0  0  0  0  0  0  0  0  0  0  0
   35.4174   16.7146    7.5213 C   0  0  0  0  0  0  0  0  0  0  0  0
   35.7580   15.6957    8.6009 C   0  0  0  0  0  0  0  0  0  0  0  0
   37.0777   14.5637    8.0956 S   0  0  0  0  0  0  0  0  0  0  0  0
   38.3196   15.7676    8.6308 C   0  0  0  0  0  0  0  0  0  0  0  0
   39.4640   15.9149    7.6347 C   0  0  1  0  0  0  0  0  0  0  0  0
   40.1658   14.6904    7.5204 O   0  0  0  0  0  0  0  0  0  0  0  0
   38.9561   16.2899    6.2520 C   0  0  1  0  0  0  0  0  0  0  0  0
   39.4458   17.5587    5.8877 O   0  0  0  0  0  0  0  0  0  0  0  0
   39.4993   15.2343    5.3115 C   0  0  1  0  0  0  0  0  0  0  0  0
   40.2838   15.8370    4.3087 O   0  0  0  0  0  0  0  0  0  0  0  0
   40.3578   14.3195    6.1681 C   0  0  2  0  0  0  0  0  0  0  0  0
   32.6066   17.7206    8.3737 O   0  0  0  0  0  0  0  0  0  0  0  0
   41.3967    9.7993    3.7073 N   0  0  0  0  0  0  0  0  0  0  0  0
   42.0769   10.9965    3.6108 C   0  0  0  0  0  0  0  0  0  0  0  0
   41.6595   12.0937    4.3379 N   0  0  0  0  0  0  0  0  0  0  0  0
   40.5784   12.0048    5.1504 C   0  0  0  0  0  0  0  0  0  0  0  0
   39.8808   10.8096    5.2605 C   0  0  0  0  0  0  0  0  0  0  0  0
   40.2949    9.7004    4.5328 C   0  0  0  0  0  0  0  0  0  0  0  0
   39.6339    8.5508    4.6297 N   0  0  0  0  0  0  0  0  0  0  0  0
   38.8625   11.0008    6.1268 N   0  0  0  0  0  0  0  0  0  0  0  0
   38.8982   12.2803    6.5649 C   0  0  0  0  0  0  0  0  0  0  0  0
   39.9568   12.9153    5.9683 N   0  0  0  0  0  0  0  0  0  0  0  0
  2  1  1  1  0  0  0
  2  3  1  0  0  0  0
  2  5  1  0  0  0  0
  3  4  1  0  0  0  0
  3 16  1  0  0  0  0
  5  6  1  0  0  0  0
  6  7  1  0  0  0  0
  7  8  1  0  0  0  0
  9  8  1  1  0  0  0
  9 10  1  0  0  0  0
  9 11  1  0  0  0  0
 10 15  1  0  0  0  0
 11 12  1  6  0  0  0
 11 13  1  0  0  0  0
 13 14  1  6  0  0  0
 13 15  1  0  0  0  0
 15 26  1  1  0  0  0
 17 18  2  0  0  0  0
 17 22  1  0  0  0  0
 18 19  1  0  0  0  0
 19 20  2  0  0  0  0
 20 21  1  0  0  0  0
 20 26  1  0  0  0  0
 21 22  2  0  0  0  0
 21 24  1  0  0  0  0
 22 23  1  0  0  0  0
 24 25  2  0  0  0  0
 25 26  1  0  0  0  0
M  END
>  <CHROM.1>
-19.07013895,62.50497078,-147.80722654,84.87188431,-136.44082613,-63.22347207
-142.58036978,38.29965314,14.46679100,6.66268485,-2.32283614,-0.48513965
-3.00517191

>  <Name>
ligand

>  <RI>
0

>  <Rbt.Current_Directory>
/home/itssahil/PROJECTS/Mol_Feturizer/New_Systems/rnas/3NPQ

>  <Rbt.Executable>
rbdock ($Id: //depot/dev/client3/rdock/2013.1/src/exe/rbdock.cxx#4 $)

>  <Rbt.Library>
libRbt.so (2013.1, Build901 2013/11/27)

>  <Rbt.Parameter_File>
/export/apps/rDock/src/rDock_2013.1_src/data/scripts/dock_solv.prm

>  <Rbt.Receptor>
prm/pocket_docking_2.prm

>  <SCORE>
-27.1726

>  <SCORE.INTER>
-26.9872

>  <SCORE.INTER.CONST>
1

>  <SCORE.INTER.POLAR>
0

>  <SCORE.INTER.ROT>
7

>  <SCORE.INTER.SOLV>
22.5338

>  <SCORE.INTER.VDW>
-33.7694

>  <SCORE.INTER.norm>
-1.03797

>  <SCORE.INTRA>
-0.185381

>  <SCORE.INTRA.DIHEDRAL>
1.69255

>  <SCORE.INTRA.DIHEDRAL.0>
6.97628

>  <SCORE.INTRA.POLAR>
0

>  <SCORE.INTRA.POLAR.0>
0

>  <SCORE.INTRA.REPUL>
0

>  <SCORE.INTRA.REPUL.0>
0

>  <SCORE.INTRA.SOLV>
0.975794

>  <SCORE.INTRA.SOLV.lig_0>
-49.8243

>  <SCORE.INTRA.VDW>
-1.51955

>  <SCORE.INTRA.VDW.0>
-1.35881

>  <SCORE.INTRA.norm>
-0.00713004

>  <SCORE.RESTR>
0

>  <SCORE.RESTR.CAVITY>
0

>  <SCORE.RESTR.norm>
0

>  <SCORE.SYSTEM>
0

>  <SCORE.SYSTEM.CONST>
0

>  <SCORE.SYSTEM.DIHEDRAL>
0

>  <SCORE.SYSTEM.SOLV>
0

>  <SCORE.SYSTEM.norm>
0

>  <SCORE.heavy>
26

>  <SCORE.norm>
-1.0451

>  <RMSD>
1.241

$$$$
ligand
 OpenBabel11021811483D
libRbt.so/2013.1/901 2013/11/27
 26 28  0  0  0  0  0  0  0  0999 V2000
   36.0472   17.8398    7.7676 N   0  0  0  0  0  0  0  0  0  0  0  0
   34.8517   17.1455    8.2296 C   0  0  2  0  0  0  0  0  0  0  0  0
   34.4902   17.5619    9.6508 C   0  0  0  0  0  0  0  0  0  0  0  0
   33.4666   18.2043    9.8816 O   0  0  0  0  0  0  0  0  0  0  0  0
   35.0510   15.6366    8.1620 C   0  0  0  0  0  0  0  0  0  0  0  0
   36.3186   15.1448    8.8484 C   0  0  0  0  0  0  0  0  0  0  0  0
   37.4964   14.4091    7.6866 S   0  0  0  0  0  0  0  0  0  0  0  0
   38.7754   15.5606    8.2492 C   0  0  0  0  0  0  0  0  0  0  0  0
   40.0236   15.5266    7.3750 C   0  0  1  0  0  0  0  0  0  0  0  0
   40.5419   14.2099    7.3238 O   0  0  0  0  0  0  0  0  0  0  0  0
   39.7200   15.9619    5.9507 C   0  0  1  0  0  0  0  0  0  0  0  0
   40.4285   17.1400    5.6466 O   0  0  0  0  0  0  0  0  0  0  0  0
   40.1911   14.8291    5.0626 C   0  0  1  0  0  0  0  0  0  0  0  0
   41.1544   15.2992    4.1486 O   0  0  0  0  0  0  0  0  0  0  0  0
   40.8119   13.8032    5.9953 C   0  0  2  0  0  0  0  0  0  0  0  0
   35.2139   17.2649   10.6021 O   0  0  0  0  0  0  0  0  0  0  0  0
   41.3257    9.2173    3.4906 N   0  0  0  0  0  0  0  0  0  0  0  0
   42.1722   10.3071    3.4528 C   0  0  0  0  0  0  0  0  0  0  0  0
   41.8775   11.4418    4.1824 N   0  0  0  0  0  0  0  0  0  0  0  0
   40.7548   11.4956    4.9398 C   0  0  0  0  0  0  0  0  0  0  0  0
   39.8908   10.4102    4.9903 C   0  0  0  0  0  0  0  0  0  0  0  0
   40.1806    9.2641    4.2598 C   0  0  0  0  0  0  0  0  0  0  0  0
   39.3597    8.2188    4.2999 N   0  0  0  0  0  0  0  0  0  0  0  0
   38.8670   10.7316    5.8105 N   0  0  0  0  0  0  0  0  0  0  0  0
   39.0607   11.9866    6.2773 C   0  0  0  0  0  0  0  0  0  0  0  0
   40.2273   12.4732    5.7462 N   0  0  0  0  0  0  0  0  0  0  0  0
  2  1  1  1  0  0  0
  2  3  1  0  0  0  0
  2  5  1  0  0  0  0
  3  4  1  0  0  0  0
  3 16  1  0  0  0  0
  5  6  1  0  0  0  0
  6  7  1  0  0  0  0
  7  8  1  0  0  0  0
  9  8  1  1  0  0  0
  9 10  1  0  0  0  0
  9 11  1  0  0  0  0
 10 15  1  0  0  0  0
 11 12  1  6  0  0  0
 11 13  1  0  0  0  0
 13 14  1  6  0  0  0
 13 15  1  0  0  0  0
 15 26  1  6  0  0  0
 17 18  2  0  0  0  0
 17 22  1  0  0  0  0
 18 19  1  0  0  0  0
 19 20  2  0  0  0  0
 20 21  1  0  0  0  0
 20 26  1  0  0  0  0
 21 22  2  0  0  0  0
 21 24  1  0  0  0  0
 22 23  1  0  0  0  0
 24 25  2  0  0  0  0
 25 26  1  0  0  0  0
M  END
>  <CHROM.1>
112.64195931,51.75602737,-115.23061632,124.40743200,-170.23578960,-56.72166737
-145.78091237,38.67715558,14.02529884,6.57685540,-2.28094533,-0.52572762
-2.92658663

>  <Name>
ligand

>  <RI>
0

>  <Rbt.Current_Directory>
/home/itssahil/PROJECTS/Mol_Feturizer/New_Systems/rnas/3NPQ

>  <Rbt.Executable>
rbdock ($Id: //depot/dev/client3/rdock/2013.1/src/exe/rbdock.cxx#4 $)

>  <Rbt.Library>
libRbt.so (2013.1, Build901 2013/11/27)

>  <Rbt.Parameter_File>
/export/apps/rDock/src/rDock_2013.1_src/data/scripts/dock_solv.prm

>  <Rbt.Receptor>
prm/pocket_docking_2.prm

>  <SCORE>
-27.278

>  <SCORE.INTER>
-28.6653

>  <SCORE.INTER.CONST>
1

>  <SCORE.INTER.POLAR>
0

>  <SCORE.INTER.ROT>
7

>  <SCORE.INTER.SOLV>
21.8256

>  <SCORE.INTER.VDW>
-34.6521

>  <SCORE.INTER.norm>
-1.10251

>  <SCORE.INTRA>
1.35869

>  <SCORE.INTRA.DIHEDRAL>
3.96843

>  <SCORE.INTRA.DIHEDRAL.0>
6.97628

>  <SCORE.INTRA.POLAR>
0

>  <SCORE.INTRA.POLAR.0>
0

>  <SCORE.INTRA.REPUL>
0

>  <SCORE.INTRA.REPUL.0>
0

>  <SCORE.INTRA.SOLV>
1.53737

>  <SCORE.INTRA.SOLV.lig_0>
-49.8243

>  <SCORE.INTRA.VDW>
-1.39421

>  <SCORE.INTRA.VDW.0>
-1.35881

>  <SCORE.INTRA.norm>
0.0522575

>  <SCORE.RESTR>
0.0285431

>  <SCORE.RESTR.CAVITY>
0.0285431

>  <SCORE.RESTR.norm>
0.00109781

>  <SCORE.SYSTEM>
0

>  <SCORE.SYSTEM.CONST>
0

>  <SCORE.SYSTEM.DIHEDRAL>
0

>  <SCORE.SYSTEM.SOLV>
0

>  <SCORE.SYSTEM.norm>
0

>  <SCORE.heavy>
26

>  <SCORE.norm>
-1.04916

>  <RMSD>
1.252

$$$$
ligand
 OpenBabel11021811483D
libRbt.so/2013.1/901 2013/11/27
 26 28  0  0  0  0  0  0  0  0999 V2000
   35.0675   16.7065    9.9867 N   0  0  0  0  0  0  0  0  0  0  0  0
   34.7788   17.2612    8.6701 C   0  0  2  0  0  0  0  0  0  0  0  0
   33.5581   18.1733    8.7147 C   0  0  0  0  0  0  0  0  0  0  0  0
   33.6543   19.3425    9.0855 O   0  0  0  0  0  0  0  0  0  0  0  0
   34.5599   16.1447    7.6568 C   0  0  0  0  0  0  0  0  0  0  0  0
   35.8429   15.6043    7.0392 C   0  0  0  0  0  0  0  0  0  0  0  0
   36.8090   14.6101    8.2040 S   0  0  0  0  0  0  0  0  0  0  0  0
   37.7746   16.0732    8.6567 C   0  0  0  0  0  0  0  0  0  0  0  0
   39.0406   16.2243    7.8214 C   0  0  1  0  0  0  0  0  0  0  0  0
   39.7578   15.0034    7.8058 O   0  0  0  0  0  0  0  0  0  0  0  0
   38.7196   16.5928    6.3821 C   0  0  1  0  0  0  0  0  0  0  0  0
   39.2467   17.8633    6.0820 O   0  0  0  0  0  0  0  0  0  0  0  0
   39.3887   15.5377    5.5259 C   0  0  1  0  0  0  0  0  0  0  0  0
   40.2966   16.1422    4.6346 O   0  0  0  0  0  0  0  0  0  0  0  0
   40.1302   14.6301    6.4923 C   0  0  2  0  0  0  0  0  0  0  0  0
   32.4464   17.7619    8.3803 O   0  0  0  0  0  0  0  0  0  0  0  0
   41.3478   10.1948    3.9600 N   0  0  0  0  0  0  0  0  0  0  0  0
   42.0045   11.4081    3.9149 C   0  0  0  0  0  0  0  0  0  0  0  0
   41.5396   12.4780    4.6537 N   0  0  0  0  0  0  0  0  0  0  0  0
   40.4346   12.3463    5.4274 C   0  0  0  0  0  0  0  0  0  0  0  0
   39.7600   11.1344    5.4855 C   0  0  0  0  0  0  0  0  0  0  0  0
   40.2219   10.0525    4.7457 C   0  0  0  0  0  0  0  0  0  0  0  0
   39.5833    8.8871    4.7929 N   0  0  0  0  0  0  0  0  0  0  0  0
   38.7099   11.2827    6.3217 N   0  0  0  0  0  0  0  0  0  0  0  0
   38.7032   12.5514    6.7913 C   0  0  0  0  0  0  0  0  0  0  0  0
   39.7668   13.2231    6.2457 N   0  0  0  0  0  0  0  0  0  0  0  0
  2  1  1  1  0  0  0
  2  3  1  0  0  0  0
  2  5  1  0  0  0  0
  3  4  1  0  0  0  0
  3 16  1  0  0  0  0
  5  6  1  0  0  0  0
  6  7  1  0  0  0  0
  7  8  1  0  0  0  0
  9  8  1  1  0  0  0
  9 10  1  0  0  0  0
  9 11  1  0  0  0  0
 10 15  1  0  0  0  0
 11 12  1  6  0  0  0
 11 13  1  0  0  0  0
 13 14  1  6  0  0  0
 13 15  1  0  0  0  0
 15 26  1  6  0  0  0
 17 18  2  0  0  0  0
 17 22  1  0  0  0  0
 18 19  1  0  0  0  0
 19 20  2  0  0  0  0
 20 21  1  0  0  0  0
 20 26  1  0  0  0  0
 21 22  2  0  0  0  0
 21 24  1  0  0  0  0
 22 23  1  0  0  0  0
 24 25  2  0  0  0  0
 25 26  1  0  0  0  0
M  END
>  <CHROM.1>
82.00403255,-84.71086522,72.11488781,-93.75497408,-92.20709283,-49.67735095
-148.61624197,38.06897568,14.62626321,6.78231041,2.36301733,0.44370305,0.12553611

>  <Name>
ligand

>  <RI>
0

>  <Rbt.Current_Directory>
/home/itssahil/PROJECTS/Mol_Feturizer/New_Systems/rnas/3NPQ

>  <Rbt.Executable>
rbdock ($Id: //depot/dev/client3/rdock/2013.1/src/exe/rbdock.cxx#4 $)

>  <Rbt.Library>
libRbt.so (2013.1, Build901 2013/11/27)

>  <Rbt.Parameter_File>
/export/apps/rDock/src/rDock_2013.1_src/data/scripts/dock_solv.prm

>  <Rbt.Receptor>
prm/pocket_docking_2.prm

>  <SCORE>
-27.3382

>  <SCORE.INTER>
-28.2079

>  <SCORE.INTER.CONST>
1

>  <SCORE.INTER.POLAR>
0

>  <SCORE.INTER.ROT>
7

>  <SCORE.INTER.SOLV>
23.9208

>  <SCORE.INTER.VDW>
-35.0455

>  <SCORE.INTER.norm>
-1.08492

>  <SCORE.INTRA>
0.81065

>  <SCORE.INTRA.DIHEDRAL>
1.52616

>  <SCORE.INTRA.DIHEDRAL.0>
6.97628

>  <SCORE.INTRA.POLAR>
0

>  <SCORE.INTRA.POLAR.0>
0

>  <SCORE.INTRA.REPUL>
0

>  <SCORE.INTRA.REPUL.0>
0

>  <SCORE.INTRA.SOLV>
2.21356

>  <SCORE.INTRA.SOLV.lig_0>
-49.8243

>  <SCORE.INTRA.VDW>
-1.05921

>  <SCORE.INTRA.VDW.0>
-1.35881

>  <SCORE.INTRA.norm>
0.0311788

>  <SCORE.RESTR>
0.0590768

>  <SCORE.RESTR.CAVITY>
0.0590768

>  <SCORE.RESTR.norm>
0.00227219

>  <SCORE.SYSTEM>
0

>  <SCORE.SYSTEM.CONST>
0

>  <SCORE.SYSTEM.DIHEDRAL>
0

>  <SCORE.SYSTEM.SOLV>
0

>  <SCORE.SYSTEM.norm>
0

>  <SCORE.heavy>
26

>  <SCORE.norm>
-1.05147

>  <RMSD>
1.262

$$$$
ligand
 OpenBabel11021811483D
libRbt.so/2013.1/901 2013/11/27
 26 28  0  0  0  0  0  0  0  0999 V2000
   33.2178   17.1873    7.5415 N   0  0  0  0  0  0  0  0  0  0  0  0
   33.5988   17.3150    8.9426 C   0  0  2  0  0  0  0  0  0  0  0  0
   34.0352   18.7397    9.2648 C   0  0  0  0  0  0  0  0  0  0  0  0
   34.8943   19.3067    8.5908 O   0  0  0  0  0  0  0  0  0  0  0  0
   34.7161   16.3368    9.2832 C   0  0  0  0  0  0  0  0  0  0  0  0
   35.8915   16.3728    8.3153 C   0  0  0  0  0  0  0  0  0  0  0  0
   37.0539   15.0107    8.5838 S   0  0  0  0  0  0  0  0  0  0  0  0
   37.7367   15.2624    6.9259 C   0  0  0  0  0  0  0  0  0  0  0  0
   39.2475   15.0667    6.8758 C   0  0  1  0  0  0  0  0  0  0  0  0
   39.5737   13.7328    7.2211 O   0  0  0  0  0  0  0  0  0  0  0  0
   39.7996   15.3349    5.4853 C   0  0  1  0  0  0  0  0  0  0  0  0
   40.6779   16.4348    5.5205 O   0  0  0  0  0  0  0  0  0  0  0  0
   40.5528   14.0816    5.0905 C   0  0  1  0  0  0  0  0  0  0  0  0
   41.8980   14.3930    4.8116 O   0  0  0  0  0  0  0  0  0  0  0  0
   40.4687   13.1535    6.2901 C   0  0  2  0  0  0  0  0  0  0  0  0
   33.5379   19.3575   10.2071 O   0  0  0  0  0  0  0  0  0  0  0  0
   41.3446    8.9147    3.3181 N   0  0  0  0  0  0  0  0  0  0  0  0
   42.1245   10.0476    3.4354 C   0  0  0  0  0  0  0  0  0  0  0  0
   41.7369   11.0747    4.2730 N   0  0  0  0  0  0  0  0  0  0  0  0
   40.5876   10.9798    4.9851 C   0  0  0  0  0  0  0  0  0  0  0  0
   39.7895    9.8487    4.8802 C   0  0  0  0  0  0  0  0  0  0  0  0
   40.1729    8.8102    4.0402 C   0  0  0  0  0  0  0  0  0  0  0  0
   39.4159    7.7225    3.9311 N   0  0  0  0  0  0  0  0  0  0  0  0
   38.7205   10.0177    5.6882 N   0  0  0  0  0  0  0  0  0  0  0  0
   38.8218   11.2211    6.2981 C   0  0  0  0  0  0  0  0  0  0  0  0
   39.9745   11.8292    5.8721 N   0  0  0  0  0  0  0  0  0  0  0  0
  2  1  1  6  0  0  0
  2  3  1  0  0  0  0
  2  5  1  0  0  0  0
  3  4  1  0  0  0  0
  3 16  1  0  0  0  0
  5  6  1  0  0  0  0
  6  7  1  0  0  0  0
  7  8  1  0  0  0  0
  9  8  1  6  0  0  0
  9 10  1  0  0  0  0
  9 11  1  0  0  0  0
 10 15  1  0  0  0  0
 11 12  1  1  0  0  0
 11 13  1  0  0  0  0
 13 14  1  1  0  0  0
 13 15  1  0  0  0  0
 15 26  1  6  0  0  0
 17 18  2  0  0  0  0
 17 22  1  0  0  0  0
 18 19  1  0  0  0  0
 19 20  2  0  0  0  0
 20 21  1  0  0  0  0
 20 26  1  0  0  0  0
 21 22  2  0  0  0  0
 21 24  1  0  0  0  0
 22 23  1  0  0  0  0
 24 25  2  0  0  0  0
 25 26  1  0  0  0  0
M  END
>  <CHROM.1>
-52.32218768,49.93491626,-170.04114743,161.43960986,142.03942707,62.59679196
-179.72120669,38.34005969,13.94183001,6.52865969,2.24620568,0.41700131,0.22353202

>  <Name>
ligand

>  <RI>
0

>  <Rbt.Current_Directory>
/home/itssahil/PROJECTS/Mol_Feturizer/New_Systems/rnas/3NPQ

>  <Rbt.Executable>
rbdock ($Id: //depot/dev/client3/rdock/2013.1/src/exe/rbdock.cxx#4 $)

>  <Rbt.Library>
libRbt.so (2013.1, Build901 2013/11/27)

>  <Rbt.Parameter_File>
/export/apps/rDock/src/rDock_2013.1_src/data/scripts/dock_solv.prm

>  <Rbt.Receptor>
prm/pocket_docking_5.prm

>  <SCORE>
-27.9975

>  <SCORE.INTER>
-26.5952

>  <SCORE.INTER.CONST>
1

>  <SCORE.INTER.POLAR>
0

>  <SCORE.INTER.ROT>
7

>  <SCORE.INTER.SOLV>
28.4363

>  <SCORE.INTER.VDW>
-35.4756

>  <SCORE.INTER.norm>
-1.02289

>  <SCORE.INTRA>
-1.40231

>  <SCORE.INTRA.DIHEDRAL>
-1.29791

>  <SCORE.INTRA.DIHEDRAL.0>
6.97628

>  <SCORE.INTRA.POLAR>
0

>  <SCORE.INTRA.POLAR.0>
0

>  <SCORE.INTRA.REPUL>
0

>  <SCORE.INTRA.REPUL.0>
0

>  <SCORE.INTRA.SOLV>
-0.0926163

>  <SCORE.INTRA.SOLV.lig_0>
-49.8243

>  <SCORE.INTRA.VDW>
-0.707046

>  <SCORE.INTRA.VDW.0>
-1.35881

>  <SCORE.INTRA.norm>
-0.053935

>  <SCORE.RESTR>
0

>  <SCORE.RESTR.CAVITY>
0

>  <SCORE.RESTR.norm>
0

>  <SCORE.SYSTEM>
0

>  <SCORE.SYSTEM.CONST>
0

>  <SCORE.SYSTEM.DIHEDRAL>
0

>  <SCORE.SYSTEM.SOLV>
0

>  <SCORE.SYSTEM.norm>
0

>  <SCORE.heavy>
26

>  <SCORE.norm>
-1.07683

>  <RMSD>
1.266

$$$$
ligand
 OpenBabel11021811483D
libRbt.so/2013.1/901 2013/11/27
 26 28  0  0  0  0  0  0  0  0999 V2000
   33.5303   16.9094    7.8004 N   0  0  0  0  0  0  0  0  0  0  0  0
   33.8026   18.0010    8.7271 C   0  0  2  0  0  0  0  0  0  0  0  0
   34.4501   19.1804    8.0104 C   0  0  0  0  0  0  0  0  0  0  0  0
   34.0212   20.3242    8.1578 O   0  0  0  0  0  0  0  0  0  0  0  0
   34.6980   17.5251    9.8642 C   0  0  0  0  0  0  0  0  0  0  0  0
   35.9581   16.8039    9.4041 C   0  0  0  0  0  0  0  0  0  0  0  0
   35.6731   15.0451    9.0823 S   0  0  0  0  0  0  0  0  0  0  0  0
   36.5065   15.1996    7.4823 C   0  0  0  0  0  0  0  0  0  0  0  0
   38.0220   15.2936    7.6149 C   0  0  1  0  0  0  0  0  0  0  0  0
   38.5624   14.0161    7.8995 O   0  0  0  0  0  0  0  0  0  0  0  0
   38.6649   15.7947    6.3320 C   0  0  1  0  0  0  0  0  0  0  0  0
   39.3005   17.0296    6.5630 O   0  0  0  0  0  0  0  0  0  0  0  0
   39.6893   14.7477    5.9465 C   0  0  1  0  0  0  0  0  0  0  0  0
   40.9700   15.3293    5.8690 O   0  0  0  0  0  0  0  0  0  0  0  0
   39.6535   13.7071    7.0525 C   0  0  2  0  0  0  0  0  0  0  0  0
   35.4184   19.0168    7.2672 O   0  0  0  0  0  0  0  0  0  0  0  0
   41.5077   10.1402    3.6752 N   0  0  0  0  0  0  0  0  0  0  0  0
   42.0069   11.3991    3.9425 C   0  0  0  0  0  0  0  0  0  0  0  0
   41.3855   12.2105    4.8711 N   0  0  0  0  0  0  0  0  0  0  0  0
   40.2803   11.7786    5.5261 C   0  0  0  0  0  0  0  0  0  0  0  0
   39.7629   10.5160    5.2706 C   0  0  0  0  0  0  0  0  0  0  0  0
   40.3828    9.6928    4.3382 C   0  0  0  0  0  0  0  0  0  0  0  0
   39.8955    8.4819    4.0848 N   0  0  0  0  0  0  0  0  0  0  0  0
   38.6745   10.3467    6.0522 N   0  0  0  0  0  0  0  0  0  0  0  0
   38.4915   11.4648    6.7916 C   0  0  0  0  0  0  0  0  0  0  0  0
   39.4795   12.3616    6.4763 N   0  0  0  0  0  0  0  0  0  0  0  0
  2  1  1  6  0  0  0
  2  3  1  0  0  0  0
  2  5  1  0  0  0  0
  3  4  1  0  0  0  0
  3 16  1  0  0  0  0
  5  6  1  0  0  0  0
  6  7  1  0  0  0  0
  7  8  1  0  0  0  0
  9  8  1  6  0  0  0
  9 10  1  0  0  0  0
  9 11  1  0  0  0  0
 10 15  1  0  0  0  0
 11 12  1  1  0  0  0
 11 13  1  0  0  0  0
 13 14  1  1  0  0  0
 13 15  1  0  0  0  0
 15 26  1  6  0  0  0
 17 18  2  0  0  0  0
 17 22  1  0  0  0  0
 18 19  1  0  0  0  0
 19 20  2  0  0  0  0
 20 21  1  0  0  0  0
 20 26  1  0  0  0  0
 21 22  2  0  0  0  0
 21 24  1  0  0  0  0
 22 23  1  0  0  0  0
 24 25  2  0  0  0  0
 25 26  1  0  0  0  0
M  END
>  <CHROM.1>
130.73620862,51.22728412,-84.66062298,131.06276799,75.39642042,75.93948627
174.09334384,37.94381021,14.47758498,6.85114999,2.30046345,0.51897673,0.04548736

>  <Name>
ligand

>  <RI>
0

>  <Rbt.Current_Directory>
/home/itssahil/PROJECTS/Mol_Feturizer/New_Systems/rnas/3NPQ

>  <Rbt.Executable>
rbdock ($Id: //depot/dev/client3/rdock/2013.1/src/exe/rbdock.cxx#4 $)

>  <Rbt.Library>
libRbt.so (2013.1, Build901 2013/11/27)

>  <Rbt.Parameter_File>
/export/apps/rDock/src/rDock_2013.1_src/data/scripts/dock_solv.prm

>  <Rbt.Receptor>
prm/pocket_docking_5.prm

>  <SCORE>
-32.4543

>  <SCORE.INTER>
-33.0237

>  <SCORE.INTER.CONST>
1

>  <SCORE.INTER.POLAR>
0

>  <SCORE.INTER.ROT>
7

>  <SCORE.INTER.SOLV>
24.0805

>  <SCORE.INTER.VDW>
-38.3093

>  <SCORE.INTER.norm>
-1.27014

>  <SCORE.INTRA>
0.567118

>  <SCORE.INTRA.DIHEDRAL>
1.44574

>  <SCORE.INTRA.DIHEDRAL.0>
6.97628

>  <SCORE.INTRA.POLAR>
0

>  <SCORE.INTRA.POLAR.0>
0

>  <SCORE.INTRA.REPUL>
0

>  <SCORE.INTRA.REPUL.0>
0

>  <SCORE.INTRA.SOLV>
1.94

>  <SCORE.INTRA.SOLV.lig_0>
-49.8243

>  <SCORE.INTRA.VDW>
-1.12575

>  <SCORE.INTRA.VDW.0>
-1.35881

>  <SCORE.INTRA.norm>
0.0218122

>  <SCORE.RESTR>
0.00232959

>  <SCORE.RESTR.CAVITY>
0.00232959

>  <SCORE.RESTR.norm>
8.95998e-05

>  <SCORE.SYSTEM>
0

>  <SCORE.SYSTEM.CONST>
0

>  <SCORE.SYSTEM.DIHEDRAL>
0

>  <SCORE.SYSTEM.SOLV>
0

>  <SCORE.SYSTEM.norm>
0

>  <SCORE.heavy>
26

>  <SCORE.norm>
-1.24824

>  <RMSD>
1.292

$$$$
ligand
 OpenBabel11021811483D
libRbt.so/2013.1/901 2013/11/27
 26 28  0  0  0  0  0  0  0  0999 V2000
   35.3444   16.4831   10.2455 N   0  0  0  0  0  0  0  0  0  0  0  0
   34.9079   17.1325    9.0157 C   0  0  2  0  0  0  0  0  0  0  0  0
   33.6613   17.9770    9.2539 C   0  0  0  0  0  0  0  0  0  0  0  0
   32.7230   17.9596    8.4581 O   0  0  0  0  0  0  0  0  0  0  0  0
   34.6378   16.0964    7.9319 C   0  0  0  0  0  0  0  0  0  0  0  0
   35.8926   15.5675    7.2497 C   0  0  0  0  0  0  0  0  0  0  0  0
   36.9043   14.5474    8.3515 S   0  0  0  0  0  0  0  0  0  0  0  0
   37.9059   15.9945    8.7768 C   0  0  0  0  0  0  0  0  0  0  0  0
   39.1203   16.1567    7.8700 C   0  0  1  0  0  0  0  0  0  0  0  0
   39.8420   14.9401    7.8067 O   0  0  0  0  0  0  0  0  0  0  0  0
   38.7140   16.5300    6.4537 C   0  0  1  0  0  0  0  0  0  0  0  0
   39.2158   17.8049    6.1297 O   0  0  0  0  0  0  0  0  0  0  0  0
   39.3379   15.4827    5.5548 C   0  0  1  0  0  0  0  0  0  0  0  0
   40.1891   16.0965    4.6151 O   0  0  0  0  0  0  0  0  0  0  0  0
   40.1394   14.5750    6.4720 C   0  0  2  0  0  0  0  0  0  0  0  0
   33.5632   18.6965   10.2486 O   0  0  0  0  0  0  0  0  0  0  0  0
   41.2738   10.1390    3.9024 N   0  0  0  0  0  0  0  0  0  0  0  0
   41.9263   11.3534    3.8326 C   0  0  0  0  0  0  0  0  0  0  0  0
   41.4861   12.4234    4.5865 N   0  0  0  0  0  0  0  0  0  0  0  0
   40.4097   12.2906    5.3992 C   0  0  0  0  0  0  0  0  0  0  0  0
   39.7399   11.0775    5.4827 C   0  0  0  0  0  0  0  0  0  0  0  0
   40.1771    9.9955    4.7280 C   0  0  0  0  0  0  0  0  0  0  0  0
   39.5427    8.8291    4.7992 N   0  0  0  0  0  0  0  0  0  0  0  0
   38.7200   11.2248    6.3557 N   0  0  0  0  0  0  0  0  0  0  0  0
   38.7278   12.4941    6.8240 C   0  0  0  0  0  0  0  0  0  0  0  0
   39.7700   13.1670    6.2400 N   0  0  0  0  0  0  0  0  0  0  0  0
  2  1  1  1  0  0  0
  2  3  1  0  0  0  0
  2  5  1  0  0  0  0
  3  4  1  0  0  0  0
  3 16  1  0  0  0  0
  5  6  1  0  0  0  0
  6  7  1  0  0  0  0
  7  8  1  0  0  0  0
  9  8  1  1  0  0  0
  9 10  1  0  0  0  0
  9 11  1  0  0  0  0
 10 15  1  0  0  0  0
 11 12  1  6  0  0  0
 11 13  1  0  0  0  0
 13 14  1  6  0  0  0
 13 15  1  0  0  0  0
 15 26  1  1  0  0  0
 17 18  2  0  0  0  0
 17 22  1  0  0  0  0
 18 19  1  0  0  0  0
 19 20  2  0  0  0  0
 20 21  1  0  0  0  0
 20 26  1  0  0  0  0
 21 22  2  0  0  0  0
 21 24  1  0  0  0  0
 22 23  1  0  0  0  0
 24 25  2  0  0  0  0
 25 26  1  0  0  0  0
M  END
>  <CHROM.1>
-136.73490963,-78.75655138,68.74670219,-94.49260607,-91.39847454,-50.88884201
-147.26746609,38.10126876,14.54157123,6.90853495,2.37276887,0.51286001,0.12922442

>  <Name>
ligand

>  <RI>
0

>  <Rbt.Current_Directory>
/home/itssahil/PROJECTS/Mol_Feturizer/New_Systems/rnas/3NPQ

>  <Rbt.Executable>
rbdock ($Id: //depot/dev/client3/rdock/2013.1/src/exe/rbdock.cxx#4 $)

>  <Rbt.Library>
libRbt.so (2013.1, Build901 2013/11/27)

>  <Rbt.Parameter_File>
/export/apps/rDock/src/rDock_2013.1_src/data/scripts/dock_solv.prm

>  <Rbt.Receptor>
prm/pocket_docking_3.prm

>  <SCORE>
-28.3664

>  <SCORE.INTER>
-29.1776

>  <SCORE.INTER.CONST>
1

>  <SCORE.INTER.POLAR>
0

>  <SCORE.INTER.ROT>
7

>  <SCORE.INTER.SOLV>
25.187

>  <SCORE.INTER.VDW>
-36.1141

>  <SCORE.INTER.norm>
-1.12222

>  <SCORE.INTRA>
0.811212

>  <SCORE.INTRA.DIHEDRAL>
0.361651

>  <SCORE.INTRA.DIHEDRAL.0>
6.97628

>  <SCORE.INTRA.POLAR>
0

>  <SCORE.INTRA.POLAR.0>
0

>  <SCORE.INTRA.REPUL>
0

>  <SCORE.INTRA.REPUL.0>
0

>  <SCORE.INTRA.SOLV>
2.47515

>  <SCORE.INTRA.SOLV.lig_0>
-49.8243

>  <SCORE.INTRA.VDW>
-0.607191

>  <SCORE.INTRA.VDW.0>
-1.35881

>  <SCORE.INTRA.norm>
0.0312005

>  <SCORE.RESTR>
0

>  <SCORE.RESTR.CAVITY>
0

>  <SCORE.RESTR.norm>
0

>  <SCORE.SYSTEM>
0

>  <SCORE.SYSTEM.CONST>
0

>  <SCORE.SYSTEM.DIHEDRAL>
0

>  <SCORE.SYSTEM.SOLV>
0

>  <SCORE.SYSTEM.norm>
0

>  <SCORE.heavy>
26

>  <SCORE.norm>
-1.09102

>  <RMSD>
1.293

$$$$
ligand
 OpenBabel11021811483D
libRbt.so/2013.1/901 2013/11/27
 26 28  0  0  0  0  0  0  0  0999 V2000
   33.3655   18.9912    8.2999 N   0  0  0  0  0  0  0  0  0  0  0  0
   33.8338   17.7764    8.9553 C   0  0  2  0  0  0  0  0  0  0  0  0
   34.9368   18.0860    9.9611 C   0  0  0  0  0  0  0  0  0  0  0  0
   34.9752   17.5203   11.0530 O   0  0  0  0  0  0  0  0  0  0  0  0
   34.3339   16.7725    7.9241 C   0  0  0  0  0  0  0  0  0  0  0  0
   34.7401   15.4271    8.5112 C   0  0  0  0  0  0  0  0  0  0  0  0
   36.4401   15.4264    9.1342 S   0  0  0  0  0  0  0  0  0  0  0  0
   37.0626   15.2364    7.4446 C   0  0  0  0  0  0  0  0  0  0  0  0
   38.5851   15.2446    7.3741 C   0  0  1  0  0  0  0  0  0  0  0  0
   39.0884   13.9490    7.6446 O   0  0  0  0  0  0  0  0  0  0  0  0
   39.0782   15.6562    5.9965 C   0  0  1  0  0  0  0  0  0  0  0  0
   39.8049   16.8588    6.0853 O   0  0  0  0  0  0  0  0  0  0  0  0
   39.9841   14.5357    5.5296 C   0  0  1  0  0  0  0  0  0  0  0  0
   41.2727   15.0361    5.2590 O   0  0  0  0  0  0  0  0  0  0  0  0
   40.0390   13.5427    6.6778 C   0  0  2  0  0  0  0  0  0  0  0  0
   35.8161   18.9094    9.7046 O   0  0  0  0  0  0  0  0  0  0  0  0
   41.4393    9.6077    3.4963 N   0  0  0  0  0  0  0  0  0  0  0  0
   42.0676   10.8241    3.6725 C   0  0  0  0  0  0  0  0  0  0  0  0
   41.5548   11.7491    4.5604 N   0  0  0  0  0  0  0  0  0  0  0  0
   40.4305   11.4712    5.2644 C   0  0  0  0  0  0  0  0  0  0  0  0
   39.7840   10.2536    5.1006 C   0  0  0  0  0  0  0  0  0  0  0  0
   40.2941    9.3169    4.2097 C   0  0  0  0  0  0  0  0  0  0  0  0
   39.6827    8.1477    4.0440 N   0  0  0  0  0  0  0  0  0  0  0  0
   38.7059   10.2426    5.9139 N   0  0  0  0  0  0  0  0  0  0  0  0
   38.6544   11.4165    6.5844 C   0  0  0  0  0  0  0  0  0  0  0  0
   39.7173   12.1887    6.1922 N   0  0  0  0  0  0  0  0  0  0  0  0
  2  1  1  6  0  0  0
  2  3  1  0  0  0  0
  2  5  1  0  0  0  0
  3  4  1  0  0  0  0
  3 16  1  0  0  0  0
  5  6  1  0  0  0  0
  6  7  1  0  0  0  0
  7  8  1  0  0  0  0
  9  8  1  6  0  0  0
  9 10  1  0  0  0  0
  9 11  1  0  0  0  0
 10 15  1  0  0  0  0
 11 12  1  1  0  0  0
 11 13  1  0  0  0  0
 13 14  1  1  0  0  0
 13 15  1  0  0  0  0
 15 26  1  6  0  0  0
 17 18  2  0  0  0  0
 17 22  1  0  0  0  0
 18 19  1  0  0  0  0
 19 20  2  0  0  0  0
 20 21  1  0  0  0  0
 20 26  1  0  0  0  0
 21 22  2  0  0  0  0
 21 24  1  0  0  0  0
 22 23  1  0  0  0  0
 24 25  2  0  0  0  0
 25 26  1  0  0  0  0
M  END
>  <CHROM.1>
139.36418620,-175.35749179,-84.47560415,-79.01367244,177.12114633,83.91896845
-179.16050663,38.16907283,14.19042672,6.89116469,2.25876420,0.49521163,0.21277540

>  <Name>
ligand

>  <RI>
0

>  <Rbt.Current_Directory>
/home/itssahil/PROJECTS/Mol_Feturizer/New_Systems/rnas/3NPQ

>  <Rbt.Executable>
rbdock ($Id: //depot/dev/client3/rdock/2013.1/src/exe/rbdock.cxx#4 $)

>  <Rbt.Library>
libRbt.so (2013.1, Build901 2013/11/27)

>  <Rbt.Parameter_File>
/export/apps/rDock/src/rDock_2013.1_src/data/scripts/dock_solv.prm

>  <Rbt.Receptor>
prm/pocket_docking_4.prm

>  <SCORE>
-32.8298

>  <SCORE.INTER>
-31.4517

>  <SCORE.INTER.CONST>
1

>  <SCORE.INTER.POLAR>
0

>  <SCORE.INTER.ROT>
7

>  <SCORE.INTER.SOLV>
27.3461

>  <SCORE.INTER.VDW>
-38.3499

>  <SCORE.INTER.norm>
-1.20968

>  <SCORE.INTRA>
-1.38397

>  <SCORE.INTRA.DIHEDRAL>
0.118537

>  <SCORE.INTRA.DIHEDRAL.0>
6.97628

>  <SCORE.INTRA.POLAR>
0

>  <SCORE.INTRA.POLAR.0>
0

>  <SCORE.INTRA.REPUL>
0

>  <SCORE.INTRA.REPUL.0>
0

>  <SCORE.INTRA.SOLV>
-0.736847

>  <SCORE.INTRA.SOLV.lig_0>
-49.8243

>  <SCORE.INTRA.VDW>
-1.07482

>  <SCORE.INTRA.VDW.0>
-1.35881

>  <SCORE.INTRA.norm>
-0.0532297

>  <SCORE.RESTR>
0.00588335

>  <SCORE.RESTR.CAVITY>
0.00588335

>  <SCORE.RESTR.norm>
0.000226283

>  <SCORE.SYSTEM>
0

>  <SCORE.SYSTEM.CONST>
0

>  <SCORE.SYSTEM.DIHEDRAL>
0

>  <SCORE.SYSTEM.SOLV>
0

>  <SCORE.SYSTEM.norm>
0

>  <SCORE.heavy>
26

>  <SCORE.norm>
-1.26269

>  <RMSD>
1.296

$$$$
ligand
 OpenBabel11021811483D
libRbt.so/2013.1/901 2013/11/27
 26 28  0  0  0  0  0  0  0  0999 V2000
   33.8908   18.4700   10.4957 N   0  0  0  0  0  0  0  0  0  0  0  0
   34.7974   17.8982    9.5080 C   0  0  2  0  0  0  0  0  0  0  0  0
   35.5016   18.9912    8.7120 C   0  0  0  0  0  0  0  0  0  0  0  0
   34.8617   19.8889    8.1656 O   0  0  0  0  0  0  0  0  0  0  0  0
   34.0426   16.9693    8.5653 C   0  0  0  0  0  0  0  0  0  0  0  0
   34.8788   15.8163    8.0258 C   0  0  0  0  0  0  0  0  0  0  0  0
   36.2124   16.3761    6.9365 S   0  0  0  0  0  0  0  0  0  0  0  0
   36.9303   14.7140    6.9560 C   0  0  0  0  0  0  0  0  0  0  0  0
   38.4348   14.7256    7.2002 C   0  0  1  0  0  0  0  0  0  0  0  0
   38.8911   13.4121    7.4675 O   0  0  0  0  0  0  0  0  0  0  0  0
   39.1932   15.2435    5.9891 C   0  0  1  0  0  0  0  0  0  0  0  0
   39.8685   16.4345    6.3176 O   0  0  0  0  0  0  0  0  0  0  0  0
   40.1919   14.1619    5.6330 C   0  0  1  0  0  0  0  0  0  0  0  0
   41.5012   14.6802    5.6720 O   0  0  0  0  0  0  0  0  0  0  0  0
   40.0254   13.0817    6.6880 C   0  0  2  0  0  0  0  0  0  0  0  0
   36.7278   19.0021    8.5972 O   0  0  0  0  0  0  0  0  0  0  0  0
   41.8827    9.6169    3.2077 N   0  0  0  0  0  0  0  0  0  0  0  0
   42.4108   10.8455    3.5500 C   0  0  0  0  0  0  0  0  0  0  0  0
   41.7835   11.6326    4.4954 N   0  0  0  0  0  0  0  0  0  0  0  0
   40.6442   11.2065    5.0932 C   0  0  0  0  0  0  0  0  0  0  0  0
   40.0974    9.9743    4.7619 C   0  0  0  0  0  0  0  0  0  0  0  0
   40.7230    9.1756    3.8122 C   0  0  0  0  0  0  0  0  0  0  0  0
   40.2078    7.9939    3.4863 N   0  0  0  0  0  0  0  0  0  0  0  0
   38.9787    9.8041    5.4992 N   0  0  0  0  0  0  0  0  0  0  0  0
   38.8050   10.8921    6.2843 C   0  0  0  0  0  0  0  0  0  0  0  0
   39.8300   11.7705    6.0437 N   0  0  0  0  0  0  0  0  0  0  0  0
  2  1  1  1  0  0  0
  2  3  1  0  0  0  0
  2  5  1  0  0  0  0
  3  4  1  0  0  0  0
  3 16  1  0  0  0  0
  5  6  1  0  0  0  0
  6  7  1  0  0  0  0
  7  8  1  0  0  0  0
  9  8  1  6  0  0  0
  9 10  1  0  0  0  0
  9 11  1  0  0  0  0
 10 15  1  0  0  0  0
 11 12  1  1  0  0  0
 11 13  1  0  0  0  0
 13 14  1  1  0  0  0
 13 15  1  0  0  0  0
 15 26  1  6  0  0  0
 17 18  2  0  0  0  0
 17 22  1  0  0  0  0
 18 19  1  0  0  0  0
 19 20  2  0  0  0  0
 20 21  1  0  0  0  0
 20 26  1  0  0  0  0
 21 22  2  0  0  0  0
 21 24  1  0  0  0  0
 22 23  1  0  0  0  0
 24 25  2  0  0  0  0
 25 26  1  0  0  0  0
M  END
>  <CHROM.1>
-51.86173201,-149.33874386,-66.37070420,169.51328548,-133.27094605,168.47476181
171.58748464,38.35910212,14.19542398,6.50189288,2.19124539,0.39293935,0.22691060

>  <Name>
ligand

>  <RI>
0

>  <Rbt.Current_Directory>
/home/itssahil/PROJECTS/Mol_Feturizer/New_Systems/rnas/3NPQ

>  <Rbt.Executable>
rbdock ($Id: //depot/dev/client3/rdock/2013.1/src/exe/rbdock.cxx#4 $)

>  <Rbt.Library>
libRbt.so (2013.1, Build901 2013/11/27)

>  <Rbt.Parameter_File>
/export/apps/rDock/src/rDock_2013.1_src/data/scripts/dock_solv.prm

>  <Rbt.Receptor>
prm/pocket_docking_2.prm

>  <SCORE>
-27.8553

>  <SCORE.INTER>
-26.8712

>  <SCORE.INTER.CONST>
1

>  <SCORE.INTER.POLAR>
0

>  <SCORE.INTER.ROT>
7

>  <SCORE.INTER.SOLV>
27.0616

>  <SCORE.INTER.VDW>
-35.2014

>  <SCORE.INTER.norm>
-1.03351

>  <SCORE.INTRA>
-0.985818

>  <SCORE.INTRA.DIHEDRAL>
1.5906

>  <SCORE.INTRA.DIHEDRAL.0>
6.97628

>  <SCORE.INTRA.POLAR>
0

>  <SCORE.INTRA.POLAR.0>
0

>  <SCORE.INTRA.REPUL>
0

>  <SCORE.INTRA.REPUL.0>
0

>  <SCORE.INTRA.SOLV>
-0.542466

>  <SCORE.INTRA.SOLV.lig_0>
-49.8243

>  <SCORE.INTRA.VDW>
-1.50989

>  <SCORE.INTRA.VDW.0>
-1.35881

>  <SCORE.INTRA.norm>
-0.0379161

>  <SCORE.RESTR>
0.00175966

>  <SCORE.RESTR.CAVITY>
0.00175966

>  <SCORE.RESTR.norm>
6.76794e-05

>  <SCORE.SYSTEM>
0

>  <SCORE.SYSTEM.CONST>
0

>  <SCORE.SYSTEM.DIHEDRAL>
0

>  <SCORE.SYSTEM.SOLV>
0

>  <SCORE.SYSTEM.norm>
0

>  <SCORE.heavy>
26

>  <SCORE.norm>
-1.07136

>  <RMSD>
1.298

$$$$
ligand
 OpenBabel11021811483D
libRbt.so/2013.1/901 2013/11/27
 26 28  0  0  0  0  0  0  0  0999 V2000
   36.3491   18.0607    8.6912 N   0  0  0  0  0  0  0  0  0  0  0  0
   34.9485   17.9672    8.2988 C   0  0  2  0  0  0  0  0  0  0  0  0
   34.1569   19.1699    8.7996 C   0  0  0  0  0  0  0  0  0  0  0  0
   33.6732   19.1833    9.9308 O   0  0  0  0  0  0  0  0  0  0  0  0
   34.3310   16.6786    8.8274 C   0  0  0  0  0  0  0  0  0  0  0  0
   34.8925   15.4131    8.1926 C   0  0  0  0  0  0  0  0  0  0  0  0
   36.5316   14.9845    8.8314 S   0  0  0  0  0  0  0  0  0  0  0  0
   37.2599   15.3451    7.2134 C   0  0  0  0  0  0  0  0  0  0  0  0
   38.7818   15.2603    7.2211 C   0  0  1  0  0  0  0  0  0  0  0  0
   39.1907   13.9409    7.5322 O   0  0  0  0  0  0  0  0  0  0  0  0
   39.3682   15.6211    5.8660 C   0  0  1  0  0  0  0  0  0  0  0  0
   40.1615   16.7788    5.9781 O   0  0  0  0  0  0  0  0  0  0  0  0
   40.2264   14.4411    5.4594 C   0  0  1  0  0  0  0  0  0  0  0  0
   41.5552   14.8588    5.2496 O   0  0  0  0  0  0  0  0  0  0  0  0
   40.1624   13.4637    6.6204 C   0  0  2  0  0  0  0  0  0  0  0  0
   33.9830   20.1572    8.0842 O   0  0  0  0  0  0  0  0  0  0  0  0
   41.3394    9.5152    3.3660 N   0  0  0  0  0  0  0  0  0  0  0  0
   42.0104   10.7100    3.5317 C   0  0  0  0  0  0  0  0  0  0  0  0
   41.5548   11.6426    4.4425 N   0  0  0  0  0  0  0  0  0  0  0  0
   40.4448   11.3935    5.1793 C   0  0  0  0  0  0  0  0  0  0  0  0
   39.7560   10.1979    5.0265 C   0  0  0  0  0  0  0  0  0  0  0  0
   40.2085    9.2537    4.1128 C   0  0  0  0  0  0  0  0  0  0  0  0
   39.5561    8.1055    3.9574 N   0  0  0  0  0  0  0  0  0  0  0  0
   38.7039   10.2131    5.8733 N   0  0  0  0  0  0  0  0  0  0  0  0
   38.7100   11.3822    6.5541 C   0  0  0  0  0  0  0  0  0  0  0  0
   39.7837   12.1246    6.1346 N   0  0  0  0  0  0  0  0  0  0  0  0
  2  1  1  1  0  0  0
  2  3  1  0  0  0  0
  2  5  1  0  0  0  0
  3  4  1  0  0  0  0
  3 16  1  0  0  0  0
  5  6  1  0  0  0  0
  6  7  1  0  0  0  0
  7  8  1  0  0  0  0
  9  8  1  6  0  0  0
  9 10  1  0  0  0  0
  9 11  1  0  0  0  0
 10 15  1  0  0  0  0
 11 12  1  1  0  0  0
 11 13  1  0  0  0  0
 13 14  1  1  0  0  0
 13 15  1  0  0  0  0
 15 26  1  6  0  0  0
 17 18  2  0  0  0  0
 17 22  1  0  0  0  0
 18 19  1  0  0  0  0
 19 20  2  0  0  0  0
 20 21  1  0  0  0  0
 20 26  1  0  0  0  0
 21 22  2  0  0  0  0
 21 24  1  0  0  0  0
 22 23  1  0  0  0  0
 24 25  2  0  0  0  0
 25 26  1  0  0  0  0
M  END
>  <CHROM.1>
-86.00708262,-67.15149637,76.20713784,-112.57790047,174.42952223,62.71426349
175.67114858,38.23314873,14.24183579,6.66240776,-2.23999865,-0.47062737,-2.98232661

>  <Name>
ligand

>  <RI>
0

>  <Rbt.Current_Directory>
/home/itssahil/PROJECTS/Mol_Feturizer/New_Systems/rnas/3NPQ

>  <Rbt.Executable>
rbdock ($Id: //depot/dev/client3/rdock/2013.1/src/exe/rbdock.cxx#4 $)

>  <Rbt.Library>
libRbt.so (2013.1, Build901 2013/11/27)

>  <Rbt.Parameter_File>
/export/apps/rDock/src/rDock_2013.1_src/data/scripts/dock_solv.prm

>  <Rbt.Receptor>
prm/pocket_docking_3.prm

>  <SCORE>
-32.5677

>  <SCORE.INTER>
-32.4285

>  <SCORE.INTER.CONST>
1

>  <SCORE.INTER.POLAR>
0

>  <SCORE.INTER.ROT>
7

>  <SCORE.INTER.SOLV>
22.6092

>  <SCORE.INTER.VDW>
-37.4221

>  <SCORE.INTER.norm>
-1.24725

>  <SCORE.INTRA>
-0.139113

>  <SCORE.INTRA.DIHEDRAL>
-0.774291

>  <SCORE.INTRA.DIHEDRAL.0>
6.97628

>  <SCORE.INTRA.POLAR>
0

>  <SCORE.INTRA.POLAR.0>
0

>  <SCORE.INTRA.REPUL>
0

>  <SCORE.INTRA.REPUL.0>
0

>  <SCORE.INTRA.SOLV>
2.34041

>  <SCORE.INTRA.SOLV.lig_0>
-49.8243

>  <SCORE.INTRA.VDW>
-0.922173

>  <SCORE.INTRA.VDW.0>
-1.35881

>  <SCORE.INTRA.norm>
-0.00535051

>  <SCORE.RESTR>
0

>  <SCORE.RESTR.CAVITY>
0

>  <SCORE.RESTR.norm>
0

>  <SCORE.SYSTEM>
0

>  <SCORE.SYSTEM.CONST>
0

>  <SCORE.SYSTEM.DIHEDRAL>
0

>  <SCORE.SYSTEM.SOLV>
0

>  <SCORE.SYSTEM.norm>
0

>  <SCORE.heavy>
26

>  <SCORE.norm>
-1.2526

>  <RMSD>
1.302

$$$$
ligand
 OpenBabel11021811483D
libRbt.so/2013.1/901 2013/11/27
 26 28  0  0  0  0  0  0  0  0999 V2000
   33.6064   18.6290   10.5743 N   0  0  0  0  0  0  0  0  0  0  0  0
   34.8250   18.2267    9.8832 C   0  0  2  0  0  0  0  0  0  0  0  0
   34.8849   18.8262    8.4828 C   0  0  0  0  0  0  0  0  0  0  0  0
   35.9213   19.3325    8.0544 O   0  0  0  0  0  0  0  0  0  0  0  0
   34.9182   16.7080    9.8058 C   0  0  0  0  0  0  0  0  0  0  0  0
   36.1797   16.1957    9.1233 C   0  0  0  0  0  0  0  0  0  0  0  0
   36.0713   16.2708    7.3174 S   0  0  0  0  0  0  0  0  0  0  0  0
   36.8599   14.6453    7.1993 C   0  0  0  0  0  0  0  0  0  0  0  0
   38.3788   14.7192    7.3028 C   0  0  1  0  0  0  0  0  0  0  0  0
   38.9108   13.4276    7.5344 O   0  0  0  0  0  0  0  0  0  0  0  0
   39.0004   15.2552    6.0235 C   0  0  1  0  0  0  0  0  0  0  0  0
   39.6542   16.4752    6.2810 O   0  0  0  0  0  0  0  0  0  0  0  0
   40.0049   14.2108    5.5827 C   0  0  1  0  0  0  0  0  0  0  0  0
   41.2901   14.7813    5.4971 O   0  0  0  0  0  0  0  0  0  0  0  0
   39.9806   13.1351    6.6549 C   0  0  2  0  0  0  0  0  0  0  0  0
   33.8977   18.8176    7.7465 O   0  0  0  0  0  0  0  0  0  0  0  0
   41.7890    9.6144    3.2050 N   0  0  0  0  0  0  0  0  0  0  0  0
   42.3170   10.8519    3.5139 C   0  0  0  0  0  0  0  0  0  0  0  0
   41.7038   11.6536    4.4563 N   0  0  0  0  0  0  0  0  0  0  0  0
   40.5785   11.2333    5.0840 C   0  0  0  0  0  0  0  0  0  0  0  0
   40.0320    9.9923    4.7866 C   0  0  0  0  0  0  0  0  0  0  0  0
   40.6435    9.1790    3.8401 C   0  0  0  0  0  0  0  0  0  0  0  0
   40.1284    7.9887    3.5465 N   0  0  0  0  0  0  0  0  0  0  0  0
   38.9287    9.8304    5.5485 N   0  0  0  0  0  0  0  0  0  0  0  0
   38.7644   10.9323    6.3161 C   0  0  0  0  0  0  0  0  0  0  0  0
   39.7798   11.8110    6.0393 N   0  0  0  0  0  0  0  0  0  0  0  0
  2  1  1  6  0  0  0
  2  3  1  0  0  0  0
  2  5  1  0  0  0  0
  3  4  1  0  0  0  0
  3 16  1  0  0  0  0
  5  6  1  0  0  0  0
  6  7  1  0  0  0  0
  7  8  1  0  0  0  0
  9  8  1  6  0  0  0
  9 10  1  0  0  0  0
  9 11  1  0  0  0  0
 10 15  1  0  0  0  0
 11 12  1  1  0  0  0
 11 13  1  0  0  0  0
 13 14  1  1  0  0  0
 13 15  1  0  0  0  0
 15 26  1  6  0  0  0
 17 18  2  0  0  0  0
 17 22  1  0  0  0  0
 18 19  1  0  0  0  0
 19 20  2  0  0  0  0
 20 21  1  0  0  0  0
 20 26  1  0  0  0  0
 21 22  2  0  0  0  0
 21 24  1  0  0  0  0
 22 23  1  0  0  0  0
 24 25  2  0  0  0  0
 25 26  1  0  0  0  0
M  END
>  <CHROM.1>
135.49598696,-178.76299454,-79.67676326,-138.46251635,-82.14785130,165.69288036
176.29588560,38.26272174,14.18520999,6.59779731,2.24651431,0.51472267,0.14306866

>  <Name>
ligand

>  <RI>
0

>  <Rbt.Current_Directory>
/home/itssahil/PROJECTS/Mol_Feturizer/New_Systems/rnas/3NPQ

>  <Rbt.Executable>
rbdock ($Id: //depot/dev/client3/rdock/2013.1/src/exe/rbdock.cxx#4 $)

>  <Rbt.Library>
libRbt.so (2013.1, Build901 2013/11/27)

>  <Rbt.Parameter_File>
/export/apps/rDock/src/rDock_2013.1_src/data/scripts/dock_solv.prm

>  <Rbt.Receptor>
prm/pocket_docking_7.prm

>  <SCORE>
-28.0576

>  <SCORE.INTER>
-26.9205

>  <SCORE.INTER.CONST>
1

>  <SCORE.INTER.POLAR>
0

>  <SCORE.INTER.ROT>
7

>  <SCORE.INTER.SOLV>
27.8268

>  <SCORE.INTER.VDW>
-35.4893

>  <SCORE.INTER.norm>
-1.0354

>  <SCORE.INTRA>
-1.13707

>  <SCORE.INTRA.DIHEDRAL>
0.34063

>  <SCORE.INTRA.DIHEDRAL.0>
6.97628

>  <SCORE.INTRA.POLAR>
0

>  <SCORE.INTRA.POLAR.0>
0

>  <SCORE.INTRA.REPUL>
0

>  <SCORE.INTRA.REPUL.0>
0

>  <SCORE.INTRA.SOLV>
-0.542054

>  <SCORE.INTRA.SOLV.lig_0>
-49.8243

>  <SCORE.INTRA.VDW>
-1.03635

>  <SCORE.INTRA.VDW.0>
-1.35881

>  <SCORE.INTRA.norm>
-0.0437333

>  <SCORE.RESTR>
0

>  <SCORE.RESTR.CAVITY>
0

>  <SCORE.RESTR.norm>
0

>  <SCORE.SYSTEM>
0

>  <SCORE.SYSTEM.CONST>
0

>  <SCORE.SYSTEM.DIHEDRAL>
0

>  <SCORE.SYSTEM.SOLV>
0

>  <SCORE.SYSTEM.norm>
0

>  <SCORE.heavy>
26

>  <SCORE.norm>
-1.07914

>  <RMSD>
1.320

$$$$
ligand
 OpenBabel11021811483D
libRbt.so/2013.1/901 2013/11/27
 26 28  0  0  0  0  0  0  0  0999 V2000
   36.4266   18.2052    8.6082 N   0  0  0  0  0  0  0  0  0  0  0  0
   35.1324   17.9582    7.9850 C   0  0  2  0  0  0  0  0  0  0  0  0
   34.2710   19.2160    7.9923 C   0  0  0  0  0  0  0  0  0  0  0  0
   34.7835   20.3345    8.0037 O   0  0  0  0  0  0  0  0  0  0  0  0
   34.4057   16.8233    8.6956 C   0  0  0  0  0  0  0  0  0  0  0  0
   34.9166   15.4346    8.3346 C   0  0  0  0  0  0  0  0  0  0  0  0
   36.5842   15.1223    8.9671 S   0  0  0  0  0  0  0  0  0  0  0  0
   37.2585   15.3280    7.2994 C   0  0  0  0  0  0  0  0  0  0  0  0
   38.7809   15.2593    7.2677 C   0  0  1  0  0  0  0  0  0  0  0  0
   39.2115   13.9430    7.5627 O   0  0  0  0  0  0  0  0  0  0  0  0
   39.3285   15.6315    5.8995 C   0  0  1  0  0  0  0  0  0  0  0  0
   40.1122   16.7972    5.9961 O   0  0  0  0  0  0  0  0  0  0  0  0
   40.1882   14.4623    5.4661 C   0  0  1  0  0  0  0  0  0  0  0  0
   41.5068   14.8948    5.2240 O   0  0  0  0  0  0  0  0  0  0  0  0
   40.1644   13.4797    6.6243 C   0  0  2  0  0  0  0  0  0  0  0  0
   33.0416   19.1427    7.9864 O   0  0  0  0  0  0  0  0  0  0  0  0
   41.3760    9.5003    3.4207 N   0  0  0  0  0  0  0  0  0  0  0  0
   42.0500   10.6932    3.5882 C   0  0  0  0  0  0  0  0  0  0  0  0
   41.5838   11.6351    4.4839 N   0  0  0  0  0  0  0  0  0  0  0  0
   40.4607   11.3969    5.2043 C   0  0  0  0  0  0  0  0  0  0  0  0
   39.7687   10.2034    5.0494 C   0  0  0  0  0  0  0  0  0  0  0  0
   40.2318    9.2499    4.1507 C   0  0  0  0  0  0  0  0  0  0  0  0
   39.5766    8.1036    3.9934 N   0  0  0  0  0  0  0  0  0  0  0  0
   38.7029   10.2302    5.8785 N   0  0  0  0  0  0  0  0  0  0  0  0
   38.7033   11.4046    6.5502 C   0  0  0  0  0  0  0  0  0  0  0  0
   39.7873   12.1386    6.1427 N   0  0  0  0  0  0  0  0  0  0  0  0
  2  1  1  1  0  0  0
  2  3  1  0  0  0  0
  2  5  1  0  0  0  0
  3  4  1  0  0  0  0
  3 16  1  0  0  0  0
  5  6  1  0  0  0  0
  6  7  1  0  0  0  0
  7  8  1  0  0  0  0
  9  8  1  6  0  0  0
  9 10  1  0  0  0  0
  9 11  1  0  0  0  0
 10 15  1  0  0  0  0
 11 12  1  1  0  0  0
 11 13  1  0  0  0  0
 13 14  1  1  0  0  0
 13 15  1  0  0  0  0
 15 26  1  6  0  0  0
 17 18  2  0  0  0  0
 17 22  1  0  0  0  0
 18 19  1  0  0  0  0
 19 20  2  0  0  0  0
 20 21  1  0  0  0  0
 20 26  1  0  0  0  0
 21 22  2  0  0  0  0
 21 24  1  0  0  0  0
 22 23  1  0  0  0  0
 24 25  2  0  0  0  0
 25 26  1  0  0  0  0
M  END
>  <CHROM.1>
26.94101929,-77.48880472,68.81684287,-104.99361478,175.56012951,68.62868081
178.33090629,38.26147123,14.27617544,6.56544219,-2.22679389,-0.43673536,-3.01019817

>  <Name>
ligand

>  <RI>
0

>  <Rbt.Current_Directory>
/home/itssahil/PROJECTS/Mol_Feturizer/New_Systems/rnas/3NPQ

>  <Rbt.Executable>
rbdock ($Id: //depot/dev/client3/rdock/2013.1/src/exe/rbdock.cxx#4 $)

>  <Rbt.Library>
libRbt.so (2013.1, Build901 2013/11/27)

>  <Rbt.Parameter_File>
/export/apps/rDock/src/rDock_2013.1_src/data/scripts/dock_solv.prm

>  <Rbt.Receptor>
prm/pocket_docking_3.prm

>  <SCORE>
-30.4847

>  <SCORE.INTER>
-30.5835

>  <SCORE.INTER.CONST>
1

>  <SCORE.INTER.POLAR>
0

>  <SCORE.INTER.ROT>
7

>  <SCORE.INTER.SOLV>
22.6434

>  <SCORE.INTER.VDW>
-36.2035

>  <SCORE.INTER.norm>
-1.17629

>  <SCORE.INTRA>
0.0988347

>  <SCORE.INTRA.DIHEDRAL>
-0.513419

>  <SCORE.INTRA.DIHEDRAL.0>
6.97628

>  <SCORE.INTRA.POLAR>
0

>  <SCORE.INTRA.POLAR.0>
0

>  <SCORE.INTRA.REPUL>
0

>  <SCORE.INTRA.REPUL.0>
0

>  <SCORE.INTRA.SOLV>
2.23337

>  <SCORE.INTRA.SOLV.lig_0>
-49.8243

>  <SCORE.INTRA.VDW>
-0.76114

>  <SCORE.INTRA.VDW.0>
-1.35881

>  <SCORE.INTRA.norm>
0.00380133

>  <SCORE.RESTR>
0

>  <SCORE.RESTR.CAVITY>
0

>  <SCORE.RESTR.norm>
0

>  <SCORE.SYSTEM>
0

>  <SCORE.SYSTEM.CONST>
0

>  <SCORE.SYSTEM.DIHEDRAL>
0

>  <SCORE.SYSTEM.SOLV>
0

>  <SCORE.SYSTEM.norm>
0

>  <SCORE.heavy>
26

>  <SCORE.norm>
-1.17249

>  <RMSD>
1.327

$$$$
ligand
 OpenBabel11021811483D
libRbt.so/2013.1/901 2013/11/27
 26 28  0  0  0  0  0  0  0  0999 V2000
   35.0471   16.6352   10.3928 N   0  0  0  0  0  0  0  0  0  0  0  0
   35.2429   17.4573    9.2051 C   0  0  2  0  0  0  0  0  0  0  0  0
   34.4593   18.7611    9.3051 C   0  0  0  0  0  0  0  0  0  0  0  0
   34.8266   19.7686    8.7019 O   0  0  0  0  0  0  0  0  0  0  0  0
   34.8290   16.6937    7.9534 C   0  0  0  0  0  0  0  0  0  0  0  0
   35.1799   15.2119    7.9836 C   0  0  0  0  0  0  0  0  0  0  0  0
   36.8508   14.9068    8.6108 S   0  0  0  0  0  0  0  0  0  0  0  0
   37.5307   15.2251    6.9633 C   0  0  0  0  0  0  0  0  0  0  0  0
   39.0492   15.1002    6.9192 C   0  0  1  0  0  0  0  0  0  0  0  0
   39.4357   13.7811    7.2590 O   0  0  0  0  0  0  0  0  0  0  0  0
   39.5944   15.4014    5.5327 C   0  0  1  0  0  0  0  0  0  0  0  0
   40.4204   16.5407    5.5778 O   0  0  0  0  0  0  0  0  0  0  0  0
   40.4069   14.1866    5.1349 C   0  0  1  0  0  0  0  0  0  0  0  0
   41.7374   14.5618    4.8639 O   0  0  0  0  0  0  0  0  0  0  0  0
   40.3609   13.2491    6.3293 C   0  0  2  0  0  0  0  0  0  0  0  0
   33.4395   18.8371    9.9915 O   0  0  0  0  0  0  0  0  0  0  0  0
   41.4320    9.0830    3.3187 N   0  0  0  0  0  0  0  0  0  0  0  0
   42.1557   10.2519    3.4426 C   0  0  0  0  0  0  0  0  0  0  0  0
   41.7214   11.2518    4.2902 N   0  0  0  0  0  0  0  0  0  0  0  0
   40.5811   11.0946    5.0057 C   0  0  0  0  0  0  0  0  0  0  0  0
   39.8393    9.9265    4.8943 C   0  0  0  0  0  0  0  0  0  0  0  0
   40.2699    8.9150    4.0442 C   0  0  0  0  0  0  0  0  0  0  0  0
   39.5669    7.7923    3.9289 N   0  0  0  0  0  0  0  0  0  0  0  0
   38.7667   10.0361    5.7077 N   0  0  0  0  0  0  0  0  0  0  0  0
   38.8111   11.2379    6.3272 C   0  0  0  0  0  0  0  0  0  0  0  0
   39.9307   11.9056    5.9021 N   0  0  0  0  0  0  0  0  0  0  0  0
  2  1  1  1  0  0  0
  2  3  1  0  0  0  0
  2  5  1  0  0  0  0
  3  4  1  0  0  0  0
  3 16  1  0  0  0  0
  5  6  1  0  0  0  0
  6  7  1  0  0  0  0
  7  8  1  0  0  0  0
  9  8  1  6  0  0  0
  9 10  1  0  0  0  0
  9 11  1  0  0  0  0
 10 15  1  0  0  0  0
 11 12  1  1  0  0  0
 11 13  1  0  0  0  0
 13 14  1  1  0  0  0
 13 15  1  0  0  0  0
 15 26  1  6  0  0  0
 17 18  2  0  0  0  0
 17 22  1  0  0  0  0
 18 19  1  0  0  0  0
 19 20  2  0  0  0  0
 20 21  1  0  0  0  0
 20 26  1  0  0  0  0
 21 22  2  0  0  0  0
 21 24  1  0  0  0  0
 22 23  1  0  0  0  0
 24 25  2  0  0  0  0
 25 26  1  0  0  0  0
M  END
>  <CHROM.1>
153.54086058,-37.61892620,-43.88499471,-83.58003025,179.61873738,61.67484049
179.74202554,38.39147514,13.94385104,6.59977926,2.25664386,0.52764039,0.17112732

>  <Name>
ligand

>  <RI>
0

>  <Rbt.Current_Directory>
/home/itssahil/PROJECTS/Mol_Feturizer/New_Systems/rnas/3NPQ

>  <Rbt.Executable>
rbdock ($Id: //depot/dev/client3/rdock/2013.1/src/exe/rbdock.cxx#4 $)

>  <Rbt.Library>
libRbt.so (2013.1, Build901 2013/11/27)

>  <Rbt.Parameter_File>
/export/apps/rDock/src/rDock_2013.1_src/data/scripts/dock_solv.prm

>  <Rbt.Receptor>
prm/pocket_docking_2.prm

>  <SCORE>
-29.091

>  <SCORE.INTER>
-29.6377

>  <SCORE.INTER.CONST>
1

>  <SCORE.INTER.POLAR>
0

>  <SCORE.INTER.ROT>
7

>  <SCORE.INTER.SOLV>
27.2287

>  <SCORE.INTER.VDW>
-37.1013

>  <SCORE.INTER.norm>
-1.13991

>  <SCORE.INTRA>
0.273012

>  <SCORE.INTRA.DIHEDRAL>
-0.814434

>  <SCORE.INTRA.DIHEDRAL.0>
6.97628

>  <SCORE.INTRA.POLAR>
0

>  <SCORE.INTRA.POLAR.0>
0

>  <SCORE.INTRA.REPUL>
0

>  <SCORE.INTRA.REPUL.0>
0

>  <SCORE.INTRA.SOLV>
1.38309

>  <SCORE.INTRA.SOLV.lig_0>
-49.8243

>  <SCORE.INTRA.VDW>
-0.011315

>  <SCORE.INTRA.VDW.0>
-1.35881

>  <SCORE.INTRA.norm>
0.0105004

>  <SCORE.RESTR>
0.273685

>  <SCORE.RESTR.CAVITY>
0.273685

>  <SCORE.RESTR.norm>
0.0105264

>  <SCORE.SYSTEM>
0

>  <SCORE.SYSTEM.CONST>
0

>  <SCORE.SYSTEM.DIHEDRAL>
0

>  <SCORE.SYSTEM.SOLV>
0

>  <SCORE.SYSTEM.norm>
0

>  <SCORE.heavy>
26

>  <SCORE.norm>
-1.11888

>  <RMSD>
1.350

$$$$
ligand
 OpenBabel11021811483D
libRbt.so/2013.1/901 2013/11/27
 26 28  0  0  0  0  0  0  0  0999 V2000
   33.9089   18.2374   10.5700 N   0  0  0  0  0  0  0  0  0  0  0  0
   34.6970   18.6663    9.4213 C   0  0  2  0  0  0  0  0  0  0  0  0
   33.8079   18.9159    8.2084 C   0  0  0  0  0  0  0  0  0  0  0  0
   34.0437   19.8387    7.4295 O   0  0  0  0  0  0  0  0  0  0  0  0
   35.7596   17.6275    9.0852 C   0  0  0  0  0  0  0  0  0  0  0  0
   35.1994   16.2570    8.7280 C   0  0  0  0  0  0  0  0  0  0  0  0
   36.4209   14.9351    8.9242 S   0  0  0  0  0  0  0  0  0  0  0  0
   37.1087   15.3245    7.2952 C   0  0  0  0  0  0  0  0  0  0  0  0
   38.6322   15.2817    7.2742 C   0  0  1  0  0  0  0  0  0  0  0  0
   39.0831   13.9746    7.5793 O   0  0  0  0  0  0  0  0  0  0  0  0
   39.1826   15.6558    5.9076 C   0  0  1  0  0  0  0  0  0  0  0  0
   39.9456   16.8352    6.0029 O   0  0  0  0  0  0  0  0  0  0  0  0
   40.0652   14.4991    5.4865 C   0  0  1  0  0  0  0  0  0  0  0  0
   41.3778   14.9528    5.2509 O   0  0  0  0  0  0  0  0  0  0  0  0
   40.0502   13.5226    6.6499 C   0  0  2  0  0  0  0  0  0  0  0  0
   32.8326   18.1997    7.9789 O   0  0  0  0  0  0  0  0  0  0  0  0
   41.3780    9.5277    3.5123 N   0  0  0  0  0  0  0  0  0  0  0  0
   42.0342   10.7301    3.6829 C   0  0  0  0  0  0  0  0  0  0  0  0
   41.5375   11.6748    4.5591 N   0  0  0  0  0  0  0  0  0  0  0  0
   40.4018   11.4301    5.2570 C   0  0  0  0  0  0  0  0  0  0  0  0
   39.7273   10.2271    5.0988 C   0  0  0  0  0  0  0  0  0  0  0  0
   40.2210    9.2707    4.2196 C   0  0  0  0  0  0  0  0  0  0  0  0
   39.5828    8.1152    4.0593 N   0  0  0  0  0  0  0  0  0  0  0  0
   38.6434   10.2490    5.9041 N   0  0  0  0  0  0  0  0  0  0  0  0
   38.6154   11.4296    6.5642 C   0  0  0  0  0  0  0  0  0  0  0  0
   39.6994   12.1726    6.1734 N   0  0  0  0  0  0  0  0  0  0  0  0
  2  1  1  1  0  0  0
  2  3  1  0  0  0  0
  2  5  1  0  0  0  0
  3  4  1  0  0  0  0
  3 16  1  0  0  0  0
  5  6  1  0  0  0  0
  6  7  1  0  0  0  0
  7  8  1  0  0  0  0
  9  8  1  6  0  0  0
  9 10  1  0  0  0  0
  9 11  1  0  0  0  0
 10 15  1  0  0  0  0
 11 12  1  1  0  0  0
 11 13  1  0  0  0  0
 13 14  1  1  0  0  0
 13 15  1  0  0  0  0
 15 26  1  6  0  0  0
 17 18  2  0  0  0  0
 17 22  1  0  0  0  0
 18 19  1  0  0  0  0
 19 20  2  0  0  0  0
 20 21  1  0  0  0  0
 20 26  1  0  0  0  0
 21 22  2  0  0  0  0
 21 24  1  0  0  0  0
 22 23  1  0  0  0  0
 24 25  2  0  0  0  0
 25 26  1  0  0  0  0
M  END
>  <CHROM.1>
142.90159007,60.41607220,-159.15645389,-82.35358097,138.66646391,62.28847900
179.27590010,38.08845746,14.29487041,6.72001654,2.28151861,0.48784041,0.11314930

>  <Name>
ligand

>  <RI>
0

>  <Rbt.Current_Directory>
/home/itssahil/PROJECTS/Mol_Feturizer/New_Systems/rnas/3NPQ

>  <Rbt.Executable>
rbdock ($Id: //depot/dev/client3/rdock/2013.1/src/exe/rbdock.cxx#4 $)

>  <Rbt.Library>
libRbt.so (2013.1, Build901 2013/11/27)

>  <Rbt.Parameter_File>
/export/apps/rDock/src/rDock_2013.1_src/data/scripts/dock_solv.prm

>  <Rbt.Receptor>
prm/pocket_docking_2.prm

>  <SCORE>
-31.9824

>  <SCORE.INTER>
-31.3097

>  <SCORE.INTER.CONST>
1

>  <SCORE.INTER.POLAR>
0

>  <SCORE.INTER.ROT>
7

>  <SCORE.INTER.SOLV>
29.1062

>  <SCORE.INTER.VDW>
-38.8419

>  <SCORE.INTER.norm>
-1.20422

>  <SCORE.INTRA>
-0.709298

>  <SCORE.INTRA.DIHEDRAL>
-0.200356

>  <SCORE.INTRA.DIHEDRAL.0>
6.97628

>  <SCORE.INTRA.POLAR>
0

>  <SCORE.INTRA.POLAR.0>
0

>  <SCORE.INTRA.REPUL>
0

>  <SCORE.INTRA.REPUL.0>
0

>  <SCORE.INTRA.SOLV>
-0.0994517

>  <SCORE.INTRA.SOLV.lig_0>
-49.8243

>  <SCORE.INTRA.VDW>
-0.559394

>  <SCORE.INTRA.VDW.0>
-1.35881

>  <SCORE.INTRA.norm>
-0.0272807

>  <SCORE.RESTR>
0.0366408

>  <SCORE.RESTR.CAVITY>
0.0366408

>  <SCORE.RESTR.norm>
0.00140926

>  <SCORE.SYSTEM>
0

>  <SCORE.SYSTEM.CONST>
0

>  <SCORE.SYSTEM.DIHEDRAL>
0

>  <SCORE.SYSTEM.SOLV>
0

>  <SCORE.SYSTEM.norm>
0

>  <SCORE.heavy>
26

>  <SCORE.norm>
-1.23009

>  <RMSD>
1.354

$$$$
ligand
 OpenBabel11021811483D
libRbt.so/2013.1/901 2013/11/27
 26 28  0  0  0  0  0  0  0  0999 V2000
   36.2792   17.8878    8.9768 N   0  0  0  0  0  0  0  0  0  0  0  0
   34.8920   17.8523    8.5305 C   0  0  2  0  0  0  0  0  0  0  0  0
   34.0599   18.9139    9.2408 C   0  0  0  0  0  0  0  0  0  0  0  0
   33.5930   18.7082   10.3605 O   0  0  0  0  0  0  0  0  0  0  0  0
   34.2905   16.4726    8.7667 C   0  0  0  0  0  0  0  0  0  0  0  0
   34.9810   15.3528    7.9993 C   0  0  0  0  0  0  0  0  0  0  0  0
   36.6082   14.9450    8.6807 S   0  0  0  0  0  0  0  0  0  0  0  0
   37.3669   15.2631    7.0678 C   0  0  0  0  0  0  0  0  0  0  0  0
   38.8865   15.1489    7.0996 C   0  0  1  0  0  0  0  0  0  0  0  0
   39.2648   13.8241    7.4263 O   0  0  0  0  0  0  0  0  0  0  0  0
   39.5004   15.4881    5.7511 C   0  0  1  0  0  0  0  0  0  0  0  0
   40.3143   16.6311    5.8672 O   0  0  0  0  0  0  0  0  0  0  0  0
   40.3416   14.2888    5.3661 C   0  0  1  0  0  0  0  0  0  0  0  0
   41.6814   14.6791    5.1739 O   0  0  0  0  0  0  0  0  0  0  0  0
   40.2409   13.3214    6.5330 C   0  0  2  0  0  0  0  0  0  0  0  0
   33.8354   20.0030    8.7113 O   0  0  0  0  0  0  0  0  0  0  0  0
   41.4447    9.2835    3.4004 N   0  0  0  0  0  0  0  0  0  0  0  0
   42.1443   10.4600    3.5789 C   0  0  0  0  0  0  0  0  0  0  0  0
   41.6759   11.4215    4.4523 N   0  0  0  0  0  0  0  0  0  0  0  0
   40.5255   11.2191    5.1396 C   0  0  0  0  0  0  0  0  0  0  0  0
   39.8074   10.0427    4.9732 C   0  0  0  0  0  0  0  0  0  0  0  0
   40.2725    9.0695    4.0969 C   0  0  0  0  0  0  0  0  0  0  0  0
   39.5925    7.9393    3.9288 N   0  0  0  0  0  0  0  0  0  0  0  0
   38.7179   10.1045    5.7689 N   0  0  0  0  0  0  0  0  0  0  0  0
   38.7287   11.2844    6.4307 C   0  0  0  0  0  0  0  0  0  0  0  0
   39.8435   11.9863    6.0509 N   0  0  0  0  0  0  0  0  0  0  0  0
  2  1  1  1  0  0  0
  2  3  1  0  0  0  0
  2  5  1  0  0  0  0
  3  4  1  0  0  0  0
  3 16  1  0  0  0  0
  5  6  1  0  0  0  0
  6  7  1  0  0  0  0
  7  8  1  0  0  0  0
  9  8  1  6  0  0  0
  9 10  1  0  0  0  0
  9 11  1  0  0  0  0
 10 15  1  0  0  0  0
 11 12  1  1  0  0  0
 11 13  1  0  0  0  0
 13 14  1  1  0  0  0
 13 15  1  0  0  0  0
 15 26  1  6  0  0  0
 17 18  2  0  0  0  0
 17 22  1  0  0  0  0
 18 19  1  0  0  0  0
 19 20  2  0  0  0  0
 20 21  1  0  0  0  0
 20 26  1  0  0  0  0
 21 22  2  0  0  0  0
 21 24  1  0  0  0  0
 22 23  1  0  0  0  0
 24 25  2  0  0  0  0
 25 26  1  0  0  0  0
M  END
>  <CHROM.1>
-82.91678219,-61.91298284,72.80398760,-123.44313599,175.79921388,63.29295989
177.67696083,38.28180560,14.08246316,6.67317122,-2.24343514,-0.45576178,-2.94360016

>  <Name>
ligand

>  <RI>
0

>  <Rbt.Current_Directory>
/home/itssahil/PROJECTS/Mol_Feturizer/New_Systems/rnas/3NPQ

>  <Rbt.Executable>
rbdock ($Id: //depot/dev/client3/rdock/2013.1/src/exe/rbdock.cxx#4 $)

>  <Rbt.Library>
libRbt.so (2013.1, Build901 2013/11/27)

>  <Rbt.Parameter_File>
/export/apps/rDock/src/rDock_2013.1_src/data/scripts/dock_solv.prm

>  <Rbt.Receptor>
prm/pocket_docking_3.prm

>  <SCORE>
-32.664

>  <SCORE.INTER>
-32.328

>  <SCORE.INTER.CONST>
1

>  <SCORE.INTER.POLAR>
0

>  <SCORE.INTER.ROT>
7

>  <SCORE.INTER.SOLV>
23.262

>  <SCORE.INTER.VDW>
-37.5727

>  <SCORE.INTER.norm>
-1.24339

>  <SCORE.INTRA>
-0.336016

>  <SCORE.INTRA.DIHEDRAL>
-1.2462

>  <SCORE.INTRA.DIHEDRAL.0>
6.97628

>  <SCORE.INTRA.POLAR>
0

>  <SCORE.INTRA.POLAR.0>
0

>  <SCORE.INTRA.REPUL>
0

>  <SCORE.INTRA.REPUL.0>
0

>  <SCORE.INTRA.SOLV>
2.17118

>  <SCORE.INTRA.SOLV.lig_0>
-49.8243

>  <SCORE.INTRA.VDW>
-0.798507

>  <SCORE.INTRA.VDW.0>
-1.35881

>  <SCORE.INTRA.norm>
-0.0129237

>  <SCORE.RESTR>
0

>  <SCORE.RESTR.CAVITY>
0

>  <SCORE.RESTR.norm>
0

>  <SCORE.SYSTEM>
0

>  <SCORE.SYSTEM.CONST>
0

>  <SCORE.SYSTEM.DIHEDRAL>
0

>  <SCORE.SYSTEM.SOLV>
0

>  <SCORE.SYSTEM.norm>
0

>  <SCORE.heavy>
26

>  <SCORE.norm>
-1.25631

>  <RMSD>
1.369

$$$$
ligand
 OpenBabel11021811483D
libRbt.so/2013.1/901 2013/11/27
 26 28  0  0  0  0  0  0  0  0999 V2000
   33.6982   18.4151   10.6029 N   0  0  0  0  0  0  0  0  0  0  0  0
   34.7713   18.2111    9.6378 C   0  0  2  0  0  0  0  0  0  0  0  0
   34.8523   19.3727    8.6538 C   0  0  0  0  0  0  0  0  0  0  0  0
   33.8369   19.9592    8.2813 O   0  0  0  0  0  0  0  0  0  0  0  0
   34.5704   16.9019    8.8850 C   0  0  0  0  0  0  0  0  0  0  0  0
   35.6708   16.5863    7.8804 C   0  0  0  0  0  0  0  0  0  0  0  0
   35.3633   15.0493    6.9740 S   0  0  0  0  0  0  0  0  0  0  0  0
   36.8489   15.3351    5.9791 C   0  0  0  0  0  0  0  0  0  0  0  0
   38.1339   15.1959    6.7871 C   0  0  1  0  0  0  0  0  0  0  0  0
   38.2784   13.8618    7.2390 O   0  0  0  0  0  0  0  0  0  0  0  0
   39.3577   15.5392    5.9536 C   0  0  1  0  0  0  0  0  0  0  0  0
   40.0052   16.6675    6.4920 O   0  0  0  0  0  0  0  0  0  0  0  0
   40.2666   14.3305    6.0361 C   0  0  1  0  0  0  0  0  0  0  0  0
   41.5172   14.7009    6.5682 O   0  0  0  0  0  0  0  0  0  0  0  0
   39.5709   13.3527    6.9674 C   0  0  2  0  0  0  0  0  0  0  0  0
   35.9361   19.7524    8.2087 O   0  0  0  0  0  0  0  0  0  0  0  0
   41.6570   10.0224    3.4854 N   0  0  0  0  0  0  0  0  0  0  0  0
   42.0970   11.2865    3.8230 C   0  0  0  0  0  0  0  0  0  0  0  0
   41.4189   12.0287    4.7696 N   0  0  0  0  0  0  0  0  0  0  0  0
   40.3158   11.5232    5.3735 C   0  0  0  0  0  0  0  0  0  0  0  0
   39.8575   10.2541    5.0471 C   0  0  0  0  0  0  0  0  0  0  0  0
   40.5347    9.5003    4.0961 C   0  0  0  0  0  0  0  0  0  0  0  0
   40.1043    8.2839    3.7748 N   0  0  0  0  0  0  0  0  0  0  0  0
   38.7572   10.0056    5.7898 N   0  0  0  0  0  0  0  0  0  0  0  0
   38.5092   11.0802    6.5735 C   0  0  0  0  0  0  0  0  0  0  0  0
   39.4673   12.0293    6.3265 N   0  0  0  0  0  0  0  0  0  0  0  0
  2  1  1  1  0  0  0
  2  3  1  0  0  0  0
  2  5  1  0  0  0  0
  3  4  1  0  0  0  0
  3 16  1  0  0  0  0
  5  6  1  0  0  0  0
  6  7  1  0  0  0  0
  7  8  1  0  0  0  0
  9  8  1  6  0  0  0
  9 10  1  0  0  0  0
  9 11  1  0  0  0  0
 10 15  1  0  0  0  0
 11 12  1  1  0  0  0
 11 13  1  0  0  0  0
 13 14  1  1  0  0  0
 13 15  1  0  0  0  0
 15 26  1  6  0  0  0
 17 18  2  0  0  0  0
 17 22  1  0  0  0  0
 18 19  1  0  0  0  0
 19 20  2  0  0  0  0
 20 21  1  0  0  0  0
 20 26  1  0  0  0  0
 21 22  2  0  0  0  0
 21 24  1  0  0  0  0
 22 23  1  0  0  0  0
 24 25  2  0  0  0  0
 25 26  1  0  0  0  0
M  END
>  <CHROM.1>
-34.52279537,-178.31312227,-178.19919275,176.47242058,68.92840871,64.59177870
145.89880390,38.09763916,14.36687333,6.61204148,2.19614344,0.32330022,0.24655557

>  <Name>
ligand

>  <RI>
0

>  <Rbt.Current_Directory>
/home/itssahil/PROJECTS/Mol_Feturizer/New_Systems/rnas/3NPQ

>  <Rbt.Executable>
rbdock ($Id: //depot/dev/client3/rdock/2013.1/src/exe/rbdock.cxx#4 $)

>  <Rbt.Library>
libRbt.so (2013.1, Build901 2013/11/27)

>  <Rbt.Parameter_File>
/export/apps/rDock/src/rDock_2013.1_src/data/scripts/dock_solv.prm

>  <Rbt.Receptor>
prm/pocket_docking_4.prm

>  <SCORE>
-30.3549

>  <SCORE.INTER>
-27.8578

>  <SCORE.INTER.CONST>
1

>  <SCORE.INTER.POLAR>
0

>  <SCORE.INTER.ROT>
7

>  <SCORE.INTER.SOLV>
28.3368

>  <SCORE.INTER.VDW>
-36.2841

>  <SCORE.INTER.norm>
-1.07145

>  <SCORE.INTRA>
-2.49716

>  <SCORE.INTRA.DIHEDRAL>
-4.06333

>  <SCORE.INTRA.DIHEDRAL.0>
6.97628

>  <SCORE.INTRA.POLAR>
0

>  <SCORE.INTRA.POLAR.0>
0

>  <SCORE.INTRA.REPUL>
0

>  <SCORE.INTRA.REPUL.0>
0

>  <SCORE.INTRA.SOLV>
-0.778972

>  <SCORE.INTRA.SOLV.lig_0>
-49.8243

>  <SCORE.INTRA.VDW>
-0.0760152

>  <SCORE.INTRA.VDW.0>
-1.35881

>  <SCORE.INTRA.norm>
-0.0960448

>  <SCORE.RESTR>
0

>  <SCORE.RESTR.CAVITY>
0

>  <SCORE.RESTR.norm>
0

>  <SCORE.SYSTEM>
0

>  <SCORE.SYSTEM.CONST>
0

>  <SCORE.SYSTEM.DIHEDRAL>
0

>  <SCORE.SYSTEM.SOLV>
0

>  <SCORE.SYSTEM.norm>
0

>  <SCORE.heavy>
26

>  <SCORE.norm>
-1.1675

>  <RMSD>
1.374

$$$$
ligand
 OpenBabel11021811483D
libRbt.so/2013.1/901 2013/11/27
 26 28  0  0  0  0  0  0  0  0999 V2000
   34.0204   16.2467    9.0046 N   0  0  0  0  0  0  0  0  0  0  0  0
   34.6096   17.5688    9.1762 C   0  0  2  0  0  0  0  0  0  0  0  0
   33.6919   18.6542    8.6252 C   0  0  0  0  0  0  0  0  0  0  0  0
   32.6694   18.3644    8.0051 O   0  0  0  0  0  0  0  0  0  0  0  0
   35.9702   17.6393    8.4943 C   0  0  0  0  0  0  0  0  0  0  0  0
   36.9732   16.6098    8.9982 C   0  0  0  0  0  0  0  0  0  0  0  0
   36.4937   14.9135    8.5849 S   0  0  0  0  0  0  0  0  0  0  0  0
   37.2687   15.0875    6.9578 C   0  0  0  0  0  0  0  0  0  0  0  0
   38.7898   15.0119    7.0195 C   0  0  1  0  0  0  0  0  0  0  0  0
   39.1951   13.6982    7.3585 O   0  0  0  0  0  0  0  0  0  0  0  0
   39.4211   15.3622    5.6820 C   0  0  1  0  0  0  0  0  0  0  0  0
   40.2034   16.5258    5.8095 O   0  0  0  0  0  0  0  0  0  0  0  0
   40.2997   14.1834    5.3179 C   0  0  1  0  0  0  0  0  0  0  0  0
   41.6327   14.6068    5.1503 O   0  0  0  0  0  0  0  0  0  0  0  0
   40.2007   13.2175    6.4862 C   0  0  2  0  0  0  0  0  0  0  0  0
   33.9515   19.8471    8.7880 O   0  0  0  0  0  0  0  0  0  0  0  0
   41.4848    9.2639    3.2788 N   0  0  0  0  0  0  0  0  0  0  0  0
   42.1387   10.4675    3.4500 C   0  0  0  0  0  0  0  0  0  0  0  0
   41.6551   11.4000    4.3462 N   0  0  0  0  0  0  0  0  0  0  0  0
   40.5343   11.1423    5.0634 C   0  0  0  0  0  0  0  0  0  0  0  0
   39.8624    9.9379    4.9050 C   0  0  0  0  0  0  0  0  0  0  0  0
   40.3430    8.9937    4.0058 C   0  0  0  0  0  0  0  0  0  0  0  0
   39.7071    7.8370    3.8451 N   0  0  0  0  0  0  0  0  0  0  0  0
   38.7943    9.9458    5.7316 N   0  0  0  0  0  0  0  0  0  0  0  0
   38.7739   11.1189    6.4052 C   0  0  0  0  0  0  0  0  0  0  0  0
   39.8468   11.8712    6.0016 N   0  0  0  0  0  0  0  0  0  0  0  0
  2  1  1  6  0  0  0
  2  3  1  0  0  0  0
  2  5  1  0  0  0  0
  3  4  1  0  0  0  0
  3 16  1  0  0  0  0
  5  6  1  0  0  0  0
  6  7  1  0  0  0  0
  7  8  1  0  0  0  0
  9  8  1  6  0  0  0
  9 10  1  0  0  0  0
  9 11  1  0  0  0  0
 10 15  1  0  0  0  0
 11 12  1  1  0  0  0
 11 13  1  0  0  0  0
 13 14  1  1  0  0  0
 13 15  1  0  0  0  0
 15 26  1  6  0  0  0
 17 18  2  0  0  0  0
 17 22  1  0  0  0  0
 18 19  1  0  0  0  0
 19 20  2  0  0  0  0
 20 21  1  0  0  0  0
 20 26  1  0  0  0  0
 21 22  2  0  0  0  0
 21 24  1  0  0  0  0
 22 23  1  0  0  0  0
 24 25  2  0  0  0  0
 25 26  1  0  0  0  0
M  END
>  <CHROM.1>
-6.88874457,-58.14685429,66.62705833,84.96617976,75.70645940,68.80294742
174.66577379,38.26009185,14.00493534,6.55246523,2.25189649,0.40869102,0.19812908

>  <Name>
ligand

>  <RI>
0

>  <Rbt.Current_Directory>
/home/itssahil/PROJECTS/Mol_Feturizer/New_Systems/rnas/3NPQ

>  <Rbt.Executable>
rbdock ($Id: //depot/dev/client3/rdock/2013.1/src/exe/rbdock.cxx#4 $)

>  <Rbt.Library>
libRbt.so (2013.1, Build901 2013/11/27)

>  <Rbt.Parameter_File>
/export/apps/rDock/src/rDock_2013.1_src/data/scripts/dock_solv.prm

>  <Rbt.Receptor>
prm/pocket_docking_2.prm

>  <SCORE>
-29.7666

>  <SCORE.INTER>
-29.2364

>  <SCORE.INTER.CONST>
1

>  <SCORE.INTER.POLAR>
0

>  <SCORE.INTER.ROT>
7

>  <SCORE.INTER.SOLV>
26.2092

>  <SCORE.INTER.VDW>
-36.494

>  <SCORE.INTER.norm>
-1.12448

>  <SCORE.INTRA>
-0.530279

>  <SCORE.INTRA.DIHEDRAL>
-2.58618

>  <SCORE.INTRA.DIHEDRAL.0>
6.97628

>  <SCORE.INTRA.POLAR>
0

>  <SCORE.INTRA.POLAR.0>
0

>  <SCORE.INTRA.REPUL>
0

>  <SCORE.INTRA.REPUL.0>
0

>  <SCORE.INTRA.SOLV>
1.75828

>  <SCORE.INTRA.SOLV.lig_0>
-49.8243

>  <SCORE.INTRA.VDW>
-0.116331

>  <SCORE.INTRA.VDW.0>
-1.35881

>  <SCORE.INTRA.norm>
-0.0203954

>  <SCORE.RESTR>
0

>  <SCORE.RESTR.CAVITY>
0

>  <SCORE.RESTR.norm>
0

>  <SCORE.SYSTEM>
0

>  <SCORE.SYSTEM.CONST>
0

>  <SCORE.SYSTEM.DIHEDRAL>
0

>  <SCORE.SYSTEM.SOLV>
0

>  <SCORE.SYSTEM.norm>
0

>  <SCORE.heavy>
26

>  <SCORE.norm>
-1.14487

>  <RMSD>
1.377

$$$$
ligand
 OpenBabel11021811483D
libRbt.so/2013.1/901 2013/11/27
 26 28  0  0  0  0  0  0  0  0999 V2000
   34.0013   18.3145   10.5558 N   0  0  0  0  0  0  0  0  0  0  0  0
   34.5111   18.3446    9.1906 C   0  0  2  0  0  0  0  0  0  0  0  0
   33.4960   18.9682    8.2395 C   0  0  0  0  0  0  0  0  0  0  0  0
   33.6807   20.0862    7.7601 O   0  0  0  0  0  0  0  0  0  0  0  0
   34.8699   16.9395    8.7237 C   0  0  0  0  0  0  0  0  0  0  0  0
   36.1834   16.4128    9.2869 C   0  0  0  0  0  0  0  0  0  0  0  0
   36.5278   14.7119    8.7704 S   0  0  0  0  0  0  0  0  0  0  0  0
   37.2472   15.3233    7.2255 C   0  0  0  0  0  0  0  0  0  0  0  0
   38.7700   15.2563    7.2185 C   0  0  1  0  0  0  0  0  0  0  0  0
   39.1973   13.9421    7.5271 O   0  0  0  0  0  0  0  0  0  0  0  0
   39.3389   15.6221    5.8573 C   0  0  1  0  0  0  0  0  0  0  0  0
   40.1197   16.7891    5.9603 O   0  0  0  0  0  0  0  0  0  0  0  0
   40.2068   14.4517    5.4437 C   0  0  1  0  0  0  0  0  0  0  0  0
   41.5286   14.8845    5.2206 O   0  0  0  0  0  0  0  0  0  0  0  0
   40.1656   13.4751    6.6065 C   0  0  2  0  0  0  0  0  0  0  0  0
   32.4668   18.3677    7.9278 O   0  0  0  0  0  0  0  0  0  0  0  0
   41.4013    9.5042    3.4015 N   0  0  0  0  0  0  0  0  0  0  0  0
   42.0665   10.7023    3.5674 C   0  0  0  0  0  0  0  0  0  0  0  0
   41.5948   11.6408    4.4639 N   0  0  0  0  0  0  0  0  0  0  0  0
   40.4749   11.3942    5.1864 C   0  0  0  0  0  0  0  0  0  0  0  0
   39.7917   10.1955    5.0331 C   0  0  0  0  0  0  0  0  0  0  0  0
   40.2603    9.2453    4.1338 C   0  0  0  0  0  0  0  0  0  0  0  0
   39.6135    8.0940    3.9780 N   0  0  0  0  0  0  0  0  0  0  0  0
   38.7274   10.2144    5.8643 N   0  0  0  0  0  0  0  0  0  0  0  0
   38.7201   11.3889    6.5356 C   0  0  0  0  0  0  0  0  0  0  0  0
   39.7978   12.1310    6.1260 N   0  0  0  0  0  0  0  0  0  0  0  0
  2  1  1  1  0  0  0
  2  3  1  0  0  0  0
  2  5  1  0  0  0  0
  3  4  1  0  0  0  0
  3 16  1  0  0  0  0
  5  6  1  0  0  0  0
  6  7  1  0  0  0  0
  7  8  1  0  0  0  0
  9  8  1  6  0  0  0
  9 10  1  0  0  0  0
  9 11  1  0  0  0  0
 10 15  1  0  0  0  0
 11 12  1  1  0  0  0
 11 13  1  0  0  0  0
 13 14  1  1  0  0  0
 13 15  1  0  0  0  0
 15 26  1  6  0  0  0
 17 18  2  0  0  0  0
 17 22  1  0  0  0  0
 18 19  1  0  0  0  0
 19 20  2  0  0  0  0
 20 21  1  0  0  0  0
 20 26  1  0  0  0  0
 21 22  2  0  0  0  0
 21 24  1  0  0  0  0
 22 23  1  0  0  0  0
 24 25  2  0  0  0  0
 25 26  1  0  0  0  0
M  END
>  <CHROM.1>
108.28792486,-76.81507672,177.18373965,84.39166877,104.56279872,53.87134918
177.20608862,38.12107525,14.24441594,6.67833051,2.28939867,0.45145045,0.13641626

>  <Name>
ligand

>  <RI>
0

>  <Rbt.Current_Directory>
/home/itssahil/PROJECTS/Mol_Feturizer/New_Systems/rnas/3NPQ

>  <Rbt.Executable>
rbdock ($Id: //depot/dev/client3/rdock/2013.1/src/exe/rbdock.cxx#4 $)

>  <Rbt.Library>
libRbt.so (2013.1, Build901 2013/11/27)

>  <Rbt.Parameter_File>
/export/apps/rDock/src/rDock_2013.1_src/data/scripts/dock_solv.prm

>  <Rbt.Receptor>
prm/pocket_docking_2.prm

>  <SCORE>
-31.4475

>  <SCORE.INTER>
-30.7741

>  <SCORE.INTER.CONST>
1

>  <SCORE.INTER.POLAR>
0

>  <SCORE.INTER.ROT>
7

>  <SCORE.INTER.SOLV>
29.0463

>  <SCORE.INTER.VDW>
-38.4648

>  <SCORE.INTER.norm>
-1.18362

>  <SCORE.INTRA>
-0.861571

>  <SCORE.INTRA.DIHEDRAL>
-0.183124

>  <SCORE.INTRA.DIHEDRAL.0>
6.97628

>  <SCORE.INTRA.POLAR>
0

>  <SCORE.INTRA.POLAR.0>
0

>  <SCORE.INTRA.REPUL>
0

>  <SCORE.INTRA.REPUL.0>
0

>  <SCORE.INTRA.SOLV>
-0.296679

>  <SCORE.INTRA.SOLV.lig_0>
-49.8243

>  <SCORE.INTRA.VDW>
-0.621669

>  <SCORE.INTRA.VDW.0>
-1.35881

>  <SCORE.INTRA.norm>
-0.0331373

>  <SCORE.RESTR>
0.188115

>  <SCORE.RESTR.CAVITY>
0.188115

>  <SCORE.RESTR.norm>
0.00723519

>  <SCORE.SYSTEM>
0

>  <SCORE.SYSTEM.CONST>
0

>  <SCORE.SYSTEM.DIHEDRAL>
0

>  <SCORE.SYSTEM.SOLV>
0

>  <SCORE.SYSTEM.norm>
0

>  <SCORE.heavy>
26

>  <SCORE.norm>
-1.20952

>  <RMSD>
1.378

$$$$
ligand
 OpenBabel11021811483D
libRbt.so/2013.1/901 2013/11/27
 26 28  0  0  0  0  0  0  0  0999 V2000
   33.5974   19.5867    8.3935 N   0  0  0  0  0  0  0  0  0  0  0  0
   34.7835   18.9303    8.9291 C   0  0  2  0  0  0  0  0  0  0  0  0
   36.0160   19.2577    8.0938 C   0  0  0  0  0  0  0  0  0  0  0  0
   35.9286   19.4398    6.8801 O   0  0  0  0  0  0  0  0  0  0  0  0
   34.5780   17.4218    8.9879 C   0  0  0  0  0  0  0  0  0  0  0  0
   35.7443   16.6581    9.6014 C   0  0  0  0  0  0  0  0  0  0  0  0
   35.6273   14.8726    9.3245 S   0  0  0  0  0  0  0  0  0  0  0  0
   36.2809   15.0863    7.6496 C   0  0  0  0  0  0  0  0  0  0  0  0
   37.7841   15.3381    7.6322 C   0  0  1  0  0  0  0  0  0  0  0  0
   38.4788   14.1353    7.9072 O   0  0  0  0  0  0  0  0  0  0  0  0
   38.2501   15.8441    6.2768 C   0  0  1  0  0  0  0  0  0  0  0  0
   38.7719   17.1457    6.4029 O   0  0  0  0  0  0  0  0  0  0  0  0
   39.3381   14.8896    5.8307 C   0  0  1  0  0  0  0  0  0  0  0  0
   40.5385   15.5930    5.6102 O   0  0  0  0  0  0  0  0  0  0  0  0
   39.5133   13.9005    6.9702 C   0  0  2  0  0  0  0  0  0  0  0  0
   37.1288   19.3484    8.6139 O   0  0  0  0  0  0  0  0  0  0  0  0
   41.5922   10.3071    3.7558 N   0  0  0  0  0  0  0  0  0  0  0  0
   42.0067   11.6079    3.9594 C   0  0  0  0  0  0  0  0  0  0  0  0
   41.3351   12.4197    4.8521 N   0  0  0  0  0  0  0  0  0  0  0  0
   40.2634   11.9469    5.5339 C   0  0  0  0  0  0  0  0  0  0  0  0
   39.8311   10.6417    5.3424 C   0  0  0  0  0  0  0  0  0  0  0  0
   40.5020    9.8179    4.4465 C   0  0  0  0  0  0  0  0  0  0  0  0
   40.0962    8.5663    4.2544 N   0  0  0  0  0  0  0  0  0  0  0  0
   38.7590   10.4379    6.1380 N   0  0  0  0  0  0  0  0  0  0  0  0
   38.5036   11.5755    6.8242 C   0  0  0  0  0  0  0  0  0  0  0  0
   39.4282   12.5202    6.4602 N   0  0  0  0  0  0  0  0  0  0  0  0
  2  1  1  6  0  0  0
  2  3  1  0  0  0  0
  2  5  1  0  0  0  0
  3  4  1  0  0  0  0
  3 16  1  0  0  0  0
  5  6  1  0  0  0  0
  6  7  1  0  0  0  0
  7  8  1  0  0  0  0
  9  8  1  6  0  0  0
  9 10  1  0  0  0  0
  9 11  1  0  0  0  0
 10 15  1  0  0  0  0
 11 12  1  1  0  0  0
 11 13  1  0  0  0  0
 13 14  1  1  0  0  0
 13 15  1  0  0  0  0
 15 26  1  6  0  0  0
 17 18  2  0  0  0  0
 17 22  1  0  0  0  0
 18 19  1  0  0  0  0
 19 20  2  0  0  0  0
 20 21  1  0  0  0  0
 20 26  1  0  0  0  0
 21 22  2  0  0  0  0
 21 24  1  0  0  0  0
 22 23  1  0  0  0  0
 24 25  2  0  0  0  0
 25 26  1  0  0  0  0
M  END
>  <CHROM.1>
-32.82311416,-177.11175526,-167.35769613,80.27654907,75.84713395,74.30522419
179.66153864,38.09151126,14.64666738,6.88057511,2.28785562,0.65350809,-0.03331749

>  <Name>
ligand

>  <RI>
0

>  <Rbt.Current_Directory>
/home/itssahil/PROJECTS/Mol_Feturizer/New_Systems/rnas/3NPQ

>  <Rbt.Executable>
rbdock ($Id: //depot/dev/client3/rdock/2013.1/src/exe/rbdock.cxx#4 $)

>  <Rbt.Library>
libRbt.so (2013.1, Build901 2013/11/27)

>  <Rbt.Parameter_File>
/export/apps/rDock/src/rDock_2013.1_src/data/scripts/dock_solv.prm

>  <Rbt.Receptor>
prm/pocket_docking_4.prm

>  <SCORE>
-32.9708

>  <SCORE.INTER>
-30.515

>  <SCORE.INTER.CONST>
1

>  <SCORE.INTER.POLAR>
0

>  <SCORE.INTER.ROT>
7

>  <SCORE.INTER.SOLV>
25.122

>  <SCORE.INTER.VDW>
-36.984

>  <SCORE.INTER.norm>
-1.17365

>  <SCORE.INTRA>
-2.45588

>  <SCORE.INTRA.DIHEDRAL>
-1.98257

>  <SCORE.INTRA.DIHEDRAL.0>
6.97628

>  <SCORE.INTRA.POLAR>
0

>  <SCORE.INTRA.POLAR.0>
0

>  <SCORE.INTRA.REPUL>
0

>  <SCORE.INTRA.REPUL.0>
0

>  <SCORE.INTRA.SOLV>
-0.737695

>  <SCORE.INTRA.SOLV.lig_0>
-49.8243

>  <SCORE.INTRA.VDW>
-1.09575

>  <SCORE.INTRA.VDW.0>
-1.35881

>  <SCORE.INTRA.norm>
-0.0944569

>  <SCORE.RESTR>
0

>  <SCORE.RESTR.CAVITY>
0

>  <SCORE.RESTR.norm>
0

>  <SCORE.SYSTEM>
0

>  <SCORE.SYSTEM.CONST>
0

>  <SCORE.SYSTEM.DIHEDRAL>
0

>  <SCORE.SYSTEM.SOLV>
0

>  <SCORE.SYSTEM.norm>
0

>  <SCORE.heavy>
26

>  <SCORE.norm>
-1.26811

>  <RMSD>
1.381

$$$$
ligand
 OpenBabel11021811483D
libRbt.so/2013.1/901 2013/11/27
 26 28  0  0  0  0  0  0  0  0999 V2000
   36.2460   17.9338    8.9650 N   0  0  0  0  0  0  0  0  0  0  0  0
   34.8551   17.8699    8.5340 C   0  0  2  0  0  0  0  0  0  0  0  0
   34.0120   18.9233    9.2435 C   0  0  0  0  0  0  0  0  0  0  0  0
   33.5839   18.7312   10.3809 O   0  0  0  0  0  0  0  0  0  0  0  0
   34.2804   16.4821    8.7893 C   0  0  0  0  0  0  0  0  0  0  0  0
   34.9671   15.3704    8.0067 C   0  0  0  0  0  0  0  0  0  0  0  0
   36.5836   14.9331    8.6952 S   0  0  0  0  0  0  0  0  0  0  0  0
   37.3533   15.2269    7.0829 C   0  0  0  0  0  0  0  0  0  0  0  0
   38.8725   15.1113    7.1263 C   0  0  1  0  0  0  0  0  0  0  0  0
   39.2472   13.7840    7.4469 O   0  0  0  0  0  0  0  0  0  0  0  0
   39.4977   15.4594    5.7853 C   0  0  1  0  0  0  0  0  0  0  0  0
   40.3114   16.6009    5.9159 O   0  0  0  0  0  0  0  0  0  0  0  0
   40.3411   14.2621    5.3990 C   0  0  1  0  0  0  0  0  0  0  0  0
   41.6827   14.6526    5.2204 O   0  0  0  0  0  0  0  0  0  0  0  0
   40.2301   13.2867    6.5582 C   0  0  2  0  0  0  0  0  0  0  0  0
   33.7395   19.9921    8.6955 O   0  0  0  0  0  0  0  0  0  0  0  0
   41.4266    9.2944    3.3649 N   0  0  0  0  0  0  0  0  0  0  0  0
   42.1212   10.4727    3.5511 C   0  0  0  0  0  0  0  0  0  0  0  0
   41.6558   11.4208    4.4406 N   0  0  0  0  0  0  0  0  0  0  0  0
   40.5132   11.2032    5.1365 C   0  0  0  0  0  0  0  0  0  0  0  0
   39.8003   10.0248    4.9626 C   0  0  0  0  0  0  0  0  0  0  0  0
   40.2624    9.0651    4.0700 C   0  0  0  0  0  0  0  0  0  0  0  0
   39.5873    7.9330    3.8947 N   0  0  0  0  0  0  0  0  0  0  0  0
   38.7182   10.0705    5.7695 N   0  0  0  0  0  0  0  0  0  0  0  0
   38.7287   11.2423    6.4456 C   0  0  0  0  0  0  0  0  0  0  0  0
   39.8358   11.9553    6.0637 N   0  0  0  0  0  0  0  0  0  0  0  0
  2  1  1  1  0  0  0
  2  3  1  0  0  0  0
  2  5  1  0  0  0  0
  3  4  1  0  0  0  0
  3 16  1  0  0  0  0
  5  6  1  0  0  0  0
  6  7  1  0  0  0  0
  7  8  1  0  0  0  0
  9  8  1  6  0  0  0
  9 10  1  0  0  0  0
  9 11  1  0  0  0  0
 10 15  1  0  0  0  0
 11 12  1  1  0  0  0
 11 13  1  0  0  0  0
 13 14  1  1  0  0  0
 13 15  1  0  0  0  0
 15 26  1  6  0  0  0
 17 18  2  0  0  0  0
 17 22  1  0  0  0  0
 18 19  1  0  0  0  0
 19 20  2  0  0  0  0
 20 21  1  0  0  0  0
 20 26  1  0  0  0  0
 21 22  2  0  0  0  0
 21 24  1  0  0  0  0
 22 23  1  0  0  0  0
 24 25  2  0  0  0  0
 25 26  1  0  0  0  0
M  END
>  <CHROM.1>
-81.39236060,-62.89451399,75.59177920,-125.02664784,174.56637142,64.52239058
176.54451164,38.26438866,14.07127165,6.68087396,-2.24174052,-0.44884276,-2.93764787

>  <Name>
ligand

>  <RI>
0

>  <Rbt.Current_Directory>
/home/itssahil/PROJECTS/Mol_Feturizer/New_Systems/rnas/3NPQ

>  <Rbt.Executable>
rbdock ($Id: //depot/dev/client3/rdock/2013.1/src/exe/rbdock.cxx#4 $)

>  <Rbt.Library>
libRbt.so (2013.1, Build901 2013/11/27)

>  <Rbt.Parameter_File>
/export/apps/rDock/src/rDock_2013.1_src/data/scripts/dock_solv.prm

>  <Rbt.Receptor>
prm/pocket_docking_7.prm

>  <SCORE>
-32.7159

>  <SCORE.INTER>
-32.3954

>  <SCORE.INTER.CONST>
1

>  <SCORE.INTER.POLAR>
0

>  <SCORE.INTER.ROT>
7

>  <SCORE.INTER.SOLV>
23.3939

>  <SCORE.INTER.VDW>
-37.6616

>  <SCORE.INTER.norm>
-1.24598

>  <SCORE.INTRA>
-0.320506

>  <SCORE.INTRA.DIHEDRAL>
-0.921482

>  <SCORE.INTRA.DIHEDRAL.0>
6.97628

>  <SCORE.INTRA.POLAR>
0

>  <SCORE.INTRA.POLAR.0>
0

>  <SCORE.INTRA.REPUL>
0

>  <SCORE.INTRA.REPUL.0>
0

>  <SCORE.INTRA.SOLV>
2.05124

>  <SCORE.INTRA.SOLV.lig_0>
-49.8243

>  <SCORE.INTRA.VDW>
-0.885384

>  <SCORE.INTRA.VDW.0>
-1.35881

>  <SCORE.INTRA.norm>
-0.0123272

>  <SCORE.RESTR>
0

>  <SCORE.RESTR.CAVITY>
0

>  <SCORE.RESTR.norm>
0

>  <SCORE.SYSTEM>
0

>  <SCORE.SYSTEM.CONST>
0

>  <SCORE.SYSTEM.DIHEDRAL>
0

>  <SCORE.SYSTEM.SOLV>
0

>  <SCORE.SYSTEM.norm>
0

>  <SCORE.heavy>
26

>  <SCORE.norm>
-1.2583

>  <RMSD>
1.384

$$$$
ligand
 OpenBabel11021811483D
libRbt.so/2013.1/901 2013/11/27
 26 28  0  0  0  0  0  0  0  0999 V2000
   33.5796   19.5691    8.4293 N   0  0  0  0  0  0  0  0  0  0  0  0
   34.7807   18.9135    8.9314 C   0  0  2  0  0  0  0  0  0  0  0  0
   35.9929   19.2574    8.0733 C   0  0  0  0  0  0  0  0  0  0  0  0
   35.8781   19.4513    6.8637 O   0  0  0  0  0  0  0  0  0  0  0  0
   34.5848   17.4033    8.9774 C   0  0  0  0  0  0  0  0  0  0  0  0
   35.7484   16.6433    9.6005 C   0  0  0  0  0  0  0  0  0  0  0  0
   35.6266   14.8551    9.3437 S   0  0  0  0  0  0  0  0  0  0  0  0
   36.2124   15.0564    7.6424 C   0  0  0  0  0  0  0  0  0  0  0  0
   37.7053   15.3543    7.5654 C   0  0  1  0  0  0  0  0  0  0  0  0
   38.4473   14.1858    7.8635 O   0  0  0  0  0  0  0  0  0  0  0  0
   38.1110   15.8206    6.1768 C   0  0  1  0  0  0  0  0  0  0  0  0
   38.5938   17.1419    6.2351 O   0  0  0  0  0  0  0  0  0  0  0  0
   39.2148   14.8837    5.7320 C   0  0  1  0  0  0  0  0  0  0  0  0
   40.3839   15.6152    5.4448 O   0  0  0  0  0  0  0  0  0  0  0  0
   39.4585   13.9466    6.9025 C   0  0  2  0  0  0  0  0  0  0  0  0
   37.1160   19.3499    8.5702 O   0  0  0  0  0  0  0  0  0  0  0  0
   41.5505   10.2953    3.7627 N   0  0  0  0  0  0  0  0  0  0  0  0
   41.9286   11.6155    3.9021 C   0  0  0  0  0  0  0  0  0  0  0  0
   41.2596   12.4407    4.7843 N   0  0  0  0  0  0  0  0  0  0  0  0
   40.2260   11.9620    5.5188 C   0  0  0  0  0  0  0  0  0  0  0  0
   39.8305   10.6373    5.3922 C   0  0  0  0  0  0  0  0  0  0  0  0
   40.4992    9.8000    4.5073 C   0  0  0  0  0  0  0  0  0  0  0  0
   40.1285    8.5297    4.3771 N   0  0  0  0  0  0  0  0  0  0  0  0
   38.7913   10.4317    6.2300 N   0  0  0  0  0  0  0  0  0  0  0  0
   38.5209   11.5872    6.8797 C   0  0  0  0  0  0  0  0  0  0  0  0
   39.4023   12.5451    6.4492 N   0  0  0  0  0  0  0  0  0  0  0  0
  2  1  1  6  0  0  0
  2  3  1  0  0  0  0
  2  5  1  0  0  0  0
  3  4  1  0  0  0  0
  3 16  1  0  0  0  0
  5  6  1  0  0  0  0
  6  7  1  0  0  0  0
  7  8  1  0  0  0  0
  9  8  1  6  0  0  0
  9 10  1  0  0  0  0
  9 11  1  0  0  0  0
 10 15  1  0  0  0  0
 11 12  1  1  0  0  0
 11 13  1  0  0  0  0
 13 14  1  1  0  0  0
 13 15  1  0  0  0  0
 15 26  1  6  0  0  0
 17 18  2  0  0  0  0
 17 22  1  0  0  0  0
 18 19  1  0  0  0  0
 19 20  2  0  0  0  0
 20 21  1  0  0  0  0
 20 26  1  0  0  0  0
 21 22  2  0  0  0  0
 21 24  1  0  0  0  0
 22 23  1  0  0  0  0
 24 25  2  0  0  0  0
 25 26  1  0  0  0  0
M  END
>  <CHROM.1>
-32.89848915,-175.11326300,-168.71154030,77.91652750,74.11898517,73.12284298
179.67718221,38.04966430,14.64625820,6.86041073,2.31203420,0.68719764,-0.07598963

>  <Name>
ligand

>  <RI>
0

>  <Rbt.Current_Directory>
/home/itssahil/PROJECTS/Mol_Feturizer/New_Systems/rnas/3NPQ

>  <Rbt.Executable>
rbdock ($Id: //depot/dev/client3/rdock/2013.1/src/exe/rbdock.cxx#4 $)

>  <Rbt.Library>
libRbt.so (2013.1, Build901 2013/11/27)

>  <Rbt.Parameter_File>
/export/apps/rDock/src/rDock_2013.1_src/data/scripts/dock_solv.prm

>  <Rbt.Receptor>
prm/pocket_docking_3.prm

>  <SCORE>
-33.0207

>  <SCORE.INTER>
-30.4497

>  <SCORE.INTER.CONST>
1

>  <SCORE.INTER.POLAR>
0

>  <SCORE.INTER.ROT>
7

>  <SCORE.INTER.SOLV>
25.4341

>  <SCORE.INTER.VDW>
-37.0445

>  <SCORE.INTER.norm>
-1.17114

>  <SCORE.INTRA>
-2.57099

>  <SCORE.INTRA.DIHEDRAL>
-2.34761

>  <SCORE.INTRA.DIHEDRAL.0>
6.97628

>  <SCORE.INTRA.POLAR>
0

>  <SCORE.INTRA.POLAR.0>
0

>  <SCORE.INTRA.REPUL>
0

>  <SCORE.INTRA.REPUL.0>
0

>  <SCORE.INTRA.SOLV>
-0.720107

>  <SCORE.INTRA.SOLV.lig_0>
-49.8243

>  <SCORE.INTRA.VDW>
-1.03713

>  <SCORE.INTRA.VDW.0>
-1.35881

>  <SCORE.INTRA.norm>
-0.0988843

>  <SCORE.RESTR>
0

>  <SCORE.RESTR.CAVITY>
0

>  <SCORE.RESTR.norm>
0

>  <SCORE.SYSTEM>
0

>  <SCORE.SYSTEM.CONST>
0

>  <SCORE.SYSTEM.DIHEDRAL>
0

>  <SCORE.SYSTEM.SOLV>
0

>  <SCORE.SYSTEM.norm>
0

>  <SCORE.heavy>
26

>  <SCORE.norm>
-1.27003

>  <RMSD>
1.388

$$$$
ligand
 OpenBabel11021811483D
libRbt.so/2013.1/901 2013/11/27
 26 28  0  0  0  0  0  0  0  0999 V2000
   36.2498   17.9262    9.0308 N   0  0  0  0  0  0  0  0  0  0  0  0
   34.8707   17.8764    8.5617 C   0  0  2  0  0  0  0  0  0  0  0  0
   34.0179   18.9349    9.2520 C   0  0  0  0  0  0  0  0  0  0  0  0
   33.7580   20.0008    8.6951 O   0  0  0  0  0  0  0  0  0  0  0  0
   34.2770   16.4930    8.7958 C   0  0  0  0  0  0  0  0  0  0  0  0
   34.9686   15.3794    8.0204 C   0  0  0  0  0  0  0  0  0  0  0  0
   36.5846   14.9500    8.7150 S   0  0  0  0  0  0  0  0  0  0  0  0
   37.3545   15.2199    7.0986 C   0  0  0  0  0  0  0  0  0  0  0  0
   38.8733   15.0984    7.1426 C   0  0  1  0  0  0  0  0  0  0  0  0
   39.2427   13.7686    7.4591 O   0  0  0  0  0  0  0  0  0  0  0  0
   39.5007   15.4484    5.8031 C   0  0  1  0  0  0  0  0  0  0  0  0
   40.3187   16.5864    5.9380 O   0  0  0  0  0  0  0  0  0  0  0  0
   40.3397   14.2492    5.4134 C   0  0  1  0  0  0  0  0  0  0  0  0
   41.6830   14.6352    5.2370 O   0  0  0  0  0  0  0  0  0  0  0  0
   40.2243   13.2705    6.5693 C   0  0  2  0  0  0  0  0  0  0  0  0
   33.5682   18.7483   10.3833 O   0  0  0  0  0  0  0  0  0  0  0  0
   41.4175    9.2758    3.3777 N   0  0  0  0  0  0  0  0  0  0  0  0
   42.1180   10.4496    3.5703 C   0  0  0  0  0  0  0  0  0  0  0  0
   41.6525   11.3992    4.4582 N   0  0  0  0  0  0  0  0  0  0  0  0
   40.5041   11.1874    5.1463 C   0  0  0  0  0  0  0  0  0  0  0  0
   39.7853   10.0136    4.9660 C   0  0  0  0  0  0  0  0  0  0  0  0
   40.2474    9.0525    4.0749 C   0  0  0  0  0  0  0  0  0  0  0  0
   39.5667    7.9248    3.8934 N   0  0  0  0  0  0  0  0  0  0  0  0
   38.6983   10.0646    5.7659 N   0  0  0  0  0  0  0  0  0  0  0  0
   38.7113   11.2353    6.4438 C   0  0  0  0  0  0  0  0  0  0  0  0
   39.8252   11.9422    6.0702 N   0  0  0  0  0  0  0  0  0  0  0  0
  2  1  1  1  0  0  0
  2  3  1  0  0  0  0
  2  5  1  0  0  0  0
  3  4  1  0  0  0  0
  3 16  1  0  0  0  0
  5  6  1  0  0  0  0
  6  7  1  0  0  0  0
  7  8  1  0  0  0  0
  9  8  1  6  0  0  0
  9 10  1  0  0  0  0
  9 11  1  0  0  0  0
 10 15  1  0  0  0  0
 11 12  1  1  0  0  0
 11 13  1  0  0  0  0
 13 14  1  1  0  0  0
 13 15  1  0  0  0  0
 15 26  1  6  0  0  0
 17 18  2  0  0  0  0
 17 22  1  0  0  0  0
 18 19  1  0  0  0  0
 19 20  2  0  0  0  0
 20 21  1  0  0  0  0
 20 26  1  0  0  0  0
 21 22  2  0  0  0  0
 21 24  1  0  0  0  0
 22 23  1  0  0  0  0
 24 25  2  0  0  0  0
 25 26  1  0  0  0  0
M  END
>  <CHROM.1>
99.40120639,-63.30454910,74.14754401,-125.62390357,174.76501924,65.44364651
176.91752305,38.26118507,14.06600264,6.69424604,-2.23743834,-0.44485912,-2.93294790

>  <Name>
ligand

>  <RI>
0

>  <Rbt.Current_Directory>
/home/itssahil/PROJECTS/Mol_Feturizer/New_Systems/rnas/3NPQ

>  <Rbt.Executable>
rbdock ($Id: //depot/dev/client3/rdock/2013.1/src/exe/rbdock.cxx#4 $)

>  <Rbt.Library>
libRbt.so (2013.1, Build901 2013/11/27)

>  <Rbt.Parameter_File>
/export/apps/rDock/src/rDock_2013.1_src/data/scripts/dock_solv.prm

>  <Rbt.Receptor>
prm/pocket_docking_6.prm

>  <SCORE>
-32.6698

>  <SCORE.INTER>
-32.2868

>  <SCORE.INTER.CONST>
1

>  <SCORE.INTER.POLAR>
0

>  <SCORE.INTER.ROT>
7

>  <SCORE.INTER.SOLV>
23.6383

>  <SCORE.INTER.VDW>
-37.6707

>  <SCORE.INTER.norm>
-1.2418

>  <SCORE.INTRA>
-0.382998

>  <SCORE.INTRA.DIHEDRAL>
-1.03616

>  <SCORE.INTRA.DIHEDRAL.0>
6.97628

>  <SCORE.INTRA.POLAR>
0

>  <SCORE.INTRA.POLAR.0>
0

>  <SCORE.INTRA.REPUL>
0

>  <SCORE.INTRA.REPUL.0>
0

>  <SCORE.INTRA.SOLV>
2.02937

>  <SCORE.INTRA.SOLV.lig_0>
-49.8243

>  <SCORE.INTRA.VDW>
-0.8796

>  <SCORE.INTRA.VDW.0>
-1.35881

>  <SCORE.INTRA.norm>
-0.0147307

>  <SCORE.RESTR>
0

>  <SCORE.RESTR.CAVITY>
0

>  <SCORE.RESTR.norm>
0

>  <SCORE.SYSTEM>
0

>  <SCORE.SYSTEM.CONST>
0

>  <SCORE.SYSTEM.DIHEDRAL>
0

>  <SCORE.SYSTEM.SOLV>
0

>  <SCORE.SYSTEM.norm>
0

>  <SCORE.heavy>
26

>  <SCORE.norm>
-1.25653

>  <RMSD>
1.395

$$$$
ligand
 OpenBabel11021811483D
libRbt.so/2013.1/901 2013/11/27
 26 28  0  0  0  0  0  0  0  0999 V2000
   33.7217   18.9274    7.8077 N   0  0  0  0  0  0  0  0  0  0  0  0
   33.7321   17.8301    8.7670 C   0  0  2  0  0  0  0  0  0  0  0  0
   34.6519   18.1381    9.9430 C   0  0  0  0  0  0  0  0  0  0  0  0
   34.5108   17.5675   11.0239 O   0  0  0  0  0  0  0  0  0  0  0  0
   34.1640   16.5346    8.0914 C   0  0  0  0  0  0  0  0  0  0  0  0
   35.5958   16.5505    7.5724 C   0  0  0  0  0  0  0  0  0  0  0  0
   36.4115   14.9424    7.7363 S   0  0  0  0  0  0  0  0  0  0  0  0
   37.4384   15.3125    6.2917 C   0  0  0  0  0  0  0  0  0  0  0  0
   38.9276   15.1445    6.5698 C   0  0  1  0  0  0  0  0  0  0  0  0
   39.1857   13.8365    7.0468 O   0  0  0  0  0  0  0  0  0  0  0  0
   39.7574   15.3530    5.3135 C   0  0  1  0  0  0  0  0  0  0  0  0
   40.5990   16.4704    5.4730 O   0  0  0  0  0  0  0  0  0  0  0  0
   40.5877   14.0965    5.1531 C   0  0  1  0  0  0  0  0  0  0  0  0
   41.9587   14.4200    5.1458 O   0  0  0  0  0  0  0  0  0  0  0  0
   40.2615   13.2287    6.3564 C   0  0  2  0  0  0  0  0  0  0  0  0
   35.5587   18.9651    9.8393 O   0  0  0  0  0  0  0  0  0  0  0  0
   41.4726    9.1342    3.3012 N   0  0  0  0  0  0  0  0  0  0  0  0
   42.1552   10.3263    3.4363 C   0  0  0  0  0  0  0  0  0  0  0  0
   41.6877   11.3016    4.2948 N   0  0  0  0  0  0  0  0  0  0  0  0
   40.5547   11.0971    5.0101 C   0  0  0  0  0  0  0  0  0  0  0  0
   39.8540    9.9051    4.8875 C   0  0  0  0  0  0  0  0  0  0  0  0
   40.3183    8.9181    4.0264 C   0  0  0  0  0  0  0  0  0  0  0  0
   39.6547    7.7727    3.9002 N   0  0  0  0  0  0  0  0  0  0  0  0
   38.7795    9.9686    5.7033 N   0  0  0  0  0  0  0  0  0  0  0  0
   38.7830   11.1647    6.3354 C   0  0  0  0  0  0  0  0  0  0  0  0
   39.8778   11.8755    5.9158 N   0  0  0  0  0  0  0  0  0  0  0  0
  2  1  1  6  0  0  0
  2  3  1  0  0  0  0
  2  5  1  0  0  0  0
  3  4  1  0  0  0  0
  3 16  1  0  0  0  0
  5  6  1  0  0  0  0
  6  7  1  0  0  0  0
  7  8  1  0  0  0  0
  9  8  1  6  0  0  0
  9 10  1  0  0  0  0
  9 11  1  0  0  0  0
 10 15  1  0  0  0  0
 11 12  1  1  0  0  0
 11 13  1  0  0  0  0
 13 14  1  1  0  0  0
 13 15  1  0  0  0  0
 15 26  1  6  0  0  0
 17 18  2  0  0  0  0
 17 22  1  0  0  0  0
 18 19  1  0  0  0  0
 19 20  2  0  0  0  0
 20 21  1  0  0  0  0
 20 26  1  0  0  0  0
 21 22  2  0  0  0  0
 21 24  1  0  0  0  0
 22 23  1  0  0  0  0
 24 25  2  0  0  0  0
 25 26  1  0  0  0  0
M  END
>  <CHROM.1>
157.92617981,64.45214449,144.47933915,150.84203922,126.90156347,55.91357903
166.60880167,38.33531881,13.97269166,6.46957813,2.24972366,0.45412205,0.21402215

>  <Name>
ligand

>  <RI>
0

>  <Rbt.Current_Directory>
/home/itssahil/PROJECTS/Mol_Feturizer/New_Systems/rnas/3NPQ

>  <Rbt.Executable>
rbdock ($Id: //depot/dev/client3/rdock/2013.1/src/exe/rbdock.cxx#4 $)

>  <Rbt.Library>
libRbt.so (2013.1, Build901 2013/11/27)

>  <Rbt.Parameter_File>
/export/apps/rDock/src/rDock_2013.1_src/data/scripts/dock_solv.prm

>  <Rbt.Receptor>
prm/pocket_docking_2.prm

>  <SCORE>
-27.652

>  <SCORE.INTER>
-28.2797

>  <SCORE.INTER.CONST>
1

>  <SCORE.INTER.POLAR>
0

>  <SCORE.INTER.ROT>
7

>  <SCORE.INTER.SOLV>
25.8951

>  <SCORE.INTER.VDW>
-35.7515

>  <SCORE.INTER.norm>
-1.08768

>  <SCORE.INTRA>
0.61535

>  <SCORE.INTRA.DIHEDRAL>
2.83672

>  <SCORE.INTRA.DIHEDRAL.0>
6.97628

>  <SCORE.INTRA.POLAR>
0

>  <SCORE.INTRA.POLAR.0>
0

>  <SCORE.INTRA.REPUL>
0

>  <SCORE.INTRA.REPUL.0>
0

>  <SCORE.INTRA.SOLV>
-0.192185

>  <SCORE.INTRA.SOLV.lig_0>
-49.8243

>  <SCORE.INTRA.VDW>
-0.706915

>  <SCORE.INTRA.VDW.0>
-1.35881

>  <SCORE.INTRA.norm>
0.0236673

>  <SCORE.RESTR>
0.0123835

>  <SCORE.RESTR.CAVITY>
0.0123835

>  <SCORE.RESTR.norm>
0.000476287

>  <SCORE.SYSTEM>
0

>  <SCORE.SYSTEM.CONST>
0

>  <SCORE.SYSTEM.DIHEDRAL>
0

>  <SCORE.SYSTEM.SOLV>
0

>  <SCORE.SYSTEM.norm>
0

>  <SCORE.heavy>
26

>  <SCORE.norm>
-1.06354

>  <RMSD>
1.404

$$$$
ligand
 OpenBabel11021811483D
libRbt.so/2013.1/901 2013/11/27
 26 28  0  0  0  0  0  0  0  0999 V2000
   34.4095   17.7193   10.7527 N   0  0  0  0  0  0  0  0  0  0  0  0
   34.5565   17.6562    9.3039 C   0  0  2  0  0  0  0  0  0  0  0  0
   33.4856   18.4880    8.6071 C   0  0  0  0  0  0  0  0  0  0  0  0
   33.6282   19.6998    8.4489 O   0  0  0  0  0  0  0  0  0  0  0  0
   34.4912   16.2120    8.8231 C   0  0  0  0  0  0  0  0  0  0  0  0
   35.7970   15.4439    8.9806 C   0  0  0  0  0  0  0  0  0  0  0  0
   37.1823   16.2495    8.1379 S   0  0  0  0  0  0  0  0  0  0  0  0
   38.0769   14.6759    8.0974 C   0  0  0  0  0  0  0  0  0  0  0  0
   39.4262   14.7840    7.3968 C   0  0  1  0  0  0  0  0  0  0  0  0
   40.0537   13.5153    7.3582 O   0  0  0  0  0  0  0  0  0  0  0  0
   39.2747   15.2710    5.9649 C   0  0  1  0  0  0  0  0  0  0  0  0
   39.9169   16.5143    5.8093 O   0  0  0  0  0  0  0  0  0  0  0  0
   39.9487   14.2267    5.0994 C   0  0  1  0  0  0  0  0  0  0  0  0
   40.9801   14.8172    4.3432 O   0  0  0  0  0  0  0  0  0  0  0  0
   40.5261   13.2024    6.0612 C   0  0  2  0  0  0  0  0  0  0  0  0
   32.4525   17.9669    8.1854 O   0  0  0  0  0  0  0  0  0  0  0  0
   41.5125    8.9820    3.0977 N   0  0  0  0  0  0  0  0  0  0  0  0
   42.2310   10.1585    3.1689 C   0  0  0  0  0  0  0  0  0  0  0  0
   41.8221   11.1727    4.0120 N   0  0  0  0  0  0  0  0  0  0  0  0
   40.7119   11.0223    4.7748 C   0  0  0  0  0  0  0  0  0  0  0  0
   39.9757    9.8468    4.7168 C   0  0  0  0  0  0  0  0  0  0  0  0
   40.3810    8.8208    3.8715 C   0  0  0  0  0  0  0  0  0  0  0  0
   39.6831    7.6908    3.8070 N   0  0  0  0  0  0  0  0  0  0  0  0
   38.9348    9.9655    5.5691 N   0  0  0  0  0  0  0  0  0  0  0  0
   38.9938   11.1804    6.1615 C   0  0  0  0  0  0  0  0  0  0  0  0
   40.0904   11.8471    5.6790 N   0  0  0  0  0  0  0  0  0  0  0  0
  2  1  1  1  0  0  0
  2  3  1  0  0  0  0
  2  5  1  0  0  0  0
  3  4  1  0  0  0  0
  3 16  1  0  0  0  0
  5  6  1  0  0  0  0
  6  7  1  0  0  0  0
  7  8  1  0  0  0  0
  9  8  1  6  0  0  0
  9 10  1  0  0  0  0
  9 11  1  0  0  0  0
 10 15  1  0  0  0  0
 11 12  1  1  0  0  0
 11 13  1  0  0  0  0
 13 14  1  1  0  0  0
 13 15  1  0  0  0  0
 15 26  1  6  0  0  0
 17 18  2  0  0  0  0
 17 22  1  0  0  0  0
 18 19  1  0  0  0  0
 19 20  2  0  0  0  0
 20 21  1  0  0  0  0
 20 26  1  0  0  0  0
 21 22  2  0  0  0  0
 21 24  1  0  0  0  0
 22 23  1  0  0  0  0
 24 25  2  0  0  0  0
 25 26  1  0  0  0  0
M  END
>  <CHROM.1>
83.65730383,-80.73003818,-56.56974174,-158.43361996,178.46646079,-178.02255934
-154.63773083,38.28683664,13.98195851,6.52187740,2.26442487,0.43100254,0.21505482

>  <Name>
ligand

>  <RI>
0

>  <Rbt.Current_Directory>
/home/itssahil/PROJECTS/Mol_Feturizer/New_Systems/rnas/3NPQ

>  <Rbt.Executable>
rbdock ($Id: //depot/dev/client3/rdock/2013.1/src/exe/rbdock.cxx#4 $)

>  <Rbt.Library>
libRbt.so (2013.1, Build901 2013/11/27)

>  <Rbt.Parameter_File>
/export/apps/rDock/src/rDock_2013.1_src/data/scripts/dock_solv.prm

>  <Rbt.Receptor>
prm/pocket_docking_3.prm

>  <SCORE>
-29.7291

>  <SCORE.INTER>
-28.4701

>  <SCORE.INTER.CONST>
1

>  <SCORE.INTER.POLAR>
0

>  <SCORE.INTER.ROT>
7

>  <SCORE.INTER.SOLV>
29.4961

>  <SCORE.INTER.VDW>
-37.0788

>  <SCORE.INTER.norm>
-1.09501

>  <SCORE.INTRA>
-1.25895

>  <SCORE.INTRA.DIHEDRAL>
-1.97626

>  <SCORE.INTRA.DIHEDRAL.0>
6.97628

>  <SCORE.INTRA.POLAR>
0

>  <SCORE.INTRA.POLAR.0>
0

>  <SCORE.INTRA.REPUL>
0

>  <SCORE.INTRA.REPUL.0>
0

>  <SCORE.INTRA.SOLV>
0.149838

>  <SCORE.INTRA.SOLV.lig_0>
-49.8243

>  <SCORE.INTRA.VDW>
-0.345735

>  <SCORE.INTRA.VDW.0>
-1.35881

>  <SCORE.INTRA.norm>
-0.048421

>  <SCORE.RESTR>
0

>  <SCORE.RESTR.CAVITY>
0

>  <SCORE.RESTR.norm>
0

>  <SCORE.SYSTEM>
0

>  <SCORE.SYSTEM.CONST>
0

>  <SCORE.SYSTEM.DIHEDRAL>
0

>  <SCORE.SYSTEM.SOLV>
0

>  <SCORE.SYSTEM.norm>
0

>  <SCORE.heavy>
26

>  <SCORE.norm>
-1.14343

>  <RMSD>
1.441

$$$$
ligand
 OpenBabel11021811483D
libRbt.so/2013.1/901 2013/11/27
 26 28  0  0  0  0  0  0  0  0999 V2000
   33.9171   18.2611    7.9899 N   0  0  0  0  0  0  0  0  0  0  0  0
   33.9796   16.9938    8.7073 C   0  0  2  0  0  0  0  0  0  0  0  0
   34.7095   17.1512   10.0363 C   0  0  0  0  0  0  0  0  0  0  0  0
   34.8020   18.2501   10.5819 O   0  0  0  0  0  0  0  0  0  0  0  0
   34.6659   15.9323    7.8568 C   0  0  0  0  0  0  0  0  0  0  0  0
   36.0103   16.3649    7.2867 C   0  0  0  0  0  0  0  0  0  0  0  0
   37.2957   16.4872    8.5561 S   0  0  0  0  0  0  0  0  0  0  0  0
   37.9113   14.8480    8.0951 C   0  0  0  0  0  0  0  0  0  0  0  0
   39.2947   14.8970    7.4570 C   0  0  1  0  0  0  0  0  0  0  0  0
   39.8744   13.6052    7.4604 O   0  0  0  0  0  0  0  0  0  0  0  0
   39.2281   15.3726    6.0149 C   0  0  1  0  0  0  0  0  0  0  0  0
   39.9238   16.5889    5.8770 O   0  0  0  0  0  0  0  0  0  0  0  0
   39.9010   14.2935    5.1921 C   0  0  1  0  0  0  0  0  0  0  0  0
   40.9879   14.8359    4.4789 O   0  0  0  0  0  0  0  0  0  0  0  0
   40.3938   13.2596    6.1899 C   0  0  2  0  0  0  0  0  0  0  0  0
   35.2237   16.1821   10.5961 O   0  0  0  0  0  0  0  0  0  0  0  0
   41.3712    8.9571    3.3437 N   0  0  0  0  0  0  0  0  0  0  0  0
   42.1325   10.1046    3.4403 C   0  0  0  0  0  0  0  0  0  0  0  0
   41.7188   11.1475    4.2452 N   0  0  0  0  0  0  0  0  0  0  0  0
   40.5619   11.0540    4.9452 C   0  0  0  0  0  0  0  0  0  0  0  0
   39.7823    9.9085    4.8607 C   0  0  0  0  0  0  0  0  0  0  0  0
   40.1920    8.8540    4.0536 C   0  0  0  0  0  0  0  0  0  0  0  0
   39.4528    7.7523    3.9642 N   0  0  0  0  0  0  0  0  0  0  0  0
   38.7006   10.0826    5.6504 N   0  0  0  0  0  0  0  0  0  0  0  0
   38.7760   11.3031    6.2291 C   0  0  0  0  0  0  0  0  0  0  0  0
   39.9249   11.9173    5.8014 N   0  0  0  0  0  0  0  0  0  0  0  0
  2  1  1  6  0  0  0
  2  3  1  0  0  0  0
  2  5  1  0  0  0  0
  3  4  1  0  0  0  0
  3 16  1  0  0  0  0
  5  6  1  0  0  0  0
  6  7  1  0  0  0  0
  7  8  1  0  0  0  0
  9  8  1  6  0  0  0
  9 10  1  0  0  0  0
  9 11  1  0  0  0  0
 10 15  1  0  0  0  0
 11 12  1  1  0  0  0
 11 13  1  0  0  0  0
 13 14  1  1  0  0  0
 13 15  1  0  0  0  0
 15 26  1  6  0  0  0
 17 18  2  0  0  0  0
 17 22  1  0  0  0  0
 18 19  1  0  0  0  0
 19 20  2  0  0  0  0
 20 21  1  0  0  0  0
 20 26  1  0  0  0  0
 21 22  2  0  0  0  0
 21 24  1  0  0  0  0
 22 23  1  0  0  0  0
 24 25  2  0  0  0  0
 25 26  1  0  0  0  0
M  END
>  <CHROM.1>
22.25032359,51.12227982,70.93598744,98.57002652,112.45314892,163.83265698
-153.97611100,38.39453100,13.88246650,6.65633580,2.22804904,0.50679031,0.23689628

>  <Name>
ligand

>  <RI>
0

>  <Rbt.Current_Directory>
/home/itssahil/PROJECTS/Mol_Feturizer/New_Systems/rnas/3NPQ

>  <Rbt.Executable>
rbdock ($Id: //depot/dev/client3/rdock/2013.1/src/exe/rbdock.cxx#4 $)

>  <Rbt.Library>
libRbt.so (2013.1, Build901 2013/11/27)

>  <Rbt.Parameter_File>
/export/apps/rDock/src/rDock_2013.1_src/data/scripts/dock_solv.prm

>  <Rbt.Receptor>
prm/pocket_docking_5.prm

>  <SCORE>
-27.2221

>  <SCORE.INTER>
-27.7039

>  <SCORE.INTER.CONST>
1

>  <SCORE.INTER.POLAR>
0

>  <SCORE.INTER.ROT>
7

>  <SCORE.INTER.SOLV>
25.9312

>  <SCORE.INTER.VDW>
-35.3797

>  <SCORE.INTER.norm>
-1.06554

>  <SCORE.INTRA>
0.481805

>  <SCORE.INTRA.DIHEDRAL>
1.37128

>  <SCORE.INTRA.DIHEDRAL.0>
6.97628

>  <SCORE.INTRA.POLAR>
0

>  <SCORE.INTRA.POLAR.0>
0

>  <SCORE.INTRA.REPUL>
0

>  <SCORE.INTRA.REPUL.0>
0

>  <SCORE.INTRA.SOLV>
0.703349

>  <SCORE.INTRA.SOLV.lig_0>
-49.8243

>  <SCORE.INTRA.VDW>
-0.55551

>  <SCORE.INTRA.VDW.0>
-1.35881

>  <SCORE.INTRA.norm>
0.018531

>  <SCORE.RESTR>
0

>  <SCORE.RESTR.CAVITY>
0

>  <SCORE.RESTR.norm>
0

>  <SCORE.SYSTEM>
0

>  <SCORE.SYSTEM.CONST>
0

>  <SCORE.SYSTEM.DIHEDRAL>
0

>  <SCORE.SYSTEM.SOLV>
0

>  <SCORE.SYSTEM.norm>
0

>  <SCORE.heavy>
26

>  <SCORE.norm>
-1.04701

>  <RMSD>
1.442

$$$$
ligand
 OpenBabel11021811483D
libRbt.so/2013.1/901 2013/11/27
 26 28  0  0  0  0  0  0  0  0999 V2000
   33.6727   19.6262    8.3297 N   0  0  0  0  0  0  0  0  0  0  0  0
   34.8256   18.9422    8.9020 C   0  0  2  0  0  0  0  0  0  0  0  0
   36.0752   19.1753    8.0605 C   0  0  0  0  0  0  0  0  0  0  0  0
   37.1831   19.2763    8.5863 O   0  0  0  0  0  0  0  0  0  0  0  0
   34.5518   17.4488    9.0280 C   0  0  0  0  0  0  0  0  0  0  0  0
   35.6894   16.6586    9.6613 C   0  0  0  0  0  0  0  0  0  0  0  0
   35.5399   14.8768    9.3762 S   0  0  0  0  0  0  0  0  0  0  0  0
   36.2082   15.0848    7.7064 C   0  0  0  0  0  0  0  0  0  0  0  0
   37.7112   15.3385    7.7016 C   0  0  1  0  0  0  0  0  0  0  0  0
   38.4054   14.1347    7.9734 O   0  0  0  0  0  0  0  0  0  0  0  0
   38.1863   15.8543    6.3530 C   0  0  1  0  0  0  0  0  0  0  0  0
   38.7055   17.1556    6.4917 O   0  0  0  0  0  0  0  0  0  0  0  0
   39.2787   14.9041    5.9083 C   0  0  1  0  0  0  0  0  0  0  0  0
   40.4797   15.6105    5.7012 O   0  0  0  0  0  0  0  0  0  0  0  0
   39.4469   13.9075    7.0423 C   0  0  2  0  0  0  0  0  0  0  0  0
   36.0060   19.2676    6.8343 O   0  0  0  0  0  0  0  0  0  0  0  0
   41.5063   10.3627    3.7620 N   0  0  0  0  0  0  0  0  0  0  0  0
   41.9106   11.6661    3.9692 C   0  0  0  0  0  0  0  0  0  0  0  0
   41.2465   12.4635    4.8802 N   0  0  0  0  0  0  0  0  0  0  0  0
   40.1919   11.9738    5.5767 C   0  0  0  0  0  0  0  0  0  0  0  0
   39.7699   10.6657    5.3819 C   0  0  0  0  0  0  0  0  0  0  0  0
   40.4335    9.8564    4.4676 C   0  0  0  0  0  0  0  0  0  0  0  0
   40.0374    8.6022    4.2720 N   0  0  0  0  0  0  0  0  0  0  0  0
   38.7141   10.4440    6.1945 N   0  0  0  0  0  0  0  0  0  0  0  0
   38.4590   11.5733    6.8945 C   0  0  0  0  0  0  0  0  0  0  0  0
   39.3672   12.5306    6.5223 N   0  0  0  0  0  0  0  0  0  0  0  0
  2  1  1  6  0  0  0
  2  3  1  0  0  0  0
  2  5  1  0  0  0  0
  3  4  1  0  0  0  0
  3 16  1  0  0  0  0
  5  6  1  0  0  0  0
  6  7  1  0  0  0  0
  7  8  1  0  0  0  0
  9  8  1  6  0  0  0
  9 10  1  0  0  0  0
  9 11  1  0  0  0  0
 10 15  1  0  0  0  0
 11 12  1  1  0  0  0
 11 13  1  0  0  0  0
 13 14  1  1  0  0  0
 13 15  1  0  0  0  0
 15 26  1  6  0  0  0
 17 18  2  0  0  0  0
 17 22  1  0  0  0  0
 18 19  1  0  0  0  0
 19 20  2  0  0  0  0
 20 21  1  0  0  0  0
 20 26  1  0  0  0  0
 21 22  2  0  0  0  0
 21 24  1  0  0  0  0
 22 23  1  0  0  0  0
 24 25  2  0  0  0  0
 25 26  1  0  0  0  0
M  END
>  <CHROM.1>
145.11312246,-178.09455464,-163.86638759,79.51886502,74.57150012,74.92902510
178.14431854,38.04890997,14.64940764,6.91628503,2.28691602,0.65964378,-0.03457459

>  <Name>
ligand

>  <RI>
0

>  <Rbt.Current_Directory>
/home/itssahil/PROJECTS/Mol_Feturizer/New_Systems/rnas/3NPQ

>  <Rbt.Executable>
rbdock ($Id: //depot/dev/client3/rdock/2013.1/src/exe/rbdock.cxx#4 $)

>  <Rbt.Library>
libRbt.so (2013.1, Build901 2013/11/27)

>  <Rbt.Parameter_File>
/export/apps/rDock/src/rDock_2013.1_src/data/scripts/dock_solv.prm

>  <Rbt.Receptor>
prm/pocket_docking_3.prm

>  <SCORE>
-32.8131

>  <SCORE.INTER>
-30.4369

>  <SCORE.INTER.CONST>
1

>  <SCORE.INTER.POLAR>
0

>  <SCORE.INTER.ROT>
7

>  <SCORE.INTER.SOLV>
25.258

>  <SCORE.INTER.VDW>
-36.9772

>  <SCORE.INTER.norm>
-1.17065

>  <SCORE.INTRA>
-2.3762

>  <SCORE.INTRA.DIHEDRAL>
-1.69602

>  <SCORE.INTRA.DIHEDRAL.0>
6.97628

>  <SCORE.INTRA.POLAR>
0

>  <SCORE.INTRA.POLAR.0>
0

>  <SCORE.INTRA.REPUL>
0

>  <SCORE.INTRA.REPUL.0>
0

>  <SCORE.INTRA.SOLV>
-0.662342

>  <SCORE.INTRA.SOLV.lig_0>
-49.8243

>  <SCORE.INTRA.VDW>
-1.19702

>  <SCORE.INTRA.VDW.0>
-1.35881

>  <SCORE.INTRA.norm>
-0.0913925

>  <SCORE.RESTR>
0

>  <SCORE.RESTR.CAVITY>
0

>  <SCORE.RESTR.norm>
0

>  <SCORE.SYSTEM>
0

>  <SCORE.SYSTEM.CONST>
0

>  <SCORE.SYSTEM.DIHEDRAL>
0

>  <SCORE.SYSTEM.SOLV>
0

>  <SCORE.SYSTEM.norm>
0

>  <SCORE.heavy>
26

>  <SCORE.norm>
-1.26204

>  <RMSD>
1.448

$$$$
ligand
 OpenBabel11021811483D
libRbt.so/2013.1/901 2013/11/27
 26 28  0  0  0  0  0  0  0  0999 V2000
   36.1424   19.1474    8.2742 N   0  0  0  0  0  0  0  0  0  0  0  0
   35.0516   18.1827    8.3392 C   0  0  2  0  0  0  0  0  0  0  0  0
   33.7051   18.8852    8.4707 C   0  0  0  0  0  0  0  0  0  0  0  0
   33.6149   19.9847    9.0156 O   0  0  0  0  0  0  0  0  0  0  0  0
   35.2564   17.2234    9.5050 C   0  0  0  0  0  0  0  0  0  0  0  0
   36.2898   16.1358    9.2420 C   0  0  0  0  0  0  0  0  0  0  0  0
   35.9758   15.2378    7.7014 S   0  0  0  0  0  0  0  0  0  0  0  0
   37.3747   14.1428    8.0510 C   0  0  0  0  0  0  0  0  0  0  0  0
   38.6960   14.6893    7.5229 C   0  0  1  0  0  0  0  0  0  0  0  0
   39.6528   13.6485    7.4448 O   0  0  0  0  0  0  0  0  0  0  0  0
   38.5395   15.2817    6.1319 C   0  0  1  0  0  0  0  0  0  0  0  0
   38.8211   16.6608    6.1620 O   0  0  0  0  0  0  0  0  0  0  0  0
   39.5498   14.5644    5.2608 C   0  0  1  0  0  0  0  0  0  0  0  0
   40.4374   15.4937    4.6838 O   0  0  0  0  0  0  0  0  0  0  0  0
   40.3040   13.6271    6.1883 C   0  0  2  0  0  0  0  0  0  0  0  0
   32.6754   18.3694    8.0343 O   0  0  0  0  0  0  0  0  0  0  0  0
   42.6982   10.1907    3.0219 N   0  0  0  0  0  0  0  0  0  0  0  0
   43.0545   11.4985    3.2829 C   0  0  0  0  0  0  0  0  0  0  0  0
   42.3020   12.2638    4.1518 N   0  0  0  0  0  0  0  0  0  0  0  0
   41.2073   11.7382    4.7537 C   0  0  0  0  0  0  0  0  0  0  0  0
   40.8325   10.4251    4.5035 C   0  0  0  0  0  0  0  0  0  0  0  0
   41.5849    9.6480    3.6311 C   0  0  0  0  0  0  0  0  0  0  0  0
   41.2348    8.3893    3.3833 N   0  0  0  0  0  0  0  0  0  0  0  0
   39.7212   10.1652    5.2257 N   0  0  0  0  0  0  0  0  0  0  0  0
   39.3854   11.2752    5.9225 C   0  0  0  0  0  0  0  0  0  0  0  0
   40.2977   12.2589    5.6401 N   0  0  0  0  0  0  0  0  0  0  0  0
  2  1  1  1  0  0  0
  2  3  1  0  0  0  0
  2  5  1  0  0  0  0
  3  4  1  0  0  0  0
  3 16  1  0  0  0  0
  5  6  1  0  0  0  0
  6  7  1  0  0  0  0
  7  8  1  0  0  0  0
  9  8  1  6  0  0  0
  9 10  1  0  0  0  0
  9 11  1  0  0  0  0
 10 15  1  0  0  0  0
 11 12  1  1  0  0  0
 11 13  1  0  0  0  0
 13 14  1  1  0  0  0
 13 15  1  0  0  0  0
 15 26  1  6  0  0  0
 17 18  2  0  0  0  0
 17 22  1  0  0  0  0
 18 19  1  0  0  0  0
 19 20  2  0  0  0  0
 20 21  1  0  0  0  0
 20 26  1  0  0  0  0
 21 22  2  0  0  0  0
 21 24  1  0  0  0  0
 22 23  1  0  0  0  0
 24 25  2  0  0  0  0
 25 26  1  0  0  0  0
M  END
>  <CHROM.1>
-28.64553376,-77.43051074,-52.02011142,-176.72118322,-87.88461911,-161.91584692
-153.98635926,38.42087943,14.36564272,6.41205380,-2.39026537,-0.55105208
-3.11453944

>  <Name>
ligand

>  <RI>
0

>  <Rbt.Current_Directory>
/home/itssahil/PROJECTS/Mol_Feturizer/New_Systems/rnas/3NPQ

>  <Rbt.Executable>
rbdock ($Id: //depot/dev/client3/rdock/2013.1/src/exe/rbdock.cxx#4 $)

>  <Rbt.Library>
libRbt.so (2013.1, Build901 2013/11/27)

>  <Rbt.Parameter_File>
/export/apps/rDock/src/rDock_2013.1_src/data/scripts/dock_solv.prm

>  <Rbt.Receptor>
prm/pocket_docking_8.prm

>  <SCORE>
-28.9159

>  <SCORE.INTER>
-28.0864

>  <SCORE.INTER.CONST>
1

>  <SCORE.INTER.POLAR>
0

>  <SCORE.INTER.ROT>
7

>  <SCORE.INTER.SOLV>
17.175

>  <SCORE.INTER.VDW>
-32.716

>  <SCORE.INTER.norm>
-1.08025

>  <SCORE.INTRA>
-0.829507

>  <SCORE.INTRA.DIHEDRAL>
-0.729182

>  <SCORE.INTRA.DIHEDRAL.0>
6.97628

>  <SCORE.INTRA.POLAR>
0

>  <SCORE.INTRA.POLAR.0>
0

>  <SCORE.INTRA.REPUL>
0

>  <SCORE.INTRA.REPUL.0>
0

>  <SCORE.INTRA.SOLV>
0.514528

>  <SCORE.INTRA.SOLV.lig_0>
-49.8243

>  <SCORE.INTRA.VDW>
-0.722181

>  <SCORE.INTRA.VDW.0>
-1.35881

>  <SCORE.INTRA.norm>
-0.0319041

>  <SCORE.RESTR>
0

>  <SCORE.RESTR.CAVITY>
0

>  <SCORE.RESTR.norm>
0

>  <SCORE.SYSTEM>
0

>  <SCORE.SYSTEM.CONST>
0

>  <SCORE.SYSTEM.DIHEDRAL>
0

>  <SCORE.SYSTEM.SOLV>
0

>  <SCORE.SYSTEM.norm>
0

>  <SCORE.heavy>
26

>  <SCORE.norm>
-1.11215

>  <RMSD>
1.462

$$$$
ligand
 OpenBabel11021811483D
libRbt.so/2013.1/901 2013/11/27
 26 28  0  0  0  0  0  0  0  0999 V2000
   34.4849   17.5617   10.5901 N   0  0  0  0  0  0  0  0  0  0  0  0
   34.6879   18.6291    9.6185 C   0  0  2  0  0  0  0  0  0  0  0  0
   33.5640   18.6547    8.5888 C   0  0  0  0  0  0  0  0  0  0  0  0
   32.7102   17.7692    8.5611 O   0  0  0  0  0  0  0  0  0  0  0  0
   36.0323   18.4669    8.9204 C   0  0  0  0  0  0  0  0  0  0  0  0
   36.1975   17.1417    8.1880 C   0  0  0  0  0  0  0  0  0  0  0  0
   36.3577   15.7380    9.3203 S   0  0  0  0  0  0  0  0  0  0  0  0
   36.9303   14.6971    7.9540 C   0  0  0  0  0  0  0  0  0  0  0  0
   38.3884   14.9526    7.5906 C   0  0  1  0  0  0  0  0  0  0  0  0
   39.1302   13.7510    7.6950 O   0  0  0  0  0  0  0  0  0  0  0  0
   38.5278   15.4623    6.1655 C   0  0  1  0  0  0  0  0  0  0  0  0
   39.0621   16.7649    6.1707 O   0  0  0  0  0  0  0  0  0  0  0  0
   39.4854   14.5113    5.4779 C   0  0  1  0  0  0  0  0  0  0  0  0
   40.6010   15.2181    4.9879 O   0  0  0  0  0  0  0  0  0  0  0  0
   39.9209   13.5205    6.5439 C   0  0  2  0  0  0  0  0  0  0  0  0
   33.4833   19.5625    7.7604 O   0  0  0  0  0  0  0  0  0  0  0  0
   41.7079    9.6938    3.4247 N   0  0  0  0  0  0  0  0  0  0  0  0
   42.2288   10.9597    3.6023 C   0  0  0  0  0  0  0  0  0  0  0  0
   41.6230   11.8449    4.4719 N   0  0  0  0  0  0  0  0  0  0  0  0
   40.5120   11.4790    5.1566 C   0  0  0  0  0  0  0  0  0  0  0  0
   39.9728   10.2105    4.9910 C   0  0  0  0  0  0  0  0  0  0  0  0
   40.5769    9.3134    4.1184 C   0  0  0  0  0  0  0  0  0  0  0  0
   40.0687    8.0960    3.9512 N   0  0  0  0  0  0  0  0  0  0  0  0
   38.8834   10.1151    5.7835 N   0  0  0  0  0  0  0  0  0  0  0  0
   38.7207   11.2854    6.4425 C   0  0  0  0  0  0  0  0  0  0  0  0
   39.7231   12.1410    6.0640 N   0  0  0  0  0  0  0  0  0  0  0  0
  2  1  1  1  0  0  0
  2  3  1  0  0  0  0
  2  5  1  0  0  0  0
  3  4  1  0  0  0  0
  3 16  1  0  0  0  0
  5  6  1  0  0  0  0
  6  7  1  0  0  0  0
  7  8  1  0  0  0  0
  9  8  1  6  0  0  0
  9 10  1  0  0  0  0
  9 11  1  0  0  0  0
 10 15  1  0  0  0  0
 11 12  1  1  0  0  0
 11 13  1  0  0  0  0
 13 14  1  1  0  0  0
 13 15  1  0  0  0  0
 15 26  1  6  0  0  0
 17 18  2  0  0  0  0
 17 22  1  0  0  0  0
 18 19  1  0  0  0  0
 19 20  2  0  0  0  0
 20 21  1  0  0  0  0
 20 26  1  0  0  0  0
 21 22  2  0  0  0  0
 21 24  1  0  0  0  0
 22 23  1  0  0  0  0
 24 25  2  0  0  0  0
 25 26  1  0  0  0  0
M  END
>  <CHROM.1>
-7.04775154,58.65550740,-70.40965519,-166.14502727,77.79056556,122.52165888
-165.71786093,38.05946322,14.33123590,6.79211913,2.32539245,0.57806900,0.05336246

>  <Name>
ligand

>  <RI>
0

>  <Rbt.Current_Directory>
/home/itssahil/PROJECTS/Mol_Feturizer/New_Systems/rnas/3NPQ

>  <Rbt.Executable>
rbdock ($Id: //depot/dev/client3/rdock/2013.1/src/exe/rbdock.cxx#4 $)

>  <Rbt.Library>
libRbt.so (2013.1, Build901 2013/11/27)

>  <Rbt.Parameter_File>
/export/apps/rDock/src/rDock_2013.1_src/data/scripts/dock_solv.prm

>  <Rbt.Receptor>
prm/pocket_docking_2.prm

>  <SCORE>
-30.3329

>  <SCORE.INTER>
-31.4199

>  <SCORE.INTER.CONST>
1

>  <SCORE.INTER.POLAR>
0

>  <SCORE.INTER.ROT>
7

>  <SCORE.INTER.SOLV>
25.947

>  <SCORE.INTER.VDW>
-37.8623

>  <SCORE.INTER.norm>
-1.20846

>  <SCORE.INTRA>
1.06903

>  <SCORE.INTRA.DIHEDRAL>
2.14415

>  <SCORE.INTRA.DIHEDRAL.0>
6.97628

>  <SCORE.INTRA.POLAR>
0

>  <SCORE.INTRA.POLAR.0>
0

>  <SCORE.INTRA.REPUL>
0

>  <SCORE.INTRA.REPUL.0>
0

>  <SCORE.INTRA.SOLV>
1.37729

>  <SCORE.INTRA.SOLV.lig_0>
-49.8243

>  <SCORE.INTRA.VDW>
-0.691688

>  <SCORE.INTRA.VDW.0>
-1.35881

>  <SCORE.INTRA.norm>
0.0411166

>  <SCORE.RESTR>
0.017963

>  <SCORE.RESTR.CAVITY>
0.017963

>  <SCORE.RESTR.norm>
0.000690883

>  <SCORE.SYSTEM>
0

>  <SCORE.SYSTEM.CONST>
0

>  <SCORE.SYSTEM.DIHEDRAL>
0

>  <SCORE.SYSTEM.SOLV>
0

>  <SCORE.SYSTEM.norm>
0

>  <SCORE.heavy>
26

>  <SCORE.norm>
-1.16665

>  <RMSD>
1.472

$$$$
ligand
 OpenBabel11021811483D
libRbt.so/2013.1/901 2013/11/27
 26 28  0  0  0  0  0  0  0  0999 V2000
   34.3777   19.8757    8.3102 N   0  0  0  0  0  0  0  0  0  0  0  0
   34.7525   18.5100    8.6547 C   0  0  2  0  0  0  0  0  0  0  0  0
   34.2326   18.1304   10.0366 C   0  0  0  0  0  0  0  0  0  0  0  0
   33.3367   18.7785   10.5762 O   0  0  0  0  0  0  0  0  0  0  0  0
   36.2659   18.3423    8.6017 C   0  0  0  0  0  0  0  0  0  0  0  0
   36.7373   16.8998    8.7309 C   0  0  0  0  0  0  0  0  0  0  0  0
   35.9430   15.7999    7.5319 S   0  0  0  0  0  0  0  0  0  0  0  0
   37.0844   14.4711    7.9900 C   0  0  0  0  0  0  0  0  0  0  0  0
   38.5245   14.7677    7.5880 C   0  0  1  0  0  0  0  0  0  0  0  0
   39.2909   13.5776    7.6232 O   0  0  0  0  0  0  0  0  0  0  0  0
   38.6061   15.3313    6.1787 C   0  0  1  0  0  0  0  0  0  0  0  0
   39.1167   16.6429    6.2142 O   0  0  0  0  0  0  0  0  0  0  0  0
   39.5568   14.4244    5.4251 C   0  0  1  0  0  0  0  0  0  0  0  0
   40.6421   15.1699    4.9245 O   0  0  0  0  0  0  0  0  0  0  0  0
   40.0460   13.4043    6.4387 C   0  0  2  0  0  0  0  0  0  0  0  0
   34.6964   17.1657   10.6457 O   0  0  0  0  0  0  0  0  0  0  0  0
   41.8881    9.6701    3.2402 N   0  0  0  0  0  0  0  0  0  0  0  0
   42.4056   10.9301    3.4640 C   0  0  0  0  0  0  0  0  0  0  0  0
   41.7845   11.7896    4.3486 N   0  0  0  0  0  0  0  0  0  0  0  0
   40.6618   11.4041    5.0026 C   0  0  0  0  0  0  0  0  0  0  0  0
   40.1258   10.1412    4.7904 C   0  0  0  0  0  0  0  0  0  0  0  0
   40.7453    9.2699    3.9026 C   0  0  0  0  0  0  0  0  0  0  0  0
   40.2403    8.0581    3.6909 N   0  0  0  0  0  0  0  0  0  0  0  0
   39.0226   10.0230    5.5606 N   0  0  0  0  0  0  0  0  0  0  0  0
   38.8482   11.1735    6.2506 C   0  0  0  0  0  0  0  0  0  0  0  0
   39.8569   12.0394    5.9151 N   0  0  0  0  0  0  0  0  0  0  0  0
  2  1  1  1  0  0  0
  2  3  1  0  0  0  0
  2  5  1  0  0  0  0
  3  4  1  0  0  0  0
  3 16  1  0  0  0  0
  5  6  1  0  0  0  0
  6  7  1  0  0  0  0
  7  8  1  0  0  0  0
  9  8  1  6  0  0  0
  9 10  1  0  0  0  0
  9 11  1  0  0  0  0
 10 15  1  0  0  0  0
 11 12  1  1  0  0  0
 11 13  1  0  0  0  0
 13 14  1  1  0  0  0
 13 15  1  0  0  0  0
 15 26  1  6  0  0  0
 17 18  2  0  0  0  0
 17 22  1  0  0  0  0
 18 19  1  0  0  0  0
 19 20  2  0  0  0  0
 20 21  1  0  0  0  0
 20 26  1  0  0  0  0
 21 22  2  0  0  0  0
 21 24  1  0  0  0  0
 22 23  1  0  0  0  0
 24 25  2  0  0  0  0
 25 26  1  0  0  0  0
M  END
>  <CHROM.1>
17.62245494,-170.83550384,53.39845494,170.52365067,-67.12208607,-163.77703162
-162.56713240,38.23611423,14.26590443,6.71287539,-2.31638150,-0.62893144
-3.07192043

>  <Name>
ligand

>  <RI>
0

>  <Rbt.Current_Directory>
/home/itssahil/PROJECTS/Mol_Feturizer/New_Systems/rnas/3NPQ

>  <Rbt.Executable>
rbdock ($Id: //depot/dev/client3/rdock/2013.1/src/exe/rbdock.cxx#4 $)

>  <Rbt.Library>
libRbt.so (2013.1, Build901 2013/11/27)

>  <Rbt.Parameter_File>
/export/apps/rDock/src/rDock_2013.1_src/data/scripts/dock_solv.prm

>  <Rbt.Receptor>
prm/pocket_docking_3.prm

>  <SCORE>
-28.7611

>  <SCORE.INTER>
-27.9751

>  <SCORE.INTER.CONST>
1

>  <SCORE.INTER.POLAR>
0

>  <SCORE.INTER.ROT>
7

>  <SCORE.INTER.SOLV>
23.9159

>  <SCORE.INTER.VDW>
-34.8887

>  <SCORE.INTER.norm>
-1.07597

>  <SCORE.INTRA>
-0.786013

>  <SCORE.INTRA.DIHEDRAL>
-2.7031

>  <SCORE.INTRA.DIHEDRAL.0>
6.97628

>  <SCORE.INTRA.POLAR>
0

>  <SCORE.INTRA.POLAR.0>
0

>  <SCORE.INTRA.REPUL>
0

>  <SCORE.INTRA.REPUL.0>
0

>  <SCORE.INTRA.SOLV>
-0.218633

>  <SCORE.INTRA.SOLV.lig_0>
-49.8243

>  <SCORE.INTRA.VDW>
0.67485

>  <SCORE.INTRA.VDW.0>
-1.35881

>  <SCORE.INTRA.norm>
-0.0302313

>  <SCORE.RESTR>
0

>  <SCORE.RESTR.CAVITY>
0

>  <SCORE.RESTR.norm>
0

>  <SCORE.SYSTEM>
0

>  <SCORE.SYSTEM.CONST>
0

>  <SCORE.SYSTEM.DIHEDRAL>
0

>  <SCORE.SYSTEM.SOLV>
0

>  <SCORE.SYSTEM.norm>
0

>  <SCORE.heavy>
26

>  <SCORE.norm>
-1.1062

>  <RMSD>
1.475

$$$$
ligand
 OpenBabel11021811483D
libRbt.so/2013.1/901 2013/11/27
 26 28  0  0  0  0  0  0  0  0999 V2000
   33.9738   16.4927    7.7730 N   0  0  0  0  0  0  0  0  0  0  0  0
   34.3995   17.1328    9.0114 C   0  0  2  0  0  0  0  0  0  0  0  0
   33.6272   18.4244    9.2550 C   0  0  0  0  0  0  0  0  0  0  0  0
   33.4066   18.8245   10.3974 O   0  0  0  0  0  0  0  0  0  0  0  0
   35.8959   17.4172    8.9781 C   0  0  0  0  0  0  0  0  0  0  0  0
   36.7642   16.1706    8.8696 C   0  0  0  0  0  0  0  0  0  0  0  0
   38.5162   16.5632    8.6354 S   0  0  0  0  0  0  0  0  0  0  0  0
   38.7826   14.9390    7.8811 C   0  0  0  0  0  0  0  0  0  0  0  0
   40.0819   14.8646    7.0876 C   0  0  1  0  0  0  0  0  0  0  0  0
   40.5611   13.5324    7.0688 O   0  0  0  0  0  0  0  0  0  0  0  0
   39.8827   15.3070    5.6471 C   0  0  1  0  0  0  0  0  0  0  0  0
   40.6454   16.4619    5.3889 O   0  0  0  0  0  0  0  0  0  0  0  0
   40.3735   14.1585    4.7902 C   0  0  1  0  0  0  0  0  0  0  0  0
   41.4068   14.5970    3.9391 O   0  0  0  0  0  0  0  0  0  0  0  0
   40.9017   13.1154    5.7599 C   0  0  2  0  0  0  0  0  0  0  0  0
   33.2061   19.0985    8.3143 O   0  0  0  0  0  0  0  0  0  0  0  0
   41.3507    8.5775    3.1572 N   0  0  0  0  0  0  0  0  0  0  0  0
   42.2199    9.6499    3.1539 C   0  0  0  0  0  0  0  0  0  0  0  0
   41.9399   10.7738    3.9058 N   0  0  0  0  0  0  0  0  0  0  0  0
   40.8097   10.8339    4.6514 C   0  0  0  0  0  0  0  0  0  0  0  0
   39.9229    9.7659    4.6673 C   0  0  0  0  0  0  0  0  0  0  0  0
   40.1977    8.6308    3.9141 C   0  0  0  0  0  0  0  0  0  0  0  0
   39.3551    7.6022    3.9209 N   0  0  0  0  0  0  0  0  0  0  0  0
   38.8963   10.0900    5.4828 N   0  0  0  0  0  0  0  0  0  0  0  0
   39.1103   11.3297    5.9803 C   0  0  0  0  0  0  0  0  0  0  0  0
   40.2929   11.8038    5.4738 N   0  0  0  0  0  0  0  0  0  0  0  0
  2  1  1  6  0  0  0
  2  3  1  0  0  0  0
  2  5  1  0  0  0  0
  3  4  1  0  0  0  0
  3 16  1  0  0  0  0
  5  6  1  0  0  0  0
  6  7  1  0  0  0  0
  7  8  1  0  0  0  0
  9  8  1  1  0  0  0
  9 10  1  0  0  0  0
  9 11  1  0  0  0  0
 10 15  1  0  0  0  0
 11 12  1  6  0  0  0
 11 13  1  0  0  0  0
 13 14  1  6  0  0  0
 13 15  1  0  0  0  0
 15 26  1  6  0  0  0
 17 18  2  0  0  0  0
 17 22  1  0  0  0  0
 18 19  1  0  0  0  0
 19 20  2  0  0  0  0
 20 21  1  0  0  0  0
 20 26  1  0  0  0  0
 21 22  2  0  0  0  0
 21 24  1  0  0  0  0
 22 23  1  0  0  0  0
 24 25  2  0  0  0  0
 25 26  1  0  0  0  0
M  END
>  <CHROM.1>
150.18822631,-62.35761983,173.18317407,-156.52438136,162.73076348,152.28814726
-149.08200998,38.65493904,13.96706820,6.43664923,2.18791133,0.33715668,0.32561338

>  <Name>
ligand

>  <RI>
0

>  <Rbt.Current_Directory>
/home/itssahil/PROJECTS/Mol_Feturizer/New_Systems/rnas/3NPQ

>  <Rbt.Executable>
rbdock ($Id: //depot/dev/client3/rdock/2013.1/src/exe/rbdock.cxx#4 $)

>  <Rbt.Library>
libRbt.so (2013.1, Build901 2013/11/27)

>  <Rbt.Parameter_File>
/export/apps/rDock/src/rDock_2013.1_src/data/scripts/dock_solv.prm

>  <Rbt.Receptor>
prm/pocket_docking_5.prm

>  <SCORE>
-26.1109

>  <SCORE.INTER>
-24.7304

>  <SCORE.INTER.CONST>
1

>  <SCORE.INTER.POLAR>
0

>  <SCORE.INTER.ROT>
7

>  <SCORE.INTER.SOLV>
27.7855

>  <SCORE.INTER.VDW>
-34.0154

>  <SCORE.INTER.norm>
-0.951168

>  <SCORE.INTRA>
-1.38053

>  <SCORE.INTRA.DIHEDRAL>
-0.530681

>  <SCORE.INTRA.DIHEDRAL.0>
6.97628

>  <SCORE.INTRA.POLAR>
0

>  <SCORE.INTRA.POLAR.0>
0

>  <SCORE.INTRA.REPUL>
0

>  <SCORE.INTRA.REPUL.0>
0

>  <SCORE.INTRA.SOLV>
-0.262132

>  <SCORE.INTRA.SOLV.lig_0>
-49.8243

>  <SCORE.INTRA.VDW>
-0.98412

>  <SCORE.INTRA.VDW.0>
-1.35881

>  <SCORE.INTRA.norm>
-0.0530972

>  <SCORE.RESTR>
0

>  <SCORE.RESTR.CAVITY>
0

>  <SCORE.RESTR.norm>
0

>  <SCORE.SYSTEM>
0

>  <SCORE.SYSTEM.CONST>
0

>  <SCORE.SYSTEM.DIHEDRAL>
0

>  <SCORE.SYSTEM.SOLV>
0

>  <SCORE.SYSTEM.norm>
0

>  <SCORE.heavy>
26

>  <SCORE.norm>
-1.00427

>  <RMSD>
1.490

$$$$
ligand
 OpenBabel11021811483D
libRbt.so/2013.1/901 2013/11/27
 26 28  0  0  0  0  0  0  0  0999 V2000
   35.2543   18.2571   10.2927 N   0  0  0  0  0  0  0  0  0  0  0  0
   35.1795   18.5870    8.8749 C   0  0  2  0  0  0  0  0  0  0  0  0
   33.7338   18.7835    8.4328 C   0  0  0  0  0  0  0  0  0  0  0  0
   32.8575   17.9837    8.7589 O   0  0  0  0  0  0  0  0  0  0  0  0
   35.8382   17.4976    8.0379 C   0  0  0  0  0  0  0  0  0  0  0  0
   35.2617   16.1059    8.2625 C   0  0  0  0  0  0  0  0  0  0  0  0
   36.5153   14.9127    8.7947 S   0  0  0  0  0  0  0  0  0  0  0  0
   37.2773   14.9765    7.1535 C   0  0  0  0  0  0  0  0  0  0  0  0
   38.7989   14.9053    7.2080 C   0  0  1  0  0  0  0  0  0  0  0  0
   39.2113   13.5772    7.4744 O   0  0  0  0  0  0  0  0  0  0  0  0
   39.4255   15.3307    5.8902 C   0  0  1  0  0  0  0  0  0  0  0  0
   40.2024   16.4896    6.0791 O   0  0  0  0  0  0  0  0  0  0  0  0
   40.3089   14.1778    5.4610 C   0  0  1  0  0  0  0  0  0  0  0  0
   41.6395   14.6163    5.3139 O   0  0  0  0  0  0  0  0  0  0  0  0
   40.2173   13.1495    6.5753 C   0  0  2  0  0  0  0  0  0  0  0  0
   33.4082   19.7477    7.7393 O   0  0  0  0  0  0  0  0  0  0  0  0
   41.5784    9.3288    3.2411 N   0  0  0  0  0  0  0  0  0  0  0  0
   42.2365   10.5168    3.4883 C   0  0  0  0  0  0  0  0  0  0  0  0
   41.7299   11.4137    4.4080 N   0  0  0  0  0  0  0  0  0  0  0  0
   40.5824   11.1360    5.0737 C   0  0  0  0  0  0  0  0  0  0  0  0
   39.9059    9.9468    4.8384 C   0  0  0  0  0  0  0  0  0  0  0  0
   40.4096    9.0385    3.9152 C   0  0  0  0  0  0  0  0  0  0  0  0
   39.7695    7.8967    3.6810 N   0  0  0  0  0  0  0  0  0  0  0  0
   38.8096    9.9291    5.6270 N   0  0  0  0  0  0  0  0  0  0  0  0
   38.7759   11.0714    6.3512 C   0  0  0  0  0  0  0  0  0  0  0  0
   39.8688   11.8297    6.0190 N   0  0  0  0  0  0  0  0  0  0  0  0
  2  1  1  1  0  0  0
  2  3  1  0  0  0  0
  2  5  1  0  0  0  0
  3  4  1  0  0  0  0
  3 16  1  0  0  0  0
  5  6  1  0  0  0  0
  6  7  1  0  0  0  0
  7  8  1  0  0  0  0
  9  8  1  6  0  0  0
  9 10  1  0  0  0  0
  9 11  1  0  0  0  0
 10 15  1  0  0  0  0
 11 12  1  1  0  0  0
 11 13  1  0  0  0  0
 13 14  1  1  0  0  0
 13 15  1  0  0  0  0
 15 26  1  6  0  0  0
 17 18  2  0  0  0  0
 17 22  1  0  0  0  0
 18 19  1  0  0  0  0
 19 20  2  0  0  0  0
 20 21  1  0  0  0  0
 20 26  1  0  0  0  0
 21 22  2  0  0  0  0
 21 24  1  0  0  0  0
 22 23  1  0  0  0  0
 24 25  2  0  0  0  0
 25 26  1  0  0  0  0
M  END
>  <CHROM.1>
-46.20543578,56.31948453,-122.45674788,-69.34323200,142.49546003,75.79567003
177.01108180,38.26594152,14.06152552,6.58358774,-2.23631726,-0.38799133,-2.93024606

>  <Name>
ligand

>  <RI>
0

>  <Rbt.Current_Directory>
/home/itssahil/PROJECTS/Mol_Feturizer/New_Systems/rnas/3NPQ

>  <Rbt.Executable>
rbdock ($Id: //depot/dev/client3/rdock/2013.1/src/exe/rbdock.cxx#4 $)

>  <Rbt.Library>
libRbt.so (2013.1, Build901 2013/11/27)

>  <Rbt.Parameter_File>
/export/apps/rDock/src/rDock_2013.1_src/data/scripts/dock_solv.prm

>  <Rbt.Receptor>
prm/pocket_docking_2.prm

>  <SCORE>
-27.0092

>  <SCORE.INTER>
-29.0071

>  <SCORE.INTER.CONST>
1

>  <SCORE.INTER.POLAR>
0

>  <SCORE.INTER.ROT>
7

>  <SCORE.INTER.SOLV>
26.2336

>  <SCORE.INTER.VDW>
-36.3493

>  <SCORE.INTER.norm>
-1.11566

>  <SCORE.INTRA>
1.9979

>  <SCORE.INTRA.DIHEDRAL>
3.90287

>  <SCORE.INTRA.DIHEDRAL.0>
6.97628

>  <SCORE.INTRA.POLAR>
0

>  <SCORE.INTRA.POLAR.0>
0

>  <SCORE.INTRA.REPUL>
0

>  <SCORE.INTRA.REPUL.0>
0

>  <SCORE.INTRA.SOLV>
0.371471

>  <SCORE.INTRA.SOLV.lig_0>
-49.8243

>  <SCORE.INTRA.VDW>
-0.139274

>  <SCORE.INTRA.VDW.0>
-1.35881

>  <SCORE.INTRA.norm>
0.0768422

>  <SCORE.RESTR>
0

>  <SCORE.RESTR.CAVITY>
0

>  <SCORE.RESTR.norm>
0

>  <SCORE.SYSTEM>
0

>  <SCORE.SYSTEM.CONST>
0

>  <SCORE.SYSTEM.DIHEDRAL>
0

>  <SCORE.SYSTEM.SOLV>
0

>  <SCORE.SYSTEM.norm>
0

>  <SCORE.heavy>
26

>  <SCORE.norm>
-1.03882

>  <RMSD>
1.495

$$$$
ligand
 OpenBabel11021811483D
libRbt.so/2013.1/901 2013/11/27
 26 28  0  0  0  0  0  0  0  0999 V2000
   36.4235   18.2090    8.7546 N   0  0  0  0  0  0  0  0  0  0  0  0
   34.9733   18.0721    8.7006 C   0  0  2  0  0  0  0  0  0  0  0  0
   34.3705   18.0643   10.1008 C   0  0  0  0  0  0  0  0  0  0  0  0
   34.8887   17.4171   11.0098 O   0  0  0  0  0  0  0  0  0  0  0  0
   34.5846   16.8001    7.9574 C   0  0  0  0  0  0  0  0  0  0  0  0
   34.9051   15.5161    8.7113 C   0  0  0  0  0  0  0  0  0  0  0  0
   36.6384   15.4282    9.2273 S   0  0  0  0  0  0  0  0  0  0  0  0
   37.1348   15.1068    7.5160 C   0  0  0  0  0  0  0  0  0  0  0  0
   38.6472   15.1304    7.3277 C   0  0  1  0  0  0  0  0  0  0  0  0
   39.1833   13.8406    7.5599 O   0  0  0  0  0  0  0  0  0  0  0  0
   39.0279   15.5443    5.9156 C   0  0  1  0  0  0  0  0  0  0  0  0
   39.7467   16.7545    5.9465 O   0  0  0  0  0  0  0  0  0  0  0  0
   39.9064   14.4322    5.3813 C   0  0  1  0  0  0  0  0  0  0  0  0
   41.1650   14.9453    5.0111 O   0  0  0  0  0  0  0  0  0  0  0  0
   40.0603   13.4421    6.5230 C   0  0  2  0  0  0  0  0  0  0  0  0
   33.3507   18.7061   10.3557 O   0  0  0  0  0  0  0  0  0  0  0  0
   41.3945    9.4195    3.4237 N   0  0  0  0  0  0  0  0  0  0  0  0
   42.0431   10.6287    3.5749 C   0  0  0  0  0  0  0  0  0  0  0  0
   41.5459   11.5802    4.4434 N   0  0  0  0  0  0  0  0  0  0  0  0
   40.4171   11.3356    5.1527 C   0  0  0  0  0  0  0  0  0  0  0  0
   39.7504   10.1259    5.0138 C   0  0  0  0  0  0  0  0  0  0  0  0
   40.2447    9.1627    4.1426 C   0  0  0  0  0  0  0  0  0  0  0  0
   39.6139    8.0007    4.0008 N   0  0  0  0  0  0  0  0  0  0  0  0
   38.6723   10.1497    5.8269 N   0  0  0  0  0  0  0  0  0  0  0  0
   38.6404   11.3379    6.4730 C   0  0  0  0  0  0  0  0  0  0  0  0
   39.7160   12.0840    6.0652 N   0  0  0  0  0  0  0  0  0  0  0  0
  2  1  1  1  0  0  0
  2  3  1  0  0  0  0
  2  5  1  0  0  0  0
  3  4  1  0  0  0  0
  3 16  1  0  0  0  0
  5  6  1  0  0  0  0
  6  7  1  0  0  0  0
  7  8  1  0  0  0  0
  9  8  1  6  0  0  0
  9 10  1  0  0  0  0
  9 11  1  0  0  0  0
 10 15  1  0  0  0  0
 11 12  1  1  0  0  0
 11 13  1  0  0  0  0
 13 14  1  1  0  0  0
 13 15  1  0  0  0  0
 15 26  1  6  0  0  0
 17 18  2  0  0  0  0
 17 22  1  0  0  0  0
 18 19  1  0  0  0  0
 19 20  2  0  0  0  0
 20 21  1  0  0  0  0
 20 26  1  0  0  0  0
 21 22  2  0  0  0  0
 21 24  1  0  0  0  0
 22 23  1  0  0  0  0
 24 25  2  0  0  0  0
 25 26  1  0  0  0  0
M  END
>  <CHROM.1>
-43.29544613,70.05174835,-53.66627349,-73.57630817,171.87874381,88.59657291
-174.32625038,38.21620863,14.08123416,6.88213855,-2.27391535,-0.58013227
-2.95872959

>  <Name>
ligand

>  <RI>
0

>  <Rbt.Current_Directory>
/home/itssahil/PROJECTS/Mol_Feturizer/New_Systems/rnas/3NPQ

>  <Rbt.Executable>
rbdock ($Id: //depot/dev/client3/rdock/2013.1/src/exe/rbdock.cxx#4 $)

>  <Rbt.Library>
libRbt.so (2013.1, Build901 2013/11/27)

>  <Rbt.Parameter_File>
/export/apps/rDock/src/rDock_2013.1_src/data/scripts/dock_solv.prm

>  <Rbt.Receptor>
prm/pocket_docking_3.prm

>  <SCORE>
-32.0752

>  <SCORE.INTER>
-32.8332

>  <SCORE.INTER.CONST>
1

>  <SCORE.INTER.POLAR>
0

>  <SCORE.INTER.ROT>
7

>  <SCORE.INTER.SOLV>
23.2527

>  <SCORE.INTER.VDW>
-37.9064

>  <SCORE.INTER.norm>
-1.26282

>  <SCORE.INTRA>
0.757993

>  <SCORE.INTRA.DIHEDRAL>
-0.931094

>  <SCORE.INTRA.DIHEDRAL.0>
6.97628

>  <SCORE.INTRA.POLAR>
0

>  <SCORE.INTRA.POLAR.0>
0

>  <SCORE.INTRA.REPUL>
0

>  <SCORE.INTRA.REPUL.0>
0

>  <SCORE.INTRA.SOLV>
2.35547

>  <SCORE.INTRA.SOLV.lig_0>
-49.8243

>  <SCORE.INTRA.VDW>
0.0458034

>  <SCORE.INTRA.VDW.0>
-1.35881

>  <SCORE.INTRA.norm>
0.0291536

>  <SCORE.RESTR>
0

>  <SCORE.RESTR.CAVITY>
0

>  <SCORE.RESTR.norm>
0

>  <SCORE.SYSTEM>
0

>  <SCORE.SYSTEM.CONST>
0

>  <SCORE.SYSTEM.DIHEDRAL>
0

>  <SCORE.SYSTEM.SOLV>
0

>  <SCORE.SYSTEM.norm>
0

>  <SCORE.heavy>
26

>  <SCORE.norm>
-1.23366

>  <RMSD>
1.495

$$$$
ligand
 OpenBabel11021811483D
libRbt.so/2013.1/901 2013/11/27
 26 28  0  0  0  0  0  0  0  0999 V2000
   36.5820   19.2813    8.9982 N   0  0  0  0  0  0  0  0  0  0  0  0
   35.4195   18.6609    8.3751 C   0  0  2  0  0  0  0  0  0  0  0  0
   34.2103   19.5879    8.4248 C   0  0  0  0  0  0  0  0  0  0  0  0
   33.5190   19.6732    9.4391 O   0  0  0  0  0  0  0  0  0  0  0  0
   35.0918   17.3377    9.0555 C   0  0  0  0  0  0  0  0  0  0  0  0
   36.3108   16.4798    9.3682 C   0  0  0  0  0  0  0  0  0  0  0  0
   36.0218   14.7209    9.0505 S   0  0  0  0  0  0  0  0  0  0  0  0
   36.7344   14.8994    7.3957 C   0  0  0  0  0  0  0  0  0  0  0  0
   38.2542   15.0132    7.4186 C   0  0  1  0  0  0  0  0  0  0  0  0
   38.8302   13.7433    7.6648 O   0  0  0  0  0  0  0  0  0  0  0  0
   38.7965   15.5200    6.0922 C   0  0  1  0  0  0  0  0  0  0  0  0
   39.4310   16.7634    6.2756 O   0  0  0  0  0  0  0  0  0  0  0  0
   39.8039   14.4856    5.6349 C   0  0  1  0  0  0  0  0  0  0  0  0
   41.0680   15.0834    5.4648 O   0  0  0  0  0  0  0  0  0  0  0  0
   39.8613   13.4467    6.7417 C   0  0  2  0  0  0  0  0  0  0  0  0
   33.8966   20.2739    7.4513 O   0  0  0  0  0  0  0  0  0  0  0  0
   41.6828    9.7886    3.4451 N   0  0  0  0  0  0  0  0  0  0  0  0
   42.2085   11.0385    3.7038 C   0  0  0  0  0  0  0  0  0  0  0  0
   41.5920   11.8778    4.6106 N   0  0  0  0  0  0  0  0  0  0  0  0
   40.4656   11.4823    5.2524 C   0  0  0  0  0  0  0  0  0  0  0  0
   39.9214   10.2293    5.0053 C   0  0  0  0  0  0  0  0  0  0  0  0
   40.5363    9.3783    4.0948 C   0  0  0  0  0  0  0  0  0  0  0  0
   40.0234    8.1762    3.8495 N   0  0  0  0  0  0  0  0  0  0  0  0
   38.8163   10.0977    5.7705 N   0  0  0  0  0  0  0  0  0  0  0  0
   38.6487   11.2301    6.4914 C   0  0  0  0  0  0  0  0  0  0  0  0
   39.6637   12.0980    6.1809 N   0  0  0  0  0  0  0  0  0  0  0  0
  2  1  1  1  0  0  0
  2  3  1  0  0  0  0
  2  5  1  0  0  0  0
  3  4  1  0  0  0  0
  3 16  1  0  0  0  0
  5  6  1  0  0  0  0
  6  7  1  0  0  0  0
  7  8  1  0  0  0  0
  9  8  1  6  0  0  0
  9 10  1  0  0  0  0
  9 11  1  0  0  0  0
 10 15  1  0  0  0  0
 11 12  1  1  0  0  0
 11 13  1  0  0  0  0
 13 14  1  1  0  0  0
 13 15  1  0  0  0  0
 15 26  1  6  0  0  0
 17 18  2  0  0  0  0
 17 22  1  0  0  0  0
 18 19  1  0  0  0  0
 19 20  2  0  0  0  0
 20 21  1  0  0  0  0
 20 26  1  0  0  0  0
 21 22  2  0  0  0  0
 21 24  1  0  0  0  0
 22 23  1  0  0  0  0
 24 25  2  0  0  0  0
 25 26  1  0  0  0  0
M  END
>  <CHROM.1>
-81.43928859,-42.57155462,-139.71171605,94.41799500,75.24188602,75.37230223
179.67199352,38.18956633,14.39516407,6.75474138,-2.26531749,-0.59189997,-3.10862609

>  <Name>
ligand

>  <RI>
0

>  <Rbt.Current_Directory>
/home/itssahil/PROJECTS/Mol_Feturizer/New_Systems/rnas/3NPQ

>  <Rbt.Executable>
rbdock ($Id: //depot/dev/client3/rdock/2013.1/src/exe/rbdock.cxx#4 $)

>  <Rbt.Library>
libRbt.so (2013.1, Build901 2013/11/27)

>  <Rbt.Parameter_File>
/export/apps/rDock/src/rDock_2013.1_src/data/scripts/dock_solv.prm

>  <Rbt.Receptor>
prm/pocket_docking_4.prm

>  <SCORE>
-28.8606

>  <SCORE.INTER>
-30.425

>  <SCORE.INTER.CONST>
1

>  <SCORE.INTER.POLAR>
0

>  <SCORE.INTER.ROT>
7

>  <SCORE.INTER.SOLV>
24.2781

>  <SCORE.INTER.VDW>
-36.6427

>  <SCORE.INTER.norm>
-1.17019

>  <SCORE.INTRA>
1.56445

>  <SCORE.INTRA.DIHEDRAL>
3.62372

>  <SCORE.INTRA.DIHEDRAL.0>
6.97628

>  <SCORE.INTRA.POLAR>
0

>  <SCORE.INTRA.POLAR.0>
0

>  <SCORE.INTRA.REPUL>
0

>  <SCORE.INTRA.REPUL.0>
0

>  <SCORE.INTRA.SOLV>
0.0224815

>  <SCORE.INTRA.SOLV.lig_0>
-49.8243

>  <SCORE.INTRA.VDW>
-0.258649

>  <SCORE.INTRA.VDW.0>
-1.35881

>  <SCORE.INTRA.norm>
0.0601713

>  <SCORE.RESTR>
0

>  <SCORE.RESTR.CAVITY>
0

>  <SCORE.RESTR.norm>
0

>  <SCORE.SYSTEM>
0

>  <SCORE.SYSTEM.CONST>
0

>  <SCORE.SYSTEM.DIHEDRAL>
0

>  <SCORE.SYSTEM.SOLV>
0

>  <SCORE.SYSTEM.norm>
0

>  <SCORE.heavy>
26

>  <SCORE.norm>
-1.11002

>  <RMSD>
1.495

$$$$
ligand
 OpenBabel11021811483D
libRbt.so/2013.1/901 2013/11/27
 26 28  0  0  0  0  0  0  0  0999 V2000
   35.1627   19.2671    6.9403 N   0  0  0  0  0  0  0  0  0  0  0  0
   35.1076   18.1535    7.8791 C   0  0  2  0  0  0  0  0  0  0  0  0
   34.2117   18.4820    9.0680 C   0  0  0  0  0  0  0  0  0  0  0  0
   33.5324   19.5077    9.0848 O   0  0  0  0  0  0  0  0  0  0  0  0
   36.5067   17.7936    8.3629 C   0  0  0  0  0  0  0  0  0  0  0  0
   36.5781   16.4897    9.1468 C   0  0  0  0  0  0  0  0  0  0  0  0
   35.7273   15.1286    8.3090 S   0  0  0  0  0  0  0  0  0  0  0  0
   36.8518   15.2893    6.8991 C   0  0  0  0  0  0  0  0  0  0  0  0
   38.3185   15.1903    7.3020 C   0  0  1  0  0  0  0  0  0  0  0  0
   38.6359   13.8541    7.6464 O   0  0  0  0  0  0  0  0  0  0  0  0
   39.2390   15.6087    6.1671 C   0  0  1  0  0  0  0  0  0  0  0  0
   39.9709   16.7526    6.5384 O   0  0  0  0  0  0  0  0  0  0  0  0
   40.1779   14.4413    5.9444 C   0  0  1  0  0  0  0  0  0  0  0  0
   41.5138   14.8561    6.1109 O   0  0  0  0  0  0  0  0  0  0  0  0
   39.8146   13.4112    7.0001 C   0  0  2  0  0  0  0  0  0  0  0  0
   34.1461   17.7284   10.0399 O   0  0  0  0  0  0  0  0  0  0  0  0
   41.5246    9.8977    3.4932 N   0  0  0  0  0  0  0  0  0  0  0  0
   42.0811   11.1194    3.8144 C   0  0  0  0  0  0  0  0  0  0  0  0
   41.4914   11.9218    4.7711 N   0  0  0  0  0  0  0  0  0  0  0  0
   40.3614   11.5175    5.4009 C   0  0  0  0  0  0  0  0  0  0  0  0
   39.7864   10.2925    5.0912 C   0  0  0  0  0  0  0  0  0  0  0  0
   40.3741    9.4786    4.1303 C   0  0  0  0  0  0  0  0  0  0  0  0
   39.8317    8.3037    3.8249 N   0  0  0  0  0  0  0  0  0  0  0  0
   38.6848   10.1445    5.8583 N   0  0  0  0  0  0  0  0  0  0  0  0
   38.5491   11.2395    6.6412 C   0  0  0  0  0  0  0  0  0  0  0  0
   39.5814   12.0998    6.3688 N   0  0  0  0  0  0  0  0  0  0  0  0
  2  1  1  6  0  0  0
  2  3  1  0  0  0  0
  2  5  1  0  0  0  0
  3  4  1  0  0  0  0
  3 16  1  0  0  0  0
  5  6  1  0  0  0  0
  6  7  1  0  0  0  0
  7  8  1  0  0  0  0
  9  8  1  6  0  0  0
  9 10  1  0  0  0  0
  9 11  1  0  0  0  0
 10 15  1  0  0  0  0
 11 12  1  1  0  0  0
 11 13  1  0  0  0  0
 13 14  1  1  0  0  0
 13 15  1  0  0  0  0
 15 26  1  6  0  0  0
 17 18  2  0  0  0  0
 17 22  1  0  0  0  0
 18 19  1  0  0  0  0
 19 20  2  0  0  0  0
 20 21  1  0  0  0  0
 20 26  1  0  0  0  0
 21 22  2  0  0  0  0
 21 24  1  0  0  0  0
 22 23  1  0  0  0  0
 24 25  2  0  0  0  0
 25 26  1  0  0  0  0
M  END
>  <CHROM.1>
7.79025443,-169.54086177,48.58470345,60.95984921,55.21044145,72.15560165
163.09307022,38.19688696,14.31544833,6.75084046,-2.22422456,-0.41943769,-2.95462974

>  <Name>
ligand

>  <RI>
0

>  <Rbt.Current_Directory>
/home/itssahil/PROJECTS/Mol_Feturizer/New_Systems/rnas/3NPQ

>  <Rbt.Executable>
rbdock ($Id: //depot/dev/client3/rdock/2013.1/src/exe/rbdock.cxx#4 $)

>  <Rbt.Library>
libRbt.so (2013.1, Build901 2013/11/27)

>  <Rbt.Parameter_File>
/export/apps/rDock/src/rDock_2013.1_src/data/scripts/dock_solv.prm

>  <Rbt.Receptor>
prm/pocket_docking_2.prm

>  <SCORE>
-27.5083

>  <SCORE.INTER>
-28.378

>  <SCORE.INTER.CONST>
1

>  <SCORE.INTER.POLAR>
0

>  <SCORE.INTER.ROT>
7

>  <SCORE.INTER.SOLV>
22.6172

>  <SCORE.INTER.VDW>
-34.7244

>  <SCORE.INTER.norm>
-1.09146

>  <SCORE.INTRA>
0.85178

>  <SCORE.INTRA.DIHEDRAL>
-2.86396

>  <SCORE.INTRA.DIHEDRAL.0>
6.97628

>  <SCORE.INTRA.POLAR>
0

>  <SCORE.INTRA.POLAR.0>
0

>  <SCORE.INTRA.REPUL>
0

>  <SCORE.INTRA.REPUL.0>
0

>  <SCORE.INTRA.SOLV>
-0.00691232

>  <SCORE.INTRA.SOLV.lig_0>
-49.8243

>  <SCORE.INTRA.VDW>
2.28722

>  <SCORE.INTRA.VDW.0>
-1.35881

>  <SCORE.INTRA.norm>
0.0327608

>  <SCORE.RESTR>
0.0178746

>  <SCORE.RESTR.CAVITY>
0.0178746

>  <SCORE.RESTR.norm>
0.000687487

>  <SCORE.SYSTEM>
0

>  <SCORE.SYSTEM.CONST>
0

>  <SCORE.SYSTEM.DIHEDRAL>
0

>  <SCORE.SYSTEM.SOLV>
0

>  <SCORE.SYSTEM.norm>
0

>  <SCORE.heavy>
26

>  <SCORE.norm>
-1.05801

>  <RMSD>
1.499

$$$$
ligand
 OpenBabel11021811483D
libRbt.so/2013.1/901 2013/11/27
 26 28  0  0  0  0  0  0  0  0999 V2000
   35.8382   18.6147    7.4375 N   0  0  0  0  0  0  0  0  0  0  0  0
   34.8481   17.7841    8.1116 C   0  0  2  0  0  0  0  0  0  0  0  0
   33.5295   18.5302    8.2806 C   0  0  0  0  0  0  0  0  0  0  0  0
   32.4565   17.9865    8.0217 O   0  0  0  0  0  0  0  0  0  0  0  0
   35.3685   17.3290    9.4693 C   0  0  0  0  0  0  0  0  0  0  0  0
   36.5860   16.4170    9.3955 C   0  0  0  0  0  0  0  0  0  0  0  0
   36.1907   14.7847    8.7188 S   0  0  0  0  0  0  0  0  0  0  0  0
   37.0277   15.2193    7.1732 C   0  0  0  0  0  0  0  0  0  0  0  0
   38.5462   15.1556    7.2884 C   0  0  1  0  0  0  0  0  0  0  0  0
   38.9525   13.8348    7.5970 O   0  0  0  0  0  0  0  0  0  0  0  0
   39.2223   15.5577    5.9878 C   0  0  1  0  0  0  0  0  0  0  0  0
   39.9873   16.7233    6.1838 O   0  0  0  0  0  0  0  0  0  0  0  0
   40.1258   14.4002    5.6163 C   0  0  1  0  0  0  0  0  0  0  0  0
   41.4596   14.8414    5.5125 O   0  0  0  0  0  0  0  0  0  0  0  0
   39.9943   13.3937    6.7465 C   0  0  2  0  0  0  0  0  0  0  0  0
   33.5065   19.6948    8.6806 O   0  0  0  0  0  0  0  0  0  0  0  0
   41.4093    9.5861    3.4198 N   0  0  0  0  0  0  0  0  0  0  0  0
   42.0401   10.7920    3.6507 C   0  0  0  0  0  0  0  0  0  0  0  0
   41.5226   11.6820    4.5710 N   0  0  0  0  0  0  0  0  0  0  0  0
   40.3913   11.3799    5.2534 C   0  0  0  0  0  0  0  0  0  0  0  0
   39.7422   10.1724    5.0347 C   0  0  0  0  0  0  0  0  0  0  0  0
   40.2569    9.2708    4.1109 C   0  0  0  0  0  0  0  0  0  0  0  0
   39.6431    8.1116    3.8925 N   0  0  0  0  0  0  0  0  0  0  0  0
   38.6570   10.1323    5.8376 N   0  0  0  0  0  0  0  0  0  0  0  0
   38.6035   11.2782    6.5547 C   0  0  0  0  0  0  0  0  0  0  0  0
   39.6724   12.0618    6.2034 N   0  0  0  0  0  0  0  0  0  0  0  0
  2  1  1  1  0  0  0
  2  3  1  0  0  0  0
  2  5  1  0  0  0  0
  3  4  1  0  0  0  0
  3 16  1  0  0  0  0
  5  6  1  0  0  0  0
  6  7  1  0  0  0  0
  7  8  1  0  0  0  0
  9  8  1  6  0  0  0
  9 10  1  0  0  0  0
  9 11  1  0  0  0  0
 10 15  1  0  0  0  0
 11 12  1  1  0  0  0
 11 13  1  0  0  0  0
 13 14  1  1  0  0  0
 13 15  1  0  0  0  0
 15 26  1  6  0  0  0
 17 18  2  0  0  0  0
 17 22  1  0  0  0  0
 18 19  1  0  0  0  0
 19 20  2  0  0  0  0
 20 21  1  0  0  0  0
 20 26  1  0  0  0  0
 21 22  2  0  0  0  0
 21 24  1  0  0  0  0
 22 23  1  0  0  0  0
 24 25  2  0  0  0  0
 25 26  1  0  0  0  0
M  END
>  <CHROM.1>
134.59499888,-64.55210375,-69.50748456,106.77248641,76.91882401,61.85208298
173.70212694,38.13408343,14.18528076,6.64551638,-2.24664782,-0.37837750,-2.94993749

>  <Name>
ligand

>  <RI>
0

>  <Rbt.Current_Directory>
/home/itssahil/PROJECTS/Mol_Feturizer/New_Systems/rnas/3NPQ

>  <Rbt.Executable>
rbdock ($Id: //depot/dev/client3/rdock/2013.1/src/exe/rbdock.cxx#4 $)

>  <Rbt.Library>
libRbt.so (2013.1, Build901 2013/11/27)

>  <Rbt.Parameter_File>
/export/apps/rDock/src/rDock_2013.1_src/data/scripts/dock_solv.prm

>  <Rbt.Receptor>
prm/pocket_docking_2.prm

>  <SCORE>
-32.831

>  <SCORE.INTER>
-31.8156

>  <SCORE.INTER.CONST>
1

>  <SCORE.INTER.POLAR>
0

>  <SCORE.INTER.ROT>
7

>  <SCORE.INTER.SOLV>
21.5113

>  <SCORE.INTER.VDW>
-36.6475

>  <SCORE.INTER.norm>
-1.22368

>  <SCORE.INTRA>
-1.23181

>  <SCORE.INTRA.DIHEDRAL>
-1.30917

>  <SCORE.INTRA.DIHEDRAL.0>
6.97628

>  <SCORE.INTRA.POLAR>
0

>  <SCORE.INTRA.POLAR.0>
0

>  <SCORE.INTRA.REPUL>
0

>  <SCORE.INTRA.REPUL.0>
0

>  <SCORE.INTRA.SOLV>
1.24792

>  <SCORE.INTRA.SOLV.lig_0>
-49.8243

>  <SCORE.INTRA.VDW>
-1.20119

>  <SCORE.INTRA.VDW.0>
-1.35881

>  <SCORE.INTRA.norm>
-0.0473774

>  <SCORE.RESTR>
0.216494

>  <SCORE.RESTR.CAVITY>
0.216494

>  <SCORE.RESTR.norm>
0.00832668

>  <SCORE.SYSTEM>
0

>  <SCORE.SYSTEM.CONST>
0

>  <SCORE.SYSTEM.DIHEDRAL>
0

>  <SCORE.SYSTEM.SOLV>
0

>  <SCORE.SYSTEM.norm>
0

>  <SCORE.heavy>
26

>  <SCORE.norm>
-1.26273

>  <RMSD>
1.511

$$$$
ligand
 OpenBabel11021811483D
libRbt.so/2013.1/901 2013/11/27
 26 28  0  0  0  0  0  0  0  0999 V2000
   34.9517   19.1104    7.8334 N   0  0  0  0  0  0  0  0  0  0  0  0
   34.9073   17.8781    8.6105 C   0  0  2  0  0  0  0  0  0  0  0  0
   34.2578   18.1100    9.9701 C   0  0  0  0  0  0  0  0  0  0  0  0
   33.3887   18.9681   10.1187 O   0  0  0  0  0  0  0  0  0  0  0  0
   36.3094   17.3103    8.7914 C   0  0  0  0  0  0  0  0  0  0  0  0
   37.0776   17.1224    7.4897 C   0  0  0  0  0  0  0  0  0  0  0  0
   36.2421   15.9932    6.3473 S   0  0  0  0  0  0  0  0  0  0  0  0
   37.0118   14.5796    7.1767 C   0  0  0  0  0  0  0  0  0  0  0  0
   38.5337   14.6636    7.1919 C   0  0  1  0  0  0  0  0  0  0  0  0
   39.0861   13.3803    7.4222 O   0  0  0  0  0  0  0  0  0  0  0  0
   39.0783   15.1729    5.8675 C   0  0  1  0  0  0  0  0  0  0  0  0
   39.7379   16.4019    6.0595 O   0  0  0  0  0  0  0  0  0  0  0  0
   40.0628   14.1238    5.3942 C   0  0  1  0  0  0  0  0  0  0  0  0
   41.3374   14.6985    5.2227 O   0  0  0  0  0  0  0  0  0  0  0  0
   40.1061   13.0730    6.4903 C   0  0  2  0  0  0  0  0  0  0  0  0
   34.5872   17.4438   10.9522 O   0  0  0  0  0  0  0  0  0  0  0  0
   41.8733    9.3864    3.1959 N   0  0  0  0  0  0  0  0  0  0  0  0
   42.4300   10.6192    3.4710 C   0  0  0  0  0  0  0  0  0  0  0  0
   41.8237   11.4697    4.3743 N   0  0  0  0  0  0  0  0  0  0  0  0
   40.6772   11.1019    4.9967 C   0  0  0  0  0  0  0  0  0  0  0  0
   40.1018    9.8664    4.7329 C   0  0  0  0  0  0  0  0  0  0  0  0
   40.7061    9.0043    3.8258 C   0  0  0  0  0  0  0  0  0  0  0  0
   40.1634    7.8188    3.5646 N   0  0  0  0  0  0  0  0  0  0  0  0
   38.9821    9.7611    5.4807 N   0  0  0  0  0  0  0  0  0  0  0  0
   38.8356   10.8931    6.2069 C   0  0  0  0  0  0  0  0  0  0  0  0
   39.8791   11.7340    5.9174 N   0  0  0  0  0  0  0  0  0  0  0  0
  2  1  1  1  0  0  0
  2  3  1  0  0  0  0
  2  5  1  0  0  0  0
  3  4  1  0  0  0  0
  3 16  1  0  0  0  0
  5  6  1  0  0  0  0
  6  7  1  0  0  0  0
  7  8  1  0  0  0  0
  9  8  1  6  0  0  0
  9 10  1  0  0  0  0
  9 11  1  0  0  0  0
 10 15  1  0  0  0  0
 11 12  1  1  0  0  0
 11 13  1  0  0  0  0
 13 14  1  1  0  0  0
 13 15  1  0  0  0  0
 15 26  1  6  0  0  0
 17 18  2  0  0  0  0
 17 22  1  0  0  0  0
 18 19  1  0  0  0  0
 19 20  2  0  0  0  0
 20 21  1  0  0  0  0
 20 26  1  0  0  0  0
 21 22  2  0  0  0  0
 21 24  1  0  0  0  0
 22 23  1  0  0  0  0
 24 25  2  0  0  0  0
 25 26  1  0  0  0  0
M  END
>  <CHROM.1>
30.53881595,-53.37869554,-59.81121275,-84.94474220,-57.02504965,-160.25618226
-179.03497621,38.37837108,14.05672214,6.47387990,-2.26481065,-0.55297584
-3.01439240

>  <Name>
ligand

>  <RI>
0

>  <Rbt.Current_Directory>
/home/itssahil/PROJECTS/Mol_Feturizer/New_Systems/rnas/3NPQ

>  <Rbt.Executable>
rbdock ($Id: //depot/dev/client3/rdock/2013.1/src/exe/rbdock.cxx#4 $)

>  <Rbt.Library>
libRbt.so (2013.1, Build901 2013/11/27)

>  <Rbt.Parameter_File>
/export/apps/rDock/src/rDock_2013.1_src/data/scripts/dock_solv.prm

>  <Rbt.Receptor>
prm/pocket_docking_2.prm

>  <SCORE>
-24.834

>  <SCORE.INTER>
-26.6527

>  <SCORE.INTER.CONST>
1

>  <SCORE.INTER.POLAR>
0

>  <SCORE.INTER.ROT>
7

>  <SCORE.INTER.SOLV>
21.034

>  <SCORE.INTER.VDW>
-33.0465

>  <SCORE.INTER.norm>
-1.0251

>  <SCORE.INTRA>
1.32928

>  <SCORE.INTRA.DIHEDRAL>
-1.95381

>  <SCORE.INTRA.DIHEDRAL.0>
6.97628

>  <SCORE.INTRA.POLAR>
0

>  <SCORE.INTRA.POLAR.0>
0

>  <SCORE.INTRA.REPUL>
0

>  <SCORE.INTRA.REPUL.0>
0

>  <SCORE.INTRA.SOLV>
1.0828

>  <SCORE.INTRA.SOLV.lig_0>
-49.8243

>  <SCORE.INTRA.VDW>
1.76478

>  <SCORE.INTRA.VDW.0>
-1.35881

>  <SCORE.INTRA.norm>
0.051126

>  <SCORE.RESTR>
0.489436

>  <SCORE.RESTR.CAVITY>
0.489436

>  <SCORE.RESTR.norm>
0.0188244

>  <SCORE.SYSTEM>
0

>  <SCORE.SYSTEM.CONST>
0

>  <SCORE.SYSTEM.DIHEDRAL>
0

>  <SCORE.SYSTEM.SOLV>
0

>  <SCORE.SYSTEM.norm>
0

>  <SCORE.heavy>
26

>  <SCORE.norm>
-0.955153

>  <RMSD>
1.518

$$$$
ligand
 OpenBabel11021811483D
libRbt.so/2013.1/901 2013/11/27
 26 28  0  0  0  0  0  0  0  0999 V2000
   33.8207   19.7603    8.3282 N   0  0  0  0  0  0  0  0  0  0  0  0
   34.9380   19.0099    8.8877 C   0  0  2  0  0  0  0  0  0  0  0  0
   36.1941   19.1838    8.0415 C   0  0  0  0  0  0  0  0  0  0  0  0
   36.1458   19.1128    6.8141 O   0  0  0  0  0  0  0  0  0  0  0  0
   34.5850   17.5322    9.0011 C   0  0  0  0  0  0  0  0  0  0  0  0
   35.6793   16.6769    9.6262 C   0  0  0  0  0  0  0  0  0  0  0  0
   35.4130   14.9058    9.3606 S   0  0  0  0  0  0  0  0  0  0  0  0
   36.1572   15.0373    7.7153 C   0  0  0  0  0  0  0  0  0  0  0  0
   37.6598   15.2881    7.7676 C   0  0  1  0  0  0  0  0  0  0  0  0
   38.3432   14.0759    8.0292 O   0  0  0  0  0  0  0  0  0  0  0  0
   38.1801   15.8397    6.4503 C   0  0  1  0  0  0  0  0  0  0  0  0
   38.6959   17.1357    6.6418 O   0  0  0  0  0  0  0  0  0  0  0  0
   39.2857   14.8999    6.0162 C   0  0  1  0  0  0  0  0  0  0  0  0
   40.4938   15.6093    5.8687 O   0  0  0  0  0  0  0  0  0  0  0  0
   39.4150   13.8723    7.1274 C   0  0  2  0  0  0  0  0  0  0  0  0
   37.2872   19.4000    8.5661 O   0  0  0  0  0  0  0  0  0  0  0  0
   41.5188   10.4468    3.7499 N   0  0  0  0  0  0  0  0  0  0  0  0
   41.9086   11.7479    3.9959 C   0  0  0  0  0  0  0  0  0  0  0  0
   41.2341   12.5112    4.9282 N   0  0  0  0  0  0  0  0  0  0  0  0
   40.1836   11.9901    5.6078 C   0  0  0  0  0  0  0  0  0  0  0  0
   39.7761   10.6838    5.3741 C   0  0  0  0  0  0  0  0  0  0  0  0
   40.4502    9.9087    4.4381 C   0  0  0  0  0  0  0  0  0  0  0  0
   40.0681    8.6565    4.2053 N   0  0  0  0  0  0  0  0  0  0  0  0
   38.7213   10.4272    6.1776 N   0  0  0  0  0  0  0  0  0  0  0  0
   38.4527   11.5328    6.9096 C   0  0  0  0  0  0  0  0  0  0  0  0
   39.3512   12.5103    6.5674 N   0  0  0  0  0  0  0  0  0  0  0  0
  2  1  1  6  0  0  0
  2  3  1  0  0  0  0
  2  5  1  0  0  0  0
  3  4  1  0  0  0  0
  3 16  1  0  0  0  0
  5  6  1  0  0  0  0
  6  7  1  0  0  0  0
  7  8  1  0  0  0  0
  9  8  1  6  0  0  0
  9 10  1  0  0  0  0
  9 11  1  0  0  0  0
 10 15  1  0  0  0  0
 11 12  1  1  0  0  0
 11 13  1  0  0  0  0
 13 14  1  1  0  0  0
 13 15  1  0  0  0  0
 15 26  1  6  0  0  0
 17 18  2  0  0  0  0
 17 22  1  0  0  0  0
 18 19  1  0  0  0  0
 19 20  2  0  0  0  0
 20 21  1  0  0  0  0
 20 26  1  0  0  0  0
 21 22  2  0  0  0  0
 21 24  1  0  0  0  0
 22 23  1  0  0  0  0
 24 25  2  0  0  0  0
 25 26  1  0  0  0  0
M  END
>  <CHROM.1>
-44.70627224,-177.84530570,-165.27627609,82.59644948,70.25507347,79.13666548
176.21606102,38.05634829,14.66284100,6.93941836,-2.26786904,-0.64208737,3.13172086

>  <Name>
ligand

>  <RI>
0

>  <Rbt.Current_Directory>
/home/itssahil/PROJECTS/Mol_Feturizer/New_Systems/rnas/3NPQ

>  <Rbt.Executable>
rbdock ($Id: //depot/dev/client3/rdock/2013.1/src/exe/rbdock.cxx#4 $)

>  <Rbt.Library>
libRbt.so (2013.1, Build901 2013/11/27)

>  <Rbt.Parameter_File>
/export/apps/rDock/src/rDock_2013.1_src/data/scripts/dock_solv.prm

>  <Rbt.Receptor>
prm/pocket_docking_4.prm

>  <SCORE>
-32.7432

>  <SCORE.INTER>
-30.4743

>  <SCORE.INTER.CONST>
1

>  <SCORE.INTER.POLAR>
0

>  <SCORE.INTER.ROT>
7

>  <SCORE.INTER.SOLV>
25.1018

>  <SCORE.INTER.VDW>
-36.9501

>  <SCORE.INTER.norm>
-1.17209

>  <SCORE.INTRA>
-2.26898

>  <SCORE.INTRA.DIHEDRAL>
-1.37746

>  <SCORE.INTRA.DIHEDRAL.0>
6.97628

>  <SCORE.INTRA.POLAR>
0

>  <SCORE.INTRA.POLAR.0>
0

>  <SCORE.INTRA.REPUL>
0

>  <SCORE.INTRA.REPUL.0>
0

>  <SCORE.INTRA.SOLV>
-0.608482

>  <SCORE.INTRA.SOLV.lig_0>
-49.8243

>  <SCORE.INTRA.VDW>
-1.276

>  <SCORE.INTRA.VDW.0>
-1.35881

>  <SCORE.INTRA.norm>
-0.0872683

>  <SCORE.RESTR>
0

>  <SCORE.RESTR.CAVITY>
0

>  <SCORE.RESTR.norm>
0

>  <SCORE.SYSTEM>
0

>  <SCORE.SYSTEM.CONST>
0

>  <SCORE.SYSTEM.DIHEDRAL>
0

>  <SCORE.SYSTEM.SOLV>
0

>  <SCORE.SYSTEM.norm>
0

>  <SCORE.heavy>
26

>  <SCORE.norm>
-1.25936

>  <RMSD>
1.518

$$$$
ligand
 OpenBabel11021811483D
libRbt.so/2013.1/901 2013/11/27
 26 28  0  0  0  0  0  0  0  0999 V2000
   35.1994   16.4575   10.1497 N   0  0  0  0  0  0  0  0  0  0  0  0
   35.6801   17.7638    9.7171 C   0  0  2  0  0  0  0  0  0  0  0  0
   34.5211   18.7288    9.4950 C   0  0  0  0  0  0  0  0  0  0  0  0
   33.4115   18.5081    9.9788 O   0  0  0  0  0  0  0  0  0  0  0  0
   36.5036   17.6340    8.4419 C   0  0  0  0  0  0  0  0  0  0  0  0
   35.7392   17.0423    7.2648 C   0  0  0  0  0  0  0  0  0  0  0  0
   35.5169   15.2514    7.4111 S   0  0  0  0  0  0  0  0  0  0  0  0
   36.7972   14.9870    6.1584 C   0  0  0  0  0  0  0  0  0  0  0  0
   38.2013   14.9515    6.7504 C   0  0  1  0  0  0  0  0  0  0  0  0
   38.5188   13.6346    7.1626 O   0  0  0  0  0  0  0  0  0  0  0  0
   39.2465   15.3853    5.7356 C   0  0  1  0  0  0  0  0  0  0  0  0
   39.8821   16.5628    6.1735 O   0  0  0  0  0  0  0  0  0  0  0  0
   40.2478   14.2512    5.6626 C   0  0  1  0  0  0  0  0  0  0  0  0
   41.5347   14.7200    5.9920 O   0  0  0  0  0  0  0  0  0  0  0  0
   39.7870   13.2263    6.6847 C   0  0  2  0  0  0  0  0  0  0  0  0
   34.6676   19.7527    8.8264 O   0  0  0  0  0  0  0  0  0  0  0  0
   41.9227    9.8324    3.2954 N   0  0  0  0  0  0  0  0  0  0  0  0
   42.3673   11.0961    3.6282 C   0  0  0  0  0  0  0  0  0  0  0  0
   41.6741   11.8567    4.5489 N   0  0  0  0  0  0  0  0  0  0  0  0
   40.5515   11.3699    5.1318 C   0  0  0  0  0  0  0  0  0  0  0  0
   40.0882   10.1015    4.8098 C   0  0  0  0  0  0  0  0  0  0  0  0
   40.7806    9.3292    3.8848 C   0  0  0  0  0  0  0  0  0  0  0  0
   40.3456    8.1132    3.5680 N   0  0  0  0  0  0  0  0  0  0  0  0
   38.9677    9.8732    5.5284 N   0  0  0  0  0  0  0  0  0  0  0  0
   38.7119   10.9598    6.2926 C   0  0  0  0  0  0  0  0  0  0  0  0
   39.6854   11.8962    6.0576 N   0  0  0  0  0  0  0  0  0  0  0  0
  2  1  1  6  0  0  0
  2  3  1  0  0  0  0
  2  5  1  0  0  0  0
  3  4  1  0  0  0  0
  3 16  1  0  0  0  0
  5  6  1  0  0  0  0
  6  7  1  0  0  0  0
  7  8  1  0  0  0  0
  9  8  1  6  0  0  0
  9 10  1  0  0  0  0
  9 11  1  0  0  0  0
 10 15  1  0  0  0  0
 11 12  1  1  0  0  0
 11 13  1  0  0  0  0
 13 14  1  1  0  0  0
 13 15  1  0  0  0  0
 15 26  1  6  0  0  0
 17 18  2  0  0  0  0
 17 22  1  0  0  0  0
 18 19  1  0  0  0  0
 19 20  2  0  0  0  0
 20 21  1  0  0  0  0
 20 26  1  0  0  0  0
 21 22  2  0  0  0  0
 21 24  1  0  0  0  0
 22 23  1  0  0  0  0
 24 25  2  0  0  0  0
 25 26  1  0  0  0  0
M  END
>  <CHROM.1>
18.15734110,59.99790300,-75.82349981,-104.79983902,86.31158052,87.43684515
157.63492153,38.28179511,14.15523691,6.57482294,2.22938414,0.42329127,0.23731945

>  <Name>
ligand

>  <RI>
0

>  <Rbt.Current_Directory>
/home/itssahil/PROJECTS/Mol_Feturizer/New_Systems/rnas/3NPQ

>  <Rbt.Executable>
rbdock ($Id: //depot/dev/client3/rdock/2013.1/src/exe/rbdock.cxx#4 $)

>  <Rbt.Library>
libRbt.so (2013.1, Build901 2013/11/27)

>  <Rbt.Parameter_File>
/export/apps/rDock/src/rDock_2013.1_src/data/scripts/dock_solv.prm

>  <Rbt.Receptor>
prm/pocket_docking_2.prm

>  <SCORE>
-26.2925

>  <SCORE.INTER>
-27.4504

>  <SCORE.INTER.CONST>
1

>  <SCORE.INTER.POLAR>
0

>  <SCORE.INTER.ROT>
7

>  <SCORE.INTER.SOLV>
22.975

>  <SCORE.INTER.VDW>
-34.2253

>  <SCORE.INTER.norm>
-1.05579

>  <SCORE.INTRA>
1.14358

>  <SCORE.INTRA.DIHEDRAL>
1.88087

>  <SCORE.INTRA.DIHEDRAL.0>
6.97628

>  <SCORE.INTRA.POLAR>
0

>  <SCORE.INTRA.POLAR.0>
0

>  <SCORE.INTRA.REPUL>
0

>  <SCORE.INTRA.REPUL.0>
0

>  <SCORE.INTRA.SOLV>
1.29357

>  <SCORE.INTRA.SOLV.lig_0>
-49.8243

>  <SCORE.INTRA.VDW>
-0.443645

>  <SCORE.INTRA.VDW.0>
-1.35881

>  <SCORE.INTRA.norm>
0.0439837

>  <SCORE.RESTR>
0.014356

>  <SCORE.RESTR.CAVITY>
0.014356

>  <SCORE.RESTR.norm>
0.000552153

>  <SCORE.SYSTEM>
0

>  <SCORE.SYSTEM.CONST>
0

>  <SCORE.SYSTEM.DIHEDRAL>
0

>  <SCORE.SYSTEM.SOLV>
0

>  <SCORE.SYSTEM.norm>
0

>  <SCORE.heavy>
26

>  <SCORE.norm>
-1.01125

>  <RMSD>
1.519

$$$$
ligand
 OpenBabel11021811483D
libRbt.so/2013.1/901 2013/11/27
 26 28  0  0  0  0  0  0  0  0999 V2000
   34.1381   17.6051    7.6354 N   0  0  0  0  0  0  0  0  0  0  0  0
   34.5139   17.5680    9.0433 C   0  0  2  0  0  0  0  0  0  0  0  0
   33.8284   18.6838    9.8236 C   0  0  0  0  0  0  0  0  0  0  0  0
   33.6352   19.7869    9.3139 O   0  0  0  0  0  0  0  0  0  0  0  0
   36.0259   17.6769    9.1952 C   0  0  0  0  0  0  0  0  0  0  0  0
   36.8123   16.7586    8.2689 C   0  0  0  0  0  0  0  0  0  0  0  0
   36.2882   15.0302    8.3958 S   0  0  0  0  0  0  0  0  0  0  0  0
   37.1597   14.6495    6.8551 C   0  0  0  0  0  0  0  0  0  0  0  0
   38.6729   14.6004    7.0317 C   0  0  1  0  0  0  0  0  0  0  0  0
   39.0851   13.2731    7.3022 O   0  0  0  0  0  0  0  0  0  0  0  0
   39.3968   15.0653    5.7787 C   0  0  1  0  0  0  0  0  0  0  0  0
   40.1359   16.2314    6.0550 O   0  0  0  0  0  0  0  0  0  0  0  0
   40.3318   13.9361    5.3982 C   0  0  1  0  0  0  0  0  0  0  0  0
   41.6621   14.3983    5.3693 O   0  0  0  0  0  0  0  0  0  0  0  0
   40.1678   12.8815    6.4791 C   0  0  2  0  0  0  0  0  0  0  0  0
   33.4511   18.5079   10.9827 O   0  0  0  0  0  0  0  0  0  0  0  0
   41.8048    9.2099    3.1016 N   0  0  0  0  0  0  0  0  0  0  0  0
   42.4121   10.4093    3.4148 C   0  0  0  0  0  0  0  0  0  0  0  0
   41.8346   11.2612    4.3355 N   0  0  0  0  0  0  0  0  0  0  0  0
   40.6670   10.9278    4.9376 C   0  0  0  0  0  0  0  0  0  0  0  0
   40.0408    9.7262    4.6354 C   0  0  0  0  0  0  0  0  0  0  0  0
   40.6158    8.8629    3.7106 C   0  0  0  0  0  0  0  0  0  0  0  0
   40.0244    7.7098    3.4127 N   0  0  0  0  0  0  0  0  0  0  0  0
   38.9102    9.6503    5.3703 N   0  0  0  0  0  0  0  0  0  0  0  0
   38.8060   10.7679    6.1255 C   0  0  0  0  0  0  0  0  0  0  0  0
   39.8882   11.5695    5.8681 N   0  0  0  0  0  0  0  0  0  0  0  0
  2  1  1  6  0  0  0
  2  3  1  0  0  0  0
  2  5  1  0  0  0  0
  3  4  1  0  0  0  0
  3 16  1  0  0  0  0
  5  6  1  0  0  0  0
  6  7  1  0  0  0  0
  7  8  1  0  0  0  0
  9  8  1  6  0  0  0
  9 10  1  0  0  0  0
  9 11  1  0  0  0  0
 10 15  1  0  0  0  0
 11 12  1  1  0  0  0
 11 13  1  0  0  0  0
 13 14  1  1  0  0  0
 13 15  1  0  0  0  0
 15 26  1  6  0  0  0
 17 18  2  0  0  0  0
 17 22  1  0  0  0  0
 18 19  1  0  0  0  0
 19 20  2  0  0  0  0
 20 21  1  0  0  0  0
 20 26  1  0  0  0  0
 21 22  2  0  0  0  0
 21 24  1  0  0  0  0
 22 23  1  0  0  0  0
 24 25  2  0  0  0  0
 25 26  1  0  0  0  0
M  END
>  <CHROM.1>
-35.81044367,-47.07675897,-53.17192476,165.01905027,74.32680702,92.83636408
174.80971634,38.31338940,13.91115093,6.61333914,2.23052716,0.43217195,0.24913569

>  <Name>
ligand

>  <RI>
0

>  <Rbt.Current_Directory>
/home/itssahil/PROJECTS/Mol_Feturizer/New_Systems/rnas/3NPQ

>  <Rbt.Executable>
rbdock ($Id: //depot/dev/client3/rdock/2013.1/src/exe/rbdock.cxx#4 $)

>  <Rbt.Library>
libRbt.so (2013.1, Build901 2013/11/27)

>  <Rbt.Parameter_File>
/export/apps/rDock/src/rDock_2013.1_src/data/scripts/dock_solv.prm

>  <Rbt.Receptor>
prm/pocket_docking_8.prm

>  <SCORE>
-27.0694

>  <SCORE.INTER>
-27.2386

>  <SCORE.INTER.CONST>
1

>  <SCORE.INTER.POLAR>
0

>  <SCORE.INTER.ROT>
7

>  <SCORE.INTER.SOLV>
22.8499

>  <SCORE.INTER.VDW>
-34.0424

>  <SCORE.INTER.norm>
-1.04764

>  <SCORE.INTRA>
0.169268

>  <SCORE.INTRA.DIHEDRAL>
0.195479

>  <SCORE.INTRA.DIHEDRAL.0>
6.97628

>  <SCORE.INTRA.POLAR>
0

>  <SCORE.INTRA.POLAR.0>
0

>  <SCORE.INTRA.REPUL>
0

>  <SCORE.INTRA.REPUL.0>
0

>  <SCORE.INTRA.SOLV>
1.20248

>  <SCORE.INTRA.SOLV.lig_0>
-49.8243

>  <SCORE.INTRA.VDW>
-0.529713

>  <SCORE.INTRA.VDW.0>
-1.35881

>  <SCORE.INTRA.norm>
0.00651033

>  <SCORE.RESTR>
0

>  <SCORE.RESTR.CAVITY>
0

>  <SCORE.RESTR.norm>
0

>  <SCORE.SYSTEM>
0

>  <SCORE.SYSTEM.CONST>
0

>  <SCORE.SYSTEM.DIHEDRAL>
0

>  <SCORE.SYSTEM.SOLV>
0

>  <SCORE.SYSTEM.norm>
0

>  <SCORE.heavy>
26

>  <SCORE.norm>
-1.04113

>  <RMSD>
1.525

$$$$
ligand
 OpenBabel11021811483D
libRbt.so/2013.1/901 2013/11/27
 26 28  0  0  0  0  0  0  0  0999 V2000
   35.5319   18.5816    7.5730 N   0  0  0  0  0  0  0  0  0  0  0  0
   34.8845   17.5309    8.3486 C   0  0  2  0  0  0  0  0  0  0  0  0
   33.5552   18.0108    8.9200 C   0  0  0  0  0  0  0  0  0  0  0  0
   32.5075   17.8703    8.2905 O   0  0  0  0  0  0  0  0  0  0  0  0
   35.7969   17.0589    9.4737 C   0  0  0  0  0  0  0  0  0  0  0  0
   37.0045   16.2595    9.0020 C   0  0  0  0  0  0  0  0  0  0  0  0
   36.5369   14.7145    8.1819 S   0  0  0  0  0  0  0  0  0  0  0  0
   37.4293   15.2308    6.6935 C   0  0  0  0  0  0  0  0  0  0  0  0
   38.9401   15.0839    6.8325 C   0  0  1  0  0  0  0  0  0  0  0  0
   39.2631   13.7614    7.2222 O   0  0  0  0  0  0  0  0  0  0  0  0
   39.6521   15.3685    5.5201 C   0  0  1  0  0  0  0  0  0  0  0  0
   40.4837   16.4960    5.6589 O   0  0  0  0  0  0  0  0  0  0  0  0
   40.4880   14.1396    5.2282 C   0  0  1  0  0  0  0  0  0  0  0  0
   41.8468   14.4940    5.1170 O   0  0  0  0  0  0  0  0  0  0  0  0
   40.2850   13.2104    6.4126 C   0  0  2  0  0  0  0  0  0  0  0  0
   33.4980   18.5502   10.0258 O   0  0  0  0  0  0  0  0  0  0  0  0
   41.4859    9.1505    3.3074 N   0  0  0  0  0  0  0  0  0  0  0  0
   42.1834   10.3300    3.4736 C   0  0  0  0  0  0  0  0  0  0  0  0
   41.7162   11.2974    4.3412 N   0  0  0  0  0  0  0  0  0  0  0  0
   40.5691   11.0977    5.0349 C   0  0  0  0  0  0  0  0  0  0  0  0
   39.8532    9.9182    4.8809 C   0  0  0  0  0  0  0  0  0  0  0  0
   40.3171    8.9392    4.0104 C   0  0  0  0  0  0  0  0  0  0  0  0
   39.6392    7.8060    3.8542 N   0  0  0  0  0  0  0  0  0  0  0  0
   38.7668    9.9838    5.6805 N   0  0  0  0  0  0  0  0  0  0  0  0
   38.7774   11.1690    6.3329 C   0  0  0  0  0  0  0  0  0  0  0  0
   39.8890   11.8705    5.9428 N   0  0  0  0  0  0  0  0  0  0  0  0
  2  1  1  1  0  0  0
  2  3  1  0  0  0  0
  2  5  1  0  0  0  0
  3  4  1  0  0  0  0
  3 16  1  0  0  0  0
  5  6  1  0  0  0  0
  6  7  1  0  0  0  0
  7  8  1  0  0  0  0
  9  8  1  6  0  0  0
  9 10  1  0  0  0  0
  9 11  1  0  0  0  0
 10 15  1  0  0  0  0
 11 12  1  1  0  0  0
 11 13  1  0  0  0  0
 13 14  1  1  0  0  0
 13 15  1  0  0  0  0
 15 26  1  6  0  0  0
 17 18  2  0  0  0  0
 17 22  1  0  0  0  0
 18 19  1  0  0  0  0
 19 20  2  0  0  0  0
 20 21  1  0  0  0  0
 20 26  1  0  0  0  0
 21 22  2  0  0  0  0
 21 24  1  0  0  0  0
 22 23  1  0  0  0  0
 24 25  2  0  0  0  0
 25 26  1  0  0  0  0
M  END
>  <CHROM.1>
90.21718626,-70.75062549,-63.09230403,122.40892856,76.48227524,53.82064263
173.10938435,38.34834963,13.93053500,6.49975118,-2.25956807,-0.40822070,-2.92148766

>  <Name>
ligand

>  <RI>
0

>  <Rbt.Current_Directory>
/home/itssahil/PROJECTS/Mol_Feturizer/New_Systems/rnas/3NPQ

>  <Rbt.Executable>
rbdock ($Id: //depot/dev/client3/rdock/2013.1/src/exe/rbdock.cxx#4 $)

>  <Rbt.Library>
libRbt.so (2013.1, Build901 2013/11/27)

>  <Rbt.Parameter_File>
/export/apps/rDock/src/rDock_2013.1_src/data/scripts/dock_solv.prm

>  <Rbt.Receptor>
prm/pocket_docking_2.prm

>  <SCORE>
-30.9421

>  <SCORE.INTER>
-30.3848

>  <SCORE.INTER.CONST>
1

>  <SCORE.INTER.POLAR>
0

>  <SCORE.INTER.ROT>
7

>  <SCORE.INTER.SOLV>
21.8067

>  <SCORE.INTER.VDW>
-35.7921

>  <SCORE.INTER.norm>
-1.16865

>  <SCORE.INTRA>
-0.56112

>  <SCORE.INTRA.DIHEDRAL>
-0.861448

>  <SCORE.INTRA.DIHEDRAL.0>
6.97628

>  <SCORE.INTRA.POLAR>
0

>  <SCORE.INTRA.POLAR.0>
0

>  <SCORE.INTRA.REPUL>
0

>  <SCORE.INTRA.REPUL.0>
0

>  <SCORE.INTRA.SOLV>
0.837159

>  <SCORE.INTRA.SOLV.lig_0>
-49.8243

>  <SCORE.INTRA.VDW>
-0.548975

>  <SCORE.INTRA.VDW.0>
-1.35881

>  <SCORE.INTRA.norm>
-0.0215815

>  <SCORE.RESTR>
0.00386409

>  <SCORE.RESTR.CAVITY>
0.00386409

>  <SCORE.RESTR.norm>
0.000148619

>  <SCORE.SYSTEM>
0

>  <SCORE.SYSTEM.CONST>
0

>  <SCORE.SYSTEM.DIHEDRAL>
0

>  <SCORE.SYSTEM.SOLV>
0

>  <SCORE.SYSTEM.norm>
0

>  <SCORE.heavy>
26

>  <SCORE.norm>
-1.19008

>  <RMSD>
1.531

$$$$
ligand
 OpenBabel11021811483D
libRbt.so/2013.1/901 2013/11/27
 26 28  0  0  0  0  0  0  0  0999 V2000
   33.8876   18.2453   10.7607 N   0  0  0  0  0  0  0  0  0  0  0  0
   34.6975   17.8312    9.6218 C   0  0  2  0  0  0  0  0  0  0  0  0
   34.0108   18.1772    8.3055 C   0  0  0  0  0  0  0  0  0  0  0  0
   32.9287   17.6748    8.0045 O   0  0  0  0  0  0  0  0  0  0  0  0
   34.9825   16.3359    9.6850 C   0  0  0  0  0  0  0  0  0  0  0  0
   36.1830   15.8954    8.8576 C   0  0  0  0  0  0  0  0  0  0  0  0
   35.9569   16.2035    7.0878 S   0  0  0  0  0  0  0  0  0  0  0  0
   36.7986   14.6466    6.7061 C   0  0  0  0  0  0  0  0  0  0  0  0
   38.2807   14.6765    7.0609 C   0  0  1  0  0  0  0  0  0  0  0  0
   38.7340   13.3675    7.3538 O   0  0  0  0  0  0  0  0  0  0  0  0
   39.1193   15.2124    5.9120 C   0  0  1  0  0  0  0  0  0  0  0  0
   39.7520   16.4100    6.2963 O   0  0  0  0  0  0  0  0  0  0  0  0
   40.1563   14.1465    5.6247 C   0  0  1  0  0  0  0  0  0  0  0  0
   41.4519   14.6819    5.7634 O   0  0  0  0  0  0  0  0  0  0  0  0
   39.9271   13.0572    6.6585 C   0  0  2  0  0  0  0  0  0  0  0  0
   34.5222   18.9682    7.5121 O   0  0  0  0  0  0  0  0  0  0  0  0
   41.9497    9.7483    3.1191 N   0  0  0  0  0  0  0  0  0  0  0  0
   42.4144   10.9972    3.4793 C   0  0  0  0  0  0  0  0  0  0  0  0
   41.7504   11.7359    4.4386 N   0  0  0  0  0  0  0  0  0  0  0  0
   40.6369   11.2419    5.0327 C   0  0  0  0  0  0  0  0  0  0  0  0
   40.1537    9.9882    4.6836 C   0  0  0  0  0  0  0  0  0  0  0  0
   40.8167    9.2380    3.7197 C   0  0  0  0  0  0  0  0  0  0  0  0
   40.3624    8.0363    3.3767 N   0  0  0  0  0  0  0  0  0  0  0  0
   39.0480    9.7485    5.4211 N   0  0  0  0  0  0  0  0  0  0  0  0
   38.8208   10.8137    6.2236 C   0  0  0  0  0  0  0  0  0  0  0  0
   39.7978   11.7478    5.9941 N   0  0  0  0  0  0  0  0  0  0  0  0
  2  1  1  1  0  0  0
  2  3  1  0  0  0  0
  2  5  1  0  0  0  0
  3  4  1  0  0  0  0
  3 16  1  0  0  0  0
  5  6  1  0  0  0  0
  6  7  1  0  0  0  0
  7  8  1  0  0  0  0
  9  8  1  6  0  0  0
  9 10  1  0  0  0  0
  9 11  1  0  0  0  0
 10 15  1  0  0  0  0
 11 12  1  1  0  0  0
 11 13  1  0  0  0  0
 13 14  1  1  0  0  0
 13 15  1  0  0  0  0
 15 26  1  6  0  0  0
 17 18  2  0  0  0  0
 17 22  1  0  0  0  0
 18 19  1  0  0  0  0
 19 20  2  0  0  0  0
 20 21  1  0  0  0  0
 20 26  1  0  0  0  0
 21 22  2  0  0  0  0
 21 24  1  0  0  0  0
 22 23  1  0  0  0  0
 24 25  2  0  0  0  0
 25 26  1  0  0  0  0
M  END
>  <CHROM.1>
-62.70861529,-159.64211681,-62.62225305,-142.11842866,-67.95029603,152.40541467
166.62153515,38.17580738,14.03115856,6.48953409,2.28307426,0.40091185,0.21451227

>  <Name>
ligand

>  <RI>
0

>  <Rbt.Current_Directory>
/home/itssahil/PROJECTS/Mol_Feturizer/New_Systems/rnas/3NPQ

>  <Rbt.Executable>
rbdock ($Id: //depot/dev/client3/rdock/2013.1/src/exe/rbdock.cxx#4 $)

>  <Rbt.Library>
libRbt.so (2013.1, Build901 2013/11/27)

>  <Rbt.Parameter_File>
/export/apps/rDock/src/rDock_2013.1_src/data/scripts/dock_solv.prm

>  <Rbt.Receptor>
prm/pocket_docking_3.prm

>  <SCORE>
-28.5292

>  <SCORE.INTER>
-28.2517

>  <SCORE.INTER.CONST>
1

>  <SCORE.INTER.POLAR>
0

>  <SCORE.INTER.ROT>
7

>  <SCORE.INTER.SOLV>
26.6573

>  <SCORE.INTER.VDW>
-35.9869

>  <SCORE.INTER.norm>
-1.0866

>  <SCORE.INTRA>
-0.297393

>  <SCORE.INTRA.DIHEDRAL>
1.28314

>  <SCORE.INTRA.DIHEDRAL.0>
6.97628

>  <SCORE.INTRA.POLAR>
0

>  <SCORE.INTRA.POLAR.0>
0

>  <SCORE.INTRA.REPUL>
0

>  <SCORE.INTRA.REPUL.0>
0

>  <SCORE.INTRA.SOLV>
-0.495261

>  <SCORE.INTRA.SOLV.lig_0>
-49.8243

>  <SCORE.INTRA.VDW>
-0.691334

>  <SCORE.INTRA.VDW.0>
-1.35881

>  <SCORE.INTRA.norm>
-0.0114382

>  <SCORE.RESTR>
0.0198771

>  <SCORE.RESTR.CAVITY>
0.0198771

>  <SCORE.RESTR.norm>
0.000764503

>  <SCORE.SYSTEM>
0

>  <SCORE.SYSTEM.CONST>
0

>  <SCORE.SYSTEM.DIHEDRAL>
0

>  <SCORE.SYSTEM.SOLV>
0

>  <SCORE.SYSTEM.norm>
0

>  <SCORE.heavy>
26

>  <SCORE.norm>
-1.09728

>  <RMSD>
1.547

$$$$
ligand
 OpenBabel11021811483D
libRbt.so/2013.1/901 2013/11/27
 26 28  0  0  0  0  0  0  0  0999 V2000
   35.5517   19.6457    8.5600 N   0  0  0  0  0  0  0  0  0  0  0  0
   34.6683   18.6306    7.9997 C   0  0  2  0  0  0  0  0  0  0  0  0
   33.5616   18.2639    8.9819 C   0  0  0  0  0  0  0  0  0  0  0  0
   32.5037   17.7732    8.5896 O   0  0  0  0  0  0  0  0  0  0  0  0
   35.4601   17.3867    7.6165 C   0  0  0  0  0  0  0  0  0  0  0  0
   36.2904   16.8029    8.7521 C   0  0  0  0  0  0  0  0  0  0  0  0
   36.2824   14.9923    8.7583 S   0  0  0  0  0  0  0  0  0  0  0  0
   37.0719   14.9802    7.1289 C   0  0  0  0  0  0  0  0  0  0  0  0
   38.5934   14.9427    7.2126 C   0  0  1  0  0  0  0  0  0  0  0  0
   39.0293   13.6260    7.4980 O   0  0  0  0  0  0  0  0  0  0  0  0
   39.2355   15.3710    5.9032 C   0  0  1  0  0  0  0  0  0  0  0  0
   39.9834   16.5480    6.0968 O   0  0  0  0  0  0  0  0  0  0  0  0
   40.1517   14.2341    5.5005 C   0  0  1  0  0  0  0  0  0  0  0  0
   41.4750   14.7004    5.3747 O   0  0  0  0  0  0  0  0  0  0  0  0
   40.0612   13.2132    6.6216 C   0  0  2  0  0  0  0  0  0  0  0  0
   33.7000   18.4495   10.1915 O   0  0  0  0  0  0  0  0  0  0  0  0
   41.5584    9.4039    3.3329 N   0  0  0  0  0  0  0  0  0  0  0  0
   42.1844   10.6091    3.5805 C   0  0  0  0  0  0  0  0  0  0  0  0
   41.6441   11.4997    4.4869 N   0  0  0  0  0  0  0  0  0  0  0  0
   40.4948   11.1989    5.1393 C   0  0  0  0  0  0  0  0  0  0  0  0
   39.8502    9.9923    4.9035 C   0  0  0  0  0  0  0  0  0  0  0  0
   40.3879    9.0900    3.9935 C   0  0  0  0  0  0  0  0  0  0  0  0
   39.7786    7.9316    3.7590 N   0  0  0  0  0  0  0  0  0  0  0  0
   38.7442    9.9535    5.6777 N   0  0  0  0  0  0  0  0  0  0  0  0
   38.6733   11.0994    6.3932 C   0  0  0  0  0  0  0  0  0  0  0  0
   39.7520   11.8817    6.0702 N   0  0  0  0  0  0  0  0  0  0  0  0
  2  1  1  1  0  0  0
  2  3  1  0  0  0  0
  2  5  1  0  0  0  0
  3  4  1  0  0  0  0
  3 16  1  0  0  0  0
  5  6  1  0  0  0  0
  6  7  1  0  0  0  0
  7  8  1  0  0  0  0
  9  8  1  6  0  0  0
  9 10  1  0  0  0  0
  9 11  1  0  0  0  0
 10 15  1  0  0  0  0
 11 12  1  1  0  0  0
 11 13  1  0  0  0  0
 13 14  1  1  0  0  0
 13 15  1  0  0  0  0
 15 26  1  6  0  0  0
 17 18  2  0  0  0  0
 17 22  1  0  0  0  0
 18 19  1  0  0  0  0
 19 20  2  0  0  0  0
 20 21  1  0  0  0  0
 20 26  1  0  0  0  0
 21 22  2  0  0  0  0
 21 24  1  0  0  0  0
 22 23  1  0  0  0  0
 24 25  2  0  0  0  0
 25 26  1  0  0  0  0
M  END
>  <CHROM.1>
156.97032975,54.75715633,141.17050167,62.15753732,91.22654237,78.51537582
176.65906160,38.17856309,14.09691000,6.63397744,-2.24608369,-0.41585666,-2.93991661

>  <Name>
ligand

>  <RI>
0

>  <Rbt.Current_Directory>
/home/itssahil/PROJECTS/Mol_Feturizer/New_Systems/rnas/3NPQ

>  <Rbt.Executable>
rbdock ($Id: //depot/dev/client3/rdock/2013.1/src/exe/rbdock.cxx#4 $)

>  <Rbt.Library>
libRbt.so (2013.1, Build901 2013/11/27)

>  <Rbt.Parameter_File>
/export/apps/rDock/src/rDock_2013.1_src/data/scripts/dock_solv.prm

>  <Rbt.Receptor>
prm/pocket_docking_2.prm

>  <SCORE>
-29.1057

>  <SCORE.INTER>
-30.566

>  <SCORE.INTER.CONST>
1

>  <SCORE.INTER.POLAR>
0

>  <SCORE.INTER.ROT>
7

>  <SCORE.INTER.SOLV>
24.166

>  <SCORE.INTER.VDW>
-36.6993

>  <SCORE.INTER.norm>
-1.17561

>  <SCORE.INTRA>
1.43789

>  <SCORE.INTRA.DIHEDRAL>
2.23087

>  <SCORE.INTRA.DIHEDRAL.0>
6.97628

>  <SCORE.INTRA.POLAR>
0

>  <SCORE.INTRA.POLAR.0>
0

>  <SCORE.INTRA.REPUL>
0

>  <SCORE.INTRA.REPUL.0>
0

>  <SCORE.INTRA.SOLV>
-0.126361

>  <SCORE.INTRA.SOLV.lig_0>
-49.8243

>  <SCORE.INTRA.VDW>
0.385638

>  <SCORE.INTRA.VDW.0>
-1.35881

>  <SCORE.INTRA.norm>
0.0553036

>  <SCORE.RESTR>
0.022389

>  <SCORE.RESTR.CAVITY>
0.022389

>  <SCORE.RESTR.norm>
0.000861116

>  <SCORE.SYSTEM>
0

>  <SCORE.SYSTEM.CONST>
0

>  <SCORE.SYSTEM.DIHEDRAL>
0

>  <SCORE.SYSTEM.SOLV>
0

>  <SCORE.SYSTEM.norm>
0

>  <SCORE.heavy>
26

>  <SCORE.norm>
-1.11945

>  <RMSD>
1.579

$$$$
ligand
 OpenBabel11021811483D
libRbt.so/2013.1/901 2013/11/27
 26 28  0  0  0  0  0  0  0  0999 V2000
   36.3865   19.5023    7.9242 N   0  0  0  0  0  0  0  0  0  0  0  0
   35.2470   18.7455    7.4210 C   0  0  2  0  0  0  0  0  0  0  0  0
   33.9893   19.0457    8.2285 C   0  0  0  0  0  0  0  0  0  0  0  0
   33.9850   19.9228    9.0914 O   0  0  0  0  0  0  0  0  0  0  0  0
   35.5431   17.2513    7.4516 C   0  0  0  0  0  0  0  0  0  0  0  0
   36.2611   16.7846    8.7111 C   0  0  0  0  0  0  0  0  0  0  0  0
   36.3646   14.9804    8.8231 S   0  0  0  0  0  0  0  0  0  0  0  0
   37.1069   14.9175    7.1728 C   0  0  0  0  0  0  0  0  0  0  0  0
   38.6303   14.8862    7.2137 C   0  0  1  0  0  0  0  0  0  0  0  0
   39.0793   13.5736    7.4973 O   0  0  0  0  0  0  0  0  0  0  0  0
   39.2334   15.3062    5.8832 C   0  0  1  0  0  0  0  0  0  0  0  0
   39.9819   16.4875    6.0461 O   0  0  0  0  0  0  0  0  0  0  0  0
   40.1423   14.1694    5.4640 C   0  0  1  0  0  0  0  0  0  0  0  0
   41.4597   14.6395    5.2970 O   0  0  0  0  0  0  0  0  0  0  0  0
   40.0876   13.1574    6.5954 C   0  0  2  0  0  0  0  0  0  0  0  0
   32.9472   18.4180    8.0362 O   0  0  0  0  0  0  0  0  0  0  0  0
   41.5449    9.2967    3.3491 N   0  0  0  0  0  0  0  0  0  0  0  0
   42.1786   10.5018    3.5766 C   0  0  0  0  0  0  0  0  0  0  0  0
   41.6485   11.4072    4.4744 N   0  0  0  0  0  0  0  0  0  0  0  0
   40.5016   11.1213    5.1377 C   0  0  0  0  0  0  0  0  0  0  0  0
   39.8494    9.9149    4.9219 C   0  0  0  0  0  0  0  0  0  0  0  0
   40.3769    8.9978    4.0209 C   0  0  0  0  0  0  0  0  0  0  0  0
   39.7602    7.8396    3.8056 N   0  0  0  0  0  0  0  0  0  0  0  0
   38.7480    9.8923    5.7032 N   0  0  0  0  0  0  0  0  0  0  0  0
   38.6874   11.0481    6.4037 C   0  0  0  0  0  0  0  0  0  0  0  0
   39.7681   11.8203    6.0637 N   0  0  0  0  0  0  0  0  0  0  0  0
  2  1  1  1  0  0  0
  2  3  1  0  0  0  0
  2  5  1  0  0  0  0
  3  4  1  0  0  0  0
  3 16  1  0  0  0  0
  5  6  1  0  0  0  0
  6  7  1  0  0  0  0
  7  8  1  0  0  0  0
  9  8  1  6  0  0  0
  9 10  1  0  0  0  0
  9 11  1  0  0  0  0
 10 15  1  0  0  0  0
 11 12  1  1  0  0  0
 11 13  1  0  0  0  0
 13 14  1  1  0  0  0
 13 15  1  0  0  0  0
 15 26  1  6  0  0  0
 17 18  2  0  0  0  0
 17 22  1  0  0  0  0
 18 19  1  0  0  0  0
 19 20  2  0  0  0  0
 20 21  1  0  0  0  0
 20 26  1  0  0  0  0
 21 22  2  0  0  0  0
 21 24  1  0  0  0  0
 22 23  1  0  0  0  0
 24 25  2  0  0  0  0
 25 26  1  0  0  0  0
M  END
>  <CHROM.1>
6.49790264,41.71060011,171.15230624,53.41555701,94.88348225,79.90198123,178.06500155
38.28790525,14.15750096,6.49093480,-2.19787329,-0.41934332,-2.99652074

>  <Name>
ligand

>  <RI>
0

>  <Rbt.Current_Directory>
/home/itssahil/PROJECTS/Mol_Feturizer/New_Systems/rnas/3NPQ

>  <Rbt.Executable>
rbdock ($Id: //depot/dev/client3/rdock/2013.1/src/exe/rbdock.cxx#4 $)

>  <Rbt.Library>
libRbt.so (2013.1, Build901 2013/11/27)

>  <Rbt.Parameter_File>
/export/apps/rDock/src/rDock_2013.1_src/data/scripts/dock_solv.prm

>  <Rbt.Receptor>
prm/pocket_docking_2.prm

>  <SCORE>
-26.6525

>  <SCORE.INTER>
-28.688

>  <SCORE.INTER.CONST>
1

>  <SCORE.INTER.POLAR>
0

>  <SCORE.INTER.ROT>
7

>  <SCORE.INTER.SOLV>
23.0426

>  <SCORE.INTER.VDW>
-35.0729

>  <SCORE.INTER.norm>
-1.10339

>  <SCORE.INTRA>
2.0277

>  <SCORE.INTRA.DIHEDRAL>
0.126339

>  <SCORE.INTRA.DIHEDRAL.0>
6.97628

>  <SCORE.INTRA.POLAR>
0

>  <SCORE.INTRA.POLAR.0>
0

>  <SCORE.INTRA.REPUL>
0

>  <SCORE.INTRA.REPUL.0>
0

>  <SCORE.INTRA.SOLV>
-0.0453066

>  <SCORE.INTRA.SOLV.lig_0>
-49.8243

>  <SCORE.INTRA.VDW>
1.98718

>  <SCORE.INTRA.VDW.0>
-1.35881

>  <SCORE.INTRA.norm>
0.0779885

>  <SCORE.RESTR>
0.00778661

>  <SCORE.RESTR.CAVITY>
0.00778661

>  <SCORE.RESTR.norm>
0.000299485

>  <SCORE.SYSTEM>
0

>  <SCORE.SYSTEM.CONST>
0

>  <SCORE.SYSTEM.DIHEDRAL>
0

>  <SCORE.SYSTEM.SOLV>
0

>  <SCORE.SYSTEM.norm>
0

>  <SCORE.heavy>
26

>  <SCORE.norm>
-1.0251

>  <RMSD>
1.582

$$$$
ligand
 OpenBabel11021811483D
libRbt.so/2013.1/901 2013/11/27
 26 28  0  0  0  0  0  0  0  0999 V2000
   34.4519   17.6437   10.7150 N   0  0  0  0  0  0  0  0  0  0  0  0
   34.7768   18.4175    9.5233 C   0  0  2  0  0  0  0  0  0  0  0  0
   33.5965   18.4622    8.5596 C   0  0  0  0  0  0  0  0  0  0  0  0
   32.8197   17.5126    8.4650 O   0  0  0  0  0  0  0  0  0  0  0  0
   35.9993   17.8347    8.8254 C   0  0  0  0  0  0  0  0  0  0  0  0
   36.4307   16.4745    9.3579 C   0  0  0  0  0  0  0  0  0  0  0  0
   35.5382   15.1076    8.5747 S   0  0  0  0  0  0  0  0  0  0  0  0
   36.5807   15.2660    7.1029 C   0  0  0  0  0  0  0  0  0  0  0  0
   38.0689   15.2578    7.4323 C   0  0  1  0  0  0  0  0  0  0  0  0
   38.4825   13.9455    7.7668 O   0  0  0  0  0  0  0  0  0  0  0  0
   38.9051   15.7214    6.2506 C   0  0  1  0  0  0  0  0  0  0  0  0
   39.5848   16.9098    6.5793 O   0  0  0  0  0  0  0  0  0  0  0  0
   39.9000   14.6103    5.9868 C   0  0  1  0  0  0  0  0  0  0  0  0
   41.2153   15.1053    6.0842 O   0  0  0  0  0  0  0  0  0  0  0  0
   39.6521   13.5686    7.0643 C   0  0  2  0  0  0  0  0  0  0  0  0
   33.3917   19.4499    7.8529 O   0  0  0  0  0  0  0  0  0  0  0  0
   41.4771   10.0786    3.5921 N   0  0  0  0  0  0  0  0  0  0  0  0
   41.9870   11.3254    3.8936 C   0  0  0  0  0  0  0  0  0  0  0  0
   41.3722   12.1167    4.8437 N   0  0  0  0  0  0  0  0  0  0  0  0
   40.2629   11.6768    5.4863 C   0  0  0  0  0  0  0  0  0  0  0  0
   39.7347   10.4261    5.1966 C   0  0  0  0  0  0  0  0  0  0  0  0
   40.3480    9.6232    4.2424 C   0  0  0  0  0  0  0  0  0  0  0  0
   39.8503    8.4239    3.9561 N   0  0  0  0  0  0  0  0  0  0  0  0
   38.6446   10.2452    5.9730 N   0  0  0  0  0  0  0  0  0  0  0  0
   38.4708   11.3444    6.7424 C   0  0  0  0  0  0  0  0  0  0  0  0
   39.4667   12.2408    6.4518 N   0  0  0  0  0  0  0  0  0  0  0  0
  2  1  1  1  0  0  0
  2  3  1  0  0  0  0
  2  5  1  0  0  0  0
  3  4  1  0  0  0  0
  3 16  1  0  0  0  0
  5  6  1  0  0  0  0
  6  7  1  0  0  0  0
  7  8  1  0  0  0  0
  9  8  1  6  0  0  0
  9 10  1  0  0  0  0
  9 11  1  0  0  0  0
 10 15  1  0  0  0  0
 11 12  1  1  0  0  0
 11 13  1  0  0  0  0
 13 14  1  1  0  0  0
 13 15  1  0  0  0  0
 15 26  1  6  0  0  0
 17 18  2  0  0  0  0
 17 22  1  0  0  0  0
 18 19  1  0  0  0  0
 19 20  2  0  0  0  0
 20 21  1  0  0  0  0
 20 26  1  0  0  0  0
 21 22  2  0  0  0  0
 21 24  1  0  0  0  0
 22 23  1  0  0  0  0
 24 25  2  0  0  0  0
 25 26  1  0  0  0  0
M  END
>  <CHROM.1>
-32.74246563,10.68638690,85.55645818,77.49897077,51.73357339,74.15985235
165.87457407,37.93219793,14.34029023,6.91929825,2.26875063,0.37953157,0.22831824

>  <Name>
ligand

>  <RI>
0

>  <Rbt.Current_Directory>
/home/itssahil/PROJECTS/Mol_Feturizer/New_Systems/rnas/3NPQ

>  <Rbt.Executable>
rbdock ($Id: //depot/dev/client3/rdock/2013.1/src/exe/rbdock.cxx#4 $)

>  <Rbt.Library>
libRbt.so (2013.1, Build901 2013/11/27)

>  <Rbt.Parameter_File>
/export/apps/rDock/src/rDock_2013.1_src/data/scripts/dock_solv.prm

>  <Rbt.Receptor>
prm/pocket_docking_2.prm

>  <SCORE>
-26.4918

>  <SCORE.INTER>
-30.9274

>  <SCORE.INTER.CONST>
1

>  <SCORE.INTER.POLAR>
0

>  <SCORE.INTER.ROT>
7

>  <SCORE.INTER.SOLV>
26.5705

>  <SCORE.INTER.VDW>
-37.7418

>  <SCORE.INTER.norm>
-1.18952

>  <SCORE.INTRA>
4.43501

>  <SCORE.INTRA.DIHEDRAL>
4.48623

>  <SCORE.INTRA.DIHEDRAL.0>
6.97628

>  <SCORE.INTRA.POLAR>
0

>  <SCORE.INTRA.POLAR.0>
0

>  <SCORE.INTRA.REPUL>
0

>  <SCORE.INTRA.REPUL.0>
0

>  <SCORE.INTRA.SOLV>
1.18619

>  <SCORE.INTRA.SOLV.lig_0>
-49.8243

>  <SCORE.INTRA.VDW>
1.5988

>  <SCORE.INTRA.VDW.0>
-1.35881

>  <SCORE.INTRA.norm>
0.170577

>  <SCORE.RESTR>
0.000603735

>  <SCORE.RESTR.CAVITY>
0.000603735

>  <SCORE.RESTR.norm>
2.32206e-05

>  <SCORE.SYSTEM>
0

>  <SCORE.SYSTEM.CONST>
0

>  <SCORE.SYSTEM.DIHEDRAL>
0

>  <SCORE.SYSTEM.SOLV>
0

>  <SCORE.SYSTEM.norm>
0

>  <SCORE.heavy>
26

>  <SCORE.norm>
-1.01892

>  <RMSD>
1.585

$$$$
ligand
 OpenBabel11021811483D
libRbt.so/2013.1/901 2013/11/27
 26 28  0  0  0  0  0  0  0  0999 V2000
   35.5315   20.3822    7.3374 N   0  0  0  0  0  0  0  0  0  0  0  0
   34.9672   19.0429    7.4492 C   0  0  2  0  0  0  0  0  0  0  0  0
   33.6850   19.0549    8.2736 C   0  0  0  0  0  0  0  0  0  0  0  0
   33.5896   19.7472    9.2863 O   0  0  0  0  0  0  0  0  0  0  0  0
   35.9787   18.0878    8.0703 C   0  0  0  0  0  0  0  0  0  0  0  0
   35.5118   16.6393    8.1301 C   0  0  0  0  0  0  0  0  0  0  0  0
   36.2851   15.7159    9.4820 S   0  0  0  0  0  0  0  0  0  0  0  0
   36.9303   14.5112    8.2943 C   0  0  0  0  0  0  0  0  0  0  0  0
   38.2873   14.9122    7.7277 C   0  0  1  0  0  0  0  0  0  0  0  0
   39.1560   13.7941    7.7167 O   0  0  0  0  0  0  0  0  0  0  0  0
   38.1681   15.4218    6.3006 C   0  0  1  0  0  0  0  0  0  0  0  0
   38.5608   16.7724    6.2380 O   0  0  0  0  0  0  0  0  0  0  0  0
   39.1102   14.5686    5.4768 C   0  0  1  0  0  0  0  0  0  0  0  0
   40.0655   15.3823    4.8368 O   0  0  0  0  0  0  0  0  0  0  0  0
   39.7933   13.6366    6.4628 C   0  0  2  0  0  0  0  0  0  0  0  0
   32.7137   18.3725    7.9456 O   0  0  0  0  0  0  0  0  0  0  0  0
   41.7729    9.8685    3.3888 N   0  0  0  0  0  0  0  0  0  0  0  0
   42.2210   11.1653    3.5411 C   0  0  0  0  0  0  0  0  0  0  0  0
   41.5722   12.0282    4.4021 N   0  0  0  0  0  0  0  0  0  0  0  0
   40.4901   11.6100    5.1029 C   0  0  0  0  0  0  0  0  0  0  0  0
   40.0241   10.3098    4.9629 C   0  0  0  0  0  0  0  0  0  0  0  0
   40.6719    9.4348    4.0992 C   0  0  0  0  0  0  0  0  0  0  0  0
   40.2338    8.1875    3.9564 N   0  0  0  0  0  0  0  0  0  0  0  0
   38.9488   10.1647    5.7670 N   0  0  0  0  0  0  0  0  0  0  0  0
   38.7240   11.3344    6.4086 C   0  0  0  0  0  0  0  0  0  0  0  0
   39.6718   12.2401    6.0071 N   0  0  0  0  0  0  0  0  0  0  0  0
  2  1  1  1  0  0  0
  2  3  1  0  0  0  0
  2  5  1  0  0  0  0
  3  4  1  0  0  0  0
  3 16  1  0  0  0  0
  5  6  1  0  0  0  0
  6  7  1  0  0  0  0
  7  8  1  0  0  0  0
  9  8  1  6  0  0  0
  9 10  1  0  0  0  0
  9 11  1  0  0  0  0
 10 15  1  0  0  0  0
 11 12  1  1  0  0  0
 11 13  1  0  0  0  0
 13 14  1  1  0  0  0
 13 15  1  0  0  0  0
 15 26  1  6  0  0  0
 17 18  2  0  0  0  0
 17 22  1  0  0  0  0
 18 19  1  0  0  0  0
 19 20  2  0  0  0  0
 20 21  1  0  0  0  0
 20 26  1  0  0  0  0
 21 22  2  0  0  0  0
 21 24  1  0  0  0  0
 22 23  1  0  0  0  0
 24 25  2  0  0  0  0
 25 26  1  0  0  0  0
M  END
>  <CHROM.1>
-40.41240905,-175.64141496,-152.98633914,-122.56616312,87.99897497,135.39479035
-157.51360780,38.01746751,14.50955108,6.60798317,-2.39788182,-0.70256734
2.97545540

>  <Name>
ligand

>  <RI>
0

>  <Rbt.Current_Directory>
/home/itssahil/PROJECTS/Mol_Feturizer/New_Systems/rnas/3NPQ

>  <Rbt.Executable>
rbdock ($Id: //depot/dev/client3/rdock/2013.1/src/exe/rbdock.cxx#4 $)

>  <Rbt.Library>
libRbt.so (2013.1, Build901 2013/11/27)

>  <Rbt.Parameter_File>
/export/apps/rDock/src/rDock_2013.1_src/data/scripts/dock_solv.prm

>  <Rbt.Receptor>
prm/pocket_docking_4.prm

>  <SCORE>
-28.1496

>  <SCORE.INTER>
-29.3757

>  <SCORE.INTER.CONST>
1

>  <SCORE.INTER.POLAR>
0

>  <SCORE.INTER.ROT>
7

>  <SCORE.INTER.SOLV>
22.3523

>  <SCORE.INTER.VDW>
-35.3012

>  <SCORE.INTER.norm>
-1.12983

>  <SCORE.INTRA>
1.22608

>  <SCORE.INTRA.DIHEDRAL>
6.02197

>  <SCORE.INTRA.DIHEDRAL.0>
6.97628

>  <SCORE.INTRA.POLAR>
0

>  <SCORE.INTRA.POLAR.0>
0

>  <SCORE.INTRA.REPUL>
0

>  <SCORE.INTRA.REPUL.0>
0

>  <SCORE.INTRA.SOLV>
-0.602006

>  <SCORE.INTRA.SOLV.lig_0>
-49.8243

>  <SCORE.INTRA.VDW>
-1.4839

>  <SCORE.INTRA.VDW.0>
-1.35881

>  <SCORE.INTRA.norm>
0.0471568

>  <SCORE.RESTR>
0

>  <SCORE.RESTR.CAVITY>
0

>  <SCORE.RESTR.norm>
0

>  <SCORE.SYSTEM>
0

>  <SCORE.SYSTEM.CONST>
0

>  <SCORE.SYSTEM.DIHEDRAL>
0

>  <SCORE.SYSTEM.SOLV>
0

>  <SCORE.SYSTEM.norm>
0

>  <SCORE.heavy>
26

>  <SCORE.norm>
-1.08268

>  <RMSD>
1.585

$$$$
ligand
 OpenBabel11021811483D
libRbt.so/2013.1/901 2013/11/27
 26 28  0  0  0  0  0  0  0  0999 V2000
   34.0540   19.7228    8.2848 N   0  0  0  0  0  0  0  0  0  0  0  0
   33.6474   18.6074    9.1305 C   0  0  2  0  0  0  0  0  0  0  0  0
   34.7336   18.2622   10.1429 C   0  0  0  0  0  0  0  0  0  0  0  0
   35.8667   18.7307   10.0406 O   0  0  0  0  0  0  0  0  0  0  0  0
   33.3176   17.3863    8.2812 C   0  0  0  0  0  0  0  0  0  0  0  0
   34.5240   16.7647    7.5898 C   0  0  0  0  0  0  0  0  0  0  0  0
   35.2874   15.4506    8.5739 S   0  0  0  0  0  0  0  0  0  0  0  0
   36.2725   14.9456    7.1411 C   0  0  0  0  0  0  0  0  0  0  0  0
   37.7695   15.1290    7.3621 C   0  0  1  0  0  0  0  0  0  0  0  0
   38.3624   13.8902    7.7069 O   0  0  0  0  0  0  0  0  0  0  0  0
   38.4603   15.6418    6.1091 C   0  0  1  0  0  0  0  0  0  0  0  0
   39.0102   16.9153    6.3503 O   0  0  0  0  0  0  0  0  0  0  0  0
   39.5636   14.6484    5.8091 C   0  0  1  0  0  0  0  0  0  0  0  0
   40.8119   15.3010    5.7955 O   0  0  0  0  0  0  0  0  0  0  0  0
   39.5188   13.6285    6.9340 C   0  0  2  0  0  0  0  0  0  0  0  0
   34.5030   17.5065   11.0876 O   0  0  0  0  0  0  0  0  0  0  0  0
   41.6865   10.1610    3.6409 N   0  0  0  0  0  0  0  0  0  0  0  0
   42.0842   11.4586    3.8930 C   0  0  0  0  0  0  0  0  0  0  0  0
   41.3899   12.2346    4.7999 N   0  0  0  0  0  0  0  0  0  0  0  0
   40.3121   11.7296    5.4483 C   0  0  0  0  0  0  0  0  0  0  0  0
   39.8964   10.4271    5.2078 C   0  0  0  0  0  0  0  0  0  0  0  0
   40.5902    9.6392    4.2973 C   0  0  0  0  0  0  0  0  0  0  0  0
   40.2004    8.3906    4.0584 N   0  0  0  0  0  0  0  0  0  0  0  0
   38.8136   10.1873    5.9786 N   0  0  0  0  0  0  0  0  0  0  0  0
   38.5354   11.2997    6.6966 C   0  0  0  0  0  0  0  0  0  0  0  0
   39.4561   12.2646    6.3785 N   0  0  0  0  0  0  0  0  0  0  0  0
  2  1  1  6  0  0  0
  2  3  1  0  0  0  0
  2  5  1  0  0  0  0
  3  4  1  0  0  0  0
  3 16  1  0  0  0  0
  5  6  1  0  0  0  0
  6  7  1  0  0  0  0
  7  8  1  0  0  0  0
  9  8  1  6  0  0  0
  9 10  1  0  0  0  0
  9 11  1  0  0  0  0
 10 15  1  0  0  0  0
 11 12  1  1  0  0  0
 11 13  1  0  0  0  0
 13 14  1  1  0  0  0
 13 15  1  0  0  0  0
 15 26  1  6  0  0  0
 17 18  2  0  0  0  0
 17 22  1  0  0  0  0
 18 19  1  0  0  0  0
 19 20  2  0  0  0  0
 20 21  1  0  0  0  0
 20 26  1  0  0  0  0
 21 22  2  0  0  0  0
 21 24  1  0  0  0  0
 22 23  1  0  0  0  0
 24 25  2  0  0  0  0
 25 26  1  0  0  0  0
M  END
>  <CHROM.1>
-12.24316179,68.36151021,92.09410056,167.98673202,116.03584821,99.78432738
171.13610441,37.84563470,14.41097491,6.94390238,-2.29852519,-0.49219034,-2.98615531

>  <Name>
ligand

>  <RI>
0

>  <Rbt.Current_Directory>
/home/itssahil/PROJECTS/Mol_Feturizer/New_Systems/rnas/3NPQ

>  <Rbt.Executable>
rbdock ($Id: //depot/dev/client3/rdock/2013.1/src/exe/rbdock.cxx#4 $)

>  <Rbt.Library>
libRbt.so (2013.1, Build901 2013/11/27)

>  <Rbt.Parameter_File>
/export/apps/rDock/src/rDock_2013.1_src/data/scripts/dock_solv.prm

>  <Rbt.Receptor>
prm/pocket_docking_2.prm

>  <SCORE>
-28.8965

>  <SCORE.INTER>
-30.549

>  <SCORE.INTER.CONST>
1

>  <SCORE.INTER.POLAR>
0

>  <SCORE.INTER.ROT>
7

>  <SCORE.INTER.SOLV>
25.3195

>  <SCORE.INTER.VDW>
-37.0725

>  <SCORE.INTER.norm>
-1.17496

>  <SCORE.INTRA>
1.64273

>  <SCORE.INTRA.DIHEDRAL>
5.55506

>  <SCORE.INTRA.DIHEDRAL.0>
6.97628

>  <SCORE.INTRA.POLAR>
0

>  <SCORE.INTRA.POLAR.0>
0

>  <SCORE.INTRA.REPUL>
0

>  <SCORE.INTRA.REPUL.0>
0

>  <SCORE.INTRA.SOLV>
-0.0388235

>  <SCORE.INTRA.SOLV.lig_0>
-49.8243

>  <SCORE.INTRA.VDW>
-1.11539

>  <SCORE.INTRA.VDW.0>
-1.35881

>  <SCORE.INTRA.norm>
0.0631819

>  <SCORE.RESTR>
0.00977615

>  <SCORE.RESTR.CAVITY>
0.00977615

>  <SCORE.RESTR.norm>
0.000376006

>  <SCORE.SYSTEM>
0

>  <SCORE.SYSTEM.CONST>
0

>  <SCORE.SYSTEM.DIHEDRAL>
0

>  <SCORE.SYSTEM.SOLV>
0

>  <SCORE.SYSTEM.norm>
0

>  <SCORE.heavy>
26

>  <SCORE.norm>
-1.1114

>  <RMSD>
1.586

$$$$
ligand
 OpenBabel11021811483D
libRbt.so/2013.1/901 2013/11/27
 26 28  0  0  0  0  0  0  0  0999 V2000
   36.9365   19.3240    8.8927 N   0  0  0  0  0  0  0  0  0  0  0  0
   35.8827   18.4803    8.3430 C   0  0  2  0  0  0  0  0  0  0  0  0
   34.8663   19.3087    7.5654 C   0  0  0  0  0  0  0  0  0  0  0  0
   35.0880   19.6587    6.4069 O   0  0  0  0  0  0  0  0  0  0  0  0
   35.1849   17.7059    9.4542 C   0  0  0  0  0  0  0  0  0  0  0  0
   34.5677   16.3889    9.0023 C   0  0  0  0  0  0  0  0  0  0  0  0
   35.6780   14.9804    9.2512 S   0  0  0  0  0  0  0  0  0  0  0  0
   36.3248   15.1898    7.5731 C   0  0  0  0  0  0  0  0  0  0  0  0
   37.8315   15.4193    7.5476 C   0  0  1  0  0  0  0  0  0  0  0  0
   38.5091   14.2140    7.8525 O   0  0  0  0  0  0  0  0  0  0  0  0
   38.3026   15.8837    6.1791 C   0  0  1  0  0  0  0  0  0  0  0  0
   38.8434   17.1804    6.2712 O   0  0  0  0  0  0  0  0  0  0  0  0
   39.3762   14.9025    5.7564 C   0  0  1  0  0  0  0  0  0  0  0  0
   40.5862   15.5826    5.5166 O   0  0  0  0  0  0  0  0  0  0  0  0
   39.5388   13.9404    6.9207 C   0  0  2  0  0  0  0  0  0  0  0  0
   33.7986   19.6469    8.0778 O   0  0  0  0  0  0  0  0  0  0  0  0
   41.5010   10.2652    3.7254 N   0  0  0  0  0  0  0  0  0  0  0  0
   41.9256   11.5690    3.8848 C   0  0  0  0  0  0  0  0  0  0  0  0
   41.2860   12.4039    4.7796 N   0  0  0  0  0  0  0  0  0  0  0  0
   40.2358   11.9511    5.5069 C   0  0  0  0  0  0  0  0  0  0  0  0
   39.7936   10.6433    5.3603 C   0  0  0  0  0  0  0  0  0  0  0  0
   40.4325    9.7964    4.4627 C   0  0  0  0  0  0  0  0  0  0  0  0
   40.0170    8.5421    4.3133 N   0  0  0  0  0  0  0  0  0  0  0  0
   38.7476   10.4621    6.1952 N   0  0  0  0  0  0  0  0  0  0  0  0
   38.5181   11.6164    6.8624 C   0  0  0  0  0  0  0  0  0  0  0  0
   39.4330   12.5489    6.4463 N   0  0  0  0  0  0  0  0  0  0  0  0
  2  1  1  1  0  0  0
  2  3  1  0  0  0  0
  2  5  1  0  0  0  0
  3  4  1  0  0  0  0
  3 16  1  0  0  0  0
  5  6  1  0  0  0  0
  6  7  1  0  0  0  0
  7  8  1  0  0  0  0
  9  8  1  6  0  0  0
  9 10  1  0  0  0  0
  9 11  1  0  0  0  0
 10 15  1  0  0  0  0
 11 12  1  1  0  0  0
 11 13  1  0  0  0  0
 13 14  1  1  0  0  0
 13 15  1  0  0  0  0
 15 26  1  6  0  0  0
 17 18  2  0  0  0  0
 17 22  1  0  0  0  0
 18 19  1  0  0  0  0
 19 20  2  0  0  0  0
 20 21  1  0  0  0  0
 20 26  1  0  0  0  0
 21 22  2  0  0  0  0
 21 24  1  0  0  0  0
 22 23  1  0  0  0  0
 24 25  2  0  0  0  0
 25 26  1  0  0  0  0
M  END
>  <CHROM.1>
80.99552710,-153.08588330,93.95210263,-91.83420089,121.79200732,72.63472444
177.74838187,38.02151158,14.66747450,6.78134170,-2.32113836,-0.66811200,3.04269824

>  <Name>
ligand

>  <RI>
0

>  <Rbt.Current_Directory>
/home/itssahil/PROJECTS/Mol_Feturizer/New_Systems/rnas/3NPQ

>  <Rbt.Executable>
rbdock ($Id: //depot/dev/client3/rdock/2013.1/src/exe/rbdock.cxx#4 $)

>  <Rbt.Library>
libRbt.so (2013.1, Build901 2013/11/27)

>  <Rbt.Parameter_File>
/export/apps/rDock/src/rDock_2013.1_src/data/scripts/dock_solv.prm

>  <Rbt.Receptor>
prm/pocket_docking_4.prm

>  <SCORE>
-28.6861

>  <SCORE.INTER>
-30.4929

>  <SCORE.INTER.CONST>
1

>  <SCORE.INTER.POLAR>
0

>  <SCORE.INTER.ROT>
7

>  <SCORE.INTER.SOLV>
23.5036

>  <SCORE.INTER.VDW>
-36.4298

>  <SCORE.INTER.norm>
-1.1728

>  <SCORE.INTRA>
1.80676

>  <SCORE.INTRA.DIHEDRAL>
5.70334

>  <SCORE.INTRA.DIHEDRAL.0>
6.97628

>  <SCORE.INTRA.POLAR>
0

>  <SCORE.INTRA.POLAR.0>
0

>  <SCORE.INTRA.REPUL>
0

>  <SCORE.INTRA.REPUL.0>
0

>  <SCORE.INTRA.SOLV>
0.291442

>  <SCORE.INTRA.SOLV.lig_0>
-49.8243

>  <SCORE.INTRA.VDW>
-1.19063

>  <SCORE.INTRA.VDW.0>
-1.35881

>  <SCORE.INTRA.norm>
0.0694908

>  <SCORE.RESTR>
0

>  <SCORE.RESTR.CAVITY>
0

>  <SCORE.RESTR.norm>
0

>  <SCORE.SYSTEM>
0

>  <SCORE.SYSTEM.CONST>
0

>  <SCORE.SYSTEM.DIHEDRAL>
0

>  <SCORE.SYSTEM.SOLV>
0

>  <SCORE.SYSTEM.norm>
0

>  <SCORE.heavy>
26

>  <SCORE.norm>
-1.10331

>  <RMSD>
1.613

$$$$
ligand
 OpenBabel11021811483D
libRbt.so/2013.1/901 2013/11/27
 26 28  0  0  0  0  0  0  0  0999 V2000
   34.5965   17.9018   10.5904 N   0  0  0  0  0  0  0  0  0  0  0  0
   34.6078   17.6561    9.1537 C   0  0  2  0  0  0  0  0  0  0  0  0
   33.4374   18.3524    8.4688 C   0  0  0  0  0  0  0  0  0  0  0  0
   32.3609   17.7770    8.3137 O   0  0  0  0  0  0  0  0  0  0  0  0
   34.5657   16.1602    8.8677 C   0  0  0  0  0  0  0  0  0  0  0  0
   34.6525   15.8065    7.3888 C   0  0  0  0  0  0  0  0  0  0  0  0
   36.2392   16.2771    6.6544 S   0  0  0  0  0  0  0  0  0  0  0  0
   36.8932   14.6247    7.0008 C   0  0  0  0  0  0  0  0  0  0  0  0
   38.3956   14.6285    7.2580 C   0  0  1  0  0  0  0  0  0  0  0  0
   38.8486   13.3081    7.4953 O   0  0  0  0  0  0  0  0  0  0  0  0
   39.1648   15.1765    6.0670 C   0  0  1  0  0  0  0  0  0  0  0  0
   39.8381   16.3580    6.4317 O   0  0  0  0  0  0  0  0  0  0  0  0
   40.1655   14.1034    5.6917 C   0  0  1  0  0  0  0  0  0  0  0  0
   41.4748   14.6192    5.7552 O   0  0  0  0  0  0  0  0  0  0  0  0
   39.9891   12.9966    6.7172 C   0  0  2  0  0  0  0  0  0  0  0  0
   33.5410   19.5076    8.0547 O   0  0  0  0  0  0  0  0  0  0  0  0
   41.8886    9.6072    3.1857 N   0  0  0  0  0  0  0  0  0  0  0  0
   42.4170   10.8241    3.5670 C   0  0  0  0  0  0  0  0  0  0  0  0
   41.7775   11.5915    4.5204 N   0  0  0  0  0  0  0  0  0  0  0  0
   40.6258   11.1574    5.0880 C   0  0  0  0  0  0  0  0  0  0  0  0
   40.0785    9.9367    4.7173 C   0  0  0  0  0  0  0  0  0  0  0  0
   40.7163    9.1579    3.7593 C   0  0  0  0  0  0  0  0  0  0  0  0
   40.2007    7.9873    3.3958 N   0  0  0  0  0  0  0  0  0  0  0  0
   38.9463    9.7548    5.4309 N   0  0  0  0  0  0  0  0  0  0  0  0
   38.7646   10.8244    6.2391 C   0  0  0  0  0  0  0  0  0  0  0  0
   39.7981   11.7026    6.0377 N   0  0  0  0  0  0  0  0  0  0  0  0
  2  1  1  1  0  0  0
  2  3  1  0  0  0  0
  2  5  1  0  0  0  0
  3  4  1  0  0  0  0
  3 16  1  0  0  0  0
  5  6  1  0  0  0  0
  6  7  1  0  0  0  0
  7  8  1  0  0  0  0
  9  8  1  6  0  0  0
  9 10  1  0  0  0  0
  9 11  1  0  0  0  0
 10 15  1  0  0  0  0
 11 12  1  1  0  0  0
 11 13  1  0  0  0  0
 13 14  1  1  0  0  0
 13 15  1  0  0  0  0
 15 26  1  6  0  0  0
 17 18  2  0  0  0  0
 17 22  1  0  0  0  0
 18 19  1  0  0  0  0
 19 20  2  0  0  0  0
 20 21  1  0  0  0  0
 20 26  1  0  0  0  0
 21 22  2  0  0  0  0
 21 24  1  0  0  0  0
 22 23  1  0  0  0  0
 24 25  2  0  0  0  0
 25 26  1  0  0  0  0
M  END
>  <CHROM.1>
-90.78605481,-176.77902533,64.71746619,92.86120318,-149.55558469,-178.84227947
172.15762524,38.06843360,14.00084412,6.44072506,-2.27420614,-0.27069029,-2.86250822

>  <Name>
ligand

>  <RI>
0

>  <Rbt.Current_Directory>
/home/itssahil/PROJECTS/Mol_Feturizer/New_Systems/rnas/3NPQ

>  <Rbt.Executable>
rbdock ($Id: //depot/dev/client3/rdock/2013.1/src/exe/rbdock.cxx#4 $)

>  <Rbt.Library>
libRbt.so (2013.1, Build901 2013/11/27)

>  <Rbt.Parameter_File>
/export/apps/rDock/src/rDock_2013.1_src/data/scripts/dock_solv.prm

>  <Rbt.Receptor>
prm/pocket_docking_6.prm

>  <SCORE>
-30.4978

>  <SCORE.INTER>
-29.1323

>  <SCORE.INTER.CONST>
1

>  <SCORE.INTER.POLAR>
0

>  <SCORE.INTER.ROT>
7

>  <SCORE.INTER.SOLV>
26.2511

>  <SCORE.INTER.VDW>
-36.4385

>  <SCORE.INTER.norm>
-1.12047

>  <SCORE.INTRA>
-1.36551

>  <SCORE.INTRA.DIHEDRAL>
-1.57853

>  <SCORE.INTRA.DIHEDRAL.0>
6.97628

>  <SCORE.INTRA.POLAR>
0

>  <SCORE.INTRA.POLAR.0>
0

>  <SCORE.INTRA.REPUL>
0

>  <SCORE.INTRA.REPUL.0>
0

>  <SCORE.INTRA.SOLV>
-0.625975

>  <SCORE.INTRA.SOLV.lig_0>
-49.8243

>  <SCORE.INTRA.VDW>
-0.263252

>  <SCORE.INTRA.VDW.0>
-1.35881

>  <SCORE.INTRA.norm>
-0.0525195

>  <SCORE.RESTR>
0

>  <SCORE.RESTR.CAVITY>
0

>  <SCORE.RESTR.norm>
0

>  <SCORE.SYSTEM>
0

>  <SCORE.SYSTEM.CONST>
0

>  <SCORE.SYSTEM.DIHEDRAL>
0

>  <SCORE.SYSTEM.SOLV>
0

>  <SCORE.SYSTEM.norm>
0

>  <SCORE.heavy>
26

>  <SCORE.norm>
-1.17299

>  <RMSD>
1.624

$$$$
ligand
 OpenBabel11021811483D
libRbt.so/2013.1/901 2013/11/27
 26 28  0  0  0  0  0  0  0  0999 V2000
   35.1071   14.6716    9.9171 N   0  0  0  0  0  0  0  0  0  0  0  0
   35.7093   15.9019    9.4187 C   0  0  2  0  0  0  0  0  0  0  0  0
   34.7818   17.0926    9.6331 C   0  0  0  0  0  0  0  0  0  0  0  0
   35.0398   17.9530   10.4739 O   0  0  0  0  0  0  0  0  0  0  0  0
   36.0532   15.7671    7.9406 C   0  0  0  0  0  0  0  0  0  0  0  0
   37.0084   16.8349    7.4239 C   0  0  0  0  0  0  0  0  0  0  0  0
   38.5331   16.9314    8.3956 S   0  0  0  0  0  0  0  0  0  0  0  0
   38.9567   15.2409    7.9046 C   0  0  0  0  0  0  0  0  0  0  0  0
   40.2188   15.1744    7.0525 C   0  0  1  0  0  0  0  0  0  0  0  0
   40.7139   13.8481    7.0249 O   0  0  0  0  0  0  0  0  0  0  0  0
   39.9475   15.5988    5.6184 C   0  0  1  0  0  0  0  0  0  0  0  0
   40.6824   16.7604    5.3135 O   0  0  0  0  0  0  0  0  0  0  0  0
   40.4130   14.4475    4.7513 C   0  0  1  0  0  0  0  0  0  0  0  0
   41.4001   14.8897    3.8488 O   0  0  0  0  0  0  0  0  0  0  0  0
   40.9990   13.4215    5.7059 C   0  0  2  0  0  0  0  0  0  0  0  0
   33.7524   17.2222    8.9695 O   0  0  0  0  0  0  0  0  0  0  0  0
   41.4406    8.8222    3.2121 N   0  0  0  0  0  0  0  0  0  0  0  0
   42.3027    9.8994    3.1694 C   0  0  0  0  0  0  0  0  0  0  0  0
   42.0262   11.0402    3.8967 N   0  0  0  0  0  0  0  0  0  0  0  0
   40.9061   11.1122    4.6565 C   0  0  0  0  0  0  0  0  0  0  0  0
   40.0266   10.0396    4.7119 C   0  0  0  0  0  0  0  0  0  0  0  0
   40.2980    8.8875    3.9837 C   0  0  0  0  0  0  0  0  0  0  0  0
   39.4623    7.8543    4.0283 N   0  0  0  0  0  0  0  0  0  0  0  0
   39.0095   10.3779    5.5335 N   0  0  0  0  0  0  0  0  0  0  0  0
   39.2224   11.6311    5.9966 C   0  0  0  0  0  0  0  0  0  0  0  0
   40.3947   12.0994    5.4616 N   0  0  0  0  0  0  0  0  0  0  0  0
  2  1  1  6  0  0  0
  2  3  1  0  0  0  0
  2  5  1  0  0  0  0
  3  4  1  0  0  0  0
  3 16  1  0  0  0  0
  5  6  1  0  0  0  0
  6  7  1  0  0  0  0
  7  8  1  0  0  0  0
  9  8  1  1  0  0  0
  9 10  1  0  0  0  0
  9 11  1  0  0  0  0
 10 15  1  0  0  0  0
 11 12  1  6  0  0  0
 11 13  1  0  0  0  0
 13 14  1  6  0  0  0
 13 15  1  0  0  0  0
 15 26  1  6  0  0  0
 17 18  2  0  0  0  0
 17 22  1  0  0  0  0
 18 19  1  0  0  0  0
 19 20  2  0  0  0  0
 20 21  1  0  0  0  0
 20 26  1  0  0  0  0
 21 22  2  0  0  0  0
 21 24  1  0  0  0  0
 22 23  1  0  0  0  0
 24 25  2  0  0  0  0
 25 26  1  0  0  0  0
M  END
>  <CHROM.1>
108.81324111,-164.48782034,54.29238366,63.19124191,115.30173666,163.15028355
-147.01788669,38.94945906,13.87649229,6.45928919,2.22492705,0.55098527,0.26511245

>  <Name>
ligand

>  <RI>
0

>  <Rbt.Current_Directory>
/home/itssahil/PROJECTS/Mol_Feturizer/New_Systems/rnas/3NPQ

>  <Rbt.Executable>
rbdock ($Id: //depot/dev/client3/rdock/2013.1/src/exe/rbdock.cxx#4 $)

>  <Rbt.Library>
libRbt.so (2013.1, Build901 2013/11/27)

>  <Rbt.Parameter_File>
/export/apps/rDock/src/rDock_2013.1_src/data/scripts/dock_solv.prm

>  <Rbt.Receptor>
prm/pocket_docking_3.prm

>  <SCORE>
-21.4973

>  <SCORE.INTER>
-21.2458

>  <SCORE.INTER.CONST>
1

>  <SCORE.INTER.POLAR>
0

>  <SCORE.INTER.ROT>
7

>  <SCORE.INTER.SOLV>
29.3895

>  <SCORE.INTER.VDW>
-32.227

>  <SCORE.INTER.norm>
-0.817147

>  <SCORE.INTRA>
-0.251454

>  <SCORE.INTRA.DIHEDRAL>
0.0454761

>  <SCORE.INTRA.DIHEDRAL.0>
6.97628

>  <SCORE.INTRA.POLAR>
0

>  <SCORE.INTRA.POLAR.0>
0

>  <SCORE.INTRA.REPUL>
0

>  <SCORE.INTRA.REPUL.0>
0

>  <SCORE.INTRA.SOLV>
-0.296756

>  <SCORE.INTRA.SOLV.lig_0>
-49.8243

>  <SCORE.INTRA.VDW>
-0.125815

>  <SCORE.INTRA.VDW.0>
-1.35881

>  <SCORE.INTRA.norm>
-0.00967132

>  <SCORE.RESTR>
0

>  <SCORE.RESTR.CAVITY>
0

>  <SCORE.RESTR.norm>
0

>  <SCORE.SYSTEM>
0

>  <SCORE.SYSTEM.CONST>
0

>  <SCORE.SYSTEM.DIHEDRAL>
0

>  <SCORE.SYSTEM.SOLV>
0

>  <SCORE.SYSTEM.norm>
0

>  <SCORE.heavy>
26

>  <SCORE.norm>
-0.826819

>  <RMSD>
1.625

$$$$
ligand
 OpenBabel11021811483D
libRbt.so/2013.1/901 2013/11/27
 26 28  0  0  0  0  0  0  0  0999 V2000
   36.5123   19.6742    7.7239 N   0  0  0  0  0  0  0  0  0  0  0  0
   35.4381   18.6919    7.8006 C   0  0  2  0  0  0  0  0  0  0  0  0
   34.0889   19.3698    8.0112 C   0  0  0  0  0  0  0  0  0  0  0  0
   33.0604   18.7069    8.1404 O   0  0  0  0  0  0  0  0  0  0  0  0
   35.7038   17.6970    8.9234 C   0  0  0  0  0  0  0  0  0  0  0  0
   34.8247   16.4542    8.8748 C   0  0  0  0  0  0  0  0  0  0  0  0
   35.7421   14.9398    9.2534 S   0  0  0  0  0  0  0  0  0  0  0  0
   36.4345   14.9372    7.5804 C   0  0  0  0  0  0  0  0  0  0  0  0
   37.9478   15.1192    7.5697 C   0  0  1  0  0  0  0  0  0  0  0  0
   38.5853   13.8813    7.8272 O   0  0  0  0  0  0  0  0  0  0  0  0
   38.4402   15.6240    6.2232 C   0  0  1  0  0  0  0  0  0  0  0  0
   39.0215   16.8978    6.3704 O   0  0  0  0  0  0  0  0  0  0  0  0
   39.4839   14.6270    5.7642 C   0  0  1  0  0  0  0  0  0  0  0  0
   40.7161   15.2773    5.5568 O   0  0  0  0  0  0  0  0  0  0  0  0
   39.6101   13.6133    6.8885 C   0  0  2  0  0  0  0  0  0  0  0  0
   33.9961   20.5970    8.0576 O   0  0  0  0  0  0  0  0  0  0  0  0
   41.5090    9.9888    3.5985 N   0  0  0  0  0  0  0  0  0  0  0  0
   41.9800   11.2673    3.8196 C   0  0  0  0  0  0  0  0  0  0  0  0
   41.3506   12.0920    4.7310 N   0  0  0  0  0  0  0  0  0  0  0  0
   40.2651   11.6538    5.4142 C   0  0  0  0  0  0  0  0  0  0  0  0
   39.7762   10.3714    5.2053 C   0  0  0  0  0  0  0  0  0  0  0  0
   40.4044    9.5349    4.2905 C   0  0  0  0  0  0  0  0  0  0  0  0
   39.9442    8.3050    4.0815 N   0  0  0  0  0  0  0  0  0  0  0  0
   38.7026   10.2001    6.0067 N   0  0  0  0  0  0  0  0  0  0  0  0
   38.5013   11.3360    6.7134 C   0  0  0  0  0  0  0  0  0  0  0  0
   39.4624   12.2465    6.3568 N   0  0  0  0  0  0  0  0  0  0  0  0
  2  1  1  1  0  0  0
  2  3  1  0  0  0  0
  2  5  1  0  0  0  0
  3  4  1  0  0  0  0
  3 16  1  0  0  0  0
  5  6  1  0  0  0  0
  6  7  1  0  0  0  0
  7  8  1  0  0  0  0
  9  8  1  6  0  0  0
  9 10  1  0  0  0  0
  9 11  1  0  0  0  0
 10 15  1  0  0  0  0
 11 12  1  1  0  0  0
 11 13  1  0  0  0  0
 13 14  1  1  0  0  0
 13 15  1  0  0  0  0
 15 26  1  6  0  0  0
 17 18  2  0  0  0  0
 17 22  1  0  0  0  0
 18 19  1  0  0  0  0
 19 20  2  0  0  0  0
 20 21  1  0  0  0  0
 20 26  1  0  0  0  0
 21 22  2  0  0  0  0
 21 24  1  0  0  0  0
 22 23  1  0  0  0  0
 24 25  2  0  0  0  0
 25 26  1  0  0  0  0
M  END
>  <CHROM.1>
-177.89133011,-166.26404929,138.56826379,-78.07988906,115.76748299,81.62019713
179.02419130,37.95743065,14.50232905,6.74250569,-2.28331146,-0.57992839,3.11921553

>  <Name>
ligand

>  <RI>
0

>  <Rbt.Current_Directory>
/home/itssahil/PROJECTS/Mol_Feturizer/New_Systems/rnas/3NPQ

>  <Rbt.Executable>
rbdock ($Id: //depot/dev/client3/rdock/2013.1/src/exe/rbdock.cxx#4 $)

>  <Rbt.Library>
libRbt.so (2013.1, Build901 2013/11/27)

>  <Rbt.Parameter_File>
/export/apps/rDock/src/rDock_2013.1_src/data/scripts/dock_solv.prm

>  <Rbt.Receptor>
prm/pocket_docking_4.prm

>  <SCORE>
-31.1154

>  <SCORE.INTER>
-32.7457

>  <SCORE.INTER.CONST>
1

>  <SCORE.INTER.POLAR>
0

>  <SCORE.INTER.ROT>
7

>  <SCORE.INTER.SOLV>
21.9949

>  <SCORE.INTER.VDW>
-37.4288

>  <SCORE.INTER.norm>
-1.25945

>  <SCORE.INTRA>
1.63038

>  <SCORE.INTRA.DIHEDRAL>
5.09899

>  <SCORE.INTRA.DIHEDRAL.0>
6.97628

>  <SCORE.INTRA.POLAR>
0

>  <SCORE.INTRA.POLAR.0>
0

>  <SCORE.INTRA.REPUL>
0

>  <SCORE.INTRA.REPUL.0>
0

>  <SCORE.INTRA.SOLV>
-0.45469

>  <SCORE.INTRA.SOLV.lig_0>
-49.8243

>  <SCORE.INTRA.VDW>
-0.691773

>  <SCORE.INTRA.VDW.0>
-1.35881

>  <SCORE.INTRA.norm>
0.0627068

>  <SCORE.RESTR>
0

>  <SCORE.RESTR.CAVITY>
0

>  <SCORE.RESTR.norm>
0

>  <SCORE.SYSTEM>
0

>  <SCORE.SYSTEM.CONST>
0

>  <SCORE.SYSTEM.DIHEDRAL>
0

>  <SCORE.SYSTEM.SOLV>
0

>  <SCORE.SYSTEM.norm>
0

>  <SCORE.heavy>
26

>  <SCORE.norm>
-1.19674

>  <RMSD>
1.631

$$$$
ligand
 OpenBabel11021811483D
libRbt.so/2013.1/901 2013/11/27
 26 28  0  0  0  0  0  0  0  0999 V2000
   35.1021   16.7238   10.5958 N   0  0  0  0  0  0  0  0  0  0  0  0
   35.3683   17.7034    9.5498 C   0  0  2  0  0  0  0  0  0  0  0  0
   34.2993   18.7900    9.5308 C   0  0  0  0  0  0  0  0  0  0  0  0
   34.3065   19.6706    8.6715 O   0  0  0  0  0  0  0  0  0  0  0  0
   35.4459   17.0230    8.1888 C   0  0  0  0  0  0  0  0  0  0  0  0
   36.5445   15.9739    8.0789 C   0  0  0  0  0  0  0  0  0  0  0  0
   36.5262   15.1137    6.4858 S   0  0  0  0  0  0  0  0  0  0  0  0
   37.7862   13.9622    7.0895 C   0  0  0  0  0  0  0  0  0  0  0  0
   39.2048   14.4318    6.7890 C   0  0  1  0  0  0  0  0  0  0  0  0
   40.0926   13.3287    6.8050 O   0  0  0  0  0  0  0  0  0  0  0  0
   39.2989   15.0839    5.4193 C   0  0  1  0  0  0  0  0  0  0  0  0
   39.6621   16.4374    5.5550 O   0  0  0  0  0  0  0  0  0  0  0  0
   40.3803   14.3285    4.6749 C   0  0  1  0  0  0  0  0  0  0  0  0
   41.4035   15.2123    4.2796 O   0  0  0  0  0  0  0  0  0  0  0  0
   40.9231   13.3066    5.6591 C   0  0  2  0  0  0  0  0  0  0  0  0
   33.4027   18.8123   10.3748 O   0  0  0  0  0  0  0  0  0  0  0  0
   43.3344    9.9773    2.3928 N   0  0  0  0  0  0  0  0  0  0  0  0
   43.7017   11.2681    2.7161 C   0  0  0  0  0  0  0  0  0  0  0  0
   42.9424   12.0054    3.6030 N   0  0  0  0  0  0  0  0  0  0  0  0
   41.8302   11.4689    4.1617 C   0  0  0  0  0  0  0  0  0  0  0  0
   41.4441   10.1727    3.8487 C   0  0  0  0  0  0  0  0  0  0  0  0
   42.2033    9.4236    2.9578 C   0  0  0  0  0  0  0  0  0  0  0  0
   41.8426    8.1814    2.6499 N   0  0  0  0  0  0  0  0  0  0  0  0
   40.3164    9.8967    4.5386 N   0  0  0  0  0  0  0  0  0  0  0  0
   39.9810   10.9802    5.2761 C   0  0  0  0  0  0  0  0  0  0  0  0
   40.9105   11.9632    5.0528 N   0  0  0  0  0  0  0  0  0  0  0  0
  2  1  1  1  0  0  0
  2  3  1  0  0  0  0
  2  5  1  0  0  0  0
  3  4  1  0  0  0  0
  3 16  1  0  0  0  0
  5  6  1  0  0  0  0
  6  7  1  0  0  0  0
  7  8  1  0  0  0  0
  9  8  1  6  0  0  0
  9 10  1  0  0  0  0
  9 11  1  0  0  0  0
 10 15  1  0  0  0  0
 11 12  1  1  0  0  0
 11 13  1  0  0  0  0
 13 14  1  1  0  0  0
 13 15  1  0  0  0  0
 15 26  1  6  0  0  0
 17 18  2  0  0  0  0
 17 22  1  0  0  0  0
 18 19  1  0  0  0  0
 19 20  2  0  0  0  0
 20 21  1  0  0  0  0
 20 26  1  0  0  0  0
 21 22  2  0  0  0  0
 21 24  1  0  0  0  0
 22 23  1  0  0  0  0
 24 25  2  0  0  0  0
 25 26  1  0  0  0  0
M  END
>  <CHROM.1>
-176.03386878,-60.37467669,176.07113281,-172.35967090,-91.05585431,-157.96540708
-162.18439941,38.95603496,14.07278563,6.04890669,2.43308768,0.61698787,0.06408233

>  <Name>
ligand

>  <RI>
0

>  <Rbt.Current_Directory>
/home/itssahil/PROJECTS/Mol_Feturizer/New_Systems/rnas/3NPQ

>  <Rbt.Executable>
rbdock ($Id: //depot/dev/client3/rdock/2013.1/src/exe/rbdock.cxx#4 $)

>  <Rbt.Library>
libRbt.so (2013.1, Build901 2013/11/27)

>  <Rbt.Parameter_File>
/export/apps/rDock/src/rDock_2013.1_src/data/scripts/dock_solv.prm

>  <Rbt.Receptor>
prm/pocket_docking_7.prm

>  <SCORE>
-22.7097

>  <SCORE.INTER>
-22.0454

>  <SCORE.INTER.CONST>
1

>  <SCORE.INTER.POLAR>
0

>  <SCORE.INTER.ROT>
7

>  <SCORE.INTER.SOLV>
18.5702

>  <SCORE.INTER.VDW>
-29.1537

>  <SCORE.INTER.norm>
-0.8479

>  <SCORE.INTRA>
-0.664284

>  <SCORE.INTRA.DIHEDRAL>
-1.31344

>  <SCORE.INTRA.DIHEDRAL.0>
6.97628

>  <SCORE.INTRA.POLAR>
0

>  <SCORE.INTRA.POLAR.0>
0

>  <SCORE.INTRA.REPUL>
0

>  <SCORE.INTRA.REPUL.0>
0

>  <SCORE.INTRA.SOLV>
0.0342474

>  <SCORE.INTRA.SOLV.lig_0>
-49.8243

>  <SCORE.INTRA.VDW>
-0.0246866

>  <SCORE.INTRA.VDW.0>
-1.35881

>  <SCORE.INTRA.norm>
-0.0255494

>  <SCORE.RESTR>
0

>  <SCORE.RESTR.CAVITY>
0

>  <SCORE.RESTR.norm>
0

>  <SCORE.SYSTEM>
0

>  <SCORE.SYSTEM.CONST>
0

>  <SCORE.SYSTEM.DIHEDRAL>
0

>  <SCORE.SYSTEM.SOLV>
0

>  <SCORE.SYSTEM.norm>
0

>  <SCORE.heavy>
26

>  <SCORE.norm>
-0.873449

>  <RMSD>
1.675

$$$$
ligand
 OpenBabel11021811483D
libRbt.so/2013.1/901 2013/11/27
 26 28  0  0  0  0  0  0  0  0999 V2000
   36.7771   19.3405    9.1989 N   0  0  0  0  0  0  0  0  0  0  0  0
   35.4123   19.0416    8.7836 C   0  0  2  0  0  0  0  0  0  0  0  0
   34.6630   18.2785    9.8701 C   0  0  0  0  0  0  0  0  0  0  0  0
   35.2203   17.3988   10.5253 O   0  0  0  0  0  0  0  0  0  0  0  0
   35.4120   18.2404    7.4878 C   0  0  0  0  0  0  0  0  0  0  0  0
   36.1555   16.9141    7.5757 C   0  0  0  0  0  0  0  0  0  0  0  0
   36.0944   15.9799    6.0259 S   0  0  0  0  0  0  0  0  0  0  0  0
   36.7742   14.5294    6.8698 C   0  0  0  0  0  0  0  0  0  0  0  0
   38.2815   14.6218    7.0768 C   0  0  1  0  0  0  0  0  0  0  0  0
   38.8087   13.3405    7.3689 O   0  0  0  0  0  0  0  0  0  0  0  0
   38.9853   15.1413    5.8338 C   0  0  1  0  0  0  0  0  0  0  0  0
   39.6078   16.3729    6.1129 O   0  0  0  0  0  0  0  0  0  0  0  0
   40.0280   14.1002    5.4833 C   0  0  1  0  0  0  0  0  0  0  0  0
   41.3104   14.6831    5.4762 O   0  0  0  0  0  0  0  0  0  0  0  0
   39.9397   13.0438    6.5713 C   0  0  2  0  0  0  0  0  0  0  0  0
   33.4820   18.5247   10.1183 O   0  0  0  0  0  0  0  0  0  0  0  0
   41.9072    9.5620    3.1695 N   0  0  0  0  0  0  0  0  0  0  0  0
   42.3843   10.8222    3.4688 C   0  0  0  0  0  0  0  0  0  0  0  0
   41.7341   11.6088    4.3990 N   0  0  0  0  0  0  0  0  0  0  0  0
   40.6220   11.1511    5.0240 C   0  0  0  0  0  0  0  0  0  0  0  0
   40.1265    9.8867    4.7361 C   0  0  0  0  0  0  0  0  0  0  0  0
   40.7755    9.0884    3.8020 C   0  0  0  0  0  0  0  0  0  0  0  0
   40.3094    7.8759    3.5176 N   0  0  0  0  0  0  0  0  0  0  0  0
   39.0253    9.6894    5.4928 N   0  0  0  0  0  0  0  0  0  0  0  0
   38.8129   10.7917    6.2479 C   0  0  0  0  0  0  0  0  0  0  0  0
   39.7949   11.7067    5.9682 N   0  0  0  0  0  0  0  0  0  0  0  0
  2  1  1  1  0  0  0
  2  3  1  0  0  0  0
  2  5  1  0  0  0  0
  3  4  1  0  0  0  0
  3 16  1  0  0  0  0
  5  6  1  0  0  0  0
  6  7  1  0  0  0  0
  7  8  1  0  0  0  0
  9  8  1  6  0  0  0
  9 10  1  0  0  0  0
  9 11  1  0  0  0  0
 10 15  1  0  0  0  0
 11 12  1  1  0  0  0
 11 13  1  0  0  0  0
 13 14  1  1  0  0  0
 13 15  1  0  0  0  0
 15 26  1  6  0  0  0
 17 18  2  0  0  0  0
 17 22  1  0  0  0  0
 18 19  1  0  0  0  0
 19 20  2  0  0  0  0
 20 21  1  0  0  0  0
 20 26  1  0  0  0  0
 21 22  2  0  0  0  0
 21 24  1  0  0  0  0
 22 23  1  0  0  0  0
 24 25  2  0  0  0  0
 25 26  1  0  0  0  0
M  END
>  <CHROM.1>
-39.81013234,59.16543556,178.61408710,-169.19172996,-78.64683080,-162.97685283
172.29678917,38.38186384,14.12456395,6.43854593,-2.20284286,-0.49537684,-2.95705931

>  <Name>
ligand

>  <RI>
0

>  <Rbt.Current_Directory>
/home/itssahil/PROJECTS/Mol_Feturizer/New_Systems/rnas/3NPQ

>  <Rbt.Executable>
rbdock ($Id: //depot/dev/client3/rdock/2013.1/src/exe/rbdock.cxx#4 $)

>  <Rbt.Library>
libRbt.so (2013.1, Build901 2013/11/27)

>  <Rbt.Parameter_File>
/export/apps/rDock/src/rDock_2013.1_src/data/scripts/dock_solv.prm

>  <Rbt.Receptor>
prm/pocket_docking_2.prm

>  <SCORE>
-24.9416

>  <SCORE.INTER>
-23.527

>  <SCORE.INTER.CONST>
1

>  <SCORE.INTER.POLAR>
0

>  <SCORE.INTER.ROT>
7

>  <SCORE.INTER.SOLV>
23.7264

>  <SCORE.INTER.VDW>
-31.8601

>  <SCORE.INTER.norm>
-0.904884

>  <SCORE.INTRA>
-1.47067

>  <SCORE.INTRA.DIHEDRAL>
-2.59944

>  <SCORE.INTRA.DIHEDRAL.0>
6.97628

>  <SCORE.INTRA.POLAR>
0

>  <SCORE.INTRA.POLAR.0>
0

>  <SCORE.INTRA.REPUL>
0

>  <SCORE.INTRA.REPUL.0>
0

>  <SCORE.INTRA.SOLV>
0.116712

>  <SCORE.INTRA.SOLV.lig_0>
-49.8243

>  <SCORE.INTRA.VDW>
-0.229302

>  <SCORE.INTRA.VDW.0>
-1.35881

>  <SCORE.INTRA.norm>
-0.0565641

>  <SCORE.RESTR>
0.0560412

>  <SCORE.RESTR.CAVITY>
0.0560412

>  <SCORE.RESTR.norm>
0.00215543

>  <SCORE.SYSTEM>
0

>  <SCORE.SYSTEM.CONST>
0

>  <SCORE.SYSTEM.DIHEDRAL>
0

>  <SCORE.SYSTEM.SOLV>
0

>  <SCORE.SYSTEM.norm>
0

>  <SCORE.heavy>
26

>  <SCORE.norm>
-0.959293

>  <RMSD>
1.720

$$$$
ligand
 OpenBabel11021811483D
libRbt.so/2013.1/901 2013/11/27
 26 28  0  0  0  0  0  0  0  0999 V2000
   35.6183   18.1820    8.4448 N   0  0  0  0  0  0  0  0  0  0  0  0
   35.4343   16.8452    7.8937 C   0  0  2  0  0  0  0  0  0  0  0  0
   33.9702   16.5878    7.5558 C   0  0  0  0  0  0  0  0  0  0  0  0
   33.6437   15.6530    6.8255 O   0  0  0  0  0  0  0  0  0  0  0  0
   35.9379   15.7909    8.8714 C   0  0  0  0  0  0  0  0  0  0  0  0
   37.4522   15.7639    9.0324 C   0  0  0  0  0  0  0  0  0  0  0  0
   38.2952   15.1240    7.5633 S   0  0  0  0  0  0  0  0  0  0  0  0
   39.7707   16.0834    7.9881 C   0  0  0  0  0  0  0  0  0  0  0  0
   40.8906   15.9239    6.9665 C   0  0  1  0  0  0  0  0  0  0  0  0
   41.3047   14.5709    6.9107 O   0  0  0  0  0  0  0  0  0  0  0  0
   40.4376   16.3288    5.5733 C   0  0  1  0  0  0  0  0  0  0  0  0
   41.1817   17.4385    5.1292 O   0  0  0  0  0  0  0  0  0  0  0  0
   40.7102   15.1322    4.6856 C   0  0  1  0  0  0  0  0  0  0  0  0
   41.5784   15.4951    3.6373 O   0  0  0  0  0  0  0  0  0  0  0  0
   41.3725   14.0972    5.5787 C   0  0  2  0  0  0  0  0  0  0  0  0
   33.0792   17.3090    8.0061 O   0  0  0  0  0  0  0  0  0  0  0  0
   41.4629    9.2461    3.5722 N   0  0  0  0  0  0  0  0  0  0  0  0
   42.4048   10.2447    3.4268 C   0  0  0  0  0  0  0  0  0  0  0  0
   42.2157   11.4718    4.0312 N   0  0  0  0  0  0  0  0  0  0  0  0
   41.1041   11.7062    4.7704 C   0  0  0  0  0  0  0  0  0  0  0  0
   40.1453   10.7147    4.9278 C   0  0  0  0  0  0  0  0  0  0  0  0
   40.3284    9.4767    4.3236 C   0  0  0  0  0  0  0  0  0  0  0  0
   39.4162    8.5199    4.4668 N   0  0  0  0  0  0  0  0  0  0  0  0
   39.1566   11.2117    5.7021 N   0  0  0  0  0  0  0  0  0  0  0  0
   39.4643   12.4860    6.0363 C   0  0  0  0  0  0  0  0  0  0  0  0
   40.6691   12.8067    5.4659 N   0  0  0  0  0  0  0  0  0  0  0  0
  2  1  1  1  0  0  0
  2  3  1  0  0  0  0
  2  5  1  0  0  0  0
  3  4  1  0  0  0  0
  3 16  1  0  0  0  0
  5  6  1  0  0  0  0
  6  7  1  0  0  0  0
  7  8  1  0  0  0  0
  9  8  1  1  0  0  0
  9 10  1  0  0  0  0
  9 11  1  0  0  0  0
 10 15  1  0  0  0  0
 11 12  1  6  0  0  0
 11 13  1  0  0  0  0
 13 14  1  6  0  0  0
 13 15  1  0  0  0  0
 15 26  1  1  0  0  0
 17 18  2  0  0  0  0
 17 22  1  0  0  0  0
 18 19  1  0  0  0  0
 19 20  2  0  0  0  0
 20 21  1  0  0  0  0
 20 26  1  0  0  0  0
 21 22  2  0  0  0  0
 21 24  1  0  0  0  0
 22 23  1  0  0  0  0
 24 25  2  0  0  0  0
 25 26  1  0  0  0  0
M  END
>  <CHROM.1>
164.14285402,-69.99898853,-70.67627363,153.28727380,-178.58422485,-61.85816459
-137.39880339,39.02886182,14.16384541,6.15455546,-2.32607196,-0.31934820
-2.86568009

>  <Name>
ligand

>  <RI>
0

>  <Rbt.Current_Directory>
/home/itssahil/PROJECTS/Mol_Feturizer/New_Systems/rnas/3NPQ

>  <Rbt.Executable>
rbdock ($Id: //depot/dev/client3/rdock/2013.1/src/exe/rbdock.cxx#4 $)

>  <Rbt.Library>
libRbt.so (2013.1, Build901 2013/11/27)

>  <Rbt.Parameter_File>
/export/apps/rDock/src/rDock_2013.1_src/data/scripts/dock_solv.prm

>  <Rbt.Receptor>
prm/pocket_docking_7.prm

>  <SCORE>
-22.1184

>  <SCORE.INTER>
-19.4978

>  <SCORE.INTER.CONST>
1

>  <SCORE.INTER.POLAR>
0

>  <SCORE.INTER.ROT>
7

>  <SCORE.INTER.SOLV>
20.7823

>  <SCORE.INTER.VDW>
-28.1927

>  <SCORE.INTER.norm>
-0.749917

>  <SCORE.INTRA>
-2.62059

>  <SCORE.INTRA.DIHEDRAL>
-2.47308

>  <SCORE.INTRA.DIHEDRAL.0>
6.97628

>  <SCORE.INTRA.POLAR>
0

>  <SCORE.INTRA.POLAR.0>
0

>  <SCORE.INTRA.REPUL>
0

>  <SCORE.INTRA.REPUL.0>
0

>  <SCORE.INTRA.SOLV>
0.341234

>  <SCORE.INTRA.SOLV.lig_0>
-49.8243

>  <SCORE.INTRA.VDW>
-1.55466

>  <SCORE.INTRA.VDW.0>
-1.35881

>  <SCORE.INTRA.norm>
-0.100792

>  <SCORE.RESTR>
0

>  <SCORE.RESTR.CAVITY>
0

>  <SCORE.RESTR.norm>
0

>  <SCORE.SYSTEM>
0

>  <SCORE.SYSTEM.CONST>
0

>  <SCORE.SYSTEM.DIHEDRAL>
0

>  <SCORE.SYSTEM.SOLV>
0

>  <SCORE.SYSTEM.norm>
0

>  <SCORE.heavy>
26

>  <SCORE.norm>
-0.850709

>  <RMSD>
1.720

$$$$
ligand
 OpenBabel11021811483D
libRbt.so/2013.1/901 2013/11/27
 26 28  0  0  0  0  0  0  0  0999 V2000
   33.2141   17.3984    8.3257 N   0  0  0  0  0  0  0  0  0  0  0  0
   34.6185   17.6043    8.6571 C   0  0  2  0  0  0  0  0  0  0  0  0
   34.9108   19.0779    8.9160 C   0  0  0  0  0  0  0  0  0  0  0  0
   36.0474   19.4591    9.1930 O   0  0  0  0  0  0  0  0  0  0  0  0
   35.5127   17.0829    7.5392 C   0  0  0  0  0  0  0  0  0  0  0  0
   35.5909   15.5639    7.4618 C   0  0  0  0  0  0  0  0  0  0  0  0
   36.4191   14.8373    8.8986 S   0  0  0  0  0  0  0  0  0  0  0  0
   37.6220   14.0393    7.8056 C   0  0  0  0  0  0  0  0  0  0  0  0
   38.8079   14.9394    7.4788 C   0  0  1  0  0  0  0  0  0  0  0  0
   39.9802   14.1593    7.3301 O   0  0  0  0  0  0  0  0  0  0  0  0
   38.5898   15.7018    6.1821 C   0  0  1  0  0  0  0  0  0  0  0  0
   38.5465   17.0854    6.4392 O   0  0  0  0  0  0  0  0  0  0  0  0
   39.7798   15.3740    5.3043 C   0  0  1  0  0  0  0  0  0  0  0  0
   40.4589   16.5558    4.9486 O   0  0  0  0  0  0  0  0  0  0  0  0
   40.6810   14.4855    6.1445 C   0  0  2  0  0  0  0  0  0  0  0  0
   34.0164   19.9223    8.8536 O   0  0  0  0  0  0  0  0  0  0  0  0
   39.3702    9.4983    5.1564 N   0  0  0  0  0  0  0  0  0  0  0  0
   38.7382   10.3940    5.9953 C   0  0  0  0  0  0  0  0  0  0  0  0
   39.2258   11.6783    6.1350 N   0  0  0  0  0  0  0  0  0  0  0  0
   40.3289   12.0693    5.4515 C   0  0  0  0  0  0  0  0  0  0  0  0
   40.9787   11.1829    4.6035 C   0  0  0  0  0  0  0  0  0  0  0  0
   40.4939    9.8888    4.4565 C   0  0  0  0  0  0  0  0  0  0  0  0
   41.1087    9.0309    3.6477 N   0  0  0  0  0  0  0  0  0  0  0  0
   42.0327   11.8269    4.0573 N   0  0  0  0  0  0  0  0  0  0  0  0
   42.0658   13.0917    4.5363 C   0  0  0  0  0  0  0  0  0  0  0  0
   41.0155   13.2569    5.4020 N   0  0  0  0  0  0  0  0  0  0  0  0
  2  1  1  6  0  0  0
  2  3  1  0  0  0  0
  2  5  1  0  0  0  0
  3  4  1  0  0  0  0
  3 16  1  0  0  0  0
  5  6  1  0  0  0  0
  6  7  1  0  0  0  0
  7  8  1  0  0  0  0
  9  8  1  6  0  0  0
  9 10  1  0  0  0  0
  9 11  1  0  0  0  0
 10 15  1  0  0  0  0
 11 12  1  1  0  0  0
 11 13  1  0  0  0  0
 13 14  1  1  0  0  0
 13 15  1  0  0  0  0
 15 26  1  6  0  0  0
 17 18  2  0  0  0  0
 17 22  1  0  0  0  0
 18 19  1  0  0  0  0
 19 20  2  0  0  0  0
 20 21  1  0  0  0  0
 20 26  1  0  0  0  0
 21 22  2  0  0  0  0
 21 24  1  0  0  0  0
 22 23  1  0  0  0  0
 24 25  2  0  0  0  0
 25 26  1  0  0  0  0
M  END
>  <CHROM.1>
-178.96304980,-73.26218238,-66.71919038,-123.04802421,86.77657969,146.66678050
26.53938276,38.31507706,14.57267266,6.65865314,2.30343538,0.50173277,0.09275536

>  <Name>
ligand

>  <RI>
0

>  <Rbt.Current_Directory>
/home/itssahil/PROJECTS/Mol_Feturizer/New_Systems/rnas/3NPQ

>  <Rbt.Executable>
rbdock ($Id: //depot/dev/client3/rdock/2013.1/src/exe/rbdock.cxx#4 $)

>  <Rbt.Library>
libRbt.so (2013.1, Build901 2013/11/27)

>  <Rbt.Parameter_File>
/export/apps/rDock/src/rDock_2013.1_src/data/scripts/dock_solv.prm

>  <Rbt.Receptor>
prm/pocket_docking_4.prm

>  <SCORE>
-27.6816

>  <SCORE.INTER>
-27.6913

>  <SCORE.INTER.CONST>
1

>  <SCORE.INTER.POLAR>
0

>  <SCORE.INTER.ROT>
7

>  <SCORE.INTER.SOLV>
19.6411

>  <SCORE.INTER.VDW>
-33.2746

>  <SCORE.INTER.norm>
-1.06505

>  <SCORE.INTRA>
0.00966344

>  <SCORE.INTRA.DIHEDRAL>
3.02896

>  <SCORE.INTRA.DIHEDRAL.0>
6.97628

>  <SCORE.INTRA.POLAR>
0

>  <SCORE.INTRA.POLAR.0>
0

>  <SCORE.INTRA.REPUL>
0

>  <SCORE.INTRA.REPUL.0>
0

>  <SCORE.INTRA.SOLV>
0.494286

>  <SCORE.INTRA.SOLV.lig_0>
-49.8243

>  <SCORE.INTRA.VDW>
-1.75196

>  <SCORE.INTRA.VDW.0>
-1.35881

>  <SCORE.INTRA.norm>
0.000371671

>  <SCORE.RESTR>
0

>  <SCORE.RESTR.CAVITY>
0

>  <SCORE.RESTR.norm>
0

>  <SCORE.SYSTEM>
0

>  <SCORE.SYSTEM.CONST>
0

>  <SCORE.SYSTEM.DIHEDRAL>
0

>  <SCORE.SYSTEM.SOLV>
0

>  <SCORE.SYSTEM.norm>
0

>  <SCORE.heavy>
26

>  <SCORE.norm>
-1.06468

>  <RMSD>
1.832

$$$$
ligand
 OpenBabel11021811483D
libRbt.so/2013.1/901 2013/11/27
 26 28  0  0  0  0  0  0  0  0999 V2000
   33.8487   18.2519   10.4939 N   0  0  0  0  0  0  0  0  0  0  0  0
   35.1291   17.8799    9.9049 C   0  0  2  0  0  0  0  0  0  0  0  0
   35.6735   18.9988    9.0242 C   0  0  0  0  0  0  0  0  0  0  0  0
   36.8824   19.1208    8.8303 O   0  0  0  0  0  0  0  0  0  0  0  0
   34.9912   16.5972    9.0944 C   0  0  0  0  0  0  0  0  0  0  0  0
   36.3169   16.0097    8.6285 C   0  0  0  0  0  0  0  0  0  0  0  0
   36.1437   15.0066    7.1311 S   0  0  0  0  0  0  0  0  0  0  0  0
   37.6878   14.1469    7.5246 C   0  0  0  0  0  0  0  0  0  0  0  0
   38.9235   14.9752    7.1925 C   0  0  1  0  0  0  0  0  0  0  0  0
   40.0592   14.1343    7.1029 O   0  0  0  0  0  0  0  0  0  0  0  0
   38.7725   15.6951    5.8623 C   0  0  1  0  0  0  0  0  0  0  0  0
   38.7913   17.0883    6.0647 O   0  0  0  0  0  0  0  0  0  0  0  0
   39.9646   15.2757    5.0275 C   0  0  1  0  0  0  0  0  0  0  0  0
   40.7088   16.4083    4.6432 O   0  0  0  0  0  0  0  0  0  0  0  0
   40.8019   14.3790    5.9232 C   0  0  2  0  0  0  0  0  0  0  0  0
   34.9165   19.8070    8.4853 O   0  0  0  0  0  0  0  0  0  0  0  0
   39.3235    9.3976    5.1702 N   0  0  0  0  0  0  0  0  0  0  0  0
   38.7251   10.3513    5.9689 C   0  0  0  0  0  0  0  0  0  0  0  0
   39.2552   11.6239    6.0477 N   0  0  0  0  0  0  0  0  0  0  0  0
   40.3675   11.9464    5.3435 C   0  0  0  0  0  0  0  0  0  0  0  0
   40.9839   11.0010    4.5353 C   0  0  0  0  0  0  0  0  0  0  0  0
   40.4562    9.7182    4.4497 C   0  0  0  0  0  0  0  0  0  0  0  0
   41.0388    8.8042    3.6794 N   0  0  0  0  0  0  0  0  0  0  0  0
   42.0560   11.5840    3.9568 N   0  0  0  0  0  0  0  0  0  0  0  0
   42.1328   12.8678    4.3768 C   0  0  0  0  0  0  0  0  0  0  0  0
   41.0924   13.1072    5.2371 N   0  0  0  0  0  0  0  0  0  0  0  0
  2  1  1  6  0  0  0
  2  3  1  0  0  0  0
  2  5  1  0  0  0  0
  3  4  1  0  0  0  0
  3 16  1  0  0  0  0
  5  6  1  0  0  0  0
  6  7  1  0  0  0  0
  7  8  1  0  0  0  0
  9  8  1  6  0  0  0
  9 10  1  0  0  0  0
  9 11  1  0  0  0  0
 10 15  1  0  0  0  0
 11 12  1  1  0  0  0
 11 13  1  0  0  0  0
 13 14  1  1  0  0  0
 13 15  1  0  0  0  0
 15 26  1  6  0  0  0
 17 18  2  0  0  0  0
 17 22  1  0  0  0  0
 18 19  1  0  0  0  0
 19 20  2  0  0  0  0
 20 21  1  0  0  0  0
 20 26  1  0  0  0  0
 21 22  2  0  0  0  0
 21 24  1  0  0  0  0
 22 23  1  0  0  0  0
 24 25  2  0  0  0  0
 25 26  1  0  0  0  0
M  END
>  <CHROM.1>
153.55205926,-170.64237609,-154.11340896,-158.33364166,-77.53343901,-161.13359180
24.68563845,38.48923620,14.54324117,6.59516064,2.27059980,0.57562562,0.11433797

>  <Name>
ligand

>  <RI>
0

>  <Rbt.Current_Directory>
/home/itssahil/PROJECTS/Mol_Feturizer/New_Systems/rnas/3NPQ

>  <Rbt.Executable>
rbdock ($Id: //depot/dev/client3/rdock/2013.1/src/exe/rbdock.cxx#4 $)

>  <Rbt.Library>
libRbt.so (2013.1, Build901 2013/11/27)

>  <Rbt.Parameter_File>
/export/apps/rDock/src/rDock_2013.1_src/data/scripts/dock_solv.prm

>  <Rbt.Receptor>
prm/pocket_docking_2.prm

>  <SCORE>
-27.9217

>  <SCORE.INTER>
-26.9942

>  <SCORE.INTER.CONST>
1

>  <SCORE.INTER.POLAR>
0

>  <SCORE.INTER.ROT>
7

>  <SCORE.INTER.SOLV>
21.9275

>  <SCORE.INTER.VDW>
-33.572

>  <SCORE.INTER.norm>
-1.03824

>  <SCORE.INTRA>
-0.927484

>  <SCORE.INTRA.DIHEDRAL>
0.540033

>  <SCORE.INTRA.DIHEDRAL.0>
6.97628

>  <SCORE.INTRA.POLAR>
0

>  <SCORE.INTRA.POLAR.0>
0

>  <SCORE.INTRA.REPUL>
0

>  <SCORE.INTRA.REPUL.0>
0

>  <SCORE.INTRA.SOLV>
-0.565035

>  <SCORE.INTRA.SOLV.lig_0>
-49.8243

>  <SCORE.INTRA.VDW>
-0.914983

>  <SCORE.INTRA.VDW.0>
-1.35881

>  <SCORE.INTRA.norm>
-0.0356725

>  <SCORE.RESTR>
0

>  <SCORE.RESTR.CAVITY>
0

>  <SCORE.RESTR.norm>
0

>  <SCORE.SYSTEM>
0

>  <SCORE.SYSTEM.CONST>
0

>  <SCORE.SYSTEM.DIHEDRAL>
0

>  <SCORE.SYSTEM.SOLV>
0

>  <SCORE.SYSTEM.norm>
0

>  <SCORE.heavy>
26

>  <SCORE.norm>
-1.07391

>  <RMSD>
1.842

$$$$
ligand
 OpenBabel11021811483D
libRbt.so/2013.1/901 2013/11/27
 26 28  0  0  0  0  0  0  0  0999 V2000
   33.0296   17.8204    8.8331 N   0  0  0  0  0  0  0  0  0  0  0  0
   34.2054   18.1313    9.6366 C   0  0  2  0  0  0  0  0  0  0  0  0
   35.0175   19.2576    9.0075 C   0  0  0  0  0  0  0  0  0  0  0  0
   34.4767   20.1160    8.3115 O   0  0  0  0  0  0  0  0  0  0  0  0
   35.0760   16.8931    9.8098 C   0  0  0  0  0  0  0  0  0  0  0  0
   35.6128   16.3219    8.5040 C   0  0  0  0  0  0  0  0  0  0  0  0
   36.6696   14.8745    8.7619 S   0  0  0  0  0  0  0  0  0  0  0  0
   37.3157   15.0424    7.0788 C   0  0  0  0  0  0  0  0  0  0  0  0
   38.6958   15.6883    7.0400 C   0  0  1  0  0  0  0  0  0  0  0  0
   39.6975   14.6965    7.1736 O   0  0  0  0  0  0  0  0  0  0  0  0
   38.9350   16.4163    5.7274 C   0  0  1  0  0  0  0  0  0  0  0  0
   39.1012   17.7941    5.9649 O   0  0  0  0  0  0  0  0  0  0  0  0
   40.2096   15.8307    5.1560 C   0  0  1  0  0  0  0  0  0  0  0  0
   41.1676   16.8465    4.9690 O   0  0  0  0  0  0  0  0  0  0  0  0
   40.7031   14.8297    6.1866 C   0  0  2  0  0  0  0  0  0  0  0  0
   36.2343   19.3356    9.1814 O   0  0  0  0  0  0  0  0  0  0  0  0
   39.0914    9.8649    5.6209 N   0  0  0  0  0  0  0  0  0  0  0  0
   38.5222   10.8622    6.3869 C   0  0  0  0  0  0  0  0  0  0  0  0
   39.0857   12.1225    6.4174 N   0  0  0  0  0  0  0  0  0  0  0  0
   40.2023   12.3901    5.6973 C   0  0  0  0  0  0  0  0  0  0  0  0
   40.7898   11.4001    4.9213 C   0  0  0  0  0  0  0  0  0  0  0  0
   40.2283   10.1294    4.8844 C   0  0  0  0  0  0  0  0  0  0  0  0
   40.7829    9.1732    4.1454 N   0  0  0  0  0  0  0  0  0  0  0  0
   41.8737   11.9336    4.3175 N   0  0  0  0  0  0  0  0  0  0  0  0
   41.9862   13.2292    4.6904 C   0  0  0  0  0  0  0  0  0  0  0  0
   40.9568   13.5268    5.5458 N   0  0  0  0  0  0  0  0  0  0  0  0
  2  1  1  6  0  0  0
  2  3  1  0  0  0  0
  2  5  1  0  0  0  0
  3  4  1  0  0  0  0
  3 16  1  0  0  0  0
  5  6  1  0  0  0  0
  6  7  1  0  0  0  0
  7  8  1  0  0  0  0
  9  8  1  6  0  0  0
  9 10  1  0  0  0  0
  9 11  1  0  0  0  0
 10 15  1  0  0  0  0
 11 12  1  1  0  0  0
 11 13  1  0  0  0  0
 13 14  1  1  0  0  0
 13 15  1  0  0  0  0
 15 26  1  6  0  0  0
 17 18  2  0  0  0  0
 17 22  1  0  0  0  0
 18 19  1  0  0  0  0
 19 20  2  0  0  0  0
 20 21  1  0  0  0  0
 20 26  1  0  0  0  0
 21 22  2  0  0  0  0
 21 24  1  0  0  0  0
 22 23  1  0  0  0  0
 24 25  2  0  0  0  0
 25 26  1  0  0  0  0
M  END
>  <CHROM.1>
28.52158245,61.22213211,178.76807673,-163.88895737,101.59556474,87.88669335
10.15826672,38.32092215,14.91530166,6.82586832,2.33799171,0.56471165,0.04411910

>  <Name>
ligand

>  <RI>
0

>  <Rbt.Current_Directory>
/home/itssahil/PROJECTS/Mol_Feturizer/New_Systems/rnas/3NPQ

>  <Rbt.Executable>
rbdock ($Id: //depot/dev/client3/rdock/2013.1/src/exe/rbdock.cxx#4 $)

>  <Rbt.Library>
libRbt.so (2013.1, Build901 2013/11/27)

>  <Rbt.Parameter_File>
/export/apps/rDock/src/rDock_2013.1_src/data/scripts/dock_solv.prm

>  <Rbt.Receptor>
prm/pocket_docking_2.prm

>  <SCORE>
-29.512

>  <SCORE.INTER>
-29.091

>  <SCORE.INTER.CONST>
1

>  <SCORE.INTER.POLAR>
0

>  <SCORE.INTER.ROT>
7

>  <SCORE.INTER.SOLV>
20.7154

>  <SCORE.INTER.VDW>
-34.5658

>  <SCORE.INTER.norm>
-1.11888

>  <SCORE.INTRA>
-0.455417

>  <SCORE.INTRA.DIHEDRAL>
0.336509

>  <SCORE.INTRA.DIHEDRAL.0>
6.97628

>  <SCORE.INTRA.POLAR>
0

>  <SCORE.INTRA.POLAR.0>
0

>  <SCORE.INTRA.REPUL>
0

>  <SCORE.INTRA.REPUL.0>
0

>  <SCORE.INTRA.SOLV>
-0.260073

>  <SCORE.INTRA.SOLV.lig_0>
-49.8243

>  <SCORE.INTRA.VDW>
-0.493635

>  <SCORE.INTRA.VDW.0>
-1.35881

>  <SCORE.INTRA.norm>
-0.017516

>  <SCORE.RESTR>
0.0344173

>  <SCORE.RESTR.CAVITY>
0.0344173

>  <SCORE.RESTR.norm>
0.00132374

>  <SCORE.SYSTEM>
0

>  <SCORE.SYSTEM.CONST>
0

>  <SCORE.SYSTEM.DIHEDRAL>
0

>  <SCORE.SYSTEM.SOLV>
0

>  <SCORE.SYSTEM.norm>
0

>  <SCORE.heavy>
26

>  <SCORE.norm>
-1.13508

>  <RMSD>
1.849

$$$$
ligand
 OpenBabel11021811483D
libRbt.so/2013.1/901 2013/11/27
 26 28  0  0  0  0  0  0  0  0999 V2000
   33.8119   16.9983    8.1277 N   0  0  0  0  0  0  0  0  0  0  0  0
   34.5288   17.6234    9.2322 C   0  0  2  0  0  0  0  0  0  0  0  0
   35.4887   18.6945    8.7269 C   0  0  0  0  0  0  0  0  0  0  0  0
   35.5309   18.9958    7.5347 O   0  0  0  0  0  0  0  0  0  0  0  0
   35.2904   16.5761   10.0349 C   0  0  0  0  0  0  0  0  0  0  0  0
   36.4866   15.9804    9.3043 C   0  0  0  0  0  0  0  0  0  0  0  0
   36.0091   15.0885    7.8026 S   0  0  0  0  0  0  0  0  0  0  0  0
   37.6011   14.2261    7.8048 C   0  0  0  0  0  0  0  0  0  0  0  0
   38.7578   15.1248    7.3833 C   0  0  1  0  0  0  0  0  0  0  0  0
   39.9433   14.3604    7.2595 O   0  0  0  0  0  0  0  0  0  0  0  0
   38.4901   15.7874    6.0418 C   0  0  1  0  0  0  0  0  0  0  0  0
   38.4220   17.1847    6.2007 O   0  0  0  0  0  0  0  0  0  0  0  0
   39.6649   15.4220    5.1583 C   0  0  1  0  0  0  0  0  0  0  0  0
   40.3080   16.5890    4.7013 O   0  0  0  0  0  0  0  0  0  0  0  0
   40.6067   14.6151    6.0354 C   0  0  2  0  0  0  0  0  0  0  0  0
   36.2446   19.2844    9.4999 O   0  0  0  0  0  0  0  0  0  0  0  0
   39.3070    9.5761    5.3380 N   0  0  0  0  0  0  0  0  0  0  0  0
   38.6648   10.5211    6.1126 C   0  0  0  0  0  0  0  0  0  0  0  0
   39.1509   11.8119    6.1796 N   0  0  0  0  0  0  0  0  0  0  0  0
   40.2626   12.1609    5.4873 C   0  0  0  0  0  0  0  0  0  0  0  0
   40.9228   11.2245    4.7033 C   0  0  0  0  0  0  0  0  0  0  0  0
   40.4395    9.9236    4.6297 C   0  0  0  0  0  0  0  0  0  0  0  0
   41.0642    9.0182    3.8827 N   0  0  0  0  0  0  0  0  0  0  0  0
   41.9838   11.8344    4.1320 N   0  0  0  0  0  0  0  0  0  0  0  0
   42.0112   13.1262    4.5331 C   0  0  0  0  0  0  0  0  0  0  0  0
   40.9501   13.3435    5.3737 N   0  0  0  0  0  0  0  0  0  0  0  0
  2  1  1  6  0  0  0
  2  3  1  0  0  0  0
  2  5  1  0  0  0  0
  3  4  1  0  0  0  0
  3 16  1  0  0  0  0
  5  6  1  0  0  0  0
  6  7  1  0  0  0  0
  7  8  1  0  0  0  0
  9  8  1  6  0  0  0
  9 10  1  0  0  0  0
  9 11  1  0  0  0  0
 10 15  1  0  0  0  0
 11 12  1  1  0  0  0
 11 13  1  0  0  0  0
 13 14  1  1  0  0  0
 13 15  1  0  0  0  0
 15 26  1  6  0  0  0
 17 18  2  0  0  0  0
 17 22  1  0  0  0  0
 18 19  1  0  0  0  0
 19 20  2  0  0  0  0
 20 21  1  0  0  0  0
 20 26  1  0  0  0  0
 21 22  2  0  0  0  0
 21 24  1  0  0  0  0
 22 23  1  0  0  0  0
 24 25  2  0  0  0  0
 25 26  1  0  0  0  0
M  END
>  <CHROM.1>
4.32983835,70.30252467,-62.67438062,-161.46050758,-73.51077250,-173.44442675
29.13167971,38.36919966,14.57550557,6.68222868,2.32052104,0.58704420,0.05778935

>  <Name>
ligand

>  <RI>
0

>  <Rbt.Current_Directory>
/home/itssahil/PROJECTS/Mol_Feturizer/New_Systems/rnas/3NPQ

>  <Rbt.Executable>
rbdock ($Id: //depot/dev/client3/rdock/2013.1/src/exe/rbdock.cxx#4 $)

>  <Rbt.Library>
libRbt.so (2013.1, Build901 2013/11/27)

>  <Rbt.Parameter_File>
/export/apps/rDock/src/rDock_2013.1_src/data/scripts/dock_solv.prm

>  <Rbt.Receptor>
prm/pocket_docking_8.prm

>  <SCORE>
-29.9662

>  <SCORE.INTER>
-28.3517

>  <SCORE.INTER.CONST>
1

>  <SCORE.INTER.POLAR>
0

>  <SCORE.INTER.ROT>
7

>  <SCORE.INTER.SOLV>
18.0286

>  <SCORE.INTER.VDW>
-33.1773

>  <SCORE.INTER.norm>
-1.09045

>  <SCORE.INTRA>
-1.61453

>  <SCORE.INTRA.DIHEDRAL>
-2.92028

>  <SCORE.INTRA.DIHEDRAL.0>
6.97628

>  <SCORE.INTRA.POLAR>
0

>  <SCORE.INTRA.POLAR.0>
0

>  <SCORE.INTRA.REPUL>
0

>  <SCORE.INTRA.REPUL.0>
0

>  <SCORE.INTRA.SOLV>
1.37927

>  <SCORE.INTRA.SOLV.lig_0>
-49.8243

>  <SCORE.INTRA.VDW>
-0.844026

>  <SCORE.INTRA.VDW.0>
-1.35881

>  <SCORE.INTRA.norm>
-0.0620974

>  <SCORE.RESTR>
0

>  <SCORE.RESTR.CAVITY>
0

>  <SCORE.RESTR.norm>
0

>  <SCORE.SYSTEM>
0

>  <SCORE.SYSTEM.CONST>
0

>  <SCORE.SYSTEM.DIHEDRAL>
0

>  <SCORE.SYSTEM.SOLV>
0

>  <SCORE.SYSTEM.norm>
0

>  <SCORE.heavy>
26

>  <SCORE.norm>
-1.15255

>  <RMSD>
1.857

$$$$
ligand
 OpenBabel11021811483D
libRbt.so/2013.1/901 2013/11/27
 26 28  0  0  0  0  0  0  0  0999 V2000
   33.2984   18.1499    9.2419 N   0  0  0  0  0  0  0  0  0  0  0  0
   34.5694   17.5956    8.7926 C   0  0  2  0  0  0  0  0  0  0  0  0
   35.4015   18.6479    8.0686 C   0  0  0  0  0  0  0  0  0  0  0  0
   34.8723   19.4697    7.3213 O   0  0  0  0  0  0  0  0  0  0  0  0
   34.3366   16.3964    7.8821 C   0  0  0  0  0  0  0  0  0  0  0  0
   35.6060   15.6414    7.5103 C   0  0  0  0  0  0  0  0  0  0  0  0
   36.4830   15.0018    8.9595 S   0  0  0  0  0  0  0  0  0  0  0  0
   37.6687   14.1653    7.8766 C   0  0  0  0  0  0  0  0  0  0  0  0
   38.7941   15.0841    7.4153 C   0  0  1  0  0  0  0  0  0  0  0  0
   39.9904   14.3426    7.2604 O   0  0  0  0  0  0  0  0  0  0  0  0
   38.4732   15.7326    6.0786 C   0  0  1  0  0  0  0  0  0  0  0  0
   38.3819   17.1293    6.2314 O   0  0  0  0  0  0  0  0  0  0  0  0
   39.6281   15.3850    5.1624 C   0  0  1  0  0  0  0  0  0  0  0  0
   40.2338   16.5616    4.6795 O   0  0  0  0  0  0  0  0  0  0  0  0
   40.6117   14.6025    6.0155 C   0  0  2  0  0  0  0  0  0  0  0  0
   36.6232   18.7010    8.2146 O   0  0  0  0  0  0  0  0  0  0  0  0
   39.3211    9.5651    5.2904 N   0  0  0  0  0  0  0  0  0  0  0  0
   38.6730   10.5066    6.0644 C   0  0  0  0  0  0  0  0  0  0  0  0
   39.1575   11.7975    6.1395 N   0  0  0  0  0  0  0  0  0  0  0  0
   40.2734   12.1501    5.4557 C   0  0  0  0  0  0  0  0  0  0  0  0
   40.9395   11.2174    4.6725 C   0  0  0  0  0  0  0  0  0  0  0  0
   40.4579    9.9164    4.5908 C   0  0  0  0  0  0  0  0  0  0  0  0
   41.0883    9.0143    3.8445 N   0  0  0  0  0  0  0  0  0  0  0  0
   42.0036   11.8304    4.1104 N   0  0  0  0  0  0  0  0  0  0  0  0
   42.0273   13.1207    4.5166 C   0  0  0  0  0  0  0  0  0  0  0  0
   40.9605   13.3338    5.3512 N   0  0  0  0  0  0  0  0  0  0  0  0
  2  1  1  6  0  0  0
  2  3  1  0  0  0  0
  2  5  1  0  0  0  0
  3  4  1  0  0  0  0
  3 16  1  0  0  0  0
  5  6  1  0  0  0  0
  6  7  1  0  0  0  0
  7  8  1  0  0  0  0
  9  8  1  6  0  0  0
  9 10  1  0  0  0  0
  9 11  1  0  0  0  0
 10 15  1  0  0  0  0
 11 12  1  1  0  0  0
 11 13  1  0  0  0  0
 13 14  1  1  0  0  0
 13 15  1  0  0  0  0
 15 26  1  6  0  0  0
 17 18  2  0  0  0  0
 17 22  1  0  0  0  0
 18 19  1  0  0  0  0
 19 20  2  0  0  0  0
 20 21  1  0  0  0  0
 20 26  1  0  0  0  0
 21 22  2  0  0  0  0
 21 24  1  0  0  0  0
 22 23  1  0  0  0  0
 24 25  2  0  0  0  0
 25 26  1  0  0  0  0
M  END
>  <CHROM.1>
-38.37780165,-172.42330084,59.25217914,175.09137300,83.88589167,147.20539274
31.55671663,38.31291998,14.56991171,6.56822245,2.35613190,0.56123397,-0.00881261

>  <Name>
ligand

>  <RI>
0

>  <Rbt.Current_Directory>
/home/itssahil/PROJECTS/Mol_Feturizer/New_Systems/rnas/3NPQ

>  <Rbt.Executable>
rbdock ($Id: //depot/dev/client3/rdock/2013.1/src/exe/rbdock.cxx#4 $)

>  <Rbt.Library>
libRbt.so (2013.1, Build901 2013/11/27)

>  <Rbt.Parameter_File>
/export/apps/rDock/src/rDock_2013.1_src/data/scripts/dock_solv.prm

>  <Rbt.Receptor>
prm/pocket_docking_5.prm

>  <SCORE>
-29.3584

>  <SCORE.INTER>
-26.9452

>  <SCORE.INTER.CONST>
1

>  <SCORE.INTER.POLAR>
0

>  <SCORE.INTER.ROT>
7

>  <SCORE.INTER.SOLV>
20.2972

>  <SCORE.INTER.VDW>
-32.9958

>  <SCORE.INTER.norm>
-1.03635

>  <SCORE.INTRA>
-2.41318

>  <SCORE.INTRA.DIHEDRAL>
-0.209795

>  <SCORE.INTRA.DIHEDRAL.0>
6.97628

>  <SCORE.INTRA.POLAR>
0

>  <SCORE.INTRA.POLAR.0>
0

>  <SCORE.INTRA.REPUL>
0

>  <SCORE.INTRA.REPUL.0>
0

>  <SCORE.INTRA.SOLV>
-0.354561

>  <SCORE.INTRA.SOLV.lig_0>
-49.8243

>  <SCORE.INTRA.VDW>
-2.131

>  <SCORE.INTRA.VDW.0>
-1.35881

>  <SCORE.INTRA.norm>
-0.0928146

>  <SCORE.RESTR>
0

>  <SCORE.RESTR.CAVITY>
0

>  <SCORE.RESTR.norm>
0

>  <SCORE.SYSTEM>
0

>  <SCORE.SYSTEM.CONST>
0

>  <SCORE.SYSTEM.DIHEDRAL>
0

>  <SCORE.SYSTEM.SOLV>
0

>  <SCORE.SYSTEM.norm>
0

>  <SCORE.heavy>
26

>  <SCORE.norm>
-1.12917

>  <RMSD>
1.860

$$$$
ligand
 OpenBabel11021811483D
libRbt.so/2013.1/901 2013/11/27
 26 28  0  0  0  0  0  0  0  0999 V2000
   33.8888   18.4284   10.5084 N   0  0  0  0  0  0  0  0  0  0  0  0
   35.1626   17.9619    9.9752 C   0  0  2  0  0  0  0  0  0  0  0  0
   35.7511   18.9726    8.9973 C   0  0  0  0  0  0  0  0  0  0  0  0
   35.0325   19.7870    8.4193 O   0  0  0  0  0  0  0  0  0  0  0  0
   34.9924   16.6112    9.2911 C   0  0  0  0  0  0  0  0  0  0  0  0
   36.2979   15.9809    8.8244 C   0  0  0  0  0  0  0  0  0  0  0  0
   36.0869   14.9655    7.3402 S   0  0  0  0  0  0  0  0  0  0  0  0
   37.6676   14.1470    7.6716 C   0  0  0  0  0  0  0  0  0  0  0  0
   38.8670   15.0114    7.3006 C   0  0  1  0  0  0  0  0  0  0  0  0
   40.0282   14.2078    7.1968 O   0  0  0  0  0  0  0  0  0  0  0  0
   38.6624   15.7069    5.9647 C   0  0  1  0  0  0  0  0  0  0  0  0
   38.6385   17.1027    6.1478 O   0  0  0  0  0  0  0  0  0  0  0  0
   39.8492   15.3159    5.1088 C   0  0  1  0  0  0  0  0  0  0  0  0
   40.5460   16.4672    4.6927 O   0  0  0  0  0  0  0  0  0  0  0  0
   40.7359   14.4605    5.9974 C   0  0  2  0  0  0  0  0  0  0  0  0
   36.9599   18.9984    8.7628 O   0  0  0  0  0  0  0  0  0  0  0  0
   39.3397    9.4545    5.2509 N   0  0  0  0  0  0  0  0  0  0  0  0
   38.7168   10.4035    6.0363 C   0  0  0  0  0  0  0  0  0  0  0  0
   39.2274   11.6840    6.1155 N   0  0  0  0  0  0  0  0  0  0  0  0
   40.3444   12.0190    5.4248 C   0  0  0  0  0  0  0  0  0  0  0  0
   40.9854   11.0784    4.6300 C   0  0  0  0  0  0  0  0  0  0  0  0
   40.4774    9.7877    4.5441 C   0  0  0  0  0  0  0  0  0  0  0  0
   41.0836    8.8783    3.7867 N   0  0  0  0  0  0  0  0  0  0  0  0
   42.0568   11.6739    4.0631 N   0  0  0  0  0  0  0  0  0  0  0  0
   42.1094   12.9608    4.4773 C   0  0  0  0  0  0  0  0  0  0  0  0
   41.0540   13.1895    5.3221 N   0  0  0  0  0  0  0  0  0  0  0  0
  2  1  1  6  0  0  0
  2  3  1  0  0  0  0
  2  5  1  0  0  0  0
  3  4  1  0  0  0  0
  3 16  1  0  0  0  0
  5  6  1  0  0  0  0
  6  7  1  0  0  0  0
  7  8  1  0  0  0  0
  9  8  1  6  0  0  0
  9 10  1  0  0  0  0
  9 11  1  0  0  0  0
 10 15  1  0  0  0  0
 11 12  1  1  0  0  0
 11 13  1  0  0  0  0
 13 14  1  1  0  0  0
 13 15  1  0  0  0  0
 15 26  1  6  0  0  0
 17 18  2  0  0  0  0
 17 22  1  0  0  0  0
 18 19  1  0  0  0  0
 19 20  2  0  0  0  0
 20 21  1  0  0  0  0
 20 26  1  0  0  0  0
 21 22  2  0  0  0  0
 21 24  1  0  0  0  0
 22 23  1  0  0  0  0
 24 25  2  0  0  0  0
 25 26  1  0  0  0  0
M  END
>  <CHROM.1>
-23.12740527,-174.24161420,-148.86612050,-162.06142142,-76.78356929,-162.57795857
27.07288053,38.46831368,14.57906061,6.68268029,2.28064856,0.59210277,0.09614535

>  <Name>
ligand

>  <RI>
0

>  <Rbt.Current_Directory>
/home/itssahil/PROJECTS/Mol_Feturizer/New_Systems/rnas/3NPQ

>  <Rbt.Executable>
rbdock ($Id: //depot/dev/client3/rdock/2013.1/src/exe/rbdock.cxx#4 $)

>  <Rbt.Library>
libRbt.so (2013.1, Build901 2013/11/27)

>  <Rbt.Parameter_File>
/export/apps/rDock/src/rDock_2013.1_src/data/scripts/dock_solv.prm

>  <Rbt.Receptor>
prm/pocket_docking_2.prm

>  <SCORE>
-28.1918

>  <SCORE.INTER>
-27.3091

>  <SCORE.INTER.CONST>
1

>  <SCORE.INTER.POLAR>
0

>  <SCORE.INTER.ROT>
7

>  <SCORE.INTER.SOLV>
22.2749

>  <SCORE.INTER.VDW>
-33.8977

>  <SCORE.INTER.norm>
-1.05035

>  <SCORE.INTRA>
-0.886367

>  <SCORE.INTRA.DIHEDRAL>
0.688663

>  <SCORE.INTRA.DIHEDRAL.0>
6.97628

>  <SCORE.INTRA.POLAR>
0

>  <SCORE.INTRA.POLAR.0>
0

>  <SCORE.INTRA.REPUL>
0

>  <SCORE.INTRA.REPUL.0>
0

>  <SCORE.INTRA.SOLV>
-0.542632

>  <SCORE.INTRA.SOLV.lig_0>
-49.8243

>  <SCORE.INTRA.VDW>
-0.959382

>  <SCORE.INTRA.VDW.0>
-1.35881

>  <SCORE.INTRA.norm>
-0.034091

>  <SCORE.RESTR>
0.00360842

>  <SCORE.RESTR.CAVITY>
0.00360842

>  <SCORE.RESTR.norm>
0.000138785

>  <SCORE.SYSTEM>
0

>  <SCORE.SYSTEM.CONST>
0

>  <SCORE.SYSTEM.DIHEDRAL>
0

>  <SCORE.SYSTEM.SOLV>
0

>  <SCORE.SYSTEM.norm>
0

>  <SCORE.heavy>
26

>  <SCORE.norm>
-1.0843

>  <RMSD>
1.864

$$$$
ligand
 OpenBabel11021811483D
libRbt.so/2013.1/901 2013/11/27
 26 28  0  0  0  0  0  0  0  0999 V2000
   33.6424   18.4827   10.5041 N   0  0  0  0  0  0  0  0  0  0  0  0
   34.9286   18.0301    9.9890 C   0  0  2  0  0  0  0  0  0  0  0  0
   35.5310   19.0578    9.0378 C   0  0  0  0  0  0  0  0  0  0  0  0
   34.8155   19.8484    8.4238 O   0  0  0  0  0  0  0  0  0  0  0  0
   34.7784   16.6889    9.2821 C   0  0  0  0  0  0  0  0  0  0  0  0
   36.0978   16.0581    8.8570 C   0  0  0  0  0  0  0  0  0  0  0  0
   35.9441   15.0837    7.3387 S   0  0  0  0  0  0  0  0  0  0  0  0
   37.5281   14.2802    7.6902 C   0  0  0  0  0  0  0  0  0  0  0  0
   38.7238   15.1580    7.3397 C   0  0  1  0  0  0  0  0  0  0  0  0
   39.8955   14.3674    7.2551 O   0  0  0  0  0  0  0  0  0  0  0  0
   38.5340   15.8518    6.0006 C   0  0  1  0  0  0  0  0  0  0  0  0
   38.4915   17.2471    6.1837 O   0  0  0  0  0  0  0  0  0  0  0  0
   39.7393   15.4743    5.1647 C   0  0  1  0  0  0  0  0  0  0  0  0
   40.4301   16.6336    4.7606 O   0  0  0  0  0  0  0  0  0  0  0  0
   40.6204   14.6285    6.0679 C   0  0  2  0  0  0  0  0  0  0  0  0
   36.7482   19.1219    8.8615 O   0  0  0  0  0  0  0  0  0  0  0  0
   39.3137    9.5976    5.3262 N   0  0  0  0  0  0  0  0  0  0  0  0
   38.6703   10.5379    6.1056 C   0  0  0  0  0  0  0  0  0  0  0  0
   39.1586   11.8271    6.1845 N   0  0  0  0  0  0  0  0  0  0  0  0
   40.2737   12.1793    5.4993 C   0  0  0  0  0  0  0  0  0  0  0  0
   40.9352   11.2477    4.7106 C   0  0  0  0  0  0  0  0  0  0  0  0
   40.4496    9.9484    4.6251 C   0  0  0  0  0  0  0  0  0  0  0  0
   41.0755    9.0475    3.8735 N   0  0  0  0  0  0  0  0  0  0  0  0
   41.9995   11.8600    4.1483 N   0  0  0  0  0  0  0  0  0  0  0  0
   42.0279   13.1486    4.5595 C   0  0  0  0  0  0  0  0  0  0  0  0
   40.9640   13.3614    5.3977 N   0  0  0  0  0  0  0  0  0  0  0  0
  2  1  1  6  0  0  0
  2  3  1  0  0  0  0
  2  5  1  0  0  0  0
  3  4  1  0  0  0  0
  3 16  1  0  0  0  0
  5  6  1  0  0  0  0
  6  7  1  0  0  0  0
  7  8  1  0  0  0  0
  9  8  1  6  0  0  0
  9 10  1  0  0  0  0
  9 11  1  0  0  0  0
 10 15  1  0  0  0  0
 11 12  1  1  0  0  0
 11 13  1  0  0  0  0
 13 14  1  1  0  0  0
 13 15  1  0  0  0  0
 15 26  1  6  0  0  0
 17 18  2  0  0  0  0
 17 22  1  0  0  0  0
 18 19  1  0  0  0  0
 19 20  2  0  0  0  0
 20 21  1  0  0  0  0
 20 26  1  0  0  0  0
 21 22  2  0  0  0  0
 21 24  1  0  0  0  0
 22 23  1  0  0  0  0
 24 25  2  0  0  0  0
 25 26  1  0  0  0  0
M  END
>  <CHROM.1>
-25.57214302,-173.05570750,-147.95888717,-163.79195817,-78.47263048,-162.80536901
26.33795125,38.34051237,14.71276941,6.73106049,2.30128716,0.58167231,0.08546927

>  <Name>
ligand

>  <RI>
0

>  <Rbt.Current_Directory>
/home/itssahil/PROJECTS/Mol_Feturizer/New_Systems/rnas/3NPQ

>  <Rbt.Executable>
rbdock ($Id: //depot/dev/client3/rdock/2013.1/src/exe/rbdock.cxx#4 $)

>  <Rbt.Library>
libRbt.so (2013.1, Build901 2013/11/27)

>  <Rbt.Parameter_File>
/export/apps/rDock/src/rDock_2013.1_src/data/scripts/dock_solv.prm

>  <Rbt.Receptor>
prm/pocket_docking_4.prm

>  <SCORE>
-28.8437

>  <SCORE.INTER>
-27.9497

>  <SCORE.INTER.CONST>
1

>  <SCORE.INTER.POLAR>
0

>  <SCORE.INTER.ROT>
7

>  <SCORE.INTER.SOLV>
22.6708

>  <SCORE.INTER.VDW>
-34.4567

>  <SCORE.INTER.norm>
-1.07499

>  <SCORE.INTRA>
-0.89398

>  <SCORE.INTRA.DIHEDRAL>
0.851817

>  <SCORE.INTRA.DIHEDRAL.0>
6.97628

>  <SCORE.INTRA.POLAR>
0

>  <SCORE.INTRA.POLAR.0>
0

>  <SCORE.INTRA.REPUL>
0

>  <SCORE.INTRA.REPUL.0>
0

>  <SCORE.INTRA.SOLV>
-0.55666

>  <SCORE.INTRA.SOLV.lig_0>
-49.8243

>  <SCORE.INTRA.VDW>
-1.04156

>  <SCORE.INTRA.VDW.0>
-1.35881

>  <SCORE.INTRA.norm>
-0.0343838

>  <SCORE.RESTR>
0

>  <SCORE.RESTR.CAVITY>
0

>  <SCORE.RESTR.norm>
0

>  <SCORE.SYSTEM>
0

>  <SCORE.SYSTEM.CONST>
0

>  <SCORE.SYSTEM.DIHEDRAL>
0

>  <SCORE.SYSTEM.SOLV>
0

>  <SCORE.SYSTEM.norm>
0

>  <SCORE.heavy>
26

>  <SCORE.norm>
-1.10937

>  <RMSD>
1.868

$$$$
ligand
 OpenBabel11021811483D
libRbt.so/2013.1/901 2013/11/27
 26 28  0  0  0  0  0  0  0  0999 V2000
   33.6696   18.4129   10.0501 N   0  0  0  0  0  0  0  0  0  0  0  0
   34.8379   17.8520    9.3828 C   0  0  2  0  0  0  0  0  0  0  0  0
   35.6573   18.9426    8.7024 C   0  0  0  0  0  0  0  0  0  0  0  0
   36.8866   18.9361    8.7533 O   0  0  0  0  0  0  0  0  0  0  0  0
   34.4169   16.8017    8.3627 C   0  0  0  0  0  0  0  0  0  0  0  0
   35.5733   15.9966    7.7846 C   0  0  0  0  0  0  0  0  0  0  0  0
   36.4534   15.0415    9.0462 S   0  0  0  0  0  0  0  0  0  0  0  0
   37.5024   14.3096    7.7648 C   0  0  0  0  0  0  0  0  0  0  0  0
   38.7023   15.1828    7.4168 C   0  0  1  0  0  0  0  0  0  0  0  0
   39.8690   14.3860    7.3234 O   0  0  0  0  0  0  0  0  0  0  0  0
   38.5126   15.8870    6.0832 C   0  0  1  0  0  0  0  0  0  0  0  0
   38.4789   17.2813    6.2761 O   0  0  0  0  0  0  0  0  0  0  0  0
   39.7133   15.5083    5.2412 C   0  0  1  0  0  0  0  0  0  0  0  0
   40.4097   16.6663    4.8431 O   0  0  0  0  0  0  0  0  0  0  0  0
   40.5920   14.6511    6.1358 C   0  0  2  0  0  0  0  0  0  0  0  0
   35.1086   19.8561    8.0849 O   0  0  0  0  0  0  0  0  0  0  0  0
   39.2624    9.6290    5.3752 N   0  0  0  0  0  0  0  0  0  0  0  0
   38.6281   10.5670    6.1648 C   0  0  0  0  0  0  0  0  0  0  0  0
   39.1215   11.8541    6.2474 N   0  0  0  0  0  0  0  0  0  0  0  0
   40.2326   12.2063    5.5559 C   0  0  0  0  0  0  0  0  0  0  0  0
   40.8849   11.2771    4.7569 C   0  0  0  0  0  0  0  0  0  0  0  0
   40.3943    9.9800    4.6676 C   0  0  0  0  0  0  0  0  0  0  0  0
   41.0114    9.0813    3.9062 N   0  0  0  0  0  0  0  0  0  0  0  0
   41.9472   11.8890    4.1901 N   0  0  0  0  0  0  0  0  0  0  0  0
   41.9831   13.1750    4.6084 C   0  0  0  0  0  0  0  0  0  0  0  0
   40.9261   13.3867    5.4558 N   0  0  0  0  0  0  0  0  0  0  0  0
  2  1  1  6  0  0  0
  2  3  1  0  0  0  0
  2  5  1  0  0  0  0
  3  4  1  0  0  0  0
  3 16  1  0  0  0  0
  5  6  1  0  0  0  0
  6  7  1  0  0  0  0
  7  8  1  0  0  0  0
  9  8  1  6  0  0  0
  9 10  1  0  0  0  0
  9 11  1  0  0  0  0
 10 15  1  0  0  0  0
 11 12  1  1  0  0  0
 11 13  1  0  0  0  0
 13 14  1  1  0  0  0
 13 15  1  0  0  0  0
 15 26  1  6  0  0  0
 17 18  2  0  0  0  0
 17 22  1  0  0  0  0
 18 19  1  0  0  0  0
 19 20  2  0  0  0  0
 20 21  1  0  0  0  0
 20 26  1  0  0  0  0
 21 22  2  0  0  0  0
 21 24  1  0  0  0  0
 22 23  1  0  0  0  0
 24 25  2  0  0  0  0
 25 26  1  0  0  0  0
M  END
>  <CHROM.1>
138.45046487,-170.27332705,62.14138627,176.22991612,85.06580723,135.63459806
26.03183327,38.34779516,14.70986778,6.77565632,2.31835318,0.59978873,0.03614908

>  <Name>
ligand

>  <RI>
0

>  <Rbt.Current_Directory>
/home/itssahil/PROJECTS/Mol_Feturizer/New_Systems/rnas/3NPQ

>  <Rbt.Executable>
rbdock ($Id: //depot/dev/client3/rdock/2013.1/src/exe/rbdock.cxx#4 $)

>  <Rbt.Library>
libRbt.so (2013.1, Build901 2013/11/27)

>  <Rbt.Parameter_File>
/export/apps/rDock/src/rDock_2013.1_src/data/scripts/dock_solv.prm

>  <Rbt.Receptor>
prm/pocket_docking_2.prm

>  <SCORE>
-29.5804

>  <SCORE.INTER>
-27.919

>  <SCORE.INTER.CONST>
1

>  <SCORE.INTER.POLAR>
0

>  <SCORE.INTER.ROT>
7

>  <SCORE.INTER.SOLV>
21.8266

>  <SCORE.INTER.VDW>
-34.1549

>  <SCORE.INTER.norm>
-1.07381

>  <SCORE.INTRA>
-1.66138

>  <SCORE.INTRA.DIHEDRAL>
1.41842

>  <SCORE.INTRA.DIHEDRAL.0>
6.97628

>  <SCORE.INTRA.POLAR>
0

>  <SCORE.INTRA.POLAR.0>
0

>  <SCORE.INTRA.REPUL>
0

>  <SCORE.INTRA.REPUL.0>
0

>  <SCORE.INTRA.SOLV>
-0.47364

>  <SCORE.INTRA.SOLV.lig_0>
-49.8243

>  <SCORE.INTRA.VDW>
-2.13377

>  <SCORE.INTRA.VDW.0>
-1.35881

>  <SCORE.INTRA.norm>
-0.0638993

>  <SCORE.RESTR>
0

>  <SCORE.RESTR.CAVITY>
0

>  <SCORE.RESTR.norm>
0

>  <SCORE.SYSTEM>
0

>  <SCORE.SYSTEM.CONST>
0

>  <SCORE.SYSTEM.DIHEDRAL>
0

>  <SCORE.SYSTEM.SOLV>
0

>  <SCORE.SYSTEM.norm>
0

>  <SCORE.heavy>
26

>  <SCORE.norm>
-1.13771

>  <RMSD>
1.870

$$$$
ligand
 OpenBabel11021811483D
libRbt.so/2013.1/901 2013/11/27
 26 28  0  0  0  0  0  0  0  0999 V2000
   33.0484   17.9649    9.0374 N   0  0  0  0  0  0  0  0  0  0  0  0
   34.4643   17.7836    9.3325 C   0  0  2  0  0  0  0  0  0  0  0  0
   35.2867   18.9599    8.8187 C   0  0  0  0  0  0  0  0  0  0  0  0
   36.4635   19.1020    9.1485 O   0  0  0  0  0  0  0  0  0  0  0  0
   34.9743   16.4838    8.7232 C   0  0  0  0  0  0  0  0  0  0  0  0
   36.3811   16.1000    9.1629 C   0  0  0  0  0  0  0  0  0  0  0  0
   36.9139   14.5115    8.4766 S   0  0  0  0  0  0  0  0  0  0  0  0
   37.4035   15.3357    6.9406 C   0  0  0  0  0  0  0  0  0  0  0  0
   38.8292   15.8728    6.9896 C   0  0  1  0  0  0  0  0  0  0  0  0
   39.7428   14.8038    7.1561 O   0  0  0  0  0  0  0  0  0  0  0  0
   39.1958   16.6017    5.7072 C   0  0  1  0  0  0  0  0  0  0  0  0
   39.4539   17.9582    5.9820 O   0  0  0  0  0  0  0  0  0  0  0  0
   40.4512   15.9282    5.1931 C   0  0  1  0  0  0  0  0  0  0  0  0
   41.4932   16.8692    5.0791 O   0  0  0  0  0  0  0  0  0  0  0  0
   40.8087   14.8748    6.2276 C   0  0  2  0  0  0  0  0  0  0  0  0
   34.7931   19.7958    8.0607 O   0  0  0  0  0  0  0  0  0  0  0  0
   39.0245    9.9633    5.7166 N   0  0  0  0  0  0  0  0  0  0  0  0
   38.5173   10.9749    6.5071 C   0  0  0  0  0  0  0  0  0  0  0  0
   39.1199   12.2173    6.5175 N   0  0  0  0  0  0  0  0  0  0  0  0
   40.2143   12.4531    5.7536 C   0  0  0  0  0  0  0  0  0  0  0  0
   40.7396   11.4484    4.9525 C   0  0  0  0  0  0  0  0  0  0  0  0
   40.1386   10.1955    4.9355 C   0  0  0  0  0  0  0  0  0  0  0  0
   40.6336    9.2253    4.1728 N   0  0  0  0  0  0  0  0  0  0  0  0
   41.8142   11.9506    4.3067 N   0  0  0  0  0  0  0  0  0  0  0  0
   41.9811   13.2409    4.6776 C   0  0  0  0  0  0  0  0  0  0  0  0
   40.9965   13.5668    5.5744 N   0  0  0  0  0  0  0  0  0  0  0  0
  2  1  1  6  0  0  0
  2  3  1  0  0  0  0
  2  5  1  0  0  0  0
  3  4  1  0  0  0  0
  3 16  1  0  0  0  0
  5  6  1  0  0  0  0
  6  7  1  0  0  0  0
  7  8  1  0  0  0  0
  9  8  1  6  0  0  0
  9 10  1  0  0  0  0
  9 11  1  0  0  0  0
 10 15  1  0  0  0  0
 11 12  1  1  0  0  0
 11 13  1  0  0  0  0
 13 14  1  1  0  0  0
 13 15  1  0  0  0  0
 15 26  1  6  0  0  0
 17 18  2  0  0  0  0
 17 22  1  0  0  0  0
 18 19  1  0  0  0  0
 19 20  2  0  0  0  0
 20 21  1  0  0  0  0
 20 26  1  0  0  0  0
 21 22  2  0  0  0  0
 21 24  1  0  0  0  0
 22 23  1  0  0  0  0
 24 25  2  0  0  0  0
 25 26  1  0  0  0  0
M  END
>  <CHROM.1>
168.46068851,-170.79640623,177.27754811,83.12611034,87.09639430,62.47570270
4.02777481,38.45614670,14.88310829,6.78110062,2.31838894,0.53596673,0.06659714

>  <Name>
ligand

>  <RI>
0

>  <Rbt.Current_Directory>
/home/itssahil/PROJECTS/Mol_Feturizer/New_Systems/rnas/3NPQ

>  <Rbt.Executable>
rbdock ($Id: //depot/dev/client3/rdock/2013.1/src/exe/rbdock.cxx#4 $)

>  <Rbt.Library>
libRbt.so (2013.1, Build901 2013/11/27)

>  <Rbt.Parameter_File>
/export/apps/rDock/src/rDock_2013.1_src/data/scripts/dock_solv.prm

>  <Rbt.Receptor>
prm/pocket_docking_3.prm

>  <SCORE>
-29.2315

>  <SCORE.INTER>
-26.7913

>  <SCORE.INTER.CONST>
1

>  <SCORE.INTER.POLAR>
0

>  <SCORE.INTER.ROT>
7

>  <SCORE.INTER.SOLV>
20.8465

>  <SCORE.INTER.VDW>
-33.0764

>  <SCORE.INTER.norm>
-1.03043

>  <SCORE.INTRA>
-2.44022

>  <SCORE.INTRA.DIHEDRAL>
-2.14538

>  <SCORE.INTRA.DIHEDRAL.0>
6.97628

>  <SCORE.INTRA.POLAR>
0

>  <SCORE.INTRA.POLAR.0>
0

>  <SCORE.INTRA.REPUL>
0

>  <SCORE.INTRA.REPUL.0>
0

>  <SCORE.INTRA.SOLV>
-0.801754

>  <SCORE.INTRA.SOLV.lig_0>
-49.8243

>  <SCORE.INTRA.VDW>
-0.966654

>  <SCORE.INTRA.VDW.0>
-1.35881

>  <SCORE.INTRA.norm>
-0.0938547

>  <SCORE.RESTR>
0

>  <SCORE.RESTR.CAVITY>
0

>  <SCORE.RESTR.norm>
0

>  <SCORE.SYSTEM>
0

>  <SCORE.SYSTEM.CONST>
0

>  <SCORE.SYSTEM.DIHEDRAL>
0

>  <SCORE.SYSTEM.SOLV>
0

>  <SCORE.SYSTEM.norm>
0

>  <SCORE.heavy>
26

>  <SCORE.norm>
-1.12429

>  <RMSD>
1.877

$$$$
ligand
 OpenBabel11021811483D
libRbt.so/2013.1/901 2013/11/27
 26 28  0  0  0  0  0  0  0  0999 V2000
   32.9851   17.9705    8.8454 N   0  0  0  0  0  0  0  0  0  0  0  0
   34.3694   17.7602    9.2504 C   0  0  2  0  0  0  0  0  0  0  0  0
   35.2530   18.9207    8.8072 C   0  0  0  0  0  0  0  0  0  0  0  0
   34.9170   19.6535    7.8777 O   0  0  0  0  0  0  0  0  0  0  0  0
   34.8999   16.4516    8.6784 C   0  0  0  0  0  0  0  0  0  0  0  0
   36.2964   16.0820    9.1610 C   0  0  0  0  0  0  0  0  0  0  0  0
   36.8681   14.5015    8.4874 S   0  0  0  0  0  0  0  0  0  0  0  0
   37.4142   15.3388    6.9778 C   0  0  0  0  0  0  0  0  0  0  0  0
   38.8497   15.8426    7.0708 C   0  0  1  0  0  0  0  0  0  0  0  0
   39.7368   14.7493    7.2212 O   0  0  0  0  0  0  0  0  0  0  0  0
   39.2571   16.6027    5.8191 C   0  0  1  0  0  0  0  0  0  0  0  0
   39.5387   17.9440    6.1413 O   0  0  0  0  0  0  0  0  0  0  0  0
   40.5078   15.9180    5.3083 C   0  0  1  0  0  0  0  0  0  0  0  0
   41.5717   16.8390    5.2438 O   0  0  0  0  0  0  0  0  0  0  0  0
   40.8222   14.8255    6.3159 C   0  0  2  0  0  0  0  0  0  0  0  0
   36.3240   19.1530    9.3692 O   0  0  0  0  0  0  0  0  0  0  0  0
   38.9909    9.9463    5.6777 N   0  0  0  0  0  0  0  0  0  0  0  0
   38.4967   10.9401    6.4985 C   0  0  0  0  0  0  0  0  0  0  0  0
   39.1106   12.1763    6.5404 N   0  0  0  0  0  0  0  0  0  0  0  0
   40.2035   12.4234    5.7778 C   0  0  0  0  0  0  0  0  0  0  0  0
   40.7157   11.4367    4.9465 C   0  0  0  0  0  0  0  0  0  0  0  0
   40.1033   10.1902    4.8978 C   0  0  0  0  0  0  0  0  0  0  0  0
   40.5857    9.2372    4.1059 N   0  0  0  0  0  0  0  0  0  0  0  0
   41.7918   11.9470    4.3095 N   0  0  0  0  0  0  0  0  0  0  0  0
   41.9722   13.2250    4.7152 C   0  0  0  0  0  0  0  0  0  0  0  0
   40.9949   13.5346    5.6257 N   0  0  0  0  0  0  0  0  0  0  0  0
  2  1  1  6  0  0  0
  2  3  1  0  0  0  0
  2  5  1  0  0  0  0
  3  4  1  0  0  0  0
  3 16  1  0  0  0  0
  5  6  1  0  0  0  0
  6  7  1  0  0  0  0
  7  8  1  0  0  0  0
  9  8  1  6  0  0  0
  9 10  1  0  0  0  0
  9 11  1  0  0  0  0
 10 15  1  0  0  0  0
 11 12  1  1  0  0  0
 11 13  1  0  0  0  0
 13 14  1  1  0  0  0
 13 15  1  0  0  0  0
 15 26  1  6  0  0  0
 17 18  2  0  0  0  0
 17 22  1  0  0  0  0
 18 19  1  0  0  0  0
 19 20  2  0  0  0  0
 20 21  1  0  0  0  0
 20 26  1  0  0  0  0
 21 22  2  0  0  0  0
 21 24  1  0  0  0  0
 22 23  1  0  0  0  0
 24 25  2  0  0  0  0
 25 26  1  0  0  0  0
M  END
>  <CHROM.1>
-22.24047399,-174.35586188,178.59879607,83.75205940,89.09466747,63.39083735
2.44360891,38.44379853,14.86128310,6.80247013,2.30563673,0.50452204,0.09502718

>  <Name>
ligand

>  <RI>
0

>  <Rbt.Current_Directory>
/home/itssahil/PROJECTS/Mol_Feturizer/New_Systems/rnas/3NPQ

>  <Rbt.Executable>
rbdock ($Id: //depot/dev/client3/rdock/2013.1/src/exe/rbdock.cxx#4 $)

>  <Rbt.Library>
libRbt.so (2013.1, Build901 2013/11/27)

>  <Rbt.Parameter_File>
/export/apps/rDock/src/rDock_2013.1_src/data/scripts/dock_solv.prm

>  <Rbt.Receptor>
prm/pocket_docking_4.prm

>  <SCORE>
-29.2329

>  <SCORE.INTER>
-26.6873

>  <SCORE.INTER.CONST>
1

>  <SCORE.INTER.POLAR>
0

>  <SCORE.INTER.ROT>
7

>  <SCORE.INTER.SOLV>
21.2098

>  <SCORE.INTER.VDW>
-33.1281

>  <SCORE.INTER.norm>
-1.02643

>  <SCORE.INTRA>
-2.54561

>  <SCORE.INTRA.DIHEDRAL>
-2.1833

>  <SCORE.INTRA.DIHEDRAL.0>
6.97628

>  <SCORE.INTRA.POLAR>
0

>  <SCORE.INTRA.POLAR.0>
0

>  <SCORE.INTRA.REPUL>
0

>  <SCORE.INTRA.REPUL.0>
0

>  <SCORE.INTRA.SOLV>
-0.81499

>  <SCORE.INTRA.SOLV.lig_0>
-49.8243

>  <SCORE.INTRA.VDW>
-1.04647

>  <SCORE.INTRA.VDW.0>
-1.35881

>  <SCORE.INTRA.norm>
-0.0979081

>  <SCORE.RESTR>
0

>  <SCORE.RESTR.CAVITY>
0

>  <SCORE.RESTR.norm>
0

>  <SCORE.SYSTEM>
0

>  <SCORE.SYSTEM.CONST>
0

>  <SCORE.SYSTEM.DIHEDRAL>
0

>  <SCORE.SYSTEM.SOLV>
0

>  <SCORE.SYSTEM.norm>
0

>  <SCORE.heavy>
26

>  <SCORE.norm>
-1.12434

>  <RMSD>
1.879

$$$$
ligand
 OpenBabel11021811483D
libRbt.so/2013.1/901 2013/11/27
 26 28  0  0  0  0  0  0  0  0999 V2000
   33.4705   17.7435    7.8960 N   0  0  0  0  0  0  0  0  0  0  0  0
   34.6767   16.9256    7.9184 C   0  0  2  0  0  0  0  0  0  0  0  0
   34.5613   15.7512    6.9533 C   0  0  0  0  0  0  0  0  0  0  0  0
   33.4888   15.4753    6.4169 O   0  0  0  0  0  0  0  0  0  0  0  0
   34.9514   16.4180    9.3284 C   0  0  0  0  0  0  0  0  0  0  0  0
   36.2014   15.5560    9.4472 C   0  0  0  0  0  0  0  0  0  0  0  0
   37.6656   16.3559    8.7438 S   0  0  0  0  0  0  0  0  0  0  0  0
   38.2482   14.7557    8.1288 C   0  0  0  0  0  0  0  0  0  0  0  0
   39.5659   14.8613    7.3701 C   0  0  1  0  0  0  0  0  0  0  0  0
   40.1894   13.5916    7.3054 O   0  0  0  0  0  0  0  0  0  0  0  0
   39.3529   15.3473    5.9457 C   0  0  1  0  0  0  0  0  0  0  0  0
   39.9895   16.5895    5.7612 O   0  0  0  0  0  0  0  0  0  0  0  0
   39.9872   14.3012    5.0526 C   0  0  1  0  0  0  0  0  0  0  0  0
   40.9854   14.8897    4.2517 O   0  0  0  0  0  0  0  0  0  0  0  0
   40.6044   13.2770    5.9893 C   0  0  2  0  0  0  0  0  0  0  0  0
   35.5386   15.0508    6.6869 O   0  0  0  0  0  0  0  0  0  0  0  0
   41.6153    8.9411    3.2061 N   0  0  0  0  0  0  0  0  0  0  0  0
   42.3614   10.1004    3.2764 C   0  0  0  0  0  0  0  0  0  0  0  0
   41.9406   11.1510    4.0676 N   0  0  0  0  0  0  0  0  0  0  0  0
   40.7917   11.0533    4.7800 C   0  0  0  0  0  0  0  0  0  0  0  0
   40.0274    9.8959    4.7220 C   0  0  0  0  0  0  0  0  0  0  0  0
   40.4443    8.8337    3.9288 C   0  0  0  0  0  0  0  0  0  0  0  0
   39.7198    7.7206    3.8649 N   0  0  0  0  0  0  0  0  0  0  0  0
   38.9508   10.0683    5.5190 N   0  0  0  0  0  0  0  0  0  0  0  0
   39.0145   11.2993    6.0765 C   0  0  0  0  0  0  0  0  0  0  0  0
   40.1507   11.9220    5.6277 N   0  0  0  0  0  0  0  0  0  0  0  0
  2  1  1  1  0  0  0
  2  3  1  0  0  0  0
  2  5  1  0  0  0  0
  3  4  1  0  0  0  0
  3 16  1  0  0  0  0
  5  6  1  0  0  0  0
  6  7  1  0  0  0  0
  7  8  1  0  0  0  0
  9  8  1  6  0  0  0
  9 10  1  0  0  0  0
  9 11  1  0  0  0  0
 10 15  1  0  0  0  0
 11 12  1  1  0  0  0
 11 13  1  0  0  0  0
 13 14  1  1  0  0  0
 13 15  1  0  0  0  0
 15 26  1  6  0  0  0
 17 18  2  0  0  0  0
 17 22  1  0  0  0  0
 18 19  1  0  0  0  0
 19 20  2  0  0  0  0
 20 21  1  0  0  0  0
 20 26  1  0  0  0  0
 21 22  2  0  0  0  0
 21 24  1  0  0  0  0
 22 23  1  0  0  0  0
 24 25  2  0  0  0  0
 25 26  1  0  0  0  0
M  END
>  <CHROM.1>
-10.13077525,-179.74786150,52.11300536,-142.94613178,179.35603523,160.61192819
-148.93210581,38.54025562,13.61987677,6.24651134,2.22476084,0.21394416,0.38368709

>  <Name>
ligand

>  <RI>
0

>  <Rbt.Current_Directory>
/home/itssahil/PROJECTS/Mol_Feturizer/New_Systems/rnas/3NPQ

>  <Rbt.Executable>
rbdock ($Id: //depot/dev/client3/rdock/2013.1/src/exe/rbdock.cxx#4 $)

>  <Rbt.Library>
libRbt.so (2013.1, Build901 2013/11/27)

>  <Rbt.Parameter_File>
/export/apps/rDock/src/rDock_2013.1_src/data/scripts/dock_solv.prm

>  <Rbt.Receptor>
prm/pocket_docking_3.prm

>  <SCORE>
-25.8932

>  <SCORE.INTER>
-24.1128

>  <SCORE.INTER.CONST>
1

>  <SCORE.INTER.POLAR>
0

>  <SCORE.INTER.ROT>
7

>  <SCORE.INTER.SOLV>
27.5672

>  <SCORE.INTER.VDW>
-33.531

>  <SCORE.INTER.norm>
-0.927417

>  <SCORE.INTRA>
-1.7956

>  <SCORE.INTRA.DIHEDRAL>
-1.19539

>  <SCORE.INTRA.DIHEDRAL.0>
6.97628

>  <SCORE.INTRA.POLAR>
0

>  <SCORE.INTRA.POLAR.0>
0

>  <SCORE.INTRA.REPUL>
0

>  <SCORE.INTRA.REPUL.0>
0

>  <SCORE.INTRA.SOLV>
-0.638131

>  <SCORE.INTRA.SOLV.lig_0>
-49.8243

>  <SCORE.INTRA.VDW>
-0.878837

>  <SCORE.INTRA.VDW.0>
-1.35881

>  <SCORE.INTRA.norm>
-0.0690615

>  <SCORE.RESTR>
0.0152044

>  <SCORE.RESTR.CAVITY>
0.0152044

>  <SCORE.RESTR.norm>
0.000584783

>  <SCORE.SYSTEM>
0

>  <SCORE.SYSTEM.CONST>
0

>  <SCORE.SYSTEM.DIHEDRAL>
0

>  <SCORE.SYSTEM.SOLV>
0

>  <SCORE.SYSTEM.norm>
0

>  <SCORE.heavy>
26

>  <SCORE.norm>
-0.995894

>  <RMSD>
1.887

$$$$
ligand
 OpenBabel11021811483D
libRbt.so/2013.1/901 2013/11/27
 26 28  0  0  0  0  0  0  0  0999 V2000
   32.9351   17.9626    8.8509 N   0  0  0  0  0  0  0  0  0  0  0  0
   34.3130   17.7576    9.2799 C   0  0  2  0  0  0  0  0  0  0  0  0
   35.1897   18.9438    8.8949 C   0  0  0  0  0  0  0  0  0  0  0  0
   36.3108   19.0870    9.3811 O   0  0  0  0  0  0  0  0  0  0  0  0
   34.8745   16.4758    8.6776 C   0  0  0  0  0  0  0  0  0  0  0  0
   36.2380   16.0756    9.2256 C   0  0  0  0  0  0  0  0  0  0  0  0
   36.8269   14.5053    8.5431 S   0  0  0  0  0  0  0  0  0  0  0  0
   37.3949   15.3625    7.0529 C   0  0  0  0  0  0  0  0  0  0  0  0
   38.8426   15.8280    7.1575 C   0  0  1  0  0  0  0  0  0  0  0  0
   39.7013   14.7100    7.2904 O   0  0  0  0  0  0  0  0  0  0  0  0
   39.2722   16.5992    5.9202 C   0  0  1  0  0  0  0  0  0  0  0  0
   39.5869   17.9272    6.2664 O   0  0  0  0  0  0  0  0  0  0  0  0
   40.5063   15.8920    5.3998 C   0  0  1  0  0  0  0  0  0  0  0  0
   41.5934   16.7867    5.3536 O   0  0  0  0  0  0  0  0  0  0  0  0
   40.7904   14.7745    6.3887 C   0  0  2  0  0  0  0  0  0  0  0  0
   34.7971   19.7870    8.0876 O   0  0  0  0  0  0  0  0  0  0  0  0
   38.8983    9.9204    5.7363 N   0  0  0  0  0  0  0  0  0  0  0  0
   38.4365   10.9069    6.5843 C   0  0  0  0  0  0  0  0  0  0  0  0
   39.0623   12.1371    6.6256 N   0  0  0  0  0  0  0  0  0  0  0  0
   40.1353   12.3855    5.8357 C   0  0  0  0  0  0  0  0  0  0  0  0
   40.6150   11.4061    4.9767 C   0  0  0  0  0  0  0  0  0  0  0  0
   39.9902   10.1656    4.9284 C   0  0  0  0  0  0  0  0  0  0  0  0
   40.4415    9.2197    4.1102 N   0  0  0  0  0  0  0  0  0  0  0  0
   41.6770   11.9160    4.3164 N   0  0  0  0  0  0  0  0  0  0  0  0
   41.8802   13.1866    4.7342 C   0  0  0  0  0  0  0  0  0  0  0  0
   40.9320   13.4919    5.6763 N   0  0  0  0  0  0  0  0  0  0  0  0
  2  1  1  6  0  0  0
  2  3  1  0  0  0  0
  2  5  1  0  0  0  0
  3  4  1  0  0  0  0
  3 16  1  0  0  0  0
  5  6  1  0  0  0  0
  6  7  1  0  0  0  0
  7  8  1  0  0  0  0
  9  8  1  6  0  0  0
  9 10  1  0  0  0  0
  9 11  1  0  0  0  0
 10 15  1  0  0  0  0
 11 12  1  1  0  0  0
 11 13  1  0  0  0  0
 13 14  1  1  0  0  0
 13 15  1  0  0  0  0
 15 26  1  6  0  0  0
 17 18  2  0  0  0  0
 17 22  1  0  0  0  0
 18 19  1  0  0  0  0
 19 20  2  0  0  0  0
 20 21  1  0  0  0  0
 20 26  1  0  0  0  0
 21 22  2  0  0  0  0
 21 24  1  0  0  0  0
 22 23  1  0  0  0  0
 24 25  2  0  0  0  0
 25 26  1  0  0  0  0
M  END
>  <CHROM.1>
165.98060388,-171.74359520,177.12547140,81.25861190,91.08742110,63.08490086
0.43609383,38.39433134,14.84736180,6.86589810,2.29216351,0.49325840,0.11133876

>  <Name>
ligand

>  <RI>
0

>  <Rbt.Current_Directory>
/home/itssahil/PROJECTS/Mol_Feturizer/New_Systems/rnas/3NPQ

>  <Rbt.Executable>
rbdock ($Id: //depot/dev/client3/rdock/2013.1/src/exe/rbdock.cxx#4 $)

>  <Rbt.Library>
libRbt.so (2013.1, Build901 2013/11/27)

>  <Rbt.Parameter_File>
/export/apps/rDock/src/rDock_2013.1_src/data/scripts/dock_solv.prm

>  <Rbt.Receptor>
prm/pocket_docking_4.prm

>  <SCORE>
-29.2396

>  <SCORE.INTER>
-26.9305

>  <SCORE.INTER.CONST>
1

>  <SCORE.INTER.POLAR>
0

>  <SCORE.INTER.ROT>
7

>  <SCORE.INTER.SOLV>
22.0014

>  <SCORE.INTER.VDW>
-33.5541

>  <SCORE.INTER.norm>
-1.03579

>  <SCORE.INTRA>
-2.30912

>  <SCORE.INTRA.DIHEDRAL>
-2.04961

>  <SCORE.INTRA.DIHEDRAL.0>
6.97628

>  <SCORE.INTRA.POLAR>
0

>  <SCORE.INTRA.POLAR.0>
0

>  <SCORE.INTRA.REPUL>
0

>  <SCORE.INTRA.REPUL.0>
0

>  <SCORE.INTRA.SOLV>
-0.811191

>  <SCORE.INTRA.SOLV.lig_0>
-49.8243

>  <SCORE.INTRA.VDW>
-0.878718

>  <SCORE.INTRA.VDW.0>
-1.35881

>  <SCORE.INTRA.norm>
-0.0888122

>  <SCORE.RESTR>
0

>  <SCORE.RESTR.CAVITY>
0

>  <SCORE.RESTR.norm>
0

>  <SCORE.SYSTEM>
0

>  <SCORE.SYSTEM.CONST>
0

>  <SCORE.SYSTEM.DIHEDRAL>
0

>  <SCORE.SYSTEM.SOLV>
0

>  <SCORE.SYSTEM.norm>
0

>  <SCORE.heavy>
26

>  <SCORE.norm>
-1.1246

>  <RMSD>
1.893

$$$$
ligand
 OpenBabel11021811483D
libRbt.so/2013.1/901 2013/11/27
 26 28  0  0  0  0  0  0  0  0999 V2000
   33.8604   17.7933    7.9207 N   0  0  0  0  0  0  0  0  0  0  0  0
   34.9241   16.8020    7.8177 C   0  0  2  0  0  0  0  0  0  0  0  0
   34.5499   15.6956    6.8380 C   0  0  0  0  0  0  0  0  0  0  0  0
   35.4069   14.9457    6.3720 O   0  0  0  0  0  0  0  0  0  0  0  0
   35.2328   16.2062    9.1855 C   0  0  0  0  0  0  0  0  0  0  0  0
   36.6945   15.8272    9.3839 C   0  0  0  0  0  0  0  0  0  0  0  0
   37.1858   14.4052    8.3765 S   0  0  0  0  0  0  0  0  0  0  0  0
   37.9302   15.5203    7.1598 C   0  0  0  0  0  0  0  0  0  0  0  0
   39.4316   15.3065    7.0068 C   0  0  1  0  0  0  0  0  0  0  0  0
   39.7632   13.9659    7.3197 O   0  0  0  0  0  0  0  0  0  0  0  0
   39.8926   15.5792    5.5844 C   0  0  1  0  0  0  0  0  0  0  0  0
   40.7853   16.6678    5.5685 O   0  0  0  0  0  0  0  0  0  0  0  0
   40.6015   14.3199    5.1308 C   0  0  1  0  0  0  0  0  0  0  0  0
   41.9288   14.6170    4.7643 O   0  0  0  0  0  0  0  0  0  0  0  0
   40.5862   13.3832    6.3265 C   0  0  2  0  0  0  0  0  0  0  0  0
   33.3808   15.5255    6.4898 O   0  0  0  0  0  0  0  0  0  0  0  0
   41.2905    9.0885    3.3894 N   0  0  0  0  0  0  0  0  0  0  0  0
   42.1034   10.2005    3.4794 C   0  0  0  0  0  0  0  0  0  0  0  0
   41.7596   11.2474    4.3117 N   0  0  0  0  0  0  0  0  0  0  0  0
   40.6212   11.1925    5.0453 C   0  0  0  0  0  0  0  0  0  0  0  0
   39.7905   10.0829    4.9680 C   0  0  0  0  0  0  0  0  0  0  0  0
   40.1298    9.0247    4.1335 C   0  0  0  0  0  0  0  0  0  0  0  0
   39.3412    7.9573    4.0508 N   0  0  0  0  0  0  0  0  0  0  0  0
   38.7415   10.2907    5.7929 N   0  0  0  0  0  0  0  0  0  0  0  0
   38.8871   11.4975    6.3867 C   0  0  0  0  0  0  0  0  0  0  0  0
   40.0481   12.0686    5.9331 N   0  0  0  0  0  0  0  0  0  0  0  0
  2  1  1  1  0  0  0
  2  3  1  0  0  0  0
  2  5  1  0  0  0  0
  3  4  1  0  0  0  0
  3 16  1  0  0  0  0
  5  6  1  0  0  0  0
  6  7  1  0  0  0  0
  7  8  1  0  0  0  0
  9  8  1  6  0  0  0
  9 10  1  0  0  0  0
  9 11  1  0  0  0  0
 10 15  1  0  0  0  0
 11 12  1  1  0  0  0
 11 13  1  0  0  0  0
 13 14  1  1  0  0  0
 13 15  1  0  0  0  0
 15 26  1  6  0  0  0
 17 18  2  0  0  0  0
 17 22  1  0  0  0  0
 18 19  1  0  0  0  0
 19 20  2  0  0  0  0
 20 21  1  0  0  0  0
 20 26  1  0  0  0  0
 21 22  2  0  0  0  0
 21 24  1  0  0  0  0
 22 23  1  0  0  0  0
 24 25  2  0  0  0  0
 25 26  1  0  0  0  0
M  END
>  <CHROM.1>
162.83345037,-147.03733064,-69.57804436,99.54270828,117.96802373,27.79228039
-176.57575685,38.53950538,13.57079927,6.24200724,2.28478789,0.27753268,0.29928458

>  <Name>
ligand

>  <RI>
0

>  <Rbt.Current_Directory>
/home/itssahil/PROJECTS/Mol_Feturizer/New_Systems/rnas/3NPQ

>  <Rbt.Executable>
rbdock ($Id: //depot/dev/client3/rdock/2013.1/src/exe/rbdock.cxx#4 $)

>  <Rbt.Library>
libRbt.so (2013.1, Build901 2013/11/27)

>  <Rbt.Parameter_File>
/export/apps/rDock/src/rDock_2013.1_src/data/scripts/dock_solv.prm

>  <Rbt.Receptor>
prm/pocket_docking_3.prm

>  <SCORE>
-21.6661

>  <SCORE.INTER>
-25.1501

>  <SCORE.INTER.CONST>
1

>  <SCORE.INTER.POLAR>
0

>  <SCORE.INTER.ROT>
7

>  <SCORE.INTER.SOLV>
25.9656

>  <SCORE.INTER.VDW>
-33.6886

>  <SCORE.INTER.norm>
-0.96731

>  <SCORE.INTRA>
3.45604

>  <SCORE.INTRA.DIHEDRAL>
6.4746

>  <SCORE.INTRA.DIHEDRAL.0>
6.97628

>  <SCORE.INTRA.POLAR>
0

>  <SCORE.INTRA.POLAR.0>
0

>  <SCORE.INTRA.REPUL>
0

>  <SCORE.INTRA.REPUL.0>
0

>  <SCORE.INTRA.SOLV>
-0.478216

>  <SCORE.INTRA.SOLV.lig_0>
-49.8243

>  <SCORE.INTRA.VDW>
0.45785

>  <SCORE.INTRA.VDW.0>
-1.35881

>  <SCORE.INTRA.norm>
0.132925

>  <SCORE.RESTR>
0.0279023

>  <SCORE.RESTR.CAVITY>
0.0279023

>  <SCORE.RESTR.norm>
0.00107316

>  <SCORE.SYSTEM>
0

>  <SCORE.SYSTEM.CONST>
0

>  <SCORE.SYSTEM.DIHEDRAL>
0

>  <SCORE.SYSTEM.SOLV>
0

>  <SCORE.SYSTEM.norm>
0

>  <SCORE.heavy>
26

>  <SCORE.norm>
-0.833312

>  <RMSD>
1.906

$$$$
ligand
 OpenBabel11021811483D
libRbt.so/2013.1/901 2013/11/27
 26 28  0  0  0  0  0  0  0  0999 V2000
   33.5818   16.9319    7.6435 N   0  0  0  0  0  0  0  0  0  0  0  0
   34.8745   16.2638    7.5595 C   0  0  2  0  0  0  0  0  0  0  0  0
   35.0108   15.4953    6.2500 C   0  0  0  0  0  0  0  0  0  0  0  0
   36.0633   15.5112    5.6129 O   0  0  0  0  0  0  0  0  0  0  0  0
   35.0658   15.3210    8.7409 C   0  0  0  0  0  0  0  0  0  0  0  0
   36.5155   15.1571    9.1782 C   0  0  0  0  0  0  0  0  0  0  0  0
   37.5686   14.5018    7.8591 S   0  0  0  0  0  0  0  0  0  0  0  0
   38.8708   15.6757    8.3113 C   0  0  0  0  0  0  0  0  0  0  0  0
   40.0290   15.6803    7.3204 C   0  0  1  0  0  0  0  0  0  0  0  0
   40.5873   14.3826    7.2237 O   0  0  0  0  0  0  0  0  0  0  0  0
   39.5735   16.0947    5.9308 C   0  0  1  0  0  0  0  0  0  0  0  0
   40.2060   17.2953    5.5555 O   0  0  0  0  0  0  0  0  0  0  0  0
   39.9972   14.9733    5.0051 C   0  0  1  0  0  0  0  0  0  0  0  0
   40.8498   15.4712    4.0004 O   0  0  0  0  0  0  0  0  0  0  0  0
   40.7421   13.9768    5.8766 C   0  0  2  0  0  0  0  0  0  0  0  0
   34.0710   14.8397    5.7987 O   0  0  0  0  0  0  0  0  0  0  0  0
   41.2944    9.3252    3.5049 N   0  0  0  0  0  0  0  0  0  0  0  0
   42.1105   10.4339    3.4040 C   0  0  0  0  0  0  0  0  0  0  0  0
   41.8100   11.5844    4.1062 N   0  0  0  0  0  0  0  0  0  0  0  0
   40.7113   11.6349    4.8982 C   0  0  0  0  0  0  0  0  0  0  0  0
   39.8780   10.5305    5.0122 C   0  0  0  0  0  0  0  0  0  0  0  0
   40.1739    9.3685    4.3097 C   0  0  0  0  0  0  0  0  0  0  0  0
   39.3824    8.3048    4.4105 N   0  0  0  0  0  0  0  0  0  0  0  0
   38.8732   10.8529    5.8551 N   0  0  0  0  0  0  0  0  0  0  0  0
   39.0490   12.1270    6.2747 C   0  0  0  0  0  0  0  0  0  0  0  0
   40.1847   12.6250    5.6899 N   0  0  0  0  0  0  0  0  0  0  0  0
  2  1  1  1  0  0  0
  2  3  1  0  0  0  0
  2  5  1  0  0  0  0
  3  4  1  0  0  0  0
  3 16  1  0  0  0  0
  5  6  1  0  0  0  0
  6  7  1  0  0  0  0
  7  8  1  0  0  0  0
  9  8  1  1  0  0  0
  9 10  1  0  0  0  0
  9 11  1  0  0  0  0
 10 15  1  0  0  0  0
 11 12  1  6  0  0  0
 11 13  1  0  0  0  0
 13 14  1  6  0  0  0
 13 15  1  0  0  0  0
 15 26  1  1  0  0  0
 17 18  2  0  0  0  0
 17 22  1  0  0  0  0
 18 19  1  0  0  0  0
 19 20  2  0  0  0  0
 20 21  1  0  0  0  0
 20 26  1  0  0  0  0
 21 22  2  0  0  0  0
 21 24  1  0  0  0  0
 22 23  1  0  0  0  0
 24 25  2  0  0  0  0
 25 26  1  0  0  0  0
M  END
>  <CHROM.1>
138.30759529,-149.13604904,-59.74952157,137.95354637,-172.13882529,-58.01025239
-141.73280000,38.63908830,13.76262444,6.08198575,2.30575131,0.28806525,0.27705064

>  <Name>
ligand

>  <RI>
0

>  <Rbt.Current_Directory>
/home/itssahil/PROJECTS/Mol_Feturizer/New_Systems/rnas/3NPQ

>  <Rbt.Executable>
rbdock ($Id: //depot/dev/client3/rdock/2013.1/src/exe/rbdock.cxx#4 $)

>  <Rbt.Library>
libRbt.so (2013.1, Build901 2013/11/27)

>  <Rbt.Parameter_File>
/export/apps/rDock/src/rDock_2013.1_src/data/scripts/dock_solv.prm

>  <Rbt.Receptor>
prm/pocket_docking_5.prm

>  <SCORE>
-25.8656

>  <SCORE.INTER>
-23.8637

>  <SCORE.INTER.CONST>
1

>  <SCORE.INTER.POLAR>
0

>  <SCORE.INTER.ROT>
7

>  <SCORE.INTER.SOLV>
27.1405

>  <SCORE.INTER.VDW>
-33.2226

>  <SCORE.INTER.norm>
-0.917833

>  <SCORE.INTRA>
-2.00199

>  <SCORE.INTRA.DIHEDRAL>
0.731395

>  <SCORE.INTRA.DIHEDRAL.0>
6.97628

>  <SCORE.INTRA.POLAR>
0

>  <SCORE.INTRA.POLAR.0>
0

>  <SCORE.INTRA.REPUL>
0

>  <SCORE.INTRA.REPUL.0>
0

>  <SCORE.INTRA.SOLV>
-0.429925

>  <SCORE.INTRA.SOLV.lig_0>
-49.8243

>  <SCORE.INTRA.VDW>
-2.15272

>  <SCORE.INTRA.VDW.0>
-1.35881

>  <SCORE.INTRA.norm>
-0.0769994

>  <SCORE.RESTR>
0

>  <SCORE.RESTR.CAVITY>
0

>  <SCORE.RESTR.norm>
0

>  <SCORE.SYSTEM>
0

>  <SCORE.SYSTEM.CONST>
0

>  <SCORE.SYSTEM.DIHEDRAL>
0

>  <SCORE.SYSTEM.SOLV>
0

>  <SCORE.SYSTEM.norm>
0

>  <SCORE.heavy>
26

>  <SCORE.norm>
-0.994832

>  <RMSD>
1.907

$$$$
ligand
 OpenBabel11021811483D
libRbt.so/2013.1/901 2013/11/27
 26 28  0  0  0  0  0  0  0  0999 V2000
   33.0832   17.9941    9.0331 N   0  0  0  0  0  0  0  0  0  0  0  0
   34.4987   17.7947    9.3179 C   0  0  2  0  0  0  0  0  0  0  0  0
   35.3393   18.9281    8.7412 C   0  0  0  0  0  0  0  0  0  0  0  0
   34.9132   19.6295    7.8245 O   0  0  0  0  0  0  0  0  0  0  0  0
   34.9720   16.4578    8.7612 C   0  0  0  0  0  0  0  0  0  0  0  0
   36.4172   16.1184    9.1014 C   0  0  0  0  0  0  0  0  0  0  0  0
   36.9035   14.4785    8.5074 S   0  0  0  0  0  0  0  0  0  0  0  0
   37.0851   15.1363    6.8304 C   0  0  0  0  0  0  0  0  0  0  0  0
   38.4234   15.8328    6.6133 C   0  0  1  0  0  0  0  0  0  0  0  0
   39.4814   14.9033    6.7604 O   0  0  0  0  0  0  0  0  0  0  0  0
   38.5218   16.4318    5.2198 C   0  0  1  0  0  0  0  0  0  0  0  0
   38.6361   17.8325    5.3054 O   0  0  0  0  0  0  0  0  0  0  0  0
   39.7756   15.8452    4.6050 C   0  0  1  0  0  0  0  0  0  0  0  0
   40.6633   16.8761    4.2395 O   0  0  0  0  0  0  0  0  0  0  0  0
   40.3985   14.9771    5.6848 C   0  0  2  0  0  0  0  0  0  0  0  0
   36.4647   19.1693    9.1794 O   0  0  0  0  0  0  0  0  0  0  0  0
   39.0815    9.8968    5.8400 N   0  0  0  0  0  0  0  0  0  0  0  0
   38.5364   10.9396    6.5618 C   0  0  0  0  0  0  0  0  0  0  0  0
   39.0107   12.2253    6.3918 N   0  0  0  0  0  0  0  0  0  0  0  0
   40.0156   12.4736    5.5169 C   0  0  0  0  0  0  0  0  0  0  0  0
   40.5771   11.4381    4.7823 C   0  0  0  0  0  0  0  0  0  0  0  0
   40.1049   10.1415    4.9468 C   0  0  0  0  0  0  0  0  0  0  0  0
   40.6358    9.1417    4.2492 N   0  0  0  0  0  0  0  0  0  0  0  0
   41.5445   11.9613    3.9985 N   0  0  0  0  0  0  0  0  0  0  0  0
   41.6088   13.2948    4.2180 C   0  0  0  0  0  0  0  0  0  0  0  0
   40.6666   13.6272    5.1570 N   0  0  0  0  0  0  0  0  0  0  0  0
  2  1  1  6  0  0  0
  2  3  1  0  0  0  0
  2  5  1  0  0  0  0
  3  4  1  0  0  0  0
  3 16  1  0  0  0  0
  5  6  1  0  0  0  0
  6  7  1  0  0  0  0
  7  8  1  0  0  0  0
  9  8  1  6  0  0  0
  9 10  1  0  0  0  0
  9 11  1  0  0  0  0
 10 15  1  0  0  0  0
 11 12  1  1  0  0  0
 11 13  1  0  0  0  0
 13 14  1  1  0  0  0
 13 15  1  0  0  0  0
 15 26  1  6  0  0  0
 17 18  2  0  0  0  0
 17 22  1  0  0  0  0
 18 19  1  0  0  0  0
 19 20  2  0  0  0  0
 20 21  1  0  0  0  0
 20 26  1  0  0  0  0
 21 22  2  0  0  0  0
 21 24  1  0  0  0  0
 22 23  1  0  0  0  0
 24 25  2  0  0  0  0
 25 26  1  0  0  0  0
M  END
>  <CHROM.1>
-21.32986113,-175.75329049,176.46553435,77.91825861,81.77440022,63.15909723
7.73561393,38.24929170,14.85790316,6.56622482,2.39801139,0.69502367,-0.09229940

>  <Name>
ligand

>  <RI>
0

>  <Rbt.Current_Directory>
/home/itssahil/PROJECTS/Mol_Feturizer/New_Systems/rnas/3NPQ

>  <Rbt.Executable>
rbdock ($Id: //depot/dev/client3/rdock/2013.1/src/exe/rbdock.cxx#4 $)

>  <Rbt.Library>
libRbt.so (2013.1, Build901 2013/11/27)

>  <Rbt.Parameter_File>
/export/apps/rDock/src/rDock_2013.1_src/data/scripts/dock_solv.prm

>  <Rbt.Receptor>
prm/pocket_docking_6.prm

>  <SCORE>
-28.8305

>  <SCORE.INTER>
-26.0874

>  <SCORE.INTER.CONST>
1

>  <SCORE.INTER.POLAR>
0

>  <SCORE.INTER.ROT>
7

>  <SCORE.INTER.SOLV>
20.8059

>  <SCORE.INTER.VDW>
-32.5935

>  <SCORE.INTER.norm>
-1.00336

>  <SCORE.INTRA>
-2.74309

>  <SCORE.INTRA.DIHEDRAL>
-2.97031

>  <SCORE.INTRA.DIHEDRAL.0>
6.97628

>  <SCORE.INTRA.POLAR>
0

>  <SCORE.INTRA.POLAR.0>
0

>  <SCORE.INTRA.REPUL>
0

>  <SCORE.INTRA.REPUL.0>
0

>  <SCORE.INTRA.SOLV>
-0.803041

>  <SCORE.INTRA.SOLV.lig_0>
-49.8243

>  <SCORE.INTRA.VDW>
-0.856415

>  <SCORE.INTRA.VDW.0>
-1.35881

>  <SCORE.INTRA.norm>
-0.105504

>  <SCORE.RESTR>
0

>  <SCORE.RESTR.CAVITY>
0

>  <SCORE.RESTR.norm>
0

>  <SCORE.SYSTEM>
0

>  <SCORE.SYSTEM.CONST>
0

>  <SCORE.SYSTEM.DIHEDRAL>
0

>  <SCORE.SYSTEM.SOLV>
0

>  <SCORE.SYSTEM.norm>
0

>  <SCORE.heavy>
26

>  <SCORE.norm>
-1.10886

>  <RMSD>
1.911

$$$$
ligand
 OpenBabel11021811483D
libRbt.so/2013.1/901 2013/11/27
 26 28  0  0  0  0  0  0  0  0999 V2000
   33.7722   18.3549   10.6095 N   0  0  0  0  0  0  0  0  0  0  0  0
   35.0098   18.1742    9.8609 C   0  0  2  0  0  0  0  0  0  0  0  0
   35.0116   19.0188    8.5918 C   0  0  0  0  0  0  0  0  0  0  0  0
   36.0614   19.4609    8.1267 O   0  0  0  0  0  0  0  0  0  0  0  0
   35.2124   16.7053    9.5112 C   0  0  0  0  0  0  0  0  0  0  0  0
   36.5686   16.3941    8.8917 C   0  0  0  0  0  0  0  0  0  0  0  0
   36.7694   14.6362    8.5075 S   0  0  0  0  0  0  0  0  0  0  0  0
   37.3612   15.0627    6.8504 C   0  0  0  0  0  0  0  0  0  0  0  0
   38.7634   15.6603    6.8620 C   0  0  1  0  0  0  0  0  0  0  0  0
   39.7246   14.6340    7.0290 O   0  0  0  0  0  0  0  0  0  0  0  0
   39.0743   16.3806    5.5602 C   0  0  1  0  0  0  0  0  0  0  0  0
   39.2797   17.7516    5.8065 O   0  0  0  0  0  0  0  0  0  0  0  0
   40.3474   15.7515    5.0333 C   0  0  1  0  0  0  0  0  0  0  0  0
   41.3460   16.7335    4.8826 O   0  0  0  0  0  0  0  0  0  0  0  0
   40.7688   14.7331    6.0786 C   0  0  2  0  0  0  0  0  0  0  0  0
   33.9624   19.2785    8.0014 O   0  0  0  0  0  0  0  0  0  0  0  0
   39.1078    9.7764    5.5886 N   0  0  0  0  0  0  0  0  0  0  0  0
   38.5616   10.7849    6.3568 C   0  0  0  0  0  0  0  0  0  0  0  0
   39.1353   12.0409    6.3651 N   0  0  0  0  0  0  0  0  0  0  0  0
   40.2396   12.2933    5.6208 C   0  0  0  0  0  0  0  0  0  0  0  0
   40.8039   11.2921    4.8422 C   0  0  0  0  0  0  0  0  0  0  0  0
   40.2320   10.0256    4.8276 C   0  0  0  0  0  0  0  0  0  0  0  0
   40.7645    9.0586    4.0863 N   0  0  0  0  0  0  0  0  0  0  0  0
   41.8798   11.8116    4.2125 N   0  0  0  0  0  0  0  0  0  0  0  0
   42.0096   13.1095    4.5717 C   0  0  0  0  0  0  0  0  0  0  0  0
   40.9997   13.4226    5.4446 N   0  0  0  0  0  0  0  0  0  0  0  0
  2  1  1  6  0  0  0
  2  3  1  0  0  0  0
  2  5  1  0  0  0  0
  3  4  1  0  0  0  0
  3 16  1  0  0  0  0
  5  6  1  0  0  0  0
  6  7  1  0  0  0  0
  7  8  1  0  0  0  0
  9  8  1  6  0  0  0
  9 10  1  0  0  0  0
  9 11  1  0  0  0  0
 10 15  1  0  0  0  0
 11 12  1  1  0  0  0
 11 13  1  0  0  0  0
 13 14  1  1  0  0  0
 13 15  1  0  0  0  0
 15 26  1  6  0  0  0
 17 18  2  0  0  0  0
 17 22  1  0  0  0  0
 18 19  1  0  0  0  0
 19 20  2  0  0  0  0
 20 21  1  0  0  0  0
 20 26  1  0  0  0  0
 21 22  2  0  0  0  0
 21 24  1  0  0  0  0
 22 23  1  0  0  0  0
 24 25  2  0  0  0  0
 25 26  1  0  0  0  0
M  END
>  <CHROM.1>
149.43967606,-172.25400833,179.46433498,131.70663915,72.27472059,77.44154888
6.58673676,38.43606960,14.82195768,6.74034788,2.35439301,0.62174148,0.00574724

>  <Name>
ligand

>  <RI>
0

>  <Rbt.Current_Directory>
/home/itssahil/PROJECTS/Mol_Feturizer/New_Systems/rnas/3NPQ

>  <Rbt.Executable>
rbdock ($Id: //depot/dev/client3/rdock/2013.1/src/exe/rbdock.cxx#4 $)

>  <Rbt.Library>
libRbt.so (2013.1, Build901 2013/11/27)

>  <Rbt.Parameter_File>
/export/apps/rDock/src/rDock_2013.1_src/data/scripts/dock_solv.prm

>  <Rbt.Receptor>
prm/pocket_docking_5.prm

>  <SCORE>
-28.6695

>  <SCORE.INTER>
-26.8361

>  <SCORE.INTER.CONST>
1

>  <SCORE.INTER.POLAR>
0

>  <SCORE.INTER.ROT>
7

>  <SCORE.INTER.SOLV>
22.8435

>  <SCORE.INTER.VDW>
-33.7719

>  <SCORE.INTER.norm>
-1.03216

>  <SCORE.INTRA>
-1.83334

>  <SCORE.INTRA.DIHEDRAL>
-0.635107

>  <SCORE.INTRA.DIHEDRAL.0>
6.97628

>  <SCORE.INTRA.POLAR>
0

>  <SCORE.INTRA.POLAR.0>
0

>  <SCORE.INTRA.REPUL>
0

>  <SCORE.INTRA.REPUL.0>
0

>  <SCORE.INTRA.SOLV>
-0.822737

>  <SCORE.INTRA.SOLV.lig_0>
-49.8243

>  <SCORE.INTRA.VDW>
-1.10442

>  <SCORE.INTRA.VDW.0>
-1.35881

>  <SCORE.INTRA.norm>
-0.0705132

>  <SCORE.RESTR>
0

>  <SCORE.RESTR.CAVITY>
0

>  <SCORE.RESTR.norm>
0

>  <SCORE.SYSTEM>
0

>  <SCORE.SYSTEM.CONST>
0

>  <SCORE.SYSTEM.DIHEDRAL>
0

>  <SCORE.SYSTEM.SOLV>
0

>  <SCORE.SYSTEM.norm>
0

>  <SCORE.heavy>
26

>  <SCORE.norm>
-1.10267

>  <RMSD>
1.922

$$$$
ligand
 OpenBabel11021811483D
libRbt.so/2013.1/901 2013/11/27
 26 28  0  0  0  0  0  0  0  0999 V2000
   34.1903   18.1355   10.3328 N   0  0  0  0  0  0  0  0  0  0  0  0
   35.3632   17.4518    9.8025 C   0  0  2  0  0  0  0  0  0  0  0  0
   35.8695   18.1332    8.5362 C   0  0  0  0  0  0  0  0  0  0  0  0
   35.0881   18.5072    7.6625 O   0  0  0  0  0  0  0  0  0  0  0  0
   35.0451   15.9894    9.5173 C   0  0  0  0  0  0  0  0  0  0  0  0
   36.2299   15.1840    9.0001 C   0  0  0  0  0  0  0  0  0  0  0  0
   36.3493   15.2070    7.1936 S   0  0  0  0  0  0  0  0  0  0  0  0
   37.7915   14.1153    7.2718 C   0  0  0  0  0  0  0  0  0  0  0  0
   39.1067   14.8638    7.0896 C   0  0  1  0  0  0  0  0  0  0  0  0
   40.1831   13.9450    7.0417 O   0  0  0  0  0  0  0  0  0  0  0  0
   39.1202   15.6629    5.7967 C   0  0  1  0  0  0  0  0  0  0  0  0
   39.2211   17.0379    6.0822 O   0  0  0  0  0  0  0  0  0  0  0  0
   40.3455   15.1992    5.0367 C   0  0  1  0  0  0  0  0  0  0  0  0
   41.1983   16.2909    4.7812 O   0  0  0  0  0  0  0  0  0  0  0  0
   41.0382   14.1951    5.9419 C   0  0  2  0  0  0  0  0  0  0  0  0
   37.0727   18.3260    8.3576 O   0  0  0  0  0  0  0  0  0  0  0  0
   39.4252    9.2883    4.9993 N   0  0  0  0  0  0  0  0  0  0  0  0
   38.8529   10.2264    5.8346 C   0  0  0  0  0  0  0  0  0  0  0  0
   39.4173   11.4802    5.9619 N   0  0  0  0  0  0  0  0  0  0  0  0
   40.5379   11.7993    5.2695 C   0  0  0  0  0  0  0  0  0  0  0  0
   41.1285   10.8693    4.4249 C   0  0  0  0  0  0  0  0  0  0  0  0
   40.5662    9.6056    4.2905 C   0  0  0  0  0  0  0  0  0  0  0  0
   41.1239    8.7064    3.4850 N   0  0  0  0  0  0  0  0  0  0  0  0
   42.2161   11.4449    3.8681 N   0  0  0  0  0  0  0  0  0  0  0  0
   42.3277   12.7090    4.3372 C   0  0  0  0  0  0  0  0  0  0  0  0
   41.2941   12.9432    5.2071 N   0  0  0  0  0  0  0  0  0  0  0  0
  2  1  1  6  0  0  0
  2  3  1  0  0  0  0
  2  5  1  0  0  0  0
  3  4  1  0  0  0  0
  3 16  1  0  0  0  0
  5  6  1  0  0  0  0
  6  7  1  0  0  0  0
  7  8  1  0  0  0  0
  9  8  1  6  0  0  0
  9 10  1  0  0  0  0
  9 11  1  0  0  0  0
 10 15  1  0  0  0  0
 11 12  1  1  0  0  0
 11 13  1  0  0  0  0
 13 14  1  1  0  0  0
 13 15  1  0  0  0  0
 15 26  1  6  0  0  0
 17 18  2  0  0  0  0
 17 22  1  0  0  0  0
 18 19  1  0  0  0  0
 19 20  2  0  0  0  0
 20 21  1  0  0  0  0
 20 26  1  0  0  0  0
 21 22  2  0  0  0  0
 21 24  1  0  0  0  0
 22 23  1  0  0  0  0
 24 25  2  0  0  0  0
 25 26  1  0  0  0  0
M  END
>  <CHROM.1>
-43.46644787,-178.14766332,-90.27733787,-178.20959071,-101.36135427,-174.82632616
19.13616717,38.68673956,14.29417621,6.50166768,2.30636796,0.56703137,0.12216182

>  <Name>
ligand

>  <RI>
0

>  <Rbt.Current_Directory>
/home/itssahil/PROJECTS/Mol_Feturizer/New_Systems/rnas/3NPQ

>  <Rbt.Executable>
rbdock ($Id: //depot/dev/client3/rdock/2013.1/src/exe/rbdock.cxx#4 $)

>  <Rbt.Library>
libRbt.so (2013.1, Build901 2013/11/27)

>  <Rbt.Parameter_File>
/export/apps/rDock/src/rDock_2013.1_src/data/scripts/dock_solv.prm

>  <Rbt.Receptor>
prm/pocket_docking_3.prm

>  <SCORE>
-28.7645

>  <SCORE.INTER>
-26.7977

>  <SCORE.INTER.CONST>
1

>  <SCORE.INTER.POLAR>
0

>  <SCORE.INTER.ROT>
7

>  <SCORE.INTER.SOLV>
20.3237

>  <SCORE.INTER.VDW>
-32.9064

>  <SCORE.INTER.norm>
-1.03068

>  <SCORE.INTRA>
-1.96682

>  <SCORE.INTRA.DIHEDRAL>
0.475685

>  <SCORE.INTRA.DIHEDRAL.0>
6.97628

>  <SCORE.INTRA.POLAR>
0

>  <SCORE.INTRA.POLAR.0>
0

>  <SCORE.INTRA.REPUL>
0

>  <SCORE.INTRA.REPUL.0>
0

>  <SCORE.INTRA.SOLV>
-0.525624

>  <SCORE.INTRA.SOLV.lig_0>
-49.8243

>  <SCORE.INTRA.VDW>
-1.94185

>  <SCORE.INTRA.VDW.0>
-1.35881

>  <SCORE.INTRA.norm>
-0.0756469

>  <SCORE.RESTR>
0

>  <SCORE.RESTR.CAVITY>
0

>  <SCORE.RESTR.norm>
0

>  <SCORE.SYSTEM>
0

>  <SCORE.SYSTEM.CONST>
0

>  <SCORE.SYSTEM.DIHEDRAL>
0

>  <SCORE.SYSTEM.SOLV>
0

>  <SCORE.SYSTEM.norm>
0

>  <SCORE.heavy>
26

>  <SCORE.norm>
-1.10633

>  <RMSD>
1.925

$$$$
ligand
 OpenBabel11021811483D
libRbt.so/2013.1/901 2013/11/27
 26 28  0  0  0  0  0  0  0  0999 V2000
   35.1754   17.8919   10.3098 N   0  0  0  0  0  0  0  0  0  0  0  0
   34.5469   17.2845    9.1433 C   0  0  2  0  0  0  0  0  0  0  0  0
   34.8402   15.7899    9.0781 C   0  0  0  0  0  0  0  0  0  0  0  0
   34.5938   15.1398    8.0630 O   0  0  0  0  0  0  0  0  0  0  0  0
   35.0210   17.9661    7.8659 C   0  0  0  0  0  0  0  0  0  0  0  0
   36.5103   17.8055    7.5906 C   0  0  0  0  0  0  0  0  0  0  0  0
   36.8467   17.2241    5.9091 S   0  0  0  0  0  0  0  0  0  0  0  0
   37.1720   15.5608    6.5459 C   0  0  0  0  0  0  0  0  0  0  0  0
   38.6080   15.3848    7.0258 C   0  0  1  0  0  0  0  0  0  0  0  0
   38.8133   14.0521    7.4577 O   0  0  0  0  0  0  0  0  0  0  0  0
   39.6068   15.6729    5.9168 C   0  0  1  0  0  0  0  0  0  0  0  0
   40.4007   16.7835    6.2612 O   0  0  0  0  0  0  0  0  0  0  0  0
   40.4693   14.4329    5.8048 C   0  0  1  0  0  0  0  0  0  0  0  0
   41.8224   14.7641    6.0145 O   0  0  0  0  0  0  0  0  0  0  0  0
   39.9858   13.4928    6.8956 C   0  0  2  0  0  0  0  0  0  0  0  0
   35.3312   15.1974   10.0397 O   0  0  0  0  0  0  0  0  0  0  0  0
   41.4948    9.7617    3.5239 N   0  0  0  0  0  0  0  0  0  0  0  0
   42.1064   10.9716    3.7836 C   0  0  0  0  0  0  0  0  0  0  0  0
   41.5651   11.8389    4.7119 N   0  0  0  0  0  0  0  0  0  0  0  0
   40.4291   11.5103    5.3740 C   0  0  0  0  0  0  0  0  0  0  0  0
   39.7991   10.2983    5.1262 C   0  0  0  0  0  0  0  0  0  0  0  0
   40.3378    9.4195    4.1941 C   0  0  0  0  0  0  0  0  0  0  0  0
   39.7425    8.2562    3.9480 N   0  0  0  0  0  0  0  0  0  0  0  0
   38.7041   10.2302    5.9137 N   0  0  0  0  0  0  0  0  0  0  0  0
   38.6259   11.3629    6.6494 C   0  0  0  0  0  0  0  0  0  0  0  0
   39.6888   12.1663    6.3257 N   0  0  0  0  0  0  0  0  0  0  0  0
  2  1  1  1  0  0  0
  2  3  1  0  0  0  0
  2  5  1  0  0  0  0
  3  4  1  0  0  0  0
  3 16  1  0  0  0  0
  5  6  1  0  0  0  0
  6  7  1  0  0  0  0
  7  8  1  0  0  0  0
  9  8  1  6  0  0  0
  9 10  1  0  0  0  0
  9 11  1  0  0  0  0
 10 15  1  0  0  0  0
 11 12  1  1  0  0  0
 11 13  1  0  0  0  0
 13 14  1  1  0  0  0
 13 15  1  0  0  0  0
 15 26  1  6  0  0  0
 17 18  2  0  0  0  0
 17 22  1  0  0  0  0
 18 19  1  0  0  0  0
 19 20  2  0  0  0  0
 20 21  1  0  0  0  0
 20 26  1  0  0  0  0
 21 22  2  0  0  0  0
 21 24  1  0  0  0  0
 22 23  1  0  0  0  0
 24 25  2  0  0  0  0
 25 26  1  0  0  0  0
M  END
>  <CHROM.1>
-167.70731623,63.89041519,129.49353244,-103.03549945,-84.96248736,-177.55173873
159.12671367,38.42891505,14.10887022,6.53714501,2.27690293,0.51467106,0.12358856

>  <Name>
ligand

>  <RI>
0

>  <Rbt.Current_Directory>
/home/itssahil/PROJECTS/Mol_Feturizer/New_Systems/rnas/3NPQ

>  <Rbt.Executable>
rbdock ($Id: //depot/dev/client3/rdock/2013.1/src/exe/rbdock.cxx#4 $)

>  <Rbt.Library>
libRbt.so (2013.1, Build901 2013/11/27)

>  <Rbt.Parameter_File>
/export/apps/rDock/src/rDock_2013.1_src/data/scripts/dock_solv.prm

>  <Rbt.Receptor>
prm/pocket_docking_6.prm

>  <SCORE>
-23.1241

>  <SCORE.INTER>
-24.3966

>  <SCORE.INTER.CONST>
1

>  <SCORE.INTER.POLAR>
0

>  <SCORE.INTER.ROT>
7

>  <SCORE.INTER.SOLV>
24.585

>  <SCORE.INTER.VDW>
-32.7261

>  <SCORE.INTER.norm>
-0.938331

>  <SCORE.INTRA>
1.27252

>  <SCORE.INTRA.DIHEDRAL>
3.79611

>  <SCORE.INTRA.DIHEDRAL.0>
6.97628

>  <SCORE.INTRA.POLAR>
0

>  <SCORE.INTRA.POLAR.0>
0

>  <SCORE.INTRA.REPUL>
0

>  <SCORE.INTRA.REPUL.0>
0

>  <SCORE.INTRA.SOLV>
0.0635129

>  <SCORE.INTRA.SOLV.lig_0>
-49.8243

>  <SCORE.INTRA.VDW>
-0.65729

>  <SCORE.INTRA.VDW.0>
-1.35881

>  <SCORE.INTRA.norm>
0.0489431

>  <SCORE.RESTR>
0

>  <SCORE.RESTR.CAVITY>
0

>  <SCORE.RESTR.norm>
0

>  <SCORE.SYSTEM>
0

>  <SCORE.SYSTEM.CONST>
0

>  <SCORE.SYSTEM.DIHEDRAL>
0

>  <SCORE.SYSTEM.SOLV>
0

>  <SCORE.SYSTEM.norm>
0

>  <SCORE.heavy>
26

>  <SCORE.norm>
-0.889388

>  <RMSD>
1.931

$$$$
ligand
 OpenBabel11021811483D
libRbt.so/2013.1/901 2013/11/27
 26 28  0  0  0  0  0  0  0  0999 V2000
   33.6094   17.9133    9.1868 N   0  0  0  0  0  0  0  0  0  0  0  0
   35.0461   17.8866    9.4315 C   0  0  2  0  0  0  0  0  0  0  0  0
   35.8093   18.5502    8.2908 C   0  0  0  0  0  0  0  0  0  0  0  0
   35.2415   18.8583    7.2437 O   0  0  0  0  0  0  0  0  0  0  0  0
   35.5289   16.4539    9.6192 C   0  0  0  0  0  0  0  0  0  0  0  0
   34.9960   15.4761    8.5801 C   0  0  0  0  0  0  0  0  0  0  0  0
   35.6808   15.7744    6.9307 S   0  0  0  0  0  0  0  0  0  0  0  0
   37.0890   14.7043    7.3185 C   0  0  0  0  0  0  0  0  0  0  0  0
   38.4206   15.4448    7.2737 C   0  0  1  0  0  0  0  0  0  0  0  0
   39.4903   14.5206    7.3541 O   0  0  0  0  0  0  0  0  0  0  0  0
   38.5804   16.2290    5.9816 C   0  0  1  0  0  0  0  0  0  0  0  0
   38.6573   17.6067    6.2616 O   0  0  0  0  0  0  0  0  0  0  0  0
   39.8790   15.7512    5.3657 C   0  0  1  0  0  0  0  0  0  0  0  0
   40.7610   16.8360    5.1936 O   0  0  0  0  0  0  0  0  0  0  0  0
   40.4624   14.7542    6.3522 C   0  0  2  0  0  0  0  0  0  0  0  0
   37.0124   18.7943    8.3903 O   0  0  0  0  0  0  0  0  0  0  0  0
   39.1048    9.7457    5.5531 N   0  0  0  0  0  0  0  0  0  0  0  0
   38.4748   10.6815    6.3486 C   0  0  0  0  0  0  0  0  0  0  0  0
   38.9755   11.9651    6.4413 N   0  0  0  0  0  0  0  0  0  0  0  0
   40.0896   12.3159    5.7539 C   0  0  0  0  0  0  0  0  0  0  0  0
   40.7377   11.3888    4.9491 C   0  0  0  0  0  0  0  0  0  0  0  0
   40.2397   10.0952    4.8496 C   0  0  0  0  0  0  0  0  0  0  0  0
   40.8526    9.1986    4.0825 N   0  0  0  0  0  0  0  0  0  0  0  0
   41.8042   11.9986    4.3882 N   0  0  0  0  0  0  0  0  0  0  0  0
   41.8470   13.2814    4.8160 C   0  0  0  0  0  0  0  0  0  0  0  0
   40.7901   13.4930    5.6635 N   0  0  0  0  0  0  0  0  0  0  0  0
  2  1  1  6  0  0  0
  2  3  1  0  0  0  0
  2  5  1  0  0  0  0
  3  4  1  0  0  0  0
  3 16  1  0  0  0  0
  5  6  1  0  0  0  0
  6  7  1  0  0  0  0
  7  8  1  0  0  0  0
  9  8  1  6  0  0  0
  9 10  1  0  0  0  0
  9 11  1  0  0  0  0
 10 15  1  0  0  0  0
 11 12  1  1  0  0  0
 11 13  1  0  0  0  0
 13 14  1  1  0  0  0
 13 15  1  0  0  0  0
 15 26  1  6  0  0  0
 17 18  2  0  0  0  0
 17 22  1  0  0  0  0
 18 19  1  0  0  0  0
 19 20  2  0  0  0  0
 20 21  1  0  0  0  0
 20 26  1  0  0  0  0
 21 22  2  0  0  0  0
 21 24  1  0  0  0  0
 22 23  1  0  0  0  0
 24 25  2  0  0  0  0
 25 26  1  0  0  0  0
M  END
>  <CHROM.1>
-10.07052262,46.27645673,68.86055332,87.54825072,-118.24202846,-169.92230976
12.71823477,38.25631712,14.77475419,6.64534069,2.28294434,0.48520238,0.08636678

>  <Name>
ligand

>  <RI>
0

>  <Rbt.Current_Directory>
/home/itssahil/PROJECTS/Mol_Feturizer/New_Systems/rnas/3NPQ

>  <Rbt.Executable>
rbdock ($Id: //depot/dev/client3/rdock/2013.1/src/exe/rbdock.cxx#4 $)

>  <Rbt.Library>
libRbt.so (2013.1, Build901 2013/11/27)

>  <Rbt.Parameter_File>
/export/apps/rDock/src/rDock_2013.1_src/data/scripts/dock_solv.prm

>  <Rbt.Receptor>
prm/pocket_docking_2.prm

>  <SCORE>
-26.4495

>  <SCORE.INTER>
-25.5735

>  <SCORE.INTER.CONST>
1

>  <SCORE.INTER.POLAR>
0

>  <SCORE.INTER.ROT>
7

>  <SCORE.INTER.SOLV>
18.374

>  <SCORE.INTER.VDW>
-31.4404

>  <SCORE.INTER.norm>
-0.983597

>  <SCORE.INTRA>
-0.882075

>  <SCORE.INTRA.DIHEDRAL>
0.522881

>  <SCORE.INTRA.DIHEDRAL.0>
6.97628

>  <SCORE.INTRA.POLAR>
0

>  <SCORE.INTRA.POLAR.0>
0

>  <SCORE.INTRA.REPUL>
0

>  <SCORE.INTRA.REPUL.0>
0

>  <SCORE.INTRA.SOLV>
1.06426

>  <SCORE.INTRA.SOLV.lig_0>
-49.8243

>  <SCORE.INTRA.VDW>
-1.67565

>  <SCORE.INTRA.VDW.0>
-1.35881

>  <SCORE.INTRA.norm>
-0.0339259

>  <SCORE.RESTR>
0.00605751

>  <SCORE.RESTR.CAVITY>
0.00605751

>  <SCORE.RESTR.norm>
0.000232981

>  <SCORE.SYSTEM>
0

>  <SCORE.SYSTEM.CONST>
0

>  <SCORE.SYSTEM.DIHEDRAL>
0

>  <SCORE.SYSTEM.SOLV>
0

>  <SCORE.SYSTEM.norm>
0

>  <SCORE.heavy>
26

>  <SCORE.norm>
-1.01729

>  <RMSD>
1.935

$$$$
ligand
 OpenBabel11021811483D
libRbt.so/2013.1/901 2013/11/27
 26 28  0  0  0  0  0  0  0  0999 V2000
   33.0655   17.8689    9.0362 N   0  0  0  0  0  0  0  0  0  0  0  0
   34.3256   18.1537    9.7111 C   0  0  2  0  0  0  0  0  0  0  0  0
   35.1480   19.1726    8.9304 C   0  0  0  0  0  0  0  0  0  0  0  0
   34.6070   19.9739    8.1694 O   0  0  0  0  0  0  0  0  0  0  0  0
   35.1281   16.8734    9.9058 C   0  0  0  0  0  0  0  0  0  0  0  0
   35.2872   16.0400    8.6409 C   0  0  0  0  0  0  0  0  0  0  0  0
   36.5963   14.7979    8.7880 S   0  0  0  0  0  0  0  0  0  0  0  0
   37.3274   15.3803    7.2374 C   0  0  0  0  0  0  0  0  0  0  0  0
   38.7688   15.8469    7.4051 C   0  0  1  0  0  0  0  0  0  0  0  0
   39.6309   14.7278    7.5019 O   0  0  0  0  0  0  0  0  0  0  0  0
   39.2260   16.6845    6.2220 C   0  0  1  0  0  0  0  0  0  0  0  0
   39.5229   17.9939    6.6460 O   0  0  0  0  0  0  0  0  0  0  0  0
   40.4780   16.0120    5.6984 C   0  0  1  0  0  0  0  0  0  0  0  0
   41.5602   16.9134    5.7285 O   0  0  0  0  0  0  0  0  0  0  0  0
   40.7430   14.8452    6.6344 C   0  0  2  0  0  0  0  0  0  0  0  0
   36.3736   19.2185    9.0431 O   0  0  0  0  0  0  0  0  0  0  0  0
   38.9640    9.9848    5.7519 N   0  0  0  0  0  0  0  0  0  0  0  0
   38.4829   10.9172    6.6490 C   0  0  0  0  0  0  0  0  0  0  0  0
   39.0795   12.1586    6.7482 N   0  0  0  0  0  0  0  0  0  0  0  0
   40.1424   12.4711    5.9674 C   0  0  0  0  0  0  0  0  0  0  0  0
   40.6411   11.5466    5.0598 C   0  0  0  0  0  0  0  0  0  0  0  0
   40.0459   10.2954    4.9531 C   0  0  0  0  0  0  0  0  0  0  0  0
   40.5156    9.4017    4.0878 N   0  0  0  0  0  0  0  0  0  0  0  0
   41.6875   12.1136    4.4213 N   0  0  0  0  0  0  0  0  0  0  0  0
   41.8624   13.3668    4.9001 C   0  0  0  0  0  0  0  0  0  0  0  0
   40.9117   13.6028    5.8595 N   0  0  0  0  0  0  0  0  0  0  0  0
  2  1  1  6  0  0  0
  2  3  1  0  0  0  0
  2  5  1  0  0  0  0
  3  4  1  0  0  0  0
  3 16  1  0  0  0  0
  5  6  1  0  0  0  0
  6  7  1  0  0  0  0
  7  8  1  0  0  0  0
  9  8  1  6  0  0  0
  9 10  1  0  0  0  0
  9 11  1  0  0  0  0
 10 15  1  0  0  0  0
 11 12  1  1  0  0  0
 11 13  1  0  0  0  0
 13 14  1  1  0  0  0
 13 15  1  0  0  0  0
 15 26  1  6  0  0  0
 17 18  2  0  0  0  0
 17 22  1  0  0  0  0
 18 19  1  0  0  0  0
 19 20  2  0  0  0  0
 20 21  1  0  0  0  0
 20 26  1  0  0  0  0
 21 22  2  0  0  0  0
 21 24  1  0  0  0  0
 22 23  1  0  0  0  0
 24 25  2  0  0  0  0
 25 26  1  0  0  0  0
M  END
>  <CHROM.1>
25.07173119,50.44061927,164.19307397,-128.64477351,121.49877159,76.75559244
-1.63035339,38.33992018,14.97591344,7.03908838,2.29223422,0.48271347,0.12634419

>  <Name>
ligand

>  <RI>
0

>  <Rbt.Current_Directory>
/home/itssahil/PROJECTS/Mol_Feturizer/New_Systems/rnas/3NPQ

>  <Rbt.Executable>
rbdock ($Id: //depot/dev/client3/rdock/2013.1/src/exe/rbdock.cxx#4 $)

>  <Rbt.Library>
libRbt.so (2013.1, Build901 2013/11/27)

>  <Rbt.Parameter_File>
/export/apps/rDock/src/rDock_2013.1_src/data/scripts/dock_solv.prm

>  <Rbt.Receptor>
prm/pocket_docking_4.prm

>  <SCORE>
-28.6894

>  <SCORE.INTER>
-29.2201

>  <SCORE.INTER.CONST>
1

>  <SCORE.INTER.POLAR>
0

>  <SCORE.INTER.ROT>
7

>  <SCORE.INTER.SOLV>
21.4761

>  <SCORE.INTER.VDW>
-34.9054

>  <SCORE.INTER.norm>
-1.12385

>  <SCORE.INTRA>
0.530718

>  <SCORE.INTRA.DIHEDRAL>
2.58402

>  <SCORE.INTRA.DIHEDRAL.0>
6.97628

>  <SCORE.INTRA.POLAR>
0

>  <SCORE.INTRA.POLAR.0>
0

>  <SCORE.INTRA.REPUL>
0

>  <SCORE.INTRA.REPUL.0>
0

>  <SCORE.INTRA.SOLV>
-0.158366

>  <SCORE.INTRA.SOLV.lig_0>
-49.8243

>  <SCORE.INTRA.VDW>
-0.682109

>  <SCORE.INTRA.VDW.0>
-1.35881

>  <SCORE.INTRA.norm>
0.0204122

>  <SCORE.RESTR>
0

>  <SCORE.RESTR.CAVITY>
0

>  <SCORE.RESTR.norm>
0

>  <SCORE.SYSTEM>
0

>  <SCORE.SYSTEM.CONST>
0

>  <SCORE.SYSTEM.DIHEDRAL>
0

>  <SCORE.SYSTEM.SOLV>
0

>  <SCORE.SYSTEM.norm>
0

>  <SCORE.heavy>
26

>  <SCORE.norm>
-1.10344

>  <RMSD>
1.940

$$$$
ligand
 OpenBabel11021811483D
libRbt.so/2013.1/901 2013/11/27
 26 28  0  0  0  0  0  0  0  0999 V2000
   34.5335   17.9492   10.5194 N   0  0  0  0  0  0  0  0  0  0  0  0
   35.1472   17.4340    9.3018 C   0  0  2  0  0  0  0  0  0  0  0  0
   34.9273   18.3859    8.1315 C   0  0  0  0  0  0  0  0  0  0  0  0
   35.7618   18.4886    7.2333 O   0  0  0  0  0  0  0  0  0  0  0  0
   34.5912   16.0559    8.9658 C   0  0  0  0  0  0  0  0  0  0  0  0
   35.3204   15.3504    7.8299 C   0  0  0  0  0  0  0  0  0  0  0  0
   36.9571   14.7520    8.3215 S   0  0  0  0  0  0  0  0  0  0  0  0
   37.5468   14.9594    6.6223 C   0  0  0  0  0  0  0  0  0  0  0  0
   38.9525   15.5448    6.5545 C   0  0  1  0  0  0  0  0  0  0  0  0
   39.9119   14.5219    6.7504 O   0  0  0  0  0  0  0  0  0  0  0  0
   39.2262   16.1858    5.2038 C   0  0  1  0  0  0  0  0  0  0  0  0
   39.4484   17.5669    5.3631 O   0  0  0  0  0  0  0  0  0  0  0  0
   40.4774   15.5164    4.6742 C   0  0  1  0  0  0  0  0  0  0  0  0
   41.4772   16.4795    4.4350 O   0  0  0  0  0  0  0  0  0  0  0  0
   40.9255   14.5568    5.7632 C   0  0  2  0  0  0  0  0  0  0  0  0
   33.9089   19.0745    8.0568 O   0  0  0  0  0  0  0  0  0  0  0  0
   39.1403    9.6255    5.5137 N   0  0  0  0  0  0  0  0  0  0  0  0
   38.6145   10.6858    6.2240 C   0  0  0  0  0  0  0  0  0  0  0  0
   39.2206   11.9255    6.1728 N   0  0  0  0  0  0  0  0  0  0  0  0
   40.3368   12.1109    5.4267 C   0  0  0  0  0  0  0  0  0  0  0  0
   40.8810   11.0567    4.7058 C   0  0  0  0  0  0  0  0  0  0  0  0
   40.2765    9.8062    4.7512 C   0  0  0  0  0  0  0  0  0  0  0  0
   40.7895    8.7889    4.0655 N   0  0  0  0  0  0  0  0  0  0  0  0
   41.9749   11.5155    4.0601 N   0  0  0  0  0  0  0  0  0  0  0  0
   42.1355   12.8264    4.3532 C   0  0  0  0  0  0  0  0  0  0  0  0
   41.1273   13.2099    5.1995 N   0  0  0  0  0  0  0  0  0  0  0  0
  2  1  1  1  0  0  0
  2  3  1  0  0  0  0
  2  5  1  0  0  0  0
  3  4  1  0  0  0  0
  3 16  1  0  0  0  0
  5  6  1  0  0  0  0
  6  7  1  0  0  0  0
  7  8  1  0  0  0  0
  9  8  1  6  0  0  0
  9 10  1  0  0  0  0
  9 11  1  0  0  0  0
 10 15  1  0  0  0  0
 11 12  1  1  0  0  0
 11 13  1  0  0  0  0
 13 14  1  1  0  0  0
 13 15  1  0  0  0  0
 15 26  1  6  0  0  0
 17 18  2  0  0  0  0
 17 22  1  0  0  0  0
 18 19  1  0  0  0  0
 19 20  2  0  0  0  0
 20 21  1  0  0  0  0
 20 26  1  0  0  0  0
 21 22  2  0  0  0  0
 21 24  1  0  0  0  0
 22 23  1  0  0  0  0
 24 25  2  0  0  0  0
 25 26  1  0  0  0  0
M  END
>  <CHROM.1>
148.31129006,-171.35509795,72.92608668,-150.28731608,138.79154965,81.80055552
9.15607904,38.47349924,14.53339454,6.43654033,2.40555293,0.59630467,-0.02033867

>  <Name>
ligand

>  <RI>
0

>  <Rbt.Current_Directory>
/home/itssahil/PROJECTS/Mol_Feturizer/New_Systems/rnas/3NPQ

>  <Rbt.Executable>
rbdock ($Id: //depot/dev/client3/rdock/2013.1/src/exe/rbdock.cxx#4 $)

>  <Rbt.Library>
libRbt.so (2013.1, Build901 2013/11/27)

>  <Rbt.Parameter_File>
/export/apps/rDock/src/rDock_2013.1_src/data/scripts/dock_solv.prm

>  <Rbt.Receptor>
prm/pocket_docking_4.prm

>  <SCORE>
-27.8093

>  <SCORE.INTER>
-26.2533

>  <SCORE.INTER.CONST>
1

>  <SCORE.INTER.POLAR>
0

>  <SCORE.INTER.ROT>
7

>  <SCORE.INTER.SOLV>
21.6248

>  <SCORE.INTER.VDW>
-32.9771

>  <SCORE.INTER.norm>
-1.00974

>  <SCORE.INTRA>
-1.55606

>  <SCORE.INTRA.DIHEDRAL>
1.16805

>  <SCORE.INTRA.DIHEDRAL.0>
6.97628

>  <SCORE.INTRA.POLAR>
0

>  <SCORE.INTRA.POLAR.0>
0

>  <SCORE.INTRA.REPUL>
0

>  <SCORE.INTRA.REPUL.0>
0

>  <SCORE.INTRA.SOLV>
-0.815824

>  <SCORE.INTRA.SOLV.lig_0>
-49.8243

>  <SCORE.INTRA.VDW>
-1.73217

>  <SCORE.INTRA.VDW.0>
-1.35881

>  <SCORE.INTRA.norm>
-0.0598483

>  <SCORE.RESTR>
0

>  <SCORE.RESTR.CAVITY>
0

>  <SCORE.RESTR.norm>
0

>  <SCORE.SYSTEM>
0

>  <SCORE.SYSTEM.CONST>
0

>  <SCORE.SYSTEM.DIHEDRAL>
0

>  <SCORE.SYSTEM.SOLV>
0

>  <SCORE.SYSTEM.norm>
0

>  <SCORE.heavy>
26

>  <SCORE.norm>
-1.06959

>  <RMSD>
1.949

$$$$
ligand
 OpenBabel11021811483D
libRbt.so/2013.1/901 2013/11/27
 26 28  0  0  0  0  0  0  0  0999 V2000
   33.3473   17.2554    7.7731 N   0  0  0  0  0  0  0  0  0  0  0  0
   34.3712   17.1513    8.8052 C   0  0  2  0  0  0  0  0  0  0  0  0
   34.1405   18.1741    9.9119 C   0  0  0  0  0  0  0  0  0  0  0  0
   34.3819   17.9010   11.0871 O   0  0  0  0  0  0  0  0  0  0  0  0
   35.7578   17.3380    8.2022 C   0  0  0  0  0  0  0  0  0  0  0  0
   36.3116   16.0949    7.5181 C   0  0  0  0  0  0  0  0  0  0  0  0
   36.7255   14.7817    8.6940 S   0  0  0  0  0  0  0  0  0  0  0  0
   37.8122   14.0181    7.4634 C   0  0  0  0  0  0  0  0  0  0  0  0
   39.0935   14.8119    7.2366 C   0  0  1  0  0  0  0  0  0  0  0  0
   40.1965   13.9300    7.1333 O   0  0  0  0  0  0  0  0  0  0  0  0
   39.0273   15.6250    5.9541 C   0  0  1  0  0  0  0  0  0  0  0  0
   39.0948   16.9994    6.2521 O   0  0  0  0  0  0  0  0  0  0  0  0
   40.2346   15.2106    5.1389 C   0  0  1  0  0  0  0  0  0  0  0  0
   41.0398   16.3328    4.8620 O   0  0  0  0  0  0  0  0  0  0  0  0
   40.9967   14.2203    6.0025 C   0  0  2  0  0  0  0  0  0  0  0  0
   33.7076   19.2984    9.6562 O   0  0  0  0  0  0  0  0  0  0  0  0
   39.4435    9.3089    4.9863 N   0  0  0  0  0  0  0  0  0  0  0  0
   38.8665   10.2235    5.8442 C   0  0  0  0  0  0  0  0  0  0  0  0
   39.4145   11.4827    5.9887 N   0  0  0  0  0  0  0  0  0  0  0  0
   40.5235   11.8302    5.2914 C   0  0  0  0  0  0  0  0  0  0  0  0
   41.1186   10.9241    4.4242 C   0  0  0  0  0  0  0  0  0  0  0  0
   40.5728    9.6552    4.2723 C   0  0  0  0  0  0  0  0  0  0  0  0
   41.1350    8.7788    3.4452 N   0  0  0  0  0  0  0  0  0  0  0  0
   42.1923   11.5252    3.8675 N   0  0  0  0  0  0  0  0  0  0  0  0
   42.2908   12.7820    4.3585 C   0  0  0  0  0  0  0  0  0  0  0  0
   41.2628   12.9857    5.2426 N   0  0  0  0  0  0  0  0  0  0  0  0
  2  1  1  6  0  0  0
  2  3  1  0  0  0  0
  2  5  1  0  0  0  0
  3  4  1  0  0  0  0
  3 16  1  0  0  0  0
  5  6  1  0  0  0  0
  6  7  1  0  0  0  0
  7  8  1  0  0  0  0
  9  8  1  6  0  0  0
  9 10  1  0  0  0  0
  9 11  1  0  0  0  0
 10 15  1  0  0  0  0
 11 12  1  1  0  0  0
 11 13  1  0  0  0  0
 13 14  1  1  0  0  0
 13 15  1  0  0  0  0
 15 26  1  6  0  0  0
 17 18  2  0  0  0  0
 17 22  1  0  0  0  0
 18 19  1  0  0  0  0
 19 20  2  0  0  0  0
 20 21  1  0  0  0  0
 20 26  1  0  0  0  0
 21 22  2  0  0  0  0
 21 24  1  0  0  0  0
 22 23  1  0  0  0  0
 24 25  2  0  0  0  0
 25 26  1  0  0  0  0
M  END
>  <CHROM.1>
143.70680380,-80.06267287,-69.54737002,-159.84047791,72.14525524,138.36143413
21.26623417,38.43168657,14.32467916,6.67990758,2.37208887,0.53368687,0.13110514

>  <Name>
ligand

>  <RI>
0

>  <Rbt.Current_Directory>
/home/itssahil/PROJECTS/Mol_Feturizer/New_Systems/rnas/3NPQ

>  <Rbt.Executable>
rbdock ($Id: //depot/dev/client3/rdock/2013.1/src/exe/rbdock.cxx#4 $)

>  <Rbt.Library>
libRbt.so (2013.1, Build901 2013/11/27)

>  <Rbt.Parameter_File>
/export/apps/rDock/src/rDock_2013.1_src/data/scripts/dock_solv.prm

>  <Rbt.Receptor>
prm/pocket_docking_3.prm

>  <SCORE>
-30.021

>  <SCORE.INTER>
-30.0931

>  <SCORE.INTER.CONST>
1

>  <SCORE.INTER.POLAR>
0

>  <SCORE.INTER.ROT>
7

>  <SCORE.INTER.SOLV>
18.9283

>  <SCORE.INTER.VDW>
-34.6382

>  <SCORE.INTER.norm>
-1.15743

>  <SCORE.INTRA>
0.0640213

>  <SCORE.INTRA.DIHEDRAL>
2.50665

>  <SCORE.INTRA.DIHEDRAL.0>
6.97628

>  <SCORE.INTRA.POLAR>
0

>  <SCORE.INTRA.POLAR.0>
0

>  <SCORE.INTRA.REPUL>
0

>  <SCORE.INTRA.REPUL.0>
0

>  <SCORE.INTRA.SOLV>
0.257678

>  <SCORE.INTRA.SOLV.lig_0>
-49.8243

>  <SCORE.INTRA.VDW>
-1.31814

>  <SCORE.INTRA.VDW.0>
-1.35881

>  <SCORE.INTRA.norm>
0.00246236

>  <SCORE.RESTR>
0.00807867

>  <SCORE.RESTR.CAVITY>
0.00807867

>  <SCORE.RESTR.norm>
0.000310718

>  <SCORE.SYSTEM>
0

>  <SCORE.SYSTEM.CONST>
0

>  <SCORE.SYSTEM.DIHEDRAL>
0

>  <SCORE.SYSTEM.SOLV>
0

>  <SCORE.SYSTEM.norm>
0

>  <SCORE.heavy>
26

>  <SCORE.norm>
-1.15466

>  <RMSD>
1.952

$$$$
ligand
 OpenBabel11021811483D
libRbt.so/2013.1/901 2013/11/27
 26 28  0  0  0  0  0  0  0  0999 V2000
   33.8416   17.4753    7.7328 N   0  0  0  0  0  0  0  0  0  0  0  0
   34.0871   16.9358    9.0645 C   0  0  2  0  0  0  0  0  0  0  0  0
   34.7847   17.9608    9.9516 C   0  0  0  0  0  0  0  0  0  0  0  0
   34.8067   17.8292   11.1747 O   0  0  0  0  0  0  0  0  0  0  0  0
   34.9219   15.6642    8.9796 C   0  0  0  0  0  0  0  0  0  0  0  0
   36.3090   15.8686    8.3848 C   0  0  0  0  0  0  0  0  0  0  0  0
   37.2104   14.3124    8.1745 S   0  0  0  0  0  0  0  0  0  0  0  0
   37.6690   14.8016    6.4927 C   0  0  0  0  0  0  0  0  0  0  0  0
   39.0701   15.3966    6.4144 C   0  0  1  0  0  0  0  0  0  0  0  0
   40.0379   14.3800    6.6013 O   0  0  0  0  0  0  0  0  0  0  0  0
   39.3285   16.0410    5.0623 C   0  0  1  0  0  0  0  0  0  0  0  0
   39.5426   17.4235    5.2215 O   0  0  0  0  0  0  0  0  0  0  0  0
   40.5800   15.3808    4.5219 C   0  0  1  0  0  0  0  0  0  0  0  0
   41.5712   16.3510    4.2757 O   0  0  0  0  0  0  0  0  0  0  0  0
   41.0434   14.4230    5.6060 C   0  0  2  0  0  0  0  0  0  0  0  0
   35.3433   18.9448    9.4652 O   0  0  0  0  0  0  0  0  0  0  0  0
   39.2756    9.4860    5.3453 N   0  0  0  0  0  0  0  0  0  0  0  0
   38.7462   10.5428    6.0583 C   0  0  0  0  0  0  0  0  0  0  0  0
   39.3479   11.7848    6.0099 N   0  0  0  0  0  0  0  0  0  0  0  0
   40.4632   11.9759    5.2639 C   0  0  0  0  0  0  0  0  0  0  0  0
   41.0109   10.9253    4.5404 C   0  0  0  0  0  0  0  0  0  0  0  0
   40.4109    9.6725    4.5830 C   0  0  0  0  0  0  0  0  0  0  0  0
   40.9273    8.6587    3.8947 N   0  0  0  0  0  0  0  0  0  0  0  0
   42.1030   11.3894    3.8955 N   0  0  0  0  0  0  0  0  0  0  0  0
   42.2591   12.7003    4.1916 C   0  0  0  0  0  0  0  0  0  0  0  0
   41.2497   13.0782    5.0391 N   0  0  0  0  0  0  0  0  0  0  0  0
  2  1  1  6  0  0  0
  2  3  1  0  0  0  0
  2  5  1  0  0  0  0
  3  4  1  0  0  0  0
  3 16  1  0  0  0  0
  5  6  1  0  0  0  0
  6  7  1  0  0  0  0
  7  8  1  0  0  0  0
  9  8  1  6  0  0  0
  9 10  1  0  0  0  0
  9 11  1  0  0  0  0
 10 15  1  0  0  0  0
 11 12  1  1  0  0  0
 11 13  1  0  0  0  0
 13 14  1  1  0  0  0
 13 15  1  0  0  0  0
 15 26  1  6  0  0  0
 17 18  2  0  0  0  0
 17 22  1  0  0  0  0
 18 19  1  0  0  0  0
 19 20  2  0  0  0  0
 20 21  1  0  0  0  0
 20 26  1  0  0  0  0
 21 22  2  0  0  0  0
 21 24  1  0  0  0  0
 22 23  1  0  0  0  0
 24 25  2  0  0  0  0
 25 26  1  0  0  0  0
M  END
>  <CHROM.1>
163.15354675,62.38089259,-175.15942725,132.93270440,97.94037656,71.49451160
9.64354373,38.57591175,14.32896408,6.51756091,2.43685380,0.64055681,0.04500554

>  <Name>
ligand

>  <RI>
0

>  <Rbt.Current_Directory>
/home/itssahil/PROJECTS/Mol_Feturizer/New_Systems/rnas/3NPQ

>  <Rbt.Executable>
rbdock ($Id: //depot/dev/client3/rdock/2013.1/src/exe/rbdock.cxx#4 $)

>  <Rbt.Library>
libRbt.so (2013.1, Build901 2013/11/27)

>  <Rbt.Parameter_File>
/export/apps/rDock/src/rDock_2013.1_src/data/scripts/dock_solv.prm

>  <Rbt.Receptor>
prm/pocket_docking_3.prm

>  <SCORE>
-29.9332

>  <SCORE.INTER>
-28.8235

>  <SCORE.INTER.CONST>
1

>  <SCORE.INTER.POLAR>
0

>  <SCORE.INTER.ROT>
7

>  <SCORE.INTER.SOLV>
18.9232

>  <SCORE.INTER.VDW>
-33.7901

>  <SCORE.INTER.norm>
-1.1086

>  <SCORE.INTRA>
-1.1844

>  <SCORE.INTRA.DIHEDRAL>
0.0816882

>  <SCORE.INTRA.DIHEDRAL.0>
6.97628

>  <SCORE.INTRA.POLAR>
0

>  <SCORE.INTRA.POLAR.0>
0

>  <SCORE.INTRA.REPUL>
0

>  <SCORE.INTRA.REPUL.0>
0

>  <SCORE.INTRA.SOLV>
-0.221238

>  <SCORE.INTRA.SOLV.lig_0>
-49.8243

>  <SCORE.INTRA.VDW>
-1.11463

>  <SCORE.INTRA.VDW.0>
-1.35881

>  <SCORE.INTRA.norm>
-0.0455539

>  <SCORE.RESTR>
0.0747068

>  <SCORE.RESTR.CAVITY>
0.0747068

>  <SCORE.RESTR.norm>
0.00287334

>  <SCORE.SYSTEM>
0

>  <SCORE.SYSTEM.CONST>
0

>  <SCORE.SYSTEM.DIHEDRAL>
0

>  <SCORE.SYSTEM.SOLV>
0

>  <SCORE.SYSTEM.norm>
0

>  <SCORE.heavy>
26

>  <SCORE.norm>
-1.15128

>  <RMSD>
1.971

$$$$
ligand
 OpenBabel11021811483D
libRbt.so/2013.1/901 2013/11/27
 26 28  0  0  0  0  0  0  0  0999 V2000
   34.9241   17.4015    7.5325 N   0  0  0  0  0  0  0  0  0  0  0  0
   34.3623   17.0030    8.8171 C   0  0  2  0  0  0  0  0  0  0  0  0
   34.5919   18.0779    9.8734 C   0  0  0  0  0  0  0  0  0  0  0  0
   33.6923   18.4113   10.6437 O   0  0  0  0  0  0  0  0  0  0  0  0
   34.9657   15.6816    9.2766 C   0  0  0  0  0  0  0  0  0  0  0  0
   36.3697   15.4208    8.7471 C   0  0  0  0  0  0  0  0  0  0  0  0
   36.3820   15.0172    6.9820 S   0  0  0  0  0  0  0  0  0  0  0  0
   37.8843   14.0336    7.2142 C   0  0  0  0  0  0  0  0  0  0  0  0
   39.1559   14.8275    6.9381 C   0  0  1  0  0  0  0  0  0  0  0  0
   40.2668   13.9522    6.8701 O   0  0  0  0  0  0  0  0  0  0  0  0
   39.0719   15.5750    5.6173 C   0  0  1  0  0  0  0  0  0  0  0  0
   39.1279   16.9631    5.8459 O   0  0  0  0  0  0  0  0  0  0  0  0
   40.2773   15.1322    4.8141 C   0  0  1  0  0  0  0  0  0  0  0  0
   41.0691   16.2469    4.4754 O   0  0  0  0  0  0  0  0  0  0  0  0
   41.0557   14.1935    5.7200 C   0  0  2  0  0  0  0  0  0  0  0  0
   35.6835   18.6379    9.9815 O   0  0  0  0  0  0  0  0  0  0  0  0
   39.5422    9.2239    4.9587 N   0  0  0  0  0  0  0  0  0  0  0  0
   38.9620   10.1746    5.7742 C   0  0  0  0  0  0  0  0  0  0  0  0
   39.4991   11.4444    5.8525 N   0  0  0  0  0  0  0  0  0  0  0  0
   40.6004   11.7669    5.1313 C   0  0  0  0  0  0  0  0  0  0  0  0
   41.1985   10.8244    4.3060 C   0  0  0  0  0  0  0  0  0  0  0  0
   40.6637    9.5446    4.2208 C   0  0  0  0  0  0  0  0  0  0  0  0
   41.2288    8.6334    3.4344 N   0  0  0  0  0  0  0  0  0  0  0  0
   42.2630   11.4068    3.7130 N   0  0  0  0  0  0  0  0  0  0  0  0
   42.3528   12.6872    4.1404 C   0  0  0  0  0  0  0  0  0  0  0  0
   41.3286   12.9252    5.0203 N   0  0  0  0  0  0  0  0  0  0  0  0
  2  1  1  6  0  0  0
  2  3  1  0  0  0  0
  2  5  1  0  0  0  0
  3  4  1  0  0  0  0
  3 16  1  0  0  0  0
  5  6  1  0  0  0  0
  6  7  1  0  0  0  0
  7  8  1  0  0  0  0
  9  8  1  6  0  0  0
  9 10  1  0  0  0  0
  9 11  1  0  0  0  0
 10 15  1  0  0  0  0
 11 12  1  1  0  0  0
 11 13  1  0  0  0  0
 13 14  1  1  0  0  0
 13 15  1  0  0  0  0
 15 26  1  6  0  0  0
 17 18  2  0  0  0  0
 17 22  1  0  0  0  0
 18 19  1  0  0  0  0
 19 20  2  0  0  0  0
 20 21  1  0  0  0  0
 20 26  1  0  0  0  0
 21 22  2  0  0  0  0
 21 24  1  0  0  0  0
 22 23  1  0  0  0  0
 24 25  2  0  0  0  0
 25 26  1  0  0  0  0
M  END
>  <CHROM.1>
135.87700889,27.52528969,-72.41160616,-151.63082116,-94.07265046,-168.23773913
21.34039987,38.54670560,14.20994974,6.46715560,-2.37198985,-0.57027581,-3.01263734

>  <Name>
ligand

>  <RI>
0

>  <Rbt.Current_Directory>
/home/itssahil/PROJECTS/Mol_Feturizer/New_Systems/rnas/3NPQ

>  <Rbt.Executable>
rbdock ($Id: //depot/dev/client3/rdock/2013.1/src/exe/rbdock.cxx#4 $)

>  <Rbt.Library>
libRbt.so (2013.1, Build901 2013/11/27)

>  <Rbt.Parameter_File>
/export/apps/rDock/src/rDock_2013.1_src/data/scripts/dock_solv.prm

>  <Rbt.Receptor>
prm/pocket_docking_6.prm

>  <SCORE>
-28.5428

>  <SCORE.INTER>
-30.4624

>  <SCORE.INTER.CONST>
1

>  <SCORE.INTER.POLAR>
0

>  <SCORE.INTER.ROT>
7

>  <SCORE.INTER.SOLV>
15.3084

>  <SCORE.INTER.VDW>
-33.6777

>  <SCORE.INTER.norm>
-1.17163

>  <SCORE.INTRA>
1.91957

>  <SCORE.INTRA.DIHEDRAL>
2.60704

>  <SCORE.INTRA.DIHEDRAL.0>
6.97628

>  <SCORE.INTRA.POLAR>
0

>  <SCORE.INTRA.POLAR.0>
0

>  <SCORE.INTRA.REPUL>
0

>  <SCORE.INTRA.REPUL.0>
0

>  <SCORE.INTRA.SOLV>
1.71145

>  <SCORE.INTRA.SOLV.lig_0>
-49.8243

>  <SCORE.INTRA.VDW>
-0.239672

>  <SCORE.INTRA.VDW.0>
-1.35881

>  <SCORE.INTRA.norm>
0.0738298

>  <SCORE.RESTR>
0

>  <SCORE.RESTR.CAVITY>
0

>  <SCORE.RESTR.norm>
0

>  <SCORE.SYSTEM>
0

>  <SCORE.SYSTEM.CONST>
0

>  <SCORE.SYSTEM.DIHEDRAL>
0

>  <SCORE.SYSTEM.SOLV>
0

>  <SCORE.SYSTEM.norm>
0

>  <SCORE.heavy>
26

>  <SCORE.norm>
-1.0978

>  <RMSD>
1.974

$$$$
ligand
 OpenBabel11021811483D
libRbt.so/2013.1/901 2013/11/27
 26 28  0  0  0  0  0  0  0  0999 V2000
   32.9529   17.4922    7.9160 N   0  0  0  0  0  0  0  0  0  0  0  0
   34.0974   17.0659    8.7116 C   0  0  2  0  0  0  0  0  0  0  0  0
   34.2538   17.9323    9.9561 C   0  0  0  0  0  0  0  0  0  0  0  0
   33.7197   19.0384   10.0290 O   0  0  0  0  0  0  0  0  0  0  0  0
   35.3728   17.1120    7.8794 C   0  0  0  0  0  0  0  0  0  0  0  0
   36.6039   16.5736    8.5965 C   0  0  0  0  0  0  0  0  0  0  0  0
   36.5751   14.7713    8.7670 S   0  0  0  0  0  0  0  0  0  0  0  0
   37.4531   14.6052    7.1922 C   0  0  0  0  0  0  0  0  0  0  0  0
   38.8382   15.2407    7.2209 C   0  0  1  0  0  0  0  0  0  0  0  0
   39.8320   14.2325    7.2504 O   0  0  0  0  0  0  0  0  0  0  0  0
   39.0842   16.0995    5.9911 C   0  0  1  0  0  0  0  0  0  0  0  0
   39.2610   17.4437    6.3709 O   0  0  0  0  0  0  0  0  0  0  0  0
   40.3547   15.5665    5.3619 C   0  0  1  0  0  0  0  0  0  0  0  0
   41.3207   16.5887    5.2817 O   0  0  0  0  0  0  0  0  0  0  0  0
   40.8394   14.4598    6.2826 C   0  0  2  0  0  0  0  0  0  0  0  0
   34.9179   17.5458   10.9186 O   0  0  0  0  0  0  0  0  0  0  0  0
   39.2239    9.5724    5.2480 N   0  0  0  0  0  0  0  0  0  0  0  0
   38.6671   10.4859    6.1203 C   0  0  0  0  0  0  0  0  0  0  0  0
   39.2296   11.7384    6.2677 N   0  0  0  0  0  0  0  0  0  0  0  0
   40.3331   12.0803    5.5589 C   0  0  0  0  0  0  0  0  0  0  0  0
   40.9080   11.1752    4.6772 C   0  0  0  0  0  0  0  0  0  0  0  0
   40.3475    9.9130    4.5223 C   0  0  0  0  0  0  0  0  0  0  0  0
   40.8902    9.0377    3.6813 N   0  0  0  0  0  0  0  0  0  0  0  0
   41.9805   11.7699    4.1115 N   0  0  0  0  0  0  0  0  0  0  0  0
   42.0980   13.0218    4.6109 C   0  0  0  0  0  0  0  0  0  0  0  0
   41.0834   13.2287    5.5097 N   0  0  0  0  0  0  0  0  0  0  0  0
  2  1  1  6  0  0  0
  2  3  1  0  0  0  0
  2  5  1  0  0  0  0
  3  4  1  0  0  0  0
  3 16  1  0  0  0  0
  5  6  1  0  0  0  0
  6  7  1  0  0  0  0
  7  8  1  0  0  0  0
  9  8  1  6  0  0  0
  9 10  1  0  0  0  0
  9 11  1  0  0  0  0
 10 15  1  0  0  0  0
 11 12  1  1  0  0  0
 11 13  1  0  0  0  0
 13 14  1  1  0  0  0
 13 15  1  0  0  0  0
 15 26  1  6  0  0  0
 17 18  2  0  0  0  0
 17 22  1  0  0  0  0
 18 19  1  0  0  0  0
 19 20  2  0  0  0  0
 20 21  1  0  0  0  0
 20 26  1  0  0  0  0
 21 22  2  0  0  0  0
 21 24  1  0  0  0  0
 22 23  1  0  0  0  0
 24 25  2  0  0  0  0
 25 26  1  0  0  0  0
M  END
>  <CHROM.1>
-18.92655817,-175.24460758,72.63678380,90.88000011,62.33205648,107.15327555
8.97028293,38.32864547,14.50941916,6.85220999,2.36783053,0.49756154,0.16828219

>  <Name>
ligand

>  <RI>
0

>  <Rbt.Current_Directory>
/home/itssahil/PROJECTS/Mol_Feturizer/New_Systems/rnas/3NPQ

>  <Rbt.Executable>
rbdock ($Id: //depot/dev/client3/rdock/2013.1/src/exe/rbdock.cxx#4 $)

>  <Rbt.Library>
libRbt.so (2013.1, Build901 2013/11/27)

>  <Rbt.Parameter_File>
/export/apps/rDock/src/rDock_2013.1_src/data/scripts/dock_solv.prm

>  <Rbt.Receptor>
prm/pocket_docking_4.prm

>  <SCORE>
-28.6286

>  <SCORE.INTER>
-28.9888

>  <SCORE.INTER.CONST>
1

>  <SCORE.INTER.POLAR>
0

>  <SCORE.INTER.ROT>
7

>  <SCORE.INTER.SOLV>
21.1156

>  <SCORE.INTER.VDW>
-34.6311

>  <SCORE.INTER.norm>
-1.11496

>  <SCORE.INTRA>
0.35948

>  <SCORE.INTRA.DIHEDRAL>
2.32616

>  <SCORE.INTRA.DIHEDRAL.0>
6.97628

>  <SCORE.INTRA.POLAR>
0

>  <SCORE.INTRA.POLAR.0>
0

>  <SCORE.INTRA.REPUL>
0

>  <SCORE.INTRA.REPUL.0>
0

>  <SCORE.INTRA.SOLV>
-0.589386

>  <SCORE.INTRA.SOLV.lig_0>
-49.8243

>  <SCORE.INTRA.VDW>
-0.508907

>  <SCORE.INTRA.VDW.0>
-1.35881

>  <SCORE.INTRA.norm>
0.0138261

>  <SCORE.RESTR>
0.000757092

>  <SCORE.RESTR.CAVITY>
0.000757092

>  <SCORE.RESTR.norm>
2.91189e-05

>  <SCORE.SYSTEM>
0

>  <SCORE.SYSTEM.CONST>
0

>  <SCORE.SYSTEM.DIHEDRAL>
0

>  <SCORE.SYSTEM.SOLV>
0

>  <SCORE.SYSTEM.norm>
0

>  <SCORE.heavy>
26

>  <SCORE.norm>
-1.1011

>  <RMSD>
1.983

$$$$
ligand
 OpenBabel11021811483D
libRbt.so/2013.1/901 2013/11/27
 26 28  0  0  0  0  0  0  0  0999 V2000
   34.6139   17.6783   10.5715 N   0  0  0  0  0  0  0  0  0  0  0  0
   35.2063   17.2226    9.3201 C   0  0  2  0  0  0  0  0  0  0  0  0
   34.8688   18.1715    8.1757 C   0  0  0  0  0  0  0  0  0  0  0  0
   33.7636   18.7074    8.1023 O   0  0  0  0  0  0  0  0  0  0  0  0
   34.7323   15.8134    8.9873 C   0  0  0  0  0  0  0  0  0  0  0  0
   35.4574   15.1746    7.8100 C   0  0  0  0  0  0  0  0  0  0  0  0
   37.1518   14.6859    8.2206 S   0  0  0  0  0  0  0  0  0  0  0  0
   37.7011   15.1938    6.5719 C   0  0  0  0  0  0  0  0  0  0  0  0
   39.1483   15.6720    6.5552 C   0  0  1  0  0  0  0  0  0  0  0  0
   40.0212   14.5782    6.7713 O   0  0  0  0  0  0  0  0  0  0  0  0
   39.5134   16.3009    5.2205 C   0  0  1  0  0  0  0  0  0  0  0  0
   39.8334   17.6601    5.4009 O   0  0  0  0  0  0  0  0  0  0  0  0
   40.7275   15.5433    4.7246 C   0  0  1  0  0  0  0  0  0  0  0  0
   41.8041   16.4301    4.5273 O   0  0  0  0  0  0  0  0  0  0  0  0
   41.0664   14.5442    5.8176 C   0  0  2  0  0  0  0  0  0  0  0  0
   35.6943   18.4249    7.2976 O   0  0  0  0  0  0  0  0  0  0  0  0
   39.0098    9.7189    5.5844 N   0  0  0  0  0  0  0  0  0  0  0  0
   38.5546   10.8040    6.3062 C   0  0  0  0  0  0  0  0  0  0  0  0
   39.2268   12.0088    6.2483 N   0  0  0  0  0  0  0  0  0  0  0  0
   40.3391   12.1354    5.4843 C   0  0  0  0  0  0  0  0  0  0  0  0
   40.8128   11.0556    4.7517 C   0  0  0  0  0  0  0  0  0  0  0  0
   40.1415    9.8399    4.8037 C   0  0  0  0  0  0  0  0  0  0  0  0
   40.5867    8.7985    4.1068 N   0  0  0  0  0  0  0  0  0  0  0  0
   41.9194   11.4561    4.0891 N   0  0  0  0  0  0  0  0  0  0  0  0
   42.1565   12.7552    4.3830 C   0  0  0  0  0  0  0  0  0  0  0  0
   41.1848   13.1903    5.2470 N   0  0  0  0  0  0  0  0  0  0  0  0
  2  1  1  1  0  0  0
  2  3  1  0  0  0  0
  2  5  1  0  0  0  0
  3  4  1  0  0  0  0
  3 16  1  0  0  0  0
  5  6  1  0  0  0  0
  6  7  1  0  0  0  0
  7  8  1  0  0  0  0
  9  8  1  6  0  0  0
  9 10  1  0  0  0  0
  9 11  1  0  0  0  0
 10 15  1  0  0  0  0
 11 12  1  1  0  0  0
 11 13  1  0  0  0  0
 13 14  1  1  0  0  0
 13 15  1  0  0  0  0
 15 26  1  6  0  0  0
 17 18  2  0  0  0  0
 17 22  1  0  0  0  0
 18 19  1  0  0  0  0
 19 20  2  0  0  0  0
 20 21  1  0  0  0  0
 20 26  1  0  0  0  0
 21 22  2  0  0  0  0
 21 24  1  0  0  0  0
 22 23  1  0  0  0  0
 24 25  2  0  0  0  0
 25 26  1  0  0  0  0
M  END
>  <CHROM.1>
-37.42733666,-171.31897205,72.90815850,-142.22138296,150.22387920,69.73070624
6.09810186,38.54591331,14.49870618,6.46388189,2.40504191,0.56606706,0.01983984

>  <Name>
ligand

>  <RI>
0

>  <Rbt.Current_Directory>
/home/itssahil/PROJECTS/Mol_Feturizer/New_Systems/rnas/3NPQ

>  <Rbt.Executable>
rbdock ($Id: //depot/dev/client3/rdock/2013.1/src/exe/rbdock.cxx#4 $)

>  <Rbt.Library>
libRbt.so (2013.1, Build901 2013/11/27)

>  <Rbt.Parameter_File>
/export/apps/rDock/src/rDock_2013.1_src/data/scripts/dock_solv.prm

>  <Rbt.Receptor>
prm/pocket_docking_5.prm

>  <SCORE>
-27.6931

>  <SCORE.INTER>
-25.4158

>  <SCORE.INTER.CONST>
1

>  <SCORE.INTER.POLAR>
0

>  <SCORE.INTER.ROT>
7

>  <SCORE.INTER.SOLV>
22.0827

>  <SCORE.INTER.VDW>
-32.5714

>  <SCORE.INTER.norm>
-0.97753

>  <SCORE.INTRA>
-2.27736

>  <SCORE.INTRA.DIHEDRAL>
-0.22079

>  <SCORE.INTRA.DIHEDRAL.0>
6.97628

>  <SCORE.INTRA.POLAR>
0

>  <SCORE.INTRA.POLAR.0>
0

>  <SCORE.INTRA.REPUL>
0

>  <SCORE.INTRA.REPUL.0>
0

>  <SCORE.INTRA.SOLV>
-0.780974

>  <SCORE.INTRA.SOLV.lig_0>
-49.8243

>  <SCORE.INTRA.VDW>
-1.77648

>  <SCORE.INTRA.VDW.0>
-1.35881

>  <SCORE.INTRA.norm>
-0.0875909

>  <SCORE.RESTR>
0

>  <SCORE.RESTR.CAVITY>
0

>  <SCORE.RESTR.norm>
0

>  <SCORE.SYSTEM>
0

>  <SCORE.SYSTEM.CONST>
0

>  <SCORE.SYSTEM.DIHEDRAL>
0

>  <SCORE.SYSTEM.SOLV>
0

>  <SCORE.SYSTEM.norm>
0

>  <SCORE.heavy>
26

>  <SCORE.norm>
-1.06512

>  <RMSD>
1.986

$$$$
ligand
 OpenBabel11021811483D
libRbt.so/2013.1/901 2013/11/27
 26 28  0  0  0  0  0  0  0  0999 V2000
   33.5847   18.5853   10.2872 N   0  0  0  0  0  0  0  0  0  0  0  0
   34.6921   17.9671    9.5689 C   0  0  2  0  0  0  0  0  0  0  0  0
   35.5272   19.0147    8.8415 C   0  0  0  0  0  0  0  0  0  0  0  0
   36.7532   18.9238    8.7908 O   0  0  0  0  0  0  0  0  0  0  0  0
   34.1741   16.9319    8.5783 C   0  0  0  0  0  0  0  0  0  0  0  0
   35.2587   16.0458    7.9797 C   0  0  0  0  0  0  0  0  0  0  0  0
   36.0874   15.0257    9.2252 S   0  0  0  0  0  0  0  0  0  0  0  0
   37.2089   14.3832    7.9572 C   0  0  0  0  0  0  0  0  0  0  0  0
   38.3931   15.3067    7.6964 C   0  0  1  0  0  0  0  0  0  0  0  0
   39.5812   14.5462    7.5741 O   0  0  0  0  0  0  0  0  0  0  0  0
   38.2127   16.0966    6.4103 C   0  0  1  0  0  0  0  0  0  0  0  0
   38.1399   17.4730    6.6976 O   0  0  0  0  0  0  0  0  0  0  0  0
   39.4394   15.8057    5.5709 C   0  0  1  0  0  0  0  0  0  0  0  0
   40.1143   17.0046    5.2685 O   0  0  0  0  0  0  0  0  0  0  0  0
   40.3213   14.9099    6.4237 C   0  0  2  0  0  0  0  0  0  0  0  0
   34.9948   19.9768    8.2868 O   0  0  0  0  0  0  0  0  0  0  0  0
   39.2670    9.8572    5.4614 N   0  0  0  0  0  0  0  0  0  0  0  0
   38.6128   10.7136    6.3239 C   0  0  0  0  0  0  0  0  0  0  0  0
   39.0301   12.0236    6.4522 N   0  0  0  0  0  0  0  0  0  0  0  0
   40.0857   12.4786    5.7340 C   0  0  0  0  0  0  0  0  0  0  0  0
   40.7569   11.6325    4.8619 C   0  0  0  0  0  0  0  0  0  0  0  0
   40.3426   10.3129    4.7263 C   0  0  0  0  0  0  0  0  0  0  0  0
   40.9786    9.4932    3.8946 N   0  0  0  0  0  0  0  0  0  0  0  0
   41.7535   12.3370    4.2836 N   0  0  0  0  0  0  0  0  0  0  0  0
   41.7298   13.6008    4.7658 C   0  0  0  0  0  0  0  0  0  0  0  0
   40.7009   13.7038    5.6662 N   0  0  0  0  0  0  0  0  0  0  0  0
  2  1  1  6  0  0  0
  2  3  1  0  0  0  0
  2  5  1  0  0  0  0
  3  4  1  0  0  0  0
  3 16  1  0  0  0  0
  5  6  1  0  0  0  0
  6  7  1  0  0  0  0
  7  8  1  0  0  0  0
  9  8  1  6  0  0  0
  9 10  1  0  0  0  0
  9 11  1  0  0  0  0
 10 15  1  0  0  0  0
 11 12  1  1  0  0  0
 11 13  1  0  0  0  0
 13 14  1  1  0  0  0
 13 15  1  0  0  0  0
 15 26  1  6  0  0  0
 17 18  2  0  0  0  0
 17 22  1  0  0  0  0
 18 19  1  0  0  0  0
 19 20  2  0  0  0  0
 20 21  1  0  0  0  0
 20 26  1  0  0  0  0
 21 22  2  0  0  0  0
 21 24  1  0  0  0  0
 22 23  1  0  0  0  0
 24 25  2  0  0  0  0
 25 26  1  0  0  0  0
M  END
>  <CHROM.1>
141.20335397,-168.70461713,63.44921436,-176.71740482,83.51709745,137.47570962
21.63484752,38.14334089,14.90342178,6.97552453,2.33665748,0.59994707,0.04009510

>  <Name>
ligand

>  <RI>
0

>  <Rbt.Current_Directory>
/home/itssahil/PROJECTS/Mol_Feturizer/New_Systems/rnas/3NPQ

>  <Rbt.Executable>
rbdock ($Id: //depot/dev/client3/rdock/2013.1/src/exe/rbdock.cxx#4 $)

>  <Rbt.Library>
libRbt.so (2013.1, Build901 2013/11/27)

>  <Rbt.Parameter_File>
/export/apps/rDock/src/rDock_2013.1_src/data/scripts/dock_solv.prm

>  <Rbt.Receptor>
prm/pocket_docking_5.prm

>  <SCORE>
-30.1641

>  <SCORE.INTER>
-28.4246

>  <SCORE.INTER.CONST>
1

>  <SCORE.INTER.POLAR>
0

>  <SCORE.INTER.ROT>
7

>  <SCORE.INTER.SOLV>
23.1105

>  <SCORE.INTER.VDW>
-34.9199

>  <SCORE.INTER.norm>
-1.09325

>  <SCORE.INTRA>
-1.73953

>  <SCORE.INTRA.DIHEDRAL>
1.27651

>  <SCORE.INTRA.DIHEDRAL.0>
6.97628

>  <SCORE.INTRA.POLAR>
0

>  <SCORE.INTRA.POLAR.0>
0

>  <SCORE.INTRA.REPUL>
0

>  <SCORE.INTRA.REPUL.0>
0

>  <SCORE.INTRA.SOLV>
-0.361078

>  <SCORE.INTRA.SOLV.lig_0>
-49.8243

>  <SCORE.INTRA.VDW>
-2.19725

>  <SCORE.INTRA.VDW.0>
-1.35881

>  <SCORE.INTRA.norm>
-0.066905

>  <SCORE.RESTR>
0

>  <SCORE.RESTR.CAVITY>
0

>  <SCORE.RESTR.norm>
0

>  <SCORE.SYSTEM>
0

>  <SCORE.SYSTEM.CONST>
0

>  <SCORE.SYSTEM.DIHEDRAL>
0

>  <SCORE.SYSTEM.SOLV>
0

>  <SCORE.SYSTEM.norm>
0

>  <SCORE.heavy>
26

>  <SCORE.norm>
-1.16016

>  <RMSD>
1.987

$$$$
ligand
 OpenBabel11021811483D
libRbt.so/2013.1/901 2013/11/27
 26 28  0  0  0  0  0  0  0  0999 V2000
   34.2660   17.6406   10.3118 N   0  0  0  0  0  0  0  0  0  0  0  0
   35.2314   17.7751    9.2280 C   0  0  2  0  0  0  0  0  0  0  0  0
   35.3393   19.2238    8.7661 C   0  0  0  0  0  0  0  0  0  0  0  0
   36.4185   19.6968    8.4116 O   0  0  0  0  0  0  0  0  0  0  0  0
   34.8464   16.8805    8.0563 C   0  0  0  0  0  0  0  0  0  0  0  0
   34.9221   15.3900    8.3600 C   0  0  0  0  0  0  0  0  0  0  0  0
   36.5692   14.8762    8.9091 S   0  0  0  0  0  0  0  0  0  0  0  0
   37.2262   15.2024    7.2538 C   0  0  0  0  0  0  0  0  0  0  0  0
   38.6271   15.8022    7.2844 C   0  0  1  0  0  0  0  0  0  0  0  0
   39.5917   14.7717    7.3973 O   0  0  0  0  0  0  0  0  0  0  0  0
   38.9282   16.5832    6.0157 C   0  0  1  0  0  0  0  0  0  0  0  0
   39.1321   17.9417    6.3242 O   0  0  0  0  0  0  0  0  0  0  0  0
   40.1992   15.9825    5.4520 C   0  0  1  0  0  0  0  0  0  0  0  0
   41.1947   16.9729    5.3409 O   0  0  0  0  0  0  0  0  0  0  0  0
   40.6295   14.9175    6.4461 C   0  0  2  0  0  0  0  0  0  0  0  0
   34.3490   19.9554    8.7361 O   0  0  0  0  0  0  0  0  0  0  0  0
   38.9975    9.9741    5.7630 N   0  0  0  0  0  0  0  0  0  0  0  0
   38.4571   10.9427    6.5848 C   0  0  0  0  0  0  0  0  0  0  0  0
   39.0215   12.2018    6.6394 N   0  0  0  0  0  0  0  0  0  0  0  0
   40.1108   12.4962    5.8886 C   0  0  0  0  0  0  0  0  0  0  0  0
   40.6690   11.5354    5.0565 C   0  0  0  0  0  0  0  0  0  0  0  0
   40.1065   10.2662    4.9950 C   0  0  0  0  0  0  0  0  0  0  0  0
   40.6333    9.3376    4.2023 N   0  0  0  0  0  0  0  0  0  0  0  0
   41.7299   12.0914    4.4326 N   0  0  0  0  0  0  0  0  0  0  0  0
   41.8562   13.3730    4.8472 C   0  0  0  0  0  0  0  0  0  0  0  0
   40.8592   13.6386    5.7502 N   0  0  0  0  0  0  0  0  0  0  0  0
  2  1  1  1  0  0  0
  2  3  1  0  0  0  0
  2  5  1  0  0  0  0
  3  4  1  0  0  0  0
  3 16  1  0  0  0  0
  5  6  1  0  0  0  0
  6  7  1  0  0  0  0
  7  8  1  0  0  0  0
  9  8  1  6  0  0  0
  9 10  1  0  0  0  0
  9 11  1  0  0  0  0
 10 15  1  0  0  0  0
 11 12  1  1  0  0  0
 11 13  1  0  0  0  0
 13 14  1  1  0  0  0
 13 15  1  0  0  0  0
 15 26  1  6  0  0  0
 17 18  2  0  0  0  0
 17 22  1  0  0  0  0
 18 19  1  0  0  0  0
 19 20  2  0  0  0  0
 20 21  1  0  0  0  0
 20 26  1  0  0  0  0
 21 22  2  0  0  0  0
 21 24  1  0  0  0  0
 22 23  1  0  0  0  0
 24 25  2  0  0  0  0
 25 26  1  0  0  0  0
M  END
>  <CHROM.1>
143.77150157,-65.92007406,-57.47786078,-68.31769096,142.29496677,84.13581576
5.88275807,38.32403516,14.94996780,6.92406745,2.29263032,0.54514149,0.06908333

>  <Name>
ligand

>  <RI>
0

>  <Rbt.Current_Directory>
/home/itssahil/PROJECTS/Mol_Feturizer/New_Systems/rnas/3NPQ

>  <Rbt.Executable>
rbdock ($Id: //depot/dev/client3/rdock/2013.1/src/exe/rbdock.cxx#4 $)

>  <Rbt.Library>
libRbt.so (2013.1, Build901 2013/11/27)

>  <Rbt.Parameter_File>
/export/apps/rDock/src/rDock_2013.1_src/data/scripts/dock_solv.prm

>  <Rbt.Receptor>
prm/pocket_docking_6.prm

>  <SCORE>
-27.6007

>  <SCORE.INTER>
-26.6167

>  <SCORE.INTER.CONST>
1

>  <SCORE.INTER.POLAR>
0

>  <SCORE.INTER.ROT>
7

>  <SCORE.INTER.SOLV>
20.7981

>  <SCORE.INTER.VDW>
-32.9438

>  <SCORE.INTER.norm>
-1.02372

>  <SCORE.INTRA>
-0.984

>  <SCORE.INTRA.DIHEDRAL>
-0.511359

>  <SCORE.INTRA.DIHEDRAL.0>
6.97628

>  <SCORE.INTRA.POLAR>
0

>  <SCORE.INTRA.POLAR.0>
0

>  <SCORE.INTRA.REPUL>
0

>  <SCORE.INTRA.REPUL.0>
0

>  <SCORE.INTRA.SOLV>
0.396089

>  <SCORE.INTRA.SOLV.lig_0>
-49.8243

>  <SCORE.INTRA.VDW>
-0.926365

>  <SCORE.INTRA.VDW.0>
-1.35881

>  <SCORE.INTRA.norm>
-0.0378462

>  <SCORE.RESTR>
0

>  <SCORE.RESTR.CAVITY>
0

>  <SCORE.RESTR.norm>
0

>  <SCORE.SYSTEM>
0

>  <SCORE.SYSTEM.CONST>
0

>  <SCORE.SYSTEM.DIHEDRAL>
0

>  <SCORE.SYSTEM.SOLV>
0

>  <SCORE.SYSTEM.norm>
0

>  <SCORE.heavy>
26

>  <SCORE.norm>
-1.06156

>  <RMSD>
1.987

$$$$
ligand
 OpenBabel11021811483D
libRbt.so/2013.1/901 2013/11/27
 26 28  0  0  0  0  0  0  0  0999 V2000
   34.5070   17.4617   10.4248 N   0  0  0  0  0  0  0  0  0  0  0  0
   35.1969   17.7547    9.1747 C   0  0  2  0  0  0  0  0  0  0  0  0
   34.8575   19.1547    8.6759 C   0  0  0  0  0  0  0  0  0  0  0  0
   33.7850   19.6860    8.9611 O   0  0  0  0  0  0  0  0  0  0  0  0
   34.8404   16.7213    8.1135 C   0  0  0  0  0  0  0  0  0  0  0  0
   35.2387   15.2961    8.4739 C   0  0  0  0  0  0  0  0  0  0  0  0
   37.0204   15.1204    8.7442 S   0  0  0  0  0  0  0  0  0  0  0  0
   37.3057   15.2367    6.9600 C   0  0  0  0  0  0  0  0  0  0  0  0
   38.6382   15.8933    6.6187 C   0  0  1  0  0  0  0  0  0  0  0  0
   39.6858   14.9472    6.7303 O   0  0  0  0  0  0  0  0  0  0  0  0
   38.6478   16.4316    5.1973 C   0  0  1  0  0  0  0  0  0  0  0  0
   38.7952   17.8317    5.2142 O   0  0  0  0  0  0  0  0  0  0  0  0
   39.8426   15.7920    4.5209 C   0  0  1  0  0  0  0  0  0  0  0  0
   40.7216   16.7867    4.0494 O   0  0  0  0  0  0  0  0  0  0  0  0
   40.5245   14.9557    5.5902 C   0  0  2  0  0  0  0  0  0  0  0  0
   35.6488   19.7877    7.9759 O   0  0  0  0  0  0  0  0  0  0  0  0
   38.9488    9.9554    5.8756 N   0  0  0  0  0  0  0  0  0  0  0  0
   38.4516   11.0448    6.5623 C   0  0  0  0  0  0  0  0  0  0  0  0
   38.9922   12.2993    6.3609 N   0  0  0  0  0  0  0  0  0  0  0  0
   40.0158   12.4711    5.4892 C   0  0  0  0  0  0  0  0  0  0  0  0
   40.5299   11.3878    4.7897 C   0  0  0  0  0  0  0  0  0  0  0  0
   39.9908   10.1221    4.9859 C   0  0  0  0  0  0  0  0  0  0  0  0
   40.4759    9.0771    4.3221 N   0  0  0  0  0  0  0  0  0  0  0  0
   41.5293   11.8386    4.0010 N   0  0  0  0  0  0  0  0  0  0  0  0
   41.6597   13.1728    4.1834 C   0  0  0  0  0  0  0  0  0  0  0  0
   40.7279   13.5794    5.1034 N   0  0  0  0  0  0  0  0  0  0  0  0
  2  1  1  1  0  0  0
  2  3  1  0  0  0  0
  2  5  1  0  0  0  0
  3  4  1  0  0  0  0
  3 16  1  0  0  0  0
  5  6  1  0  0  0  0
  6  7  1  0  0  0  0
  7  8  1  0  0  0  0
  9  8  1  6  0  0  0
  9 10  1  0  0  0  0
  9 11  1  0  0  0  0
 10 15  1  0  0  0  0
 11 12  1  1  0  0  0
 11 13  1  0  0  0  0
 13 14  1  1  0  0  0
 13 15  1  0  0  0  0
 15 26  1  6  0  0  0
 17 18  2  0  0  0  0
 17 22  1  0  0  0  0
 18 19  1  0  0  0  0
 19 20  2  0  0  0  0
 20 21  1  0  0  0  0
 20 26  1  0  0  0  0
 21 22  2  0  0  0  0
 21 24  1  0  0  0  0
 22 23  1  0  0  0  0
 24 25  2  0  0  0  0
 25 26  1  0  0  0  0
M  END
>  <CHROM.1>
-27.44918156,-61.30365717,-59.71517461,-74.11994090,148.24193271,80.99538647
12.72470854,38.21798223,14.90122787,6.56609152,2.42507777,0.71096966,-0.11302191

>  <Name>
ligand

>  <RI>
0

>  <Rbt.Current_Directory>
/home/itssahil/PROJECTS/Mol_Feturizer/New_Systems/rnas/3NPQ

>  <Rbt.Executable>
rbdock ($Id: //depot/dev/client3/rdock/2013.1/src/exe/rbdock.cxx#4 $)

>  <Rbt.Library>
libRbt.so (2013.1, Build901 2013/11/27)

>  <Rbt.Parameter_File>
/export/apps/rDock/src/rDock_2013.1_src/data/scripts/dock_solv.prm

>  <Rbt.Receptor>
prm/pocket_docking_2.prm

>  <SCORE>
-27.7934

>  <SCORE.INTER>
-26.3774

>  <SCORE.INTER.CONST>
1

>  <SCORE.INTER.POLAR>
0

>  <SCORE.INTER.ROT>
7

>  <SCORE.INTER.SOLV>
21.091

>  <SCORE.INTER.VDW>
-32.8819

>  <SCORE.INTER.norm>
-1.01452

>  <SCORE.INTRA>
-1.41696

>  <SCORE.INTRA.DIHEDRAL>
-1.23346

>  <SCORE.INTRA.DIHEDRAL.0>
6.97628

>  <SCORE.INTRA.POLAR>
0

>  <SCORE.INTRA.POLAR.0>
0

>  <SCORE.INTRA.REPUL>
0

>  <SCORE.INTRA.REPUL.0>
0

>  <SCORE.INTRA.SOLV>
0.434155

>  <SCORE.INTRA.SOLV.lig_0>
-49.8243

>  <SCORE.INTRA.VDW>
-1.01731

>  <SCORE.INTRA.VDW.0>
-1.35881

>  <SCORE.INTRA.norm>
-0.0544986

>  <SCORE.RESTR>
0.00100445

>  <SCORE.RESTR.CAVITY>
0.00100445

>  <SCORE.RESTR.norm>
3.86328e-05

>  <SCORE.SYSTEM>
0

>  <SCORE.SYSTEM.CONST>
0

>  <SCORE.SYSTEM.DIHEDRAL>
0

>  <SCORE.SYSTEM.SOLV>
0

>  <SCORE.SYSTEM.norm>
0

>  <SCORE.heavy>
26

>  <SCORE.norm>
-1.06898

>  <RMSD>
2.003

$$$$
ligand
 OpenBabel11021811483D
libRbt.so/2013.1/901 2013/11/27
 26 28  0  0  0  0  0  0  0  0999 V2000
   32.9834   17.8047    8.0355 N   0  0  0  0  0  0  0  0  0  0  0  0
   33.8930   16.9834    8.8245 C   0  0  2  0  0  0  0  0  0  0  0  0
   34.7739   17.8464    9.7207 C   0  0  0  0  0  0  0  0  0  0  0  0
   34.8638   17.6209   10.9269 O   0  0  0  0  0  0  0  0  0  0  0  0
   34.7591   16.1213    7.9147 C   0  0  0  0  0  0  0  0  0  0  0  0
   35.7089   15.1911    8.6579 C   0  0  0  0  0  0  0  0  0  0  0  0
   37.2464   16.0140    9.1454 S   0  0  0  0  0  0  0  0  0  0  0  0
   38.1822   14.9271    8.0403 C   0  0  0  0  0  0  0  0  0  0  0  0
   39.4241   15.5994    7.4668 C   0  0  1  0  0  0  0  0  0  0  0  0
   40.4556   14.6444    7.2968 O   0  0  0  0  0  0  0  0  0  0  0  0
   39.1439   16.2269    6.1110 C   0  0  1  0  0  0  0  0  0  0  0  0
   39.3151   17.6225    6.1824 O   0  0  0  0  0  0  0  0  0  0  0  0
   40.1590   15.6273    5.1601 C   0  0  1  0  0  0  0  0  0  0  0  0
   40.9358   16.6468    4.5758 O   0  0  0  0  0  0  0  0  0  0  0  0
   41.0360   14.7224    6.0082 C   0  0  2  0  0  0  0  0  0  0  0  0
   35.4171   18.7897    9.2589 O   0  0  0  0  0  0  0  0  0  0  0  0
   38.9125    9.9258    5.7842 N   0  0  0  0  0  0  0  0  0  0  0  0
   38.5071   11.0009    6.5493 C   0  0  0  0  0  0  0  0  0  0  0  0
   39.1900   12.1992    6.4813 N   0  0  0  0  0  0  0  0  0  0  0  0
   40.2640   12.3290    5.6648 C   0  0  0  0  0  0  0  0  0  0  0  0
   40.6873   11.2591    4.8881 C   0  0  0  0  0  0  0  0  0  0  0  0
   40.0050   10.0500    4.9500 C   0  0  0  0  0  0  0  0  0  0  0  0
   40.4020    9.0181    4.2112 N   0  0  0  0  0  0  0  0  0  0  0  0
   41.7641   11.6607    4.1786 N   0  0  0  0  0  0  0  0  0  0  0  0
   42.0312   12.9509    4.4857 C   0  0  0  0  0  0  0  0  0  0  0  0
   41.1093   13.3791    5.4059 N   0  0  0  0  0  0  0  0  0  0  0  0
  2  1  1  6  0  0  0
  2  3  1  0  0  0  0
  2  5  1  0  0  0  0
  3  4  1  0  0  0  0
  3 16  1  0  0  0  0
  5  6  1  0  0  0  0
  6  7  1  0  0  0  0
  7  8  1  0  0  0  0
  9  8  1  6  0  0  0
  9 10  1  0  0  0  0
  9 11  1  0  0  0  0
 10 15  1  0  0  0  0
 11 12  1  1  0  0  0
 11 13  1  0  0  0  0
 13 14  1  1  0  0  0
 13 15  1  0  0  0  0
 15 26  1  6  0  0  0
 17 18  2  0  0  0  0
 17 22  1  0  0  0  0
 18 19  1  0  0  0  0
 19 20  2  0  0  0  0
 20 21  1  0  0  0  0
 20 26  1  0  0  0  0
 21 22  2  0  0  0  0
 21 24  1  0  0  0  0
 22 23  1  0  0  0  0
 24 25  2  0  0  0  0
 25 26  1  0  0  0  0
M  END
>  <CHROM.1>
128.17067269,-177.94593855,-83.73663226,-115.00932769,148.94835655,146.48399264
28.33770017,38.40659054,14.65372165,6.92817773,2.37103541,0.52635337,0.14669796

>  <Name>
ligand

>  <RI>
0

>  <Rbt.Current_Directory>
/home/itssahil/PROJECTS/Mol_Feturizer/New_Systems/rnas/3NPQ

>  <Rbt.Executable>
rbdock ($Id: //depot/dev/client3/rdock/2013.1/src/exe/rbdock.cxx#4 $)

>  <Rbt.Library>
libRbt.so (2013.1, Build901 2013/11/27)

>  <Rbt.Parameter_File>
/export/apps/rDock/src/rDock_2013.1_src/data/scripts/dock_solv.prm

>  <Rbt.Receptor>
prm/pocket_docking_3.prm

>  <SCORE>
-28.4996

>  <SCORE.INTER>
-28.41

>  <SCORE.INTER.CONST>
1

>  <SCORE.INTER.POLAR>
0

>  <SCORE.INTER.ROT>
7

>  <SCORE.INTER.SOLV>
24.1561

>  <SCORE.INTER.VDW>
-35.2587

>  <SCORE.INTER.norm>
-1.09269

>  <SCORE.INTRA>
-0.0895326

>  <SCORE.INTRA.DIHEDRAL>
4.31822

>  <SCORE.INTRA.DIHEDRAL.0>
6.97628

>  <SCORE.INTRA.POLAR>
0

>  <SCORE.INTRA.POLAR.0>
0

>  <SCORE.INTRA.REPUL>
0

>  <SCORE.INTRA.REPUL.0>
0

>  <SCORE.INTRA.SOLV>
-0.689849

>  <SCORE.INTRA.SOLV.lig_0>
-49.8243

>  <SCORE.INTRA.VDW>
-1.90372

>  <SCORE.INTRA.VDW.0>
-1.35881

>  <SCORE.INTRA.norm>
-0.00344356

>  <SCORE.RESTR>
0

>  <SCORE.RESTR.CAVITY>
0

>  <SCORE.RESTR.norm>
0

>  <SCORE.SYSTEM>
0

>  <SCORE.SYSTEM.CONST>
0

>  <SCORE.SYSTEM.DIHEDRAL>
0

>  <SCORE.SYSTEM.SOLV>
0

>  <SCORE.SYSTEM.norm>
0

>  <SCORE.heavy>
26

>  <SCORE.norm>
-1.09614

>  <RMSD>
2.007

$$$$
ligand
 OpenBabel11021811483D
libRbt.so/2013.1/901 2013/11/27
 26 28  0  0  0  0  0  0  0  0999 V2000
   34.3542   16.5916    7.6241 N   0  0  0  0  0  0  0  0  0  0  0  0
   34.4136   16.4747    9.0758 C   0  0  2  0  0  0  0  0  0  0  0  0
   34.9212   17.7649    9.7097 C   0  0  0  0  0  0  0  0  0  0  0  0
   34.2812   18.3295   10.5961 O   0  0  0  0  0  0  0  0  0  0  0  0
   35.3049   15.3076    9.4812 C   0  0  0  0  0  0  0  0  0  0  0  0
   36.6811   15.3193    8.8288 C   0  0  0  0  0  0  0  0  0  0  0  0
   36.6163   14.9176    7.0644 S   0  0  0  0  0  0  0  0  0  0  0  0
   38.1248   13.9302    7.2306 C   0  0  0  0  0  0  0  0  0  0  0  0
   39.3837   14.7159    6.8828 C   0  0  1  0  0  0  0  0  0  0  0  0
   40.4899   13.8374    6.7846 O   0  0  0  0  0  0  0  0  0  0  0  0
   39.2428   15.4359    5.5516 C   0  0  1  0  0  0  0  0  0  0  0  0
   39.3099   16.8283    5.7485 O   0  0  0  0  0  0  0  0  0  0  0  0
   40.4116   14.9743    4.7060 C   0  0  1  0  0  0  0  0  0  0  0  0
   41.1889   16.0804    4.3099 O   0  0  0  0  0  0  0  0  0  0  0  0
   41.2280   14.0534    5.5964 C   0  0  2  0  0  0  0  0  0  0  0  0
   35.9841   18.2727    9.3503 O   0  0  0  0  0  0  0  0  0  0  0  0
   39.6182    9.1004    4.9307 N   0  0  0  0  0  0  0  0  0  0  0  0
   39.0661   10.0731    5.7397 C   0  0  0  0  0  0  0  0  0  0  0  0
   39.6261   11.3342    5.7916 N   0  0  0  0  0  0  0  0  0  0  0  0
   40.7226   11.6267    5.0505 C   0  0  0  0  0  0  0  0  0  0  0  0
   41.2926   10.6618    4.2313 C   0  0  0  0  0  0  0  0  0  0  0  0
   40.7346    9.3904    4.1727 C   0  0  0  0  0  0  0  0  0  0  0  0
   41.2727    8.4580    3.3922 N   0  0  0  0  0  0  0  0  0  0  0  0
   42.3586   11.2166    3.6150 N   0  0  0  0  0  0  0  0  0  0  0  0
   42.4766   12.5015    4.0219 C   0  0  0  0  0  0  0  0  0  0  0  0
   41.4691   12.7703    4.9121 N   0  0  0  0  0  0  0  0  0  0  0  0
  2  1  1  6  0  0  0
  2  3  1  0  0  0  0
  2  5  1  0  0  0  0
  3  4  1  0  0  0  0
  3 16  1  0  0  0  0
  5  6  1  0  0  0  0
  6  7  1  0  0  0  0
  7  8  1  0  0  0  0
  9  8  1  6  0  0  0
  9 10  1  0  0  0  0
  9 11  1  0  0  0  0
 10 15  1  0  0  0  0
 11 12  1  1  0  0  0
 11 13  1  0  0  0  0
 13 14  1  1  0  0  0
 13 15  1  0  0  0  0
 15 26  1  6  0  0  0
 17 18  2  0  0  0  0
 17 22  1  0  0  0  0
 18 19  1  0  0  0  0
 19 20  2  0  0  0  0
 20 21  1  0  0  0  0
 20 26  1  0  0  0  0
 21 22  2  0  0  0  0
 21 24  1  0  0  0  0
 22 23  1  0  0  0  0
 24 25  2  0  0  0  0
 25 26  1  0  0  0  0
M  END
>  <CHROM.1>
126.35855301,51.37235893,-71.53319902,-140.10550524,-94.83868421,-168.98289477
23.30976136,38.71034498,14.01346915,6.41263856,2.37994488,0.58049060,0.13234719

>  <Name>
ligand

>  <RI>
0

>  <Rbt.Current_Directory>
/home/itssahil/PROJECTS/Mol_Feturizer/New_Systems/rnas/3NPQ

>  <Rbt.Executable>
rbdock ($Id: //depot/dev/client3/rdock/2013.1/src/exe/rbdock.cxx#4 $)

>  <Rbt.Library>
libRbt.so (2013.1, Build901 2013/11/27)

>  <Rbt.Parameter_File>
/export/apps/rDock/src/rDock_2013.1_src/data/scripts/dock_solv.prm

>  <Rbt.Receptor>
prm/pocket_docking_5.prm

>  <SCORE>
-30.1434

>  <SCORE.INTER>
-30.2755

>  <SCORE.INTER.CONST>
1

>  <SCORE.INTER.POLAR>
0

>  <SCORE.INTER.ROT>
7

>  <SCORE.INTER.SOLV>
17.6582

>  <SCORE.INTER.VDW>
-34.3364

>  <SCORE.INTER.norm>
-1.16444

>  <SCORE.INTRA>
0.132129

>  <SCORE.INTRA.DIHEDRAL>
0.205188

>  <SCORE.INTRA.DIHEDRAL.0>
6.97628

>  <SCORE.INTRA.POLAR>
0

>  <SCORE.INTRA.POLAR.0>
0

>  <SCORE.INTRA.REPUL>
0

>  <SCORE.INTRA.REPUL.0>
0

>  <SCORE.INTRA.SOLV>
1.46337

>  <SCORE.INTRA.SOLV.lig_0>
-49.8243

>  <SCORE.INTRA.VDW>
-0.702153

>  <SCORE.INTRA.VDW.0>
-1.35881

>  <SCORE.INTRA.norm>
0.00508187

>  <SCORE.RESTR>
0

>  <SCORE.RESTR.CAVITY>
0

>  <SCORE.RESTR.norm>
0

>  <SCORE.SYSTEM>
0

>  <SCORE.SYSTEM.CONST>
0

>  <SCORE.SYSTEM.DIHEDRAL>
0

>  <SCORE.SYSTEM.SOLV>
0

>  <SCORE.SYSTEM.norm>
0

>  <SCORE.heavy>
26

>  <SCORE.norm>
-1.15936

>  <RMSD>
2.010

$$$$
ligand
 OpenBabel11021811483D
libRbt.so/2013.1/901 2013/11/27
 26 28  0  0  0  0  0  0  0  0999 V2000
   35.8159   15.9004    9.6337 N   0  0  0  0  0  0  0  0  0  0  0  0
   35.4712   17.0284    8.7773 C   0  0  2  0  0  0  0  0  0  0  0  0
   34.1064   16.8276    8.1285 C   0  0  0  0  0  0  0  0  0  0  0  0
   33.1483   17.5352    8.4369 O   0  0  0  0  0  0  0  0  0  0  0  0
   36.5349   17.2292    7.7052 C   0  0  0  0  0  0  0  0  0  0  0  0
   37.9194   17.5485    8.2539 C   0  0  0  0  0  0  0  0  0  0  0  0
   39.1547   17.7515    6.9458 S   0  0  0  0  0  0  0  0  0  0  0  0
   39.5624   15.9907    7.0532 C   0  0  0  0  0  0  0  0  0  0  0  0
   40.8708   15.6458    6.3514 C   0  0  1  0  0  0  0  0  0  0  0  0
   41.1854   14.2809    6.5592 O   0  0  0  0  0  0  0  0  0  0  0  0
   40.7786   15.8782    4.8522 C   0  0  1  0  0  0  0  0  0  0  0  0
   41.6844   16.8841    4.4649 O   0  0  0  0  0  0  0  0  0  0  0  0
   41.1571   14.5619    4.2055 C   0  0  1  0  0  0  0  0  0  0  0  0
   42.2658   14.7415    3.3554 O   0  0  0  0  0  0  0  0  0  0  0  0
   41.5198   13.6290    5.3482 C   0  0  2  0  0  0  0  0  0  0  0  0
   33.9303   15.9528    7.2797 O   0  0  0  0  0  0  0  0  0  0  0  0
   41.4651    8.7543    3.3986 N   0  0  0  0  0  0  0  0  0  0  0  0
   42.4510    9.7117    3.2686 C   0  0  0  0  0  0  0  0  0  0  0  0
   42.2962   10.9527    3.8540 N   0  0  0  0  0  0  0  0  0  0  0  0
   41.1753   11.2414    4.5591 C   0  0  0  0  0  0  0  0  0  0  0  0
   40.1725   10.2920    4.7007 C   0  0  0  0  0  0  0  0  0  0  0  0
   40.3208    9.0403    4.1154 C   0  0  0  0  0  0  0  0  0  0  0  0
   39.3664    8.1234    4.2437 N   0  0  0  0  0  0  0  0  0  0  0  0
   39.1842   10.8384    5.4415 N   0  0  0  0  0  0  0  0  0  0  0  0
   39.5349   12.1031    5.7701 C   0  0  0  0  0  0  0  0  0  0  0  0
   40.7672   12.3672    5.2300 N   0  0  0  0  0  0  0  0  0  0  0  0
  2  1  1  6  0  0  0
  2  3  1  0  0  0  0
  2  5  1  0  0  0  0
  3  4  1  0  0  0  0
  3 16  1  0  0  0  0
  5  6  1  0  0  0  0
  6  7  1  0  0  0  0
  7  8  1  0  0  0  0
  9  8  1  1  0  0  0
  9 10  1  0  0  0  0
  9 11  1  0  0  0  0
 10 15  1  0  0  0  0
 11 12  1  6  0  0  0
 11 13  1  0  0  0  0
 13 14  1  6  0  0  0
 13 15  1  0  0  0  0
 15 26  1  6  0  0  0
 17 18  2  0  0  0  0
 17 22  1  0  0  0  0
 18 19  1  0  0  0  0
 19 20  2  0  0  0  0
 20 21  1  0  0  0  0
 20 26  1  0  0  0  0
 21 22  2  0  0  0  0
 21 24  1  0  0  0  0
 22 23  1  0  0  0  0
 24 25  2  0  0  0  0
 25 26  1  0  0  0  0
M  END
>  <CHROM.1>
111.77383721,-61.52380524,179.05396601,-91.33533833,-165.28550787,175.47197590
-151.09976005,39.25240239,14.17262361,5.92472672,2.24983335,0.41106354,0.23240191

>  <Name>
ligand

>  <RI>
0

>  <Rbt.Current_Directory>
/home/itssahil/PROJECTS/Mol_Feturizer/New_Systems/rnas/3NPQ

>  <Rbt.Executable>
rbdock ($Id: //depot/dev/client3/rdock/2013.1/src/exe/rbdock.cxx#4 $)

>  <Rbt.Library>
libRbt.so (2013.1, Build901 2013/11/27)

>  <Rbt.Parameter_File>
/export/apps/rDock/src/rDock_2013.1_src/data/scripts/dock_solv.prm

>  <Rbt.Receptor>
prm/pocket_docking_5.prm

>  <SCORE>
-16.5546

>  <SCORE.INTER>
-14.5261

>  <SCORE.INTER.CONST>
1

>  <SCORE.INTER.POLAR>
0

>  <SCORE.INTER.ROT>
7

>  <SCORE.INTER.SOLV>
23.6065

>  <SCORE.INTER.VDW>
-25.8196

>  <SCORE.INTER.norm>
-0.558695

>  <SCORE.INTRA>
-2.02858

>  <SCORE.INTRA.DIHEDRAL>
-2.59518

>  <SCORE.INTRA.DIHEDRAL.0>
6.97628

>  <SCORE.INTRA.POLAR>
0

>  <SCORE.INTRA.POLAR.0>
0

>  <SCORE.INTRA.REPUL>
0

>  <SCORE.INTRA.REPUL.0>
0

>  <SCORE.INTRA.SOLV>
-0.0901572

>  <SCORE.INTRA.SOLV.lig_0>
-49.8243

>  <SCORE.INTRA.VDW>
-0.685911

>  <SCORE.INTRA.VDW.0>
-1.35881

>  <SCORE.INTRA.norm>
-0.0780222

>  <SCORE.RESTR>
0

>  <SCORE.RESTR.CAVITY>
0

>  <SCORE.RESTR.norm>
0

>  <SCORE.SYSTEM>
0

>  <SCORE.SYSTEM.CONST>
0

>  <SCORE.SYSTEM.DIHEDRAL>
0

>  <SCORE.SYSTEM.SOLV>
0

>  <SCORE.SYSTEM.norm>
0

>  <SCORE.heavy>
26

>  <SCORE.norm>
-0.636717

>  <RMSD>
2.010

$$$$
ligand
 OpenBabel11021811483D
libRbt.so/2013.1/901 2013/11/27
 26 28  0  0  0  0  0  0  0  0999 V2000
   33.4575   17.4001    7.7854 N   0  0  0  0  0  0  0  0  0  0  0  0
   34.0668   16.7515    8.9398 C   0  0  2  0  0  0  0  0  0  0  0  0
   34.8364   17.7556    9.7904 C   0  0  0  0  0  0  0  0  0  0  0  0
   35.0383   17.5491   10.9864 O   0  0  0  0  0  0  0  0  0  0  0  0
   34.9927   15.6270    8.4932 C   0  0  0  0  0  0  0  0  0  0  0  0
   35.9613   16.0210    7.3858 C   0  0  0  0  0  0  0  0  0  0  0  0
   37.1129   14.6889    6.9644 S   0  0  0  0  0  0  0  0  0  0  0  0
   38.2131   15.2119    8.3039 C   0  0  0  0  0  0  0  0  0  0  0  0
   39.5060   15.8373    7.7932 C   0  0  1  0  0  0  0  0  0  0  0  0
   40.4803   14.8310    7.5854 O   0  0  0  0  0  0  0  0  0  0  0  0
   39.2938   16.5585    6.4722 C   0  0  1  0  0  0  0  0  0  0  0  0
   39.5489   17.9342    6.6290 O   0  0  0  0  0  0  0  0  0  0  0  0
   40.2902   15.9526    5.5056 C   0  0  1  0  0  0  0  0  0  0  0  0
   41.1406   16.9537    4.9965 O   0  0  0  0  0  0  0  0  0  0  0  0
   41.0918   14.9470    6.3142 C   0  0  2  0  0  0  0  0  0  0  0  0
   35.2748   18.7972    9.3008 O   0  0  0  0  0  0  0  0  0  0  0  0
   38.8349   10.2204    5.9499 N   0  0  0  0  0  0  0  0  0  0  0  0
   38.5024   11.2591    6.7961 C   0  0  0  0  0  0  0  0  0  0  0  0
   39.2111   12.4435    6.7545 N   0  0  0  0  0  0  0  0  0  0  0  0
   40.2392   12.5952    5.8845 C   0  0  0  0  0  0  0  0  0  0  0  0
   40.5891   11.5620    5.0260 C   0  0  0  0  0  0  0  0  0  0  0  0
   39.8803   10.3671    5.0608 C   0  0  0  0  0  0  0  0  0  0  0  0
   40.2072    9.3702    4.2437 N   0  0  0  0  0  0  0  0  0  0  0  0
   41.6333   11.9787    4.2776 N   0  0  0  0  0  0  0  0  0  0  0  0
   41.9510   13.2430    4.6395 C   0  0  0  0  0  0  0  0  0  0  0  0
   41.0953   13.6389    5.6349 N   0  0  0  0  0  0  0  0  0  0  0  0
  2  1  1  6  0  0  0
  2  3  1  0  0  0  0
  2  5  1  0  0  0  0
  3  4  1  0  0  0  0
  3 16  1  0  0  0  0
  5  6  1  0  0  0  0
  6  7  1  0  0  0  0
  7  8  1  0  0  0  0
  9  8  1  6  0  0  0
  9 10  1  0  0  0  0
  9 11  1  0  0  0  0
 10 15  1  0  0  0  0
 11 12  1  1  0  0  0
 11 13  1  0  0  0  0
 13 14  1  1  0  0  0
 13 15  1  0  0  0  0
 15 26  1  6  0  0  0
 17 18  2  0  0  0  0
 17 22  1  0  0  0  0
 18 19  1  0  0  0  0
 19 20  2  0  0  0  0
 20 21  1  0  0  0  0
 20 26  1  0  0  0  0
 21 22  2  0  0  0  0
 21 24  1  0  0  0  0
 22 23  1  0  0  0  0
 24 25  2  0  0  0  0
 25 26  1  0  0  0  0
M  END
>  <CHROM.1>
155.50396452,48.33629480,176.20722946,-85.19245087,-109.96270832,-88.17903960
23.37272901,38.45044333,14.70886250,6.88038524,2.34942634,0.44421638,0.20878222

>  <Name>
ligand

>  <RI>
0

>  <Rbt.Current_Directory>
/home/itssahil/PROJECTS/Mol_Feturizer/New_Systems/rnas/3NPQ

>  <Rbt.Executable>
rbdock ($Id: //depot/dev/client3/rdock/2013.1/src/exe/rbdock.cxx#4 $)

>  <Rbt.Library>
libRbt.so (2013.1, Build901 2013/11/27)

>  <Rbt.Parameter_File>
/export/apps/rDock/src/rDock_2013.1_src/data/scripts/dock_solv.prm

>  <Rbt.Receptor>
prm/pocket_docking_5.prm

>  <SCORE>
-25.6073

>  <SCORE.INTER>
-25.7807

>  <SCORE.INTER.CONST>
1

>  <SCORE.INTER.POLAR>
0

>  <SCORE.INTER.ROT>
7

>  <SCORE.INTER.SOLV>
21.7176

>  <SCORE.INTER.VDW>
-32.693

>  <SCORE.INTER.norm>
-0.991565

>  <SCORE.INTRA>
0.173348

>  <SCORE.INTRA.DIHEDRAL>
1.80966

>  <SCORE.INTRA.DIHEDRAL.0>
6.97628

>  <SCORE.INTRA.POLAR>
0

>  <SCORE.INTRA.POLAR.0>
0

>  <SCORE.INTRA.REPUL>
0

>  <SCORE.INTRA.REPUL.0>
0

>  <SCORE.INTRA.SOLV>
0.304707

>  <SCORE.INTRA.SOLV.lig_0>
-49.8243

>  <SCORE.INTRA.VDW>
-0.883834

>  <SCORE.INTRA.VDW.0>
-1.35881

>  <SCORE.INTRA.norm>
0.00666725

>  <SCORE.RESTR>
0

>  <SCORE.RESTR.CAVITY>
0

>  <SCORE.RESTR.norm>
0

>  <SCORE.SYSTEM>
0

>  <SCORE.SYSTEM.CONST>
0

>  <SCORE.SYSTEM.DIHEDRAL>
0

>  <SCORE.SYSTEM.SOLV>
0

>  <SCORE.SYSTEM.norm>
0

>  <SCORE.heavy>
26

>  <SCORE.norm>
-0.984898

>  <RMSD>
2.022

$$$$
ligand
 OpenBabel11021811483D
libRbt.so/2013.1/901 2013/11/27
 26 28  0  0  0  0  0  0  0  0999 V2000
   34.5545   17.9574   10.5063 N   0  0  0  0  0  0  0  0  0  0  0  0
   35.1462   17.4338    9.2815 C   0  0  2  0  0  0  0  0  0  0  0  0
   34.9255   18.3886    8.1137 C   0  0  0  0  0  0  0  0  0  0  0  0
   33.8511   18.9694    7.9649 O   0  0  0  0  0  0  0  0  0  0  0  0
   34.5672   16.0635    8.9524 C   0  0  0  0  0  0  0  0  0  0  0  0
   35.3264   15.3112    7.8673 C   0  0  0  0  0  0  0  0  0  0  0  0
   36.9945   14.8375    8.3884 S   0  0  0  0  0  0  0  0  0  0  0  0
   37.6829   15.6231    6.9096 C   0  0  0  0  0  0  0  0  0  0  0  0
   39.1577   15.9763    7.0634 C   0  0  1  0  0  0  0  0  0  0  0  0
   39.9235   14.7956    7.2205 O   0  0  0  0  0  0  0  0  0  0  0  0
   39.6857   16.7135    5.8435 C   0  0  1  0  0  0  0  0  0  0  0  0
   40.0895   18.0131    6.2044 O   0  0  0  0  0  0  0  0  0  0  0  0
   40.8786   15.9143    5.3615 C   0  0  1  0  0  0  0  0  0  0  0  0
   42.0319   16.7231    5.3541 O   0  0  0  0  0  0  0  0  0  0  0  0
   41.0435   14.7773    6.3553 C   0  0  2  0  0  0  0  0  0  0  0  0
   35.8175   18.6019    7.2917 O   0  0  0  0  0  0  0  0  0  0  0  0
   38.8953   10.0269    5.7342 N   0  0  0  0  0  0  0  0  0  0  0  0
   38.4953   11.0368    6.5860 C   0  0  0  0  0  0  0  0  0  0  0  0
   39.1844   12.2331    6.6176 N   0  0  0  0  0  0  0  0  0  0  0  0
   40.2592   12.4248    5.8144 C   0  0  0  0  0  0  0  0  0  0  0  0
   40.6771   11.4209    4.9514 C   0  0  0  0  0  0  0  0  0  0  0  0
   39.9886   10.2144    4.9128 C   0  0  0  0  0  0  0  0  0  0  0  0
   40.3804    9.2454    4.0909 N   0  0  0  0  0  0  0  0  0  0  0  0
   41.7561   11.8745    4.2775 N   0  0  0  0  0  0  0  0  0  0  0  0
   42.0297   13.1333    4.6906 C   0  0  0  0  0  0  0  0  0  0  0  0
   41.1100   13.4883    5.6435 N   0  0  0  0  0  0  0  0  0  0  0  0
  2  1  1  1  0  0  0
  2  3  1  0  0  0  0
  2  5  1  0  0  0  0
  3  4  1  0  0  0  0
  3 16  1  0  0  0  0
  5  6  1  0  0  0  0
  6  7  1  0  0  0  0
  7  8  1  0  0  0  0
  9  8  1  6  0  0  0
  9 10  1  0  0  0  0
  9 11  1  0  0  0  0
 10 15  1  0  0  0  0
 11 12  1  1  0  0  0
 11 13  1  0  0  0  0
 13 14  1  1  0  0  0
 13 15  1  0  0  0  0
 15 26  1  6  0  0  0
 17 18  2  0  0  0  0
 17 22  1  0  0  0  0
 18 19  1  0  0  0  0
 19 20  2  0  0  0  0
 20 21  1  0  0  0  0
 20 26  1  0  0  0  0
 21 22  2  0  0  0  0
 21 24  1  0  0  0  0
 22 23  1  0  0  0  0
 24 25  2  0  0  0  0
 25 26  1  0  0  0  0
M  END
>  <CHROM.1>
-40.56111536,-167.72850629,66.68023235,-127.04626799,158.64060984,64.11642209
-2.51925847,38.51425342,14.78393310,6.72826442,2.34779596,0.46597632,0.10871615

>  <Name>
ligand

>  <RI>
0

>  <Rbt.Current_Directory>
/home/itssahil/PROJECTS/Mol_Feturizer/New_Systems/rnas/3NPQ

>  <Rbt.Executable>
rbdock ($Id: //depot/dev/client3/rdock/2013.1/src/exe/rbdock.cxx#4 $)

>  <Rbt.Library>
libRbt.so (2013.1, Build901 2013/11/27)

>  <Rbt.Parameter_File>
/export/apps/rDock/src/rDock_2013.1_src/data/scripts/dock_solv.prm

>  <Rbt.Receptor>
prm/pocket_docking_7.prm

>  <SCORE>
-27.4401

>  <SCORE.INTER>
-24.9958

>  <SCORE.INTER.CONST>
1

>  <SCORE.INTER.POLAR>
0

>  <SCORE.INTER.ROT>
7

>  <SCORE.INTER.SOLV>
21.8906

>  <SCORE.INTER.VDW>
-32.2274

>  <SCORE.INTER.norm>
-0.961378

>  <SCORE.INTRA>
-2.44424

>  <SCORE.INTRA.DIHEDRAL>
-0.520448

>  <SCORE.INTRA.DIHEDRAL.0>
6.97628

>  <SCORE.INTRA.POLAR>
0

>  <SCORE.INTRA.POLAR.0>
0

>  <SCORE.INTRA.REPUL>
0

>  <SCORE.INTRA.REPUL.0>
0

>  <SCORE.INTRA.SOLV>
-0.680269

>  <SCORE.INTRA.SOLV.lig_0>
-49.8243

>  <SCORE.INTRA.VDW>
-1.84388

>  <SCORE.INTRA.VDW.0>
-1.35881

>  <SCORE.INTRA.norm>
-0.0940092

>  <SCORE.RESTR>
0

>  <SCORE.RESTR.CAVITY>
0

>  <SCORE.RESTR.norm>
0

>  <SCORE.SYSTEM>
0

>  <SCORE.SYSTEM.CONST>
0

>  <SCORE.SYSTEM.DIHEDRAL>
0

>  <SCORE.SYSTEM.SOLV>
0

>  <SCORE.SYSTEM.norm>
0

>  <SCORE.heavy>
26

>  <SCORE.norm>
-1.05539

>  <RMSD>
2.024

$$$$
ligand
 OpenBabel11021811483D
libRbt.so/2013.1/901 2013/11/27
 26 28  0  0  0  0  0  0  0  0999 V2000
   34.1317   16.2805    7.6522 N   0  0  0  0  0  0  0  0  0  0  0  0
   34.4909   16.6222    9.0229 C   0  0  2  0  0  0  0  0  0  0  0  0
   33.8601   17.9454    9.4417 C   0  0  0  0  0  0  0  0  0  0  0  0
   33.8689   18.3070   10.6177 O   0  0  0  0  0  0  0  0  0  0  0  0
   36.0051   16.6938    9.1758 C   0  0  0  0  0  0  0  0  0  0  0  0
   36.7230   15.3830    8.8824 C   0  0  0  0  0  0  0  0  0  0  0  0
   36.5279   14.8547    7.1615 S   0  0  0  0  0  0  0  0  0  0  0  0
   38.0439   13.8729    7.2877 C   0  0  0  0  0  0  0  0  0  0  0  0
   39.2968   14.6820    6.9733 C   0  0  1  0  0  0  0  0  0  0  0  0
   40.4174   13.8213    6.8816 O   0  0  0  0  0  0  0  0  0  0  0  0
   39.1681   15.4195    5.6505 C   0  0  1  0  0  0  0  0  0  0  0  0
   39.2111   16.8097    5.8689 O   0  0  0  0  0  0  0  0  0  0  0  0
   40.3580   14.9877    4.8188 C   0  0  1  0  0  0  0  0  0  0  0  0
   41.1254   16.1107    4.4524 O   0  0  0  0  0  0  0  0  0  0  0  0
   41.1725   14.0656    5.7097 C   0  0  2  0  0  0  0  0  0  0  0  0
   33.3272   18.6843    8.6130 O   0  0  0  0  0  0  0  0  0  0  0  0
   39.6255    9.1118    4.9137 N   0  0  0  0  0  0  0  0  0  0  0  0
   39.0418   10.0660    5.7227 C   0  0  0  0  0  0  0  0  0  0  0  0
   39.5892   11.3306    5.8122 N   0  0  0  0  0  0  0  0  0  0  0  0
   40.7040   11.6447    5.1083 C   0  0  0  0  0  0  0  0  0  0  0  0
   41.3059   10.6986    4.2898 C   0  0  0  0  0  0  0  0  0  0  0  0
   40.7607    9.4239    4.1934 C   0  0  0  0  0  0  0  0  0  0  0  0
   41.3292    8.5094    3.4133 N   0  0  0  0  0  0  0  0  0  0  0  0
   42.3844   11.2726    3.7142 N   0  0  0  0  0  0  0  0  0  0  0  0
   42.4794   12.5512    4.1460 C   0  0  0  0  0  0  0  0  0  0  0  0
   41.4443   12.7965    5.0111 N   0  0  0  0  0  0  0  0  0  0  0  0
  2  1  1  6  0  0  0
  2  3  1  0  0  0  0
  2  5  1  0  0  0  0
  3  4  1  0  0  0  0
  3 16  1  0  0  0  0
  5  6  1  0  0  0  0
  6  7  1  0  0  0  0
  7  8  1  0  0  0  0
  9  8  1  6  0  0  0
  9 10  1  0  0  0  0
  9 11  1  0  0  0  0
 10 15  1  0  0  0  0
 11 12  1  1  0  0  0
 11 13  1  0  0  0  0
 13 14  1  1  0  0  0
 13 15  1  0  0  0  0
 15 26  1  6  0  0  0
 17 18  2  0  0  0  0
 17 22  1  0  0  0  0
 18 19  1  0  0  0  0
 19 20  2  0  0  0  0
 20 21  1  0  0  0  0
 20 26  1  0  0  0  0
 21 22  2  0  0  0  0
 21 24  1  0  0  0  0
 22 23  1  0  0  0  0
 24 25  2  0  0  0  0
 25 26  1  0  0  0  0
M  END
>  <CHROM.1>
168.63701161,-61.34250085,63.74120948,156.55075779,-87.01029924,-170.83008942
24.08357469,38.53870434,14.08443558,6.41966992,2.40006183,0.51173091,0.12358927

>  <Name>
ligand

>  <RI>
0

>  <Rbt.Current_Directory>
/home/itssahil/PROJECTS/Mol_Feturizer/New_Systems/rnas/3NPQ

>  <Rbt.Executable>
rbdock ($Id: //depot/dev/client3/rdock/2013.1/src/exe/rbdock.cxx#4 $)

>  <Rbt.Library>
libRbt.so (2013.1, Build901 2013/11/27)

>  <Rbt.Parameter_File>
/export/apps/rDock/src/rDock_2013.1_src/data/scripts/dock_solv.prm

>  <Rbt.Receptor>
prm/pocket_docking_4.prm

>  <SCORE>
-31.4907

>  <SCORE.INTER>
-30.4862

>  <SCORE.INTER.CONST>
1

>  <SCORE.INTER.POLAR>
0

>  <SCORE.INTER.ROT>
7

>  <SCORE.INTER.SOLV>
18.2971

>  <SCORE.INTER.VDW>
-34.6899

>  <SCORE.INTER.norm>
-1.17255

>  <SCORE.INTRA>
-1.00445

>  <SCORE.INTRA.DIHEDRAL>
-2.14063

>  <SCORE.INTRA.DIHEDRAL.0>
6.97628

>  <SCORE.INTRA.POLAR>
0

>  <SCORE.INTRA.POLAR.0>
0

>  <SCORE.INTRA.REPUL>
0

>  <SCORE.INTRA.REPUL.0>
0

>  <SCORE.INTRA.SOLV>
1.49413

>  <SCORE.INTRA.SOLV.lig_0>
-49.8243

>  <SCORE.INTRA.VDW>
-0.681207

>  <SCORE.INTRA.VDW.0>
-1.35881

>  <SCORE.INTRA.norm>
-0.0386329

>  <SCORE.RESTR>
0

>  <SCORE.RESTR.CAVITY>
0

>  <SCORE.RESTR.norm>
0

>  <SCORE.SYSTEM>
0

>  <SCORE.SYSTEM.CONST>
0

>  <SCORE.SYSTEM.DIHEDRAL>
0

>  <SCORE.SYSTEM.SOLV>
0

>  <SCORE.SYSTEM.norm>
0

>  <SCORE.heavy>
26

>  <SCORE.norm>
-1.21118

>  <RMSD>
2.025

$$$$
ligand
 OpenBabel11021811483D
libRbt.so/2013.1/901 2013/11/27
 26 28  0  0  0  0  0  0  0  0999 V2000
   33.4883   18.6319   10.3198 N   0  0  0  0  0  0  0  0  0  0  0  0
   34.6035   18.0604    9.5752 C   0  0  2  0  0  0  0  0  0  0  0  0
   35.4238   19.1497    8.8937 C   0  0  0  0  0  0  0  0  0  0  0  0
   36.6528   19.1474    8.9525 O   0  0  0  0  0  0  0  0  0  0  0  0
   34.0988   17.0622    8.5408 C   0  0  0  0  0  0  0  0  0  0  0  0
   35.1821   16.1575    7.9685 C   0  0  0  0  0  0  0  0  0  0  0  0
   35.9477   15.1078    9.2296 S   0  0  0  0  0  0  0  0  0  0  0  0
   37.1023   14.4604    7.9943 C   0  0  0  0  0  0  0  0  0  0  0  0
   38.3295   15.3465    7.8145 C   0  0  1  0  0  0  0  0  0  0  0  0
   39.4914   14.5453    7.7001 O   0  0  0  0  0  0  0  0  0  0  0  0
   38.2257   16.1962    6.5585 C   0  0  1  0  0  0  0  0  0  0  0  0
   38.1951   17.5611    6.9025 O   0  0  0  0  0  0  0  0  0  0  0  0
   39.4697   15.8925    5.7497 C   0  0  1  0  0  0  0  0  0  0  0  0
   40.2002   17.0754    5.5229 O   0  0  0  0  0  0  0  0  0  0  0  0
   40.2856   14.9274    6.5925 C   0  0  2  0  0  0  0  0  0  0  0  0
   34.8761   20.0579    8.2676 O   0  0  0  0  0  0  0  0  0  0  0  0
   39.1932    9.9052    5.5198 N   0  0  0  0  0  0  0  0  0  0  0  0
   38.5589   10.7411    6.4166 C   0  0  0  0  0  0  0  0  0  0  0  0
   38.9838   12.0459    6.5708 N   0  0  0  0  0  0  0  0  0  0  0  0
   40.0273   12.5157    5.8446 C   0  0  0  0  0  0  0  0  0  0  0  0
   40.6784   11.6903    4.9381 C   0  0  0  0  0  0  0  0  0  0  0  0
   40.2564   10.3761    4.7763 C   0  0  0  0  0  0  0  0  0  0  0  0
   40.8732    9.5761    3.9116 N   0  0  0  0  0  0  0  0  0  0  0  0
   41.6666   12.4061    4.3593 N   0  0  0  0  0  0  0  0  0  0  0  0
   41.6571   13.6570    4.8745 C   0  0  0  0  0  0  0  0  0  0  0  0
   40.6460   13.7402    5.7968 N   0  0  0  0  0  0  0  0  0  0  0  0
  2  1  1  6  0  0  0
  2  3  1  0  0  0  0
  2  5  1  0  0  0  0
  3  4  1  0  0  0  0
  3 16  1  0  0  0  0
  5  6  1  0  0  0  0
  6  7  1  0  0  0  0
  7  8  1  0  0  0  0
  9  8  1  6  0  0  0
  9 10  1  0  0  0  0
  9 11  1  0  0  0  0
 10 15  1  0  0  0  0
 11 12  1  1  0  0  0
 11 13  1  0  0  0  0
 13 14  1  1  0  0  0
 13 15  1  0  0  0  0
 15 26  1  6  0  0  0
 17 18  2  0  0  0  0
 17 22  1  0  0  0  0
 18 19  1  0  0  0  0
 19 20  2  0  0  0  0
 20 21  1  0  0  0  0
 20 26  1  0  0  0  0
 21 22  2  0  0  0  0
 21 24  1  0  0  0  0
 22 23  1  0  0  0  0
 24 25  2  0  0  0  0
 25 26  1  0  0  0  0
M  END
>  <CHROM.1>
133.96312971,-165.04238735,62.45020297,-176.34673620,85.06118405,138.45401128
17.81143766,38.07776910,14.97723437,7.05984087,2.31446642,0.56631128,0.06853032

>  <Name>
ligand

>  <RI>
0

>  <Rbt.Current_Directory>
/home/itssahil/PROJECTS/Mol_Feturizer/New_Systems/rnas/3NPQ

>  <Rbt.Executable>
rbdock ($Id: //depot/dev/client3/rdock/2013.1/src/exe/rbdock.cxx#4 $)

>  <Rbt.Library>
libRbt.so (2013.1, Build901 2013/11/27)

>  <Rbt.Parameter_File>
/export/apps/rDock/src/rDock_2013.1_src/data/scripts/dock_solv.prm

>  <Rbt.Receptor>
prm/pocket_docking_4.prm

>  <SCORE>
-30.2586

>  <SCORE.INTER>
-28.7241

>  <SCORE.INTER.CONST>
1

>  <SCORE.INTER.POLAR>
0

>  <SCORE.INTER.ROT>
7

>  <SCORE.INTER.SOLV>
23.7455

>  <SCORE.INTER.VDW>
-35.3312

>  <SCORE.INTER.norm>
-1.10477

>  <SCORE.INTRA>
-1.5345

>  <SCORE.INTRA.DIHEDRAL>
1.59199

>  <SCORE.INTRA.DIHEDRAL.0>
6.97628

>  <SCORE.INTRA.POLAR>
0

>  <SCORE.INTRA.POLAR.0>
0

>  <SCORE.INTRA.REPUL>
0

>  <SCORE.INTRA.REPUL.0>
0

>  <SCORE.INTRA.SOLV>
-0.350307

>  <SCORE.INTRA.SOLV.lig_0>
-49.8243

>  <SCORE.INTRA.VDW>
-2.15534

>  <SCORE.INTRA.VDW.0>
-1.35881

>  <SCORE.INTRA.norm>
-0.059019

>  <SCORE.RESTR>
0

>  <SCORE.RESTR.CAVITY>
0

>  <SCORE.RESTR.norm>
0

>  <SCORE.SYSTEM>
0

>  <SCORE.SYSTEM.CONST>
0

>  <SCORE.SYSTEM.DIHEDRAL>
0

>  <SCORE.SYSTEM.SOLV>
0

>  <SCORE.SYSTEM.norm>
0

>  <SCORE.heavy>
26

>  <SCORE.norm>
-1.16379

>  <RMSD>
2.029

$$$$
ligand
 OpenBabel11021811483D
libRbt.so/2013.1/901 2013/11/27
 26 28  0  0  0  0  0  0  0  0999 V2000
   34.0914   17.7904    7.6675 N   0  0  0  0  0  0  0  0  0  0  0  0
   34.1460   16.9971    8.8890 C   0  0  2  0  0  0  0  0  0  0  0  0
   34.7376   17.8025   10.0403 C   0  0  0  0  0  0  0  0  0  0  0  0
   34.5042   17.5006   11.2100 O   0  0  0  0  0  0  0  0  0  0  0  0
   34.9605   15.7290    8.6659 C   0  0  0  0  0  0  0  0  0  0  0  0
   36.4181   15.9811    8.3035 C   0  0  0  0  0  0  0  0  0  0  0  0
   37.3597   14.4471    8.1061 S   0  0  0  0  0  0  0  0  0  0  0  0
   37.7848   14.9224    6.4115 C   0  0  0  0  0  0  0  0  0  0  0  0
   39.2052   15.4618    6.2904 C   0  0  1  0  0  0  0  0  0  0  0  0
   40.1381   14.4156    6.4911 O   0  0  0  0  0  0  0  0  0  0  0  0
   39.4619   16.0555    4.9149 C   0  0  1  0  0  0  0  0  0  0  0  0
   39.7299   17.4331    5.0281 O   0  0  0  0  0  0  0  0  0  0  0  0
   40.6777   15.3330    4.3729 C   0  0  1  0  0  0  0  0  0  0  0  0
   41.6993   16.2575    4.0799 O   0  0  0  0  0  0  0  0  0  0  0  0
   41.1256   14.3912    5.4774 C   0  0  2  0  0  0  0  0  0  0  0  0
   35.4636   18.7742    9.8272 O   0  0  0  0  0  0  0  0  0  0  0  0
   39.1720    9.5183    5.3987 N   0  0  0  0  0  0  0  0  0  0  0  0
   38.6956   10.6150    6.0884 C   0  0  0  0  0  0  0  0  0  0  0  0
   39.3417   11.8316    5.9915 N   0  0  0  0  0  0  0  0  0  0  0  0
   40.4490   11.9584    5.2204 C   0  0  0  0  0  0  0  0  0  0  0  0
   40.9438   10.8669    4.5196 C   0  0  0  0  0  0  0  0  0  0  0  0
   40.2989    9.6394    4.6110 C   0  0  0  0  0  0  0  0  0  0  0  0
   40.7644    8.5868    3.9449 N   0  0  0  0  0  0  0  0  0  0  0  0
   42.0400   11.2704    3.8415 N   0  0  0  0  0  0  0  0  0  0  0  0
   42.2499   12.5826    4.0948 C   0  0  0  0  0  0  0  0  0  0  0  0
   41.2714   13.0232    4.9481 N   0  0  0  0  0  0  0  0  0  0  0  0
  2  1  1  6  0  0  0
  2  3  1  0  0  0  0
  2  5  1  0  0  0  0
  3  4  1  0  0  0  0
  3 16  1  0  0  0  0
  5  6  1  0  0  0  0
  6  7  1  0  0  0  0
  7  8  1  0  0  0  0
  9  8  1  6  0  0  0
  9 10  1  0  0  0  0
  9 11  1  0  0  0  0
 10 15  1  0  0  0  0
 11 12  1  1  0  0  0
 11 13  1  0  0  0  0
 13 14  1  1  0  0  0
 13 15  1  0  0  0  0
 15 26  1  6  0  0  0
 17 18  2  0  0  0  0
 17 22  1  0  0  0  0
 18 19  1  0  0  0  0
 19 20  2  0  0  0  0
 20 21  1  0  0  0  0
 20 26  1  0  0  0  0
 21 22  2  0  0  0  0
 21 24  1  0  0  0  0
 22 23  1  0  0  0  0
 24 25  2  0  0  0  0
 25 26  1  0  0  0  0
M  END
>  <CHROM.1>
157.29886542,62.33779833,177.95491904,122.05736200,102.06455361,69.49983228
9.63650212,38.61407534,14.32593264,6.45929861,2.44890403,0.65736130,0.03504759

>  <Name>
ligand

>  <RI>
0

>  <Rbt.Current_Directory>
/home/itssahil/PROJECTS/Mol_Feturizer/New_Systems/rnas/3NPQ

>  <Rbt.Executable>
rbdock ($Id: //depot/dev/client3/rdock/2013.1/src/exe/rbdock.cxx#4 $)

>  <Rbt.Library>
libRbt.so (2013.1, Build901 2013/11/27)

>  <Rbt.Parameter_File>
/export/apps/rDock/src/rDock_2013.1_src/data/scripts/dock_solv.prm

>  <Rbt.Receptor>
prm/pocket_docking_2.prm

>  <SCORE>
-28.8918

>  <SCORE.INTER>
-27.9272

>  <SCORE.INTER.CONST>
1

>  <SCORE.INTER.POLAR>
0

>  <SCORE.INTER.ROT>
7

>  <SCORE.INTER.SOLV>
18.5727

>  <SCORE.INTER.VDW>
-33.0757

>  <SCORE.INTER.norm>
-1.07412

>  <SCORE.INTRA>
-1.10055

>  <SCORE.INTRA.DIHEDRAL>
0.346001

>  <SCORE.INTRA.DIHEDRAL.0>
6.97628

>  <SCORE.INTRA.POLAR>
0

>  <SCORE.INTRA.POLAR.0>
0

>  <SCORE.INTRA.REPUL>
0

>  <SCORE.INTRA.REPUL.0>
0

>  <SCORE.INTRA.SOLV>
-0.219315

>  <SCORE.INTRA.SOLV.lig_0>
-49.8243

>  <SCORE.INTRA.VDW>
-1.16389

>  <SCORE.INTRA.VDW.0>
-1.35881

>  <SCORE.INTRA.norm>
-0.0423288

>  <SCORE.RESTR>
0.136003

>  <SCORE.RESTR.CAVITY>
0.136003

>  <SCORE.RESTR.norm>
0.00523087

>  <SCORE.SYSTEM>
0

>  <SCORE.SYSTEM.CONST>
0

>  <SCORE.SYSTEM.DIHEDRAL>
0

>  <SCORE.SYSTEM.SOLV>
0

>  <SCORE.SYSTEM.norm>
0

>  <SCORE.heavy>
26

>  <SCORE.norm>
-1.11122

>  <RMSD>
2.035

$$$$
ligand
 OpenBabel11021811483D
libRbt.so/2013.1/901 2013/11/27
 26 28  0  0  0  0  0  0  0  0999 V2000
   33.1127   17.8420    7.9806 N   0  0  0  0  0  0  0  0  0  0  0  0
   34.0477   16.9717    8.6826 C   0  0  2  0  0  0  0  0  0  0  0  0
   34.7918   17.7326    9.7740 C   0  0  0  0  0  0  0  0  0  0  0  0
   35.6220   18.5955    9.4911 O   0  0  0  0  0  0  0  0  0  0  0  0
   35.0410   16.3564    7.7048 C   0  0  0  0  0  0  0  0  0  0  0  0
   35.9056   15.2559    8.3057 C   0  0  0  0  0  0  0  0  0  0  0  0
   37.1691   14.6591    7.1543 S   0  0  0  0  0  0  0  0  0  0  0  0
   38.4681   15.2263    8.2808 C   0  0  0  0  0  0  0  0  0  0  0  0
   39.6385   15.8746    7.5506 C   0  0  1  0  0  0  0  0  0  0  0  0
   40.6477   14.9122    7.3052 O   0  0  0  0  0  0  0  0  0  0  0  0
   39.2107   16.4511    6.2108 C   0  0  1  0  0  0  0  0  0  0  0  0
   39.3851   17.8481    6.2107 O   0  0  0  0  0  0  0  0  0  0  0  0
   40.1176   15.8146    5.1782 C   0  0  1  0  0  0  0  0  0  0  0  0
   40.8237   16.8101    4.4748 O   0  0  0  0  0  0  0  0  0  0  0  0
   41.0841   14.9407    5.9590 C   0  0  2  0  0  0  0  0  0  0  0  0
   34.5793   17.5024   10.9651 O   0  0  0  0  0  0  0  0  0  0  0  0
   38.8222   10.2026    5.9977 N   0  0  0  0  0  0  0  0  0  0  0  0
   38.4796   11.3152    6.7396 C   0  0  0  0  0  0  0  0  0  0  0  0
   39.1915   12.4901    6.5998 N   0  0  0  0  0  0  0  0  0  0  0  0
   40.2328   12.5601    5.7350 C   0  0  0  0  0  0  0  0  0  0  0  0
   40.5930   11.4519    4.9805 C   0  0  0  0  0  0  0  0  0  0  0  0
   39.8810   10.2660    5.1146 C   0  0  0  0  0  0  0  0  0  0  0  0
   40.2177    9.1978    4.3978 N   0  0  0  0  0  0  0  0  0  0  0  0
   41.6490   11.7971    4.2127 N   0  0  0  0  0  0  0  0  0  0  0  0
   41.9643   13.0890    4.4614 C   0  0  0  0  0  0  0  0  0  0  0  0
   41.0947   13.5756    5.4032 N   0  0  0  0  0  0  0  0  0  0  0  0
  2  1  1  6  0  0  0
  2  3  1  0  0  0  0
  2  5  1  0  0  0  0
  3  4  1  0  0  0  0
  3 16  1  0  0  0  0
  5  6  1  0  0  0  0
  6  7  1  0  0  0  0
  7  8  1  0  0  0  0
  9  8  1  6  0  0  0
  9 10  1  0  0  0  0
  9 11  1  0  0  0  0
 10 15  1  0  0  0  0
 11 12  1  1  0  0  0
 11 13  1  0  0  0  0
 13 14  1  1  0  0  0
 13 15  1  0  0  0  0
 15 26  1  6  0  0  0
 17 18  2  0  0  0  0
 17 22  1  0  0  0  0
 18 19  1  0  0  0  0
 19 20  2  0  0  0  0
 20 21  1  0  0  0  0
 20 26  1  0  0  0  0
 21 22  2  0  0  0  0
 21 24  1  0  0  0  0
 22 23  1  0  0  0  0
 24 25  2  0  0  0  0
 25 26  1  0  0  0  0
M  END
>  <CHROM.1>
-69.37170719,-170.23244373,-174.81503403,117.44771425,-139.32783751,-93.89115699
32.50790805,38.42626587,14.67904275,6.79120493,2.38884468,0.50462400,0.13784385

>  <Name>
ligand

>  <RI>
0

>  <Rbt.Current_Directory>
/home/itssahil/PROJECTS/Mol_Feturizer/New_Systems/rnas/3NPQ

>  <Rbt.Executable>
rbdock ($Id: //depot/dev/client3/rdock/2013.1/src/exe/rbdock.cxx#4 $)

>  <Rbt.Library>
libRbt.so (2013.1, Build901 2013/11/27)

>  <Rbt.Parameter_File>
/export/apps/rDock/src/rDock_2013.1_src/data/scripts/dock_solv.prm

>  <Rbt.Receptor>
prm/pocket_docking_2.prm

>  <SCORE>
-25.4977

>  <SCORE.INTER>
-26.0229

>  <SCORE.INTER.CONST>
1

>  <SCORE.INTER.POLAR>
0

>  <SCORE.INTER.ROT>
7

>  <SCORE.INTER.SOLV>
23.5507

>  <SCORE.INTER.VDW>
-33.4655

>  <SCORE.INTER.norm>
-1.00088

>  <SCORE.INTRA>
0.525209

>  <SCORE.INTRA.DIHEDRAL>
3.54422

>  <SCORE.INTRA.DIHEDRAL.0>
6.97628

>  <SCORE.INTRA.POLAR>
0

>  <SCORE.INTRA.POLAR.0>
0

>  <SCORE.INTRA.REPUL>
0

>  <SCORE.INTRA.REPUL.0>
0

>  <SCORE.INTRA.SOLV>
-0.543677

>  <SCORE.INTRA.SOLV.lig_0>
-49.8243

>  <SCORE.INTRA.VDW>
-0.975064

>  <SCORE.INTRA.VDW.0>
-1.35881

>  <SCORE.INTRA.norm>
0.0202004

>  <SCORE.RESTR>
0

>  <SCORE.RESTR.CAVITY>
0

>  <SCORE.RESTR.norm>
0

>  <SCORE.SYSTEM>
0

>  <SCORE.SYSTEM.CONST>
0

>  <SCORE.SYSTEM.DIHEDRAL>
0

>  <SCORE.SYSTEM.SOLV>
0

>  <SCORE.SYSTEM.norm>
0

>  <SCORE.heavy>
26

>  <SCORE.norm>
-0.98068

>  <RMSD>
2.036

$$$$
ligand
 OpenBabel11021811483D
libRbt.so/2013.1/901 2013/11/27
 26 28  0  0  0  0  0  0  0  0999 V2000
   35.1015   16.3175   10.4795 N   0  0  0  0  0  0  0  0  0  0  0  0
   35.9081   16.5510    9.2881 C   0  0  2  0  0  0  0  0  0  0  0  0
   36.0392   18.0419    8.9979 C   0  0  0  0  0  0  0  0  0  0  0  0
   35.1432   18.8278    9.3036 O   0  0  0  0  0  0  0  0  0  0  0  0
   35.3040   15.8361    8.0860 C   0  0  0  0  0  0  0  0  0  0  0  0
   36.2072   15.8080    6.8599 C   0  0  0  0  0  0  0  0  0  0  0  0
   37.3496   14.4033    6.8712 S   0  0  0  0  0  0  0  0  0  0  0  0
   38.3620   15.2327    8.1224 C   0  0  0  0  0  0  0  0  0  0  0  0
   39.6361   15.8361    7.5429 C   0  0  1  0  0  0  0  0  0  0  0  0
   40.5973   14.8192    7.3263 O   0  0  0  0  0  0  0  0  0  0  0  0
   39.3747   16.5196    6.2107 C   0  0  1  0  0  0  0  0  0  0  0  0
   39.6414   17.8980    6.3169 O   0  0  0  0  0  0  0  0  0  0  0  0
   40.3295   15.8807    5.2237 C   0  0  1  0  0  0  0  0  0  0  0  0
   41.1631   16.8620    4.6522 O   0  0  0  0  0  0  0  0  0  0  0  0
   41.1584   14.8948    6.0290 C   0  0  2  0  0  0  0  0  0  0  0  0
   37.0453   18.4955    8.4512 O   0  0  0  0  0  0  0  0  0  0  0  0
   38.9195   10.1464    5.9427 N   0  0  0  0  0  0  0  0  0  0  0  0
   38.6325   11.2075    6.7778 C   0  0  0  0  0  0  0  0  0  0  0  0
   39.3281   12.3943    6.6580 N   0  0  0  0  0  0  0  0  0  0  0  0
   40.2988   12.5266    5.7214 C   0  0  0  0  0  0  0  0  0  0  0  0
   40.6024   11.4707    4.8727 C   0  0  0  0  0  0  0  0  0  0  0  0
   39.9064   10.2733    4.9861 C   0  0  0  0  0  0  0  0  0  0  0  0
   40.1893    9.2549    4.1793 N   0  0  0  0  0  0  0  0  0  0  0  0
   41.5947   11.8716    4.0488 N   0  0  0  0  0  0  0  0  0  0  0  0
   41.9247   13.1477    4.3537 C   0  0  0  0  0  0  0  0  0  0  0  0
   41.1296   13.5675    5.3888 N   0  0  0  0  0  0  0  0  0  0  0  0
  2  1  1  1  0  0  0
  2  3  1  0  0  0  0
  2  5  1  0  0  0  0
  3  4  1  0  0  0  0
  3 16  1  0  0  0  0
  5  6  1  0  0  0  0
  6  7  1  0  0  0  0
  7  8  1  0  0  0  0
  9  8  1  6  0  0  0
  9 10  1  0  0  0  0
  9 11  1  0  0  0  0
 10 15  1  0  0  0  0
 11 12  1  1  0  0  0
 11 13  1  0  0  0  0
 13 14  1  1  0  0  0
 13 15  1  0  0  0  0
 15 26  1  6  0  0  0
 17 18  2  0  0  0  0
 17 22  1  0  0  0  0
 18 19  1  0  0  0  0
 19 20  2  0  0  0  0
 20 21  1  0  0  0  0
 20 26  1  0  0  0  0
 21 22  2  0  0  0  0
 21 24  1  0  0  0  0
 22 23  1  0  0  0  0
 24 25  2  0  0  0  0
 25 26  1  0  0  0  0
M  END
>  <CHROM.1>
-30.54678798,-169.31128203,86.75394630,-75.33422713,-103.62211015,-77.55099299
21.90800891,38.77476465,14.64852188,6.68739123,2.25519355,0.56793248,0.15640654

>  <Name>
ligand

>  <RI>
0

>  <Rbt.Current_Directory>
/home/itssahil/PROJECTS/Mol_Feturizer/New_Systems/rnas/3NPQ

>  <Rbt.Executable>
rbdock ($Id: //depot/dev/client3/rdock/2013.1/src/exe/rbdock.cxx#4 $)

>  <Rbt.Library>
libRbt.so (2013.1, Build901 2013/11/27)

>  <Rbt.Parameter_File>
/export/apps/rDock/src/rDock_2013.1_src/data/scripts/dock_solv.prm

>  <Rbt.Receptor>
prm/pocket_docking_8.prm

>  <SCORE>
-22.4579

>  <SCORE.INTER>
-22.1784

>  <SCORE.INTER.CONST>
1

>  <SCORE.INTER.POLAR>
0

>  <SCORE.INTER.ROT>
7

>  <SCORE.INTER.SOLV>
22.8067

>  <SCORE.INTER.VDW>
-30.6545

>  <SCORE.INTER.norm>
-0.853016

>  <SCORE.INTRA>
-0.279514

>  <SCORE.INTRA.DIHEDRAL>
1.79992

>  <SCORE.INTRA.DIHEDRAL.0>
6.97628

>  <SCORE.INTRA.POLAR>
0

>  <SCORE.INTRA.POLAR.0>
0

>  <SCORE.INTRA.REPUL>
0

>  <SCORE.INTRA.REPUL.0>
0

>  <SCORE.INTRA.SOLV>
0.173476

>  <SCORE.INTRA.SOLV.lig_0>
-49.8243

>  <SCORE.INTRA.VDW>
-1.26621

>  <SCORE.INTRA.VDW.0>
-1.35881

>  <SCORE.INTRA.norm>
-0.0107505

>  <SCORE.RESTR>
0

>  <SCORE.RESTR.CAVITY>
0

>  <SCORE.RESTR.norm>
0

>  <SCORE.SYSTEM>
0

>  <SCORE.SYSTEM.CONST>
0

>  <SCORE.SYSTEM.DIHEDRAL>
0

>  <SCORE.SYSTEM.SOLV>
0

>  <SCORE.SYSTEM.norm>
0

>  <SCORE.heavy>
26

>  <SCORE.norm>
-0.863767

>  <RMSD>
2.036

$$$$
ligand
 OpenBabel11021811483D
libRbt.so/2013.1/901 2013/11/27
 26 28  0  0  0  0  0  0  0  0999 V2000
   34.0081   18.3073   10.6279 N   0  0  0  0  0  0  0  0  0  0  0  0
   34.7036   18.0763    9.3679 C   0  0  2  0  0  0  0  0  0  0  0  0
   33.8272   18.4564    8.1799 C   0  0  0  0  0  0  0  0  0  0  0  0
   34.1572   19.3600    7.4128 O   0  0  0  0  0  0  0  0  0  0  0  0
   35.1334   16.6190    9.2549 C   0  0  0  0  0  0  0  0  0  0  0  0
   36.0072   16.3198    8.0438 C   0  0  0  0  0  0  0  0  0  0  0  0
   36.8151   14.7031    8.1531 S   0  0  0  0  0  0  0  0  0  0  0  0
   37.4745   14.9161    6.4804 C   0  0  0  0  0  0  0  0  0  0  0  0
   38.8817   15.5019    6.4728 C   0  0  1  0  0  0  0  0  0  0  0  0
   39.8324   14.4786    6.7050 O   0  0  0  0  0  0  0  0  0  0  0  0
   39.2109   16.1472    5.1366 C   0  0  1  0  0  0  0  0  0  0  0  0
   39.4258   17.5279    5.3093 O   0  0  0  0  0  0  0  0  0  0  0  0
   40.4832   15.4798    4.6572 C   0  0  1  0  0  0  0  0  0  0  0  0
   41.4917   16.4438    4.4626 O   0  0  0  0  0  0  0  0  0  0  0  0
   40.8861   14.5168    5.7608 C   0  0  2  0  0  0  0  0  0  0  0  0
   32.7681   17.8678    7.9590 O   0  0  0  0  0  0  0  0  0  0  0  0
   39.1447    9.5723    5.4672 N   0  0  0  0  0  0  0  0  0  0  0  0
   38.5940   10.6283    6.1651 C   0  0  0  0  0  0  0  0  0  0  0  0
   39.1918   11.8726    6.1288 N   0  0  0  0  0  0  0  0  0  0  0  0
   40.3240   12.0667    5.4096 C   0  0  0  0  0  0  0  0  0  0  0  0
   40.8933   11.0170    4.7016 C   0  0  0  0  0  0  0  0  0  0  0  0
   40.2974    9.7619    4.7322 C   0  0  0  0  0  0  0  0  0  0  0  0
   40.8343    8.7488    4.0587 N   0  0  0  0  0  0  0  0  0  0  0  0
   41.9988   11.4843    4.0824 N   0  0  0  0  0  0  0  0  0  0  0  0
   42.1425   12.7963    4.3796 C   0  0  0  0  0  0  0  0  0  0  0  0
   41.1114   13.1717    5.2017 N   0  0  0  0  0  0  0  0  0  0  0  0
  2  1  1  1  0  0  0
  2  3  1  0  0  0  0
  2  5  1  0  0  0  0
  3  4  1  0  0  0  0
  3 16  1  0  0  0  0
  5  6  1  0  0  0  0
  6  7  1  0  0  0  0
  7  8  1  0  0  0  0
  9  8  1  6  0  0  0
  9 10  1  0  0  0  0
  9 11  1  0  0  0  0
 10 15  1  0  0  0  0
 11 12  1  1  0  0  0
 11 13  1  0  0  0  0
 13 14  1  1  0  0  0
 13 15  1  0  0  0  0
 15 26  1  6  0  0  0
 17 18  2  0  0  0  0
 17 22  1  0  0  0  0
 18 19  1  0  0  0  0
 19 20  2  0  0  0  0
 20 21  1  0  0  0  0
 20 26  1  0  0  0  0
 21 22  2  0  0  0  0
 21 24  1  0  0  0  0
 22 23  1  0  0  0  0
 24 25  2  0  0  0  0
 25 26  1  0  0  0  0
M  END
>  <CHROM.1>
117.16687261,-173.32788137,166.25194839,174.81044669,94.21533082,81.79582629
8.05597058,38.31076813,14.58300168,6.43309648,2.43119186,0.55544435,-0.02110053

>  <Name>
ligand

>  <RI>
0

>  <Rbt.Current_Directory>
/home/itssahil/PROJECTS/Mol_Feturizer/New_Systems/rnas/3NPQ

>  <Rbt.Executable>
rbdock ($Id: //depot/dev/client3/rdock/2013.1/src/exe/rbdock.cxx#4 $)

>  <Rbt.Library>
libRbt.so (2013.1, Build901 2013/11/27)

>  <Rbt.Parameter_File>
/export/apps/rDock/src/rDock_2013.1_src/data/scripts/dock_solv.prm

>  <Rbt.Receptor>
prm/pocket_docking_2.prm

>  <SCORE>
-29.0731

>  <SCORE.INTER>
-27.2561

>  <SCORE.INTER.CONST>
1

>  <SCORE.INTER.POLAR>
0

>  <SCORE.INTER.ROT>
7

>  <SCORE.INTER.SOLV>
22.9284

>  <SCORE.INTER.VDW>
-34.0802

>  <SCORE.INTER.norm>
-1.04831

>  <SCORE.INTRA>
-1.8449

>  <SCORE.INTRA.DIHEDRAL>
-0.409222

>  <SCORE.INTRA.DIHEDRAL.0>
6.97628

>  <SCORE.INTRA.POLAR>
0

>  <SCORE.INTRA.POLAR.0>
0

>  <SCORE.INTRA.REPUL>
0

>  <SCORE.INTRA.REPUL.0>
0

>  <SCORE.INTRA.SOLV>
-0.908468

>  <SCORE.INTRA.SOLV.lig_0>
-49.8243

>  <SCORE.INTRA.VDW>
-1.18606

>  <SCORE.INTRA.VDW.0>
-1.35881

>  <SCORE.INTRA.norm>
-0.0709577

>  <SCORE.RESTR>
0.0278995

>  <SCORE.RESTR.CAVITY>
0.0278995

>  <SCORE.RESTR.norm>
0.00107306

>  <SCORE.SYSTEM>
0

>  <SCORE.SYSTEM.CONST>
0

>  <SCORE.SYSTEM.DIHEDRAL>
0

>  <SCORE.SYSTEM.SOLV>
0

>  <SCORE.SYSTEM.norm>
0

>  <SCORE.heavy>
26

>  <SCORE.norm>
-1.1182

>  <RMSD>
2.037

$$$$
ligand
 OpenBabel11021811483D
libRbt.so/2013.1/901 2013/11/27
 26 28  0  0  0  0  0  0  0  0999 V2000
   33.9407   18.2994   10.5869 N   0  0  0  0  0  0  0  0  0  0  0  0
   34.9410   17.7725    9.6671 C   0  0  2  0  0  0  0  0  0  0  0  0
   34.4276   17.7860    8.2317 C   0  0  0  0  0  0  0  0  0  0  0  0
   33.2956   17.3877    7.9602 O   0  0  0  0  0  0  0  0  0  0  0  0
   35.3399   16.3572   10.0658 C   0  0  0  0  0  0  0  0  0  0  0  0
   36.5469   15.8148    9.3118 C   0  0  0  0  0  0  0  0  0  0  0  0
   36.1142   15.1846    7.6704 S   0  0  0  0  0  0  0  0  0  0  0  0
   37.6209   14.1807    7.6552 C   0  0  0  0  0  0  0  0  0  0  0  0
   38.8757   15.0067    7.3970 C   0  0  1  0  0  0  0  0  0  0  0  0
   40.0013   14.1546    7.2886 O   0  0  0  0  0  0  0  0  0  0  0  0
   38.7667   15.7990    6.1044 C   0  0  1  0  0  0  0  0  0  0  0  0
   38.8001   17.1789    6.3819 O   0  0  0  0  0  0  0  0  0  0  0  0
   39.9726   15.4067    5.2760 C   0  0  1  0  0  0  0  0  0  0  0  0
   40.7415   16.5469    4.9707 O   0  0  0  0  0  0  0  0  0  0  0  0
   40.7755   14.4507    6.1414 C   0  0  2  0  0  0  0  0  0  0  0  0
   35.1333   18.1965    7.3096 O   0  0  0  0  0  0  0  0  0  0  0  0
   39.3114    9.5020    5.1749 N   0  0  0  0  0  0  0  0  0  0  0  0
   38.7170   10.4151    6.0225 C   0  0  0  0  0  0  0  0  0  0  0  0
   39.2423   11.6854    6.1545 N   0  0  0  0  0  0  0  0  0  0  0  0
   40.3459   12.0453    5.4548 C   0  0  0  0  0  0  0  0  0  0  0  0
   40.9582   11.1409    4.5979 C   0  0  0  0  0  0  0  0  0  0  0  0
   40.4353    9.8609    4.4586 C   0  0  0  0  0  0  0  0  0  0  0  0
   41.0141    8.9860    3.6414 N   0  0  0  0  0  0  0  0  0  0  0  0
   42.0218   11.7551    4.0361 N   0  0  0  0  0  0  0  0  0  0  0  0
   42.0972   13.0186    4.5140 C   0  0  0  0  0  0  0  0  0  0  0  0
   41.0646   13.2132    5.3947 N   0  0  0  0  0  0  0  0  0  0  0  0
  2  1  1  1  0  0  0
  2  3  1  0  0  0  0
  2  5  1  0  0  0  0
  3  4  1  0  0  0  0
  3 16  1  0  0  0  0
  5  6  1  0  0  0  0
  6  7  1  0  0  0  0
  7  8  1  0  0  0  0
  9  8  1  6  0  0  0
  9 10  1  0  0  0  0
  9 11  1  0  0  0  0
 10 15  1  0  0  0  0
 11 12  1  1  0  0  0
 11 13  1  0  0  0  0
 13 14  1  1  0  0  0
 13 15  1  0  0  0  0
 15 26  1  6  0  0  0
 17 18  2  0  0  0  0
 17 22  1  0  0  0  0
 18 19  1  0  0  0  0
 19 20  2  0  0  0  0
 20 21  1  0  0  0  0
 20 26  1  0  0  0  0
 21 22  2  0  0  0  0
 21 24  1  0  0  0  0
 22 23  1  0  0  0  0
 24 25  2  0  0  0  0
 25 26  1  0  0  0  0
M  END
>  <CHROM.1>
-45.53131654,-170.03150933,-80.90479761,-158.69212301,-75.40569366,-175.24975304
22.41818873,38.30827940,14.42490714,6.68122544,2.38183948,0.52722202,0.10039008

>  <Name>
ligand

>  <RI>
0

>  <Rbt.Current_Directory>
/home/itssahil/PROJECTS/Mol_Feturizer/New_Systems/rnas/3NPQ

>  <Rbt.Executable>
rbdock ($Id: //depot/dev/client3/rdock/2013.1/src/exe/rbdock.cxx#4 $)

>  <Rbt.Library>
libRbt.so (2013.1, Build901 2013/11/27)

>  <Rbt.Parameter_File>
/export/apps/rDock/src/rDock_2013.1_src/data/scripts/dock_solv.prm

>  <Rbt.Receptor>
prm/pocket_docking_3.prm

>  <SCORE>
-30.5474

>  <SCORE.INTER>
-27.9163

>  <SCORE.INTER.CONST>
1

>  <SCORE.INTER.POLAR>
0

>  <SCORE.INTER.ROT>
7

>  <SCORE.INTER.SOLV>
22.1435

>  <SCORE.INTER.VDW>
-34.2587

>  <SCORE.INTER.norm>
-1.0737

>  <SCORE.INTRA>
-2.6311

>  <SCORE.INTRA.DIHEDRAL>
-1.31792

>  <SCORE.INTRA.DIHEDRAL.0>
6.97628

>  <SCORE.INTRA.POLAR>
0

>  <SCORE.INTRA.POLAR.0>
0

>  <SCORE.INTRA.REPUL>
0

>  <SCORE.INTRA.REPUL.0>
0

>  <SCORE.INTRA.SOLV>
-0.453095

>  <SCORE.INTRA.SOLV.lig_0>
-49.8243

>  <SCORE.INTRA.VDW>
-1.74559

>  <SCORE.INTRA.VDW.0>
-1.35881

>  <SCORE.INTRA.norm>
-0.101196

>  <SCORE.RESTR>
0

>  <SCORE.RESTR.CAVITY>
0

>  <SCORE.RESTR.norm>
0

>  <SCORE.SYSTEM>
0

>  <SCORE.SYSTEM.CONST>
0

>  <SCORE.SYSTEM.DIHEDRAL>
0

>  <SCORE.SYSTEM.SOLV>
0

>  <SCORE.SYSTEM.norm>
0

>  <SCORE.heavy>
26

>  <SCORE.norm>
-1.1749

>  <RMSD>
2.037

$$$$
ligand
 OpenBabel11021811483D
libRbt.so/2013.1/901 2013/11/27
 26 28  0  0  0  0  0  0  0  0999 V2000
   33.6944   18.4003   10.6981 N   0  0  0  0  0  0  0  0  0  0  0  0
   34.5467   18.1542    9.5416 C   0  0  2  0  0  0  0  0  0  0  0  0
   33.8004   18.4310    8.2414 C   0  0  0  0  0  0  0  0  0  0  0  0
   32.7679   17.8229    7.9619 O   0  0  0  0  0  0  0  0  0  0  0  0
   35.0615   16.7203    9.5534 C   0  0  0  0  0  0  0  0  0  0  0  0
   36.0447   16.4027    8.4345 C   0  0  0  0  0  0  0  0  0  0  0  0
   36.6901   14.7141    8.5361 S   0  0  0  0  0  0  0  0  0  0  0  0
   37.3307   14.8540    6.8484 C   0  0  0  0  0  0  0  0  0  0  0  0
   38.7033   15.5145    6.7929 C   0  0  1  0  0  0  0  0  0  0  0  0
   39.7163   14.5375    6.9492 O   0  0  0  0  0  0  0  0  0  0  0  0
   38.9334   16.2135    5.4630 C   0  0  1  0  0  0  0  0  0  0  0  0
   39.0840   17.5984    5.6673 O   0  0  0  0  0  0  0  0  0  0  0  0
   40.2142   15.6289    4.9046 C   0  0  1  0  0  0  0  0  0  0  0  0
   41.1604   16.6507    4.6924 O   0  0  0  0  0  0  0  0  0  0  0  0
   40.7197   14.6586    5.9584 C   0  0  2  0  0  0  0  0  0  0  0  0
   34.2128   19.2702    7.4398 O   0  0  0  0  0  0  0  0  0  0  0  0
   39.1540    9.6681    5.4989 N   0  0  0  0  0  0  0  0  0  0  0  0
   38.5725   10.6776    6.2393 C   0  0  0  0  0  0  0  0  0  0  0  0
   39.1249   11.9432    6.2435 N   0  0  0  0  0  0  0  0  0  0  0  0
   40.2426   12.2040    5.5226 C   0  0  0  0  0  0  0  0  0  0  0  0
   40.8423   11.2019    4.7722 C   0  0  0  0  0  0  0  0  0  0  0  0
   40.2922    9.9258    4.7618 C   0  0  0  0  0  0  0  0  0  0  0  0
   40.8586    8.9578    4.0474 N   0  0  0  0  0  0  0  0  0  0  0  0
   41.9245   11.7309    4.1614 N   0  0  0  0  0  0  0  0  0  0  0  0
   42.0239   13.0356    4.5051 C   0  0  0  0  0  0  0  0  0  0  0  0
   40.9879   13.3436    5.3488 N   0  0  0  0  0  0  0  0  0  0  0  0
  2  1  1  1  0  0  0
  2  3  1  0  0  0  0
  2  5  1  0  0  0  0
  3  4  1  0  0  0  0
  3 16  1  0  0  0  0
  5  6  1  0  0  0  0
  6  7  1  0  0  0  0
  7  8  1  0  0  0  0
  9  8  1  6  0  0  0
  9 10  1  0  0  0  0
  9 11  1  0  0  0  0
 10 15  1  0  0  0  0
 11 12  1  1  0  0  0
 11 13  1  0  0  0  0
 13 14  1  1  0  0  0
 13 15  1  0  0  0  0
 15 26  1  6  0  0  0
 17 18  2  0  0  0  0
 17 22  1  0  0  0  0
 18 19  1  0  0  0  0
 19 20  2  0  0  0  0
 20 21  1  0  0  0  0
 20 26  1  0  0  0  0
 21 22  2  0  0  0  0
 21 24  1  0  0  0  0
 22 23  1  0  0  0  0
 24 25  2  0  0  0  0
 25 26  1  0  0  0  0
M  END
>  <CHROM.1>
-58.97709069,-175.72546397,177.21265114,166.06863656,84.66138791,87.69523128
10.51364569,38.19572824,14.66970148,6.61722286,2.44243358,0.56872289,-0.02585025

>  <Name>
ligand

>  <RI>
0

>  <Rbt.Current_Directory>
/home/itssahil/PROJECTS/Mol_Feturizer/New_Systems/rnas/3NPQ

>  <Rbt.Executable>
rbdock ($Id: //depot/dev/client3/rdock/2013.1/src/exe/rbdock.cxx#4 $)

>  <Rbt.Library>
libRbt.so (2013.1, Build901 2013/11/27)

>  <Rbt.Parameter_File>
/export/apps/rDock/src/rDock_2013.1_src/data/scripts/dock_solv.prm

>  <Rbt.Receptor>
prm/pocket_docking_5.prm

>  <SCORE>
-30.0726

>  <SCORE.INTER>
-28.1557

>  <SCORE.INTER.CONST>
1

>  <SCORE.INTER.POLAR>
0

>  <SCORE.INTER.ROT>
7

>  <SCORE.INTER.SOLV>
23.388

>  <SCORE.INTER.VDW>
-34.8331

>  <SCORE.INTER.norm>
-1.08291

>  <SCORE.INTRA>
-1.918

>  <SCORE.INTRA.DIHEDRAL>
-0.715591

>  <SCORE.INTRA.DIHEDRAL.0>
6.97628

>  <SCORE.INTRA.POLAR>
0

>  <SCORE.INTRA.POLAR.0>
0

>  <SCORE.INTRA.REPUL>
0

>  <SCORE.INTRA.REPUL.0>
0

>  <SCORE.INTRA.SOLV>
-0.880323

>  <SCORE.INTRA.SOLV.lig_0>
-49.8243

>  <SCORE.INTRA.VDW>
-1.12005

>  <SCORE.INTRA.VDW.0>
-1.35881

>  <SCORE.INTRA.norm>
-0.0737693

>  <SCORE.RESTR>
0.00117224

>  <SCORE.RESTR.CAVITY>
0.00117224

>  <SCORE.RESTR.norm>
4.50861e-05

>  <SCORE.SYSTEM>
0

>  <SCORE.SYSTEM.CONST>
0

>  <SCORE.SYSTEM.DIHEDRAL>
0

>  <SCORE.SYSTEM.SOLV>
0

>  <SCORE.SYSTEM.norm>
0

>  <SCORE.heavy>
26

>  <SCORE.norm>
-1.15664

>  <RMSD>
2.043

$$$$
ligand
 OpenBabel11021811483D
libRbt.so/2013.1/901 2013/11/27
 26 28  0  0  0  0  0  0  0  0999 V2000
   35.6177   17.0059   10.1679 N   0  0  0  0  0  0  0  0  0  0  0  0
   34.9723   17.5491    8.9792 C   0  0  2  0  0  0  0  0  0  0  0  0
   33.9905   18.6563    9.3455 C   0  0  0  0  0  0  0  0  0  0  0  0
   33.6999   19.5379    8.5379 O   0  0  0  0  0  0  0  0  0  0  0  0
   34.2538   16.4469    8.2112 C   0  0  0  0  0  0  0  0  0  0  0  0
   35.1714   15.3429    7.7021 C   0  0  0  0  0  0  0  0  0  0  0  0
   36.1524   15.8605    6.2710 S   0  0  0  0  0  0  0  0  0  0  0  0
   37.3752   14.5776    6.6413 C   0  0  0  0  0  0  0  0  0  0  0  0
   38.7707   15.1447    6.8743 C   0  0  1  0  0  0  0  0  0  0  0  0
   39.7068   14.0894    6.9976 O   0  0  0  0  0  0  0  0  0  0  0  0
   39.2151   16.0272    5.7193 C   0  0  1  0  0  0  0  0  0  0  0  0
   39.3985   17.3493    6.1672 O   0  0  0  0  0  0  0  0  0  0  0  0
   40.5333   15.4528    5.2433 C   0  0  1  0  0  0  0  0  0  0  0  0
   41.5451   16.4292    5.3275 O   0  0  0  0  0  0  0  0  0  0  0  0
   40.8427   14.2970    6.1792 C   0  0  2  0  0  0  0  0  0  0  0  0
   33.4644   18.6948   10.4584 O   0  0  0  0  0  0  0  0  0  0  0  0
   39.3640    9.3848    5.0607 N   0  0  0  0  0  0  0  0  0  0  0  0
   38.7657   10.2769    5.9277 C   0  0  0  0  0  0  0  0  0  0  0  0
   39.2959   11.5403    6.1002 N   0  0  0  0  0  0  0  0  0  0  0  0
   40.4081   11.9138    5.4215 C   0  0  0  0  0  0  0  0  0  0  0  0
   41.0244   11.0306    4.5456 C   0  0  0  0  0  0  0  0  0  0  0  0
   40.4966    9.7577    4.3656 C   0  0  0  0  0  0  0  0  0  0  0  0
   41.0790    8.9030    3.5299 N   0  0  0  0  0  0  0  0  0  0  0  0
   42.0964   11.6548    4.0115 N   0  0  0  0  0  0  0  0  0  0  0  0
   42.1733   12.9040    4.5252 C   0  0  0  0  0  0  0  0  0  0  0  0
   41.1331   13.0792    5.4010 N   0  0  0  0  0  0  0  0  0  0  0  0
  2  1  1  1  0  0  0
  2  3  1  0  0  0  0
  2  5  1  0  0  0  0
  3  4  1  0  0  0  0
  3 16  1  0  0  0  0
  5  6  1  0  0  0  0
  6  7  1  0  0  0  0
  7  8  1  0  0  0  0
  9  8  1  6  0  0  0
  9 10  1  0  0  0  0
  9 11  1  0  0  0  0
 10 15  1  0  0  0  0
 11 12  1  1  0  0  0
 11 13  1  0  0  0  0
 13 14  1  1  0  0  0
 13 15  1  0  0  0  0
 15 26  1  6  0  0  0
 17 18  2  0  0  0  0
 17 22  1  0  0  0  0
 18 19  1  0  0  0  0
 19 20  2  0  0  0  0
 20 21  1  0  0  0  0
 20 26  1  0  0  0  0
 21 22  2  0  0  0  0
 21 24  1  0  0  0  0
 22 23  1  0  0  0  0
 24 25  2  0  0  0  0
 25 26  1  0  0  0  0
M  END
>  <CHROM.1>
154.44893750,-61.52770559,-74.83216489,157.20254650,-121.41754987,-172.96714897
1.49866188,38.30882167,14.53559411,6.49215060,2.33279142,0.42927600,0.17625962

>  <Name>
ligand

>  <RI>
0

>  <Rbt.Current_Directory>
/home/itssahil/PROJECTS/Mol_Feturizer/New_Systems/rnas/3NPQ

>  <Rbt.Executable>
rbdock ($Id: //depot/dev/client3/rdock/2013.1/src/exe/rbdock.cxx#4 $)

>  <Rbt.Library>
libRbt.so (2013.1, Build901 2013/11/27)

>  <Rbt.Parameter_File>
/export/apps/rDock/src/rDock_2013.1_src/data/scripts/dock_solv.prm

>  <Rbt.Receptor>
prm/pocket_docking_4.prm

>  <SCORE>
-27.641

>  <SCORE.INTER>
-26.7503

>  <SCORE.INTER.CONST>
1

>  <SCORE.INTER.POLAR>
0

>  <SCORE.INTER.ROT>
7

>  <SCORE.INTER.SOLV>
18.1364

>  <SCORE.INTER.VDW>
-32.1457

>  <SCORE.INTER.norm>
-1.02886

>  <SCORE.INTRA>
-0.890681

>  <SCORE.INTRA.DIHEDRAL>
-0.174357

>  <SCORE.INTRA.DIHEDRAL.0>
6.97628

>  <SCORE.INTRA.POLAR>
0

>  <SCORE.INTRA.POLAR.0>
0

>  <SCORE.INTRA.REPUL>
0

>  <SCORE.INTRA.REPUL.0>
0

>  <SCORE.INTRA.SOLV>
0.43418

>  <SCORE.INTRA.SOLV.lig_0>
-49.8243

>  <SCORE.INTRA.VDW>
-1.02059

>  <SCORE.INTRA.VDW.0>
-1.35881

>  <SCORE.INTRA.norm>
-0.034257

>  <SCORE.RESTR>
0

>  <SCORE.RESTR.CAVITY>
0

>  <SCORE.RESTR.norm>
0

>  <SCORE.SYSTEM>
0

>  <SCORE.SYSTEM.CONST>
0

>  <SCORE.SYSTEM.DIHEDRAL>
0

>  <SCORE.SYSTEM.SOLV>
0

>  <SCORE.SYSTEM.norm>
0

>  <SCORE.heavy>
26

>  <SCORE.norm>
-1.06311

>  <RMSD>
2.049

$$$$
ligand
 OpenBabel11021811483D
libRbt.so/2013.1/901 2013/11/27
 26 28  0  0  0  0  0  0  0  0999 V2000
   36.0575   17.5290    9.6237 N   0  0  0  0  0  0  0  0  0  0  0  0
   34.9500   17.7330    8.6983 C   0  0  2  0  0  0  0  0  0  0  0  0
   33.9688   18.7681    9.2368 C   0  0  0  0  0  0  0  0  0  0  0  0
   33.5680   19.6900    8.5273 O   0  0  0  0  0  0  0  0  0  0  0  0
   34.2282   16.4181    8.4317 C   0  0  0  0  0  0  0  0  0  0  0  0
   35.1397   15.2917    7.9625 C   0  0  0  0  0  0  0  0  0  0  0  0
   35.8516   15.6097    6.3284 S   0  0  0  0  0  0  0  0  0  0  0  0
   37.2465   14.5244    6.7214 C   0  0  0  0  0  0  0  0  0  0  0  0
   38.5828   15.2577    6.7147 C   0  0  1  0  0  0  0  0  0  0  0  0
   39.6424   14.3327    6.8778 O   0  0  0  0  0  0  0  0  0  0  0  0
   38.8081   15.9961    5.4055 C   0  0  1  0  0  0  0  0  0  0  0  0
   38.8792   17.3824    5.6413 O   0  0  0  0  0  0  0  0  0  0  0  0
   40.1319   15.4923    4.8690 C   0  0  1  0  0  0  0  0  0  0  0  0
   41.0270   16.5671    4.7019 O   0  0  0  0  0  0  0  0  0  0  0  0
   40.6623   14.5278    5.9159 C   0  0  2  0  0  0  0  0  0  0  0  0
   33.5533   18.7061   10.3945 O   0  0  0  0  0  0  0  0  0  0  0  0
   39.3524    9.4834    5.2796 N   0  0  0  0  0  0  0  0  0  0  0  0
   38.6957   10.4462    6.0193 C   0  0  0  0  0  0  0  0  0  0  0  0
   39.1873   11.7355    6.0747 N   0  0  0  0  0  0  0  0  0  0  0  0
   40.3185   12.0655    5.4051 C   0  0  0  0  0  0  0  0  0  0  0  0
   40.9935   11.1111    4.6563 C   0  0  0  0  0  0  0  0  0  0  0  0
   40.5048    9.8116    4.5946 C   0  0  0  0  0  0  0  0  0  0  0  0
   41.1435    8.8889    3.8812 N   0  0  0  0  0  0  0  0  0  0  0  0
   42.0723   11.7046    4.1015 N   0  0  0  0  0  0  0  0  0  0  0  0
   42.0967   13.0035    4.4788 C   0  0  0  0  0  0  0  0  0  0  0  0
   41.0154   13.2422    5.2874 N   0  0  0  0  0  0  0  0  0  0  0  0
  2  1  1  1  0  0  0
  2  3  1  0  0  0  0
  2  5  1  0  0  0  0
  3  4  1  0  0  0  0
  3 16  1  0  0  0  0
  5  6  1  0  0  0  0
  6  7  1  0  0  0  0
  7  8  1  0  0  0  0
  9  8  1  6  0  0  0
  9 10  1  0  0  0  0
  9 11  1  0  0  0  0
 10 15  1  0  0  0  0
 11 12  1  1  0  0  0
 11 13  1  0  0  0  0
 13 14  1  1  0  0  0
 13 15  1  0  0  0  0
 15 26  1  6  0  0  0
 17 18  2  0  0  0  0
 17 22  1  0  0  0  0
 18 19  1  0  0  0  0
 19 20  2  0  0  0  0
 20 21  1  0  0  0  0
 20 26  1  0  0  0  0
 21 22  2  0  0  0  0
 21 24  1  0  0  0  0
 22 23  1  0  0  0  0
 24 25  2  0  0  0  0
 25 26  1  0  0  0  0
M  END
>  <CHROM.1>
131.80297146,-53.71815595,-66.46155243,154.97369655,-117.95982204,-173.41092164
11.41454907,38.18587858,14.61164823,6.41982745,2.37261713,0.50547869,0.07150139

>  <Name>
ligand

>  <RI>
0

>  <Rbt.Current_Directory>
/home/itssahil/PROJECTS/Mol_Feturizer/New_Systems/rnas/3NPQ

>  <Rbt.Executable>
rbdock ($Id: //depot/dev/client3/rdock/2013.1/src/exe/rbdock.cxx#4 $)

>  <Rbt.Library>
libRbt.so (2013.1, Build901 2013/11/27)

>  <Rbt.Parameter_File>
/export/apps/rDock/src/rDock_2013.1_src/data/scripts/dock_solv.prm

>  <Rbt.Receptor>
prm/pocket_docking_3.prm

>  <SCORE>
-27.4097

>  <SCORE.INTER>
-26.4789

>  <SCORE.INTER.CONST>
1

>  <SCORE.INTER.POLAR>
0

>  <SCORE.INTER.ROT>
7

>  <SCORE.INTER.SOLV>
17.0328

>  <SCORE.INTER.VDW>
-31.5968

>  <SCORE.INTER.norm>
-1.01842

>  <SCORE.INTRA>
-0.930825

>  <SCORE.INTRA.DIHEDRAL>
-0.566755

>  <SCORE.INTRA.DIHEDRAL.0>
6.97628

>  <SCORE.INTRA.POLAR>
0

>  <SCORE.INTRA.POLAR.0>
0

>  <SCORE.INTRA.REPUL>
0

>  <SCORE.INTRA.REPUL.0>
0

>  <SCORE.INTRA.SOLV>
0.97462

>  <SCORE.INTRA.SOLV.lig_0>
-49.8243

>  <SCORE.INTRA.VDW>
-1.13476

>  <SCORE.INTRA.VDW.0>
-1.35881

>  <SCORE.INTRA.norm>
-0.035801

>  <SCORE.RESTR>
0

>  <SCORE.RESTR.CAVITY>
0

>  <SCORE.RESTR.norm>
0

>  <SCORE.SYSTEM>
0

>  <SCORE.SYSTEM.CONST>
0

>  <SCORE.SYSTEM.DIHEDRAL>
0

>  <SCORE.SYSTEM.SOLV>
0

>  <SCORE.SYSTEM.norm>
0

>  <SCORE.heavy>
26

>  <SCORE.norm>
-1.05422

>  <RMSD>
2.051

$$$$
ligand
 OpenBabel11021811483D
libRbt.so/2013.1/901 2013/11/27
 26 28  0  0  0  0  0  0  0  0999 V2000
   34.0459   18.0509   10.9546 N   0  0  0  0  0  0  0  0  0  0  0  0
   34.7559   17.8670    9.6950 C   0  0  2  0  0  0  0  0  0  0  0  0
   33.8474   18.1572    8.5057 C   0  0  0  0  0  0  0  0  0  0  0  0
   34.2154   18.8957    7.5930 O   0  0  0  0  0  0  0  0  0  0  0  0
   35.3094   16.4510    9.5962 C   0  0  0  0  0  0  0  0  0  0  0  0
   36.1667   16.2025    8.3620 C   0  0  0  0  0  0  0  0  0  0  0  0
   36.8668   14.5330    8.3279 S   0  0  0  0  0  0  0  0  0  0  0  0
   37.4316   14.8013    6.6287 C   0  0  0  0  0  0  0  0  0  0  0  0
   38.8130   15.4422    6.5620 C   0  0  1  0  0  0  0  0  0  0  0  0
   39.8125   14.4566    6.7478 O   0  0  0  0  0  0  0  0  0  0  0  0
   39.0574   16.1036    5.2155 C   0  0  1  0  0  0  0  0  0  0  0  0
   39.2253   17.4912    5.3848 O   0  0  0  0  0  0  0  0  0  0  0  0
   40.3327   15.4882    4.6779 C   0  0  1  0  0  0  0  0  0  0  0  0
   41.2930   16.4918    4.4435 O   0  0  0  0  0  0  0  0  0  0  0  0
   40.8213   14.5389    5.7585 C   0  0  2  0  0  0  0  0  0  0  0  0
   32.7236   17.6591    8.4297 O   0  0  0  0  0  0  0  0  0  0  0  0
   39.2092    9.5519    5.4450 N   0  0  0  0  0  0  0  0  0  0  0  0
   38.6405   10.5867    6.1602 C   0  0  0  0  0  0  0  0  0  0  0  0
   39.2041   11.8469    6.1266 N   0  0  0  0  0  0  0  0  0  0  0  0
   40.3202   12.0777    5.3932 C   0  0  0  0  0  0  0  0  0  0  0  0
   40.9071   11.0499    4.6677 C   0  0  0  0  0  0  0  0  0  0  0  0
   40.3457    9.7789    4.6954 C   0  0  0  0  0  0  0  0  0  0  0  0
   40.8998    8.7866    4.0052 N   0  0  0  0  0  0  0  0  0  0  0  0
   41.9907   11.5521    4.0371 N   0  0  0  0  0  0  0  0  0  0  0  0
   42.1034   12.8649    4.3441 C   0  0  0  0  0  0  0  0  0  0  0  0
   41.0746   13.2053    5.1841 N   0  0  0  0  0  0  0  0  0  0  0  0
  2  1  1  1  0  0  0
  2  3  1  0  0  0  0
  2  5  1  0  0  0  0
  3  4  1  0  0  0  0
  3 16  1  0  0  0  0
  5  6  1  0  0  0  0
  6  7  1  0  0  0  0
  7  8  1  0  0  0  0
  9  8  1  6  0  0  0
  9 10  1  0  0  0  0
  9 11  1  0  0  0  0
 10 15  1  0  0  0  0
 11 12  1  1  0  0  0
 11 13  1  0  0  0  0
 13 14  1  1  0  0  0
 13 15  1  0  0  0  0
 15 26  1  6  0  0  0
 17 18  2  0  0  0  0
 17 22  1  0  0  0  0
 18 19  1  0  0  0  0
 19 20  2  0  0  0  0
 20 21  1  0  0  0  0
 20 26  1  0  0  0  0
 21 22  2  0  0  0  0
 21 24  1  0  0  0  0
 22 23  1  0  0  0  0
 24 25  2  0  0  0  0
 25 26  1  0  0  0  0
M  END
>  <CHROM.1>
131.09331030,-175.18711231,177.24231079,170.59780195,87.69325915,80.85424702
9.92213026,38.30327841,14.50174948,6.54127301,2.46960557,0.60450371,-0.03082217

>  <Name>
ligand

>  <RI>
0

>  <Rbt.Current_Directory>
/home/itssahil/PROJECTS/Mol_Feturizer/New_Systems/rnas/3NPQ

>  <Rbt.Executable>
rbdock ($Id: //depot/dev/client3/rdock/2013.1/src/exe/rbdock.cxx#4 $)

>  <Rbt.Library>
libRbt.so (2013.1, Build901 2013/11/27)

>  <Rbt.Parameter_File>
/export/apps/rDock/src/rDock_2013.1_src/data/scripts/dock_solv.prm

>  <Rbt.Receptor>
prm/pocket_docking_3.prm

>  <SCORE>
-30.4251

>  <SCORE.INTER>
-27.9703

>  <SCORE.INTER.CONST>
1

>  <SCORE.INTER.POLAR>
0

>  <SCORE.INTER.ROT>
7

>  <SCORE.INTER.SOLV>
23.5576

>  <SCORE.INTER.VDW>
-34.7661

>  <SCORE.INTER.norm>
-1.07578

>  <SCORE.INTRA>
-2.45481

>  <SCORE.INTRA.DIHEDRAL>
-1.57327

>  <SCORE.INTRA.DIHEDRAL.0>
6.97628

>  <SCORE.INTRA.POLAR>
0

>  <SCORE.INTRA.POLAR.0>
0

>  <SCORE.INTRA.REPUL>
0

>  <SCORE.INTRA.REPUL.0>
0

>  <SCORE.INTRA.SOLV>
-0.884697

>  <SCORE.INTRA.SOLV.lig_0>
-49.8243

>  <SCORE.INTRA.VDW>
-1.22582

>  <SCORE.INTRA.VDW.0>
-1.35881

>  <SCORE.INTRA.norm>
-0.0944158

>  <SCORE.RESTR>
0

>  <SCORE.RESTR.CAVITY>
0

>  <SCORE.RESTR.norm>
0

>  <SCORE.SYSTEM>
0

>  <SCORE.SYSTEM.CONST>
0

>  <SCORE.SYSTEM.DIHEDRAL>
0

>  <SCORE.SYSTEM.SOLV>
0

>  <SCORE.SYSTEM.norm>
0

>  <SCORE.heavy>
26

>  <SCORE.norm>
-1.1702

>  <RMSD>
2.057

$$$$
ligand
 OpenBabel11021811483D
libRbt.so/2013.1/901 2013/11/27
 26 28  0  0  0  0  0  0  0  0999 V2000
   35.1443   16.5457   10.5937 N   0  0  0  0  0  0  0  0  0  0  0  0
   35.5038   17.3228    9.4141 C   0  0  2  0  0  0  0  0  0  0  0  0
   34.7242   18.6318    9.3611 C   0  0  0  0  0  0  0  0  0  0  0  0
   35.0974   19.5628    8.6484 O   0  0  0  0  0  0  0  0  0  0  0  0
   35.2551   16.5150    8.1466 C   0  0  0  0  0  0  0  0  0  0  0  0
   35.8678   15.1208    8.1667 C   0  0  0  0  0  0  0  0  0  0  0  0
   37.6476   15.1494    8.4979 S   0  0  0  0  0  0  0  0  0  0  0  0
   37.9741   15.4189    6.7375 C   0  0  0  0  0  0  0  0  0  0  0  0
   39.4080   15.8585    6.4655 C   0  0  1  0  0  0  0  0  0  0  0  0
   40.2895   14.7635    6.6352 O   0  0  0  0  0  0  0  0  0  0  0  0
   39.5745   16.3731    5.0450 C   0  0  1  0  0  0  0  0  0  0  0  0
   39.9354   17.7339    5.0658 O   0  0  0  0  0  0  0  0  0  0  0  0
   40.6897   15.5496    4.4349 C   0  0  1  0  0  0  0  0  0  0  0  0
   41.7351   16.3916    4.0078 O   0  0  0  0  0  0  0  0  0  0  0  0
   41.1776   14.6300    5.5412 C   0  0  2  0  0  0  0  0  0  0  0  0
   33.7020   18.7887   10.0300 O   0  0  0  0  0  0  0  0  0  0  0  0
   38.8869    9.9140    5.8232 N   0  0  0  0  0  0  0  0  0  0  0  0
   38.5365   11.0713    6.4890 C   0  0  0  0  0  0  0  0  0  0  0  0
   39.2581   12.2321    6.2922 N   0  0  0  0  0  0  0  0  0  0  0  0
   40.3164   12.2443    5.4455 C   0  0  0  0  0  0  0  0  0  0  0  0
   40.6847   11.0904    4.7672 C   0  0  0  0  0  0  0  0  0  0  0  0
   39.9631    9.9183    4.9590 C   0  0  0  0  0  0  0  0  0  0  0  0
   40.3073    8.8068    4.3154 N   0  0  0  0  0  0  0  0  0  0  0  0
   41.7576   11.3831    4.0009 N   0  0  0  0  0  0  0  0  0  0  0  0
   42.0756   12.6862    4.1768 C   0  0  0  0  0  0  0  0  0  0  0  0
   41.1908   13.2335    5.0698 N   0  0  0  0  0  0  0  0  0  0  0  0
  2  1  1  1  0  0  0
  2  3  1  0  0  0  0
  2  5  1  0  0  0  0
  3  4  1  0  0  0  0
  3 16  1  0  0  0  0
  5  6  1  0  0  0  0
  6  7  1  0  0  0  0
  7  8  1  0  0  0  0
  9  8  1  6  0  0  0
  9 10  1  0  0  0  0
  9 11  1  0  0  0  0
 10 15  1  0  0  0  0
 11 12  1  1  0  0  0
 11 13  1  0  0  0  0
 13 14  1  1  0  0  0
 13 15  1  0  0  0  0
 15 26  1  6  0  0  0
 17 18  2  0  0  0  0
 17 22  1  0  0  0  0
 18 19  1  0  0  0  0
 19 20  2  0  0  0  0
 20 21  1  0  0  0  0
 20 26  1  0  0  0  0
 21 22  2  0  0  0  0
 21 24  1  0  0  0  0
 22 23  1  0  0  0  0
 24 25  2  0  0  0  0
 25 26  1  0  0  0  0
M  END
>  <CHROM.1>
162.23068797,-50.58326092,-55.47571045,-85.20048880,166.23695750,73.16297696
11.02819422,38.62392292,14.64866339,6.59827494,2.42070677,0.66658329,0.00914401

>  <Name>
ligand

>  <RI>
0

>  <Rbt.Current_Directory>
/home/itssahil/PROJECTS/Mol_Feturizer/New_Systems/rnas/3NPQ

>  <Rbt.Executable>
rbdock ($Id: //depot/dev/client3/rdock/2013.1/src/exe/rbdock.cxx#4 $)

>  <Rbt.Library>
libRbt.so (2013.1, Build901 2013/11/27)

>  <Rbt.Parameter_File>
/export/apps/rDock/src/rDock_2013.1_src/data/scripts/dock_solv.prm

>  <Rbt.Receptor>
prm/pocket_docking_4.prm

>  <SCORE>
-27.2699

>  <SCORE.INTER>
-25.5638

>  <SCORE.INTER.CONST>
1

>  <SCORE.INTER.POLAR>
0

>  <SCORE.INTER.ROT>
7

>  <SCORE.INTER.SOLV>
22.2105

>  <SCORE.INTER.VDW>
-32.7127

>  <SCORE.INTER.norm>
-0.983223

>  <SCORE.INTRA>
-1.70607

>  <SCORE.INTRA.DIHEDRAL>
-2.09631

>  <SCORE.INTRA.DIHEDRAL.0>
6.97628

>  <SCORE.INTRA.POLAR>
0

>  <SCORE.INTRA.POLAR.0>
0

>  <SCORE.INTRA.REPUL>
0

>  <SCORE.INTRA.REPUL.0>
0

>  <SCORE.INTRA.SOLV>
0.737163

>  <SCORE.INTRA.SOLV.lig_0>
-49.8243

>  <SCORE.INTRA.VDW>
-1.0265

>  <SCORE.INTRA.VDW.0>
-1.35881

>  <SCORE.INTRA.norm>
-0.0656181

>  <SCORE.RESTR>
0

>  <SCORE.RESTR.CAVITY>
0

>  <SCORE.RESTR.norm>
0

>  <SCORE.SYSTEM>
0

>  <SCORE.SYSTEM.CONST>
0

>  <SCORE.SYSTEM.DIHEDRAL>
0

>  <SCORE.SYSTEM.SOLV>
0

>  <SCORE.SYSTEM.norm>
0

>  <SCORE.heavy>
26

>  <SCORE.norm>
-1.04884

>  <RMSD>
2.063

$$$$
ligand
 OpenBabel11021811483D
libRbt.so/2013.1/901 2013/11/27
 26 28  0  0  0  0  0  0  0  0999 V2000
   34.4321   17.6796   10.5868 N   0  0  0  0  0  0  0  0  0  0  0  0
   34.8304   17.3319    9.2284 C   0  0  2  0  0  0  0  0  0  0  0  0
   33.9641   18.0521    8.2014 C   0  0  0  0  0  0  0  0  0  0  0  0
   34.4380   18.9221    7.4716 O   0  0  0  0  0  0  0  0  0  0  0  0
   34.7477   15.8254    9.0171 C   0  0  0  0  0  0  0  0  0  0  0  0
   35.5123   15.3248    7.7986 C   0  0  0  0  0  0  0  0  0  0  0  0
   37.1576   14.6979    8.2208 S   0  0  0  0  0  0  0  0  0  0  0  0
   37.7891   15.2704    6.6234 C   0  0  0  0  0  0  0  0  0  0  0  0
   39.2525   15.6921    6.6861 C   0  0  1  0  0  0  0  0  0  0  0  0
   40.0743   14.5568    6.8886 O   0  0  0  0  0  0  0  0  0  0  0  0
   39.6963   16.3627    5.3963 C   0  0  1  0  0  0  0  0  0  0  0  0
   40.0588   17.6994    5.6494 O   0  0  0  0  0  0  0  0  0  0  0  0
   40.9011   15.5801    4.9166 C   0  0  1  0  0  0  0  0  0  0  0  0
   42.0172   16.4319    4.8021 O   0  0  0  0  0  0  0  0  0  0  0  0
   41.1565   14.5229    5.9770 C   0  0  2  0  0  0  0  0  0  0  0  0
   32.7693   17.7802    8.0771 O   0  0  0  0  0  0  0  0  0  0  0  0
   39.0067    9.7515    5.5533 N   0  0  0  0  0  0  0  0  0  0  0  0
   38.5731   10.8152    6.3189 C   0  0  0  0  0  0  0  0  0  0  0  0
   39.2685   12.0082    6.3084 N   0  0  0  0  0  0  0  0  0  0  0  0
   40.3824   12.1440    5.5483 C   0  0  0  0  0  0  0  0  0  0  0  0
   40.8345   11.0855    4.7721 C   0  0  0  0  0  0  0  0  0  0  0  0
   40.1400    9.8819    4.7763 C   0  0  0  0  0  0  0  0  0  0  0  0
   40.5643    8.8610    4.0375 N   0  0  0  0  0  0  0  0  0  0  0  0
   41.9482   11.4909    4.1245 N   0  0  0  0  0  0  0  0  0  0  0  0
   42.2106   12.7723    4.4700 C   0  0  0  0  0  0  0  0  0  0  0  0
   41.2482   13.1910    5.3523 N   0  0  0  0  0  0  0  0  0  0  0  0
  2  1  1  1  0  0  0
  2  3  1  0  0  0  0
  2  5  1  0  0  0  0
  3  4  1  0  0  0  0
  3 16  1  0  0  0  0
  5  6  1  0  0  0  0
  6  7  1  0  0  0  0
  7  8  1  0  0  0  0
  9  8  1  6  0  0  0
  9 10  1  0  0  0  0
  9 11  1  0  0  0  0
 10 15  1  0  0  0  0
 11 12  1  1  0  0  0
 11 13  1  0  0  0  0
 13 14  1  1  0  0  0
 13 15  1  0  0  0  0
 15 26  1  6  0  0  0
 17 18  2  0  0  0  0
 17 22  1  0  0  0  0
 18 19  1  0  0  0  0
 19 20  2  0  0  0  0
 20 21  1  0  0  0  0
 20 26  1  0  0  0  0
 21 22  2  0  0  0  0
 21 24  1  0  0  0  0
 22 23  1  0  0  0  0
 24 25  2  0  0  0  0
 25 26  1  0  0  0  0
M  END
>  <CHROM.1>
112.34221401,-163.09855673,97.09133554,-147.19845727,148.38356512,69.12600149
3.44274515,38.45607745,14.50289461,6.52996716,2.43647095,0.47692205,0.07053968

>  <Name>
ligand

>  <RI>
0

>  <Rbt.Current_Directory>
/home/itssahil/PROJECTS/Mol_Feturizer/New_Systems/rnas/3NPQ

>  <Rbt.Executable>
rbdock ($Id: //depot/dev/client3/rdock/2013.1/src/exe/rbdock.cxx#4 $)

>  <Rbt.Library>
libRbt.so (2013.1, Build901 2013/11/27)

>  <Rbt.Parameter_File>
/export/apps/rDock/src/rDock_2013.1_src/data/scripts/dock_solv.prm

>  <Rbt.Receptor>
prm/pocket_docking_4.prm

>  <SCORE>
-27.4279

>  <SCORE.INTER>
-27.327

>  <SCORE.INTER.CONST>
1

>  <SCORE.INTER.POLAR>
0

>  <SCORE.INTER.ROT>
7

>  <SCORE.INTER.SOLV>
22.3425

>  <SCORE.INTER.VDW>
-33.9322

>  <SCORE.INTER.norm>
-1.05104

>  <SCORE.INTRA>
-0.100895

>  <SCORE.INTRA.DIHEDRAL>
3.47231

>  <SCORE.INTRA.DIHEDRAL.0>
6.97628

>  <SCORE.INTRA.POLAR>
0

>  <SCORE.INTRA.POLAR.0>
0

>  <SCORE.INTRA.REPUL>
0

>  <SCORE.INTRA.REPUL.0>
0

>  <SCORE.INTRA.SOLV>
-0.8333

>  <SCORE.INTRA.SOLV.lig_0>
-49.8243

>  <SCORE.INTRA.VDW>
-1.4204

>  <SCORE.INTRA.VDW.0>
-1.35881

>  <SCORE.INTRA.norm>
-0.00388059

>  <SCORE.RESTR>
0

>  <SCORE.RESTR.CAVITY>
0

>  <SCORE.RESTR.norm>
0

>  <SCORE.SYSTEM>
0

>  <SCORE.SYSTEM.CONST>
0

>  <SCORE.SYSTEM.DIHEDRAL>
0

>  <SCORE.SYSTEM.SOLV>
0

>  <SCORE.SYSTEM.norm>
0

>  <SCORE.heavy>
26

>  <SCORE.norm>
-1.05492

>  <RMSD>
2.064

$$$$
ligand
 OpenBabel11021811483D
libRbt.so/2013.1/901 2013/11/27
 26 28  0  0  0  0  0  0  0  0999 V2000
   35.5774   17.7077    9.3816 N   0  0  0  0  0  0  0  0  0  0  0  0
   34.7983   17.6930    8.1498 C   0  0  2  0  0  0  0  0  0  0  0  0
   33.5517   18.5610    8.2788 C   0  0  0  0  0  0  0  0  0  0  0  0
   32.4468   18.1365    7.9427 O   0  0  0  0  0  0  0  0  0  0  0  0
   34.4064   16.2671    7.7832 C   0  0  0  0  0  0  0  0  0  0  0  0
   35.5862   15.3634    7.4500 C   0  0  0  0  0  0  0  0  0  0  0  0
   36.5654   14.9333    8.9110 S   0  0  0  0  0  0  0  0  0  0  0  0
   37.7659   14.0789    7.8588 C   0  0  0  0  0  0  0  0  0  0  0  0
   38.9390   14.9679    7.4629 C   0  0  1  0  0  0  0  0  0  0  0  0
   40.1019   14.1808    7.2808 O   0  0  0  0  0  0  0  0  0  0  0  0
   38.6678   15.7039    6.1610 C   0  0  1  0  0  0  0  0  0  0  0  0
   38.6390   17.0927    6.3907 O   0  0  0  0  0  0  0  0  0  0  0  0
   39.8184   15.3537    5.2404 C   0  0  1  0  0  0  0  0  0  0  0  0
   40.4848   16.5255    4.8314 O   0  0  0  0  0  0  0  0  0  0  0  0
   40.7524   14.4798    6.0599 C   0  0  2  0  0  0  0  0  0  0  0  0
   33.6205   19.7076    8.7230 O   0  0  0  0  0  0  0  0  0  0  0  0
   39.3447    9.4988    5.1796 N   0  0  0  0  0  0  0  0  0  0  0  0
   38.7450   10.4170    6.0180 C   0  0  0  0  0  0  0  0  0  0  0  0
   39.2550   11.6957    6.1267 N   0  0  0  0  0  0  0  0  0  0  0  0
   40.3484   12.0589    5.4130 C   0  0  0  0  0  0  0  0  0  0  0  0
   40.9658   11.1496    4.5651 C   0  0  0  0  0  0  0  0  0  0  0  0
   40.4584    9.8610    4.4492 C   0  0  0  0  0  0  0  0  0  0  0  0
   41.0421    8.9813    3.6408 N   0  0  0  0  0  0  0  0  0  0  0  0
   42.0171   11.7687    3.9858 N   0  0  0  0  0  0  0  0  0  0  0  0
   42.0799   13.0401    4.4439 C   0  0  0  0  0  0  0  0  0  0  0  0
   41.0516   13.2349    5.3297 N   0  0  0  0  0  0  0  0  0  0  0  0
  2  1  1  1  0  0  0
  2  3  1  0  0  0  0
  2  5  1  0  0  0  0
  3  4  1  0  0  0  0
  3 16  1  0  0  0  0
  5  6  1  0  0  0  0
  6  7  1  0  0  0  0
  7  8  1  0  0  0  0
  9  8  1  6  0  0  0
  9 10  1  0  0  0  0
  9 11  1  0  0  0  0
 10 15  1  0  0  0  0
 11 12  1  1  0  0  0
 11 13  1  0  0  0  0
 13 14  1  1  0  0  0
 13 15  1  0  0  0  0
 15 26  1  6  0  0  0
 17 18  2  0  0  0  0
 17 22  1  0  0  0  0
 18 19  1  0  0  0  0
 19 20  2  0  0  0  0
 20 21  1  0  0  0  0
 20 26  1  0  0  0  0
 21 22  2  0  0  0  0
 21 24  1  0  0  0  0
 22 23  1  0  0  0  0
 24 25  2  0  0  0  0
 25 26  1  0  0  0  0
M  END
>  <CHROM.1>
-131.40976944,-64.61751095,71.48542587,-174.98705449,94.19559736,149.85010194
27.94624158,38.19147165,14.46963614,6.58734913,-2.37809946,-0.44955655,-3.06218231

>  <Name>
ligand

>  <RI>
0

>  <Rbt.Current_Directory>
/home/itssahil/PROJECTS/Mol_Feturizer/New_Systems/rnas/3NPQ

>  <Rbt.Executable>
rbdock ($Id: //depot/dev/client3/rdock/2013.1/src/exe/rbdock.cxx#4 $)

>  <Rbt.Library>
libRbt.so (2013.1, Build901 2013/11/27)

>  <Rbt.Parameter_File>
/export/apps/rDock/src/rDock_2013.1_src/data/scripts/dock_solv.prm

>  <Rbt.Receptor>
prm/pocket_docking_3.prm

>  <SCORE>
-31.0613

>  <SCORE.INTER>
-31.0384

>  <SCORE.INTER.CONST>
1

>  <SCORE.INTER.POLAR>
0

>  <SCORE.INTER.ROT>
7

>  <SCORE.INTER.SOLV>
16.5428

>  <SCORE.INTER.VDW>
-34.4732

>  <SCORE.INTER.norm>
-1.19379

>  <SCORE.INTRA>
-0.022814

>  <SCORE.INTRA.DIHEDRAL>
0.425104

>  <SCORE.INTRA.DIHEDRAL.0>
6.97628

>  <SCORE.INTRA.POLAR>
0

>  <SCORE.INTRA.POLAR.0>
0

>  <SCORE.INTRA.REPUL>
0

>  <SCORE.INTRA.REPUL.0>
0

>  <SCORE.INTRA.SOLV>
1.39975

>  <SCORE.INTRA.SOLV.lig_0>
-49.8243

>  <SCORE.INTRA.VDW>
-0.935241

>  <SCORE.INTRA.VDW.0>
-1.35881

>  <SCORE.INTRA.norm>
-0.000877462

>  <SCORE.RESTR>
0

>  <SCORE.RESTR.CAVITY>
0

>  <SCORE.RESTR.norm>
0

>  <SCORE.SYSTEM>
0

>  <SCORE.SYSTEM.CONST>
0

>  <SCORE.SYSTEM.DIHEDRAL>
0

>  <SCORE.SYSTEM.SOLV>
0

>  <SCORE.SYSTEM.norm>
0

>  <SCORE.heavy>
26

>  <SCORE.norm>
-1.19466

>  <RMSD>
2.072

$$$$
ligand
 OpenBabel11021811483D
libRbt.so/2013.1/901 2013/11/27
 26 28  0  0  0  0  0  0  0  0999 V2000
   35.4637   17.6574    9.4382 N   0  0  0  0  0  0  0  0  0  0  0  0
   34.7808   17.6721    8.1506 C   0  0  2  0  0  0  0  0  0  0  0  0
   33.5551   18.5777    8.1899 C   0  0  0  0  0  0  0  0  0  0  0  0
   32.4242   18.1202    8.0303 O   0  0  0  0  0  0  0  0  0  0  0  0
   34.3746   16.2606    7.7458 C   0  0  0  0  0  0  0  0  0  0  0  0
   35.5475   15.3412    7.4317 C   0  0  0  0  0  0  0  0  0  0  0  0
   36.5421   14.9597    8.8959 S   0  0  0  0  0  0  0  0  0  0  0  0
   37.7461   14.0947    7.8565 C   0  0  0  0  0  0  0  0  0  0  0  0
   38.8990   14.9914    7.4207 C   0  0  1  0  0  0  0  0  0  0  0  0
   40.0728   14.2188    7.2463 O   0  0  0  0  0  0  0  0  0  0  0  0
   38.5993   15.6852    6.1019 C   0  0  1  0  0  0  0  0  0  0  0  0
   38.5498   17.0793    6.2924 O   0  0  0  0  0  0  0  0  0  0  0  0
   39.7444   15.3280    5.1771 C   0  0  1  0  0  0  0  0  0  0  0  0
   40.3857   16.4985    4.7265 O   0  0  0  0  0  0  0  0  0  0  0  0
   40.7031   14.4936    6.0091 C   0  0  2  0  0  0  0  0  0  0  0  0
   33.6675   19.7889    8.3828 O   0  0  0  0  0  0  0  0  0  0  0  0
   39.3210    9.4891    5.2265 N   0  0  0  0  0  0  0  0  0  0  0  0
   38.7090   10.4241    6.0369 C   0  0  0  0  0  0  0  0  0  0  0  0
   39.2137   11.7066    6.1223 N   0  0  0  0  0  0  0  0  0  0  0  0
   40.3141   12.0573    5.4130 C   0  0  0  0  0  0  0  0  0  0  0  0
   40.9439   11.1310    4.5929 C   0  0  0  0  0  0  0  0  0  0  0  0
   40.4418    9.8385    4.5007 C   0  0  0  0  0  0  0  0  0  0  0  0
   41.0374    8.9426    3.7191 N   0  0  0  0  0  0  0  0  0  0  0  0
   41.9998   11.7404    4.0117 N   0  0  0  0  0  0  0  0  0  0  0  0
   42.0534   13.0221    4.4414 C   0  0  0  0  0  0  0  0  0  0  0  0
   41.0145   13.2334    5.3109 N   0  0  0  0  0  0  0  0  0  0  0  0
  2  1  1  1  0  0  0
  2  3  1  0  0  0  0
  2  5  1  0  0  0  0
  3  4  1  0  0  0  0
  3 16  1  0  0  0  0
  5  6  1  0  0  0  0
  6  7  1  0  0  0  0
  7  8  1  0  0  0  0
  9  8  1  6  0  0  0
  9 10  1  0  0  0  0
  9 11  1  0  0  0  0
 10 15  1  0  0  0  0
 11 12  1  1  0  0  0
 11 13  1  0  0  0  0
 13 14  1  1  0  0  0
 13 15  1  0  0  0  0
 15 26  1  6  0  0  0
 17 18  2  0  0  0  0
 17 22  1  0  0  0  0
 18 19  1  0  0  0  0
 19 20  2  0  0  0  0
 20 21  1  0  0  0  0
 20 26  1  0  0  0  0
 21 22  2  0  0  0  0
 21 24  1  0  0  0  0
 22 23  1  0  0  0  0
 24 25  2  0  0  0  0
 25 26  1  0  0  0  0
M  END
>  <CHROM.1>
-116.44590423,-67.44692472,67.48223276,-173.84557181,93.70753656,149.99379601
29.55311624,38.15614986,14.46752287,6.56264544,2.38898447,0.46867157,0.04490493

>  <Name>
ligand

>  <RI>
0

>  <Rbt.Current_Directory>
/home/itssahil/PROJECTS/Mol_Feturizer/New_Systems/rnas/3NPQ

>  <Rbt.Executable>
rbdock ($Id: //depot/dev/client3/rdock/2013.1/src/exe/rbdock.cxx#4 $)

>  <Rbt.Library>
libRbt.so (2013.1, Build901 2013/11/27)

>  <Rbt.Parameter_File>
/export/apps/rDock/src/rDock_2013.1_src/data/scripts/dock_solv.prm

>  <Rbt.Receptor>
prm/pocket_docking_4.prm

>  <SCORE>
-31.0057

>  <SCORE.INTER>
-30.9199

>  <SCORE.INTER.CONST>
1

>  <SCORE.INTER.POLAR>
0

>  <SCORE.INTER.ROT>
7

>  <SCORE.INTER.SOLV>
16.8104

>  <SCORE.INTER.VDW>
-34.4834

>  <SCORE.INTER.norm>
-1.18923

>  <SCORE.INTRA>
-0.0857852

>  <SCORE.INTRA.DIHEDRAL>
0.257974

>  <SCORE.INTRA.DIHEDRAL.0>
6.97628

>  <SCORE.INTRA.POLAR>
0

>  <SCORE.INTRA.POLAR.0>
0

>  <SCORE.INTRA.REPUL>
0

>  <SCORE.INTRA.REPUL.0>
0

>  <SCORE.INTRA.SOLV>
1.39867

>  <SCORE.INTRA.SOLV.lig_0>
-49.8243

>  <SCORE.INTRA.VDW>
-0.914107

>  <SCORE.INTRA.VDW.0>
-1.35881

>  <SCORE.INTRA.norm>
-0.00329943

>  <SCORE.RESTR>
0

>  <SCORE.RESTR.CAVITY>
0

>  <SCORE.RESTR.norm>
0

>  <SCORE.SYSTEM>
0

>  <SCORE.SYSTEM.CONST>
0

>  <SCORE.SYSTEM.DIHEDRAL>
0

>  <SCORE.SYSTEM.SOLV>
0

>  <SCORE.SYSTEM.norm>
0

>  <SCORE.heavy>
26

>  <SCORE.norm>
-1.19253

>  <RMSD>
2.076

$$$$
ligand
 OpenBabel11021811483D
libRbt.so/2013.1/901 2013/11/27
 26 28  0  0  0  0  0  0  0  0999 V2000
   35.5568   17.7039    9.3392 N   0  0  0  0  0  0  0  0  0  0  0  0
   34.7591   17.6689    8.1198 C   0  0  2  0  0  0  0  0  0  0  0  0
   33.5112   18.5340    8.2554 C   0  0  0  0  0  0  0  0  0  0  0  0
   32.3994   18.0912    7.9693 O   0  0  0  0  0  0  0  0  0  0  0  0
   34.3672   16.2365    7.7793 C   0  0  0  0  0  0  0  0  0  0  0  0
   35.5445   15.3349    7.4316 C   0  0  0  0  0  0  0  0  0  0  0  0
   36.5738   14.9511    8.8709 S   0  0  0  0  0  0  0  0  0  0  0  0
   37.7524   14.0875    7.8017 C   0  0  0  0  0  0  0  0  0  0  0  0
   38.9613   14.9448    7.4454 C   0  0  1  0  0  0  0  0  0  0  0  0
   40.1053   14.1253    7.2877 O   0  0  0  0  0  0  0  0  0  0  0  0
   38.7470   15.6988    6.1432 C   0  0  1  0  0  0  0  0  0  0  0  0
   38.7525   17.0860    6.3843 O   0  0  0  0  0  0  0  0  0  0  0  0
   39.9115   15.3224    5.2508 C   0  0  1  0  0  0  0  0  0  0  0  0
   40.6226   16.4773    4.8702 O   0  0  0  0  0  0  0  0  0  0  0  0
   40.7970   14.4149    6.0873 C   0  0  2  0  0  0  0  0  0  0  0  0
   33.5858   19.6965    8.6551 O   0  0  0  0  0  0  0  0  0  0  0  0
   39.3072    9.4633    5.1765 N   0  0  0  0  0  0  0  0  0  0  0  0
   38.7177   10.3889    6.0139 C   0  0  0  0  0  0  0  0  0  0  0  0
   39.2496   11.6578    6.1316 N   0  0  0  0  0  0  0  0  0  0  0  0
   40.3548   12.0042    5.4278 C   0  0  0  0  0  0  0  0  0  0  0  0
   40.9624   11.0871    4.5809 C   0  0  0  0  0  0  0  0  0  0  0  0
   40.4328    9.8084    4.4561 C   0  0  0  0  0  0  0  0  0  0  0  0
   41.0069    8.9215    3.6486 N   0  0  0  0  0  0  0  0  0  0  0  0
   42.0290   11.6895    4.0122 N   0  0  0  0  0  0  0  0  0  0  0  0
   42.1110   12.9578    4.4759 C   0  0  0  0  0  0  0  0  0  0  0  0
   41.0796   13.1676    5.3545 N   0  0  0  0  0  0  0  0  0  0  0  0
  2  1  1  1  0  0  0
  2  3  1  0  0  0  0
  2  5  1  0  0  0  0
  3  4  1  0  0  0  0
  3 16  1  0  0  0  0
  5  6  1  0  0  0  0
  6  7  1  0  0  0  0
  7  8  1  0  0  0  0
  9  8  1  6  0  0  0
  9 10  1  0  0  0  0
  9 11  1  0  0  0  0
 10 15  1  0  0  0  0
 11 12  1  1  0  0  0
 11 13  1  0  0  0  0
 13 14  1  1  0  0  0
 13 15  1  0  0  0  0
 15 26  1  6  0  0  0
 17 18  2  0  0  0  0
 17 22  1  0  0  0  0
 18 19  1  0  0  0  0
 19 20  2  0  0  0  0
 20 21  1  0  0  0  0
 20 26  1  0  0  0  0
 21 22  2  0  0  0  0
 21 24  1  0  0  0  0
 22 23  1  0  0  0  0
 24 25  2  0  0  0  0
 25 26  1  0  0  0  0
M  END
>  <CHROM.1>
-129.84257147,-65.02338530,70.51174441,-174.73585731,99.05130754,148.07786840
26.63633567,38.19887672,14.43658739,6.58195090,-2.37009456,-0.42469821,-3.04229068

>  <Name>
ligand

>  <RI>
0

>  <Rbt.Current_Directory>
/home/itssahil/PROJECTS/Mol_Feturizer/New_Systems/rnas/3NPQ

>  <Rbt.Executable>
rbdock ($Id: //depot/dev/client3/rdock/2013.1/src/exe/rbdock.cxx#4 $)

>  <Rbt.Library>
libRbt.so (2013.1, Build901 2013/11/27)

>  <Rbt.Parameter_File>
/export/apps/rDock/src/rDock_2013.1_src/data/scripts/dock_solv.prm

>  <Rbt.Receptor>
prm/pocket_docking_2.prm

>  <SCORE>
-30.9436

>  <SCORE.INTER>
-31.1571

>  <SCORE.INTER.CONST>
1

>  <SCORE.INTER.POLAR>
0

>  <SCORE.INTER.ROT>
7

>  <SCORE.INTER.SOLV>
16.698

>  <SCORE.INTER.VDW>
-34.6041

>  <SCORE.INTER.norm>
-1.19835

>  <SCORE.INTRA>
0.211815

>  <SCORE.INTRA.DIHEDRAL>
0.899334

>  <SCORE.INTRA.DIHEDRAL.0>
6.97628

>  <SCORE.INTRA.POLAR>
0

>  <SCORE.INTRA.POLAR.0>
0

>  <SCORE.INTRA.REPUL>
0

>  <SCORE.INTRA.REPUL.0>
0

>  <SCORE.INTRA.SOLV>
1.35087

>  <SCORE.INTRA.SOLV.lig_0>
-49.8243

>  <SCORE.INTRA.VDW>
-0.913287

>  <SCORE.INTRA.VDW.0>
-1.35881

>  <SCORE.INTRA.norm>
0.00814672

>  <SCORE.RESTR>
0.0016772

>  <SCORE.RESTR.CAVITY>
0.0016772

>  <SCORE.RESTR.norm>
6.45077e-05

>  <SCORE.SYSTEM>
0

>  <SCORE.SYSTEM.CONST>
0

>  <SCORE.SYSTEM.DIHEDRAL>
0

>  <SCORE.SYSTEM.SOLV>
0

>  <SCORE.SYSTEM.norm>
0

>  <SCORE.heavy>
26

>  <SCORE.norm>
-1.19014

>  <RMSD>
2.077

$$$$
ligand
 OpenBabel11021811483D
libRbt.so/2013.1/901 2013/11/27
 26 28  0  0  0  0  0  0  0  0999 V2000
   35.4419   16.8814    9.9940 N   0  0  0  0  0  0  0  0  0  0  0  0
   34.8827   17.2393    8.6964 C   0  0  2  0  0  0  0  0  0  0  0  0
   33.6425   18.1116    8.8553 C   0  0  0  0  0  0  0  0  0  0  0  0
   32.7236   18.0607    8.0387 O   0  0  0  0  0  0  0  0  0  0  0  0
   34.5419   15.9871    7.8983 C   0  0  0  0  0  0  0  0  0  0  0  0
   35.7529   15.2754    7.3096 C   0  0  0  0  0  0  0  0  0  0  0  0
   36.9700   14.8182    8.5698 S   0  0  0  0  0  0  0  0  0  0  0  0
   37.9880   14.0215    7.3021 C   0  0  0  0  0  0  0  0  0  0  0  0
   39.2259   14.8355    6.9440 C   0  0  1  0  0  0  0  0  0  0  0  0
   40.3519   13.9831    6.8417 O   0  0  0  0  0  0  0  0  0  0  0  0
   39.0599   15.5478    5.6116 C   0  0  1  0  0  0  0  0  0  0  0  0
   39.0952   16.9421    5.8039 O   0  0  0  0  0  0  0  0  0  0  0  0
   40.2340   15.1113    4.7602 C   0  0  1  0  0  0  0  0  0  0  0  0
   40.9825   16.2340    4.3559 O   0  0  0  0  0  0  0  0  0  0  0  0
   41.0774   14.2127    5.6483 C   0  0  2  0  0  0  0  0  0  0  0  0
   33.5305   18.8877    9.8050 O   0  0  0  0  0  0  0  0  0  0  0  0
   39.5596    9.2310    4.9804 N   0  0  0  0  0  0  0  0  0  0  0  0
   38.9864   10.1944    5.7859 C   0  0  0  0  0  0  0  0  0  0  0  0
   39.5235   11.4654    5.8390 N   0  0  0  0  0  0  0  0  0  0  0  0
   40.6179   11.7768    5.1026 C   0  0  0  0  0  0  0  0  0  0  0  0
   41.2089   10.8215    4.2870 C   0  0  0  0  0  0  0  0  0  0  0  0
   40.6740    9.5402    4.2272 C   0  0  0  0  0  0  0  0  0  0  0  0
   41.2323    8.6168    3.4501 N   0  0  0  0  0  0  0  0  0  0  0  0
   42.2676   11.3947    3.6749 N   0  0  0  0  0  0  0  0  0  0  0  0
   42.3607   12.6819    4.0810 C   0  0  0  0  0  0  0  0  0  0  0  0
   41.3445   12.9335    4.9664 N   0  0  0  0  0  0  0  0  0  0  0  0
  2  1  1  1  0  0  0
  2  3  1  0  0  0  0
  2  5  1  0  0  0  0
  3  4  1  0  0  0  0
  3 16  1  0  0  0  0
  5  6  1  0  0  0  0
  6  7  1  0  0  0  0
  7  8  1  0  0  0  0
  9  8  1  6  0  0  0
  9 10  1  0  0  0  0
  9 11  1  0  0  0  0
 10 15  1  0  0  0  0
 11 12  1  1  0  0  0
 11 13  1  0  0  0  0
 13 14  1  1  0  0  0
 13 15  1  0  0  0  0
 15 26  1  6  0  0  0
 17 18  2  0  0  0  0
 17 22  1  0  0  0  0
 18 19  1  0  0  0  0
 19 20  2  0  0  0  0
 20 21  1  0  0  0  0
 20 26  1  0  0  0  0
 21 22  2  0  0  0  0
 21 24  1  0  0  0  0
 22 23  1  0  0  0  0
 24 25  2  0  0  0  0
 25 26  1  0  0  0  0
M  END
>  <CHROM.1>
-148.49239820,-75.16505506,56.59108913,177.46726625,105.52336594,136.68230724
24.01369289,38.44036223,14.18403804,6.41951916,2.42865242,0.52500197,0.07581856

>  <Name>
ligand

>  <RI>
0

>  <Rbt.Current_Directory>
/home/itssahil/PROJECTS/Mol_Feturizer/New_Systems/rnas/3NPQ

>  <Rbt.Executable>
rbdock ($Id: //depot/dev/client3/rdock/2013.1/src/exe/rbdock.cxx#4 $)

>  <Rbt.Library>
libRbt.so (2013.1, Build901 2013/11/27)

>  <Rbt.Parameter_File>
/export/apps/rDock/src/rDock_2013.1_src/data/scripts/dock_solv.prm

>  <Rbt.Receptor>
prm/pocket_docking_5.prm

>  <SCORE>
-30.133

>  <SCORE.INTER>
-31.4174

>  <SCORE.INTER.CONST>
1

>  <SCORE.INTER.POLAR>
0

>  <SCORE.INTER.ROT>
7

>  <SCORE.INTER.SOLV>
18.2662

>  <SCORE.INTER.VDW>
-35.3003

>  <SCORE.INTER.norm>
-1.20836

>  <SCORE.INTRA>
1.28445

>  <SCORE.INTRA.DIHEDRAL>
3.03958

>  <SCORE.INTRA.DIHEDRAL.0>
6.97628

>  <SCORE.INTRA.POLAR>
0

>  <SCORE.INTRA.POLAR.0>
0

>  <SCORE.INTRA.REPUL>
0

>  <SCORE.INTRA.REPUL.0>
0

>  <SCORE.INTRA.SOLV>
1.12558

>  <SCORE.INTRA.SOLV.lig_0>
-49.8243

>  <SCORE.INTRA.VDW>
-0.798129

>  <SCORE.INTRA.VDW.0>
-1.35881

>  <SCORE.INTRA.norm>
0.0494019

>  <SCORE.RESTR>
0

>  <SCORE.RESTR.CAVITY>
0

>  <SCORE.RESTR.norm>
0

>  <SCORE.SYSTEM>
0

>  <SCORE.SYSTEM.CONST>
0

>  <SCORE.SYSTEM.DIHEDRAL>
0

>  <SCORE.SYSTEM.SOLV>
0

>  <SCORE.SYSTEM.norm>
0

>  <SCORE.heavy>
26

>  <SCORE.norm>
-1.15896

>  <RMSD>
2.077

$$$$
ligand
 OpenBabel11021811483D
libRbt.so/2013.1/901 2013/11/27
 26 28  0  0  0  0  0  0  0  0999 V2000
   35.6056   17.7014    9.3519 N   0  0  0  0  0  0  0  0  0  0  0  0
   34.7787   17.6904    8.1516 C   0  0  2  0  0  0  0  0  0  0  0  0
   33.5321   18.5482    8.3364 C   0  0  0  0  0  0  0  0  0  0  0  0
   33.6032   19.6687    8.8396 O   0  0  0  0  0  0  0  0  0  0  0  0
   34.3828   16.2646    7.7892 C   0  0  0  0  0  0  0  0  0  0  0  0
   35.5604   15.3551    7.4640 C   0  0  0  0  0  0  0  0  0  0  0  0
   36.5444   14.9435    8.9271 S   0  0  0  0  0  0  0  0  0  0  0  0
   37.7538   14.0964    7.8792 C   0  0  0  0  0  0  0  0  0  0  0  0
   38.9113   14.9991    7.4686 C   0  0  1  0  0  0  0  0  0  0  0  0
   40.0868   14.2291    7.2955 O   0  0  0  0  0  0  0  0  0  0  0  0
   38.6255   15.7119    6.1568 C   0  0  1  0  0  0  0  0  0  0  0  0
   38.5739   17.1031    6.3668 O   0  0  0  0  0  0  0  0  0  0  0  0
   39.7803   15.3679    5.2391 C   0  0  1  0  0  0  0  0  0  0  0  0
   40.4263   16.5447    4.8122 O   0  0  0  0  0  0  0  0  0  0  0  0
   40.7302   14.5215    6.0691 C   0  0  2  0  0  0  0  0  0  0  0  0
   32.4240   18.1403    7.9861 O   0  0  0  0  0  0  0  0  0  0  0  0
   39.3643    9.5252    5.2100 N   0  0  0  0  0  0  0  0  0  0  0  0
   38.7448   10.4479    6.0288 C   0  0  0  0  0  0  0  0  0  0  0  0
   39.2461   11.7302    6.1348 N   0  0  0  0  0  0  0  0  0  0  0  0
   40.3505   12.0927    5.4377 C   0  0  0  0  0  0  0  0  0  0  0  0
   40.9878   11.1788    4.6096 C   0  0  0  0  0  0  0  0  0  0  0  0
   40.4892    9.8866    4.4966 C   0  0  0  0  0  0  0  0  0  0  0  0
   41.0920    9.0026    3.7071 N   0  0  0  0  0  0  0  0  0  0  0  0
   42.0462   11.7981    4.0437 N   0  0  0  0  0  0  0  0  0  0  0  0
   42.0942   13.0740    4.4910 C   0  0  0  0  0  0  0  0  0  0  0  0
   41.0490   13.2715    5.3561 N   0  0  0  0  0  0  0  0  0  0  0  0
  2  1  1  1  0  0  0
  2  3  1  0  0  0  0
  2  5  1  0  0  0  0
  3  4  1  0  0  0  0
  3 16  1  0  0  0  0
  5  6  1  0  0  0  0
  6  7  1  0  0  0  0
  7  8  1  0  0  0  0
  9  8  1  6  0  0  0
  9 10  1  0  0  0  0
  9 11  1  0  0  0  0
 10 15  1  0  0  0  0
 11 12  1  1  0  0  0
 11 13  1  0  0  0  0
 13 14  1  1  0  0  0
 13 15  1  0  0  0  0
 15 26  1  6  0  0  0
 17 18  2  0  0  0  0
 17 22  1  0  0  0  0
 18 19  1  0  0  0  0
 19 20  2  0  0  0  0
 20 21  1  0  0  0  0
 20 26  1  0  0  0  0
 21 22  2  0  0  0  0
 21 24  1  0  0  0  0
 22 23  1  0  0  0  0
 24 25  2  0  0  0  0
 25 26  1  0  0  0  0
M  END
>  <CHROM.1>
45.40589598,-61.98864788,70.78602854,-174.14344408,93.71034954,149.61619667
29.29531492,38.18044404,14.48556966,6.60961094,-2.38696584,-0.45481942,-3.07069539

>  <Name>
ligand

>  <RI>
0

>  <Rbt.Current_Directory>
/home/itssahil/PROJECTS/Mol_Feturizer/New_Systems/rnas/3NPQ

>  <Rbt.Executable>
rbdock ($Id: //depot/dev/client3/rdock/2013.1/src/exe/rbdock.cxx#4 $)

>  <Rbt.Library>
libRbt.so (2013.1, Build901 2013/11/27)

>  <Rbt.Parameter_File>
/export/apps/rDock/src/rDock_2013.1_src/data/scripts/dock_solv.prm

>  <Rbt.Receptor>
prm/pocket_docking_7.prm

>  <SCORE>
-31.0378

>  <SCORE.INTER>
-31.0698

>  <SCORE.INTER.CONST>
1

>  <SCORE.INTER.POLAR>
0

>  <SCORE.INTER.ROT>
7

>  <SCORE.INTER.SOLV>
16.4453

>  <SCORE.INTER.VDW>
-34.4617

>  <SCORE.INTER.norm>
-1.19499

>  <SCORE.INTRA>
0.032058

>  <SCORE.INTRA.DIHEDRAL>
0.312617

>  <SCORE.INTRA.DIHEDRAL.0>
6.97628

>  <SCORE.INTRA.POLAR>
0

>  <SCORE.INTRA.POLAR.0>
0

>  <SCORE.INTRA.REPUL>
0

>  <SCORE.INTRA.REPUL.0>
0

>  <SCORE.INTRA.SOLV>
1.5435

>  <SCORE.INTRA.SOLV.lig_0>
-49.8243

>  <SCORE.INTRA.VDW>
-0.896

>  <SCORE.INTRA.VDW.0>
-1.35881

>  <SCORE.INTRA.norm>
0.001233

>  <SCORE.RESTR>
0

>  <SCORE.RESTR.CAVITY>
0

>  <SCORE.RESTR.norm>
0

>  <SCORE.SYSTEM>
0

>  <SCORE.SYSTEM.CONST>
0

>  <SCORE.SYSTEM.DIHEDRAL>
0

>  <SCORE.SYSTEM.SOLV>
0

>  <SCORE.SYSTEM.norm>
0

>  <SCORE.heavy>
26

>  <SCORE.norm>
-1.19376

>  <RMSD>
2.077

$$$$
ligand
 OpenBabel11021811483D
libRbt.so/2013.1/901 2013/11/27
 26 28  0  0  0  0  0  0  0  0999 V2000
   34.9991   17.9131    7.3037 N   0  0  0  0  0  0  0  0  0  0  0  0
   34.3601   17.4590    8.5325 C   0  0  2  0  0  0  0  0  0  0  0  0
   34.1679   18.6130    9.5098 C   0  0  0  0  0  0  0  0  0  0  0  0
   34.4096   19.7724    9.1762 O   0  0  0  0  0  0  0  0  0  0  0  0
   35.1814   16.3537    9.1842 C   0  0  0  0  0  0  0  0  0  0  0  0
   35.4440   15.1571    8.2792 C   0  0  0  0  0  0  0  0  0  0  0  0
   37.1123   14.4841    8.4847 S   0  0  0  0  0  0  0  0  0  0  0  0
   37.7233   15.5961    7.1931 C   0  0  0  0  0  0  0  0  0  0  0  0
   39.2079   15.9091    7.3400 C   0  0  1  0  0  0  0  0  0  0  0  0
   39.9494   14.7058    7.4239 O   0  0  0  0  0  0  0  0  0  0  0  0
   39.7331   16.6964    6.1506 C   0  0  1  0  0  0  0  0  0  0  0  0
   40.1714   17.9668    6.5705 O   0  0  0  0  0  0  0  0  0  0  0  0
   40.9002   15.8975    5.6087 C   0  0  1  0  0  0  0  0  0  0  0  0
   42.0710   16.6807    5.6233 O   0  0  0  0  0  0  0  0  0  0  0  0
   41.0551   14.7078    6.5404 C   0  0  2  0  0  0  0  0  0  0  0  0
   33.7657   18.4127   10.6565 O   0  0  0  0  0  0  0  0  0  0  0  0
   38.8130   10.0285    5.7378 N   0  0  0  0  0  0  0  0  0  0  0  0
   38.4521   10.9997    6.6499 C   0  0  0  0  0  0  0  0  0  0  0  0
   39.1615   12.1821    6.7235 N   0  0  0  0  0  0  0  0  0  0  0  0
   40.2181   12.3981    5.9025 C   0  0  0  0  0  0  0  0  0  0  0  0
   40.5968   11.4332    4.9790 C   0  0  0  0  0  0  0  0  0  0  0  0
   39.8875   10.2409    4.8980 C   0  0  0  0  0  0  0  0  0  0  0  0
   40.2418    9.3092    4.0179 N   0  0  0  0  0  0  0  0  0  0  0  0
   41.6652   11.9040    4.3002 N   0  0  0  0  0  0  0  0  0  0  0  0
   41.9704   13.1359    4.7689 C   0  0  0  0  0  0  0  0  0  0  0  0
   41.0817   13.4559    5.7628 N   0  0  0  0  0  0  0  0  0  0  0  0
  2  1  1  6  0  0  0
  2  3  1  0  0  0  0
  2  5  1  0  0  0  0
  3  4  1  0  0  0  0
  3 16  1  0  0  0  0
  5  6  1  0  0  0  0
  6  7  1  0  0  0  0
  7  8  1  0  0  0  0
  9  8  1  6  0  0  0
  9 10  1  0  0  0  0
  9 11  1  0  0  0  0
 10 15  1  0  0  0  0
 11 12  1  1  0  0  0
 11 13  1  0  0  0  0
 13 14  1  1  0  0  0
 13 15  1  0  0  0  0
 15 26  1  6  0  0  0
 17 18  2  0  0  0  0
 17 22  1  0  0  0  0
 18 19  1  0  0  0  0
 19 20  2  0  0  0  0
 20 21  1  0  0  0  0
 20 26  1  0  0  0  0
 21 22  2  0  0  0  0
 21 24  1  0  0  0  0
 22 23  1  0  0  0  0
 24 25  2  0  0  0  0
 25 26  1  0  0  0  0
M  END
>  <CHROM.1>
7.23840422,-56.25287346,141.34457060,-89.93151994,154.31505479,53.21591599
-3.20122294,38.44146656,14.77657623,6.95082520,2.33237880,0.44661045,0.17405236

>  <Name>
ligand

>  <RI>
0

>  <Rbt.Current_Directory>
/home/itssahil/PROJECTS/Mol_Feturizer/New_Systems/rnas/3NPQ

>  <Rbt.Executable>
rbdock ($Id: //depot/dev/client3/rdock/2013.1/src/exe/rbdock.cxx#4 $)

>  <Rbt.Library>
libRbt.so (2013.1, Build901 2013/11/27)

>  <Rbt.Parameter_File>
/export/apps/rDock/src/rDock_2013.1_src/data/scripts/dock_solv.prm

>  <Rbt.Receptor>
prm/pocket_docking_5.prm

>  <SCORE>
-26.0509

>  <SCORE.INTER>
-26.5655

>  <SCORE.INTER.CONST>
1

>  <SCORE.INTER.POLAR>
0

>  <SCORE.INTER.ROT>
7

>  <SCORE.INTER.SOLV>
18.4009

>  <SCORE.INTER.VDW>
-32.1106

>  <SCORE.INTER.norm>
-1.02175

>  <SCORE.INTRA>
0.514653

>  <SCORE.INTRA.DIHEDRAL>
2.00057

>  <SCORE.INTRA.DIHEDRAL.0>
6.97628

>  <SCORE.INTRA.POLAR>
0

>  <SCORE.INTRA.POLAR.0>
0

>  <SCORE.INTRA.REPUL>
0

>  <SCORE.INTRA.REPUL.0>
0

>  <SCORE.INTRA.SOLV>
0.992791

>  <SCORE.INTRA.SOLV.lig_0>
-49.8243

>  <SCORE.INTRA.VDW>
-0.982028

>  <SCORE.INTRA.VDW.0>
-1.35881

>  <SCORE.INTRA.norm>
0.0197944

>  <SCORE.RESTR>
0

>  <SCORE.RESTR.CAVITY>
0

>  <SCORE.RESTR.norm>
0

>  <SCORE.SYSTEM>
0

>  <SCORE.SYSTEM.CONST>
0

>  <SCORE.SYSTEM.DIHEDRAL>
0

>  <SCORE.SYSTEM.SOLV>
0

>  <SCORE.SYSTEM.norm>
0

>  <SCORE.heavy>
26

>  <SCORE.norm>
-1.00196

>  <RMSD>
2.078

$$$$
ligand
 OpenBabel11021811483D
libRbt.so/2013.1/901 2013/11/27
 26 28  0  0  0  0  0  0  0  0999 V2000
   35.0727   16.7154   10.5469 N   0  0  0  0  0  0  0  0  0  0  0  0
   35.0218   17.4602    9.2950 C   0  0  2  0  0  0  0  0  0  0  0  0
   33.7660   18.3211    9.2195 C   0  0  0  0  0  0  0  0  0  0  0  0
   33.7618   19.4742    9.6488 O   0  0  0  0  0  0  0  0  0  0  0  0
   35.0756   16.5094    8.1058 C   0  0  0  0  0  0  0  0  0  0  0  0
   36.3854   15.7422    7.9810 C   0  0  0  0  0  0  0  0  0  0  0  0
   36.5190   14.8473    6.4126 S   0  0  0  0  0  0  0  0  0  0  0  0
   37.9853   13.9815    7.0279 C   0  0  0  0  0  0  0  0  0  0  0  0
   39.2742   14.7556    6.7770 C   0  0  1  0  0  0  0  0  0  0  0  0
   40.3753   13.8657    6.7522 O   0  0  0  0  0  0  0  0  0  0  0  0
   39.2369   15.4857    5.4444 C   0  0  1  0  0  0  0  0  0  0  0  0
   39.3042   16.8761    5.6557 O   0  0  0  0  0  0  0  0  0  0  0  0
   40.4585   15.0168    4.6816 C   0  0  1  0  0  0  0  0  0  0  0  0
   41.2738   16.1168    4.3503 O   0  0  0  0  0  0  0  0  0  0  0  0
   41.1991   14.0812    5.6216 C   0  0  2  0  0  0  0  0  0  0  0  0
   32.7256   17.8833    8.7267 O   0  0  0  0  0  0  0  0  0  0  0  0
   39.6537    9.1157    4.8988 N   0  0  0  0  0  0  0  0  0  0  0  0
   39.0645   10.0841    5.6866 C   0  0  0  0  0  0  0  0  0  0  0  0
   39.6124   11.3496    5.7586 N   0  0  0  0  0  0  0  0  0  0  0  0
   40.7331   11.6506    5.0583 C   0  0  0  0  0  0  0  0  0  0  0  0
   41.3405   10.6901    4.2610 C   0  0  0  0  0  0  0  0  0  0  0  0
   40.7949    9.4144    4.1823 C   0  0  0  0  0  0  0  0  0  0  0  0
   41.3687    8.4862    3.4226 N   0  0  0  0  0  0  0  0  0  0  0  0
   42.4241   11.2533    3.6842 N   0  0  0  0  0  0  0  0  0  0  0  0
   42.5169   12.5390    4.0947 C   0  0  0  0  0  0  0  0  0  0  0  0
   41.4752   12.8000    4.9471 N   0  0  0  0  0  0  0  0  0  0  0  0
  2  1  1  1  0  0  0
  2  3  1  0  0  0  0
  2  5  1  0  0  0  0
  3  4  1  0  0  0  0
  3 16  1  0  0  0  0
  5  6  1  0  0  0  0
  6  7  1  0  0  0  0
  7  8  1  0  0  0  0
  9  8  1  6  0  0  0
  9 10  1  0  0  0  0
  9 11  1  0  0  0  0
 10 15  1  0  0  0  0
 11 12  1  1  0  0  0
 11 13  1  0  0  0  0
 13 14  1  1  0  0  0
 13 15  1  0  0  0  0
 15 26  1  6  0  0  0
 17 18  2  0  0  0  0
 17 22  1  0  0  0  0
 18 19  1  0  0  0  0
 19 20  2  0  0  0  0
 20 21  1  0  0  0  0
 20 26  1  0  0  0  0
 21 22  2  0  0  0  0
 21 24  1  0  0  0  0
 22 23  1  0  0  0  0
 24 25  2  0  0  0  0
 25 26  1  0  0  0  0
M  END
>  <CHROM.1>
89.57831656,-65.07657993,-170.13939394,-169.73745749,-87.09788066,-156.07416072
21.00117831,38.53431282,14.17790548,6.29409234,2.39446018,0.50992653,0.10927412

>  <Name>
ligand

>  <RI>
0

>  <Rbt.Current_Directory>
/home/itssahil/PROJECTS/Mol_Feturizer/New_Systems/rnas/3NPQ

>  <Rbt.Executable>
rbdock ($Id: //depot/dev/client3/rdock/2013.1/src/exe/rbdock.cxx#4 $)

>  <Rbt.Library>
libRbt.so (2013.1, Build901 2013/11/27)

>  <Rbt.Parameter_File>
/export/apps/rDock/src/rDock_2013.1_src/data/scripts/dock_solv.prm

>  <Rbt.Receptor>
prm/pocket_docking_8.prm

>  <SCORE>
-28.3783

>  <SCORE.INTER>
-27.7753

>  <SCORE.INTER.CONST>
1

>  <SCORE.INTER.POLAR>
0

>  <SCORE.INTER.ROT>
7

>  <SCORE.INTER.SOLV>
20.2713

>  <SCORE.INTER.VDW>
-33.5407

>  <SCORE.INTER.norm>
-1.06828

>  <SCORE.INTRA>
-0.603029

>  <SCORE.INTRA.DIHEDRAL>
-0.83602

>  <SCORE.INTRA.DIHEDRAL.0>
6.97628

>  <SCORE.INTRA.POLAR>
0

>  <SCORE.INTRA.POLAR.0>
0

>  <SCORE.INTRA.REPUL>
0

>  <SCORE.INTRA.REPUL.0>
0

>  <SCORE.INTRA.SOLV>
0.0203605

>  <SCORE.INTRA.SOLV.lig_0>
-49.8243

>  <SCORE.INTRA.VDW>
-0.195199

>  <SCORE.INTRA.VDW.0>
-1.35881

>  <SCORE.INTRA.norm>
-0.0231934

>  <SCORE.RESTR>
0

>  <SCORE.RESTR.CAVITY>
0

>  <SCORE.RESTR.norm>
0

>  <SCORE.SYSTEM>
0

>  <SCORE.SYSTEM.CONST>
0

>  <SCORE.SYSTEM.DIHEDRAL>
0

>  <SCORE.SYSTEM.SOLV>
0

>  <SCORE.SYSTEM.norm>
0

>  <SCORE.heavy>
26

>  <SCORE.norm>
-1.09147

>  <RMSD>
2.083

$$$$
ligand
 OpenBabel11021811483D
libRbt.so/2013.1/901 2013/11/27
 26 28  0  0  0  0  0  0  0  0999 V2000
   35.1141   17.8594   10.3506 N   0  0  0  0  0  0  0  0  0  0  0  0
   34.8556   17.4210    8.9847 C   0  0  2  0  0  0  0  0  0  0  0  0
   33.6304   18.1202    8.4068 C   0  0  0  0  0  0  0  0  0  0  0  0
   32.5020   17.6568    8.5677 O   0  0  0  0  0  0  0  0  0  0  0  0
   34.6663   15.9101    8.9359 C   0  0  0  0  0  0  0  0  0  0  0  0
   35.9330   15.1346    8.5986 C   0  0  0  0  0  0  0  0  0  0  0  0
   36.3836   15.2679    6.8500 S   0  0  0  0  0  0  0  0  0  0  0  0
   37.8175   14.1996    7.1348 C   0  0  0  0  0  0  0  0  0  0  0  0
   39.1418   14.9193    6.9076 C   0  0  1  0  0  0  0  0  0  0  0  0
   40.2013   13.9807    6.8680 O   0  0  0  0  0  0  0  0  0  0  0  0
   39.1456   15.6799    5.5917 C   0  0  1  0  0  0  0  0  0  0  0  0
   39.2751   17.0607    5.8347 O   0  0  0  0  0  0  0  0  0  0  0  0
   40.3490   15.1728    4.8244 C   0  0  1  0  0  0  0  0  0  0  0  0
   41.2155   16.2414    4.5219 O   0  0  0  0  0  0  0  0  0  0  0  0
   41.0406   14.1835    5.7466 C   0  0  2  0  0  0  0  0  0  0  0  0
   33.7405   19.1659    7.7655 O   0  0  0  0  0  0  0  0  0  0  0  0
   39.3835    9.2504    5.0496 N   0  0  0  0  0  0  0  0  0  0  0  0
   38.8506   10.2181    5.8773 C   0  0  0  0  0  0  0  0  0  0  0  0
   39.4209   11.4744    5.9349 N   0  0  0  0  0  0  0  0  0  0  0  0
   40.5087   11.7670    5.1812 C   0  0  0  0  0  0  0  0  0  0  0  0
   41.0595   10.8070    4.3431 C   0  0  0  0  0  0  0  0  0  0  0  0
   40.4909    9.5406    4.2786 C   0  0  0  0  0  0  0  0  0  0  0  0
   41.0105    8.6129    3.4801 N   0  0  0  0  0  0  0  0  0  0  0  0
   42.1206   11.3607    3.7175 N   0  0  0  0  0  0  0  0  0  0  0  0
   42.2543   12.6400    4.1368 C   0  0  0  0  0  0  0  0  0  0  0  0
   41.2619   12.9064    5.0446 N   0  0  0  0  0  0  0  0  0  0  0  0
  2  1  1  1  0  0  0
  2  3  1  0  0  0  0
  2  5  1  0  0  0  0
  3  4  1  0  0  0  0
  3 16  1  0  0  0  0
  5  6  1  0  0  0  0
  6  7  1  0  0  0  0
  7  8  1  0  0  0  0
  9  8  1  6  0  0  0
  9 10  1  0  0  0  0
  9 11  1  0  0  0  0
 10 15  1  0  0  0  0
 11 12  1  1  0  0  0
 11 13  1  0  0  0  0
 13 14  1  1  0  0  0
 13 15  1  0  0  0  0
 15 26  1  6  0  0  0
 17 18  2  0  0  0  0
 17 22  1  0  0  0  0
 18 19  1  0  0  0  0
 19 20  2  0  0  0  0
 20 21  1  0  0  0  0
 20 26  1  0  0  0  0
 21 22  2  0  0  0  0
 21 24  1  0  0  0  0
 22 23  1  0  0  0  0
 24 25  2  0  0  0  0
 25 26  1  0  0  0  0
M  END
>  <CHROM.1>
-87.72109322,-94.69485375,-74.18854990,-179.41027881,-115.29923154,-167.78775895
17.25435700,38.34604185,14.26984808,6.33352399,2.39899970,0.47833923,0.09432129

>  <Name>
ligand

>  <RI>
0

>  <Rbt.Current_Directory>
/home/itssahil/PROJECTS/Mol_Feturizer/New_Systems/rnas/3NPQ

>  <Rbt.Executable>
rbdock ($Id: //depot/dev/client3/rdock/2013.1/src/exe/rbdock.cxx#4 $)

>  <Rbt.Library>
libRbt.so (2013.1, Build901 2013/11/27)

>  <Rbt.Parameter_File>
/export/apps/rDock/src/rDock_2013.1_src/data/scripts/dock_solv.prm

>  <Rbt.Receptor>
prm/pocket_docking_2.prm

>  <SCORE>
-28.4441

>  <SCORE.INTER>
-28.9273

>  <SCORE.INTER.CONST>
1

>  <SCORE.INTER.POLAR>
0

>  <SCORE.INTER.ROT>
7

>  <SCORE.INTER.SOLV>
19.6199

>  <SCORE.INTER.VDW>
-34.0915

>  <SCORE.INTER.norm>
-1.11259

>  <SCORE.INTRA>
0.483233

>  <SCORE.INTRA.DIHEDRAL>
2.95294

>  <SCORE.INTRA.DIHEDRAL.0>
6.97628

>  <SCORE.INTRA.POLAR>
0

>  <SCORE.INTRA.POLAR.0>
0

>  <SCORE.INTRA.REPUL>
0

>  <SCORE.INTRA.REPUL.0>
0

>  <SCORE.INTRA.SOLV>
-0.233912

>  <SCORE.INTRA.SOLV.lig_0>
-49.8243

>  <SCORE.INTRA.VDW>
-0.876279

>  <SCORE.INTRA.VDW.0>
-1.35881

>  <SCORE.INTRA.norm>
0.0185859

>  <SCORE.RESTR>
0

>  <SCORE.RESTR.CAVITY>
0

>  <SCORE.RESTR.norm>
0

>  <SCORE.SYSTEM>
0

>  <SCORE.SYSTEM.CONST>
0

>  <SCORE.SYSTEM.DIHEDRAL>
0

>  <SCORE.SYSTEM.SOLV>
0

>  <SCORE.SYSTEM.norm>
0

>  <SCORE.heavy>
26

>  <SCORE.norm>
-1.094

>  <RMSD>
2.086

$$$$
ligand
 OpenBabel11021811483D
libRbt.so/2013.1/901 2013/11/27
 26 28  0  0  0  0  0  0  0  0999 V2000
   34.9322   19.0679    7.8864 N   0  0  0  0  0  0  0  0  0  0  0  0
   35.2192   17.7553    8.4516 C   0  0  2  0  0  0  0  0  0  0  0  0
   34.6494   17.6278    9.8598 C   0  0  0  0  0  0  0  0  0  0  0  0
   34.9795   16.6980   10.5948 O   0  0  0  0  0  0  0  0  0  0  0  0
   36.7209   17.4992    8.4706 C   0  0  0  0  0  0  0  0  0  0  0  0
   37.1017   16.0486    8.7360 C   0  0  0  0  0  0  0  0  0  0  0  0
   36.5024   14.9266    7.4475 S   0  0  0  0  0  0  0  0  0  0  0  0
   38.0468   13.9865    7.5433 C   0  0  0  0  0  0  0  0  0  0  0  0
   39.2597   14.8018    7.1104 C   0  0  1  0  0  0  0  0  0  0  0  0
   40.3795   13.9512    6.9445 O   0  0  0  0  0  0  0  0  0  0  0  0
   39.0140   15.5095    5.7879 C   0  0  1  0  0  0  0  0  0  0  0  0
   39.0577   16.9045    5.9735 O   0  0  0  0  0  0  0  0  0  0  0  0
   40.1368   15.0725    4.8701 C   0  0  1  0  0  0  0  0  0  0  0  0
   40.8578   16.1954    4.4190 O   0  0  0  0  0  0  0  0  0  0  0  0
   41.0329   14.1783    5.7097 C   0  0  2  0  0  0  0  0  0  0  0  0
   33.8453   18.4526   10.2956 O   0  0  0  0  0  0  0  0  0  0  0  0
   39.3908    9.2379    5.0298 N   0  0  0  0  0  0  0  0  0  0  0  0
   38.8497   10.2095    5.8476 C   0  0  0  0  0  0  0  0  0  0  0  0
   39.4172   11.4672    5.9020 N   0  0  0  0  0  0  0  0  0  0  0  0
   40.5101   11.7574    5.1549 C   0  0  0  0  0  0  0  0  0  0  0  0
   41.0691   10.7935    4.3268 C   0  0  0  0  0  0  0  0  0  0  0  0
   40.5035    9.5256    4.2655 C   0  0  0  0  0  0  0  0  0  0  0  0
   41.0310    8.5942    3.4766 N   0  0  0  0  0  0  0  0  0  0  0  0
   42.1338   11.3456    3.7059 N   0  0  0  0  0  0  0  0  0  0  0  0
   42.2618   12.6277    4.1186 C   0  0  0  0  0  0  0  0  0  0  0  0
   41.2620   12.8975    5.0172 N   0  0  0  0  0  0  0  0  0  0  0  0
  2  1  1  1  0  0  0
  2  3  1  0  0  0  0
  2  5  1  0  0  0  0
  3  4  1  0  0  0  0
  3 16  1  0  0  0  0
  5  6  1  0  0  0  0
  6  7  1  0  0  0  0
  7  8  1  0  0  0  0
  9  8  1  6  0  0  0
  9 10  1  0  0  0  0
  9 11  1  0  0  0  0
 10 15  1  0  0  0  0
 11 12  1  1  0  0  0
 11 13  1  0  0  0  0
 13 14  1  1  0  0  0
 13 15  1  0  0  0  0
 15 26  1  6  0  0  0
 17 18  2  0  0  0  0
 17 22  1  0  0  0  0
 18 19  1  0  0  0  0
 19 20  2  0  0  0  0
 20 21  1  0  0  0  0
 20 26  1  0  0  0  0
 21 22  2  0  0  0  0
 21 24  1  0  0  0  0
 22 23  1  0  0  0  0
 24 25  2  0  0  0  0
 25 26  1  0  0  0  0
M  END
>  <CHROM.1>
-167.10830997,-166.52212257,62.61698283,140.86068613,-64.75333575,-168.12351920
27.14607077,38.61106816,14.26819594,6.52996236,-2.35918754,-0.63651669,-3.07171024

>  <Name>
ligand

>  <RI>
0

>  <Rbt.Current_Directory>
/home/itssahil/PROJECTS/Mol_Feturizer/New_Systems/rnas/3NPQ

>  <Rbt.Executable>
rbdock ($Id: //depot/dev/client3/rdock/2013.1/src/exe/rbdock.cxx#4 $)

>  <Rbt.Library>
libRbt.so (2013.1, Build901 2013/11/27)

>  <Rbt.Parameter_File>
/export/apps/rDock/src/rDock_2013.1_src/data/scripts/dock_solv.prm

>  <Rbt.Receptor>
prm/pocket_docking_2.prm

>  <SCORE>
-29.7422

>  <SCORE.INTER>
-28.6391

>  <SCORE.INTER.CONST>
1

>  <SCORE.INTER.POLAR>
0

>  <SCORE.INTER.ROT>
7

>  <SCORE.INTER.SOLV>
15.8364

>  <SCORE.INTER.VDW>
-32.6382

>  <SCORE.INTER.norm>
-1.1015

>  <SCORE.INTRA>
-1.10312

>  <SCORE.INTRA.DIHEDRAL>
-1.32224

>  <SCORE.INTRA.DIHEDRAL.0>
6.97628

>  <SCORE.INTRA.POLAR>
0

>  <SCORE.INTRA.POLAR.0>
0

>  <SCORE.INTRA.REPUL>
0

>  <SCORE.INTRA.REPUL.0>
0

>  <SCORE.INTRA.SOLV>
-0.166833

>  <SCORE.INTRA.SOLV.lig_0>
-49.8243

>  <SCORE.INTRA.VDW>
-0.358579

>  <SCORE.INTRA.VDW.0>
-1.35881

>  <SCORE.INTRA.norm>
-0.0424276

>  <SCORE.RESTR>
0

>  <SCORE.RESTR.CAVITY>
0

>  <SCORE.RESTR.norm>
0

>  <SCORE.SYSTEM>
0

>  <SCORE.SYSTEM.CONST>
0

>  <SCORE.SYSTEM.DIHEDRAL>
0

>  <SCORE.SYSTEM.SOLV>
0

>  <SCORE.SYSTEM.norm>
0

>  <SCORE.heavy>
26

>  <SCORE.norm>
-1.14393

>  <RMSD>
2.087

$$$$
ligand
 OpenBabel11021811483D
libRbt.so/2013.1/901 2013/11/27
 26 28  0  0  0  0  0  0  0  0999 V2000
   36.1449   18.6918    8.9247 N   0  0  0  0  0  0  0  0  0  0  0  0
   35.1229   17.6606    8.7951 C   0  0  2  0  0  0  0  0  0  0  0  0
   33.7493   18.1981    9.1803 C   0  0  0  0  0  0  0  0  0  0  0  0
   33.6217   19.0159   10.0907 O   0  0  0  0  0  0  0  0  0  0  0  0
   35.4713   16.4527    9.6557 C   0  0  0  0  0  0  0  0  0  0  0  0
   36.6512   15.6399    9.1392 C   0  0  0  0  0  0  0  0  0  0  0  0
   36.3778   15.0059    7.4653 S   0  0  0  0  0  0  0  0  0  0  0  0
   37.8887   14.0161    7.5900 C   0  0  0  0  0  0  0  0  0  0  0  0
   39.1478   14.8253    7.3017 C   0  0  1  0  0  0  0  0  0  0  0  0
   40.2586   13.9581    7.1640 O   0  0  0  0  0  0  0  0  0  0  0  0
   39.0174   15.6213    6.0134 C   0  0  1  0  0  0  0  0  0  0  0  0
   39.0766   17.0001    6.2920 O   0  0  0  0  0  0  0  0  0  0  0  0
   40.1966   15.2142    5.1545 C   0  0  1  0  0  0  0  0  0  0  0  0
   40.9732   16.3442    4.8317 O   0  0  0  0  0  0  0  0  0  0  0  0
   41.0078   14.2457    5.9981 C   0  0  2  0  0  0  0  0  0  0  0  0
   32.7345   17.8272    8.5891 O   0  0  0  0  0  0  0  0  0  0  0  0
   39.4128    9.3418    5.0111 N   0  0  0  0  0  0  0  0  0  0  0  0
   38.8465   10.2646    5.8673 C   0  0  0  0  0  0  0  0  0  0  0  0
   39.4047   11.5203    6.0037 N   0  0  0  0  0  0  0  0  0  0  0  0
   40.5133   11.8561    5.2999 C   0  0  0  0  0  0  0  0  0  0  0  0
   41.0977   10.9416    4.4343 C   0  0  0  0  0  0  0  0  0  0  0  0
   40.5416    9.6762    4.2906 C   0  0  0  0  0  0  0  0  0  0  0  0
   41.0933    8.7918    3.4651 N   0  0  0  0  0  0  0  0  0  0  0  0
   42.1735   11.5319    3.8702 N   0  0  0  0  0  0  0  0  0  0  0  0
   42.2837   12.7901    4.3549 C   0  0  0  0  0  0  0  0  0  0  0  0
   41.2612   13.0057    5.2426 N   0  0  0  0  0  0  0  0  0  0  0  0
  2  1  1  1  0  0  0
  2  3  1  0  0  0  0
  2  5  1  0  0  0  0
  3  4  1  0  0  0  0
  3 16  1  0  0  0  0
  5  6  1  0  0  0  0
  6  7  1  0  0  0  0
  7  8  1  0  0  0  0
  9  8  1  6  0  0  0
  9 10  1  0  0  0  0
  9 11  1  0  0  0  0
 10 15  1  0  0  0  0
 11 12  1  1  0  0  0
 11 13  1  0  0  0  0
 13 14  1  1  0  0  0
 13 15  1  0  0  0  0
 15 26  1  6  0  0  0
 17 18  2  0  0  0  0
 17 22  1  0  0  0  0
 18 19  1  0  0  0  0
 19 20  2  0  0  0  0
 20 21  1  0  0  0  0
 20 26  1  0  0  0  0
 21 22  2  0  0  0  0
 21 24  1  0  0  0  0
 22 23  1  0  0  0  0
 24 25  2  0  0  0  0
 25 26  1  0  0  0  0
M  END
>  <CHROM.1>
-35.83525477,-70.97494537,-58.86276782,-171.83650557,-81.49694878,-168.95550805
23.74692283,38.44384886,14.36133068,6.63639972,-2.33712565,-0.47471470,-2.96752563

>  <Name>
ligand

>  <RI>
0

>  <Rbt.Current_Directory>
/home/itssahil/PROJECTS/Mol_Feturizer/New_Systems/rnas/3NPQ

>  <Rbt.Executable>
rbdock ($Id: //depot/dev/client3/rdock/2013.1/src/exe/rbdock.cxx#4 $)

>  <Rbt.Library>
libRbt.so (2013.1, Build901 2013/11/27)

>  <Rbt.Parameter_File>
/export/apps/rDock/src/rDock_2013.1_src/data/scripts/dock_solv.prm

>  <Rbt.Receptor>
prm/pocket_docking_6.prm

>  <SCORE>
-33.8211

>  <SCORE.INTER>
-31.4518

>  <SCORE.INTER.CONST>
1

>  <SCORE.INTER.POLAR>
0

>  <SCORE.INTER.ROT>
7

>  <SCORE.INTER.SOLV>
16.4246

>  <SCORE.INTER.VDW>
-34.7094

>  <SCORE.INTER.norm>
-1.20969

>  <SCORE.INTRA>
-2.36931

>  <SCORE.INTRA.DIHEDRAL>
-2.5998

>  <SCORE.INTRA.DIHEDRAL.0>
6.97628

>  <SCORE.INTRA.POLAR>
0

>  <SCORE.INTRA.POLAR.0>
0

>  <SCORE.INTRA.REPUL>
0

>  <SCORE.INTRA.REPUL.0>
0

>  <SCORE.INTRA.SOLV>
0.53816

>  <SCORE.INTRA.SOLV.lig_0>
-49.8243

>  <SCORE.INTRA.VDW>
-1.33848

>  <SCORE.INTRA.VDW.0>
-1.35881

>  <SCORE.INTRA.norm>
-0.0911271

>  <SCORE.RESTR>
0

>  <SCORE.RESTR.CAVITY>
0

>  <SCORE.RESTR.norm>
0

>  <SCORE.SYSTEM>
0

>  <SCORE.SYSTEM.CONST>
0

>  <SCORE.SYSTEM.DIHEDRAL>
0

>  <SCORE.SYSTEM.SOLV>
0

>  <SCORE.SYSTEM.norm>
0

>  <SCORE.heavy>
26

>  <SCORE.norm>
-1.30081

>  <RMSD>
2.088

$$$$
ligand
 OpenBabel11021811483D
libRbt.so/2013.1/901 2013/11/27
 26 28  0  0  0  0  0  0  0  0999 V2000
   36.1375   18.4989    8.8118 N   0  0  0  0  0  0  0  0  0  0  0  0
   35.0982   17.4796    8.7388 C   0  0  2  0  0  0  0  0  0  0  0  0
   33.7579   18.0276    9.2158 C   0  0  0  0  0  0  0  0  0  0  0  0
   33.6828   18.7275   10.2248 O   0  0  0  0  0  0  0  0  0  0  0  0
   35.4877   16.2600    9.5648 C   0  0  0  0  0  0  0  0  0  0  0  0
   36.6968   15.5052    9.0283 C   0  0  0  0  0  0  0  0  0  0  0  0
   36.4556   14.9251    7.3301 S   0  0  0  0  0  0  0  0  0  0  0  0
   37.9837   13.9602    7.4393 C   0  0  0  0  0  0  0  0  0  0  0  0
   39.2227   14.7795    7.0973 C   0  0  1  0  0  0  0  0  0  0  0  0
   40.3470   13.9274    6.9750 O   0  0  0  0  0  0  0  0  0  0  0  0
   39.0563   15.5207    5.7808 C   0  0  1  0  0  0  0  0  0  0  0  0
   39.0945   16.9105    6.0033 O   0  0  0  0  0  0  0  0  0  0  0  0
   40.2285   15.1006    4.9186 C   0  0  1  0  0  0  0  0  0  0  0  0
   40.9785   16.2305    4.5377 O   0  0  0  0  0  0  0  0  0  0  0  0
   41.0713   14.1814    5.7859 C   0  0  2  0  0  0  0  0  0  0  0  0
   32.7184   17.7833    8.6023 O   0  0  0  0  0  0  0  0  0  0  0  0
   39.5016    9.2400    4.9580 N   0  0  0  0  0  0  0  0  0  0  0  0
   38.9252   10.1899    5.7771 C   0  0  0  0  0  0  0  0  0  0  0  0
   39.4779   11.4517    5.8740 N   0  0  0  0  0  0  0  0  0  0  0  0
   40.5908   11.7670    5.1676 C   0  0  0  0  0  0  0  0  0  0  0  0
   41.1853   10.8252    4.3390 C   0  0  0  0  0  0  0  0  0  0  0  0
   40.6348    9.5534    4.2351 C   0  0  0  0  0  0  0  0  0  0  0  0
   41.1962    8.6429    3.4452 N   0  0  0  0  0  0  0  0  0  0  0  0
   42.2634   11.3996    3.7630 N   0  0  0  0  0  0  0  0  0  0  0  0
   42.3653   12.6744    4.2044 C   0  0  0  0  0  0  0  0  0  0  0  0
   41.3351   12.9168    5.0761 N   0  0  0  0  0  0  0  0  0  0  0  0
  2  1  1  1  0  0  0
  2  3  1  0  0  0  0
  2  5  1  0  0  0  0
  3  4  1  0  0  0  0
  3 16  1  0  0  0  0
  5  6  1  0  0  0  0
  6  7  1  0  0  0  0
  7  8  1  0  0  0  0
  9  8  1  6  0  0  0
  9 10  1  0  0  0  0
  9 11  1  0  0  0  0
 10 15  1  0  0  0  0
 11 12  1  1  0  0  0
 11 13  1  0  0  0  0
 13 14  1  1  0  0  0
 13 15  1  0  0  0  0
 15 26  1  6  0  0  0
 17 18  2  0  0  0  0
 17 22  1  0  0  0  0
 18 19  1  0  0  0  0
 19 20  2  0  0  0  0
 20 21  1  0  0  0  0
 20 26  1  0  0  0  0
 21 22  2  0  0  0  0
 21 24  1  0  0  0  0
 22 23  1  0  0  0  0
 24 25  2  0  0  0  0
 25 26  1  0  0  0  0
M  END
>  <CHROM.1>
-43.46104894,-66.19254946,-58.31411202,-171.02628350,-85.60137008,-169.98012890
25.41647708,38.49881775,14.24899576,6.51479905,-2.36698176,-0.51103284,-3.00123539

>  <Name>
ligand

>  <RI>
0

>  <Rbt.Current_Directory>
/home/itssahil/PROJECTS/Mol_Feturizer/New_Systems/rnas/3NPQ

>  <Rbt.Executable>
rbdock ($Id: //depot/dev/client3/rdock/2013.1/src/exe/rbdock.cxx#4 $)

>  <Rbt.Library>
libRbt.so (2013.1, Build901 2013/11/27)

>  <Rbt.Parameter_File>
/export/apps/rDock/src/rDock_2013.1_src/data/scripts/dock_solv.prm

>  <Rbt.Receptor>
prm/pocket_docking_4.prm

>  <SCORE>
-34.18

>  <SCORE.INTER>
-31.7586

>  <SCORE.INTER.CONST>
1

>  <SCORE.INTER.POLAR>
0

>  <SCORE.INTER.ROT>
7

>  <SCORE.INTER.SOLV>
15.8166

>  <SCORE.INTER.VDW>
-34.7113

>  <SCORE.INTER.norm>
-1.22149

>  <SCORE.INTRA>
-2.42139

>  <SCORE.INTRA.DIHEDRAL>
-2.72616

>  <SCORE.INTRA.DIHEDRAL.0>
6.97628

>  <SCORE.INTRA.POLAR>
0

>  <SCORE.INTRA.POLAR.0>
0

>  <SCORE.INTRA.REPUL>
0

>  <SCORE.INTRA.REPUL.0>
0

>  <SCORE.INTRA.SOLV>
0.592829

>  <SCORE.INTRA.SOLV.lig_0>
-49.8243

>  <SCORE.INTRA.VDW>
-1.35472

>  <SCORE.INTRA.VDW.0>
-1.35881

>  <SCORE.INTRA.norm>
-0.0931302

>  <SCORE.RESTR>
0

>  <SCORE.RESTR.CAVITY>
0

>  <SCORE.RESTR.norm>
0

>  <SCORE.SYSTEM>
0

>  <SCORE.SYSTEM.CONST>
0

>  <SCORE.SYSTEM.DIHEDRAL>
0

>  <SCORE.SYSTEM.SOLV>
0

>  <SCORE.SYSTEM.norm>
0

>  <SCORE.heavy>
26

>  <SCORE.norm>
-1.31462

>  <RMSD>
2.096

$$$$
ligand
 OpenBabel11021811483D
libRbt.so/2013.1/901 2013/11/27
 26 28  0  0  0  0  0  0  0  0999 V2000
   35.2035   16.3719   10.5985 N   0  0  0  0  0  0  0  0  0  0  0  0
   35.4502   17.1917    9.4188 C   0  0  2  0  0  0  0  0  0  0  0  0
   34.5726   18.4383    9.4237 C   0  0  0  0  0  0  0  0  0  0  0  0
   33.6424   18.5548   10.2206 O   0  0  0  0  0  0  0  0  0  0  0  0
   35.2066   16.3864    8.1487 C   0  0  0  0  0  0  0  0  0  0  0  0
   35.9018   15.0314    8.1279 C   0  0  0  0  0  0  0  0  0  0  0  0
   37.6729   15.1543    8.4837 S   0  0  0  0  0  0  0  0  0  0  0  0
   38.0066   15.4646    6.7313 C   0  0  0  0  0  0  0  0  0  0  0  0
   39.4470   15.8910    6.4732 C   0  0  1  0  0  0  0  0  0  0  0  0
   40.3166   14.7875    6.6492 O   0  0  0  0  0  0  0  0  0  0  0  0
   39.6314   16.4061    5.0550 C   0  0  1  0  0  0  0  0  0  0  0  0
   40.0049   17.7633    5.0812 O   0  0  0  0  0  0  0  0  0  0  0  0
   40.7443   15.5729    4.4539 C   0  0  1  0  0  0  0  0  0  0  0  0
   41.8014   16.4057    4.0376 O   0  0  0  0  0  0  0  0  0  0  0  0
   41.2133   14.6472    5.5632 C   0  0  2  0  0  0  0  0  0  0  0  0
   34.7739   19.3587    8.6306 O   0  0  0  0  0  0  0  0  0  0  0  0
   38.8855    9.9485    5.8292 N   0  0  0  0  0  0  0  0  0  0  0  0
   38.5414   11.1075    6.4954 C   0  0  0  0  0  0  0  0  0  0  0  0
   39.2726   12.2630    6.3031 N   0  0  0  0  0  0  0  0  0  0  0  0
   40.3343   12.2683    5.4606 C   0  0  0  0  0  0  0  0  0  0  0  0
   40.6963   11.1126    4.7821 C   0  0  0  0  0  0  0  0  0  0  0  0
   39.9651    9.9458    4.9693 C   0  0  0  0  0  0  0  0  0  0  0  0
   40.3033    8.8327    4.3254 N   0  0  0  0  0  0  0  0  0  0  0  0
   41.7744   11.3982    4.0204 N   0  0  0  0  0  0  0  0  0  0  0  0
   42.1018   12.6986    4.1994 C   0  0  0  0  0  0  0  0  0  0  0  0
   41.2177   13.2513    5.0898 N   0  0  0  0  0  0  0  0  0  0  0  0
  2  1  1  1  0  0  0
  2  3  1  0  0  0  0
  2  5  1  0  0  0  0
  3  4  1  0  0  0  0
  3 16  1  0  0  0  0
  5  6  1  0  0  0  0
  6  7  1  0  0  0  0
  7  8  1  0  0  0  0
  9  8  1  6  0  0  0
  9 10  1  0  0  0  0
  9 11  1  0  0  0  0
 10 15  1  0  0  0  0
 11 12  1  1  0  0  0
 11 13  1  0  0  0  0
 13 14  1  1  0  0  0
 13 15  1  0  0  0  0
 15 26  1  6  0  0  0
 17 18  2  0  0  0  0
 17 22  1  0  0  0  0
 18 19  1  0  0  0  0
 19 20  2  0  0  0  0
 20 21  1  0  0  0  0
 20 26  1  0  0  0  0
 21 22  2  0  0  0  0
 21 24  1  0  0  0  0
 22 23  1  0  0  0  0
 24 25  2  0  0  0  0
 25 26  1  0  0  0  0
M  END
>  <CHROM.1>
-11.41079897,-49.49578459,-52.52885644,-86.54012113,170.34226623,71.68556644
10.71180277,38.62328012,14.62186066,6.61442486,2.44562173,0.65637560,0.01457969

>  <Name>
ligand

>  <RI>
0

>  <Rbt.Current_Directory>
/home/itssahil/PROJECTS/Mol_Feturizer/New_Systems/rnas/3NPQ

>  <Rbt.Executable>
rbdock ($Id: //depot/dev/client3/rdock/2013.1/src/exe/rbdock.cxx#4 $)

>  <Rbt.Library>
libRbt.so (2013.1, Build901 2013/11/27)

>  <Rbt.Parameter_File>
/export/apps/rDock/src/rDock_2013.1_src/data/scripts/dock_solv.prm

>  <Rbt.Receptor>
prm/pocket_docking_5.prm

>  <SCORE>
-27.1474

>  <SCORE.INTER>
-25.5738

>  <SCORE.INTER.CONST>
1

>  <SCORE.INTER.POLAR>
0

>  <SCORE.INTER.ROT>
7

>  <SCORE.INTER.SOLV>
22.3187

>  <SCORE.INTER.VDW>
-32.7554

>  <SCORE.INTER.norm>
-0.983607

>  <SCORE.INTRA>
-1.57363

>  <SCORE.INTRA.DIHEDRAL>
-2.07194

>  <SCORE.INTRA.DIHEDRAL.0>
6.97628

>  <SCORE.INTRA.POLAR>
0

>  <SCORE.INTRA.POLAR.0>
0

>  <SCORE.INTRA.REPUL>
0

>  <SCORE.INTRA.REPUL.0>
0

>  <SCORE.INTRA.SOLV>
0.813147

>  <SCORE.INTRA.SOLV.lig_0>
-49.8243

>  <SCORE.INTRA.VDW>
-0.944236

>  <SCORE.INTRA.VDW.0>
-1.35881

>  <SCORE.INTRA.norm>
-0.0605242

>  <SCORE.RESTR>
0

>  <SCORE.RESTR.CAVITY>
0

>  <SCORE.RESTR.norm>
0

>  <SCORE.SYSTEM>
0

>  <SCORE.SYSTEM.CONST>
0

>  <SCORE.SYSTEM.DIHEDRAL>
0

>  <SCORE.SYSTEM.SOLV>
0

>  <SCORE.SYSTEM.norm>
0

>  <SCORE.heavy>
26

>  <SCORE.norm>
-1.04413

>  <RMSD>
2.096

$$$$
ligand
 OpenBabel11021811483D
libRbt.so/2013.1/901 2013/11/27
 26 28  0  0  0  0  0  0  0  0999 V2000
   36.0408   18.1713    8.9156 N   0  0  0  0  0  0  0  0  0  0  0  0
   34.9086   17.3658    8.4752 C   0  0  2  0  0  0  0  0  0  0  0  0
   33.5870   18.0152    8.8694 C   0  0  0  0  0  0  0  0  0  0  0  0
   32.6203   17.9965    8.1084 O   0  0  0  0  0  0  0  0  0  0  0  0
   34.9945   15.9607    9.0579 C   0  0  0  0  0  0  0  0  0  0  0  0
   36.2931   15.2322    8.7374 C   0  0  0  0  0  0  0  0  0  0  0  0
   36.5118   14.9519    6.9620 S   0  0  0  0  0  0  0  0  0  0  0  0
   37.9758   13.9411    7.2987 C   0  0  0  0  0  0  0  0  0  0  0  0
   39.2789   14.6970    7.0663 C   0  0  1  0  0  0  0  0  0  0  0  0
   40.3558   13.7834    6.9637 O   0  0  0  0  0  0  0  0  0  0  0  0
   39.2330   15.5073    5.7812 C   0  0  1  0  0  0  0  0  0  0  0  0
   39.3407   16.8802    6.0742 O   0  0  0  0  0  0  0  0  0  0  0  0
   40.4261   15.0556    4.9647 C   0  0  1  0  0  0  0  0  0  0  0  0
   41.2626   16.1532    4.6821 O   0  0  0  0  0  0  0  0  0  0  0  0
   41.1614   14.0467    5.8301 C   0  0  2  0  0  0  0  0  0  0  0  0
   33.4549   18.5738    9.9590 O   0  0  0  0  0  0  0  0  0  0  0  0
   39.4966    9.1597    4.8748 N   0  0  0  0  0  0  0  0  0  0  0  0
   38.9526   10.0907    5.7366 C   0  0  0  0  0  0  0  0  0  0  0  0
   39.5271   11.3400    5.8629 N   0  0  0  0  0  0  0  0  0  0  0  0
   40.6298   11.6617    5.1436 C   0  0  0  0  0  0  0  0  0  0  0  0
   41.1919   10.7388    4.2721 C   0  0  0  0  0  0  0  0  0  0  0  0
   40.6193    9.4796    4.1385 C   0  0  0  0  0  0  0  0  0  0  0  0
   41.1496    8.5873    3.3074 N   0  0  0  0  0  0  0  0  0  0  0  0
   42.2668   11.3155    3.6923 N   0  0  0  0  0  0  0  0  0  0  0  0
   42.3981   12.5733    4.1730 C   0  0  0  0  0  0  0  0  0  0  0  0
   41.3902   12.8024    5.0738 N   0  0  0  0  0  0  0  0  0  0  0  0
  2  1  1  1  0  0  0
  2  3  1  0  0  0  0
  2  5  1  0  0  0  0
  3  4  1  0  0  0  0
  3 16  1  0  0  0  0
  5  6  1  0  0  0  0
  6  7  1  0  0  0  0
  7  8  1  0  0  0  0
  9  8  1  6  0  0  0
  9 10  1  0  0  0  0
  9 11  1  0  0  0  0
 10 15  1  0  0  0  0
 11 12  1  1  0  0  0
 11 13  1  0  0  0  0
 13 14  1  1  0  0  0
 13 15  1  0  0  0  0
 15 26  1  6  0  0  0
 17 18  2  0  0  0  0
 17 22  1  0  0  0  0
 18 19  1  0  0  0  0
 19 20  2  0  0  0  0
 20 21  1  0  0  0  0
 20 26  1  0  0  0  0
 21 22  2  0  0  0  0
 21 24  1  0  0  0  0
 22 23  1  0  0  0  0
 24 25  2  0  0  0  0
 25 26  1  0  0  0  0
M  END
>  <CHROM.1>
140.84515523,-56.04165732,-63.03900473,-172.94673606,-100.95907744,-163.15783700
20.20255550,38.48627243,14.16330937,6.39062394,-2.36299919,-0.43804603,-2.96922976

>  <Name>
ligand

>  <RI>
0

>  <Rbt.Current_Directory>
/home/itssahil/PROJECTS/Mol_Feturizer/New_Systems/rnas/3NPQ

>  <Rbt.Executable>
rbdock ($Id: //depot/dev/client3/rdock/2013.1/src/exe/rbdock.cxx#4 $)

>  <Rbt.Library>
libRbt.so (2013.1, Build901 2013/11/27)

>  <Rbt.Parameter_File>
/export/apps/rDock/src/rDock_2013.1_src/data/scripts/dock_solv.prm

>  <Rbt.Receptor>
prm/pocket_docking_2.prm

>  <SCORE>
-32.5151

>  <SCORE.INTER>
-31.2545

>  <SCORE.INTER.CONST>
1

>  <SCORE.INTER.POLAR>
0

>  <SCORE.INTER.ROT>
7

>  <SCORE.INTER.SOLV>
15.6467

>  <SCORE.INTER.VDW>
-34.3185

>  <SCORE.INTER.norm>
-1.20209

>  <SCORE.INTRA>
-1.27563

>  <SCORE.INTRA.DIHEDRAL>
-1.32451

>  <SCORE.INTRA.DIHEDRAL.0>
6.97628

>  <SCORE.INTRA.POLAR>
0

>  <SCORE.INTRA.POLAR.0>
0

>  <SCORE.INTRA.REPUL>
0

>  <SCORE.INTRA.REPUL.0>
0

>  <SCORE.INTRA.SOLV>
0.706915

>  <SCORE.INTRA.SOLV.lig_0>
-49.8243

>  <SCORE.INTRA.VDW>
-0.966836

>  <SCORE.INTRA.VDW.0>
-1.35881

>  <SCORE.INTRA.norm>
-0.0490627

>  <SCORE.RESTR>
0.0149555

>  <SCORE.RESTR.CAVITY>
0.0149555

>  <SCORE.RESTR.norm>
0.000575212

>  <SCORE.SYSTEM>
0

>  <SCORE.SYSTEM.CONST>
0

>  <SCORE.SYSTEM.DIHEDRAL>
0

>  <SCORE.SYSTEM.SOLV>
0

>  <SCORE.SYSTEM.norm>
0

>  <SCORE.heavy>
26

>  <SCORE.norm>
-1.25058

>  <RMSD>
2.103

$$$$
ligand
 OpenBabel11021811483D
libRbt.so/2013.1/901 2013/11/27
 26 28  0  0  0  0  0  0  0  0999 V2000
   36.0704   18.5396    9.0093 N   0  0  0  0  0  0  0  0  0  0  0  0
   35.0413   17.5185    8.8588 C   0  0  2  0  0  0  0  0  0  0  0  0
   33.6715   18.0574    9.2554 C   0  0  0  0  0  0  0  0  0  0  0  0
   33.5229   18.7130   10.2859 O   0  0  0  0  0  0  0  0  0  0  0  0
   35.3814   16.2906    9.6941 C   0  0  0  0  0  0  0  0  0  0  0  0
   36.5752   15.4979    9.1781 C   0  0  0  0  0  0  0  0  0  0  0  0
   36.3410   14.9173    7.4792 S   0  0  0  0  0  0  0  0  0  0  0  0
   37.8730   13.9590    7.5922 C   0  0  0  0  0  0  0  0  0  0  0  0
   39.1121   14.7922    7.2862 C   0  0  1  0  0  0  0  0  0  0  0  0
   40.2421   13.9486    7.1577 O   0  0  0  0  0  0  0  0  0  0  0  0
   38.9588   15.5646    5.9861 C   0  0  1  0  0  0  0  0  0  0  0  0
   38.9873   16.9486    6.2429 O   0  0  0  0  0  0  0  0  0  0  0  0
   40.1440   15.1711    5.1291 C   0  0  1  0  0  0  0  0  0  0  0  0
   40.8933   16.3134    4.7855 O   0  0  0  0  0  0  0  0  0  0  0  0
   40.9803   14.2349    5.9845 C   0  0  2  0  0  0  0  0  0  0  0  0
   32.6809   17.8500    8.5536 O   0  0  0  0  0  0  0  0  0  0  0  0
   39.4349    9.3143    5.0014 N   0  0  0  0  0  0  0  0  0  0  0  0
   38.8418   10.2422    5.8338 C   0  0  0  0  0  0  0  0  0  0  0  0
   39.3904   11.5017    5.9732 N   0  0  0  0  0  0  0  0  0  0  0  0
   40.5155   11.8366    5.2958 C   0  0  0  0  0  0  0  0  0  0  0  0
   41.1269   10.9170    4.4545 C   0  0  0  0  0  0  0  0  0  0  0  0
   40.5807    9.6476    4.3079 C   0  0  0  0  0  0  0  0  0  0  0  0
   41.1583    8.7584    3.5055 N   0  0  0  0  0  0  0  0  0  0  0  0
   42.2144   11.5074    3.9134 N   0  0  0  0  0  0  0  0  0  0  0  0
   42.3059   12.7706    4.3892 C   0  0  0  0  0  0  0  0  0  0  0  0
   41.2593   12.9893    5.2475 N   0  0  0  0  0  0  0  0  0  0  0  0
  2  1  1  1  0  0  0
  2  3  1  0  0  0  0
  2  5  1  0  0  0  0
  3  4  1  0  0  0  0
  3 16  1  0  0  0  0
  5  6  1  0  0  0  0
  6  7  1  0  0  0  0
  7  8  1  0  0  0  0
  9  8  1  6  0  0  0
  9 10  1  0  0  0  0
  9 11  1  0  0  0  0
 10 15  1  0  0  0  0
 11 12  1  1  0  0  0
 11 13  1  0  0  0  0
 13 14  1  1  0  0  0
 13 15  1  0  0  0  0
 15 26  1  6  0  0  0
 17 18  2  0  0  0  0
 17 22  1  0  0  0  0
 18 19  1  0  0  0  0
 19 20  2  0  0  0  0
 20 21  1  0  0  0  0
 20 26  1  0  0  0  0
 21 22  2  0  0  0  0
 21 24  1  0  0  0  0
 22 23  1  0  0  0  0
 24 25  2  0  0  0  0
 25 26  1  0  0  0  0
M  END
>  <CHROM.1>
-45.58471994,-69.67372097,-58.40352330,-173.09719670,-84.22719916,-169.70979594
25.79782931,38.41233107,14.29615169,6.65085343,-2.36056893,-0.48857490,-2.97997333

>  <Name>
ligand

>  <RI>
0

>  <Rbt.Current_Directory>
/home/itssahil/PROJECTS/Mol_Feturizer/New_Systems/rnas/3NPQ

>  <Rbt.Executable>
rbdock ($Id: //depot/dev/client3/rdock/2013.1/src/exe/rbdock.cxx#4 $)

>  <Rbt.Library>
libRbt.so (2013.1, Build901 2013/11/27)

>  <Rbt.Parameter_File>
/export/apps/rDock/src/rDock_2013.1_src/data/scripts/dock_solv.prm

>  <Rbt.Receptor>
prm/pocket_docking_3.prm

>  <SCORE>
-34.1362

>  <SCORE.INTER>
-31.7085

>  <SCORE.INTER.CONST>
1

>  <SCORE.INTER.POLAR>
0

>  <SCORE.INTER.ROT>
7

>  <SCORE.INTER.SOLV>
16.5866

>  <SCORE.INTER.VDW>
-34.9345

>  <SCORE.INTER.norm>
-1.21956

>  <SCORE.INTRA>
-2.42771

>  <SCORE.INTRA.DIHEDRAL>
-2.62542

>  <SCORE.INTRA.DIHEDRAL.0>
6.97628

>  <SCORE.INTRA.POLAR>
0

>  <SCORE.INTRA.POLAR.0>
0

>  <SCORE.INTRA.REPUL>
0

>  <SCORE.INTRA.REPUL.0>
0

>  <SCORE.INTRA.SOLV>
0.526369

>  <SCORE.INTRA.SOLV.lig_0>
-49.8243

>  <SCORE.INTRA.VDW>
-1.37818

>  <SCORE.INTRA.VDW.0>
-1.35881

>  <SCORE.INTRA.norm>
-0.0933735

>  <SCORE.RESTR>
0

>  <SCORE.RESTR.CAVITY>
0

>  <SCORE.RESTR.norm>
0

>  <SCORE.SYSTEM>
0

>  <SCORE.SYSTEM.CONST>
0

>  <SCORE.SYSTEM.DIHEDRAL>
0

>  <SCORE.SYSTEM.SOLV>
0

>  <SCORE.SYSTEM.norm>
0

>  <SCORE.heavy>
26

>  <SCORE.norm>
-1.31293

>  <RMSD>
2.103

$$$$
ligand
 OpenBabel11021811483D
libRbt.so/2013.1/901 2013/11/27
 26 28  0  0  0  0  0  0  0  0999 V2000
   34.4782   17.6669   10.8683 N   0  0  0  0  0  0  0  0  0  0  0  0
   35.2065   17.2584    9.6736 C   0  0  2  0  0  0  0  0  0  0  0  0
   34.4906   17.7208    8.4097 C   0  0  0  0  0  0  0  0  0  0  0  0
   33.2809   17.5469    8.2674 O   0  0  0  0  0  0  0  0  0  0  0  0
   35.3855   15.7456    9.6488 C   0  0  0  0  0  0  0  0  0  0  0  0
   36.4253   15.2580    8.6484 C   0  0  0  0  0  0  0  0  0  0  0  0
   37.9885   16.1628    8.7754 S   0  0  0  0  0  0  0  0  0  0  0  0
   38.7926   14.9274    7.7241 C   0  0  0  0  0  0  0  0  0  0  0  0
   40.0433   15.4636    7.0373 C   0  0  1  0  0  0  0  0  0  0  0  0
   40.9847   14.4201    6.8646 O   0  0  0  0  0  0  0  0  0  0  0  0
   39.7257   16.0345    5.6649 C   0  0  1  0  0  0  0  0  0  0  0  0
   40.0086   17.4135    5.6405 O   0  0  0  0  0  0  0  0  0  0  0  0
   40.6279   15.3021    4.6934 C   0  0  1  0  0  0  0  0  0  0  0  0
   41.4421   16.2209    4.0025 O   0  0  0  0  0  0  0  0  0  0  0  0
   41.4852   14.3782    5.5413 C   0  0  2  0  0  0  0  0  0  0  0  0
   35.1057   18.2800    7.5010 O   0  0  0  0  0  0  0  0  0  0  0  0
   38.9284    9.7941    5.6681 N   0  0  0  0  0  0  0  0  0  0  0  0
   38.6490   10.9441    6.3786 C   0  0  0  0  0  0  0  0  0  0  0  0
   39.4351   12.0681    6.2188 N   0  0  0  0  0  0  0  0  0  0  0  0
   40.4876   12.0510    5.3650 C   0  0  0  0  0  0  0  0  0  0  0  0
   40.7850   10.9038    4.6420 C   0  0  0  0  0  0  0  0  0  0  0  0
   39.9982    9.7687    4.7963 C   0  0  0  0  0  0  0  0  0  0  0  0
   40.2742    8.6639    4.1097 N   0  0  0  0  0  0  0  0  0  0  0  0
   41.8686   11.1626    3.8786 N   0  0  0  0  0  0  0  0  0  0  0  0
   42.2622   12.4380    4.0997 C   0  0  0  0  0  0  0  0  0  0  0  0
   41.4154   13.0016    5.0190 N   0  0  0  0  0  0  0  0  0  0  0  0
  2  1  1  1  0  0  0
  2  3  1  0  0  0  0
  2  5  1  0  0  0  0
  3  4  1  0  0  0  0
  3 16  1  0  0  0  0
  5  6  1  0  0  0  0
  6  7  1  0  0  0  0
  7  8  1  0  0  0  0
  9  8  1  6  0  0  0
  9 10  1  0  0  0  0
  9 11  1  0  0  0  0
 10 15  1  0  0  0  0
 11 12  1  1  0  0  0
 11 13  1  0  0  0  0
 13 14  1  1  0  0  0
 13 15  1  0  0  0  0
 15 26  1  6  0  0  0
 17 18  2  0  0  0  0
 17 22  1  0  0  0  0
 18 19  1  0  0  0  0
 19 20  2  0  0  0  0
 20 21  1  0  0  0  0
 20 26  1  0  0  0  0
 21 22  2  0  0  0  0
 21 24  1  0  0  0  0
 22 23  1  0  0  0  0
 24 25  2  0  0  0  0
 25 26  1  0  0  0  0
M  END
>  <CHROM.1>
-47.33509378,-165.08415665,49.03444449,167.69633320,157.44163195,148.22899220
30.21723882,38.74399054,14.45596716,6.64164998,2.39277925,0.56836057,0.10956024

>  <Name>
ligand

>  <RI>
0

>  <Rbt.Current_Directory>
/home/itssahil/PROJECTS/Mol_Feturizer/New_Systems/rnas/3NPQ

>  <Rbt.Executable>
rbdock ($Id: //depot/dev/client3/rdock/2013.1/src/exe/rbdock.cxx#4 $)

>  <Rbt.Library>
libRbt.so (2013.1, Build901 2013/11/27)

>  <Rbt.Parameter_File>
/export/apps/rDock/src/rDock_2013.1_src/data/scripts/dock_solv.prm

>  <Rbt.Receptor>
prm/pocket_docking_3.prm

>  <SCORE>
-28.4902

>  <SCORE.INTER>
-26.9749

>  <SCORE.INTER.CONST>
1

>  <SCORE.INTER.POLAR>
0

>  <SCORE.INTER.ROT>
7

>  <SCORE.INTER.SOLV>
24.9047

>  <SCORE.INTER.VDW>
-34.5515

>  <SCORE.INTER.norm>
-1.0375

>  <SCORE.INTRA>
-1.51529

>  <SCORE.INTRA.DIHEDRAL>
0.821578

>  <SCORE.INTRA.DIHEDRAL.0>
6.97628

>  <SCORE.INTRA.POLAR>
0

>  <SCORE.INTRA.POLAR.0>
0

>  <SCORE.INTRA.REPUL>
0

>  <SCORE.INTRA.REPUL.0>
0

>  <SCORE.INTRA.SOLV>
-0.538808

>  <SCORE.INTRA.SOLV.lig_0>
-49.8243

>  <SCORE.INTRA.VDW>
-1.65667

>  <SCORE.INTRA.VDW.0>
-1.35881

>  <SCORE.INTRA.norm>
-0.0582802

>  <SCORE.RESTR>
0

>  <SCORE.RESTR.CAVITY>
0

>  <SCORE.RESTR.norm>
0

>  <SCORE.SYSTEM>
0

>  <SCORE.SYSTEM.CONST>
0

>  <SCORE.SYSTEM.DIHEDRAL>
0

>  <SCORE.SYSTEM.SOLV>
0

>  <SCORE.SYSTEM.norm>
0

>  <SCORE.heavy>
26

>  <SCORE.norm>
-1.09578

>  <RMSD>
2.103

$$$$
ligand
 OpenBabel11021811483D
libRbt.so/2013.1/901 2013/11/27
 26 28  0  0  0  0  0  0  0  0999 V2000
   36.1346   18.4969    8.9192 N   0  0  0  0  0  0  0  0  0  0  0  0
   35.1012   17.4801    8.7681 C   0  0  2  0  0  0  0  0  0  0  0  0
   33.7440   18.0056    9.2220 C   0  0  0  0  0  0  0  0  0  0  0  0
   33.6368   18.6846   10.2424 O   0  0  0  0  0  0  0  0  0  0  0  0
   35.4660   16.2274    9.5546 C   0  0  0  0  0  0  0  0  0  0  0  0
   36.6874   15.4907    9.0206 C   0  0  0  0  0  0  0  0  0  0  0  0
   36.4637   14.9191    7.3172 S   0  0  0  0  0  0  0  0  0  0  0  0
   37.9826   13.9418    7.4423 C   0  0  0  0  0  0  0  0  0  0  0  0
   39.2333   14.7555    7.1309 C   0  0  1  0  0  0  0  0  0  0  0  0
   40.3524   13.8959    7.0138 O   0  0  0  0  0  0  0  0  0  0  0  0
   39.0931   15.5164    5.8225 C   0  0  1  0  0  0  0  0  0  0  0  0
   39.1391   16.9025    6.0651 O   0  0  0  0  0  0  0  0  0  0  0  0
   40.2750   15.0987    4.9725 C   0  0  1  0  0  0  0  0  0  0  0  0
   41.0399   16.2275    4.6190 O   0  0  0  0  0  0  0  0  0  0  0  0
   41.0970   14.1605    5.8395 C   0  0  2  0  0  0  0  0  0  0  0  0
   32.7226   17.7636    8.5779 O   0  0  0  0  0  0  0  0  0  0  0  0
   39.5142    9.2363    4.9371 N   0  0  0  0  0  0  0  0  0  0  0  0
   38.9350   10.1783    5.7634 C   0  0  0  0  0  0  0  0  0  0  0  0
   39.4919   11.4365    5.8805 N   0  0  0  0  0  0  0  0  0  0  0  0
   40.6118   11.7561    5.1872 C   0  0  0  0  0  0  0  0  0  0  0  0
   41.2092   10.8222    4.3516 C   0  0  0  0  0  0  0  0  0  0  0  0
   40.6545    9.5541    4.2274 C   0  0  0  0  0  0  0  0  0  0  0  0
   41.2187    8.6512    3.4307 N   0  0  0  0  0  0  0  0  0  0  0  0
   42.2943   11.3993    3.7917 N   0  0  0  0  0  0  0  0  0  0  0  0
   42.3977   12.6680    4.2498 C   0  0  0  0  0  0  0  0  0  0  0  0
   41.3614   12.9038    5.1161 N   0  0  0  0  0  0  0  0  0  0  0  0
  2  1  1  1  0  0  0
  2  3  1  0  0  0  0
  2  5  1  0  0  0  0
  3  4  1  0  0  0  0
  3 16  1  0  0  0  0
  5  6  1  0  0  0  0
  6  7  1  0  0  0  0
  7  8  1  0  0  0  0
  9  8  1  6  0  0  0
  9 10  1  0  0  0  0
  9 11  1  0  0  0  0
 10 15  1  0  0  0  0
 11 12  1  1  0  0  0
 11 13  1  0  0  0  0
 13 14  1  1  0  0  0
 13 15  1  0  0  0  0
 15 26  1  6  0  0  0
 17 18  2  0  0  0  0
 17 22  1  0  0  0  0
 18 19  1  0  0  0  0
 19 20  2  0  0  0  0
 20 21  1  0  0  0  0
 20 26  1  0  0  0  0
 21 22  2  0  0  0  0
 21 24  1  0  0  0  0
 22 23  1  0  0  0  0
 24 25  2  0  0  0  0
 25 26  1  0  0  0  0
M  END
>  <CHROM.1>
-42.00900405,-66.70560367,-60.70901326,-169.80815524,-85.12676259,-169.76120104
24.93372978,38.51235416,14.23714719,6.53545186,-2.36254243,-0.49550798,-2.98539006

>  <Name>
ligand

>  <RI>
0

>  <Rbt.Current_Directory>
/home/itssahil/PROJECTS/Mol_Feturizer/New_Systems/rnas/3NPQ

>  <Rbt.Executable>
rbdock ($Id: //depot/dev/client3/rdock/2013.1/src/exe/rbdock.cxx#4 $)

>  <Rbt.Library>
libRbt.so (2013.1, Build901 2013/11/27)

>  <Rbt.Parameter_File>
/export/apps/rDock/src/rDock_2013.1_src/data/scripts/dock_solv.prm

>  <Rbt.Receptor>
prm/pocket_docking_4.prm

>  <SCORE>
-34.1397

>  <SCORE.INTER>
-31.7091

>  <SCORE.INTER.CONST>
1

>  <SCORE.INTER.POLAR>
0

>  <SCORE.INTER.ROT>
7

>  <SCORE.INTER.SOLV>
16.0749

>  <SCORE.INTER.VDW>
-34.7644

>  <SCORE.INTER.norm>
-1.21958

>  <SCORE.INTRA>
-2.43056

>  <SCORE.INTRA.DIHEDRAL>
-2.68509

>  <SCORE.INTRA.DIHEDRAL.0>
6.97628

>  <SCORE.INTRA.POLAR>
0

>  <SCORE.INTRA.POLAR.0>
0

>  <SCORE.INTRA.REPUL>
0

>  <SCORE.INTRA.REPUL.0>
0

>  <SCORE.INTRA.SOLV>
0.550867

>  <SCORE.INTRA.SOLV.lig_0>
-49.8243

>  <SCORE.INTRA.VDW>
-1.36345

>  <SCORE.INTRA.VDW.0>
-1.35881

>  <SCORE.INTRA.norm>
-0.0934831

>  <SCORE.RESTR>
0

>  <SCORE.RESTR.CAVITY>
0

>  <SCORE.RESTR.norm>
0

>  <SCORE.SYSTEM>
0

>  <SCORE.SYSTEM.CONST>
0

>  <SCORE.SYSTEM.DIHEDRAL>
0

>  <SCORE.SYSTEM.SOLV>
0

>  <SCORE.SYSTEM.norm>
0

>  <SCORE.heavy>
26

>  <SCORE.norm>
-1.31307

>  <RMSD>
2.103

$$$$
ligand
 OpenBabel11021811483D
libRbt.so/2013.1/901 2013/11/27
 26 28  0  0  0  0  0  0  0  0999 V2000
   35.3942   16.9468    7.2976 N   0  0  0  0  0  0  0  0  0  0  0  0
   35.1381   16.5844    8.6860 C   0  0  2  0  0  0  0  0  0  0  0  0
   34.7957   17.8138    9.5197 C   0  0  0  0  0  0  0  0  0  0  0  0
   35.0914   18.9438    9.1329 O   0  0  0  0  0  0  0  0  0  0  0  0
   36.3437   15.8683    9.2817 C   0  0  0  0  0  0  0  0  0  0  0  0
   36.6940   14.5576    8.5896 C   0  0  0  0  0  0  0  0  0  0  0  0
   37.5942   14.8103    7.0391 S   0  0  0  0  0  0  0  0  0  0  0  0
   39.0553   15.3370    7.9697 C   0  0  0  0  0  0  0  0  0  0  0  0
   40.1811   15.8298    7.0680 C   0  0  1  0  0  0  0  0  0  0  0  0
   41.0842   14.7724    6.8007 O   0  0  0  0  0  0  0  0  0  0  0  0
   39.6499   16.3347    5.7364 C   0  0  1  0  0  0  0  0  0  0  0  0
   39.9243   17.7087    5.5990 O   0  0  0  0  0  0  0  0  0  0  0  0
   40.3875   15.5490    4.6721 C   0  0  1  0  0  0  0  0  0  0  0  0
   41.0813   16.4268    3.8163 O   0  0  0  0  0  0  0  0  0  0  0  0
   41.3689   14.6618    5.4186 C   0  0  2  0  0  0  0  0  0  0  0  0
   34.2145   17.7056   10.6002 O   0  0  0  0  0  0  0  0  0  0  0  0
   38.7325   10.1642    6.0415 N   0  0  0  0  0  0  0  0  0  0  0  0
   38.5483   11.3580    6.7097 C   0  0  0  0  0  0  0  0  0  0  0  0
   39.3409   12.4495    6.4141 N   0  0  0  0  0  0  0  0  0  0  0  0
   40.3065   12.3573    5.4674 C   0  0  0  0  0  0  0  0  0  0  0  0
   40.5073   11.1651    4.7850 C   0  0  0  0  0  0  0  0  0  0  0  0
   39.7134   10.0623    5.0759 C   0  0  0  0  0  0  0  0  0  0  0  0
   39.8974    8.9151    4.4292 N   0  0  0  0  0  0  0  0  0  0  0  0
   41.5188   11.3524    3.9098 N   0  0  0  0  0  0  0  0  0  0  0  0
   41.9605   12.6263    4.0211 C   0  0  0  0  0  0  0  0  0  0  0  0
   41.2183   13.2618    4.9830 N   0  0  0  0  0  0  0  0  0  0  0  0
  2  1  1  6  0  0  0
  2  3  1  0  0  0  0
  2  5  1  0  0  0  0
  3  4  1  0  0  0  0
  3 16  1  0  0  0  0
  5  6  1  0  0  0  0
  6  7  1  0  0  0  0
  7  8  1  0  0  0  0
  9  8  1  1  0  0  0
  9 10  1  0  0  0  0
  9 11  1  0  0  0  0
 10 15  1  0  0  0  0
 11 12  1  6  0  0  0
 11 13  1  0  0  0  0
 13 14  1  6  0  0  0
 13 15  1  0  0  0  0
 15 26  1  6  0  0  0
 17 18  2  0  0  0  0
 17 22  1  0  0  0  0
 18 19  1  0  0  0  0
 19 20  2  0  0  0  0
 20 21  1  0  0  0  0
 20 26  1  0  0  0  0
 21 22  2  0  0  0  0
 21 24  1  0  0  0  0
 22 23  1  0  0  0  0
 24 25  2  0  0  0  0
 25 26  1  0  0  0  0
M  END
>  <CHROM.1>
-19.22621803,-61.91501958,78.80286864,71.10972506,-174.52496994,-94.53937374
34.10941498,38.73981461,14.50088650,6.56758682,2.38900063,0.62607521,0.08220046

>  <Name>
ligand

>  <RI>
0

>  <Rbt.Current_Directory>
/home/itssahil/PROJECTS/Mol_Feturizer/New_Systems/rnas/3NPQ

>  <Rbt.Executable>
rbdock ($Id: //depot/dev/client3/rdock/2013.1/src/exe/rbdock.cxx#4 $)

>  <Rbt.Library>
libRbt.so (2013.1, Build901 2013/11/27)

>  <Rbt.Parameter_File>
/export/apps/rDock/src/rDock_2013.1_src/data/scripts/dock_solv.prm

>  <Rbt.Receptor>
prm/pocket_docking_4.prm

>  <SCORE>
-25.4267

>  <SCORE.INTER>
-26.0972

>  <SCORE.INTER.CONST>
1

>  <SCORE.INTER.POLAR>
0

>  <SCORE.INTER.ROT>
7

>  <SCORE.INTER.SOLV>
18.3734

>  <SCORE.INTER.VDW>
-31.7892

>  <SCORE.INTER.norm>
-1.00374

>  <SCORE.INTRA>
0.670359

>  <SCORE.INTRA.DIHEDRAL>
0.444667

>  <SCORE.INTRA.DIHEDRAL.0>
6.97628

>  <SCORE.INTRA.POLAR>
0

>  <SCORE.INTRA.POLAR.0>
0

>  <SCORE.INTRA.REPUL>
0

>  <SCORE.INTRA.REPUL.0>
0

>  <SCORE.INTRA.SOLV>
1.76783

>  <SCORE.INTRA.SOLV.lig_0>
-49.8243

>  <SCORE.INTRA.VDW>
-0.435888

>  <SCORE.INTRA.VDW.0>
-1.35881

>  <SCORE.INTRA.norm>
0.025783

>  <SCORE.RESTR>
0.000161876

>  <SCORE.RESTR.CAVITY>
0.000161876

>  <SCORE.RESTR.norm>
6.22599e-06

>  <SCORE.SYSTEM>
0

>  <SCORE.SYSTEM.CONST>
0

>  <SCORE.SYSTEM.DIHEDRAL>
0

>  <SCORE.SYSTEM.SOLV>
0

>  <SCORE.SYSTEM.norm>
0

>  <SCORE.heavy>
26

>  <SCORE.norm>
-0.977948

>  <RMSD>
2.109

$$$$
ligand
 OpenBabel11021811483D
libRbt.so/2013.1/901 2013/11/27
 26 28  0  0  0  0  0  0  0  0999 V2000
   34.6251   17.5168   10.9865 N   0  0  0  0  0  0  0  0  0  0  0  0
   35.1480   17.1946    9.6646 C   0  0  2  0  0  0  0  0  0  0  0  0
   34.3134   17.8496    8.5699 C   0  0  0  0  0  0  0  0  0  0  0  0
   33.0895   17.7253    8.5468 O   0  0  0  0  0  0  0  0  0  0  0  0
   35.1871   15.6855    9.4594 C   0  0  0  0  0  0  0  0  0  0  0  0
   36.0350   15.2400    8.2752 C   0  0  0  0  0  0  0  0  0  0  0  0
   37.8065   15.4851    8.5587 S   0  0  0  0  0  0  0  0  0  0  0  0
   38.1288   15.2153    6.7975 C   0  0  0  0  0  0  0  0  0  0  0  0
   39.5108   15.6970    6.3717 C   0  0  1  0  0  0  0  0  0  0  0  0
   40.4498   14.6449    6.4993 O   0  0  0  0  0  0  0  0  0  0  0  0
   39.5206   16.1552    4.9225 C   0  0  1  0  0  0  0  0  0  0  0  0
   39.8242   17.5283    4.8543 O   0  0  0  0  0  0  0  0  0  0  0  0
   40.6069   15.3489    4.2412 C   0  0  1  0  0  0  0  0  0  0  0  0
   41.5709   16.2108    3.6824 O   0  0  0  0  0  0  0  0  0  0  0  0
   41.2354   14.4978    5.3312 C   0  0  2  0  0  0  0  0  0  0  0  0
   34.8440   18.5192    7.6829 O   0  0  0  0  0  0  0  0  0  0  0  0
   38.9490    9.7897    5.7478 N   0  0  0  0  0  0  0  0  0  0  0  0
   38.5803   10.9717    6.3582 C   0  0  0  0  0  0  0  0  0  0  0  0
   39.3039   12.1259    6.1321 N   0  0  0  0  0  0  0  0  0  0  0  0
   40.3820   12.1075    5.3109 C   0  0  0  0  0  0  0  0  0  0  0  0
   40.7688   10.9285    4.6884 C   0  0  0  0  0  0  0  0  0  0  0  0
   40.0455    9.7628    4.9099 C   0  0  0  0  0  0  0  0  0  0  0  0
   40.4073    8.6275    4.3196 N   0  0  0  0  0  0  0  0  0  0  0  0
   41.8590   11.1936    3.9365 N   0  0  0  0  0  0  0  0  0  0  0  0
   42.1699   12.5038    4.0675 C   0  0  0  0  0  0  0  0  0  0  0  0
   41.2629   13.0836    4.9166 N   0  0  0  0  0  0  0  0  0  0  0  0
  2  1  1  1  0  0  0
  2  3  1  0  0  0  0
  2  5  1  0  0  0  0
  3  4  1  0  0  0  0
  3 16  1  0  0  0  0
  5  6  1  0  0  0  0
  6  7  1  0  0  0  0
  7  8  1  0  0  0  0
  9  8  1  6  0  0  0
  9 10  1  0  0  0  0
  9 11  1  0  0  0  0
 10 15  1  0  0  0  0
 11 12  1  1  0  0  0
 11 13  1  0  0  0  0
 13 14  1  1  0  0  0
 13 15  1  0  0  0  0
 15 26  1  6  0  0  0
 17 18  2  0  0  0  0
 17 22  1  0  0  0  0
 18 19  1  0  0  0  0
 19 20  2  0  0  0  0
 20 21  1  0  0  0  0
 20 26  1  0  0  0  0
 21 22  2  0  0  0  0
 21 24  1  0  0  0  0
 22 23  1  0  0  0  0
 24 25  2  0  0  0  0
 25 26  1  0  0  0  0
M  END
>  <CHROM.1>
-51.06911425,-165.15248574,70.10663331,-166.55727033,163.71050987,90.61952486
18.19092933,38.58719898,14.46237659,6.46945575,2.50187778,0.65549829,-0.03700726

>  <Name>
ligand

>  <RI>
0

>  <Rbt.Current_Directory>
/home/itssahil/PROJECTS/Mol_Feturizer/New_Systems/rnas/3NPQ

>  <Rbt.Executable>
rbdock ($Id: //depot/dev/client3/rdock/2013.1/src/exe/rbdock.cxx#4 $)

>  <Rbt.Library>
libRbt.so (2013.1, Build901 2013/11/27)

>  <Rbt.Parameter_File>
/export/apps/rDock/src/rDock_2013.1_src/data/scripts/dock_solv.prm

>  <Rbt.Receptor>
prm/pocket_docking_3.prm

>  <SCORE>
-27.9562

>  <SCORE.INTER>
-26.0441

>  <SCORE.INTER.CONST>
1

>  <SCORE.INTER.POLAR>
0

>  <SCORE.INTER.ROT>
7

>  <SCORE.INTER.SOLV>
24.5655

>  <SCORE.INTER.VDW>
-33.8179

>  <SCORE.INTER.norm>
-1.0017

>  <SCORE.INTRA>
-1.91211

>  <SCORE.INTRA.DIHEDRAL>
0.307656

>  <SCORE.INTRA.DIHEDRAL.0>
6.97628

>  <SCORE.INTRA.POLAR>
0

>  <SCORE.INTRA.POLAR.0>
0

>  <SCORE.INTRA.REPUL>
0

>  <SCORE.INTRA.REPUL.0>
0

>  <SCORE.INTRA.SOLV>
-0.782231

>  <SCORE.INTRA.SOLV.lig_0>
-49.8243

>  <SCORE.INTRA.VDW>
-1.67482

>  <SCORE.INTRA.VDW.0>
-1.35881

>  <SCORE.INTRA.norm>
-0.0735427

>  <SCORE.RESTR>
0

>  <SCORE.RESTR.CAVITY>
0

>  <SCORE.RESTR.norm>
0

>  <SCORE.SYSTEM>
0

>  <SCORE.SYSTEM.CONST>
0

>  <SCORE.SYSTEM.DIHEDRAL>
0

>  <SCORE.SYSTEM.SOLV>
0

>  <SCORE.SYSTEM.norm>
0

>  <SCORE.heavy>
26

>  <SCORE.norm>
-1.07524

>  <RMSD>
2.111

$$$$
ligand
 OpenBabel11021811483D
libRbt.so/2013.1/901 2013/11/27
 26 28  0  0  0  0  0  0  0  0999 V2000
   35.6145   17.3770    7.1519 N   0  0  0  0  0  0  0  0  0  0  0  0
   34.7704   16.9221    8.2497 C   0  0  2  0  0  0  0  0  0  0  0  0
   35.0502   17.7145    9.5216 C   0  0  0  0  0  0  0  0  0  0  0  0
   34.4968   17.4262   10.5820 O   0  0  0  0  0  0  0  0  0  0  0  0
   34.9808   15.4347    8.5038 C   0  0  0  0  0  0  0  0  0  0  0  0
   36.4284   15.0488    8.7783 C   0  0  0  0  0  0  0  0  0  0  0  0
   37.3939   14.8505    7.2594 S   0  0  0  0  0  0  0  0  0  0  0  0
   38.8896   15.3675    8.1389 C   0  0  0  0  0  0  0  0  0  0  0  0
   39.9492   15.9460    7.2083 C   0  0  1  0  0  0  0  0  0  0  0  0
   40.9048   14.9518    6.8867 O   0  0  0  0  0  0  0  0  0  0  0  0
   39.3392   16.4421    5.9074 C   0  0  1  0  0  0  0  0  0  0  0  0
   39.5238   17.8329    5.7894 O   0  0  0  0  0  0  0  0  0  0  0  0
   40.0839   15.7239    4.8012 C   0  0  1  0  0  0  0  0  0  0  0  0
   40.6906   16.6590    3.9399 O   0  0  0  0  0  0  0  0  0  0  0  0
   41.1446   14.8853    5.4934 C   0  0  2  0  0  0  0  0  0  0  0  0
   35.8373   18.6618    9.5184 O   0  0  0  0  0  0  0  0  0  0  0  0
   38.8008   10.2267    6.1027 N   0  0  0  0  0  0  0  0  0  0  0  0
   38.5668   11.3946    6.8003 C   0  0  0  0  0  0  0  0  0  0  0  0
   39.2835   12.5370    6.5035 N   0  0  0  0  0  0  0  0  0  0  0  0
   40.2230   12.5205    5.5267 C   0  0  0  0  0  0  0  0  0  0  0  0
   40.4732   11.3555    4.8144 C   0  0  0  0  0  0  0  0  0  0  0  0
   39.7555   10.2018    5.1063 C   0  0  0  0  0  0  0  0  0  0  0  0
   39.9873    9.0799    4.4311 N   0  0  0  0  0  0  0  0  0  0  0  0
   41.4440   11.6194    3.9134 N   0  0  0  0  0  0  0  0  0  0  0  0
   41.8125   12.9153    4.0375 C   0  0  0  0  0  0  0  0  0  0  0  0
   41.0640   13.4870    5.0339 N   0  0  0  0  0  0  0  0  0  0  0  0
  2  1  1  6  0  0  0
  2  3  1  0  0  0  0
  2  5  1  0  0  0  0
  3  4  1  0  0  0  0
  3 16  1  0  0  0  0
  5  6  1  0  0  0  0
  6  7  1  0  0  0  0
  7  8  1  0  0  0  0
  9  8  1  1  0  0  0
  9 10  1  0  0  0  0
  9 11  1  0  0  0  0
 10 15  1  0  0  0  0
 11 12  1  6  0  0  0
 11 13  1  0  0  0  0
 13 14  1  6  0  0  0
 13 15  1  0  0  0  0
 15 26  1  6  0  0  0
 17 18  2  0  0  0  0
 17 22  1  0  0  0  0
 18 19  1  0  0  0  0
 19 20  2  0  0  0  0
 20 21  1  0  0  0  0
 20 26  1  0  0  0  0
 21 22  2  0  0  0  0
 21 24  1  0  0  0  0
 22 23  1  0  0  0  0
 24 25  2  0  0  0  0
 25 26  1  0  0  0  0
M  END
>  <CHROM.1>
-175.52257486,55.93188356,-82.08437157,149.97962744,-155.67286520,-97.61938822
34.45987407,38.61323423,14.60898449,6.61574288,-2.38714035,-0.62992766,-3.06440373

>  <Name>
ligand

>  <RI>
0

>  <Rbt.Current_Directory>
/home/itssahil/PROJECTS/Mol_Feturizer/New_Systems/rnas/3NPQ

>  <Rbt.Executable>
rbdock ($Id: //depot/dev/client3/rdock/2013.1/src/exe/rbdock.cxx#4 $)

>  <Rbt.Library>
libRbt.so (2013.1, Build901 2013/11/27)

>  <Rbt.Parameter_File>
/export/apps/rDock/src/rDock_2013.1_src/data/scripts/dock_solv.prm

>  <Rbt.Receptor>
prm/pocket_docking_5.prm

>  <SCORE>
-23.5259

>  <SCORE.INTER>
-25.4838

>  <SCORE.INTER.CONST>
1

>  <SCORE.INTER.POLAR>
0

>  <SCORE.INTER.ROT>
7

>  <SCORE.INTER.SOLV>
18.3362

>  <SCORE.INTER.VDW>
-31.3679

>  <SCORE.INTER.norm>
-0.980147

>  <SCORE.INTRA>
1.9579

>  <SCORE.INTRA.DIHEDRAL>
3.12168

>  <SCORE.INTRA.DIHEDRAL.0>
6.97628

>  <SCORE.INTRA.POLAR>
0

>  <SCORE.INTRA.POLAR.0>
0

>  <SCORE.INTRA.REPUL>
0

>  <SCORE.INTRA.REPUL.0>
0

>  <SCORE.INTRA.SOLV>
2.31085

>  <SCORE.INTRA.SOLV.lig_0>
-49.8243

>  <SCORE.INTRA.VDW>
-0.758368

>  <SCORE.INTRA.VDW.0>
-1.35881

>  <SCORE.INTRA.norm>
0.0753038

>  <SCORE.RESTR>
0

>  <SCORE.RESTR.CAVITY>
0

>  <SCORE.RESTR.norm>
0

>  <SCORE.SYSTEM>
0

>  <SCORE.SYSTEM.CONST>
0

>  <SCORE.SYSTEM.DIHEDRAL>
0

>  <SCORE.SYSTEM.SOLV>
0

>  <SCORE.SYSTEM.norm>
0

>  <SCORE.heavy>
26

>  <SCORE.norm>
-0.904843

>  <RMSD>
2.111

$$$$
ligand
 OpenBabel11021811483D
libRbt.so/2013.1/901 2013/11/27
 26 28  0  0  0  0  0  0  0  0999 V2000
   35.8466   18.2699    8.0052 N   0  0  0  0  0  0  0  0  0  0  0  0
   34.5426   17.7700    8.4225 C   0  0  2  0  0  0  0  0  0  0  0  0
   34.4369   17.7146    9.9423 C   0  0  0  0  0  0  0  0  0  0  0  0
   35.1533   16.9608   10.5999 O   0  0  0  0  0  0  0  0  0  0  0  0
   34.2856   16.3899    7.8304 C   0  0  0  0  0  0  0  0  0  0  0  0
   35.5506   15.6073    7.5035 C   0  0  0  0  0  0  0  0  0  0  0  0
   36.4059   15.0192    8.9871 S   0  0  0  0  0  0  0  0  0  0  0  0
   37.6274   14.1741    7.9517 C   0  0  0  0  0  0  0  0  0  0  0  0
   38.7973   15.0732    7.5693 C   0  0  1  0  0  0  0  0  0  0  0  0
   39.9690   14.2961    7.4010 O   0  0  0  0  0  0  0  0  0  0  0  0
   38.5348   15.8065    6.2640 C   0  0  1  0  0  0  0  0  0  0  0  0
   38.4914   17.1950    6.4929 O   0  0  0  0  0  0  0  0  0  0  0  0
   39.6991   15.4661    5.3570 C   0  0  1  0  0  0  0  0  0  0  0  0
   40.3600   16.6434    4.9553 O   0  0  0  0  0  0  0  0  0  0  0  0
   40.6310   14.6005    6.1875 C   0  0  2  0  0  0  0  0  0  0  0  0
   33.6325   18.4235   10.5483 O   0  0  0  0  0  0  0  0  0  0  0  0
   39.2760    9.6076    5.2916 N   0  0  0  0  0  0  0  0  0  0  0  0
   38.6586   10.5209    6.1224 C   0  0  0  0  0  0  0  0  0  0  0  0
   39.1564   11.8038    6.2370 N   0  0  0  0  0  0  0  0  0  0  0  0
   40.2553   12.1762    5.5364 C   0  0  0  0  0  0  0  0  0  0  0  0
   40.8905   11.2719    4.6962 C   0  0  0  0  0  0  0  0  0  0  0  0
   40.3953    9.9792    4.5745 C   0  0  0  0  0  0  0  0  0  0  0  0
   40.9961    9.1043    3.7734 N   0  0  0  0  0  0  0  0  0  0  0  0
   41.9434   11.8998    4.1294 N   0  0  0  0  0  0  0  0  0  0  0  0
   41.9900   13.1718    4.5880 C   0  0  0  0  0  0  0  0  0  0  0  0
   40.9495   13.3580    5.4613 N   0  0  0  0  0  0  0  0  0  0  0  0
  2  1  1  1  0  0  0
  2  3  1  0  0  0  0
  2  5  1  0  0  0  0
  3  4  1  0  0  0  0
  3 16  1  0  0  0  0
  5  6  1  0  0  0  0
  6  7  1  0  0  0  0
  7  8  1  0  0  0  0
  9  8  1  6  0  0  0
  9 10  1  0  0  0  0
  9 11  1  0  0  0  0
 10 15  1  0  0  0  0
 11 12  1  1  0  0  0
 11 13  1  0  0  0  0
 13 14  1  1  0  0  0
 13 15  1  0  0  0  0
 15 26  1  6  0  0  0
 17 18  2  0  0  0  0
 17 22  1  0  0  0  0
 18 19  1  0  0  0  0
 19 20  2  0  0  0  0
 20 21  1  0  0  0  0
 20 26  1  0  0  0  0
 21 22  2  0  0  0  0
 21 24  1  0  0  0  0
 22 23  1  0  0  0  0
 24 25  2  0  0  0  0
 25 26  1  0  0  0  0
M  END
>  <CHROM.1>
-64.61291417,25.50675329,71.99080690,176.93484873,87.80675842,149.95834230
27.97468836,38.24949751,14.45669790,6.87759180,-2.41327970,-0.60429073,-3.07380447

>  <Name>
ligand

>  <RI>
0

>  <Rbt.Current_Directory>
/home/itssahil/PROJECTS/Mol_Feturizer/New_Systems/rnas/3NPQ

>  <Rbt.Executable>
rbdock ($Id: //depot/dev/client3/rdock/2013.1/src/exe/rbdock.cxx#4 $)

>  <Rbt.Library>
libRbt.so (2013.1, Build901 2013/11/27)

>  <Rbt.Parameter_File>
/export/apps/rDock/src/rDock_2013.1_src/data/scripts/dock_solv.prm

>  <Rbt.Receptor>
prm/pocket_docking_5.prm

>  <SCORE>
-29.8451

>  <SCORE.INTER>
-31.9131

>  <SCORE.INTER.CONST>
1

>  <SCORE.INTER.POLAR>
0

>  <SCORE.INTER.ROT>
7

>  <SCORE.INTER.SOLV>
15.0852

>  <SCORE.INTER.VDW>
-34.5705

>  <SCORE.INTER.norm>
-1.22743

>  <SCORE.INTRA>
2.06797

>  <SCORE.INTRA.DIHEDRAL>
3.55515

>  <SCORE.INTRA.DIHEDRAL.0>
6.97628

>  <SCORE.INTRA.POLAR>
0

>  <SCORE.INTRA.POLAR.0>
0

>  <SCORE.INTRA.REPUL>
0

>  <SCORE.INTRA.REPUL.0>
0

>  <SCORE.INTRA.SOLV>
2.66007

>  <SCORE.INTRA.SOLV.lig_0>
-49.8243

>  <SCORE.INTRA.VDW>
-1.03964

>  <SCORE.INTRA.VDW.0>
-1.35881

>  <SCORE.INTRA.norm>
0.0795372

>  <SCORE.RESTR>
0

>  <SCORE.RESTR.CAVITY>
0

>  <SCORE.RESTR.norm>
0

>  <SCORE.SYSTEM>
0

>  <SCORE.SYSTEM.CONST>
0

>  <SCORE.SYSTEM.DIHEDRAL>
0

>  <SCORE.SYSTEM.SOLV>
0

>  <SCORE.SYSTEM.norm>
0

>  <SCORE.heavy>
26

>  <SCORE.norm>
-1.14789

>  <RMSD>
2.115

$$$$
ligand
 OpenBabel11021811483D
libRbt.so/2013.1/901 2013/11/27
 26 28  0  0  0  0  0  0  0  0999 V2000
   35.4619   19.7518    7.9326 N   0  0  0  0  0  0  0  0  0  0  0  0
   34.8571   18.4258    7.9090 C   0  0  2  0  0  0  0  0  0  0  0  0
   33.6223   18.3701    8.8013 C   0  0  0  0  0  0  0  0  0  0  0  0
   32.6017   17.7889    8.4347 O   0  0  0  0  0  0  0  0  0  0  0  0
   35.8658   17.3712    8.3465 C   0  0  0  0  0  0  0  0  0  0  0  0
   35.3752   15.9378    8.1901 C   0  0  0  0  0  0  0  0  0  0  0  0
   36.5318   14.7288    8.8822 S   0  0  0  0  0  0  0  0  0  0  0  0
   37.2999   14.5274    7.2551 C   0  0  0  0  0  0  0  0  0  0  0  0
   38.6056   15.3022    7.1207 C   0  0  1  0  0  0  0  0  0  0  0  0
   39.7044   14.4109    7.1767 O   0  0  0  0  0  0  0  0  0  0  0  0
   38.6791   16.0477    5.7982 C   0  0  1  0  0  0  0  0  0  0  0  0
   38.7296   17.4355    6.0306 O   0  0  0  0  0  0  0  0  0  0  0  0
   39.9594   15.5858    5.1337 C   0  0  1  0  0  0  0  0  0  0  0  0
   40.7999   16.6882    4.8838 O   0  0  0  0  0  0  0  0  0  0  0  0
   40.6191   14.6382    6.1208 C   0  0  2  0  0  0  0  0  0  0  0  0
   33.6169   18.9050    9.9107 O   0  0  0  0  0  0  0  0  0  0  0  0
   39.2500    9.6225    5.3892 N   0  0  0  0  0  0  0  0  0  0  0  0
   38.6151   10.5737    6.1622 C   0  0  0  0  0  0  0  0  0  0  0  0
   39.1200   11.8567    6.2393 N   0  0  0  0  0  0  0  0  0  0  0  0
   40.2430   12.1918    5.5586 C   0  0  0  0  0  0  0  0  0  0  0  0
   40.8961   11.2490    4.7764 C   0  0  0  0  0  0  0  0  0  0  0  0
   40.3940    9.9559    4.6927 C   0  0  0  0  0  0  0  0  0  0  0  0
   41.0117    9.0444    3.9473 N   0  0  0  0  0  0  0  0  0  0  0  0
   41.9712   11.8453    4.2174 N   0  0  0  0  0  0  0  0  0  0  0  0
   42.0145   13.1348    4.6245 C   0  0  0  0  0  0  0  0  0  0  0  0
   40.9492   13.3645    5.4565 N   0  0  0  0  0  0  0  0  0  0  0  0
  2  1  1  1  0  0  0
  2  3  1  0  0  0  0
  2  5  1  0  0  0  0
  3  4  1  0  0  0  0
  3 16  1  0  0  0  0
  5  6  1  0  0  0  0
  6  7  1  0  0  0  0
  7  8  1  0  0  0  0
  9  8  1  6  0  0  0
  9 10  1  0  0  0  0
  9 11  1  0  0  0  0
 10 15  1  0  0  0  0
 11 12  1  1  0  0  0
 11 13  1  0  0  0  0
 13 14  1  1  0  0  0
 13 15  1  0  0  0  0
 15 26  1  6  0  0  0
 17 18  2  0  0  0  0
 17 22  1  0  0  0  0
 18 19  1  0  0  0  0
 19 20  2  0  0  0  0
 20 21  1  0  0  0  0
 20 26  1  0  0  0  0
 21 22  2  0  0  0  0
 21 24  1  0  0  0  0
 22 23  1  0  0  0  0
 24 25  2  0  0  0  0
 25 26  1  0  0  0  0
M  END
>  <CHROM.1>
137.89901827,-172.90233854,-173.93800771,-93.70498557,100.83324100,105.51503701
16.74638572,38.18457928,14.68582338,6.65978802,-2.38437497,-0.52566636,-3.12546060

>  <Name>
ligand

>  <RI>
0

>  <Rbt.Current_Directory>
/home/itssahil/PROJECTS/Mol_Feturizer/New_Systems/rnas/3NPQ

>  <Rbt.Executable>
rbdock ($Id: //depot/dev/client3/rdock/2013.1/src/exe/rbdock.cxx#4 $)

>  <Rbt.Library>
libRbt.so (2013.1, Build901 2013/11/27)

>  <Rbt.Parameter_File>
/export/apps/rDock/src/rDock_2013.1_src/data/scripts/dock_solv.prm

>  <Rbt.Receptor>
prm/pocket_docking_8.prm

>  <SCORE>
-29.4609

>  <SCORE.INTER>
-29.3703

>  <SCORE.INTER.CONST>
1

>  <SCORE.INTER.POLAR>
0

>  <SCORE.INTER.ROT>
7

>  <SCORE.INTER.SOLV>
16.775

>  <SCORE.INTER.VDW>
-33.4385

>  <SCORE.INTER.norm>
-1.12963

>  <SCORE.INTRA>
-0.0906359

>  <SCORE.INTRA.DIHEDRAL>
3.84837

>  <SCORE.INTRA.DIHEDRAL.0>
6.97628

>  <SCORE.INTRA.POLAR>
0

>  <SCORE.INTRA.POLAR.0>
0

>  <SCORE.INTRA.REPUL>
0

>  <SCORE.INTRA.REPUL.0>
0

>  <SCORE.INTRA.SOLV>
-0.741546

>  <SCORE.INTRA.SOLV.lig_0>
-49.8243

>  <SCORE.INTRA.VDW>
-1.64405

>  <SCORE.INTRA.VDW.0>
-1.35881

>  <SCORE.INTRA.norm>
-0.003486

>  <SCORE.RESTR>
0

>  <SCORE.RESTR.CAVITY>
0

>  <SCORE.RESTR.norm>
0

>  <SCORE.SYSTEM>
0

>  <SCORE.SYSTEM.CONST>
0

>  <SCORE.SYSTEM.DIHEDRAL>
0

>  <SCORE.SYSTEM.SOLV>
0

>  <SCORE.SYSTEM.norm>
0

>  <SCORE.heavy>
26

>  <SCORE.norm>
-1.13311

>  <RMSD>
2.121

$$$$
ligand
 OpenBabel11021811483D
libRbt.so/2013.1/901 2013/11/27
 26 28  0  0  0  0  0  0  0  0999 V2000
   34.7870   17.1350   10.4436 N   0  0  0  0  0  0  0  0  0  0  0  0
   34.8968   17.3676    9.0089 C   0  0  2  0  0  0  0  0  0  0  0  0
   33.6916   18.1400    8.4846 C   0  0  0  0  0  0  0  0  0  0  0  0
   32.5721   17.6299    8.4650 O   0  0  0  0  0  0  0  0  0  0  0  0
   35.0354   16.0465    8.2630 C   0  0  0  0  0  0  0  0  0  0  0  0
   36.2813   15.2515    8.6311 C   0  0  0  0  0  0  0  0  0  0  0  0
   37.7717   16.2785    8.6770 S   0  0  0  0  0  0  0  0  0  0  0  0
   38.6873   14.9952    7.7866 C   0  0  0  0  0  0  0  0  0  0  0  0
   39.9457   15.5302    7.1132 C   0  0  1  0  0  0  0  0  0  0  0  0
   40.8884   14.4860    6.9516 O   0  0  0  0  0  0  0  0  0  0  0  0
   39.6435   16.1002    5.7369 C   0  0  1  0  0  0  0  0  0  0  0  0
   39.9274   17.4790    5.7145 O   0  0  0  0  0  0  0  0  0  0  0  0
   40.5559   15.3666    4.7759 C   0  0  1  0  0  0  0  0  0  0  0  0
   41.3781   16.2844    4.0933 O   0  0  0  0  0  0  0  0  0  0  0  0
   41.4034   14.4429    5.6339 C   0  0  2  0  0  0  0  0  0  0  0  0
   33.8094   19.2932    8.0685 O   0  0  0  0  0  0  0  0  0  0  0  0
   38.8458    9.8587    5.7399 N   0  0  0  0  0  0  0  0  0  0  0  0
   38.5597   11.0092    6.4470 C   0  0  0  0  0  0  0  0  0  0  0  0
   39.3472   12.1331    6.2938 N   0  0  0  0  0  0  0  0  0  0  0  0
   40.4076   12.1154    5.4499 C   0  0  0  0  0  0  0  0  0  0  0  0
   40.7118   10.9678    4.7305 C   0  0  0  0  0  0  0  0  0  0  0  0
   39.9238    9.8327    4.8782 C   0  0  0  0  0  0  0  0  0  0  0  0
   40.2062    8.7275    4.1950 N   0  0  0  0  0  0  0  0  0  0  0  0
   41.8025   11.2262    3.9771 N   0  0  0  0  0  0  0  0  0  0  0  0
   42.1939   12.5017    4.2009 C   0  0  0  0  0  0  0  0  0  0  0  0
   41.3385   13.0659    5.1119 N   0  0  0  0  0  0  0  0  0  0  0  0
  2  1  1  1  0  0  0
  2  3  1  0  0  0  0
  2  5  1  0  0  0  0
  3  4  1  0  0  0  0
  3 16  1  0  0  0  0
  5  6  1  0  0  0  0
  6  7  1  0  0  0  0
  7  8  1  0  0  0  0
  9  8  1  6  0  0  0
  9 10  1  0  0  0  0
  9 11  1  0  0  0  0
 10 15  1  0  0  0  0
 11 12  1  1  0  0  0
 11 13  1  0  0  0  0
 13 14  1  1  0  0  0
 13 15  1  0  0  0  0
 15 26  1  6  0  0  0
 17 18  2  0  0  0  0
 17 22  1  0  0  0  0
 18 19  1  0  0  0  0
 19 20  2  0  0  0  0
 20 21  1  0  0  0  0
 20 26  1  0  0  0  0
 21 22  2  0  0  0  0
 21 24  1  0  0  0  0
 22 23  1  0  0  0  0
 24 25  2  0  0  0  0
 25 26  1  0  0  0  0
M  END
>  <CHROM.1>
-67.63955998,-61.88836726,-45.94066489,-135.97643951,159.99272233,154.66426753
30.11954681,38.54438651,14.56310869,6.63059638,2.39504512,0.47851140,0.11488269

>  <Name>
ligand

>  <RI>
0

>  <Rbt.Current_Directory>
/home/itssahil/PROJECTS/Mol_Feturizer/New_Systems/rnas/3NPQ

>  <Rbt.Executable>
rbdock ($Id: //depot/dev/client3/rdock/2013.1/src/exe/rbdock.cxx#4 $)

>  <Rbt.Library>
libRbt.so (2013.1, Build901 2013/11/27)

>  <Rbt.Parameter_File>
/export/apps/rDock/src/rDock_2013.1_src/data/scripts/dock_solv.prm

>  <Rbt.Receptor>
prm/pocket_docking_2.prm

>  <SCORE>
-28.4243

>  <SCORE.INTER>
-28.07

>  <SCORE.INTER.CONST>
1

>  <SCORE.INTER.POLAR>
0

>  <SCORE.INTER.ROT>
7

>  <SCORE.INTER.SOLV>
22.9273

>  <SCORE.INTER.VDW>
-34.6224

>  <SCORE.INTER.norm>
-1.07962

>  <SCORE.INTRA>
-0.354273

>  <SCORE.INTRA.DIHEDRAL>
1.02295

>  <SCORE.INTRA.DIHEDRAL.0>
6.97628

>  <SCORE.INTRA.POLAR>
0

>  <SCORE.INTRA.POLAR.0>
0

>  <SCORE.INTRA.REPUL>
0

>  <SCORE.INTRA.REPUL.0>
0

>  <SCORE.INTRA.SOLV>
0.666865

>  <SCORE.INTRA.SOLV.lig_0>
-49.8243

>  <SCORE.INTRA.VDW>
-1.19918

>  <SCORE.INTRA.VDW.0>
-1.35881

>  <SCORE.INTRA.norm>
-0.0136259

>  <SCORE.RESTR>
0

>  <SCORE.RESTR.CAVITY>
0

>  <SCORE.RESTR.norm>
0

>  <SCORE.SYSTEM>
0

>  <SCORE.SYSTEM.CONST>
0

>  <SCORE.SYSTEM.DIHEDRAL>
0

>  <SCORE.SYSTEM.SOLV>
0

>  <SCORE.SYSTEM.norm>
0

>  <SCORE.heavy>
26

>  <SCORE.norm>
-1.09324

>  <RMSD>
2.124

$$$$
ligand
 OpenBabel11021811483D
libRbt.so/2013.1/901 2013/11/27
 26 28  0  0  0  0  0  0  0  0999 V2000
   33.2258   18.6554    8.1781 N   0  0  0  0  0  0  0  0  0  0  0  0
   33.8115   17.5256    8.8888 C   0  0  2  0  0  0  0  0  0  0  0  0
   34.8290   17.9954    9.9222 C   0  0  0  0  0  0  0  0  0  0  0  0
   34.7531   17.6335   11.0957 O   0  0  0  0  0  0  0  0  0  0  0  0
   34.4690   16.5616    7.9091 C   0  0  0  0  0  0  0  0  0  0  0  0
   35.0423   15.3089    8.5585 C   0  0  0  0  0  0  0  0  0  0  0  0
   36.6783   15.5887    9.2820 S   0  0  0  0  0  0  0  0  0  0  0  0
   37.4487   15.2505    7.6788 C   0  0  0  0  0  0  0  0  0  0  0  0
   38.8473   15.8450    7.5610 C   0  0  1  0  0  0  0  0  0  0  0  0
   39.8146   14.8109    7.5738 O   0  0  0  0  0  0  0  0  0  0  0  0
   39.0163   16.6230    6.2662 C   0  0  1  0  0  0  0  0  0  0  0  0
   39.2565   17.9812    6.5491 O   0  0  0  0  0  0  0  0  0  0  0  0
   40.2188   16.0166    5.5732 C   0  0  1  0  0  0  0  0  0  0  0  0
   41.2008   17.0030    5.3563 O   0  0  0  0  0  0  0  0  0  0  0  0
   40.7472   14.9514    6.5184 C   0  0  2  0  0  0  0  0  0  0  0  0
   35.7516   18.7481    9.6072 O   0  0  0  0  0  0  0  0  0  0  0  0
   38.8977   10.0803    5.8707 N   0  0  0  0  0  0  0  0  0  0  0  0
   38.4302   11.0619    6.7213 C   0  0  0  0  0  0  0  0  0  0  0  0
   39.0448   12.2979    6.7608 N   0  0  0  0  0  0  0  0  0  0  0  0
   40.1121   12.5567    5.9666 C   0  0  0  0  0  0  0  0  0  0  0  0
   40.5973   11.5823    5.1050 C   0  0  0  0  0  0  0  0  0  0  0  0
   39.9840   10.3362    5.0585 C   0  0  0  0  0  0  0  0  0  0  0  0
   40.4407    9.3949    4.2378 N   0  0  0  0  0  0  0  0  0  0  0  0
   41.6519   12.1025    4.4407 N   0  0  0  0  0  0  0  0  0  0  0  0
   41.8450   13.3747    4.8585 C   0  0  0  0  0  0  0  0  0  0  0  0
   40.8978   13.6706    5.8046 N   0  0  0  0  0  0  0  0  0  0  0  0
  2  1  1  6  0  0  0
  2  3  1  0  0  0  0
  2  5  1  0  0  0  0
  3  4  1  0  0  0  0
  3 16  1  0  0  0  0
  5  6  1  0  0  0  0
  6  7  1  0  0  0  0
  7  8  1  0  0  0  0
  9  8  1  6  0  0  0
  9 10  1  0  0  0  0
  9 11  1  0  0  0  0
 10 15  1  0  0  0  0
 11 12  1  1  0  0  0
 11 13  1  0  0  0  0
 13 14  1  1  0  0  0
 13 15  1  0  0  0  0
 15 26  1  6  0  0  0
 17 18  2  0  0  0  0
 17 22  1  0  0  0  0
 18 19  1  0  0  0  0
 19 20  2  0  0  0  0
 20 21  1  0  0  0  0
 20 26  1  0  0  0  0
 21 22  2  0  0  0  0
 21 24  1  0  0  0  0
 22 23  1  0  0  0  0
 24 25  2  0  0  0  0
 25 26  1  0  0  0  0
M  END
>  <CHROM.1>
127.14443619,-176.80403712,-81.70972201,-86.00369163,158.41209330,109.34912714
10.04810781,38.22808629,14.87887206,7.13665599,2.36812824,0.50862872,0.14667240

>  <Name>
ligand

>  <RI>
0

>  <Rbt.Current_Directory>
/home/itssahil/PROJECTS/Mol_Feturizer/New_Systems/rnas/3NPQ

>  <Rbt.Executable>
rbdock ($Id: //depot/dev/client3/rdock/2013.1/src/exe/rbdock.cxx#4 $)

>  <Rbt.Library>
libRbt.so (2013.1, Build901 2013/11/27)

>  <Rbt.Parameter_File>
/export/apps/rDock/src/rDock_2013.1_src/data/scripts/dock_solv.prm

>  <Rbt.Receptor>
prm/pocket_docking_3.prm

>  <SCORE>
-28.6921

>  <SCORE.INTER>
-28.7815

>  <SCORE.INTER.CONST>
1

>  <SCORE.INTER.POLAR>
0

>  <SCORE.INTER.ROT>
7

>  <SCORE.INTER.SOLV>
22.7128

>  <SCORE.INTER.VDW>
-35.0253

>  <SCORE.INTER.norm>
-1.10698

>  <SCORE.INTRA>
0.0893812

>  <SCORE.INTRA.DIHEDRAL>
3.84439

>  <SCORE.INTRA.DIHEDRAL.0>
6.97628

>  <SCORE.INTRA.POLAR>
0

>  <SCORE.INTRA.POLAR.0>
0

>  <SCORE.INTRA.REPUL>
0

>  <SCORE.INTRA.REPUL.0>
0

>  <SCORE.INTRA.SOLV>
-0.752576

>  <SCORE.INTRA.SOLV.lig_0>
-49.8243

>  <SCORE.INTRA.VDW>
-1.45653

>  <SCORE.INTRA.VDW.0>
-1.35881

>  <SCORE.INTRA.norm>
0.00343774

>  <SCORE.RESTR>
0

>  <SCORE.RESTR.CAVITY>
0

>  <SCORE.RESTR.norm>
0

>  <SCORE.SYSTEM>
0

>  <SCORE.SYSTEM.CONST>
0

>  <SCORE.SYSTEM.DIHEDRAL>
0

>  <SCORE.SYSTEM.SOLV>
0

>  <SCORE.SYSTEM.norm>
0

>  <SCORE.heavy>
26

>  <SCORE.norm>
-1.10354

>  <RMSD>
2.128

$$$$
ligand
 OpenBabel11021811483D
libRbt.so/2013.1/901 2013/11/27
 26 28  0  0  0  0  0  0  0  0999 V2000
   35.1147   16.6540   10.5627 N   0  0  0  0  0  0  0  0  0  0  0  0
   35.2325   17.1910    9.2128 C   0  0  2  0  0  0  0  0  0  0  0  0
   34.1290   18.2031    8.9268 C   0  0  0  0  0  0  0  0  0  0  0  0
   32.9734   17.8373    8.7154 O   0  0  0  0  0  0  0  0  0  0  0  0
   35.1894   16.0668    8.1854 C   0  0  0  0  0  0  0  0  0  0  0  0
   36.1663   14.9318    8.4633 C   0  0  0  0  0  0  0  0  0  0  0  0
   37.8718   15.5124    8.6441 S   0  0  0  0  0  0  0  0  0  0  0  0
   38.0970   15.4192    6.8500 C   0  0  0  0  0  0  0  0  0  0  0  0
   39.4777   15.8874    6.4052 C   0  0  1  0  0  0  0  0  0  0  0  0
   40.4148   14.8360    6.5514 O   0  0  0  0  0  0  0  0  0  0  0  0
   39.4801   16.3122    4.9458 C   0  0  1  0  0  0  0  0  0  0  0  0
   39.7866   17.6826    4.8443 O   0  0  0  0  0  0  0  0  0  0  0  0
   40.5603   15.4877    4.2769 C   0  0  1  0  0  0  0  0  0  0  0  0
   41.5231   16.3340    3.6928 O   0  0  0  0  0  0  0  0  0  0  0  0
   41.1931   14.6602    5.3824 C   0  0  2  0  0  0  0  0  0  0  0  0
   34.3675   19.4111    8.9009 O   0  0  0  0  0  0  0  0  0  0  0  0
   38.8765    9.9761    5.8920 N   0  0  0  0  0  0  0  0  0  0  0  0
   38.5113   11.1737    6.4732 C   0  0  0  0  0  0  0  0  0  0  0  0
   39.2429   12.3183    6.2253 N   0  0  0  0  0  0  0  0  0  0  0  0
   40.3258   12.2750    5.4113 C   0  0  0  0  0  0  0  0  0  0  0  0
   40.7092   11.0800    4.8180 C   0  0  0  0  0  0  0  0  0  0  0  0
   39.9777    9.9238    5.0615 C   0  0  0  0  0  0  0  0  0  0  0  0
   40.3363    8.7733    4.4994 N   0  0  0  0  0  0  0  0  0  0  0  0
   41.8053   11.3216    4.0669 N   0  0  0  0  0  0  0  0  0  0  0  0
   42.1233   12.6325    4.1699 C   0  0  0  0  0  0  0  0  0  0  0  0
   41.2147   13.2368    5.0002 N   0  0  0  0  0  0  0  0  0  0  0  0
  2  1  1  1  0  0  0
  2  3  1  0  0  0  0
  2  5  1  0  0  0  0
  3  4  1  0  0  0  0
  3 16  1  0  0  0  0
  5  6  1  0  0  0  0
  6  7  1  0  0  0  0
  7  8  1  0  0  0  0
  9  8  1  6  0  0  0
  9 10  1  0  0  0  0
  9 11  1  0  0  0  0
 10 15  1  0  0  0  0
 11 12  1  1  0  0  0
 11 13  1  0  0  0  0
 13 14  1  1  0  0  0
 13 15  1  0  0  0  0
 15 26  1  6  0  0  0
 17 18  2  0  0  0  0
 17 22  1  0  0  0  0
 18 19  1  0  0  0  0
 19 20  2  0  0  0  0
 20 21  1  0  0  0  0
 20 26  1  0  0  0  0
 21 22  2  0  0  0  0
 21 24  1  0  0  0  0
 22 23  1  0  0  0  0
 24 25  2  0  0  0  0
 25 26  1  0  0  0  0
M  END
>  <CHROM.1>
-74.66228441,-51.26583139,-54.68134343,-86.07049407,177.94132694,82.47662066
18.89366855,38.55485429,14.59533542,6.52710849,2.49066840,0.64026577,-0.03756029

>  <Name>
ligand

>  <RI>
0

>  <Rbt.Current_Directory>
/home/itssahil/PROJECTS/Mol_Feturizer/New_Systems/rnas/3NPQ

>  <Rbt.Executable>
rbdock ($Id: //depot/dev/client3/rdock/2013.1/src/exe/rbdock.cxx#4 $)

>  <Rbt.Library>
libRbt.so (2013.1, Build901 2013/11/27)

>  <Rbt.Parameter_File>
/export/apps/rDock/src/rDock_2013.1_src/data/scripts/dock_solv.prm

>  <Rbt.Receptor>
prm/pocket_docking_8.prm

>  <SCORE>
-27.1826

>  <SCORE.INTER>
-25.882

>  <SCORE.INTER.CONST>
1

>  <SCORE.INTER.POLAR>
0

>  <SCORE.INTER.ROT>
7

>  <SCORE.INTER.SOLV>
22.735

>  <SCORE.INTER.VDW>
-33.0997

>  <SCORE.INTER.norm>
-0.995461

>  <SCORE.INTRA>
-1.30059

>  <SCORE.INTRA.DIHEDRAL>
-1.32772

>  <SCORE.INTRA.DIHEDRAL.0>
6.97628

>  <SCORE.INTRA.POLAR>
0

>  <SCORE.INTRA.POLAR.0>
0

>  <SCORE.INTRA.REPUL>
0

>  <SCORE.INTRA.REPUL.0>
0

>  <SCORE.INTRA.SOLV>
0.679161

>  <SCORE.INTRA.SOLV.lig_0>
-49.8243

>  <SCORE.INTRA.VDW>
-0.976309

>  <SCORE.INTRA.VDW.0>
-1.35881

>  <SCORE.INTRA.norm>
-0.0500225

>  <SCORE.RESTR>
0

>  <SCORE.RESTR.CAVITY>
0

>  <SCORE.RESTR.norm>
0

>  <SCORE.SYSTEM>
0

>  <SCORE.SYSTEM.CONST>
0

>  <SCORE.SYSTEM.DIHEDRAL>
0

>  <SCORE.SYSTEM.SOLV>
0

>  <SCORE.SYSTEM.norm>
0

>  <SCORE.heavy>
26

>  <SCORE.norm>
-1.04548

>  <RMSD>
2.129

$$$$
ligand
 OpenBabel11021811483D
libRbt.so/2013.1/901 2013/11/27
 26 28  0  0  0  0  0  0  0  0999 V2000
   36.0182   18.7625    9.4507 N   0  0  0  0  0  0  0  0  0  0  0  0
   35.0853   17.8758    8.7666 C   0  0  2  0  0  0  0  0  0  0  0  0
   33.6528   18.1297    9.2222 C   0  0  0  0  0  0  0  0  0  0  0  0
   32.6994   17.8651    8.4910 O   0  0  0  0  0  0  0  0  0  0  0  0
   35.4596   16.4188    9.0074 C   0  0  0  0  0  0  0  0  0  0  0  0
   36.9187   16.0944    8.7150 C   0  0  0  0  0  0  0  0  0  0  0  0
   37.1689   14.3555    8.2767 S   0  0  0  0  0  0  0  0  0  0  0  0
   37.5881   14.8395    6.5831 C   0  0  0  0  0  0  0  0  0  0  0  0
   38.9742   15.4644    6.4757 C   0  0  1  0  0  0  0  0  0  0  0  0
   39.9673   14.4714    6.6561 O   0  0  0  0  0  0  0  0  0  0  0  0
   39.1959   16.1010    5.1134 C   0  0  1  0  0  0  0  0  0  0  0  0
   39.3817   17.4894    5.2559 O   0  0  0  0  0  0  0  0  0  0  0  0
   40.4526   15.4633    4.5585 C   0  0  1  0  0  0  0  0  0  0  0  0
   41.4178   16.4526    4.2866 O   0  0  0  0  0  0  0  0  0  0  0  0
   40.9550   14.5267    5.6438 C   0  0  2  0  0  0  0  0  0  0  0  0
   33.4156   18.6052   10.3332 O   0  0  0  0  0  0  0  0  0  0  0  0
   39.2643    9.5610    5.4202 N   0  0  0  0  0  0  0  0  0  0  0  0
   38.7191   10.6145    6.1261 C   0  0  0  0  0  0  0  0  0  0  0  0
   39.3012   11.8653    6.0682 N   0  0  0  0  0  0  0  0  0  0  0  0
   40.4128   12.0684    5.3198 C   0  0  0  0  0  0  0  0  0  0  0  0
   40.9762   11.0214    4.6033 C   0  0  0  0  0  0  0  0  0  0  0  0
   40.3959    9.7597    4.6554 C   0  0  0  0  0  0  0  0  0  0  0  0
   40.9275    8.7492    3.9739 N   0  0  0  0  0  0  0  0  0  0  0  0
   42.0604   11.4978    3.9540 N   0  0  0  0  0  0  0  0  0  0  0  0
   42.1963   12.8130    4.2406 C   0  0  0  0  0  0  0  0  0  0  0  0
   41.1818   13.1812    5.0863 N   0  0  0  0  0  0  0  0  0  0  0  0
  2  1  1  1  0  0  0
  2  3  1  0  0  0  0
  2  5  1  0  0  0  0
  3  4  1  0  0  0  0
  3 16  1  0  0  0  0
  5  6  1  0  0  0  0
  6  7  1  0  0  0  0
  7  8  1  0  0  0  0
  9  8  1  6  0  0  0
  9 10  1  0  0  0  0
  9 11  1  0  0  0  0
 10 15  1  0  0  0  0
 11 12  1  1  0  0  0
 11 13  1  0  0  0  0
 13 14  1  1  0  0  0
 13 15  1  0  0  0  0
 15 26  1  6  0  0  0
 17 18  2  0  0  0  0
 17 22  1  0  0  0  0
 18 19  1  0  0  0  0
 19 20  2  0  0  0  0
 20 21  1  0  0  0  0
 20 26  1  0  0  0  0
 21 22  2  0  0  0  0
 21 24  1  0  0  0  0
 22 23  1  0  0  0  0
 24 25  2  0  0  0  0
 25 26  1  0  0  0  0
M  END
>  <CHROM.1>
154.26121007,-51.10963893,-153.97483983,111.85477019,74.16355442,71.44236879
10.62814055,38.47568276,14.49752621,6.52854950,-2.43120305,-0.59588965,-3.11292788

>  <Name>
ligand

>  <RI>
0

>  <Rbt.Current_Directory>
/home/itssahil/PROJECTS/Mol_Feturizer/New_Systems/rnas/3NPQ

>  <Rbt.Executable>
rbdock ($Id: //depot/dev/client3/rdock/2013.1/src/exe/rbdock.cxx#4 $)

>  <Rbt.Library>
libRbt.so (2013.1, Build901 2013/11/27)

>  <Rbt.Parameter_File>
/export/apps/rDock/src/rDock_2013.1_src/data/scripts/dock_solv.prm

>  <Rbt.Receptor>
prm/pocket_docking_3.prm

>  <SCORE>
-28.7902

>  <SCORE.INTER>
-28.3389

>  <SCORE.INTER.CONST>
1

>  <SCORE.INTER.POLAR>
0

>  <SCORE.INTER.ROT>
7

>  <SCORE.INTER.SOLV>
18.9434

>  <SCORE.INTER.VDW>
-33.4738

>  <SCORE.INTER.norm>
-1.08996

>  <SCORE.INTRA>
-0.451277

>  <SCORE.INTRA.DIHEDRAL>
1.24463

>  <SCORE.INTRA.DIHEDRAL.0>
6.97628

>  <SCORE.INTRA.POLAR>
0

>  <SCORE.INTRA.POLAR.0>
0

>  <SCORE.INTRA.REPUL>
0

>  <SCORE.INTRA.REPUL.0>
0

>  <SCORE.INTRA.SOLV>
-0.0623316

>  <SCORE.INTRA.SOLV.lig_0>
-49.8243

>  <SCORE.INTRA.VDW>
-1.04243

>  <SCORE.INTRA.VDW.0>
-1.35881

>  <SCORE.INTRA.norm>
-0.0173568

>  <SCORE.RESTR>
0

>  <SCORE.RESTR.CAVITY>
0

>  <SCORE.RESTR.norm>
0

>  <SCORE.SYSTEM>
0

>  <SCORE.SYSTEM.CONST>
0

>  <SCORE.SYSTEM.DIHEDRAL>
0

>  <SCORE.SYSTEM.SOLV>
0

>  <SCORE.SYSTEM.norm>
0

>  <SCORE.heavy>
26

>  <SCORE.norm>
-1.10732

>  <RMSD>
2.130

$$$$
ligand
 OpenBabel11021811483D
libRbt.so/2013.1/901 2013/11/27
 26 28  0  0  0  0  0  0  0  0999 V2000
   35.7221   18.8924    8.2175 N   0  0  0  0  0  0  0  0  0  0  0  0
   34.7574   17.8054    8.1064 C   0  0  2  0  0  0  0  0  0  0  0  0
   33.4803   18.1247    8.8753 C   0  0  0  0  0  0  0  0  0  0  0  0
   32.3759   17.8332    8.4177 O   0  0  0  0  0  0  0  0  0  0  0  0
   35.3610   16.5021    8.6144 C   0  0  0  0  0  0  0  0  0  0  0  0
   36.5476   16.0060    7.7986 C   0  0  0  0  0  0  0  0  0  0  0  0
   37.1498   14.3931    8.3592 S   0  0  0  0  0  0  0  0  0  0  0  0
   37.9064   14.1089    6.7390 C   0  0  0  0  0  0  0  0  0  0  0  0
   39.2554   14.8026    6.5898 C   0  0  1  0  0  0  0  0  0  0  0  0
   40.2975   13.8444    6.6207 O   0  0  0  0  0  0  0  0  0  0  0  0
   39.3544   15.5542    5.2724 C   0  0  1  0  0  0  0  0  0  0  0  0
   39.4946   16.9339    5.5153 O   0  0  0  0  0  0  0  0  0  0  0  0
   40.5929   15.0198    4.5834 C   0  0  1  0  0  0  0  0  0  0  0  0
   41.4963   16.0703    4.3289 O   0  0  0  0  0  0  0  0  0  0  0  0
   41.2078   14.0242    5.5519 C   0  0  2  0  0  0  0  0  0  0  0  0
   33.5233   18.6815    9.9730 O   0  0  0  0  0  0  0  0  0  0  0  0
   39.5744    9.0800    4.8780 N   0  0  0  0  0  0  0  0  0  0  0  0
   39.0203   10.0573    5.6800 C   0  0  0  0  0  0  0  0  0  0  0  0
   39.5875   11.3151    5.7354 N   0  0  0  0  0  0  0  0  0  0  0  0
   40.6929   11.5998    5.0048 C   0  0  0  0  0  0  0  0  0  0  0  0
   41.2652   10.6301    4.1927 C   0  0  0  0  0  0  0  0  0  0  0  0
   40.6999    9.3620    4.1305 C   0  0  0  0  0  0  0  0  0  0  0  0
   41.2400    8.4250    3.3569 N   0  0  0  0  0  0  0  0  0  0  0  0
   42.3405   11.1774    3.5861 N   0  0  0  0  0  0  0  0  0  0  0  0
   42.4623   12.4622    3.9921 C   0  0  0  0  0  0  0  0  0  0  0  0
   41.4478   12.7386    4.8720 N   0  0  0  0  0  0  0  0  0  0  0  0
  2  1  1  1  0  0  0
  2  3  1  0  0  0  0
  2  5  1  0  0  0  0
  3  4  1  0  0  0  0
  3 16  1  0  0  0  0
  5  6  1  0  0  0  0
  6  7  1  0  0  0  0
  7  8  1  0  0  0  0
  9  8  1  6  0  0  0
  9 10  1  0  0  0  0
  9 11  1  0  0  0  0
 10 15  1  0  0  0  0
 11 12  1  1  0  0  0
 11 13  1  0  0  0  0
 13 14  1  1  0  0  0
 13 15  1  0  0  0  0
 15 26  1  6  0  0  0
 17 18  2  0  0  0  0
 17 22  1  0  0  0  0
 18 19  1  0  0  0  0
 19 20  2  0  0  0  0
 20 21  1  0  0  0  0
 20 26  1  0  0  0  0
 21 22  2  0  0  0  0
 21 24  1  0  0  0  0
 22 23  1  0  0  0  0
 24 25  2  0  0  0  0
 25 26  1  0  0  0  0
M  END
>  <CHROM.1>
140.11764635,-63.96867004,-175.53919581,157.83740954,81.14329032,107.62260135
14.80719877,38.58275779,14.18758471,6.27284791,-2.39361563,-0.51764925,-3.06541586

>  <Name>
ligand

>  <RI>
0

>  <Rbt.Current_Directory>
/home/itssahil/PROJECTS/Mol_Feturizer/New_Systems/rnas/3NPQ

>  <Rbt.Executable>
rbdock ($Id: //depot/dev/client3/rdock/2013.1/src/exe/rbdock.cxx#4 $)

>  <Rbt.Library>
libRbt.so (2013.1, Build901 2013/11/27)

>  <Rbt.Parameter_File>
/export/apps/rDock/src/rDock_2013.1_src/data/scripts/dock_solv.prm

>  <Rbt.Receptor>
prm/pocket_docking_4.prm

>  <SCORE>
-29.7034

>  <SCORE.INTER>
-29.3386

>  <SCORE.INTER.CONST>
1

>  <SCORE.INTER.POLAR>
0

>  <SCORE.INTER.ROT>
7

>  <SCORE.INTER.SOLV>
15.5668

>  <SCORE.INTER.VDW>
-33.0147

>  <SCORE.INTER.norm>
-1.12841

>  <SCORE.INTRA>
-0.364781

>  <SCORE.INTRA.DIHEDRAL>
1.96216

>  <SCORE.INTRA.DIHEDRAL.0>
6.97628

>  <SCORE.INTRA.POLAR>
0

>  <SCORE.INTRA.POLAR.0>
0

>  <SCORE.INTRA.REPUL>
0

>  <SCORE.INTRA.REPUL.0>
0

>  <SCORE.INTRA.SOLV>
-0.183608

>  <SCORE.INTRA.SOLV.lig_0>
-49.8243

>  <SCORE.INTRA.VDW>
-1.25406

>  <SCORE.INTRA.VDW.0>
-1.35881

>  <SCORE.INTRA.norm>
-0.01403

>  <SCORE.RESTR>
0

>  <SCORE.RESTR.CAVITY>
0

>  <SCORE.RESTR.norm>
0

>  <SCORE.SYSTEM>
0

>  <SCORE.SYSTEM.CONST>
0

>  <SCORE.SYSTEM.DIHEDRAL>
0

>  <SCORE.SYSTEM.SOLV>
0

>  <SCORE.SYSTEM.norm>
0

>  <SCORE.heavy>
26

>  <SCORE.norm>
-1.14244

>  <RMSD>
2.131

$$$$
ligand
 OpenBabel11021811483D
libRbt.so/2013.1/901 2013/11/27
 26 28  0  0  0  0  0  0  0  0999 V2000
   34.1150   18.5838    7.8738 N   0  0  0  0  0  0  0  0  0  0  0  0
   34.4146   17.2396    8.3511 C   0  0  2  0  0  0  0  0  0  0  0  0
   34.6459   17.2313    9.8579 C   0  0  0  0  0  0  0  0  0  0  0  0
   35.1375   16.2522   10.4179 O   0  0  0  0  0  0  0  0  0  0  0  0
   35.6346   16.6775    7.6322 C   0  0  0  0  0  0  0  0  0  0  0  0
   35.8096   15.1724    7.7869 C   0  0  0  0  0  0  0  0  0  0  0  0
   37.2558   14.5465    6.8952 S   0  0  0  0  0  0  0  0  0  0  0  0
   38.3396   15.1898    8.1950 C   0  0  0  0  0  0  0  0  0  0  0  0
   39.6297   15.7859    7.6440 C   0  0  1  0  0  0  0  0  0  0  0  0
   40.5845   14.7614    7.4344 O   0  0  0  0  0  0  0  0  0  0  0  0
   39.3987   16.4847    6.3141 C   0  0  1  0  0  0  0  0  0  0  0  0
   39.6771   17.8592    6.4384 O   0  0  0  0  0  0  0  0  0  0  0  0
   40.3644   15.8457    5.3378 C   0  0  1  0  0  0  0  0  0  0  0  0
   41.2176   16.8239    4.7907 O   0  0  0  0  0  0  0  0  0  0  0  0
   41.1691   14.8438    6.1480 C   0  0  2  0  0  0  0  0  0  0  0  0
   34.3468   18.2046   10.5508 O   0  0  0  0  0  0  0  0  0  0  0  0
   38.8659   10.1294    5.9565 N   0  0  0  0  0  0  0  0  0  0  0  0
   38.5718   11.1867    6.7938 C   0  0  0  0  0  0  0  0  0  0  0  0
   39.2873   12.3643    6.7040 N   0  0  0  0  0  0  0  0  0  0  0  0
   40.2844   12.4912    5.7948 C   0  0  0  0  0  0  0  0  0  0  0  0
   40.5955   11.4390    4.9443 C   0  0  0  0  0  0  0  0  0  0  0  0
   39.8797   10.2508    5.0277 C   0  0  0  0  0  0  0  0  0  0  0  0
   40.1695    9.2360    4.2188 N   0  0  0  0  0  0  0  0  0  0  0  0
   41.6150   11.8331    4.1510 N   0  0  0  0  0  0  0  0  0  0  0  0
   41.9549   13.1014    4.4768 C   0  0  0  0  0  0  0  0  0  0  0  0
   41.1385   13.5230    5.4945 N   0  0  0  0  0  0  0  0  0  0  0  0
  2  1  1  6  0  0  0
  2  3  1  0  0  0  0
  2  5  1  0  0  0  0
  3  4  1  0  0  0  0
  3 16  1  0  0  0  0
  5  6  1  0  0  0  0
  6  7  1  0  0  0  0
  7  8  1  0  0  0  0
  9  8  1  6  0  0  0
  9 10  1  0  0  0  0
  9 11  1  0  0  0  0
 10 15  1  0  0  0  0
 11 12  1  1  0  0  0
 11 13  1  0  0  0  0
 13 14  1  1  0  0  0
 13 15  1  0  0  0  0
 15 26  1  6  0  0  0
 17 18  2  0  0  0  0
 17 22  1  0  0  0  0
 18 19  1  0  0  0  0
 19 20  2  0  0  0  0
 20 21  1  0  0  0  0
 20 26  1  0  0  0  0
 21 22  2  0  0  0  0
 21 24  1  0  0  0  0
 22 23  1  0  0  0  0
 24 25  2  0  0  0  0
 25 26  1  0  0  0  0
M  END
>  <CHROM.1>
-167.12801041,-164.82372835,179.09502982,76.85097800,-141.13069973,-83.94435322
22.48085346,38.51474403,14.60491108,6.79737607,-2.38463651,-0.51074757,-3.00043378

>  <Name>
ligand

>  <RI>
0

>  <Rbt.Current_Directory>
/home/itssahil/PROJECTS/Mol_Feturizer/New_Systems/rnas/3NPQ

>  <Rbt.Executable>
rbdock ($Id: //depot/dev/client3/rdock/2013.1/src/exe/rbdock.cxx#4 $)

>  <Rbt.Library>
libRbt.so (2013.1, Build901 2013/11/27)

>  <Rbt.Parameter_File>
/export/apps/rDock/src/rDock_2013.1_src/data/scripts/dock_solv.prm

>  <Rbt.Receptor>
prm/pocket_docking_7.prm

>  <SCORE>
-26.7378

>  <SCORE.INTER>
-26.2309

>  <SCORE.INTER.CONST>
1

>  <SCORE.INTER.POLAR>
0

>  <SCORE.INTER.ROT>
7

>  <SCORE.INTER.SOLV>
19.5588

>  <SCORE.INTER.VDW>
-32.2735

>  <SCORE.INTER.norm>
-1.00888

>  <SCORE.INTRA>
-0.506948

>  <SCORE.INTRA.DIHEDRAL>
0.533291

>  <SCORE.INTRA.DIHEDRAL.0>
6.97628

>  <SCORE.INTRA.POLAR>
0

>  <SCORE.INTRA.POLAR.0>
0

>  <SCORE.INTRA.REPUL>
0

>  <SCORE.INTRA.REPUL.0>
0

>  <SCORE.INTRA.SOLV>
-0.45588

>  <SCORE.INTRA.SOLV.lig_0>
-49.8243

>  <SCORE.INTRA.VDW>
-0.545654

>  <SCORE.INTRA.VDW.0>
-1.35881

>  <SCORE.INTRA.norm>
-0.019498

>  <SCORE.RESTR>
0

>  <SCORE.RESTR.CAVITY>
0

>  <SCORE.RESTR.norm>
0

>  <SCORE.SYSTEM>
0

>  <SCORE.SYSTEM.CONST>
0

>  <SCORE.SYSTEM.DIHEDRAL>
0

>  <SCORE.SYSTEM.SOLV>
0

>  <SCORE.SYSTEM.norm>
0

>  <SCORE.heavy>
26

>  <SCORE.norm>
-1.02838

>  <RMSD>
2.132

$$$$
ligand
 OpenBabel11021811483D
libRbt.so/2013.1/901 2013/11/27
 26 28  0  0  0  0  0  0  0  0999 V2000
   34.8811   17.4936   10.9420 N   0  0  0  0  0  0  0  0  0  0  0  0
   35.3032   17.1342    9.5939 C   0  0  2  0  0  0  0  0  0  0  0  0
   34.4202   17.8024    8.5461 C   0  0  0  0  0  0  0  0  0  0  0  0
   34.9117   18.3532    7.5618 O   0  0  0  0  0  0  0  0  0  0  0  0
   35.2768   15.6218    9.4118 C   0  0  0  0  0  0  0  0  0  0  0  0
   36.0485   15.1278    8.1952 C   0  0  0  0  0  0  0  0  0  0  0  0
   37.8419   15.2357    8.4199 S   0  0  0  0  0  0  0  0  0  0  0  0
   38.0713   15.2169    6.6240 C   0  0  0  0  0  0  0  0  0  0  0  0
   39.4527   15.7037    6.2021 C   0  0  1  0  0  0  0  0  0  0  0  0
   40.4020   14.6662    6.3672 O   0  0  0  0  0  0  0  0  0  0  0  0
   39.4744   16.1252    4.7419 C   0  0  1  0  0  0  0  0  0  0  0  0
   39.7632   17.4996    4.6424 O   0  0  0  0  0  0  0  0  0  0  0  0
   40.5778   15.3148    4.0939 C   0  0  1  0  0  0  0  0  0  0  0  0
   41.5384   16.1734    3.5246 O   0  0  0  0  0  0  0  0  0  0  0  0
   41.2030   14.4988    5.2123 C   0  0  2  0  0  0  0  0  0  0  0  0
   33.1939   17.8064    8.6594 O   0  0  0  0  0  0  0  0  0  0  0  0
   38.9706    9.7747    5.7287 N   0  0  0  0  0  0  0  0  0  0  0  0
   38.5821   10.9671    6.3057 C   0  0  0  0  0  0  0  0  0  0  0  0
   39.2935   12.1241    6.0566 N   0  0  0  0  0  0  0  0  0  0  0  0
   40.3790   12.0983    5.2455 C   0  0  0  0  0  0  0  0  0  0  0  0
   40.7857   10.9089    4.6565 C   0  0  0  0  0  0  0  0  0  0  0  0
   40.0747    9.7402    4.9013 C   0  0  0  0  0  0  0  0  0  0  0  0
   40.4557    8.5949    4.3433 N   0  0  0  0  0  0  0  0  0  0  0  0
   41.8793   11.1684    3.9076 N   0  0  0  0  0  0  0  0  0  0  0  0
   42.1730   12.4852    4.0078 C   0  0  0  0  0  0  0  0  0  0  0  0
   41.2515   13.0750    4.8341 N   0  0  0  0  0  0  0  0  0  0  0  0
  2  1  1  1  0  0  0
  2  3  1  0  0  0  0
  2  5  1  0  0  0  0
  3  4  1  0  0  0  0
  3 16  1  0  0  0  0
  5  6  1  0  0  0  0
  6  7  1  0  0  0  0
  7  8  1  0  0  0  0
  9  8  1  6  0  0  0
  9 10  1  0  0  0  0
  9 11  1  0  0  0  0
 10 15  1  0  0  0  0
 11 12  1  1  0  0  0
 11 13  1  0  0  0  0
 13 14  1  1  0  0  0
 13 15  1  0  0  0  0
 15 26  1  6  0  0  0
 17 18  2  0  0  0  0
 17 22  1  0  0  0  0
 18 19  1  0  0  0  0
 19 20  2  0  0  0  0
 20 21  1  0  0  0  0
 20 26  1  0  0  0  0
 21 22  2  0  0  0  0
 21 24  1  0  0  0  0
 22 23  1  0  0  0  0
 24 25  2  0  0  0  0
 25 26  1  0  0  0  0
M  END
>  <CHROM.1>
134.42825668,-164.14004339,72.90134283,-158.47958119,162.89131835,79.71247204
18.01848735,38.60994522,14.41711721,6.38455374,2.52404677,0.68404235,-0.07421722

>  <Name>
ligand

>  <RI>
0

>  <Rbt.Current_Directory>
/home/itssahil/PROJECTS/Mol_Feturizer/New_Systems/rnas/3NPQ

>  <Rbt.Executable>
rbdock ($Id: //depot/dev/client3/rdock/2013.1/src/exe/rbdock.cxx#4 $)

>  <Rbt.Library>
libRbt.so (2013.1, Build901 2013/11/27)

>  <Rbt.Parameter_File>
/export/apps/rDock/src/rDock_2013.1_src/data/scripts/dock_solv.prm

>  <Rbt.Receptor>
prm/pocket_docking_8.prm

>  <SCORE>
-27.8021

>  <SCORE.INTER>
-25.4534

>  <SCORE.INTER.CONST>
1

>  <SCORE.INTER.POLAR>
0

>  <SCORE.INTER.ROT>
7

>  <SCORE.INTER.SOLV>
24.383

>  <SCORE.INTER.VDW>
-33.3633

>  <SCORE.INTER.norm>
-0.978978

>  <SCORE.INTRA>
-2.35815

>  <SCORE.INTRA.DIHEDRAL>
-0.355895

>  <SCORE.INTRA.DIHEDRAL.0>
6.97628

>  <SCORE.INTRA.POLAR>
0

>  <SCORE.INTRA.POLAR.0>
0

>  <SCORE.INTRA.REPUL>
0

>  <SCORE.INTRA.REPUL.0>
0

>  <SCORE.INTRA.SOLV>
-0.764739

>  <SCORE.INTRA.SOLV.lig_0>
-49.8243

>  <SCORE.INTRA.VDW>
-1.79783

>  <SCORE.INTRA.VDW.0>
-1.35881

>  <SCORE.INTRA.norm>
-0.0906981

>  <SCORE.RESTR>
0.00945707

>  <SCORE.RESTR.CAVITY>
0.00945707

>  <SCORE.RESTR.norm>
0.000363734

>  <SCORE.SYSTEM>
0

>  <SCORE.SYSTEM.CONST>
0

>  <SCORE.SYSTEM.DIHEDRAL>
0

>  <SCORE.SYSTEM.SOLV>
0

>  <SCORE.SYSTEM.norm>
0

>  <SCORE.heavy>
26

>  <SCORE.norm>
-1.06931

>  <RMSD>
2.134

$$$$
ligand
 OpenBabel11021811483D
libRbt.so/2013.1/901 2013/11/27
 26 28  0  0  0  0  0  0  0  0999 V2000
   36.0151   18.8539    9.4181 N   0  0  0  0  0  0  0  0  0  0  0  0
   35.1036   17.9205    8.7681 C   0  0  2  0  0  0  0  0  0  0  0  0
   33.6719   18.1269    9.2492 C   0  0  0  0  0  0  0  0  0  0  0  0
   32.7149   17.7968    8.5499 O   0  0  0  0  0  0  0  0  0  0  0  0
   35.5389   16.4832    9.0246 C   0  0  0  0  0  0  0  0  0  0  0  0
   36.9536   16.1683    8.5567 C   0  0  0  0  0  0  0  0  0  0  0  0
   37.1972   14.4061    8.2196 S   0  0  0  0  0  0  0  0  0  0  0  0
   37.6733   14.7944    6.5165 C   0  0  0  0  0  0  0  0  0  0  0  0
   39.0701   15.3968    6.4187 C   0  0  1  0  0  0  0  0  0  0  0  0
   40.0457   14.3879    6.6068 O   0  0  0  0  0  0  0  0  0  0  0  0
   39.3118   16.0287    5.0576 C   0  0  1  0  0  0  0  0  0  0  0  0
   39.5191   17.4140    5.2006 O   0  0  0  0  0  0  0  0  0  0  0  0
   40.5620   15.3704    4.5121 C   0  0  1  0  0  0  0  0  0  0  0  0
   41.5450   16.3437    4.2466 O   0  0  0  0  0  0  0  0  0  0  0  0
   41.0413   14.4265    5.6016 C   0  0  2  0  0  0  0  0  0  0  0  0
   33.4387   18.6285   10.3496 O   0  0  0  0  0  0  0  0  0  0  0  0
   39.2720    9.4887    5.3687 N   0  0  0  0  0  0  0  0  0  0  0  0
   38.7389   10.5514    6.0700 C   0  0  0  0  0  0  0  0  0  0  0  0
   39.3417   11.7925    6.0156 N   0  0  0  0  0  0  0  0  0  0  0  0
   40.4617   11.9771    5.2751 C   0  0  0  0  0  0  0  0  0  0  0  0
   41.0132   10.9206    4.5632 C   0  0  0  0  0  0  0  0  0  0  0  0
   40.4122    9.6685    4.6119 C   0  0  0  0  0  0  0  0  0  0  0  0
   40.9322    8.6490    3.9349 N   0  0  0  0  0  0  0  0  0  0  0  0
   42.1096   11.3790    3.9215 N   0  0  0  0  0  0  0  0  0  0  0  0
   42.2647   12.6920    4.2083 C   0  0  0  0  0  0  0  0  0  0  0  0
   41.2503   13.0771    5.0465 N   0  0  0  0  0  0  0  0  0  0  0  0
  2  1  1  1  0  0  0
  2  3  1  0  0  0  0
  2  5  1  0  0  0  0
  3  4  1  0  0  0  0
  3 16  1  0  0  0  0
  5  6  1  0  0  0  0
  6  7  1  0  0  0  0
  7  8  1  0  0  0  0
  9  8  1  6  0  0  0
  9 10  1  0  0  0  0
  9 11  1  0  0  0  0
 10 15  1  0  0  0  0
 11 12  1  1  0  0  0
 11 13  1  0  0  0  0
 13 14  1  1  0  0  0
 13 15  1  0  0  0  0
 15 26  1  6  0  0  0
 17 18  2  0  0  0  0
 17 22  1  0  0  0  0
 18 19  1  0  0  0  0
 19 20  2  0  0  0  0
 20 21  1  0  0  0  0
 20 26  1  0  0  0  0
 21 22  2  0  0  0  0
 21 24  1  0  0  0  0
 22 23  1  0  0  0  0
 24 25  2  0  0  0  0
 25 26  1  0  0  0  0
M  END
>  <CHROM.1>
155.25330667,-57.86858660,-155.75672007,121.91403680,74.27167718,74.73177538
10.62832151,38.52954517,14.45288928,6.49070174,-2.41774300,-0.58749908,-3.09647811

>  <Name>
ligand

>  <RI>
0

>  <Rbt.Current_Directory>
/home/itssahil/PROJECTS/Mol_Feturizer/New_Systems/rnas/3NPQ

>  <Rbt.Executable>
rbdock ($Id: //depot/dev/client3/rdock/2013.1/src/exe/rbdock.cxx#4 $)

>  <Rbt.Library>
libRbt.so (2013.1, Build901 2013/11/27)

>  <Rbt.Parameter_File>
/export/apps/rDock/src/rDock_2013.1_src/data/scripts/dock_solv.prm

>  <Rbt.Receptor>
prm/pocket_docking_3.prm

>  <SCORE>
-28.8437

>  <SCORE.INTER>
-28.2296

>  <SCORE.INTER.CONST>
1

>  <SCORE.INTER.POLAR>
0

>  <SCORE.INTER.ROT>
7

>  <SCORE.INTER.SOLV>
19.3139

>  <SCORE.INTER.VDW>
-33.5244

>  <SCORE.INTER.norm>
-1.08575

>  <SCORE.INTRA>
-0.614109

>  <SCORE.INTRA.DIHEDRAL>
1.1072

>  <SCORE.INTRA.DIHEDRAL.0>
6.97628

>  <SCORE.INTRA.POLAR>
0

>  <SCORE.INTRA.POLAR.0>
0

>  <SCORE.INTRA.REPUL>
0

>  <SCORE.INTRA.REPUL.0>
0

>  <SCORE.INTRA.SOLV>
-0.122636

>  <SCORE.INTRA.SOLV.lig_0>
-49.8243

>  <SCORE.INTRA.VDW>
-1.10639

>  <SCORE.INTRA.VDW.0>
-1.35881

>  <SCORE.INTRA.norm>
-0.0236196

>  <SCORE.RESTR>
0

>  <SCORE.RESTR.CAVITY>
0

>  <SCORE.RESTR.norm>
0

>  <SCORE.SYSTEM>
0

>  <SCORE.SYSTEM.CONST>
0

>  <SCORE.SYSTEM.DIHEDRAL>
0

>  <SCORE.SYSTEM.SOLV>
0

>  <SCORE.SYSTEM.norm>
0

>  <SCORE.heavy>
26

>  <SCORE.norm>
-1.10937

>  <RMSD>
2.135

$$$$
ligand
 OpenBabel11021811483D
libRbt.so/2013.1/901 2013/11/27
 26 28  0  0  0  0  0  0  0  0999 V2000
   34.6894   17.1307   10.5041 N   0  0  0  0  0  0  0  0  0  0  0  0
   34.8672   17.3341    9.0717 C   0  0  2  0  0  0  0  0  0  0  0  0
   33.6810   18.0809    8.4723 C   0  0  0  0  0  0  0  0  0  0  0  0
   33.8234   19.1929    7.9652 O   0  0  0  0  0  0  0  0  0  0  0  0
   35.0565   15.9991    8.3625 C   0  0  0  0  0  0  0  0  0  0  0  0
   36.3401   15.2708    8.7388 C   0  0  0  0  0  0  0  0  0  0  0  0
   37.7920   16.3515    8.6876 S   0  0  0  0  0  0  0  0  0  0  0  0
   38.7334   15.0522    7.8487 C   0  0  0  0  0  0  0  0  0  0  0  0
   39.9739   15.5869    7.1427 C   0  0  1  0  0  0  0  0  0  0  0  0
   40.9214   14.5477    6.9770 O   0  0  0  0  0  0  0  0  0  0  0  0
   39.6399   16.1350    5.7649 C   0  0  1  0  0  0  0  0  0  0  0  0
   39.9125   17.5154    5.7174 O   0  0  0  0  0  0  0  0  0  0  0  0
   40.5386   15.3947    4.7963 C   0  0  1  0  0  0  0  0  0  0  0  0
   41.3398   16.3088    4.0844 O   0  0  0  0  0  0  0  0  0  0  0  0
   41.4102   14.4897    5.6500 C   0  0  2  0  0  0  0  0  0  0  0  0
   32.5520   17.5889    8.4807 O   0  0  0  0  0  0  0  0  0  0  0  0
   38.8466    9.9106    5.8160 N   0  0  0  0  0  0  0  0  0  0  0  0
   38.5592   11.0721    6.5043 C   0  0  0  0  0  0  0  0  0  0  0  0
   39.3486   12.1927    6.3370 N   0  0  0  0  0  0  0  0  0  0  0  0
   40.4123   12.1609    5.4977 C   0  0  0  0  0  0  0  0  0  0  0  0
   40.7179   11.0020    4.7971 C   0  0  0  0  0  0  0  0  0  0  0  0
   39.9279    9.8702    4.9591 C   0  0  0  0  0  0  0  0  0  0  0  0
   40.2117    8.7543    4.2940 N   0  0  0  0  0  0  0  0  0  0  0  0
   41.8119   11.2475    4.0442 N   0  0  0  0  0  0  0  0  0  0  0  0
   42.2040   12.5259    4.2500 C   0  0  0  0  0  0  0  0  0  0  0  0
   41.3457   13.1050    5.1488 N   0  0  0  0  0  0  0  0  0  0  0  0
  2  1  1  1  0  0  0
  2  3  1  0  0  0  0
  2  5  1  0  0  0  0
  3  4  1  0  0  0  0
  3 16  1  0  0  0  0
  5  6  1  0  0  0  0
  6  7  1  0  0  0  0
  7  8  1  0  0  0  0
  9  8  1  6  0  0  0
  9 10  1  0  0  0  0
  9 11  1  0  0  0  0
 10 15  1  0  0  0  0
 11 12  1  1  0  0  0
 11 13  1  0  0  0  0
 13 14  1  1  0  0  0
 13 15  1  0  0  0  0
 15 26  1  6  0  0  0
 17 18  2  0  0  0  0
 17 22  1  0  0  0  0
 18 19  1  0  0  0  0
 19 20  2  0  0  0  0
 20 21  1  0  0  0  0
 20 26  1  0  0  0  0
 21 22  2  0  0  0  0
 21 24  1  0  0  0  0
 22 23  1  0  0  0  0
 24 25  2  0  0  0  0
 25 26  1  0  0  0  0
M  END
>  <CHROM.1>
116.74413123,-65.83596832,-47.73546238,-136.16499519,161.42344869,156.80822356
31.58318170,38.54686652,14.58612547,6.66763486,2.40707182,0.48182505,0.10549757

>  <Name>
ligand

>  <RI>
0

>  <Rbt.Current_Directory>
/home/itssahil/PROJECTS/Mol_Feturizer/New_Systems/rnas/3NPQ

>  <Rbt.Executable>
rbdock ($Id: //depot/dev/client3/rdock/2013.1/src/exe/rbdock.cxx#4 $)

>  <Rbt.Library>
libRbt.so (2013.1, Build901 2013/11/27)

>  <Rbt.Parameter_File>
/export/apps/rDock/src/rDock_2013.1_src/data/scripts/dock_solv.prm

>  <Rbt.Receptor>
prm/pocket_docking_2.prm

>  <SCORE>
-28.429

>  <SCORE.INTER>
-27.6063

>  <SCORE.INTER.CONST>
1

>  <SCORE.INTER.POLAR>
0

>  <SCORE.INTER.ROT>
7

>  <SCORE.INTER.SOLV>
23.3391

>  <SCORE.INTER.VDW>
-34.4505

>  <SCORE.INTER.norm>
-1.06178

>  <SCORE.INTRA>
-0.822784

>  <SCORE.INTRA.DIHEDRAL>
0.617508

>  <SCORE.INTRA.DIHEDRAL.0>
6.97628

>  <SCORE.INTRA.POLAR>
0

>  <SCORE.INTRA.POLAR.0>
0

>  <SCORE.INTRA.REPUL>
0

>  <SCORE.INTRA.REPUL.0>
0

>  <SCORE.INTRA.SOLV>
0.558916

>  <SCORE.INTRA.SOLV.lig_0>
-49.8243

>  <SCORE.INTRA.VDW>
-1.411

>  <SCORE.INTRA.VDW.0>
-1.35881

>  <SCORE.INTRA.norm>
-0.0316455

>  <SCORE.RESTR>
0

>  <SCORE.RESTR.CAVITY>
0

>  <SCORE.RESTR.norm>
0

>  <SCORE.SYSTEM>
0

>  <SCORE.SYSTEM.CONST>
0

>  <SCORE.SYSTEM.DIHEDRAL>
0

>  <SCORE.SYSTEM.SOLV>
0

>  <SCORE.SYSTEM.norm>
0

>  <SCORE.heavy>
26

>  <SCORE.norm>
-1.09342

>  <RMSD>
2.138

$$$$
ligand
 OpenBabel11021811483D
libRbt.so/2013.1/901 2013/11/27
 26 28  0  0  0  0  0  0  0  0999 V2000
   35.7073   18.8834    8.2691 N   0  0  0  0  0  0  0  0  0  0  0  0
   34.7393   17.8081    8.0920 C   0  0  2  0  0  0  0  0  0  0  0  0
   33.4434   18.1085    8.8365 C   0  0  0  0  0  0  0  0  0  0  0  0
   33.4590   18.6386    9.9467 O   0  0  0  0  0  0  0  0  0  0  0  0
   35.3206   16.4829    8.5686 C   0  0  0  0  0  0  0  0  0  0  0  0
   36.4974   15.9853    7.7397 C   0  0  0  0  0  0  0  0  0  0  0  0
   37.1841   14.4333    8.3708 S   0  0  0  0  0  0  0  0  0  0  0  0
   37.9478   14.1129    6.7608 C   0  0  0  0  0  0  0  0  0  0  0  0
   39.3041   14.7913    6.6075 C   0  0  1  0  0  0  0  0  0  0  0  0
   40.3359   13.8223    6.6428 O   0  0  0  0  0  0  0  0  0  0  0  0
   39.4105   15.5351    5.2861 C   0  0  1  0  0  0  0  0  0  0  0  0
   39.5655   16.9145    5.5219 O   0  0  0  0  0  0  0  0  0  0  0  0
   40.6428   14.9841    4.5994 C   0  0  1  0  0  0  0  0  0  0  0  0
   41.5573   16.0235    4.3391 O   0  0  0  0  0  0  0  0  0  0  0  0
   41.2476   13.9869    5.5727 C   0  0  2  0  0  0  0  0  0  0  0  0
   32.3497   17.8282    8.3444 O   0  0  0  0  0  0  0  0  0  0  0  0
   39.5452    9.0654    4.9034 N   0  0  0  0  0  0  0  0  0  0  0  0
   38.9995   10.0539    5.6975 C   0  0  0  0  0  0  0  0  0  0  0  0
   39.5852   11.3032    5.7530 N   0  0  0  0  0  0  0  0  0  0  0  0
   40.7006   11.5685    5.0301 C   0  0  0  0  0  0  0  0  0  0  0  0
   41.2645   10.5873    4.2261 C   0  0  0  0  0  0  0  0  0  0  0  0
   40.6807    9.3277    4.1640 C   0  0  0  0  0  0  0  0  0  0  0  0
   41.2128    8.3798    3.3980 N   0  0  0  0  0  0  0  0  0  0  0  0
   42.3528   11.1162    3.6262 N   0  0  0  0  0  0  0  0  0  0  0  0
   42.4907   12.4004    4.0286 C   0  0  0  0  0  0  0  0  0  0  0  0
   41.4735   12.6953    4.8993 N   0  0  0  0  0  0  0  0  0  0  0  0
  2  1  1  1  0  0  0
  2  3  1  0  0  0  0
  2  5  1  0  0  0  0
  3  4  1  0  0  0  0
  3 16  1  0  0  0  0
  5  6  1  0  0  0  0
  6  7  1  0  0  0  0
  7  8  1  0  0  0  0
  9  8  1  6  0  0  0
  9 10  1  0  0  0  0
  9 11  1  0  0  0  0
 10 15  1  0  0  0  0
 11 12  1  1  0  0  0
 11 13  1  0  0  0  0
 13 14  1  1  0  0  0
 13 15  1  0  0  0  0
 15 26  1  6  0  0  0
 17 18  2  0  0  0  0
 17 22  1  0  0  0  0
 18 19  1  0  0  0  0
 19 20  2  0  0  0  0
 20 21  1  0  0  0  0
 20 26  1  0  0  0  0
 21 22  2  0  0  0  0
 21 24  1  0  0  0  0
 22 23  1  0  0  0  0
 24 25  2  0  0  0  0
 25 26  1  0  0  0  0
M  END
>  <CHROM.1>
-39.05291482,-65.89114649,178.37486431,159.84950637,85.03681118,108.46034856
15.35681474,38.59071632,14.16739637,6.28102745,-2.39004673,-0.50263341,-3.05767778

>  <Name>
ligand

>  <RI>
0

>  <Rbt.Current_Directory>
/home/itssahil/PROJECTS/Mol_Feturizer/New_Systems/rnas/3NPQ

>  <Rbt.Executable>
rbdock ($Id: //depot/dev/client3/rdock/2013.1/src/exe/rbdock.cxx#4 $)

>  <Rbt.Library>
libRbt.so (2013.1, Build901 2013/11/27)

>  <Rbt.Parameter_File>
/export/apps/rDock/src/rDock_2013.1_src/data/scripts/dock_solv.prm

>  <Rbt.Receptor>
prm/pocket_docking_4.prm

>  <SCORE>
-29.6814

>  <SCORE.INTER>
-29.3475

>  <SCORE.INTER.CONST>
1

>  <SCORE.INTER.POLAR>
0

>  <SCORE.INTER.ROT>
7

>  <SCORE.INTER.SOLV>
16.0876

>  <SCORE.INTER.VDW>
-33.1942

>  <SCORE.INTER.norm>
-1.12875

>  <SCORE.INTRA>
-0.333935

>  <SCORE.INTRA.DIHEDRAL>
2.15967

>  <SCORE.INTRA.DIHEDRAL.0>
6.97628

>  <SCORE.INTRA.POLAR>
0

>  <SCORE.INTRA.POLAR.0>
0

>  <SCORE.INTRA.REPUL>
0

>  <SCORE.INTRA.REPUL.0>
0

>  <SCORE.INTRA.SOLV>
-0.210059

>  <SCORE.INTRA.SOLV.lig_0>
-49.8243

>  <SCORE.INTRA.VDW>
-1.30874

>  <SCORE.INTRA.VDW.0>
-1.35881

>  <SCORE.INTRA.norm>
-0.0128436

>  <SCORE.RESTR>
0

>  <SCORE.RESTR.CAVITY>
0

>  <SCORE.RESTR.norm>
0

>  <SCORE.SYSTEM>
0

>  <SCORE.SYSTEM.CONST>
0

>  <SCORE.SYSTEM.DIHEDRAL>
0

>  <SCORE.SYSTEM.SOLV>
0

>  <SCORE.SYSTEM.norm>
0

>  <SCORE.heavy>
26

>  <SCORE.norm>
-1.14159

>  <RMSD>
2.140

$$$$
ligand
 OpenBabel11021811483D
libRbt.so/2013.1/901 2013/11/27
 26 28  0  0  0  0  0  0  0  0999 V2000
   34.9779   16.9378   10.5587 N   0  0  0  0  0  0  0  0  0  0  0  0
   35.1249   17.2405    9.1405 C   0  0  2  0  0  0  0  0  0  0  0  0
   33.9432   18.0561    8.6283 C   0  0  0  0  0  0  0  0  0  0  0  0
   32.8100   17.5781    8.5964 O   0  0  0  0  0  0  0  0  0  0  0  0
   35.2629   15.9565    8.3322 C   0  0  0  0  0  0  0  0  0  0  0  0
   36.5721   15.2132    8.5632 C   0  0  0  0  0  0  0  0  0  0  0  0
   38.0182   16.2934    8.4204 S   0  0  0  0  0  0  0  0  0  0  0  0
   38.9554   14.9436    7.6602 C   0  0  0  0  0  0  0  0  0  0  0  0
   40.1871   15.4333    6.9077 C   0  0  1  0  0  0  0  0  0  0  0  0
   41.1050   14.3684    6.7383 O   0  0  0  0  0  0  0  0  0  0  0  0
   39.8263   15.9594    5.5281 C   0  0  1  0  0  0  0  0  0  0  0  0
   40.1295   17.3317    5.4424 O   0  0  0  0  0  0  0  0  0  0  0  0
   40.6794   15.1773    4.5511 C   0  0  1  0  0  0  0  0  0  0  0  0
   41.4807   16.0566    3.7968 O   0  0  0  0  0  0  0  0  0  0  0  0
   41.5539   14.2703    5.3996 C   0  0  2  0  0  0  0  0  0  0  0  0
   34.0945   19.2133    8.2346 O   0  0  0  0  0  0  0  0  0  0  0  0
   38.8731    9.7670    5.7177 N   0  0  0  0  0  0  0  0  0  0  0  0
   38.6301   10.9508    6.3848 C   0  0  0  0  0  0  0  0  0  0  0  0
   39.4457   12.0456    6.1773 N   0  0  0  0  0  0  0  0  0  0  0  0
   40.4916   11.9665    5.3190 C   0  0  0  0  0  0  0  0  0  0  0  0
   40.7526   10.7845    4.6392 C   0  0  0  0  0  0  0  0  0  0  0  0
   39.9360    9.6784    4.8417 C   0  0  0  0  0  0  0  0  0  0  0  0
   40.1770    8.5408    4.1967 N   0  0  0  0  0  0  0  0  0  0  0  0
   41.8378   10.9837    3.8603 N   0  0  0  0  0  0  0  0  0  0  0  0
   42.2677   12.2552    4.0297 C   0  0  0  0  0  0  0  0  0  0  0  0
   41.4428   12.8771    4.9313 N   0  0  0  0  0  0  0  0  0  0  0  0
  2  1  1  1  0  0  0
  2  3  1  0  0  0  0
  2  5  1  0  0  0  0
  3  4  1  0  0  0  0
  3 16  1  0  0  0  0
  5  6  1  0  0  0  0
  6  7  1  0  0  0  0
  7  8  1  0  0  0  0
  9  8  1  6  0  0  0
  9 10  1  0  0  0  0
  9 11  1  0  0  0  0
 10 15  1  0  0  0  0
 11 12  1  1  0  0  0
 11 13  1  0  0  0  0
 13 14  1  1  0  0  0
 13 15  1  0  0  0  0
 15 26  1  6  0  0  0
 17 18  2  0  0  0  0
 17 22  1  0  0  0  0
 18 19  1  0  0  0  0
 19 20  2  0  0  0  0
 20 21  1  0  0  0  0
 20 26  1  0  0  0  0
 21 22  2  0  0  0  0
 21 24  1  0  0  0  0
 22 23  1  0  0  0  0
 24 25  2  0  0  0  0
 25 26  1  0  0  0  0
M  END
>  <CHROM.1>
-65.34877503,-69.06826055,-49.68828223,-143.70647331,161.60445856,159.96667240
32.15197580,38.70445618,14.44070810,6.53456272,2.39013089,0.51998325,0.10727335

>  <Name>
ligand

>  <RI>
0

>  <Rbt.Current_Directory>
/home/itssahil/PROJECTS/Mol_Feturizer/New_Systems/rnas/3NPQ

>  <Rbt.Executable>
rbdock ($Id: //depot/dev/client3/rdock/2013.1/src/exe/rbdock.cxx#4 $)

>  <Rbt.Library>
libRbt.so (2013.1, Build901 2013/11/27)

>  <Rbt.Parameter_File>
/export/apps/rDock/src/rDock_2013.1_src/data/scripts/dock_solv.prm

>  <Rbt.Receptor>
prm/pocket_docking_7.prm

>  <SCORE>
-28.0214

>  <SCORE.INTER>
-26.7282

>  <SCORE.INTER.CONST>
1

>  <SCORE.INTER.POLAR>
0

>  <SCORE.INTER.ROT>
7

>  <SCORE.INTER.SOLV>
23.677

>  <SCORE.INTER.VDW>
-33.9778

>  <SCORE.INTER.norm>
-1.02801

>  <SCORE.INTRA>
-1.29323

>  <SCORE.INTRA.DIHEDRAL>
-0.159101

>  <SCORE.INTRA.DIHEDRAL.0>
6.97628

>  <SCORE.INTRA.POLAR>
0

>  <SCORE.INTRA.POLAR.0>
0

>  <SCORE.INTRA.REPUL>
0

>  <SCORE.INTRA.REPUL.0>
0

>  <SCORE.INTRA.SOLV>
0.466689

>  <SCORE.INTRA.SOLV.lig_0>
-49.8243

>  <SCORE.INTRA.VDW>
-1.44702

>  <SCORE.INTRA.VDW.0>
-1.35881

>  <SCORE.INTRA.norm>
-0.0497394

>  <SCORE.RESTR>
0

>  <SCORE.RESTR.CAVITY>
0

>  <SCORE.RESTR.norm>
0

>  <SCORE.SYSTEM>
0

>  <SCORE.SYSTEM.CONST>
0

>  <SCORE.SYSTEM.DIHEDRAL>
0

>  <SCORE.SYSTEM.SOLV>
0

>  <SCORE.SYSTEM.norm>
0

>  <SCORE.heavy>
26

>  <SCORE.norm>
-1.07775

>  <RMSD>
2.143

$$$$
ligand
 OpenBabel11021811483D
libRbt.so/2013.1/901 2013/11/27
 26 28  0  0  0  0  0  0  0  0999 V2000
   34.8106   17.3329   10.6215 N   0  0  0  0  0  0  0  0  0  0  0  0
   35.0267   18.3252    9.5758 C   0  0  2  0  0  0  0  0  0  0  0  0
   33.7347   18.6171    8.8212 C   0  0  0  0  0  0  0  0  0  0  0  0
   32.8580   17.7609    8.7115 O   0  0  0  0  0  0  0  0  0  0  0  0
   36.1028   17.8530    8.6062 C   0  0  0  0  0  0  0  0  0  0  0  0
   35.8104   16.5053    7.9598 C   0  0  0  0  0  0  0  0  0  0  0  0
   36.1594   15.1147    9.0657 S   0  0  0  0  0  0  0  0  0  0  0  0
   37.3107   14.4306    7.8473 C   0  0  0  0  0  0  0  0  0  0  0  0
   38.6065   15.2274    7.7499 C   0  0  1  0  0  0  0  0  0  0  0  0
   39.7095   14.3456    7.6465 O   0  0  0  0  0  0  0  0  0  0  0  0
   38.6168   16.1296    6.5266 C   0  0  1  0  0  0  0  0  0  0  0  0
   38.6736   17.4789    6.9247 O   0  0  0  0  0  0  0  0  0  0  0  0
   39.8665   15.7635    5.7532 C   0  0  1  0  0  0  0  0  0  0  0  0
   40.6913   16.8954    5.6025 O   0  0  0  0  0  0  0  0  0  0  0  0
   40.5739   14.7081    6.5860 C   0  0  2  0  0  0  0  0  0  0  0  0
   33.5373   19.7172    8.3037 O   0  0  0  0  0  0  0  0  0  0  0  0
   39.2279    9.7845    5.3559 N   0  0  0  0  0  0  0  0  0  0  0  0
   38.6321   10.6252    6.2744 C   0  0  0  0  0  0  0  0  0  0  0  0
   39.1235   11.9008    6.4702 N   0  0  0  0  0  0  0  0  0  0  0  0
   40.1950   12.3368    5.7640 C   0  0  0  0  0  0  0  0  0  0  0  0
   40.8082   11.5059    4.8362 C   0  0  0  0  0  0  0  0  0  0  0  0
   40.3192   10.2212    4.6325 C   0  0  0  0  0  0  0  0  0  0  0  0
   40.8991    9.4162    3.7471 N   0  0  0  0  0  0  0  0  0  0  0  0
   41.8363   12.1861    4.2844 N   0  0  0  0  0  0  0  0  0  0  0  0
   41.8886   13.4198    4.8373 C   0  0  0  0  0  0  0  0  0  0  0  0
   40.8771   13.5280    5.7565 N   0  0  0  0  0  0  0  0  0  0  0  0
  2  1  1  1  0  0  0
  2  3  1  0  0  0  0
  2  5  1  0  0  0  0
  3  4  1  0  0  0  0
  3 16  1  0  0  0  0
  5  6  1  0  0  0  0
  6  7  1  0  0  0  0
  7  8  1  0  0  0  0
  9  8  1  6  0  0  0
  9 10  1  0  0  0  0
  9 11  1  0  0  0  0
 10 15  1  0  0  0  0
 11 12  1  1  0  0  0
 11 13  1  0  0  0  0
 13 14  1  1  0  0  0
 13 15  1  0  0  0  0
 15 26  1  6  0  0  0
 17 18  2  0  0  0  0
 17 22  1  0  0  0  0
 18 19  1  0  0  0  0
 19 20  2  0  0  0  0
 20 21  1  0  0  0  0
 20 26  1  0  0  0  0
 21 22  2  0  0  0  0
 21 24  1  0  0  0  0
 22 23  1  0  0  0  0
 24 25  2  0  0  0  0
 25 26  1  0  0  0  0
M  END
>  <CHROM.1>
-28.84624445,56.67686446,-78.27513905,-122.56985305,72.50560205,138.36340679
15.45267772,38.13443153,14.79118895,7.00481374,2.35672492,0.48793326,0.11060006

>  <Name>
ligand

>  <RI>
0

>  <Rbt.Current_Directory>
/home/itssahil/PROJECTS/Mol_Feturizer/New_Systems/rnas/3NPQ

>  <Rbt.Executable>
rbdock ($Id: //depot/dev/client3/rdock/2013.1/src/exe/rbdock.cxx#4 $)

>  <Rbt.Library>
libRbt.so (2013.1, Build901 2013/11/27)

>  <Rbt.Parameter_File>
/export/apps/rDock/src/rDock_2013.1_src/data/scripts/dock_solv.prm

>  <Rbt.Receptor>
prm/pocket_docking_4.prm

>  <SCORE>
-27.9266

>  <SCORE.INTER>
-29.3812

>  <SCORE.INTER.CONST>
1

>  <SCORE.INTER.POLAR>
0

>  <SCORE.INTER.ROT>
7

>  <SCORE.INTER.SOLV>
20.192

>  <SCORE.INTER.VDW>
-34.5848

>  <SCORE.INTER.norm>
-1.13004

>  <SCORE.INTRA>
1.45456

>  <SCORE.INTRA.DIHEDRAL>
3.69446

>  <SCORE.INTRA.DIHEDRAL.0>
6.97628

>  <SCORE.INTRA.POLAR>
0

>  <SCORE.INTRA.POLAR.0>
0

>  <SCORE.INTRA.REPUL>
0

>  <SCORE.INTRA.REPUL.0>
0

>  <SCORE.INTRA.SOLV>
1.50148

>  <SCORE.INTRA.SOLV.lig_0>
-49.8243

>  <SCORE.INTRA.VDW>
-1.1434

>  <SCORE.INTRA.VDW.0>
-1.35881

>  <SCORE.INTRA.norm>
0.0559447

>  <SCORE.RESTR>
0

>  <SCORE.RESTR.CAVITY>
0

>  <SCORE.RESTR.norm>
0

>  <SCORE.SYSTEM>
0

>  <SCORE.SYSTEM.CONST>
0

>  <SCORE.SYSTEM.DIHEDRAL>
0

>  <SCORE.SYSTEM.SOLV>
0

>  <SCORE.SYSTEM.norm>
0

>  <SCORE.heavy>
26

>  <SCORE.norm>
-1.0741

>  <RMSD>
2.144

$$$$
ligand
 OpenBabel11021811483D
libRbt.so/2013.1/901 2013/11/27
 26 28  0  0  0  0  0  0  0  0999 V2000
   32.7666   18.2219    8.0208 N   0  0  0  0  0  0  0  0  0  0  0  0
   33.7371   18.6587    9.0167 C   0  0  2  0  0  0  0  0  0  0  0  0
   34.7593   19.6106    8.4060 C   0  0  0  0  0  0  0  0  0  0  0  0
   34.4094   20.5140    7.6476 O   0  0  0  0  0  0  0  0  0  0  0  0
   34.4443   17.4592    9.6349 C   0  0  0  0  0  0  0  0  0  0  0  0
   35.1731   16.5792    8.6278 C   0  0  0  0  0  0  0  0  0  0  0  0
   35.7508   15.0246    9.3544 S   0  0  0  0  0  0  0  0  0  0  0  0
   36.8054   14.7382    7.9108 C   0  0  0  0  0  0  0  0  0  0  0  0
   38.1057   15.5317    7.9653 C   0  0  1  0  0  0  0  0  0  0  0  0
   39.2123   14.6492    7.9255 O   0  0  0  0  0  0  0  0  0  0  0  0
   38.2286   16.4843    6.7873 C   0  0  1  0  0  0  0  0  0  0  0  0
   38.2508   17.8154    7.2455 O   0  0  0  0  0  0  0  0  0  0  0  0
   39.5431   16.1444    6.1160 C   0  0  1  0  0  0  0  0  0  0  0  0
   40.3797   17.2774    6.0887 O   0  0  0  0  0  0  0  0  0  0  0  0
   40.1702   15.0514    6.9642 C   0  0  2  0  0  0  0  0  0  0  0  0
   35.9597   19.4984    8.6574 O   0  0  0  0  0  0  0  0  0  0  0  0
   39.0994   10.0907    5.6180 N   0  0  0  0  0  0  0  0  0  0  0  0
   38.4477   10.8808    6.5435 C   0  0  0  0  0  0  0  0  0  0  0  0
   38.8694   12.1758    6.7716 N   0  0  0  0  0  0  0  0  0  0  0  0
   39.9267   12.6808    6.0905 C   0  0  0  0  0  0  0  0  0  0  0  0
   40.5954   11.9017    5.1562 C   0  0  0  0  0  0  0  0  0  0  0  0
   40.1767   10.5978    4.9200 C   0  0  0  0  0  0  0  0  0  0  0  0
   40.8102    9.8419    4.0280 N   0  0  0  0  0  0  0  0  0  0  0  0
   41.5945   12.6450    4.6335 N   0  0  0  0  0  0  0  0  0  0  0  0
   41.5749   13.8683    5.2110 C   0  0  0  0  0  0  0  0  0  0  0  0
   40.5461   13.9056    6.1166 N   0  0  0  0  0  0  0  0  0  0  0  0
  2  1  1  6  0  0  0
  2  3  1  0  0  0  0
  2  5  1  0  0  0  0
  3  4  1  0  0  0  0
  3 16  1  0  0  0  0
  5  6  1  0  0  0  0
  6  7  1  0  0  0  0
  7  8  1  0  0  0  0
  9  8  1  6  0  0  0
  9 10  1  0  0  0  0
  9 11  1  0  0  0  0
 10 15  1  0  0  0  0
 11 12  1  1  0  0  0
 11 13  1  0  0  0  0
 13 14  1  1  0  0  0
 13 15  1  0  0  0  0
 15 26  1  6  0  0  0
 17 18  2  0  0  0  0
 17 22  1  0  0  0  0
 18 19  1  0  0  0  0
 19 20  2  0  0  0  0
 20 21  1  0  0  0  0
 20 26  1  0  0  0  0
 21 22  2  0  0  0  0
 21 24  1  0  0  0  0
 22 23  1  0  0  0  0
 24 25  2  0  0  0  0
 25 26  1  0  0  0  0
M  END
>  <CHROM.1>
43.97427338,58.27181609,-170.04078216,-166.13054927,79.94409799,120.83990165
9.90903560,37.89260245,15.18619350,7.13220367,2.31871216,0.48013597,0.03962756

>  <Name>
ligand

>  <RI>
0

>  <Rbt.Current_Directory>
/home/itssahil/PROJECTS/Mol_Feturizer/New_Systems/rnas/3NPQ

>  <Rbt.Executable>
rbdock ($Id: //depot/dev/client3/rdock/2013.1/src/exe/rbdock.cxx#4 $)

>  <Rbt.Library>
libRbt.so (2013.1, Build901 2013/11/27)

>  <Rbt.Parameter_File>
/export/apps/rDock/src/rDock_2013.1_src/data/scripts/dock_solv.prm

>  <Rbt.Receptor>
prm/pocket_docking_5.prm

>  <SCORE>
-29.4051

>  <SCORE.INTER>
-30.1239

>  <SCORE.INTER.CONST>
1

>  <SCORE.INTER.POLAR>
0

>  <SCORE.INTER.ROT>
7

>  <SCORE.INTER.SOLV>
23.0156

>  <SCORE.INTER.VDW>
-36.0211

>  <SCORE.INTER.norm>
-1.15861

>  <SCORE.INTRA>
0.718805

>  <SCORE.INTRA.DIHEDRAL>
2.24651

>  <SCORE.INTRA.DIHEDRAL.0>
6.97628

>  <SCORE.INTRA.POLAR>
0

>  <SCORE.INTRA.POLAR.0>
0

>  <SCORE.INTRA.REPUL>
0

>  <SCORE.INTRA.REPUL.0>
0

>  <SCORE.INTRA.SOLV>
0.0263884

>  <SCORE.INTRA.SOLV.lig_0>
-49.8243

>  <SCORE.INTRA.VDW>
-0.417643

>  <SCORE.INTRA.VDW.0>
-1.35881

>  <SCORE.INTRA.norm>
0.0276463

>  <SCORE.RESTR>
0

>  <SCORE.RESTR.CAVITY>
0

>  <SCORE.RESTR.norm>
0

>  <SCORE.SYSTEM>
0

>  <SCORE.SYSTEM.CONST>
0

>  <SCORE.SYSTEM.DIHEDRAL>
0

>  <SCORE.SYSTEM.SOLV>
0

>  <SCORE.SYSTEM.norm>
0

>  <SCORE.heavy>
26

>  <SCORE.norm>
-1.13097

>  <RMSD>
2.144

$$$$
ligand
 OpenBabel11021811483D
libRbt.so/2013.1/901 2013/11/27
 26 28  0  0  0  0  0  0  0  0999 V2000
   34.0767   18.4730   10.4198 N   0  0  0  0  0  0  0  0  0  0  0  0
   34.6790   17.6553    9.3742 C   0  0  2  0  0  0  0  0  0  0  0  0
   33.6609   17.3095    8.2935 C   0  0  0  0  0  0  0  0  0  0  0  0
   33.8405   16.3569    7.5358 O   0  0  0  0  0  0  0  0  0  0  0  0
   35.2665   16.3802    9.9657 C   0  0  0  0  0  0  0  0  0  0  0  0
   36.5407   15.9052    9.2797 C   0  0  0  0  0  0  0  0  0  0  0  0
   36.2125   15.0700    7.7071 S   0  0  0  0  0  0  0  0  0  0  0  0
   37.8000   14.2082    7.8298 C   0  0  0  0  0  0  0  0  0  0  0  0
   38.9742   15.0713    7.3828 C   0  0  1  0  0  0  0  0  0  0  0  0
   40.1320   14.2706    7.2303 O   0  0  0  0  0  0  0  0  0  0  0  0
   38.6963   15.7450    6.0489 C   0  0  1  0  0  0  0  0  0  0  0  0
   38.6756   17.1434    6.2115 O   0  0  0  0  0  0  0  0  0  0  0  0
   39.8382   15.3452    5.1378 C   0  0  1  0  0  0  0  0  0  0  0  0
   40.5067   16.4925    4.6677 O   0  0  0  0  0  0  0  0  0  0  0  0
   40.7744   14.5072    5.9915 C   0  0  2  0  0  0  0  0  0  0  0  0
   32.6342   17.9750    8.1532 O   0  0  0  0  0  0  0  0  0  0  0  0
   39.2815    9.5227    5.2893 N   0  0  0  0  0  0  0  0  0  0  0  0
   38.6844   10.4870    6.0761 C   0  0  0  0  0  0  0  0  0  0  0  0
   39.2185   11.7587    6.1423 N   0  0  0  0  0  0  0  0  0  0  0  0
   40.3334   12.0699    5.4373 C   0  0  0  0  0  0  0  0  0  0  0  0
   40.9487   11.1137    4.6409 C   0  0  0  0  0  0  0  0  0  0  0  0
   40.4170    9.8318    4.5680 C   0  0  0  0  0  0  0  0  0  0  0  0
   40.9984    8.9075    3.8092 N   0  0  0  0  0  0  0  0  0  0  0  0
   42.0240   11.6869    4.0586 N   0  0  0  0  0  0  0  0  0  0  0  0
   42.1040   12.9749    4.4648 C   0  0  0  0  0  0  0  0  0  0  0  0
   41.0624   13.2270    5.3200 N   0  0  0  0  0  0  0  0  0  0  0  0
  2  1  1  1  0  0  0
  2  3  1  0  0  0  0
  2  5  1  0  0  0  0
  3  4  1  0  0  0  0
  3 16  1  0  0  0  0
  5  6  1  0  0  0  0
  6  7  1  0  0  0  0
  7  8  1  0  0  0  0
  9  8  1  6  0  0  0
  9 10  1  0  0  0  0
  9 11  1  0  0  0  0
 10 15  1  0  0  0  0
 11 12  1  1  0  0  0
 11 13  1  0  0  0  0
 13 14  1  1  0  0  0
 13 15  1  0  0  0  0
 15 26  1  6  0  0  0
 17 18  2  0  0  0  0
 17 22  1  0  0  0  0
 18 19  1  0  0  0  0
 19 20  2  0  0  0  0
 20 21  1  0  0  0  0
 20 26  1  0  0  0  0
 21 22  2  0  0  0  0
 21 24  1  0  0  0  0
 22 23  1  0  0  0  0
 24 25  2  0  0  0  0
 25 26  1  0  0  0  0
M  END
>  <CHROM.1>
-159.88939668,-145.03483255,-77.82787861,-157.09875724,-80.84493169,-167.66817616
29.82697638,38.19036957,14.35391505,6.66690584,2.41668288,0.47766468,0.12145202

>  <Name>
ligand

>  <RI>
0

>  <Rbt.Current_Directory>
/home/itssahil/PROJECTS/Mol_Feturizer/New_Systems/rnas/3NPQ

>  <Rbt.Executable>
rbdock ($Id: //depot/dev/client3/rdock/2013.1/src/exe/rbdock.cxx#4 $)

>  <Rbt.Library>
libRbt.so (2013.1, Build901 2013/11/27)

>  <Rbt.Parameter_File>
/export/apps/rDock/src/rDock_2013.1_src/data/scripts/dock_solv.prm

>  <Rbt.Receptor>
prm/pocket_docking_2.prm

>  <SCORE>
-29.0591

>  <SCORE.INTER>
-29.9439

>  <SCORE.INTER.CONST>
1

>  <SCORE.INTER.POLAR>
0

>  <SCORE.INTER.ROT>
7

>  <SCORE.INTER.SOLV>
22.3131

>  <SCORE.INTER.VDW>
-35.6669

>  <SCORE.INTER.norm>
-1.15169

>  <SCORE.INTRA>
0.864887

>  <SCORE.INTRA.DIHEDRAL>
2.38529

>  <SCORE.INTRA.DIHEDRAL.0>
6.97628

>  <SCORE.INTRA.POLAR>
0

>  <SCORE.INTRA.POLAR.0>
0

>  <SCORE.INTRA.REPUL>
0

>  <SCORE.INTRA.REPUL.0>
0

>  <SCORE.INTRA.SOLV>
-0.386692

>  <SCORE.INTRA.SOLV.lig_0>
-49.8243

>  <SCORE.INTRA.VDW>
-0.134413

>  <SCORE.INTRA.VDW.0>
-1.35881

>  <SCORE.INTRA.norm>
0.0332649

>  <SCORE.RESTR>
0.0198472

>  <SCORE.RESTR.CAVITY>
0.0198472

>  <SCORE.RESTR.norm>
0.000763352

>  <SCORE.SYSTEM>
0

>  <SCORE.SYSTEM.CONST>
0

>  <SCORE.SYSTEM.DIHEDRAL>
0

>  <SCORE.SYSTEM.SOLV>
0

>  <SCORE.SYSTEM.norm>
0

>  <SCORE.heavy>
26

>  <SCORE.norm>
-1.11766

>  <RMSD>
2.146

$$$$
ligand
 OpenBabel11021811483D
libRbt.so/2013.1/901 2013/11/27
 26 28  0  0  0  0  0  0  0  0999 V2000
   35.8413   18.0195    8.1310 N   0  0  0  0  0  0  0  0  0  0  0  0
   34.7240   17.0927    8.2629 C   0  0  2  0  0  0  0  0  0  0  0  0
   33.4950   17.7925    8.8320 C   0  0  0  0  0  0  0  0  0  0  0  0
   33.5528   18.4088    9.8954 O   0  0  0  0  0  0  0  0  0  0  0  0
   35.1101   15.9136    9.1471 C   0  0  0  0  0  0  0  0  0  0  0  0
   36.3220   15.1351    8.6523 C   0  0  0  0  0  0  0  0  0  0  0  0
   37.8621   16.0739    8.8103 S   0  0  0  0  0  0  0  0  0  0  0  0
   38.7134   14.8581    7.7734 C   0  0  0  0  0  0  0  0  0  0  0  0
   39.9550   15.4278    7.0972 C   0  0  1  0  0  0  0  0  0  0  0  0
   40.9238   14.4090    6.9285 O   0  0  0  0  0  0  0  0  0  0  0  0
   39.6329   15.9945    5.7241 C   0  0  1  0  0  0  0  0  0  0  0  0
   39.8809   17.3803    5.7056 O   0  0  0  0  0  0  0  0  0  0  0  0
   40.5604   15.2882    4.7572 C   0  0  1  0  0  0  0  0  0  0  0  0
   41.3559   16.2294    4.0748 O   0  0  0  0  0  0  0  0  0  0  0  0
   41.4347   14.3838    5.6087 C   0  0  2  0  0  0  0  0  0  0  0  0
   32.4151   17.7583    8.2409 O   0  0  0  0  0  0  0  0  0  0  0  0
   38.9526    9.7573    5.6509 N   0  0  0  0  0  0  0  0  0  0  0  0
   38.6329   10.9008    6.3548 C   0  0  0  0  0  0  0  0  0  0  0  0
   39.4044   12.0382    6.2206 N   0  0  0  0  0  0  0  0  0  0  0  0
   40.4820   12.0406    5.3985 C   0  0  0  0  0  0  0  0  0  0  0  0
   40.8199   10.9002    4.6827 C   0  0  0  0  0  0  0  0  0  0  0  0
   40.0481    9.7518    4.8114 C   0  0  0  0  0  0  0  0  0  0  0  0
   40.3629    8.6533    4.1313 N   0  0  0  0  0  0  0  0  0  0  0  0
   41.9213   11.1789    3.9524 N   0  0  0  0  0  0  0  0  0  0  0  0
   42.2867   12.4602    4.1874 C   0  0  0  0  0  0  0  0  0  0  0  0
   41.4035   13.0075    5.0820 N   0  0  0  0  0  0  0  0  0  0  0  0
  2  1  1  1  0  0  0
  2  3  1  0  0  0  0
  2  5  1  0  0  0  0
  3  4  1  0  0  0  0
  3 16  1  0  0  0  0
  5  6  1  0  0  0  0
  6  7  1  0  0  0  0
  7  8  1  0  0  0  0
  9  8  1  6  0  0  0
  9 10  1  0  0  0  0
  9 11  1  0  0  0  0
 10 15  1  0  0  0  0
 11 12  1  1  0  0  0
 11 13  1  0  0  0  0
 13 14  1  1  0  0  0
 13 15  1  0  0  0  0
 15 26  1  6  0  0  0
 17 18  2  0  0  0  0
 17 22  1  0  0  0  0
 18 19  1  0  0  0  0
 19 20  2  0  0  0  0
 20 21  1  0  0  0  0
 20 26  1  0  0  0  0
 21 22  2  0  0  0  0
 21 24  1  0  0  0  0
 22 23  1  0  0  0  0
 24 25  2  0  0  0  0
 25 26  1  0  0  0  0
M  END
>  <CHROM.1>
-54.76519379,-57.64338187,69.74625970,-167.81828988,156.70533408,148.75807094
31.60155292,38.60054677,14.46351655,6.61874246,-2.40048202,-0.47110418,-3.00582548

>  <Name>
ligand

>  <RI>
0

>  <Rbt.Current_Directory>
/home/itssahil/PROJECTS/Mol_Feturizer/New_Systems/rnas/3NPQ

>  <Rbt.Executable>
rbdock ($Id: //depot/dev/client3/rdock/2013.1/src/exe/rbdock.cxx#4 $)

>  <Rbt.Library>
libRbt.so (2013.1, Build901 2013/11/27)

>  <Rbt.Parameter_File>
/export/apps/rDock/src/rDock_2013.1_src/data/scripts/dock_solv.prm

>  <Rbt.Receptor>
prm/pocket_docking_8.prm

>  <SCORE>
-30.8555

>  <SCORE.INTER>
-30.208

>  <SCORE.INTER.CONST>
1

>  <SCORE.INTER.POLAR>
0

>  <SCORE.INTER.ROT>
7

>  <SCORE.INTER.SOLV>
17.8812

>  <SCORE.INTER.VDW>
-34.3657

>  <SCORE.INTER.norm>
-1.16184

>  <SCORE.INTRA>
-0.647516

>  <SCORE.INTRA.DIHEDRAL>
-0.109384

>  <SCORE.INTRA.DIHEDRAL.0>
6.97628

>  <SCORE.INTRA.POLAR>
0

>  <SCORE.INTRA.POLAR.0>
0

>  <SCORE.INTRA.REPUL>
0

>  <SCORE.INTRA.REPUL.0>
0

>  <SCORE.INTRA.SOLV>
1.46362

>  <SCORE.INTRA.SOLV.lig_0>
-49.8243

>  <SCORE.INTRA.VDW>
-1.32463

>  <SCORE.INTRA.VDW.0>
-1.35881

>  <SCORE.INTRA.norm>
-0.0249045

>  <SCORE.RESTR>
0

>  <SCORE.RESTR.CAVITY>
0

>  <SCORE.RESTR.norm>
0

>  <SCORE.SYSTEM>
0

>  <SCORE.SYSTEM.CONST>
0

>  <SCORE.SYSTEM.DIHEDRAL>
0

>  <SCORE.SYSTEM.SOLV>
0

>  <SCORE.SYSTEM.norm>
0

>  <SCORE.heavy>
26

>  <SCORE.norm>
-1.18675

>  <RMSD>
2.150

$$$$
ligand
 OpenBabel11021811483D
libRbt.so/2013.1/901 2013/11/27
 26 28  0  0  0  0  0  0  0  0999 V2000
   35.9625   18.2437    8.1408 N   0  0  0  0  0  0  0  0  0  0  0  0
   34.7237   17.4801    8.0569 C   0  0  2  0  0  0  0  0  0  0  0  0
   33.5160   18.3586    8.3630 C   0  0  0  0  0  0  0  0  0  0  0  0
   32.3995   18.0730    7.9319 O   0  0  0  0  0  0  0  0  0  0  0  0
   34.7622   16.2937    9.0119 C   0  0  0  0  0  0  0  0  0  0  0  0
   35.7067   15.1789    8.5820 C   0  0  0  0  0  0  0  0  0  0  0  0
   37.4489   15.6270    8.7884 S   0  0  0  0  0  0  0  0  0  0  0  0
   37.7344   15.3425    7.0232 C   0  0  0  0  0  0  0  0  0  0  0  0
   39.0567   15.9262    6.5394 C   0  0  1  0  0  0  0  0  0  0  0  0
   40.0724   14.9417    6.6052 O   0  0  0  0  0  0  0  0  0  0  0  0
   38.9635   16.4019    5.0989 C   0  0  1  0  0  0  0  0  0  0  0  0
   39.1662   17.7939    5.0381 O   0  0  0  0  0  0  0  0  0  0  0  0
   40.0690   15.6833    4.3536 C   0  0  1  0  0  0  0  0  0  0  0  0
   40.9417   16.6183    3.7631 O   0  0  0  0  0  0  0  0  0  0  0  0
   40.8083   14.8653    5.3986 C   0  0  2  0  0  0  0  0  0  0  0  0
   33.6287   19.3749    9.0494 O   0  0  0  0  0  0  0  0  0  0  0  0
   38.9670    9.9788    5.9450 N   0  0  0  0  0  0  0  0  0  0  0  0
   38.5592   11.1205    6.6050 C   0  0  0  0  0  0  0  0  0  0  0  0
   39.1610   12.3332    6.3329 N   0  0  0  0  0  0  0  0  0  0  0  0
   40.1573   12.4121    5.4174 C   0  0  0  0  0  0  0  0  0  0  0  0
   40.5818   11.2750    4.7437 C   0  0  0  0  0  0  0  0  0  0  0  0
   39.9807   10.0509    5.0111 C   0  0  0  0  0  0  0  0  0  0  0  0
   40.3797    8.9549    4.3725 N   0  0  0  0  0  0  0  0  0  0  0  0
   41.5730   11.6368    3.9007 N   0  0  0  0  0  0  0  0  0  0  0  0
   41.7851   12.9673    4.0239 C   0  0  0  0  0  0  0  0  0  0  0  0
   40.9147   13.4619    4.9607 N   0  0  0  0  0  0  0  0  0  0  0  0
  2  1  1  1  0  0  0
  2  3  1  0  0  0  0
  2  5  1  0  0  0  0
  3  4  1  0  0  0  0
  3 16  1  0  0  0  0
  5  6  1  0  0  0  0
  6  7  1  0  0  0  0
  7  8  1  0  0  0  0
  9  8  1  6  0  0  0
  9 10  1  0  0  0  0
  9 11  1  0  0  0  0
 10 15  1  0  0  0  0
 11 12  1  1  0  0  0
 11 13  1  0  0  0  0
 13 14  1  1  0  0  0
 13 15  1  0  0  0  0
 15 26  1  6  0  0  0
 17 18  2  0  0  0  0
 17 22  1  0  0  0  0
 18 19  1  0  0  0  0
 19 20  2  0  0  0  0
 20 21  1  0  0  0  0
 20 26  1  0  0  0  0
 21 22  2  0  0  0  0
 21 24  1  0  0  0  0
 22 23  1  0  0  0  0
 24 25  2  0  0  0  0
 25 26  1  0  0  0  0
M  END
>  <CHROM.1>
155.47276411,-71.54706100,72.48619787,-121.84623479,165.38779294,92.99906883
15.63096741,38.24513215,14.79383413,6.42172002,-2.47722258,-0.60287000,3.05098702

>  <Name>
ligand

>  <RI>
0

>  <Rbt.Current_Directory>
/home/itssahil/PROJECTS/Mol_Feturizer/New_Systems/rnas/3NPQ

>  <Rbt.Executable>
rbdock ($Id: //depot/dev/client3/rdock/2013.1/src/exe/rbdock.cxx#4 $)

>  <Rbt.Library>
libRbt.so (2013.1, Build901 2013/11/27)

>  <Rbt.Parameter_File>
/export/apps/rDock/src/rDock_2013.1_src/data/scripts/dock_solv.prm

>  <Rbt.Receptor>
prm/pocket_docking_2.prm

>  <SCORE>
-27.5485

>  <SCORE.INTER>
-27.9959

>  <SCORE.INTER.CONST>
1

>  <SCORE.INTER.POLAR>
0

>  <SCORE.INTER.ROT>
7

>  <SCORE.INTER.SOLV>
16.7463

>  <SCORE.INTER.VDW>
-32.5127

>  <SCORE.INTER.norm>
-1.07677

>  <SCORE.INTRA>
0.447457

>  <SCORE.INTRA.DIHEDRAL>
2.57418

>  <SCORE.INTRA.DIHEDRAL.0>
6.97628

>  <SCORE.INTRA.POLAR>
0

>  <SCORE.INTRA.POLAR.0>
0

>  <SCORE.INTRA.REPUL>
0

>  <SCORE.INTRA.REPUL.0>
0

>  <SCORE.INTRA.SOLV>
1.8915

>  <SCORE.INTRA.SOLV.lig_0>
-49.8243

>  <SCORE.INTRA.VDW>
-1.78538

>  <SCORE.INTRA.VDW.0>
-1.35881

>  <SCORE.INTRA.norm>
0.0172099

>  <SCORE.RESTR>
0

>  <SCORE.RESTR.CAVITY>
0

>  <SCORE.RESTR.norm>
0

>  <SCORE.SYSTEM>
0

>  <SCORE.SYSTEM.CONST>
0

>  <SCORE.SYSTEM.DIHEDRAL>
0

>  <SCORE.SYSTEM.SOLV>
0

>  <SCORE.SYSTEM.norm>
0

>  <SCORE.heavy>
26

>  <SCORE.norm>
-1.05956

>  <RMSD>
2.153

$$$$
ligand
 OpenBabel11021811483D
libRbt.so/2013.1/901 2013/11/27
 26 28  0  0  0  0  0  0  0  0999 V2000
   35.5554   19.5862    8.3131 N   0  0  0  0  0  0  0  0  0  0  0  0
   35.0448   18.2237    8.3995 C   0  0  2  0  0  0  0  0  0  0  0  0
   33.6779   18.1919    9.0737 C   0  0  0  0  0  0  0  0  0  0  0  0
   32.6784   17.8171    8.4618 O   0  0  0  0  0  0  0  0  0  0  0  0
   36.0222   17.3345    9.1578 C   0  0  0  0  0  0  0  0  0  0  0  0
   35.6811   15.8509    9.1083 C   0  0  0  0  0  0  0  0  0  0  0  0
   35.7040   15.1891    7.4231 S   0  0  0  0  0  0  0  0  0  0  0  0
   37.2459   14.3119    7.7852 C   0  0  0  0  0  0  0  0  0  0  0  0
   38.4802   15.1828    7.5816 C   0  0  1  0  0  0  0  0  0  0  0  0
   39.6384   14.3711    7.5131 O   0  0  0  0  0  0  0  0  0  0  0  0
   38.3945   15.9799    6.2903 C   0  0  1  0  0  0  0  0  0  0  0  0
   38.3685   17.3581    6.5767 O   0  0  0  0  0  0  0  0  0  0  0  0
   39.6450   15.6357    5.5081 C   0  0  1  0  0  0  0  0  0  0  0  0
   40.3850   16.8040    5.2399 O   0  0  0  0  0  0  0  0  0  0  0  0
   40.4463   14.7022    6.3991 C   0  0  2  0  0  0  0  0  0  0  0  0
   33.5413   18.5401   10.2472 O   0  0  0  0  0  0  0  0  0  0  0  0
   39.2086    9.7056    5.3650 N   0  0  0  0  0  0  0  0  0  0  0  0
   38.5515   10.5905    6.1961 C   0  0  0  0  0  0  0  0  0  0  0  0
   39.0223   11.8794    6.3504 N   0  0  0  0  0  0  0  0  0  0  0  0
   40.1335   12.2855    5.6891 C   0  0  0  0  0  0  0  0  0  0  0  0
   40.8085   11.4101    4.8493 C   0  0  0  0  0  0  0  0  0  0  0  0
   40.3407   10.1115    4.6877 C   0  0  0  0  0  0  0  0  0  0  0  0
   40.9797    9.2641    3.8866 N   0  0  0  0  0  0  0  0  0  0  0  0
   41.8652   12.0681    4.3255 N   0  0  0  0  0  0  0  0  0  0  0  0
   41.8757   13.3310    4.8106 C   0  0  0  0  0  0  0  0  0  0  0  0
   40.8078   13.4807    5.6575 N   0  0  0  0  0  0  0  0  0  0  0  0
  2  1  1  1  0  0  0
  2  3  1  0  0  0  0
  2  5  1  0  0  0  0
  3  4  1  0  0  0  0
  3 16  1  0  0  0  0
  5  6  1  0  0  0  0
  6  7  1  0  0  0  0
  7  8  1  0  0  0  0
  9  8  1  6  0  0  0
  9 10  1  0  0  0  0
  9 11  1  0  0  0  0
 10 15  1  0  0  0  0
 11 12  1  1  0  0  0
 11 13  1  0  0  0  0
 13 14  1  1  0  0  0
 13 15  1  0  0  0  0
 15 26  1  6  0  0  0
 17 18  2  0  0  0  0
 17 22  1  0  0  0  0
 18 19  1  0  0  0  0
 19 20  2  0  0  0  0
 20 21  1  0  0  0  0
 20 26  1  0  0  0  0
 21 22  2  0  0  0  0
 21 24  1  0  0  0  0
 22 23  1  0  0  0  0
 24 25  2  0  0  0  0
 25 26  1  0  0  0  0
M  END
>  <CHROM.1>
116.31802777,-170.80728506,61.78464396,107.26335736,-85.33946292,-163.85753537
21.97227449,38.04384532,14.72135949,6.80942345,-2.34166920,-0.45312648,-3.01319321

>  <Name>
ligand

>  <RI>
0

>  <Rbt.Current_Directory>
/home/itssahil/PROJECTS/Mol_Feturizer/New_Systems/rnas/3NPQ

>  <Rbt.Executable>
rbdock ($Id: //depot/dev/client3/rdock/2013.1/src/exe/rbdock.cxx#4 $)

>  <Rbt.Library>
libRbt.so (2013.1, Build901 2013/11/27)

>  <Rbt.Parameter_File>
/export/apps/rDock/src/rDock_2013.1_src/data/scripts/dock_solv.prm

>  <Rbt.Receptor>
prm/pocket_docking_3.prm

>  <SCORE>
-30.9009

>  <SCORE.INTER>
-29.3906

>  <SCORE.INTER.CONST>
1

>  <SCORE.INTER.POLAR>
0

>  <SCORE.INTER.ROT>
7

>  <SCORE.INTER.SOLV>
17.1087

>  <SCORE.INTER.VDW>
-33.5633

>  <SCORE.INTER.norm>
-1.13041

>  <SCORE.INTRA>
-1.51028

>  <SCORE.INTRA.DIHEDRAL>
-0.0379554

>  <SCORE.INTRA.DIHEDRAL.0>
6.97628

>  <SCORE.INTRA.POLAR>
0

>  <SCORE.INTRA.POLAR.0>
0

>  <SCORE.INTRA.REPUL>
0

>  <SCORE.INTRA.REPUL.0>
0

>  <SCORE.INTRA.SOLV>
0.0730056

>  <SCORE.INTRA.SOLV.lig_0>
-49.8243

>  <SCORE.INTRA.VDW>
-1.52781

>  <SCORE.INTRA.VDW.0>
-1.35881

>  <SCORE.INTRA.norm>
-0.0580879

>  <SCORE.RESTR>
0

>  <SCORE.RESTR.CAVITY>
0

>  <SCORE.RESTR.norm>
0

>  <SCORE.SYSTEM>
0

>  <SCORE.SYSTEM.CONST>
0

>  <SCORE.SYSTEM.DIHEDRAL>
0

>  <SCORE.SYSTEM.SOLV>
0

>  <SCORE.SYSTEM.norm>
0

>  <SCORE.heavy>
26

>  <SCORE.norm>
-1.1885

>  <RMSD>
2.169

$$$$
ligand
 OpenBabel11021811483D
libRbt.so/2013.1/901 2013/11/27
 26 28  0  0  0  0  0  0  0  0999 V2000
   36.5972   18.1209    8.4331 N   0  0  0  0  0  0  0  0  0  0  0  0
   35.2145   17.6662    8.3554 C   0  0  2  0  0  0  0  0  0  0  0  0
   34.5937   17.5582    9.7435 C   0  0  0  0  0  0  0  0  0  0  0  0
   35.0765   16.8152   10.5972 O   0  0  0  0  0  0  0  0  0  0  0  0
   35.1337   16.3229    7.6411 C   0  0  0  0  0  0  0  0  0  0  0  0
   35.7882   15.1749    8.3982 C   0  0  0  0  0  0  0  0  0  0  0  0
   37.5465   15.4665    8.7169 S   0  0  0  0  0  0  0  0  0  0  0  0
   37.9125   15.1942    6.9647 C   0  0  0  0  0  0  0  0  0  0  0  0
   39.2714   15.7495    6.5542 C   0  0  1  0  0  0  0  0  0  0  0  0
   40.2621   14.7459    6.6818 O   0  0  0  0  0  0  0  0  0  0  0  0
   39.2693   16.2190    5.1086 C   0  0  1  0  0  0  0  0  0  0  0  0
   39.5026   17.6064    5.0533 O   0  0  0  0  0  0  0  0  0  0  0  0
   40.4010   15.4750    4.4305 C   0  0  1  0  0  0  0  0  0  0  0  0
   41.3239   16.3895    3.8864 O   0  0  0  0  0  0  0  0  0  0  0  0
   41.0635   14.6485    5.5193 C   0  0  2  0  0  0  0  0  0  0  0  0
   33.5944   18.2125   10.0440 O   0  0  0  0  0  0  0  0  0  0  0  0
   38.9294    9.8572    5.7569 N   0  0  0  0  0  0  0  0  0  0  0  0
   38.4827   11.0183    6.3551 C   0  0  0  0  0  0  0  0  0  0  0  0
   39.1758   12.2001    6.1827 N   0  0  0  0  0  0  0  0  0  0  0  0
   40.3004   12.2295    5.4269 C   0  0  0  0  0  0  0  0  0  0  0  0
   40.7659   11.0722    4.8177 C   0  0  0  0  0  0  0  0  0  0  0  0
   40.0737    9.8789    4.9854 C   0  0  0  0  0  0  0  0  0  0  0  0
   40.5107    8.7640    4.4074 N   0  0  0  0  0  0  0  0  0  0  0  0
   41.8881   11.3846    4.1343 N   0  0  0  0  0  0  0  0  0  0  0  0
   42.1429   12.7035    4.2953 C   0  0  0  0  0  0  0  0  0  0  0  0
   41.1669   13.2409    5.0943 N   0  0  0  0  0  0  0  0  0  0  0  0
  2  1  1  1  0  0  0
  2  3  1  0  0  0  0
  2  5  1  0  0  0  0
  3  4  1  0  0  0  0
  3 16  1  0  0  0  0
  5  6  1  0  0  0  0
  6  7  1  0  0  0  0
  7  8  1  0  0  0  0
  9  8  1  6  0  0  0
  9 10  1  0  0  0  0
  9 11  1  0  0  0  0
 10 15  1  0  0  0  0
 11 12  1  1  0  0  0
 11 13  1  0  0  0  0
 13 14  1  1  0  0  0
 13 15  1  0  0  0  0
 15 26  1  6  0  0  0
 17 18  2  0  0  0  0
 17 22  1  0  0  0  0
 18 19  1  0  0  0  0
 19 20  2  0  0  0  0
 20 21  1  0  0  0  0
 20 26  1  0  0  0  0
 21 22  2  0  0  0  0
 21 24  1  0  0  0  0
 22 23  1  0  0  0  0
 24 25  2  0  0  0  0
 25 26  1  0  0  0  0
M  END
>  <CHROM.1>
-59.49450368,66.40192664,-59.10869065,-72.25276938,161.80549595,91.92109647
21.23895730,38.58969781,14.53146732,6.59858174,-2.46233549,-0.67862988,3.13564570

>  <Name>
ligand

>  <RI>
0

>  <Rbt.Current_Directory>
/home/itssahil/PROJECTS/Mol_Feturizer/New_Systems/rnas/3NPQ

>  <Rbt.Executable>
rbdock ($Id: //depot/dev/client3/rdock/2013.1/src/exe/rbdock.cxx#4 $)

>  <Rbt.Library>
libRbt.so (2013.1, Build901 2013/11/27)

>  <Rbt.Parameter_File>
/export/apps/rDock/src/rDock_2013.1_src/data/scripts/dock_solv.prm

>  <Rbt.Receptor>
prm/pocket_docking_3.prm

>  <SCORE>
-26.0641

>  <SCORE.INTER>
-26.7965

>  <SCORE.INTER.CONST>
1

>  <SCORE.INTER.POLAR>
0

>  <SCORE.INTER.ROT>
7

>  <SCORE.INTER.SOLV>
16.8367

>  <SCORE.INTER.VDW>
-31.7433

>  <SCORE.INTER.norm>
-1.03064

>  <SCORE.INTRA>
0.732444

>  <SCORE.INTRA.DIHEDRAL>
-0.504723

>  <SCORE.INTRA.DIHEDRAL.0>
6.97628

>  <SCORE.INTRA.POLAR>
0

>  <SCORE.INTRA.POLAR.0>
0

>  <SCORE.INTRA.REPUL>
0

>  <SCORE.INTRA.REPUL.0>
0

>  <SCORE.INTRA.SOLV>
2.27835

>  <SCORE.INTRA.SOLV.lig_0>
-49.8243

>  <SCORE.INTRA.VDW>
-0.154371

>  <SCORE.INTRA.VDW.0>
-1.35881

>  <SCORE.INTRA.norm>
0.0281709

>  <SCORE.RESTR>
0

>  <SCORE.RESTR.CAVITY>
0

>  <SCORE.RESTR.norm>
0

>  <SCORE.SYSTEM>
0

>  <SCORE.SYSTEM.CONST>
0

>  <SCORE.SYSTEM.DIHEDRAL>
0

>  <SCORE.SYSTEM.SOLV>
0

>  <SCORE.SYSTEM.norm>
0

>  <SCORE.heavy>
26

>  <SCORE.norm>
-1.00247

>  <RMSD>
2.180

$$$$
ligand
 OpenBabel11021811483D
libRbt.so/2013.1/901 2013/11/27
 26 28  0  0  0  0  0  0  0  0999 V2000
   36.1987   17.9960    8.9130 N   0  0  0  0  0  0  0  0  0  0  0  0
   35.0135   17.2547    8.5003 C   0  0  2  0  0  0  0  0  0  0  0  0
   33.7467   17.8864    9.0663 C   0  0  0  0  0  0  0  0  0  0  0  0
   33.7663   18.4974   10.1341 O   0  0  0  0  0  0  0  0  0  0  0  0
   35.1136   15.7998    8.9411 C   0  0  0  0  0  0  0  0  0  0  0  0
   36.1218   14.9774    8.1493 C   0  0  0  0  0  0  0  0  0  0  0  0
   37.8345   15.4241    8.5308 S   0  0  0  0  0  0  0  0  0  0  0  0
   38.2159   15.4849    6.7619 C   0  0  0  0  0  0  0  0  0  0  0  0
   39.6656   15.8659    6.4853 C   0  0  1  0  0  0  0  0  0  0  0  0
   40.5017   14.7345    6.6458 O   0  0  0  0  0  0  0  0  0  0  0  0
   39.8471   16.3800    5.0664 C   0  0  1  0  0  0  0  0  0  0  0  0
   40.2642   17.7245    5.0918 O   0  0  0  0  0  0  0  0  0  0  0  0
   40.9244   15.5139    4.4473 C   0  0  1  0  0  0  0  0  0  0  0  0
   42.0019   16.3139    4.0193 O   0  0  0  0  0  0  0  0  0  0  0  0
   41.3786   14.5696    5.5470 C   0  0  2  0  0  0  0  0  0  0  0  0
   32.6736   17.8008    8.4681 O   0  0  0  0  0  0  0  0  0  0  0  0
   38.8815    9.9579    5.7999 N   0  0  0  0  0  0  0  0  0  0  0  0
   38.5803   11.1264    6.4702 C   0  0  0  0  0  0  0  0  0  0  0  0
   39.3530   12.2552    6.2810 N   0  0  0  0  0  0  0  0  0  0  0  0
   40.4135   12.2246    5.4376 C   0  0  0  0  0  0  0  0  0  0  0  0
   40.7327   11.0587    4.7549 C   0  0  0  0  0  0  0  0  0  0  0  0
   39.9596    9.9187    4.9390 C   0  0  0  0  0  0  0  0  0  0  0  0
   40.2565    8.7961    4.2911 N   0  0  0  0  0  0  0  0  0  0  0  0
   41.8198   11.3073    3.9931 N   0  0  0  0  0  0  0  0  0  0  0  0
   42.1945   12.5944    4.1761 C   0  0  0  0  0  0  0  0  0  0  0  0
   41.3318   13.1760    5.0691 N   0  0  0  0  0  0  0  0  0  0  0  0
  2  1  1  1  0  0  0
  2  3  1  0  0  0  0
  2  5  1  0  0  0  0
  3  4  1  0  0  0  0
  3 16  1  0  0  0  0
  5  6  1  0  0  0  0
  6  7  1  0  0  0  0
  7  8  1  0  0  0  0
  9  8  1  6  0  0  0
  9 10  1  0  0  0  0
  9 11  1  0  0  0  0
 10 15  1  0  0  0  0
 11 12  1  1  0  0  0
 11 13  1  0  0  0  0
 13 14  1  1  0  0  0
 13 15  1  0  0  0  0
 15 26  1  6  0  0  0
 17 18  2  0  0  0  0
 17 22  1  0  0  0  0
 18 19  1  0  0  0  0
 19 20  2  0  0  0  0
 20 21  1  0  0  0  0
 20 26  1  0  0  0  0
 21 22  2  0  0  0  0
 21 24  1  0  0  0  0
 22 23  1  0  0  0  0
 24 25  2  0  0  0  0
 25 26  1  0  0  0  0
M  END
>  <CHROM.1>
-29.47191531,-72.31675993,71.37363102,-132.89077788,179.39033504,80.37986277
11.48867847,38.63029285,14.56942088,6.52363243,-2.45546239,-0.54615550,-3.06759067

>  <Name>
ligand

>  <RI>
0

>  <Rbt.Current_Directory>
/home/itssahil/PROJECTS/Mol_Feturizer/New_Systems/rnas/3NPQ

>  <Rbt.Executable>
rbdock ($Id: //depot/dev/client3/rdock/2013.1/src/exe/rbdock.cxx#4 $)

>  <Rbt.Library>
libRbt.so (2013.1, Build901 2013/11/27)

>  <Rbt.Parameter_File>
/export/apps/rDock/src/rDock_2013.1_src/data/scripts/dock_solv.prm

>  <Rbt.Receptor>
prm/pocket_docking_5.prm

>  <SCORE>
-28.9522

>  <SCORE.INTER>
-28.1224

>  <SCORE.INTER.CONST>
1

>  <SCORE.INTER.POLAR>
0

>  <SCORE.INTER.ROT>
7

>  <SCORE.INTER.SOLV>
17.5127

>  <SCORE.INTER.VDW>
-32.8525

>  <SCORE.INTER.norm>
-1.08163

>  <SCORE.INTRA>
-0.829865

>  <SCORE.INTRA.DIHEDRAL>
0.273781

>  <SCORE.INTRA.DIHEDRAL.0>
6.97628

>  <SCORE.INTRA.POLAR>
0

>  <SCORE.INTRA.POLAR.0>
0

>  <SCORE.INTRA.REPUL>
0

>  <SCORE.INTRA.REPUL.0>
0

>  <SCORE.INTRA.SOLV>
1.44832

>  <SCORE.INTRA.SOLV.lig_0>
-49.8243

>  <SCORE.INTRA.VDW>
-1.69091

>  <SCORE.INTRA.VDW.0>
-1.35881

>  <SCORE.INTRA.norm>
-0.0319179

>  <SCORE.RESTR>
0

>  <SCORE.RESTR.CAVITY>
0

>  <SCORE.RESTR.norm>
0

>  <SCORE.SYSTEM>
0

>  <SCORE.SYSTEM.CONST>
0

>  <SCORE.SYSTEM.DIHEDRAL>
0

>  <SCORE.SYSTEM.SOLV>
0

>  <SCORE.SYSTEM.norm>
0

>  <SCORE.heavy>
26

>  <SCORE.norm>
-1.11355

>  <RMSD>
2.180

$$$$
ligand
 OpenBabel11021811483D
libRbt.so/2013.1/901 2013/11/27
 26 28  0  0  0  0  0  0  0  0999 V2000
   35.2426   16.4845   10.5940 N   0  0  0  0  0  0  0  0  0  0  0  0
   35.1114   16.9345    9.2138 C   0  0  2  0  0  0  0  0  0  0  0  0
   33.8037   17.6896    9.0049 C   0  0  0  0  0  0  0  0  0  0  0  0
   33.1145   17.4978    8.0038 O   0  0  0  0  0  0  0  0  0  0  0  0
   35.1902   15.7515    8.2570 C   0  0  0  0  0  0  0  0  0  0  0  0
   36.5275   15.0230    8.2766 C   0  0  0  0  0  0  0  0  0  0  0  0
   37.9366   16.1555    8.1750 S   0  0  0  0  0  0  0  0  0  0  0  0
   38.9739   14.8132    7.5424 C   0  0  0  0  0  0  0  0  0  0  0  0
   40.2173   15.3203    6.8212 C   0  0  1  0  0  0  0  0  0  0  0  0
   41.1396   14.2604    6.6446 O   0  0  0  0  0  0  0  0  0  0  0  0
   39.8788   15.8752    5.4472 C   0  0  1  0  0  0  0  0  0  0  0  0
   40.1812   17.2493    5.3957 O   0  0  0  0  0  0  0  0  0  0  0  0
   40.7493   15.1150    4.4682 C   0  0  1  0  0  0  0  0  0  0  0  0
   41.5618   16.0111    3.7462 O   0  0  0  0  0  0  0  0  0  0  0  0
   41.6109   14.1912    5.3118 C   0  0  2  0  0  0  0  0  0  0  0  0
   33.4053   18.5092    9.8334 O   0  0  0  0  0  0  0  0  0  0  0  0
   38.9536    9.6675    5.5166 N   0  0  0  0  0  0  0  0  0  0  0  0
   38.7007   10.8350    6.2085 C   0  0  0  0  0  0  0  0  0  0  0  0
   39.5113   11.9385    6.0294 N   0  0  0  0  0  0  0  0  0  0  0  0
   40.5618   11.8841    5.1749 C   0  0  0  0  0  0  0  0  0  0  0  0
   40.8327   10.7189    4.4705 C   0  0  0  0  0  0  0  0  0  0  0  0
   40.0212    9.6042    4.6443 C   0  0  0  0  0  0  0  0  0  0  0  0
   40.2717    8.4824    3.9755 N   0  0  0  0  0  0  0  0  0  0  0  0
   41.9206   10.9411    3.7017 N   0  0  0  0  0  0  0  0  0  0  0  0
   42.3427   12.2109    3.9013 C   0  0  0  0  0  0  0  0  0  0  0  0
   41.5099   12.8082    4.8122 N   0  0  0  0  0  0  0  0  0  0  0  0
  2  1  1  1  0  0  0
  2  3  1  0  0  0  0
  2  5  1  0  0  0  0
  3  4  1  0  0  0  0
  3 16  1  0  0  0  0
  5  6  1  0  0  0  0
  6  7  1  0  0  0  0
  7  8  1  0  0  0  0
  9  8  1  6  0  0  0
  9 10  1  0  0  0  0
  9 11  1  0  0  0  0
 10 15  1  0  0  0  0
 11 12  1  1  0  0  0
 11 13  1  0  0  0  0
 13 14  1  1  0  0  0
 13 15  1  0  0  0  0
 15 26  1  6  0  0  0
 17 18  2  0  0  0  0
 17 22  1  0  0  0  0
 18 19  1  0  0  0  0
 19 20  2  0  0  0  0
 20 21  1  0  0  0  0
 20 26  1  0  0  0  0
 21 22  2  0  0  0  0
 21 24  1  0  0  0  0
 22 23  1  0  0  0  0
 24 25  2  0  0  0  0
 25 26  1  0  0  0  0
M  END
>  <CHROM.1>
-137.26173041,-63.44941078,-47.73537775,-157.38422012,160.35702848,165.61555770
31.43991268,38.72352479,14.28851056,6.47690237,2.41748206,0.52673165,0.14462220

>  <Name>
ligand

>  <RI>
0

>  <Rbt.Current_Directory>
/home/itssahil/PROJECTS/Mol_Feturizer/New_Systems/rnas/3NPQ

>  <Rbt.Executable>
rbdock ($Id: //depot/dev/client3/rdock/2013.1/src/exe/rbdock.cxx#4 $)

>  <Rbt.Library>
libRbt.so (2013.1, Build901 2013/11/27)

>  <Rbt.Parameter_File>
/export/apps/rDock/src/rDock_2013.1_src/data/scripts/dock_solv.prm

>  <Rbt.Receptor>
prm/pocket_docking_8.prm

>  <SCORE>
-28.1152

>  <SCORE.INTER>
-27.0498

>  <SCORE.INTER.CONST>
1

>  <SCORE.INTER.POLAR>
0

>  <SCORE.INTER.ROT>
7

>  <SCORE.INTER.SOLV>
23.6836

>  <SCORE.INTER.VDW>
-34.1944

>  <SCORE.INTER.norm>
-1.04038

>  <SCORE.INTRA>
-1.06533

>  <SCORE.INTRA.DIHEDRAL>
-1.66794

>  <SCORE.INTRA.DIHEDRAL.0>
6.97628

>  <SCORE.INTRA.POLAR>
0

>  <SCORE.INTRA.POLAR.0>
0

>  <SCORE.INTRA.REPUL>
0

>  <SCORE.INTRA.REPUL.0>
0

>  <SCORE.INTRA.SOLV>
0.64386

>  <SCORE.INTRA.SOLV.lig_0>
-49.8243

>  <SCORE.INTRA.VDW>
-0.553293

>  <SCORE.INTRA.VDW.0>
-1.35881

>  <SCORE.INTRA.norm>
-0.0409743

>  <SCORE.RESTR>
0

>  <SCORE.RESTR.CAVITY>
0

>  <SCORE.RESTR.norm>
0

>  <SCORE.SYSTEM>
0

>  <SCORE.SYSTEM.CONST>
0

>  <SCORE.SYSTEM.DIHEDRAL>
0

>  <SCORE.SYSTEM.SOLV>
0

>  <SCORE.SYSTEM.norm>
0

>  <SCORE.heavy>
26

>  <SCORE.norm>
-1.08135

>  <RMSD>
2.199

$$$$
ligand
 OpenBabel11021811483D
libRbt.so/2013.1/901 2013/11/27
 26 28  0  0  0  0  0  0  0  0999 V2000
   34.2978   15.9331    7.3594 N   0  0  0  0  0  0  0  0  0  0  0  0
   34.4869   16.4240    8.7187 C   0  0  2  0  0  0  0  0  0  0  0  0
   33.5518   17.5908    9.0158 C   0  0  0  0  0  0  0  0  0  0  0  0
   33.6492   18.2298   10.0627 O   0  0  0  0  0  0  0  0  0  0  0  0
   35.9344   16.8459    8.9373 C   0  0  0  0  0  0  0  0  0  0  0  0
   36.9538   15.7583    8.6247 C   0  0  0  0  0  0  0  0  0  0  0  0
   38.6602   16.3529    8.7383 S   0  0  0  0  0  0  0  0  0  0  0  0
   39.1769   15.1115    7.5258 C   0  0  0  0  0  0  0  0  0  0  0  0
   40.4262   15.5245    6.7566 C   0  0  1  0  0  0  0  0  0  0  0  0
   41.2887   14.4121    6.6025 O   0  0  0  0  0  0  0  0  0  0  0  0
   40.0825   16.0415    5.3691 C   0  0  1  0  0  0  0  0  0  0  0  0
   40.4531   17.3950    5.2548 O   0  0  0  0  0  0  0  0  0  0  0  0
   40.8888   15.1991    4.4025 C   0  0  1  0  0  0  0  0  0  0  0  0
   41.7277   16.0226    3.6264 O   0  0  0  0  0  0  0  0  0  0  0  0
   41.7229   14.2660    5.2633 C   0  0  2  0  0  0  0  0  0  0  0  0
   32.6768   17.9220    8.2148 O   0  0  0  0  0  0  0  0  0  0  0  0
   38.8647    9.8872    5.7373 N   0  0  0  0  0  0  0  0  0  0  0  0
   38.6917   11.0911    6.3902 C   0  0  0  0  0  0  0  0  0  0  0  0
   39.5464   12.1465    6.1401 N   0  0  0  0  0  0  0  0  0  0  0  0
   40.5623   12.0087    5.2537 C   0  0  0  0  0  0  0  0  0  0  0  0
   40.7529   10.8058    4.5876 C   0  0  0  0  0  0  0  0  0  0  0  0
   39.8967    9.7390    4.8328 C   0  0  0  0  0  0  0  0  0  0  0  0
   40.0703    8.5818    4.2013 N   0  0  0  0  0  0  0  0  0  0  0  0
   41.8222   10.9456    3.7745 N   0  0  0  0  0  0  0  0  0  0  0  0
   42.3103   12.2002    3.9091 C   0  0  0  0  0  0  0  0  0  0  0  0
   41.5393   12.8714    4.8229 N   0  0  0  0  0  0  0  0  0  0  0  0
  2  1  1  6  0  0  0
  2  3  1  0  0  0  0
  2  5  1  0  0  0  0
  3  4  1  0  0  0  0
  3 16  1  0  0  0  0
  5  6  1  0  0  0  0
  6  7  1  0  0  0  0
  7  8  1  0  0  0  0
  9  8  1  6  0  0  0
  9 10  1  0  0  0  0
  9 11  1  0  0  0  0
 10 15  1  0  0  0  0
 11 12  1  1  0  0  0
 11 13  1  0  0  0  0
 13 14  1  1  0  0  0
 13 15  1  0  0  0  0
 15 26  1  6  0  0  0
 17 18  2  0  0  0  0
 17 22  1  0  0  0  0
 18 19  1  0  0  0  0
 19 20  2  0  0  0  0
 20 21  1  0  0  0  0
 20 26  1  0  0  0  0
 21 22  2  0  0  0  0
 21 24  1  0  0  0  0
 22 23  1  0  0  0  0
 24 25  2  0  0  0  0
 25 26  1  0  0  0  0
M  END
>  <CHROM.1>
-172.72471544,-55.17162257,174.25743415,-152.25084910,154.00647818,138.91486605
30.78233620,38.79152765,14.42229158,6.46449664,2.40623978,0.44704357,0.19638674

>  <Name>
ligand

>  <RI>
0

>  <Rbt.Current_Directory>
/home/itssahil/PROJECTS/Mol_Feturizer/New_Systems/rnas/3NPQ

>  <Rbt.Executable>
rbdock ($Id: //depot/dev/client3/rdock/2013.1/src/exe/rbdock.cxx#4 $)

>  <Rbt.Library>
libRbt.so (2013.1, Build901 2013/11/27)

>  <Rbt.Parameter_File>
/export/apps/rDock/src/rDock_2013.1_src/data/scripts/dock_solv.prm

>  <Rbt.Receptor>
prm/pocket_docking_3.prm

>  <SCORE>
-26.8194

>  <SCORE.INTER>
-26.6565

>  <SCORE.INTER.CONST>
1

>  <SCORE.INTER.POLAR>
0

>  <SCORE.INTER.ROT>
7

>  <SCORE.INTER.SOLV>
22.6292

>  <SCORE.INTER.VDW>
-33.5807

>  <SCORE.INTER.norm>
-1.02525

>  <SCORE.INTRA>
-0.162904

>  <SCORE.INTRA.DIHEDRAL>
1.99185

>  <SCORE.INTRA.DIHEDRAL.0>
6.97628

>  <SCORE.INTRA.POLAR>
0

>  <SCORE.INTRA.POLAR.0>
0

>  <SCORE.INTRA.REPUL>
0

>  <SCORE.INTRA.REPUL.0>
0

>  <SCORE.INTRA.SOLV>
-0.170301

>  <SCORE.INTRA.SOLV.lig_0>
-49.8243

>  <SCORE.INTRA.VDW>
-1.07368

>  <SCORE.INTRA.VDW.0>
-1.35881

>  <SCORE.INTRA.norm>
-0.00626552

>  <SCORE.RESTR>
0

>  <SCORE.RESTR.CAVITY>
0

>  <SCORE.RESTR.norm>
0

>  <SCORE.SYSTEM>
0

>  <SCORE.SYSTEM.CONST>
0

>  <SCORE.SYSTEM.DIHEDRAL>
0

>  <SCORE.SYSTEM.SOLV>
0

>  <SCORE.SYSTEM.norm>
0

>  <SCORE.heavy>
26

>  <SCORE.norm>
-1.03151

>  <RMSD>
2.217

$$$$
ligand
 OpenBabel11021811483D
libRbt.so/2013.1/901 2013/11/27
 26 28  0  0  0  0  0  0  0  0999 V2000
   34.8710   18.0487   10.5971 N   0  0  0  0  0  0  0  0  0  0  0  0
   35.1043   17.5253    9.2569 C   0  0  2  0  0  0  0  0  0  0  0  0
   33.7895   17.3039    8.5178 C   0  0  0  0  0  0  0  0  0  0  0  0
   32.7503   17.8411    8.8992 O   0  0  0  0  0  0  0  0  0  0  0  0
   35.8925   16.2231    9.3222 C   0  0  0  0  0  0  0  0  0  0  0  0
   36.4116   15.7414    7.9738 C   0  0  0  0  0  0  0  0  0  0  0  0
   37.4346   14.2541    8.1150 S   0  0  0  0  0  0  0  0  0  0  0  0
   38.0599   14.5211    6.4369 C   0  0  0  0  0  0  0  0  0  0  0  0
   39.4855   15.0601    6.4190 C   0  0  1  0  0  0  0  0  0  0  0  0
   40.4076   13.9915    6.5323 O   0  0  0  0  0  0  0  0  0  0  0  0
   39.7872   15.7987    5.1252 C   0  0  1  0  0  0  0  0  0  0  0  0
   40.0570   17.1536    5.3967 O   0  0  0  0  0  0  0  0  0  0  0  0
   41.0165   15.1308    4.5447 C   0  0  1  0  0  0  0  0  0  0  0  0
   42.0504   16.0743    4.3860 O   0  0  0  0  0  0  0  0  0  0  0  0
   41.4261   14.0707    5.5527 C   0  0  2  0  0  0  0  0  0  0  0  0
   33.7359   16.5825    7.5211 O   0  0  0  0  0  0  0  0  0  0  0  0
   39.5135    9.2172    4.9585 N   0  0  0  0  0  0  0  0  0  0  0  0
   39.0284   10.2307    5.7604 C   0  0  0  0  0  0  0  0  0  0  0  0
   39.6642   11.4561    5.7929 N   0  0  0  0  0  0  0  0  0  0  0  0
   40.7698   11.6732    5.0395 C   0  0  0  0  0  0  0  0  0  0  0  0
   41.2731   10.6663    4.2271 C   0  0  0  0  0  0  0  0  0  0  0  0
   40.6386    9.4305    4.1880 C   0  0  0  0  0  0  0  0  0  0  0  0
   41.1124    8.4584    3.4143 N   0  0  0  0  0  0  0  0  0  0  0  0
   42.3652   11.1485    3.5956 N   0  0  0  0  0  0  0  0  0  0  0  0
   42.5644   12.4283    3.9864 C   0  0  0  0  0  0  0  0  0  0  0  0
   41.5829   12.7678    4.8816 N   0  0  0  0  0  0  0  0  0  0  0  0
  2  1  1  1  0  0  0
  2  3  1  0  0  0  0
  2  5  1  0  0  0  0
  3  4  1  0  0  0  0
  3 16  1  0  0  0  0
  5  6  1  0  0  0  0
  6  7  1  0  0  0  0
  7  8  1  0  0  0  0
  9  8  1  6  0  0  0
  9 10  1  0  0  0  0
  9 11  1  0  0  0  0
 10 15  1  0  0  0  0
 11 12  1  1  0  0  0
 11 13  1  0  0  0  0
 13 14  1  1  0  0  0
 13 15  1  0  0  0  0
 15 26  1  6  0  0  0
 17 18  2  0  0  0  0
 17 22  1  0  0  0  0
 18 19  1  0  0  0  0
 19 20  2  0  0  0  0
 20 21  1  0  0  0  0
 20 26  1  0  0  0  0
 21 22  2  0  0  0  0
 21 24  1  0  0  0  0
 22 23  1  0  0  0  0
 24 25  2  0  0  0  0
 25 26  1  0  0  0  0
M  END
>  <CHROM.1>
17.65590204,-168.94953172,176.13100532,-164.71459998,104.84899578,83.88449041
7.65897640,38.74640575,14.07468092,6.30267948,-2.42540499,-0.50465941,-3.00117596

>  <Name>
ligand

>  <RI>
0

>  <Rbt.Current_Directory>
/home/itssahil/PROJECTS/Mol_Feturizer/New_Systems/rnas/3NPQ

>  <Rbt.Executable>
rbdock ($Id: //depot/dev/client3/rdock/2013.1/src/exe/rbdock.cxx#4 $)

>  <Rbt.Library>
libRbt.so (2013.1, Build901 2013/11/27)

>  <Rbt.Parameter_File>
/export/apps/rDock/src/rDock_2013.1_src/data/scripts/dock_solv.prm

>  <Rbt.Receptor>
prm/pocket_docking_5.prm

>  <SCORE>
-27.4197

>  <SCORE.INTER>
-26.7738

>  <SCORE.INTER.CONST>
1

>  <SCORE.INTER.POLAR>
0

>  <SCORE.INTER.ROT>
7

>  <SCORE.INTER.SOLV>
20.3406

>  <SCORE.INTER.VDW>
-32.8961

>  <SCORE.INTER.norm>
-1.02976

>  <SCORE.INTRA>
-0.64586

>  <SCORE.INTRA.DIHEDRAL>
0.421745

>  <SCORE.INTRA.DIHEDRAL.0>
6.97628

>  <SCORE.INTRA.POLAR>
0

>  <SCORE.INTRA.POLAR.0>
0

>  <SCORE.INTRA.REPUL>
0

>  <SCORE.INTRA.REPUL.0>
0

>  <SCORE.INTRA.SOLV>
-0.910102

>  <SCORE.INTRA.SOLV.lig_0>
-49.8243

>  <SCORE.INTRA.VDW>
-0.401681

>  <SCORE.INTRA.VDW.0>
-1.35881

>  <SCORE.INTRA.norm>
-0.0248408

>  <SCORE.RESTR>
0

>  <SCORE.RESTR.CAVITY>
0

>  <SCORE.RESTR.norm>
0

>  <SCORE.SYSTEM>
0

>  <SCORE.SYSTEM.CONST>
0

>  <SCORE.SYSTEM.DIHEDRAL>
0

>  <SCORE.SYSTEM.SOLV>
0

>  <SCORE.SYSTEM.norm>
0

>  <SCORE.heavy>
26

>  <SCORE.norm>
-1.0546

>  <RMSD>
2.217

$$$$
ligand
 OpenBabel11021811483D
libRbt.so/2013.1/901 2013/11/27
 26 28  0  0  0  0  0  0  0  0999 V2000
   34.3285   15.8751    7.4083 N   0  0  0  0  0  0  0  0  0  0  0  0
   34.4857   16.4189    8.7514 C   0  0  2  0  0  0  0  0  0  0  0  0
   33.5224   17.5760    8.9910 C   0  0  0  0  0  0  0  0  0  0  0  0
   33.6390   18.3035    9.9764 O   0  0  0  0  0  0  0  0  0  0  0  0
   35.9206   16.8786    8.9766 C   0  0  0  0  0  0  0  0  0  0  0  0
   36.9686   15.8118    8.6880 C   0  0  0  0  0  0  0  0  0  0  0  0
   38.6595   16.4449    8.8243 S   0  0  0  0  0  0  0  0  0  0  0  0
   39.2370   15.1551    7.6925 C   0  0  0  0  0  0  0  0  0  0  0  0
   40.4446   15.5909    6.8708 C   0  0  1  0  0  0  0  0  0  0  0  0
   41.3232   14.4961    6.6849 O   0  0  0  0  0  0  0  0  0  0  0  0
   40.0330   16.0946    5.4970 C   0  0  1  0  0  0  0  0  0  0  0  0
   40.3699   17.4550    5.3628 O   0  0  0  0  0  0  0  0  0  0  0  0
   40.8162   15.2651    4.5006 C   0  0  1  0  0  0  0  0  0  0  0  0
   41.6048   16.1027    3.6877 O   0  0  0  0  0  0  0  0  0  0  0  0
   41.7046   14.3533    5.3294 C   0  0  2  0  0  0  0  0  0  0  0  0
   32.6048   17.8106    8.2037 O   0  0  0  0  0  0  0  0  0  0  0  0
   38.8694    9.9624    5.8276 N   0  0  0  0  0  0  0  0  0  0  0  0
   38.6847   11.1717    6.4671 C   0  0  0  0  0  0  0  0  0  0  0  0
   39.5347   12.2296    6.2124 N   0  0  0  0  0  0  0  0  0  0  0  0
   40.5576   12.0891    5.3344 C   0  0  0  0  0  0  0  0  0  0  0  0
   40.7600   10.8807    4.6817 C   0  0  0  0  0  0  0  0  0  0  0  0
   39.9085    9.8114    4.9317 C   0  0  0  0  0  0  0  0  0  0  0  0
   40.0933    8.6490    4.3131 N   0  0  0  0  0  0  0  0  0  0  0  0
   41.8341   11.0189    3.8747 N   0  0  0  0  0  0  0  0  0  0  0  0
   42.3137   12.2777    4.0000 C   0  0  0  0  0  0  0  0  0  0  0  0
   41.5324   12.9533    4.9017 N   0  0  0  0  0  0  0  0  0  0  0  0
  2  1  1  6  0  0  0
  2  3  1  0  0  0  0
  2  5  1  0  0  0  0
  3  4  1  0  0  0  0
  3 16  1  0  0  0  0
  5  6  1  0  0  0  0
  6  7  1  0  0  0  0
  7  8  1  0  0  0  0
  9  8  1  1  0  0  0
  9 10  1  0  0  0  0
  9 11  1  0  0  0  0
 10 15  1  0  0  0  0
 11 12  1  1  0  0  0
 11 13  1  0  0  0  0
 13 14  1  6  0  0  0
 13 15  1  0  0  0  0
 15 26  1  6  0  0  0
 17 18  2  0  0  0  0
 17 22  1  0  0  0  0
 18 19  1  0  0  0  0
 19 20  2  0  0  0  0
 20 21  1  0  0  0  0
 20 26  1  0  0  0  0
 21 22  2  0  0  0  0
 21 24  1  0  0  0  0
 22 23  1  0  0  0  0
 24 25  2  0  0  0  0
 25 26  1  0  0  0  0
M  END
>  <CHROM.1>
-168.41585425,-53.78919586,174.83335412,-154.88533199,149.95314150,143.71988431
33.70145807,38.77998182,14.47614756,6.53579737,2.40810932,0.43436486,0.19974448

>  <Name>
ligand

>  <RI>
0

>  <Rbt.Current_Directory>
/home/itssahil/PROJECTS/Mol_Feturizer/New_Systems/rnas/3NPQ

>  <Rbt.Executable>
rbdock ($Id: //depot/dev/client3/rdock/2013.1/src/exe/rbdock.cxx#4 $)

>  <Rbt.Library>
libRbt.so (2013.1, Build901 2013/11/27)

>  <Rbt.Parameter_File>
/export/apps/rDock/src/rDock_2013.1_src/data/scripts/dock_solv.prm

>  <Rbt.Receptor>
prm/pocket_docking_5.prm

>  <SCORE>
-26.8147

>  <SCORE.INTER>
-26.4942

>  <SCORE.INTER.CONST>
1

>  <SCORE.INTER.POLAR>
0

>  <SCORE.INTER.ROT>
7

>  <SCORE.INTER.SOLV>
22.7972

>  <SCORE.INTER.VDW>
-33.5286

>  <SCORE.INTER.norm>
-1.01901

>  <SCORE.INTRA>
-0.320513

>  <SCORE.INTRA.DIHEDRAL>
1.52169

>  <SCORE.INTRA.DIHEDRAL.0>
6.97628

>  <SCORE.INTRA.POLAR>
0

>  <SCORE.INTRA.POLAR.0>
0

>  <SCORE.INTRA.REPUL>
0

>  <SCORE.INTRA.REPUL.0>
0

>  <SCORE.INTRA.SOLV>
-0.147369

>  <SCORE.INTRA.SOLV.lig_0>
-49.8243

>  <SCORE.INTRA.VDW>
-1.00768

>  <SCORE.INTRA.VDW.0>
-1.35881

>  <SCORE.INTRA.norm>
-0.0123274

>  <SCORE.RESTR>
0

>  <SCORE.RESTR.CAVITY>
0

>  <SCORE.RESTR.norm>
0

>  <SCORE.SYSTEM>
0

>  <SCORE.SYSTEM.CONST>
0

>  <SCORE.SYSTEM.DIHEDRAL>
0

>  <SCORE.SYSTEM.SOLV>
0

>  <SCORE.SYSTEM.norm>
0

>  <SCORE.heavy>
26

>  <SCORE.norm>
-1.03134

>  <RMSD>
2.221

$$$$
ligand
 OpenBabel11021811483D
libRbt.so/2013.1/901 2013/11/27
 26 28  0  0  0  0  0  0  0  0999 V2000
   35.1218   14.7236    9.9714 N   0  0  0  0  0  0  0  0  0  0  0  0
   35.8317   15.5679    9.0186 C   0  0  2  0  0  0  0  0  0  0  0  0
   35.7052   17.0409    9.3903 C   0  0  0  0  0  0  0  0  0  0  0  0
   34.8898   17.4137   10.2330 O   0  0  0  0  0  0  0  0  0  0  0  0
   35.3062   15.3384    7.6071 C   0  0  0  0  0  0  0  0  0  0  0  0
   36.3176   15.6412    6.5094 C   0  0  0  0  0  0  0  0  0  0  0  0
   37.6438   14.4111    6.4287 S   0  0  0  0  0  0  0  0  0  0  0  0
   38.5678   15.3198    7.6930 C   0  0  0  0  0  0  0  0  0  0  0  0
   39.9494   15.7516    7.2155 C   0  0  1  0  0  0  0  0  0  0  0  0
   40.7965   14.6225    7.1026 O   0  0  0  0  0  0  0  0  0  0  0  0
   39.8852   16.4222    5.8530 C   0  0  1  0  0  0  0  0  0  0  0  0
   40.3054   17.7620    5.9561 O   0  0  0  0  0  0  0  0  0  0  0  0
   40.8361   15.6467    4.9651 C   0  0  1  0  0  0  0  0  0  0  0  0
   41.8266   16.5058    4.4501 O   0  0  0  0  0  0  0  0  0  0  0  0
   41.4699   14.5938    5.8580 C   0  0  2  0  0  0  0  0  0  0  0  0
   36.4163   17.8931    8.8565 O   0  0  0  0  0  0  0  0  0  0  0  0
   38.8692   10.0327    5.8649 N   0  0  0  0  0  0  0  0  0  0  0  0
   38.6681   11.1280    6.6805 C   0  0  0  0  0  0  0  0  0  0  0  0
   39.4533   12.2549    6.5371 N   0  0  0  0  0  0  0  0  0  0  0  0
   40.4282   12.2941    5.5964 C   0  0  0  0  0  0  0  0  0  0  0  0
   40.6462   11.2023    4.7670 C   0  0  0  0  0  0  0  0  0  0  0  0
   39.8597   10.0648    4.9042 C   0  0  0  0  0  0  0  0  0  0  0  0
   40.0601    9.0128    4.1160 N   0  0  0  0  0  0  0  0  0  0  0  0
   41.6637   11.5097    3.9339 N   0  0  0  0  0  0  0  0  0  0  0  0
   42.0927   12.7618    4.2142 C   0  0  0  0  0  0  0  0  0  0  0  0
   41.3361   13.2610    5.2428 N   0  0  0  0  0  0  0  0  0  0  0  0
  2  1  1  1  0  0  0
  2  3  1  0  0  0  0
  2  5  1  0  0  0  0
  3  4  1  0  0  0  0
  3 16  1  0  0  0  0
  5  6  1  0  0  0  0
  6  7  1  0  0  0  0
  7  8  1  0  0  0  0
  9  8  1  6  0  0  0
  9 10  1  0  0  0  0
  9 11  1  0  0  0  0
 10 15  1  0  0  0  0
 11 12  1  1  0  0  0
 11 13  1  0  0  0  0
 13 14  1  1  0  0  0
 13 15  1  0  0  0  0
 15 26  1  6  0  0  0
 17 18  2  0  0  0  0
 17 22  1  0  0  0  0
 18 19  1  0  0  0  0
 19 20  2  0  0  0  0
 20 21  1  0  0  0  0
 20 26  1  0  0  0  0
 21 22  2  0  0  0  0
 21 24  1  0  0  0  0
 22 23  1  0  0  0  0
 24 25  2  0  0  0  0
 25 26  1  0  0  0  0
M  END
>  <CHROM.1>
-12.74534108,-153.73312065,71.62866310,-85.94955415,-121.69655698,-71.00024851
16.28671951,38.90244250,14.28078735,6.53441435,2.36600160,0.56042560,0.19154221

>  <Name>
ligand

>  <RI>
0

>  <Rbt.Current_Directory>
/home/itssahil/PROJECTS/Mol_Feturizer/New_Systems/rnas/3NPQ

>  <Rbt.Executable>
rbdock ($Id: //depot/dev/client3/rdock/2013.1/src/exe/rbdock.cxx#4 $)

>  <Rbt.Library>
libRbt.so (2013.1, Build901 2013/11/27)

>  <Rbt.Parameter_File>
/export/apps/rDock/src/rDock_2013.1_src/data/scripts/dock_solv.prm

>  <Rbt.Receptor>
prm/pocket_docking_5.prm

>  <SCORE>
-22.5216

>  <SCORE.INTER>
-22.2621

>  <SCORE.INTER.CONST>
1

>  <SCORE.INTER.POLAR>
0

>  <SCORE.INTER.ROT>
7

>  <SCORE.INTER.SOLV>
25.2145

>  <SCORE.INTER.VDW>
-31.5129

>  <SCORE.INTER.norm>
-0.856236

>  <SCORE.INTRA>
-0.259457

>  <SCORE.INTRA.DIHEDRAL>
2.27208

>  <SCORE.INTRA.DIHEDRAL.0>
6.97628

>  <SCORE.INTRA.POLAR>
0

>  <SCORE.INTRA.POLAR.0>
0

>  <SCORE.INTRA.REPUL>
0

>  <SCORE.INTRA.REPUL.0>
0

>  <SCORE.INTRA.SOLV>
0.232897

>  <SCORE.INTRA.SOLV.lig_0>
-49.8243

>  <SCORE.INTRA.VDW>
-1.51194

>  <SCORE.INTRA.VDW.0>
-1.35881

>  <SCORE.INTRA.norm>
-0.00997913

>  <SCORE.RESTR>
0

>  <SCORE.RESTR.CAVITY>
0

>  <SCORE.RESTR.norm>
0

>  <SCORE.SYSTEM>
0

>  <SCORE.SYSTEM.CONST>
0

>  <SCORE.SYSTEM.DIHEDRAL>
0

>  <SCORE.SYSTEM.SOLV>
0

>  <SCORE.SYSTEM.norm>
0

>  <SCORE.heavy>
26

>  <SCORE.norm>
-0.866216

>  <RMSD>
2.237

$$$$
ligand
 OpenBabel11021811483D
libRbt.so/2013.1/901 2013/11/27
 26 28  0  0  0  0  0  0  0  0999 V2000
   36.5604   18.0292    8.8117 N   0  0  0  0  0  0  0  0  0  0  0  0
   35.1087   17.9661    8.6970 C   0  0  2  0  0  0  0  0  0  0  0  0
   34.4477   18.0046   10.0701 C   0  0  0  0  0  0  0  0  0  0  0  0
   33.3955   18.6167   10.2497 O   0  0  0  0  0  0  0  0  0  0  0  0
   34.6866   16.7077    7.9491 C   0  0  0  0  0  0  0  0  0  0  0  0
   35.0277   15.4107    8.6708 C   0  0  0  0  0  0  0  0  0  0  0  0
   36.8048   15.2268    8.9654 S   0  0  0  0  0  0  0  0  0  0  0  0
   37.0938   15.1303    7.1807 C   0  0  0  0  0  0  0  0  0  0  0  0
   38.3410   15.8904    6.7446 C   0  0  1  0  0  0  0  0  0  0  0  0
   39.4692   15.0361    6.7933 O   0  0  0  0  0  0  0  0  0  0  0  0
   38.2109   16.4073    5.3212 C   0  0  1  0  0  0  0  0  0  0  0  0
   38.2413   17.8149    5.3161 O   0  0  0  0  0  0  0  0  0  0  0  0
   39.4074   15.8596    4.5713 C   0  0  1  0  0  0  0  0  0  0  0  0
   40.1666   16.9170    4.0329 O   0  0  0  0  0  0  0  0  0  0  0  0
   40.2265   15.0980    5.5992 C   0  0  2  0  0  0  0  0  0  0  0  0
   34.9506   17.4235   11.0326 O   0  0  0  0  0  0  0  0  0  0  0  0
   39.0151   10.0013    5.9498 N   0  0  0  0  0  0  0  0  0  0  0  0
   38.4630   11.0571    6.6471 C   0  0  0  0  0  0  0  0  0  0  0  0
   38.9080   12.3453    6.4250 N   0  0  0  0  0  0  0  0  0  0  0  0
   39.8908   12.5834    5.5225 C   0  0  0  0  0  0  0  0  0  0  0  0
   40.4589   11.5348    4.8119 C   0  0  0  0  0  0  0  0  0  0  0  0
   40.0161   10.2355    5.0288 C   0  0  0  0  0  0  0  0  0  0  0  0
   40.5535    9.2232    4.3546 N   0  0  0  0  0  0  0  0  0  0  0  0
   41.4005   12.0500    3.9921 N   0  0  0  0  0  0  0  0  0  0  0  0
   41.4421   13.3910    4.1657 C   0  0  0  0  0  0  0  0  0  0  0  0
   40.5116   13.7366    5.1116 N   0  0  0  0  0  0  0  0  0  0  0  0
  2  1  1  1  0  0  0
  2  3  1  0  0  0  0
  2  5  1  0  0  0  0
  3  4  1  0  0  0  0
  3 16  1  0  0  0  0
  5  6  1  0  0  0  0
  6  7  1  0  0  0  0
  7  8  1  0  0  0  0
  9  8  1  6  0  0  0
  9 10  1  0  0  0  0
  9 11  1  0  0  0  0
 10 15  1  0  0  0  0
 11 12  1  1  0  0  0
 11 13  1  0  0  0  0
 13 14  1  1  0  0  0
 13 15  1  0  0  0  0
 15 26  1  6  0  0  0
 17 18  2  0  0  0  0
 17 22  1  0  0  0  0
 18 19  1  0  0  0  0
 19 20  2  0  0  0  0
 20 21  1  0  0  0  0
 20 26  1  0  0  0  0
 21 22  2  0  0  0  0
 21 24  1  0  0  0  0
 22 23  1  0  0  0  0
 24 25  2  0  0  0  0
 25 26  1  0  0  0  0
M  END
>  <CHROM.1>
142.36005796,64.59577303,-59.74962931,-65.25444277,139.85888729,89.58577190
15.03262386,38.06200690,14.81236317,6.77623130,-2.55606877,-0.78635835,2.99477402

>  <Name>
ligand

>  <RI>
0

>  <Rbt.Current_Directory>
/home/itssahil/PROJECTS/Mol_Feturizer/New_Systems/rnas/3NPQ

>  <Rbt.Executable>
rbdock ($Id: //depot/dev/client3/rdock/2013.1/src/exe/rbdock.cxx#4 $)

>  <Rbt.Library>
libRbt.so (2013.1, Build901 2013/11/27)

>  <Rbt.Parameter_File>
/export/apps/rDock/src/rDock_2013.1_src/data/scripts/dock_solv.prm

>  <Rbt.Receptor>
prm/pocket_docking_3.prm

>  <SCORE>
-27.455

>  <SCORE.INTER>
-28.9265

>  <SCORE.INTER.CONST>
1

>  <SCORE.INTER.POLAR>
0

>  <SCORE.INTER.ROT>
7

>  <SCORE.INTER.SOLV>
16.737

>  <SCORE.INTER.VDW>
-33.13

>  <SCORE.INTER.norm>
-1.11256

>  <SCORE.INTRA>
1.46542

>  <SCORE.INTRA.DIHEDRAL>
0.203739

>  <SCORE.INTRA.DIHEDRAL.0>
6.97628

>  <SCORE.INTRA.POLAR>
0

>  <SCORE.INTRA.POLAR.0>
0

>  <SCORE.INTRA.REPUL>
0

>  <SCORE.INTRA.REPUL.0>
0

>  <SCORE.INTRA.SOLV>
3.33063

>  <SCORE.INTRA.SOLV.lig_0>
-49.8243

>  <SCORE.INTRA.VDW>
-0.301766

>  <SCORE.INTRA.VDW.0>
-1.35881

>  <SCORE.INTRA.norm>
0.0563623

>  <SCORE.RESTR>
0.00614347

>  <SCORE.RESTR.CAVITY>
0.00614347

>  <SCORE.RESTR.norm>
0.000236287

>  <SCORE.SYSTEM>
0

>  <SCORE.SYSTEM.CONST>
0

>  <SCORE.SYSTEM.DIHEDRAL>
0

>  <SCORE.SYSTEM.SOLV>
0

>  <SCORE.SYSTEM.norm>
0

>  <SCORE.heavy>
26

>  <SCORE.norm>
-1.05596

>  <RMSD>
2.260

$$$$
ligand
 OpenBabel11021811483D
libRbt.so/2013.1/901 2013/11/27
 26 28  0  0  0  0  0  0  0  0999 V2000
   34.5843   18.1436   10.2332 N   0  0  0  0  0  0  0  0  0  0  0  0
   34.9472   17.2405    9.1482 C   0  0  2  0  0  0  0  0  0  0  0  0
   33.7642   16.9971    8.2180 C   0  0  0  0  0  0  0  0  0  0  0  0
   32.7058   17.6067    8.3666 O   0  0  0  0  0  0  0  0  0  0  0  0
   35.4560   15.9162    9.7037 C   0  0  0  0  0  0  0  0  0  0  0  0
   36.5702   15.2829    8.8807 C   0  0  0  0  0  0  0  0  0  0  0  0
   37.9216   16.4377    8.5369 S   0  0  0  0  0  0  0  0  0  0  0  0
   38.9179   15.0793    7.8734 C   0  0  0  0  0  0  0  0  0  0  0  0
   40.2044   15.5610    7.2129 C   0  0  1  0  0  0  0  0  0  0  0  0
   41.0913   14.4723    7.0311 O   0  0  0  0  0  0  0  0  0  0  0  0
   39.9359   16.1743    5.8483 C   0  0  1  0  0  0  0  0  0  0  0  0
   40.2919   17.5365    5.8549 O   0  0  0  0  0  0  0  0  0  0  0  0
   40.8108   15.4137    4.8737 C   0  0  1  0  0  0  0  0  0  0  0  0
   41.6818   16.3009    4.2113 O   0  0  0  0  0  0  0  0  0  0  0  0
   41.6064   14.4292    5.7135 C   0  0  2  0  0  0  0  0  0  0  0  0
   33.8396   16.1850    7.2952 O   0  0  0  0  0  0  0  0  0  0  0  0
   38.8246    9.9763    5.7385 N   0  0  0  0  0  0  0  0  0  0  0  0
   38.5996   11.1243    6.4713 C   0  0  0  0  0  0  0  0  0  0  0  0
   39.4413   12.2108    6.3370 N   0  0  0  0  0  0  0  0  0  0  0  0
   40.4953   12.1585    5.4866 C   0  0  0  0  0  0  0  0  0  0  0  0
   40.7385   11.0128    4.7414 C   0  0  0  0  0  0  0  0  0  0  0  0
   39.8957    9.9153    4.8700 C   0  0  0  0  0  0  0  0  0  0  0  0
   40.1194    8.8122    4.1620 N   0  0  0  0  0  0  0  0  0  0  0  0
   41.8369   11.2327    3.9871 N   0  0  0  0  0  0  0  0  0  0  0  0
   42.2924   12.4822    4.2353 C   0  0  0  0  0  0  0  0  0  0  0  0
   41.4706   13.0687    5.1631 N   0  0  0  0  0  0  0  0  0  0  0  0
  2  1  1  1  0  0  0
  2  3  1  0  0  0  0
  2  5  1  0  0  0  0
  3  4  1  0  0  0  0
  3 16  1  0  0  0  0
  5  6  1  0  0  0  0
  6  7  1  0  0  0  0
  7  8  1  0  0  0  0
  9  8  1  6  0  0  0
  9 10  1  0  0  0  0
  9 11  1  0  0  0  0
 10 15  1  0  0  0  0
 11 12  1  1  0  0  0
 11 13  1  0  0  0  0
 13 14  1  1  0  0  0
 13 15  1  0  0  0  0
 15 26  1  6  0  0  0
 17 18  2  0  0  0  0
 17 22  1  0  0  0  0
 18 19  1  0  0  0  0
 19 20  2  0  0  0  0
 20 21  1  0  0  0  0
 20 26  1  0  0  0  0
 21 22  2  0  0  0  0
 21 24  1  0  0  0  0
 22 23  1  0  0  0  0
 24 25  2  0  0  0  0
 25 26  1  0  0  0  0
M  END
>  <CHROM.1>
5.42128323,-144.83749811,50.94502806,170.85582648,171.85734348,164.82365745
29.66254335,38.68082179,14.46601645,6.66996086,-2.40416036,-0.41421622,-2.91623491

>  <Name>
ligand

>  <RI>
0

>  <Rbt.Current_Directory>
/home/itssahil/PROJECTS/Mol_Feturizer/New_Systems/rnas/3NPQ

>  <Rbt.Executable>
rbdock ($Id: //depot/dev/client3/rdock/2013.1/src/exe/rbdock.cxx#4 $)

>  <Rbt.Library>
libRbt.so (2013.1, Build901 2013/11/27)

>  <Rbt.Parameter_File>
/export/apps/rDock/src/rDock_2013.1_src/data/scripts/dock_solv.prm

>  <Rbt.Receptor>
prm/pocket_docking_4.prm

>  <SCORE>
-27.6243

>  <SCORE.INTER>
-26.5263

>  <SCORE.INTER.CONST>
1

>  <SCORE.INTER.POLAR>
0

>  <SCORE.INTER.ROT>
7

>  <SCORE.INTER.SOLV>
23.4639

>  <SCORE.INTER.VDW>
-33.7721

>  <SCORE.INTER.norm>
-1.02024

>  <SCORE.INTRA>
-1.09802

>  <SCORE.INTRA.DIHEDRAL>
0.686898

>  <SCORE.INTRA.DIHEDRAL.0>
6.97628

>  <SCORE.INTRA.POLAR>
0

>  <SCORE.INTRA.POLAR.0>
0

>  <SCORE.INTRA.REPUL>
0

>  <SCORE.INTRA.REPUL.0>
0

>  <SCORE.INTRA.SOLV>
-0.273694

>  <SCORE.INTRA.SOLV.lig_0>
-49.8243

>  <SCORE.INTRA.VDW>
-1.30462

>  <SCORE.INTRA.VDW.0>
-1.35881

>  <SCORE.INTRA.norm>
-0.0422315

>  <SCORE.RESTR>
0

>  <SCORE.RESTR.CAVITY>
0

>  <SCORE.RESTR.norm>
0

>  <SCORE.SYSTEM>
0

>  <SCORE.SYSTEM.CONST>
0

>  <SCORE.SYSTEM.DIHEDRAL>
0

>  <SCORE.SYSTEM.SOLV>
0

>  <SCORE.SYSTEM.norm>
0

>  <SCORE.heavy>
26

>  <SCORE.norm>
-1.06247

>  <RMSD>
2.274

$$$$
ligand
 OpenBabel11021811483D
libRbt.so/2013.1/901 2013/11/27
 26 28  0  0  0  0  0  0  0  0999 V2000
   33.5317   17.5961    8.1229 N   0  0  0  0  0  0  0  0  0  0  0  0
   34.4064   16.4370    8.2489 C   0  0  2  0  0  0  0  0  0  0  0  0
   34.9457   16.3085    9.6690 C   0  0  0  0  0  0  0  0  0  0  0  0
   35.2156   17.3061   10.3367 O   0  0  0  0  0  0  0  0  0  0  0  0
   35.5603   16.5288    7.2582 C   0  0  0  0  0  0  0  0  0  0  0  0
   36.2468   15.1986    6.9772 C   0  0  0  0  0  0  0  0  0  0  0  0
   37.1579   14.5711    8.4105 S   0  0  0  0  0  0  0  0  0  0  0  0
   38.2745   13.6669    7.3088 C   0  0  0  0  0  0  0  0  0  0  0  0
   39.4987   14.4838    6.9121 C   0  0  1  0  0  0  0  0  0  0  0  0
   40.6046   13.6252    6.7000 O   0  0  0  0  0  0  0  0  0  0  0  0
   39.2599   15.2598    5.6272 C   0  0  1  0  0  0  0  0  0  0  0  0
   39.3260   16.6430    5.8814 O   0  0  0  0  0  0  0  0  0  0  0  0
   40.3730   14.8515    4.6846 C   0  0  1  0  0  0  0  0  0  0  0  0
   41.1100   15.9841    4.2867 O   0  0  0  0  0  0  0  0  0  0  0  0
   41.2576   13.9031    5.4754 C   0  0  2  0  0  0  0  0  0  0  0  0
   35.1238   15.2031   10.1822 O   0  0  0  0  0  0  0  0  0  0  0  0
   39.6384    8.9726    4.6783 N   0  0  0  0  0  0  0  0  0  0  0  0
   39.1301    9.9027    5.5627 C   0  0  0  0  0  0  0  0  0  0  0  0
   39.6852   11.1647    5.6395 N   0  0  0  0  0  0  0  0  0  0  0  0
   40.7339   11.4999    4.8490 C   0  0  0  0  0  0  0  0  0  0  0  0
   41.2594   10.5782    3.9537 C   0  0  0  0  0  0  0  0  0  0  0  0
   40.7059    9.3063    3.8696 C   0  0  0  0  0  0  0  0  0  0  0  0
   41.2017    8.4150    3.0164 N   0  0  0  0  0  0  0  0  0  0  0  0
   42.2837   11.1695    3.3015 N   0  0  0  0  0  0  0  0  0  0  0  0
   42.4186   12.4353    3.7596 C   0  0  0  0  0  0  0  0  0  0  0  0
   41.4645   12.6547    4.7195 N   0  0  0  0  0  0  0  0  0  0  0  0
  2  1  1  1  0  0  0
  2  3  1  0  0  0  0
  2  5  1  0  0  0  0
  3  4  1  0  0  0  0
  3 16  1  0  0  0  0
  5  6  1  0  0  0  0
  6  7  1  0  0  0  0
  7  8  1  0  0  0  0
  9  8  1  6  0  0  0
  9 10  1  0  0  0  0
  9 11  1  0  0  0  0
 10 15  1  0  0  0  0
 11 12  1  1  0  0  0
 11 13  1  0  0  0  0
 13 14  1  1  0  0  0
 13 15  1  0  0  0  0
 15 26  1  6  0  0  0
 17 18  2  0  0  0  0
 17 22  1  0  0  0  0
 18 19  1  0  0  0  0
 19 20  2  0  0  0  0
 20 21  1  0  0  0  0
 20 26  1  0  0  0  0
 21 22  2  0  0  0  0
 21 24  1  0  0  0  0
 22 23  1  0  0  0  0
 24 25  2  0  0  0  0
 25 26  1  0  0  0  0
M  END
>  <CHROM.1>
-35.46747696,-160.51917016,-68.32853691,-153.39485511,90.72595297,149.07833045
23.87789059,38.73090121,13.74980883,6.30398118,2.44719703,0.61597441,0.09479548

>  <Name>
ligand

>  <RI>
0

>  <Rbt.Current_Directory>
/home/itssahil/PROJECTS/Mol_Feturizer/New_Systems/rnas/3NPQ

>  <Rbt.Executable>
rbdock ($Id: //depot/dev/client3/rdock/2013.1/src/exe/rbdock.cxx#4 $)

>  <Rbt.Library>
libRbt.so (2013.1, Build901 2013/11/27)

>  <Rbt.Parameter_File>
/export/apps/rDock/src/rDock_2013.1_src/data/scripts/dock_solv.prm

>  <Rbt.Receptor>
prm/pocket_docking_4.prm

>  <SCORE>
-28.5652

>  <SCORE.INTER>
-28.231

>  <SCORE.INTER.CONST>
1

>  <SCORE.INTER.POLAR>
0

>  <SCORE.INTER.ROT>
7

>  <SCORE.INTER.SOLV>
18.7828

>  <SCORE.INTER.VDW>
-33.3482

>  <SCORE.INTER.norm>
-1.08581

>  <SCORE.INTRA>
-0.334242

>  <SCORE.INTRA.DIHEDRAL>
2.30954

>  <SCORE.INTRA.DIHEDRAL.0>
6.97628

>  <SCORE.INTRA.POLAR>
0

>  <SCORE.INTRA.POLAR.0>
0

>  <SCORE.INTRA.REPUL>
0

>  <SCORE.INTRA.REPUL.0>
0

>  <SCORE.INTRA.SOLV>
-0.391374

>  <SCORE.INTRA.SOLV.lig_0>
-49.8243

>  <SCORE.INTRA.VDW>
-1.29333

>  <SCORE.INTRA.VDW.0>
-1.35881

>  <SCORE.INTRA.norm>
-0.0128554

>  <SCORE.RESTR>
0

>  <SCORE.RESTR.CAVITY>
0

>  <SCORE.RESTR.norm>
0

>  <SCORE.SYSTEM>
0

>  <SCORE.SYSTEM.CONST>
0

>  <SCORE.SYSTEM.DIHEDRAL>
0

>  <SCORE.SYSTEM.SOLV>
0

>  <SCORE.SYSTEM.norm>
0

>  <SCORE.heavy>
26

>  <SCORE.norm>
-1.09866

>  <RMSD>
2.277

$$$$
ligand
 OpenBabel11021811483D
libRbt.so/2013.1/901 2013/11/27
 26 28  0  0  0  0  0  0  0  0999 V2000
   34.1975   15.6513    7.1262 N   0  0  0  0  0  0  0  0  0  0  0  0
   35.1197   15.6250    8.2546 C   0  0  2  0  0  0  0  0  0  0  0  0
   34.6577   16.5645    9.3627 C   0  0  0  0  0  0  0  0  0  0  0  0
   35.1184   16.4771   10.5003 O   0  0  0  0  0  0  0  0  0  0  0  0
   36.5257   16.0006    7.8038 C   0  0  0  0  0  0  0  0  0  0  0  0
   37.5926   15.8178    8.8752 C   0  0  0  0  0  0  0  0  0  0  0  0
   39.1288   16.6916    8.4814 S   0  0  0  0  0  0  0  0  0  0  0  0
   39.6968   15.2662    7.5202 C   0  0  0  0  0  0  0  0  0  0  0  0
   40.7820   15.6301    6.5135 C   0  0  1  0  0  0  0  0  0  0  0  0
   41.6298   14.5175    6.2935 O   0  0  0  0  0  0  0  0  0  0  0  0
   40.1883   16.0337    5.1737 C   0  0  1  0  0  0  0  0  0  0  0  0
   40.5013   17.3777    4.8943 O   0  0  0  0  0  0  0  0  0  0  0  0
   40.8320   15.1263    4.1459 C   0  0  1  0  0  0  0  0  0  0  0  0
   41.5023   15.8948    3.1741 O   0  0  0  0  0  0  0  0  0  0  0  0
   41.8257   14.2714    4.9136 C   0  0  2  0  0  0  0  0  0  0  0  0
   33.8126   17.4338    9.1458 O   0  0  0  0  0  0  0  0  0  0  0  0
   38.8751   10.0363    5.8751 N   0  0  0  0  0  0  0  0  0  0  0  0
   38.7438   11.3034    6.4069 C   0  0  0  0  0  0  0  0  0  0  0  0
   39.6179   12.3064    6.0371 N   0  0  0  0  0  0  0  0  0  0  0  0
   40.6122   12.0549    5.1510 C   0  0  0  0  0  0  0  0  0  0  0  0
   40.7608   10.7869    4.6057 C   0  0  0  0  0  0  0  0  0  0  0  0
   39.8847    9.7722    4.9719 C   0  0  0  0  0  0  0  0  0  0  0  0
   40.0181    8.5536    4.4567 N   0  0  0  0  0  0  0  0  0  0  0  0
   41.8164   10.8175    3.7638 N   0  0  0  0  0  0  0  0  0  0  0  0
   42.3366   12.0664    3.7632 C   0  0  0  0  0  0  0  0  0  0  0  0
   41.6003   12.8450    4.6186 N   0  0  0  0  0  0  0  0  0  0  0  0
  2  1  1  6  0  0  0
  2  3  1  0  0  0  0
  2  5  1  0  0  0  0
  3  4  1  0  0  0  0
  3 16  1  0  0  0  0
  5  6  1  0  0  0  0
  6  7  1  0  0  0  0
  7  8  1  0  0  0  0
  9  8  1  1  0  0  0
  9 10  1  0  0  0  0
  9 11  1  0  0  0  0
 10 15  1  0  0  0  0
 11 12  1  6  0  0  0
 11 13  1  0  0  0  0
 13 14  1  6  0  0  0
 13 15  1  0  0  0  0
 15 26  1  1  0  0  0
 17 18  2  0  0  0  0
 17 22  1  0  0  0  0
 18 19  1  0  0  0  0
 19 20  2  0  0  0  0
 20 21  1  0  0  0  0
 20 26  1  0  0  0  0
 21 22  2  0  0  0  0
 21 24  1  0  0  0  0
 22 23  1  0  0  0  0
 24 25  2  0  0  0  0
 25 26  1  0  0  0  0
M  END
>  <CHROM.1>
163.94701894,-172.15101669,-163.83243585,-86.28410856,159.16941445,150.82762910
40.23257094,39.09332000,14.26956473,6.37036013,2.41835047,0.55386368,0.19425601

>  <Name>
ligand

>  <RI>
0

>  <Rbt.Current_Directory>
/home/itssahil/PROJECTS/Mol_Feturizer/New_Systems/rnas/3NPQ

>  <Rbt.Executable>
rbdock ($Id: //depot/dev/client3/rdock/2013.1/src/exe/rbdock.cxx#4 $)

>  <Rbt.Library>
libRbt.so (2013.1, Build901 2013/11/27)

>  <Rbt.Parameter_File>
/export/apps/rDock/src/rDock_2013.1_src/data/scripts/dock_solv.prm

>  <Rbt.Receptor>
prm/pocket_docking_5.prm

>  <SCORE>
-24.3642

>  <SCORE.INTER>
-23.1368

>  <SCORE.INTER.CONST>
1

>  <SCORE.INTER.POLAR>
0

>  <SCORE.INTER.ROT>
7

>  <SCORE.INTER.SOLV>
23.8261

>  <SCORE.INTER.VDW>
-31.6332

>  <SCORE.INTER.norm>
-0.889876

>  <SCORE.INTRA>
-1.22743

>  <SCORE.INTRA.DIHEDRAL>
0.98663

>  <SCORE.INTRA.DIHEDRAL.0>
6.97628

>  <SCORE.INTRA.POLAR>
0

>  <SCORE.INTRA.POLAR.0>
0

>  <SCORE.INTRA.REPUL>
0

>  <SCORE.INTRA.REPUL.0>
0

>  <SCORE.INTRA.SOLV>
-0.847972

>  <SCORE.INTRA.SOLV.lig_0>
-49.8243

>  <SCORE.INTRA.VDW>
-1.29676

>  <SCORE.INTRA.VDW.0>
-1.35881

>  <SCORE.INTRA.norm>
-0.0472088

>  <SCORE.RESTR>
0

>  <SCORE.RESTR.CAVITY>
0

>  <SCORE.RESTR.norm>
0

>  <SCORE.SYSTEM>
0

>  <SCORE.SYSTEM.CONST>
0

>  <SCORE.SYSTEM.DIHEDRAL>
0

>  <SCORE.SYSTEM.SOLV>
0

>  <SCORE.SYSTEM.norm>
0

>  <SCORE.heavy>
26

>  <SCORE.norm>
-0.937085

>  <RMSD>
2.410

$$$$
ligand
 OpenBabel11021811483D
libRbt.so/2013.1/901 2013/11/27
 26 28  0  0  0  0  0  0  0  0999 V2000
   35.2281   14.5573    9.7894 N   0  0  0  0  0  0  0  0  0  0  0  0
   35.1774   15.9962    9.5624 C   0  0  2  0  0  0  0  0  0  0  0  0
   34.2658   16.3346    8.3884 C   0  0  0  0  0  0  0  0  0  0  0  0
   33.4415   17.2446    8.4683 O   0  0  0  0  0  0  0  0  0  0  0  0
   36.5759   16.5470    9.3136 C   0  0  0  0  0  0  0  0  0  0  0  0
   37.2205   16.0503    8.0261 C   0  0  0  0  0  0  0  0  0  0  0  0
   37.5177   14.2643    8.0426 S   0  0  0  0  0  0  0  0  0  0  0  0
   38.1092   14.3438    6.3332 C   0  0  0  0  0  0  0  0  0  0  0  0
   39.5214   14.9070    6.2248 C   0  0  1  0  0  0  0  0  0  0  0  0
   40.4684   13.8584    6.3191 O   0  0  0  0  0  0  0  0  0  0  0  0
   39.7409   15.6129    4.8967 C   0  0  1  0  0  0  0  0  0  0  0  0
   39.9986   16.9797    5.1155 O   0  0  0  0  0  0  0  0  0  0  0  0
   40.9505   14.9502    4.2710 C   0  0  1  0  0  0  0  0  0  0  0  0
   41.9565   15.9067    4.0314 O   0  0  0  0  0  0  0  0  0  0  0  0
   41.4324   13.9271    5.2851 C   0  0  2  0  0  0  0  0  0  0  0  0
   34.3328   15.7057    7.3316 O   0  0  0  0  0  0  0  0  0  0  0  0
   39.5649    9.0347    4.9062 N   0  0  0  0  0  0  0  0  0  0  0  0
   39.1005   10.0636    5.7007 C   0  0  0  0  0  0  0  0  0  0  0  0
   39.7197   11.2975    5.6723 N   0  0  0  0  0  0  0  0  0  0  0  0
   40.7887   11.5080    4.8661 C   0  0  0  0  0  0  0  0  0  0  0  0
   41.2708   10.4856    4.0603 C   0  0  0  0  0  0  0  0  0  0  0  0
   40.6527    9.2411    4.0822 C   0  0  0  0  0  0  0  0  0  0  0  0
   41.1065    8.2541    3.3153 N   0  0  0  0  0  0  0  0  0  0  0  0
   42.3279   10.9642    3.3692 N   0  0  0  0  0  0  0  0  0  0  0  0
   42.5255   12.2568    3.7161 C   0  0  0  0  0  0  0  0  0  0  0  0
   41.5787   12.6082    4.6435 N   0  0  0  0  0  0  0  0  0  0  0  0
  2  1  1  6  0  0  0
  2  3  1  0  0  0  0
  2  5  1  0  0  0  0
  3  4  1  0  0  0  0
  3 16  1  0  0  0  0
  5  6  1  0  0  0  0
  6  7  1  0  0  0  0
  7  8  1  0  0  0  0
  9  8  1  6  0  0  0
  9 10  1  0  0  0  0
  9 11  1  0  0  0  0
 10 15  1  0  0  0  0
 11 12  1  1  0  0  0
 11 13  1  0  0  0  0
 13 14  1  1  0  0  0
 13 15  1  0  0  0  0
 15 26  1  6  0  0  0
 17 18  2  0  0  0  0
 17 22  1  0  0  0  0
 18 19  1  0  0  0  0
 19 20  2  0  0  0  0
 20 21  1  0  0  0  0
 20 26  1  0  0  0  0
 21 22  2  0  0  0  0
 21 24  1  0  0  0  0
 22 23  1  0  0  0  0
 24 25  2  0  0  0  0
 25 26  1  0  0  0  0
M  END
>  <CHROM.1>
134.23934920,65.96517947,-64.41076481,176.02912741,76.60726038,89.42665278
8.26977244,38.89504663,13.71105557,6.12217607,2.48447543,0.58071638,0.09320379

>  <Name>
ligand

>  <RI>
0

>  <Rbt.Current_Directory>
/home/itssahil/PROJECTS/Mol_Feturizer/New_Systems/rnas/3NPQ

>  <Rbt.Executable>
rbdock ($Id: //depot/dev/client3/rdock/2013.1/src/exe/rbdock.cxx#4 $)

>  <Rbt.Library>
libRbt.so (2013.1, Build901 2013/11/27)

>  <Rbt.Parameter_File>
/export/apps/rDock/src/rDock_2013.1_src/data/scripts/dock_solv.prm

>  <Rbt.Receptor>
prm/pocket_docking_6.prm

>  <SCORE>
-26.2971

>  <SCORE.INTER>
-25.5763

>  <SCORE.INTER.CONST>
1

>  <SCORE.INTER.POLAR>
0

>  <SCORE.INTER.ROT>
7

>  <SCORE.INTER.SOLV>
22.4458

>  <SCORE.INTER.VDW>
-32.7994

>  <SCORE.INTER.norm>
-0.983702

>  <SCORE.INTRA>
-0.720802

>  <SCORE.INTRA.DIHEDRAL>
-1.09037

>  <SCORE.INTRA.DIHEDRAL.0>
6.97628

>  <SCORE.INTRA.POLAR>
0

>  <SCORE.INTRA.POLAR.0>
0

>  <SCORE.INTRA.REPUL>
0

>  <SCORE.INTRA.REPUL.0>
0

>  <SCORE.INTRA.SOLV>
1.33347

>  <SCORE.INTRA.SOLV.lig_0>
-49.8243

>  <SCORE.INTRA.VDW>
-0.842353

>  <SCORE.INTRA.VDW.0>
-1.35881

>  <SCORE.INTRA.norm>
-0.0277232

>  <SCORE.RESTR>
0

>  <SCORE.RESTR.CAVITY>
0

>  <SCORE.RESTR.norm>
0

>  <SCORE.SYSTEM>
0

>  <SCORE.SYSTEM.CONST>
0

>  <SCORE.SYSTEM.DIHEDRAL>
0

>  <SCORE.SYSTEM.SOLV>
0

>  <SCORE.SYSTEM.norm>
0

>  <SCORE.heavy>
26

>  <SCORE.norm>
-1.01143

>  <RMSD>
2.430

$$$$
ligand
 OpenBabel11021811483D
libRbt.so/2013.1/901 2013/11/27
 26 28  0  0  0  0  0  0  0  0999 V2000
   34.9028   15.2233    8.8530 N   0  0  0  0  0  0  0  0  0  0  0  0
   35.4836   16.3206    9.6167 C   0  0  2  0  0  0  0  0  0  0  0  0
   34.4276   17.3613    9.9715 C   0  0  0  0  0  0  0  0  0  0  0  0
   33.5457   17.6674    9.1700 O   0  0  0  0  0  0  0  0  0  0  0  0
   36.6179   16.9725    8.8360 C   0  0  0  0  0  0  0  0  0  0  0  0
   37.8241   16.0682    8.6187 C   0  0  0  0  0  0  0  0  0  0  0  0
   39.2767   16.9772    8.0339 S   0  0  0  0  0  0  0  0  0  0  0  0
   39.9715   15.4440    7.3669 C   0  0  0  0  0  0  0  0  0  0  0  0
   41.1096   15.6925    6.3840 C   0  0  1  0  0  0  0  0  0  0  0  0
   41.8711   14.5103    6.2174 O   0  0  0  0  0  0  0  0  0  0  0  0
   40.5874   16.1050    5.0174 C   0  0  1  0  0  0  0  0  0  0  0  0
   41.0150   17.4116    4.7136 O   0  0  0  0  0  0  0  0  0  0  0  0
   41.1842   15.1213    4.0324 C   0  0  1  0  0  0  0  0  0  0  0  0
   41.9406   15.8069    3.0618 O   0  0  0  0  0  0  0  0  0  0  0  0
   42.0845   14.2115    4.8505 C   0  0  2  0  0  0  0  0  0  0  0  0
   34.4316   17.9201   11.0690 O   0  0  0  0  0  0  0  0  0  0  0  0
   38.8318   10.2265    5.9028 N   0  0  0  0  0  0  0  0  0  0  0  0
   38.7961   11.5104    6.4087 C   0  0  0  0  0  0  0  0  0  0  0  0
   39.7408   12.4383    6.0173 N   0  0  0  0  0  0  0  0  0  0  0  0
   40.7112   12.0960    5.1350 C   0  0  0  0  0  0  0  0  0  0  0  0
   40.7641   10.8097    4.6156 C   0  0  0  0  0  0  0  0  0  0  0  0
   39.8165    9.8702    5.0037 C   0  0  0  0  0  0  0  0  0  0  0  0
   39.8580    8.6349    4.5134 N   0  0  0  0  0  0  0  0  0  0  0  0
   41.8166   10.7451    3.7717 N   0  0  0  0  0  0  0  0  0  0  0  0
   42.4276   11.9518    3.7448 C   0  0  0  0  0  0  0  0  0  0  0  0
   41.7535   12.7999    4.5851 N   0  0  0  0  0  0  0  0  0  0  0  0
  2  1  1  6  0  0  0
  2  3  1  0  0  0  0
  2  5  1  0  0  0  0
  3  4  1  0  0  0  0
  3 16  1  0  0  0  0
  5  6  1  0  0  0  0
  6  7  1  0  0  0  0
  7  8  1  0  0  0  0
  9  8  1  1  0  0  0
  9 10  1  0  0  0  0
  9 11  1  0  0  0  0
 10 15  1  0  0  0  0
 11 12  1  6  0  0  0
 11 13  1  0  0  0  0
 13 14  1  6  0  0  0
 13 15  1  0  0  0  0
 15 26  1  1  0  0  0
 17 18  2  0  0  0  0
 17 22  1  0  0  0  0
 18 19  1  0  0  0  0
 19 20  2  0  0  0  0
 20 21  1  0  0  0  0
 20 26  1  0  0  0  0
 21 22  2  0  0  0  0
 21 24  1  0  0  0  0
 22 23  1  0  0  0  0
 24 25  2  0  0  0  0
 25 26  1  0  0  0  0
M  END
>  <CHROM.1>
-38.63974197,-65.87645419,-166.88758159,-158.36848953,164.40374358,162.04690510
38.39996237,39.22490664,14.46998081,6.48180003,2.42260611,0.59847203,0.19678983

>  <Name>
ligand

>  <RI>
0

>  <Rbt.Current_Directory>
/home/itssahil/PROJECTS/Mol_Feturizer/New_Systems/rnas/3NPQ

>  <Rbt.Executable>
rbdock ($Id: //depot/dev/client3/rdock/2013.1/src/exe/rbdock.cxx#4 $)

>  <Rbt.Library>
libRbt.so (2013.1, Build901 2013/11/27)

>  <Rbt.Parameter_File>
/export/apps/rDock/src/rDock_2013.1_src/data/scripts/dock_solv.prm

>  <Rbt.Receptor>
prm/pocket_docking_3.prm

>  <SCORE>
-25.2051

>  <SCORE.INTER>
-22.7815

>  <SCORE.INTER.CONST>
1

>  <SCORE.INTER.POLAR>
0

>  <SCORE.INTER.ROT>
7

>  <SCORE.INTER.SOLV>
24.0421

>  <SCORE.INTER.VDW>
-31.4684

>  <SCORE.INTER.norm>
-0.876211

>  <SCORE.INTRA>
-2.42364

>  <SCORE.INTRA.DIHEDRAL>
-1.38956

>  <SCORE.INTRA.DIHEDRAL.0>
6.97628

>  <SCORE.INTRA.POLAR>
0

>  <SCORE.INTRA.POLAR.0>
0

>  <SCORE.INTRA.REPUL>
0

>  <SCORE.INTRA.REPUL.0>
0

>  <SCORE.INTRA.SOLV>
-0.214115

>  <SCORE.INTRA.SOLV.lig_0>
-49.8243

>  <SCORE.INTRA.VDW>
-1.6218

>  <SCORE.INTRA.VDW.0>
-1.35881

>  <SCORE.INTRA.norm>
-0.0932169

>  <SCORE.RESTR>
0

>  <SCORE.RESTR.CAVITY>
0

>  <SCORE.RESTR.norm>
0

>  <SCORE.SYSTEM>
0

>  <SCORE.SYSTEM.CONST>
0

>  <SCORE.SYSTEM.DIHEDRAL>
0

>  <SCORE.SYSTEM.SOLV>
0

>  <SCORE.SYSTEM.norm>
0

>  <SCORE.heavy>
26

>  <SCORE.norm>
-0.969428

>  <RMSD>
2.453

$$$$
ligand
 OpenBabel11021811483D
libRbt.so/2013.1/901 2013/11/27
 26 28  0  0  0  0  0  0  0  0999 V2000
   33.6060   16.9196    7.9434 N   0  0  0  0  0  0  0  0  0  0  0  0
   34.8909   16.2843    7.6788 C   0  0  2  0  0  0  0  0  0  0  0  0
   34.8186   15.3934    6.4439 C   0  0  0  0  0  0  0  0  0  0  0  0
   33.7376   15.1146    5.9266 O   0  0  0  0  0  0  0  0  0  0  0  0
   35.3421   15.4699    8.8848 C   0  0  0  0  0  0  0  0  0  0  0  0
   36.6975   14.7977    8.7102 C   0  0  0  0  0  0  0  0  0  0  0  0
   38.0329   15.9890    8.4344 S   0  0  0  0  0  0  0  0  0  0  0  0
   39.0319   14.6941    7.6576 C   0  0  0  0  0  0  0  0  0  0  0  0
   40.2098   15.2536    6.8683 C   0  0  1  0  0  0  0  0  0  0  0  0
   41.1660   14.2345    6.6397 O   0  0  0  0  0  0  0  0  0  0  0  0
   39.7711   15.7908    5.5159 C   0  0  1  0  0  0  0  0  0  0  0  0
   40.0100   17.1767    5.4484 O   0  0  0  0  0  0  0  0  0  0  0  0
   40.6178   15.0675    4.4891 C   0  0  1  0  0  0  0  0  0  0  0  0
   41.3488   15.9968    3.7235 O   0  0  0  0  0  0  0  0  0  0  0  0
   41.5646   14.1836    5.2826 C   0  0  2  0  0  0  0  0  0  0  0  0
   35.8403   14.9319    5.9341 O   0  0  0  0  0  0  0  0  0  0  0  0
   39.0104    9.6015    5.5005 N   0  0  0  0  0  0  0  0  0  0  0  0
   38.7296   10.7657    6.1871 C   0  0  0  0  0  0  0  0  0  0  0  0
   39.5152   11.8866    6.0051 N   0  0  0  0  0  0  0  0  0  0  0  0
   40.5686   11.8526    5.1530 C   0  0  0  0  0  0  0  0  0  0  0  0
   40.8674   10.6911    4.4539 C   0  0  0  0  0  0  0  0  0  0  0  0
   40.0811    9.5589    4.6306 C   0  0  0  0  0  0  0  0  0  0  0  0
   40.3585    8.4404    3.9671 N   0  0  0  0  0  0  0  0  0  0  0  0
   41.9516   10.9349    3.6865 N   0  0  0  0  0  0  0  0  0  0  0  0
   42.3442   12.2147    3.8818 C   0  0  0  0  0  0  0  0  0  0  0  0
   41.4962   12.7966    4.7885 N   0  0  0  0  0  0  0  0  0  0  0  0
  2  1  1  1  0  0  0
  2  3  1  0  0  0  0
  2  5  1  0  0  0  0
  3  4  1  0  0  0  0
  3 16  1  0  0  0  0
  5  6  1  0  0  0  0
  6  7  1  0  0  0  0
  7  8  1  0  0  0  0
  9  8  1  6  0  0  0
  9 10  1  0  0  0  0
  9 11  1  0  0  0  0
 10 15  1  0  0  0  0
 11 12  1  1  0  0  0
 11 13  1  0  0  0  0
 13 14  1  1  0  0  0
 13 15  1  0  0  0  0
 15 26  1  6  0  0  0
 17 18  2  0  0  0  0
 17 22  1  0  0  0  0
 18 19  1  0  0  0  0
 19 20  2  0  0  0  0
 20 21  1  0  0  0  0
 20 26  1  0  0  0  0
 21 22  2  0  0  0  0
 21 24  1  0  0  0  0
 22 23  1  0  0  0  0
 24 25  2  0  0  0  0
 25 26  1  0  0  0  0
M  END
>  <CHROM.1>
-11.20843153,-178.49791192,60.84813903,-157.82370662,164.65545336,162.03587264
34.98147714,38.82500754,13.89299285,6.05268856,2.41153963,0.34824339,0.21404307

>  <Name>
ligand

>  <RI>
0

>  <Rbt.Current_Directory>
/home/itssahil/PROJECTS/Mol_Feturizer/New_Systems/rnas/3NPQ

>  <Rbt.Executable>
rbdock ($Id: //depot/dev/client3/rdock/2013.1/src/exe/rbdock.cxx#4 $)

>  <Rbt.Library>
libRbt.so (2013.1, Build901 2013/11/27)

>  <Rbt.Parameter_File>
/export/apps/rDock/src/rDock_2013.1_src/data/scripts/dock_solv.prm

>  <Rbt.Receptor>
prm/pocket_docking_4.prm

>  <SCORE>
-28.2758

>  <SCORE.INTER>
-25.3877

>  <SCORE.INTER.CONST>
1

>  <SCORE.INTER.POLAR>
0

>  <SCORE.INTER.ROT>
7

>  <SCORE.INTER.SOLV>
23.4628

>  <SCORE.INTER.VDW>
-33.0127

>  <SCORE.INTER.norm>
-0.976449

>  <SCORE.INTRA>
-2.88816

>  <SCORE.INTRA.DIHEDRAL>
-2.13044

>  <SCORE.INTRA.DIHEDRAL.0>
6.97628

>  <SCORE.INTRA.POLAR>
0

>  <SCORE.INTRA.POLAR.0>
0

>  <SCORE.INTRA.REPUL>
0

>  <SCORE.INTRA.REPUL.0>
0

>  <SCORE.INTRA.SOLV>
-0.650349

>  <SCORE.INTRA.SOLV.lig_0>
-49.8243

>  <SCORE.INTRA.VDW>
-1.49777

>  <SCORE.INTRA.VDW.0>
-1.35881

>  <SCORE.INTRA.norm>
-0.111083

>  <SCORE.RESTR>
0

>  <SCORE.RESTR.CAVITY>
0

>  <SCORE.RESTR.norm>
0

>  <SCORE.SYSTEM>
0

>  <SCORE.SYSTEM.CONST>
0

>  <SCORE.SYSTEM.DIHEDRAL>
0

>  <SCORE.SYSTEM.SOLV>
0

>  <SCORE.SYSTEM.norm>
0

>  <SCORE.heavy>
26

>  <SCORE.norm>
-1.08753

>  <RMSD>
2.598

$$$$
ligand
 OpenBabel11021811483D
libRbt.so/2013.1/901 2013/11/27
 26 28  0  0  0  0  0  0  0  0999 V2000
   35.6157   14.7934    9.4461 N   0  0  0  0  0  0  0  0  0  0  0  0
   34.9063   15.7984    8.6642 C   0  0  2  0  0  0  0  0  0  0  0  0
   34.7670   15.3640    7.2096 C   0  0  0  0  0  0  0  0  0  0  0  0
   35.6874   14.7895    6.6292 O   0  0  0  0  0  0  0  0  0  0  0  0
   35.6242   17.1399    8.7422 C   0  0  0  0  0  0  0  0  0  0  0  0
   36.9867   17.1574    8.0619 C   0  0  0  0  0  0  0  0  0  0  0  0
   38.1879   16.0818    8.8857 S   0  0  0  0  0  0  0  0  0  0  0  0
   38.5766   15.2970    7.3010 C   0  0  0  0  0  0  0  0  0  0  0  0
   39.9223   15.7405    6.7392 C   0  0  1  0  0  0  0  0  0  0  0  0
   40.8261   14.6505    6.7325 O   0  0  0  0  0  0  0  0  0  0  0  0
   39.7925   16.2450    5.3113 C   0  0  1  0  0  0  0  0  0  0  0  0
   40.1423   17.6074    5.2490 O   0  0  0  0  0  0  0  0  0  0  0  0
   40.7643   15.4216    4.4917 C   0  0  1  0  0  0  0  0  0  0  0  0
   41.6958   16.2648    3.8547 O   0  0  0  0  0  0  0  0  0  0  0  0
   41.4729   14.5125    5.4811 C   0  0  2  0  0  0  0  0  0  0  0  0
   33.7298   15.5771    6.5806 O   0  0  0  0  0  0  0  0  0  0  0  0
   38.8882    9.9546    5.8171 N   0  0  0  0  0  0  0  0  0  0  0  0
   38.6121   11.1395    6.4692 C   0  0  0  0  0  0  0  0  0  0  0  0
   39.4057   12.2499    6.2592 N   0  0  0  0  0  0  0  0  0  0  0  0
   40.4624   12.1852    5.4129 C   0  0  0  0  0  0  0  0  0  0  0  0
   40.7566   11.0024    4.7483 C   0  0  0  0  0  0  0  0  0  0  0  0
   39.9624    9.8807    4.9535 C   0  0  0  0  0  0  0  0  0  0  0  0
   40.2353    8.7422    4.3230 N   0  0  0  0  0  0  0  0  0  0  0  0
   41.8457   11.2176    3.9791 N   0  0  0  0  0  0  0  0  0  0  0  0
   42.2457   12.4999    4.1399 C   0  0  0  0  0  0  0  0  0  0  0  0
   41.3976   13.1125    5.0261 N   0  0  0  0  0  0  0  0  0  0  0  0
  2  1  1  1  0  0  0
  2  3  1  0  0  0  0
  2  5  1  0  0  0  0
  3  4  1  0  0  0  0
  3 16  1  0  0  0  0
  5  6  1  0  0  0  0
  6  7  1  0  0  0  0
  7  8  1  0  0  0  0
  9  8  1  6  0  0  0
  9 10  1  0  0  0  0
  9 11  1  0  0  0  0
 10 15  1  0  0  0  0
 11 12  1  1  0  0  0
 11 13  1  0  0  0  0
 13 14  1  1  0  0  0
 13 15  1  0  0  0  0
 15 26  1  6  0  0  0
 17 18  2  0  0  0  0
 17 22  1  0  0  0  0
 18 19  1  0  0  0  0
 19 20  2  0  0  0  0
 20 21  1  0  0  0  0
 20 26  1  0  0  0  0
 21 22  2  0  0  0  0
 21 24  1  0  0  0  0
 22 23  1  0  0  0  0
 24 25  2  0  0  0  0
 25 26  1  0  0  0  0
M  END
>  <CHROM.1>
-39.39657242,67.21919436,-65.91932257,128.69650046,105.36619658,113.30829001
23.44598298,38.86969379,14.20672050,6.31677504,2.40958619,0.47274936,0.16782814

>  <Name>
ligand

>  <RI>
0

>  <Rbt.Current_Directory>
/home/itssahil/PROJECTS/Mol_Feturizer/New_Systems/rnas/3NPQ

>  <Rbt.Executable>
rbdock ($Id: //depot/dev/client3/rdock/2013.1/src/exe/rbdock.cxx#4 $)

>  <Rbt.Library>
libRbt.so (2013.1, Build901 2013/11/27)

>  <Rbt.Parameter_File>
/export/apps/rDock/src/rDock_2013.1_src/data/scripts/dock_solv.prm

>  <Rbt.Receptor>
prm/pocket_docking_6.prm

>  <SCORE>
-21.0032

>  <SCORE.INTER>
-23.0284

>  <SCORE.INTER.CONST>
1

>  <SCORE.INTER.POLAR>
0

>  <SCORE.INTER.ROT>
7

>  <SCORE.INTER.SOLV>
23.2113

>  <SCORE.INTER.VDW>
-31.356

>  <SCORE.INTER.norm>
-0.885706

>  <SCORE.INTRA>
2.02521

>  <SCORE.INTRA.DIHEDRAL>
5.4783

>  <SCORE.INTRA.DIHEDRAL.0>
6.97628

>  <SCORE.INTRA.POLAR>
0

>  <SCORE.INTRA.POLAR.0>
0

>  <SCORE.INTRA.REPUL>
0

>  <SCORE.INTRA.REPUL.0>
0

>  <SCORE.INTRA.SOLV>
1.7915

>  <SCORE.INTRA.SOLV.lig_0>
-49.8243

>  <SCORE.INTRA.VDW>
-1.60969

>  <SCORE.INTRA.VDW.0>
-1.35881

>  <SCORE.INTRA.norm>
0.0778926

>  <SCORE.RESTR>
0

>  <SCORE.RESTR.CAVITY>
0

>  <SCORE.RESTR.norm>
0

>  <SCORE.SYSTEM>
0

>  <SCORE.SYSTEM.CONST>
0

>  <SCORE.SYSTEM.DIHEDRAL>
0

>  <SCORE.SYSTEM.SOLV>
0

>  <SCORE.SYSTEM.norm>
0

>  <SCORE.heavy>
26

>  <SCORE.norm>
-0.807814

>  <RMSD>
2.604

$$$$
ligand
 OpenBabel11021811483D
libRbt.so/2013.1/901 2013/11/27
 26 28  0  0  0  0  0  0  0  0999 V2000
   35.2436   17.3952    7.9940 N   0  0  0  0  0  0  0  0  0  0  0  0
   34.9853   15.9696    8.1541 C   0  0  2  0  0  0  0  0  0  0  0  0
   35.1934   15.5334    9.5999 C   0  0  0  0  0  0  0  0  0  0  0  0
   35.1888   14.3425    9.9091 O   0  0  0  0  0  0  0  0  0  0  0  0
   35.8829   15.1573    7.2291 C   0  0  0  0  0  0  0  0  0  0  0  0
   37.3590   15.1959    7.6023 C   0  0  0  0  0  0  0  0  0  0  0  0
   38.3941   14.2753    6.4363 S   0  0  0  0  0  0  0  0  0  0  0  0
   39.8808   14.9575    7.2127 C   0  0  0  0  0  0  0  0  0  0  0  0
   40.9740   15.2863    6.2027 C   0  0  1  0  0  0  0  0  0  0  0  0
   41.7606   14.1363    5.9504 O   0  0  0  0  0  0  0  0  0  0  0  0
   40.3897   15.7492    4.8781 C   0  0  1  0  0  0  0  0  0  0  0  0
   40.7697   17.0809    4.6240 O   0  0  0  0  0  0  0  0  0  0  0  0
   40.9756   14.8322    3.8246 C   0  0  1  0  0  0  0  0  0  0  0  0
   41.6761   15.5859    2.8624 O   0  0  0  0  0  0  0  0  0  0  0  0
   41.9306   13.9105    4.5635 C   0  0  2  0  0  0  0  0  0  0  0  0
   35.3716   16.3625   10.4931 O   0  0  0  0  0  0  0  0  0  0  0  0
   38.9652    9.7237    5.6793 N   0  0  0  0  0  0  0  0  0  0  0  0
   38.9334   10.9708    6.2703 C   0  0  0  0  0  0  0  0  0  0  0  0
   39.7945   11.9633    5.8457 N   0  0  0  0  0  0  0  0  0  0  0  0
   40.6785   11.7209    4.8474 C   0  0  0  0  0  0  0  0  0  0  0  0
   40.7261   10.4730    4.2411 C   0  0  0  0  0  0  0  0  0  0  0  0
   39.8623    9.4690    4.6618 C   0  0  0  0  0  0  0  0  0  0  0  0
   39.8996    8.2696    4.0889 N   0  0  0  0  0  0  0  0  0  0  0  0
   41.6851   10.5088    3.2907 N   0  0  0  0  0  0  0  0  0  0  0  0
   42.2424   11.7416    3.2809 C   0  0  0  0  0  0  0  0  0  0  0  0
   41.6285   12.5044    4.2407 N   0  0  0  0  0  0  0  0  0  0  0  0
  2  1  1  1  0  0  0
  2  3  1  0  0  0  0
  2  5  1  0  0  0  0
  3  4  1  0  0  0  0
  3 16  1  0  0  0  0
  5  6  1  0  0  0  0
  6  7  1  0  0  0  0
  7  8  1  0  0  0  0
  9  8  1  1  0  0  0
  9 10  1  0  0  0  0
  9 11  1  0  0  0  0
 10 15  1  0  0  0  0
 11 12  1  6  0  0  0
 11 13  1  0  0  0  0
 13 14  1  6  0  0  0
 13 15  1  0  0  0  0
 15 26  1  1  0  0  0
 17 18  2  0  0  0  0
 17 22  1  0  0  0  0
 18 19  1  0  0  0  0
 19 20  2  0  0  0  0
 20 21  1  0  0  0  0
 20 26  1  0  0  0  0
 21 22  2  0  0  0  0
 21 24  1  0  0  0  0
 22 23  1  0  0  0  0
 24 25  2  0  0  0  0
 25 26  1  0  0  0  0
M  END
>  <CHROM.1>
-170.82457322,68.54048698,-177.57271394,170.06521834,-141.94404539,-86.16602374
34.32843999,39.17737945,13.70691478,5.98904456,-2.54147634,-0.66803184,-3.04414392

>  <Name>
ligand

>  <RI>
0

>  <Rbt.Current_Directory>
/home/itssahil/PROJECTS/Mol_Feturizer/New_Systems/rnas/3NPQ

>  <Rbt.Executable>
rbdock ($Id: //depot/dev/client3/rdock/2013.1/src/exe/rbdock.cxx#4 $)

>  <Rbt.Library>
libRbt.so (2013.1, Build901 2013/11/27)

>  <Rbt.Parameter_File>
/export/apps/rDock/src/rDock_2013.1_src/data/scripts/dock_solv.prm

>  <Rbt.Receptor>
prm/pocket_docking_5.prm

>  <SCORE>
-25.5741

>  <SCORE.INTER>
-25.4609

>  <SCORE.INTER.CONST>
1

>  <SCORE.INTER.POLAR>
0

>  <SCORE.INTER.ROT>
7

>  <SCORE.INTER.SOLV>
19.509

>  <SCORE.INTER.VDW>
-31.7436

>  <SCORE.INTER.norm>
-0.979264

>  <SCORE.INTRA>
-0.113234

>  <SCORE.INTRA.DIHEDRAL>
-0.0540946

>  <SCORE.INTRA.DIHEDRAL.0>
6.97628

>  <SCORE.INTRA.POLAR>
0

>  <SCORE.INTRA.POLAR.0>
0

>  <SCORE.INTRA.REPUL>
0

>  <SCORE.INTRA.REPUL.0>
0

>  <SCORE.INTRA.SOLV>
0.0849313

>  <SCORE.INTRA.SOLV.lig_0>
-49.8243

>  <SCORE.INTRA.VDW>
-0.128652

>  <SCORE.INTRA.VDW.0>
-1.35881

>  <SCORE.INTRA.norm>
-0.00435515

>  <SCORE.RESTR>
0

>  <SCORE.RESTR.CAVITY>
0

>  <SCORE.RESTR.norm>
0

>  <SCORE.SYSTEM>
0

>  <SCORE.SYSTEM.CONST>
0

>  <SCORE.SYSTEM.DIHEDRAL>
0

>  <SCORE.SYSTEM.SOLV>
0

>  <SCORE.SYSTEM.norm>
0

>  <SCORE.heavy>
26

>  <SCORE.norm>
-0.983619

>  <RMSD>
2.669

$$$$
ligand
 OpenBabel11021811483D
libRbt.so/2013.1/901 2013/11/27
 26 28  0  0  0  0  0  0  0  0999 V2000
   34.5249   15.6546    8.3469 N   0  0  0  0  0  0  0  0  0  0  0  0
   35.7275   16.2801    7.8112 C   0  0  2  0  0  0  0  0  0  0  0  0
   35.8539   16.0317    6.3124 C   0  0  0  0  0  0  0  0  0  0  0  0
   36.5803   16.7365    5.6127 O   0  0  0  0  0  0  0  0  0  0  0  0
   36.9653   15.7621    8.5328 C   0  0  0  0  0  0  0  0  0  0  0  0
   37.3365   14.3276    8.1806 C   0  0  0  0  0  0  0  0  0  0  0  0
   38.2265   14.2069    6.6084 S   0  0  0  0  0  0  0  0  0  0  0  0
   39.6812   14.9701    7.3697 C   0  0  0  0  0  0  0  0  0  0  0  0
   40.7338   15.3803    6.3464 C   0  0  1  0  0  0  0  0  0  0  0  0
   41.6159   14.3001    6.1010 O   0  0  0  0  0  0  0  0  0  0  0  0
   40.1013   15.7738    5.0215 C   0  0  1  0  0  0  0  0  0  0  0  0
   40.3617   17.1302    4.7484 O   0  0  0  0  0  0  0  0  0  0  0  0
   40.7571   14.8982    3.9739 C   0  0  1  0  0  0  0  0  0  0  0  0
   41.3817   15.6978    2.9969 O   0  0  0  0  0  0  0  0  0  0  0  0
   41.7944   14.0725    4.7155 C   0  0  2  0  0  0  0  0  0  0  0  0
   35.2325   15.1195    5.7661 O   0  0  0  0  0  0  0  0  0  0  0  0
   39.0108    9.7289    5.6912 N   0  0  0  0  0  0  0  0  0  0  0  0
   38.8449   10.9863    6.2362 C   0  0  0  0  0  0  0  0  0  0  0  0
   39.6768   12.0222    5.8601 N   0  0  0  0  0  0  0  0  0  0  0  0
   40.6633   11.8129    4.9546 C   0  0  0  0  0  0  0  0  0  0  0  0
   40.8464   10.5555    4.3957 C   0  0  0  0  0  0  0  0  0  0  0  0
   40.0129    9.5077    4.7682 C   0  0  0  0  0  0  0  0  0  0  0  0
   40.1796    8.2988    4.2401 N   0  0  0  0  0  0  0  0  0  0  0  0
   41.8853   10.6299    3.5359 N   0  0  0  0  0  0  0  0  0  0  0  0
   42.3615   11.8962    3.5371 C   0  0  0  0  0  0  0  0  0  0  0  0
   41.6138   12.6415    4.4120 N   0  0  0  0  0  0  0  0  0  0  0  0
  2  1  1  1  0  0  0
  2  3  1  0  0  0  0
  2  5  1  0  0  0  0
  3  4  1  0  0  0  0
  3 16  1  0  0  0  0
  5  6  1  0  0  0  0
  6  7  1  0  0  0  0
  7  8  1  0  0  0  0
  9  8  1  1  0  0  0
  9 10  1  0  0  0  0
  9 11  1  0  0  0  0
 10 15  1  0  0  0  0
 11 12  1  6  0  0  0
 11 13  1  0  0  0  0
 13 14  1  6  0  0  0
 13 15  1  0  0  0  0
 15 26  1  1  0  0  0
 17 18  2  0  0  0  0
 17 22  1  0  0  0  0
 18 19  1  0  0  0  0
 19 20  2  0  0  0  0
 20 21  1  0  0  0  0
 20 26  1  0  0  0  0
 21 22  2  0  0  0  0
 21 24  1  0  0  0  0
 22 23  1  0  0  0  0
 24 25  2  0  0  0  0
 25 26  1  0  0  0  0
M  END
>  <CHROM.1>
161.07906934,72.20103590,80.02786315,71.10533656,-168.43084334,-88.30329072
40.29285126,39.22575393,13.75376535,5.67030083,2.40283971,0.52294243,0.01585454

>  <Name>
ligand

>  <RI>
0

>  <Rbt.Current_Directory>
/home/itssahil/PROJECTS/Mol_Feturizer/New_Systems/rnas/3NPQ

>  <Rbt.Executable>
rbdock ($Id: //depot/dev/client3/rdock/2013.1/src/exe/rbdock.cxx#4 $)

>  <Rbt.Library>
libRbt.so (2013.1, Build901 2013/11/27)

>  <Rbt.Parameter_File>
/export/apps/rDock/src/rDock_2013.1_src/data/scripts/dock_solv.prm

>  <Rbt.Receptor>
prm/pocket_docking_5.prm

>  <SCORE>
-21.3841

>  <SCORE.INTER>
-21.863

>  <SCORE.INTER.CONST>
1

>  <SCORE.INTER.POLAR>
0

>  <SCORE.INTER.ROT>
7

>  <SCORE.INTER.SOLV>
22.9808

>  <SCORE.INTER.VDW>
-30.5023

>  <SCORE.INTER.norm>
-0.840886

>  <SCORE.INTRA>
0.478931

>  <SCORE.INTRA.DIHEDRAL>
0.442214

>  <SCORE.INTRA.DIHEDRAL.0>
6.97628

>  <SCORE.INTRA.POLAR>
0

>  <SCORE.INTRA.POLAR.0>
0

>  <SCORE.INTRA.REPUL>
0

>  <SCORE.INTRA.REPUL.0>
0

>  <SCORE.INTRA.SOLV>
0.443239

>  <SCORE.INTRA.SOLV.lig_0>
-49.8243

>  <SCORE.INTRA.VDW>
0.0362045

>  <SCORE.INTRA.VDW.0>
-1.35881

>  <SCORE.INTRA.norm>
0.0184204

>  <SCORE.RESTR>
0

>  <SCORE.RESTR.CAVITY>
0

>  <SCORE.RESTR.norm>
0

>  <SCORE.SYSTEM>
0

>  <SCORE.SYSTEM.CONST>
0

>  <SCORE.SYSTEM.DIHEDRAL>
0

>  <SCORE.SYSTEM.SOLV>
0

>  <SCORE.SYSTEM.norm>
0

>  <SCORE.heavy>
26

>  <SCORE.norm>
-0.822466

>  <RMSD>
2.676

$$$$
ligand
 OpenBabel11021811483D
libRbt.so/2013.1/901 2013/11/27
 26 28  0  0  0  0  0  0  0  0999 V2000
   35.8138   17.6973    8.2070 N   0  0  0  0  0  0  0  0  0  0  0  0
   35.5324   16.2705    8.3052 C   0  0  2  0  0  0  0  0  0  0  0  0
   35.1998   15.8744    9.7393 C   0  0  0  0  0  0  0  0  0  0  0  0
   35.1271   14.6912   10.0688 O   0  0  0  0  0  0  0  0  0  0  0  0
   36.7172   15.4568    7.7999 C   0  0  0  0  0  0  0  0  0  0  0  0
   37.1029   15.7495    6.3558 C   0  0  0  0  0  0  0  0  0  0  0  0
   38.5130   14.7593    5.7995 S   0  0  0  0  0  0  0  0  0  0  0  0
   39.6175   15.7361    6.8503 C   0  0  0  0  0  0  0  0  0  0  0  0
   41.0418   15.7967    6.3108 C   0  0  1  0  0  0  0  0  0  0  0  0
   41.6411   14.5159    6.3840 O   0  0  0  0  0  0  0  0  0  0  0  0
   41.0701   16.2403    4.8572 C   0  0  1  0  0  0  0  0  0  0  0  0
   41.7535   17.4658    4.7417 O   0  0  0  0  0  0  0  0  0  0  0  0
   41.8176   15.1565    4.1085 C   0  0  1  0  0  0  0  0  0  0  0  0
   42.9433   15.7033    3.4620 O   0  0  0  0  0  0  0  0  0  0  0  0
   42.2553   14.1530    5.1616 C   0  0  2  0  0  0  0  0  0  0  0  0
   34.9965   16.7291   10.6024 O   0  0  0  0  0  0  0  0  0  0  0  0
   38.8439   10.2435    5.9650 N   0  0  0  0  0  0  0  0  0  0  0  0
   38.8997   11.4679    6.5999 C   0  0  0  0  0  0  0  0  0  0  0  0
   39.8745   12.3844    6.2579 N   0  0  0  0  0  0  0  0  0  0  0  0
   40.7846   12.0888    5.2980 C   0  0  0  0  0  0  0  0  0  0  0  0
   40.7451   10.8626    4.6486 C   0  0  0  0  0  0  0  0  0  0  0  0
   39.7668    9.9351    4.9862 C   0  0  0  0  0  0  0  0  0  0  0  0
   39.7200    8.7570    4.3714 N   0  0  0  0  0  0  0  0  0  0  0  0
   41.7538   10.8348    3.7509 N   0  0  0  0  0  0  0  0  0  0  0  0
   42.4269   12.0066    3.8162 C   0  0  0  0  0  0  0  0  0  0  0  0
   41.8375   12.7945    4.7710 N   0  0  0  0  0  0  0  0  0  0  0  0
  2  1  1  1  0  0  0
  2  3  1  0  0  0  0
  2  5  1  0  0  0  0
  3  4  1  0  0  0  0
  3 16  1  0  0  0  0
  5  6  1  0  0  0  0
  6  7  1  0  0  0  0
  7  8  1  0  0  0  0
  9  8  1  6  0  0  0
  9 10  1  0  0  0  0
  9 11  1  0  0  0  0
 10 15  1  0  0  0  0
 11 12  1  1  0  0  0
 11 13  1  0  0  0  0
 13 14  1  1  0  0  0
 13 15  1  0  0  0  0
 15 26  1  6  0  0  0
 17 18  2  0  0  0  0
 17 22  1  0  0  0  0
 18 19  1  0  0  0  0
 19 20  2  0  0  0  0
 20 21  1  0  0  0  0
 20 26  1  0  0  0  0
 21 22  2  0  0  0  0
 21 24  1  0  0  0  0
 22 23  1  0  0  0  0
 24 25  2  0  0  0  0
 25 26  1  0  0  0  0
M  END
>  <CHROM.1>
-169.13287869,-58.70062701,-179.94653086,-71.51887743,-151.94347328,-67.52515419
14.66035107,39.38631509,14.10417226,6.14672680,-2.56970505,-0.60510202,-3.00529256

>  <Name>
ligand

>  <RI>
0

>  <Rbt.Current_Directory>
/home/itssahil/PROJECTS/Mol_Feturizer/New_Systems/rnas/3NPQ

>  <Rbt.Executable>
rbdock ($Id: //depot/dev/client3/rdock/2013.1/src/exe/rbdock.cxx#4 $)

>  <Rbt.Library>
libRbt.so (2013.1, Build901 2013/11/27)

>  <Rbt.Parameter_File>
/export/apps/rDock/src/rDock_2013.1_src/data/scripts/dock_solv.prm

>  <Rbt.Receptor>
prm/pocket_docking_3.prm

>  <SCORE>
-22.4857

>  <SCORE.INTER>
-20.9371

>  <SCORE.INTER.CONST>
1

>  <SCORE.INTER.POLAR>
0

>  <SCORE.INTER.ROT>
7

>  <SCORE.INTER.SOLV>
17.8299

>  <SCORE.INTER.VDW>
-28.168

>  <SCORE.INTER.norm>
-0.805271

>  <SCORE.INTRA>
-1.57464

>  <SCORE.INTRA.DIHEDRAL>
-2.81421

>  <SCORE.INTRA.DIHEDRAL.0>
6.97628

>  <SCORE.INTRA.POLAR>
0

>  <SCORE.INTRA.POLAR.0>
0

>  <SCORE.INTRA.REPUL>
0

>  <SCORE.INTRA.REPUL.0>
0

>  <SCORE.INTRA.SOLV>
0.336132

>  <SCORE.INTRA.SOLV.lig_0>
-49.8243

>  <SCORE.INTRA.VDW>
-0.335602

>  <SCORE.INTRA.VDW.0>
-1.35881

>  <SCORE.INTRA.norm>
-0.0605632

>  <SCORE.RESTR>
0.0260275

>  <SCORE.RESTR.CAVITY>
0.0260275

>  <SCORE.RESTR.norm>
0.00100106

>  <SCORE.SYSTEM>
0

>  <SCORE.SYSTEM.CONST>
0

>  <SCORE.SYSTEM.DIHEDRAL>
0

>  <SCORE.SYSTEM.SOLV>
0

>  <SCORE.SYSTEM.norm>
0

>  <SCORE.heavy>
26

>  <SCORE.norm>
-0.864833

>  <RMSD>
2.684

$$$$
ligand
 OpenBabel11021811483D
libRbt.so/2013.1/901 2013/11/27
 26 28  0  0  0  0  0  0  0  0999 V2000
   35.9628   17.5606    8.0297 N   0  0  0  0  0  0  0  0  0  0  0  0
   35.3004   16.2807    8.2479 C   0  0  2  0  0  0  0  0  0  0  0  0
   35.1676   15.9784    9.7362 C   0  0  0  0  0  0  0  0  0  0  0  0
   35.1841   14.8202   10.1511 O   0  0  0  0  0  0  0  0  0  0  0  0
   36.0630   15.1597    7.5531 C   0  0  0  0  0  0  0  0  0  0  0  0
   37.4425   14.8889    8.1392 C   0  0  0  0  0  0  0  0  0  0  0  0
   38.2741   13.4928    7.3407 S   0  0  0  0  0  0  0  0  0  0  0  0
   38.7556   14.5638    5.9625 C   0  0  0  0  0  0  0  0  0  0  0  0
   40.2451   14.8877    5.9616 C   0  0  1  0  0  0  0  0  0  0  0  0
   40.9993   13.6939    6.0667 O   0  0  0  0  0  0  0  0  0  0  0  0
   40.6632   15.5900    4.6801 C   0  0  1  0  0  0  0  0  0  0  0  0
   41.1265   16.8871    4.9717 O   0  0  0  0  0  0  0  0  0  0  0  0
   41.7861   14.7561    4.0989 C   0  0  1  0  0  0  0  0  0  0  0  0
   42.9486   15.5394    3.9600 O   0  0  0  0  0  0  0  0  0  0  0  0
   42.0268   13.6349    5.0951 C   0  0  2  0  0  0  0  0  0  0  0  0
   35.0413   16.8861   10.5589 O   0  0  0  0  0  0  0  0  0  0  0  0
   39.6118    8.9932    4.6595 N   0  0  0  0  0  0  0  0  0  0  0  0
   39.3008   10.0380    5.5064 C   0  0  0  0  0  0  0  0  0  0  0  0
   40.0515   11.1968    5.4853 N   0  0  0  0  0  0  0  0  0  0  0  0
   41.0999   11.3173    4.6348 C   0  0  0  0  0  0  0  0  0  0  0  0
   41.4287   10.2774    3.7759 C   0  0  0  0  0  0  0  0  0  0  0  0
   40.6777    9.1082    3.7902 C   0  0  0  0  0  0  0  0  0  0  0  0
   40.9840    8.1052    2.9727 N   0  0  0  0  0  0  0  0  0  0  0  0
   42.5002   10.6614    3.0491 N   0  0  0  0  0  0  0  0  0  0  0  0
   42.8557   11.9115    3.4249 C   0  0  0  0  0  0  0  0  0  0  0  0
   41.9966   12.3315    4.4074 N   0  0  0  0  0  0  0  0  0  0  0  0
  2  1  1  1  0  0  0
  2  3  1  0  0  0  0
  2  5  1  0  0  0  0
  3  4  1  0  0  0  0
  3 16  1  0  0  0  0
  5  6  1  0  0  0  0
  6  7  1  0  0  0  0
  7  8  1  0  0  0  0
  9  8  1  6  0  0  0
  9 10  1  0  0  0  0
  9 11  1  0  0  0  0
 10 15  1  0  0  0  0
 11 12  1  1  0  0  0
 11 13  1  0  0  0  0
 13 14  1  1  0  0  0
 13 15  1  0  0  0  0
 15 26  1  6  0  0  0
 17 18  2  0  0  0  0
 17 22  1  0  0  0  0
 18 19  1  0  0  0  0
 19 20  2  0  0  0  0
 20 21  1  0  0  0  0
 20 26  1  0  0  0  0
 21 22  2  0  0  0  0
 21 24  1  0  0  0  0
 22 23  1  0  0  0  0
 24 25  2  0  0  0  0
 25 26  1  0  0  0  0
M  END
>  <CHROM.1>
-149.01231220,66.48399239,176.93460187,80.15802017,107.96812394,51.03464471
1.25763653,39.42204201,13.50931274,5.98773706,-2.44623627,-0.62346409,-2.96082382

>  <Name>
ligand

>  <RI>
0

>  <Rbt.Current_Directory>
/home/itssahil/PROJECTS/Mol_Feturizer/New_Systems/rnas/3NPQ

>  <Rbt.Executable>
rbdock ($Id: //depot/dev/client3/rdock/2013.1/src/exe/rbdock.cxx#4 $)

>  <Rbt.Library>
libRbt.so (2013.1, Build901 2013/11/27)

>  <Rbt.Parameter_File>
/export/apps/rDock/src/rDock_2013.1_src/data/scripts/dock_solv.prm

>  <Rbt.Receptor>
prm/pocket_docking_5.prm

>  <SCORE>
-27.495

>  <SCORE.INTER>
-26.9309

>  <SCORE.INTER.CONST>
1

>  <SCORE.INTER.POLAR>
0

>  <SCORE.INTER.ROT>
7

>  <SCORE.INTER.SOLV>
14.312

>  <SCORE.INTER.VDW>
-30.9913

>  <SCORE.INTER.norm>
-1.0358

>  <SCORE.INTRA>
-0.564141

>  <SCORE.INTRA.DIHEDRAL>
-1.0533

>  <SCORE.INTRA.DIHEDRAL.0>
6.97628

>  <SCORE.INTRA.POLAR>
0

>  <SCORE.INTRA.POLAR.0>
0

>  <SCORE.INTRA.REPUL>
0

>  <SCORE.INTRA.REPUL.0>
0

>  <SCORE.INTRA.SOLV>
-0.0894421

>  <SCORE.INTRA.SOLV.lig_0>
-49.8243

>  <SCORE.INTRA.VDW>
0.00723019

>  <SCORE.INTRA.VDW.0>
-1.35881

>  <SCORE.INTRA.norm>
-0.0216977

>  <SCORE.RESTR>
0

>  <SCORE.RESTR.CAVITY>
0

>  <SCORE.RESTR.norm>
0

>  <SCORE.SYSTEM>
0

>  <SCORE.SYSTEM.CONST>
0

>  <SCORE.SYSTEM.DIHEDRAL>
0

>  <SCORE.SYSTEM.SOLV>
0

>  <SCORE.SYSTEM.norm>
0

>  <SCORE.heavy>
26

>  <SCORE.norm>
-1.0575

>  <RMSD>
2.690

$$$$
ligand
 OpenBabel11021811483D
libRbt.so/2013.1/901 2013/11/27
 26 28  0  0  0  0  0  0  0  0999 V2000
   34.3654   16.7864    7.8705 N   0  0  0  0  0  0  0  0  0  0  0  0
   35.5259   15.9251    7.6808 C   0  0  2  0  0  0  0  0  0  0  0  0
   35.8223   15.1187    8.9400 C   0  0  0  0  0  0  0  0  0  0  0  0
   36.6196   14.1817    8.9191 O   0  0  0  0  0  0  0  0  0  0  0  0
   36.7452   16.7509    7.2902 C   0  0  0  0  0  0  0  0  0  0  0  0
   36.7029   17.2881    5.8656 C   0  0  0  0  0  0  0  0  0  0  0  0
   36.7448   15.9700    4.6250 S   0  0  0  0  0  0  0  0  0  0  0  0
   38.5403   16.1556    4.4839 C   0  0  0  0  0  0  0  0  0  0  0  0
   39.2727   15.7865    5.7687 C   0  0  1  0  0  0  0  0  0  0  0  0
   39.3399   14.3782    5.8992 O   0  0  0  0  0  0  0  0  0  0  0  0
   40.6953   16.3219    5.7742 C   0  0  1  0  0  0  0  0  0  0  0  0
   40.8537   17.2556    6.8160 O   0  0  0  0  0  0  0  0  0  0  0  0
   41.5880   15.1218    6.0125 C   0  0  1  0  0  0  0  0  0  0  0  0
   42.3632   15.3180    7.1722 O   0  0  0  0  0  0  0  0  0  0  0  0
   40.6514   13.9411    6.2031 C   0  0  2  0  0  0  0  0  0  0  0  0
   35.2714   15.3859   10.0086 O   0  0  0  0  0  0  0  0  0  0  0  0
   39.6704    9.0123    4.6824 N   0  0  0  0  0  0  0  0  0  0  0  0
   39.0193    9.7495    5.6509 C   0  0  0  0  0  0  0  0  0  0  0  0
   39.4150   11.0444    5.9220 N   0  0  0  0  0  0  0  0  0  0  0  0
   40.4460   11.6013    5.2409 C   0  0  0  0  0  0  0  0  0  0  0  0
   41.1136   10.8759    4.2636 C   0  0  0  0  0  0  0  0  0  0  0  0
   40.7211    9.5724    3.9842 C   0  0  0  0  0  0  0  0  0  0  0  0
   41.3539    8.8677    3.0508 N   0  0  0  0  0  0  0  0  0  0  0  0
   42.0842   11.6632    3.7515 N   0  0  0  0  0  0  0  0  0  0  0  0
   42.0475   12.8621    4.3773 C   0  0  0  0  0  0  0  0  0  0  0  0
   41.0368   12.8388    5.3035 N   0  0  0  0  0  0  0  0  0  0  0  0
  2  1  1  1  0  0  0
  2  3  1  0  0  0  0
  2  5  1  0  0  0  0
  3  4  1  0  0  0  0
  3 16  1  0  0  0  0
  5  6  1  0  0  0  0
  6  7  1  0  0  0  0
  7  8  1  0  0  0  0
  9  8  1  6  0  0  0
  9 10  1  0  0  0  0
  9 11  1  0  0  0  0
 10 15  1  0  0  0  0
 11 12  1  1  0  0  0
 11 13  1  0  0  0  0
 13 14  1  1  0  0  0
 13 15  1  0  0  0  0
 15 26  1  6  0  0  0
 17 18  2  0  0  0  0
 17 22  1  0  0  0  0
 18 19  1  0  0  0  0
 19 20  2  0  0  0  0
 20 21  1  0  0  0  0
 20 26  1  0  0  0  0
 21 22  2  0  0  0  0
 21 24  1  0  0  0  0
 22 23  1  0  0  0  0
 24 25  2  0  0  0  0
 25 26  1  0  0  0  0
M  END
>  <CHROM.1>
168.13579122,-72.85251665,-64.93520273,-95.01787622,64.93353885,77.08428346
-64.07431149,39.00327095,14.02901175,5.97917060,2.28247501,0.41244795,0.17198580

>  <Name>
ligand

>  <RI>
0

>  <Rbt.Current_Directory>
/home/itssahil/PROJECTS/Mol_Feturizer/New_Systems/rnas/3NPQ

>  <Rbt.Executable>
rbdock ($Id: //depot/dev/client3/rdock/2013.1/src/exe/rbdock.cxx#4 $)

>  <Rbt.Library>
libRbt.so (2013.1, Build901 2013/11/27)

>  <Rbt.Parameter_File>
/export/apps/rDock/src/rDock_2013.1_src/data/scripts/dock_solv.prm

>  <Rbt.Receptor>
prm/pocket_docking_6.prm

>  <SCORE>
-21.7575

>  <SCORE.INTER>
-21.3782

>  <SCORE.INTER.CONST>
1

>  <SCORE.INTER.POLAR>
0

>  <SCORE.INTER.ROT>
7

>  <SCORE.INTER.SOLV>
14.6755

>  <SCORE.INTER.VDW>
-27.4107

>  <SCORE.INTER.norm>
-0.82224

>  <SCORE.INTRA>
-0.379261

>  <SCORE.INTRA.DIHEDRAL>
-1.02414

>  <SCORE.INTRA.DIHEDRAL.0>
6.97628

>  <SCORE.INTRA.POLAR>
0

>  <SCORE.INTRA.POLAR.0>
0

>  <SCORE.INTRA.REPUL>
0

>  <SCORE.INTRA.REPUL.0>
0

>  <SCORE.INTRA.SOLV>
0.348675

>  <SCORE.INTRA.SOLV.lig_0>
-49.8243

>  <SCORE.INTRA.VDW>
-0.0415266

>  <SCORE.INTRA.VDW.0>
-1.35881

>  <SCORE.INTRA.norm>
-0.014587

>  <SCORE.RESTR>
0

>  <SCORE.RESTR.CAVITY>
0

>  <SCORE.RESTR.norm>
0

>  <SCORE.SYSTEM>
0

>  <SCORE.SYSTEM.CONST>
0

>  <SCORE.SYSTEM.DIHEDRAL>
0

>  <SCORE.SYSTEM.SOLV>
0

>  <SCORE.SYSTEM.norm>
0

>  <SCORE.heavy>
26

>  <SCORE.norm>
-0.836827

>  <RMSD>
2.778

$$$$
ligand
 OpenBabel11021811483D
libRbt.so/2013.1/901 2013/11/27
 26 28  0  0  0  0  0  0  0  0999 V2000
   35.1744   17.8910    8.6350 N   0  0  0  0  0  0  0  0  0  0  0  0
   35.9037   16.7627    8.0695 C   0  0  2  0  0  0  0  0  0  0  0  0
   35.0058   15.5373    7.9427 C   0  0  0  0  0  0  0  0  0  0  0  0
   34.7360   14.8455    8.9237 O   0  0  0  0  0  0  0  0  0  0  0  0
   37.1212   16.4321    8.9235 C   0  0  0  0  0  0  0  0  0  0  0  0
   38.1159   15.4938    8.2528 C   0  0  0  0  0  0  0  0  0  0  0  0
   39.0132   16.2884    6.8957 S   0  0  0  0  0  0  0  0  0  0  0  0
   40.0562   14.8188    6.7206 C   0  0  0  0  0  0  0  0  0  0  0  0
   41.2196   15.0340    5.7596 C   0  0  1  0  0  0  0  0  0  0  0  0
   41.9474   13.8293    5.6044 O   0  0  0  0  0  0  0  0  0  0  0  0
   40.7359   15.4649    4.3846 C   0  0  1  0  0  0  0  0  0  0  0  0
   41.2090   16.7583    4.0919 O   0  0  0  0  0  0  0  0  0  0  0  0
   41.3204   14.4651    3.4085 C   0  0  1  0  0  0  0  0  0  0  0  0
   42.1155   15.1290    2.4538 O   0  0  0  0  0  0  0  0  0  0  0  0
   42.1770   13.5266    4.2410 C   0  0  2  0  0  0  0  0  0  0  0  0
   34.5285   15.2106    6.8553 O   0  0  0  0  0  0  0  0  0  0  0  0
   38.9786    9.5444    5.4573 N   0  0  0  0  0  0  0  0  0  0  0  0
   39.0014   10.8136    5.9996 C   0  0  0  0  0  0  0  0  0  0  0  0
   39.9203   11.7432    5.5545 N   0  0  0  0  0  0  0  0  0  0  0  0
   40.8078   11.4170    4.5835 C   0  0  0  0  0  0  0  0  0  0  0  0
   40.8010   10.1456    4.0261 C   0  0  0  0  0  0  0  0  0  0  0  0
   39.8788    9.2045    4.4678 C   0  0  0  0  0  0  0  0  0  0  0  0
   39.8637    7.9833    3.9419 N   0  0  0  0  0  0  0  0  0  0  0  0
   41.7769   10.0950    3.0939 N   0  0  0  0  0  0  0  0  0  0  0  0
   42.3978   11.2962    3.0481 C   0  0  0  0  0  0  0  0  0  0  0  0
   41.8078   12.1263    3.9661 N   0  0  0  0  0  0  0  0  0  0  0  0
  2  1  1  1  0  0  0
  2  3  1  0  0  0  0
  2  5  1  0  0  0  0
  3  4  1  0  0  0  0
  3 16  1  0  0  0  0
  5  6  1  0  0  0  0
  6  7  1  0  0  0  0
  7  8  1  0  0  0  0
  9  8  1  1  0  0  0
  9 10  1  0  0  0  0
  9 11  1  0  0  0  0
 10 15  1  0  0  0  0
 11 12  1  6  0  0  0
 11 13  1  0  0  0  0
 13 14  1  6  0  0  0
 13 15  1  0  0  0  0
 15 26  1  1  0  0  0
 17 18  2  0  0  0  0
 17 22  1  0  0  0  0
 18 19  1  0  0  0  0
 19 20  2  0  0  0  0
 20 21  1  0  0  0  0
 20 26  1  0  0  0  0
 21 22  2  0  0  0  0
 21 24  1  0  0  0  0
 22 23  1  0  0  0  0
 24 25  2  0  0  0  0
 25 26  1  0  0  0  0
M  END
>  <CHROM.1>
-77.80010786,-166.52163735,70.88467727,173.78727464,-171.40313937,-176.49633710
32.14756956,39.39405253,13.75685512,5.67558818,-2.37894355,-0.57175273,-2.97328027

>  <Name>
ligand

>  <RI>
0

>  <Rbt.Current_Directory>
/home/itssahil/PROJECTS/Mol_Feturizer/New_Systems/rnas/3NPQ

>  <Rbt.Executable>
rbdock ($Id: //depot/dev/client3/rdock/2013.1/src/exe/rbdock.cxx#4 $)

>  <Rbt.Library>
libRbt.so (2013.1, Build901 2013/11/27)

>  <Rbt.Parameter_File>
/export/apps/rDock/src/rDock_2013.1_src/data/scripts/dock_solv.prm

>  <Rbt.Receptor>
prm/pocket_docking_4.prm

>  <SCORE>
-22.83

>  <SCORE.INTER>
-19.6819

>  <SCORE.INTER.CONST>
1

>  <SCORE.INTER.POLAR>
0

>  <SCORE.INTER.ROT>
7

>  <SCORE.INTER.SOLV>
19.2956

>  <SCORE.INTER.VDW>
-27.8198

>  <SCORE.INTER.norm>
-0.756995

>  <SCORE.INTRA>
-3.14815

>  <SCORE.INTRA.DIHEDRAL>
-2.97139

>  <SCORE.INTRA.DIHEDRAL.0>
6.97628

>  <SCORE.INTRA.POLAR>
0

>  <SCORE.INTRA.POLAR.0>
0

>  <SCORE.INTRA.REPUL>
0

>  <SCORE.INTRA.REPUL.0>
0

>  <SCORE.INTRA.SOLV>
-0.633385

>  <SCORE.INTRA.SOLV.lig_0>
-49.8243

>  <SCORE.INTRA.VDW>
-1.34576

>  <SCORE.INTRA.VDW.0>
-1.35881

>  <SCORE.INTRA.norm>
-0.121083

>  <SCORE.RESTR>
0

>  <SCORE.RESTR.CAVITY>
0

>  <SCORE.RESTR.norm>
0

>  <SCORE.SYSTEM>
0

>  <SCORE.SYSTEM.CONST>
0

>  <SCORE.SYSTEM.DIHEDRAL>
0

>  <SCORE.SYSTEM.SOLV>
0

>  <SCORE.SYSTEM.norm>
0

>  <SCORE.heavy>
26

>  <SCORE.norm>
-0.878077

>  <RMSD>
2.868

$$$$
ligand
 OpenBabel11021811483D
libRbt.so/2013.1/901 2013/11/27
 26 28  0  0  0  0  0  0  0  0999 V2000
   37.8194   20.8593    4.6180 N   0  0  0  0  0  0  0  0  0  0  0  0
   36.5102   20.3150    4.9559 C   0  0  2  0  0  0  0  0  0  0  0  0
   36.0688   20.7685    6.3429 C   0  0  0  0  0  0  0  0  0  0  0  0
   34.8765   20.8988    6.6170 O   0  0  0  0  0  0  0  0  0  0  0  0
   36.5305   18.7932    4.8857 C   0  0  0  0  0  0  0  0  0  0  0  0
   36.6729   18.2370    3.4751 C   0  0  0  0  0  0  0  0  0  0  0  0
   36.4728   16.4385    3.4145 S   0  0  0  0  0  0  0  0  0  0  0  0
   38.2039   16.2263    3.9008 C   0  0  0  0  0  0  0  0  0  0  0  0
   38.3864   16.1585    5.4126 C   0  0  1  0  0  0  0  0  0  0  0  0
   37.9430   14.9040    5.8971 O   0  0  0  0  0  0  0  0  0  0  0  0
   39.8455   16.3195    5.8068 C   0  0  1  0  0  0  0  0  0  0  0  0
   40.0102   17.4888    6.5736 O   0  0  0  0  0  0  0  0  0  0  0  0
   40.1858   15.1007    6.6391 C   0  0  1  0  0  0  0  0  0  0  0  0
   40.6292   15.4955    7.9166 O   0  0  0  0  0  0  0  0  0  0  0  0
   38.8964   14.3061    6.7555 C   0  0  2  0  0  0  0  0  0  0  0  0
   36.8951   21.0147    7.2223 O   0  0  0  0  0  0  0  0  0  0  0  0
   41.5303   11.0569    3.5819 N   0  0  0  0  0  0  0  0  0  0  0  0
   41.6087   12.4336    3.6451 C   0  0  0  0  0  0  0  0  0  0  0  0
   40.8351   13.1330    4.5502 N   0  0  0  0  0  0  0  0  0  0  0  0
   39.9921   12.4742    5.3822 C   0  0  0  0  0  0  0  0  0  0  0  0
   39.8988   11.0900    5.3334 C   0  0  0  0  0  0  0  0  0  0  0  0
   40.6745   10.3786    4.4260 C   0  0  0  0  0  0  0  0  0  0  0  0
   40.5927    9.0526    4.3696 N   0  0  0  0  0  0  0  0  0  0  0  0
   38.9959   10.7012    6.2595 N   0  0  0  0  0  0  0  0  0  0  0  0
   38.5181   11.7990    6.8894 C   0  0  0  0  0  0  0  0  0  0  0  0
   39.1266   12.9060    6.3563 N   0  0  0  0  0  0  0  0  0  0  0  0
  2  1  1  1  0  0  0
  2  3  1  0  0  0  0
  2  5  1  0  0  0  0
  3  4  1  0  0  0  0
  3 16  1  0  0  0  0
  5  6  1  0  0  0  0
  6  7  1  0  0  0  0
  7  8  1  0  0  0  0
  9  8  1  6  0  0  0
  9 10  1  0  0  0  0
  9 11  1  0  0  0  0
 10 15  1  0  0  0  0
 11 12  1  1  0  0  0
 11 13  1  0  0  0  0
 13 14  1  1  0  0  0
 13 15  1  0  0  0  0
 15 26  1  6  0  0  0
 17 18  2  0  0  0  0
 17 22  1  0  0  0  0
 18 19  1  0  0  0  0
 19 20  2  0  0  0  0
 20 21  1  0  0  0  0
 20 26  1  0  0  0  0
 21 22  2  0  0  0  0
 21 24  1  0  0  0  0
 22 23  1  0  0  0  0
 24 25  2  0  0  0  0
 25 26  1  0  0  0  0
M  END
>  <CHROM.1>
150.66518432,-69.05793121,-172.40849986,-82.71024972,89.82063456,74.24909065
84.36670241,38.60751851,15.49964519,5.36879377,2.30030771,-0.92624793,0.67713389

>  <Name>
ligand

>  <RI>
0

>  <Rbt.Current_Directory>
/home/itssahil/PROJECTS/Mol_Feturizer/New_Systems/rnas/3NPQ

>  <Rbt.Executable>
rbdock ($Id: //depot/dev/client3/rdock/2013.1/src/exe/rbdock.cxx#4 $)

>  <Rbt.Library>
libRbt.so (2013.1, Build901 2013/11/27)

>  <Rbt.Parameter_File>
/export/apps/rDock/src/rDock_2013.1_src/data/scripts/dock_solv.prm

>  <Rbt.Receptor>
prm/pocket_docking_6.prm

>  <SCORE>
-22.5837

>  <SCORE.INTER>
-20.8576

>  <SCORE.INTER.CONST>
1

>  <SCORE.INTER.POLAR>
0

>  <SCORE.INTER.ROT>
7

>  <SCORE.INTER.SOLV>
15.9859

>  <SCORE.INTER.VDW>
-27.5004

>  <SCORE.INTER.norm>
-0.802215

>  <SCORE.INTRA>
-1.72614

>  <SCORE.INTRA.DIHEDRAL>
-1.1129

>  <SCORE.INTRA.DIHEDRAL.0>
6.97628

>  <SCORE.INTRA.POLAR>
0

>  <SCORE.INTRA.POLAR.0>
0

>  <SCORE.INTRA.REPUL>
0

>  <SCORE.INTRA.REPUL.0>
0

>  <SCORE.INTRA.SOLV>
-0.190847

>  <SCORE.INTRA.SOLV.lig_0>
-49.8243

>  <SCORE.INTRA.VDW>
-1.07427

>  <SCORE.INTRA.VDW.0>
-1.35881

>  <SCORE.INTRA.norm>
-0.0663902

>  <SCORE.RESTR>
0

>  <SCORE.RESTR.CAVITY>
0

>  <SCORE.RESTR.norm>
0

>  <SCORE.SYSTEM>
0

>  <SCORE.SYSTEM.CONST>
0

>  <SCORE.SYSTEM.DIHEDRAL>
0

>  <SCORE.SYSTEM.SOLV>
0

>  <SCORE.SYSTEM.norm>
0

>  <SCORE.heavy>
26

>  <SCORE.norm>
-0.868605

>  <RMSD>
2.906

$$$$
ligand
 OpenBabel11021811483D
libRbt.so/2013.1/901 2013/11/27
 26 28  0  0  0  0  0  0  0  0999 V2000
   37.0561   17.1366    8.8562 N   0  0  0  0  0  0  0  0  0  0  0  0
   36.4560   16.0077    8.1562 C   0  0  2  0  0  0  0  0  0  0  0  0
   35.2393   15.4799    8.9078 C   0  0  0  0  0  0  0  0  0  0  0  0
   34.1167   15.9370    8.6961 O   0  0  0  0  0  0  0  0  0  0  0  0
   37.4772   14.8930    7.9671 C   0  0  0  0  0  0  0  0  0  0  0  0
   38.7981   15.3543    7.3652 C   0  0  0  0  0  0  0  0  0  0  0  0
   39.8692   13.9710    6.8988 S   0  0  0  0  0  0  0  0  0  0  0  0
   41.2435   15.1199    6.6352 C   0  0  0  0  0  0  0  0  0  0  0  0
   42.0778   14.7679    5.4091 C   0  0  1  0  0  0  0  0  0  0  0  0
   42.3251   13.3741    5.3768 O   0  0  0  0  0  0  0  0  0  0  0  0
   41.3634   15.1429    4.1210 C   0  0  1  0  0  0  0  0  0  0  0  0
   42.0979   16.1274    3.4328 O   0  0  0  0  0  0  0  0  0  0  0  0
   41.3001   13.8728    3.2983 C   0  0  1  0  0  0  0  0  0  0  0  0
   41.9390   14.0672    2.0580 O   0  0  0  0  0  0  0  0  0  0  0  0
   42.0373   12.8192    4.1069 C   0  0  2  0  0  0  0  0  0  0  0  0
   35.3507   14.5831    9.7446 O   0  0  0  0  0  0  0  0  0  0  0  0
   41.0853    7.9269    2.4558 N   0  0  0  0  0  0  0  0  0  0  0  0
   42.0565    8.8011    2.0110 C   0  0  0  0  0  0  0  0  0  0  0  0
   42.1633   10.0616    2.5647 N   0  0  0  0  0  0  0  0  0  0  0  0
   41.3151   10.4511    3.5475 C   0  0  0  0  0  0  0  0  0  0  0  0
   40.3315    9.5864    4.0078 C   0  0  0  0  0  0  0  0  0  0  0  0
   40.2179    8.3158    3.4565 C   0  0  0  0  0  0  0  0  0  0  0  0
   39.2789    7.4794    3.8889 N   0  0  0  0  0  0  0  0  0  0  0  0
   39.6382   10.2230    4.9763 N   0  0  0  0  0  0  0  0  0  0  0  0
   40.1558   11.4623    5.1391 C   0  0  0  0  0  0  0  0  0  0  0  0
   41.1964   11.6183    4.2600 N   0  0  0  0  0  0  0  0  0  0  0  0
  2  1  1  1  0  0  0
  2  3  1  0  0  0  0
  2  5  1  0  0  0  0
  3  4  1  0  0  0  0
  3 16  1  0  0  0  0
  5  6  1  0  0  0  0
  6  7  1  0  0  0  0
  7  8  1  0  0  0  0
  9  8  1  1  0  0  0
  9 10  1  0  0  0  0
  9 11  1  0  0  0  0
 10 15  1  0  0  0  0
 11 12  1  6  0  0  0
 11 13  1  0  0  0  0
 13 14  1  6  0  0  0
 13 15  1  0  0  0  0
 15 26  1  1  0  0  0
 17 18  2  0  0  0  0
 17 22  1  0  0  0  0
 18 19  1  0  0  0  0
 19 20  2  0  0  0  0
 20 21  1  0  0  0  0
 20 26  1  0  0  0  0
 21 22  2  0  0  0  0
 21 24  1  0  0  0  0
 22 23  1  0  0  0  0
 24 25  2  0  0  0  0
 25 26  1  0  0  0  0
M  END
>  <CHROM.1>
88.94740527,-50.39173448,-170.26086050,-169.24009414,-140.01054200,-44.30495569
-139.80940279,39.82423984,13.02158496,5.40375030,-2.27152041,-0.61722540
-2.83398951

>  <Name>
ligand

>  <RI>
0

>  <Rbt.Current_Directory>
/home/itssahil/PROJECTS/Mol_Feturizer/New_Systems/rnas/3NPQ

>  <Rbt.Executable>
rbdock ($Id: //depot/dev/client3/rdock/2013.1/src/exe/rbdock.cxx#4 $)

>  <Rbt.Library>
libRbt.so (2013.1, Build901 2013/11/27)

>  <Rbt.Parameter_File>
/export/apps/rDock/src/rDock_2013.1_src/data/scripts/dock_solv.prm

>  <Rbt.Receptor>
prm/pocket_docking_3.prm

>  <SCORE>
-19.0446

>  <SCORE.INTER>
-18.0128

>  <SCORE.INTER.CONST>
1

>  <SCORE.INTER.POLAR>
0

>  <SCORE.INTER.ROT>
7

>  <SCORE.INTER.SOLV>
24.2407

>  <SCORE.INTER.VDW>
-28.3554

>  <SCORE.INTER.norm>
-0.6928

>  <SCORE.INTRA>
-1.03184

>  <SCORE.INTRA.DIHEDRAL>
-0.778273

>  <SCORE.INTRA.DIHEDRAL.0>
6.97628

>  <SCORE.INTRA.POLAR>
0

>  <SCORE.INTRA.POLAR.0>
0

>  <SCORE.INTRA.REPUL>
0

>  <SCORE.INTRA.REPUL.0>
0

>  <SCORE.INTRA.SOLV>
0.0609208

>  <SCORE.INTRA.SOLV.lig_0>
-49.8243

>  <SCORE.INTRA.VDW>
-0.673168

>  <SCORE.INTRA.VDW.0>
-1.35881

>  <SCORE.INTRA.norm>
-0.0396863

>  <SCORE.RESTR>
0

>  <SCORE.RESTR.CAVITY>
0

>  <SCORE.RESTR.norm>
0

>  <SCORE.SYSTEM>
0

>  <SCORE.SYSTEM.CONST>
0

>  <SCORE.SYSTEM.DIHEDRAL>
0

>  <SCORE.SYSTEM.SOLV>
0

>  <SCORE.SYSTEM.norm>
0

>  <SCORE.heavy>
26

>  <SCORE.norm>
-0.732486

>  <RMSD>
2.927

$$$$
ligand
 OpenBabel11021811483D
libRbt.so/2013.1/901 2013/11/27
 26 28  0  0  0  0  0  0  0  0999 V2000
   36.3937   17.8563    8.8315 N   0  0  0  0  0  0  0  0  0  0  0  0
   36.2181   16.6977    7.9647 C   0  0  2  0  0  0  0  0  0  0  0  0
   34.9283   15.9555    8.2955 C   0  0  0  0  0  0  0  0  0  0  0  0
   34.6823   15.5948    9.4458 O   0  0  0  0  0  0  0  0  0  0  0  0
   37.4090   15.7552    8.0858 C   0  0  0  0  0  0  0  0  0  0  0  0
   37.2927   14.4934    7.2408 C   0  0  0  0  0  0  0  0  0  0  0  0
   38.8606   13.5971    7.1122 S   0  0  0  0  0  0  0  0  0  0  0  0
   39.3479   14.6433    5.7171 C   0  0  0  0  0  0  0  0  0  0  0  0
   40.8594   14.8003    5.5991 C   0  0  1  0  0  0  0  0  0  0  0  0
   41.4873   13.5367    5.7179 O   0  0  0  0  0  0  0  0  0  0  0  0
   41.2564   15.3919    4.2564 C   0  0  1  0  0  0  0  0  0  0  0  0
   41.8757   16.6420    4.4460 O   0  0  0  0  0  0  0  0  0  0  0  0
   42.2387   14.4130    3.6474 C   0  0  1  0  0  0  0  0  0  0  0  0
   43.4652   15.0558    3.3890 O   0  0  0  0  0  0  0  0  0  0  0  0
   42.4296   13.3195    4.6844 C   0  0  2  0  0  0  0  0  0  0  0  0
   34.1014   15.6996    7.4194 O   0  0  0  0  0  0  0  0  0  0  0  0
   39.5133    8.9535    4.6696 N   0  0  0  0  0  0  0  0  0  0  0  0
   39.3789   10.0638    5.4787 C   0  0  0  0  0  0  0  0  0  0  0  0
   40.2437   11.1317    5.3427 N   0  0  0  0  0  0  0  0  0  0  0  0
   41.2317   11.0980    4.4156 C   0  0  0  0  0  0  0  0  0  0  0  0
   41.3834    9.9900    3.5930 C   0  0  0  0  0  0  0  0  0  0  0  0
   40.5168    8.9115    3.7228 C   0  0  0  0  0  0  0  0  0  0  0  0
   40.6532    7.8446    2.9410 N   0  0  0  0  0  0  0  0  0  0  0  0
   42.4316   10.2212    2.7733 N   0  0  0  0  0  0  0  0  0  0  0  0
   42.9441   11.4411    3.0554 C   0  0  0  0  0  0  0  0  0  0  0  0
   42.2105   11.9969    4.0717 N   0  0  0  0  0  0  0  0  0  0  0  0
  2  1  1  1  0  0  0
  2  3  1  0  0  0  0
  2  5  1  0  0  0  0
  3  4  1  0  0  0  0
  3 16  1  0  0  0  0
  5  6  1  0  0  0  0
  6  7  1  0  0  0  0
  7  8  1  0  0  0  0
  9  8  1  6  0  0  0
  9 10  1  0  0  0  0
  9 11  1  0  0  0  0
 10 15  1  0  0  0  0
 11 12  1  1  0  0  0
 11 13  1  0  0  0  0
 13 14  1  1  0  0  0
 13 15  1  0  0  0  0
 15 26  1  6  0  0  0
 17 18  2  0  0  0  0
 17 22  1  0  0  0  0
 18 19  1  0  0  0  0
 19 20  2  0  0  0  0
 20 21  1  0  0  0  0
 20 26  1  0  0  0  0
 21 22  2  0  0  0  0
 21 24  1  0  0  0  0
 22 23  1  0  0  0  0
 24 25  2  0  0  0  0
 25 26  1  0  0  0  0
M  END
>  <CHROM.1>
-52.75067367,178.38752352,166.83781071,-85.50364615,151.74641770,46.88036265
1.05303820,39.66360024,13.38609144,5.58000878,-2.40746916,-0.51801773,-2.92438127

>  <Name>
ligand

>  <RI>
0

>  <Rbt.Current_Directory>
/home/itssahil/PROJECTS/Mol_Feturizer/New_Systems/rnas/3NPQ

>  <Rbt.Executable>
rbdock ($Id: //depot/dev/client3/rdock/2013.1/src/exe/rbdock.cxx#4 $)

>  <Rbt.Library>
libRbt.so (2013.1, Build901 2013/11/27)

>  <Rbt.Parameter_File>
/export/apps/rDock/src/rDock_2013.1_src/data/scripts/dock_solv.prm

>  <Rbt.Receptor>
prm/pocket_docking_7.prm

>  <SCORE>
-24.0846

>  <SCORE.INTER>
-22.213

>  <SCORE.INTER.CONST>
1

>  <SCORE.INTER.POLAR>
0

>  <SCORE.INTER.ROT>
7

>  <SCORE.INTER.SOLV>
16.5469

>  <SCORE.INTER.VDW>
-28.591

>  <SCORE.INTER.norm>
-0.854347

>  <SCORE.INTRA>
-1.87158

>  <SCORE.INTRA.DIHEDRAL>
-1.05857

>  <SCORE.INTRA.DIHEDRAL.0>
6.97628

>  <SCORE.INTRA.POLAR>
0

>  <SCORE.INTRA.POLAR.0>
0

>  <SCORE.INTRA.REPUL>
0

>  <SCORE.INTRA.REPUL.0>
0

>  <SCORE.INTRA.SOLV>
-0.791874

>  <SCORE.INTRA.SOLV.lig_0>
-49.8243

>  <SCORE.INTRA.VDW>
-0.946357

>  <SCORE.INTRA.VDW.0>
-1.35881

>  <SCORE.INTRA.norm>
-0.0719837

>  <SCORE.RESTR>
0

>  <SCORE.RESTR.CAVITY>
0

>  <SCORE.RESTR.norm>
0

>  <SCORE.SYSTEM>
0

>  <SCORE.SYSTEM.CONST>
0

>  <SCORE.SYSTEM.DIHEDRAL>
0

>  <SCORE.SYSTEM.SOLV>
0

>  <SCORE.SYSTEM.norm>
0

>  <SCORE.heavy>
26

>  <SCORE.norm>
-0.926331

>  <RMSD>
2.950

$$$$
ligand
 OpenBabel11021811483D
libRbt.so/2013.1/901 2013/11/27
 26 28  0  0  0  0  0  0  0  0999 V2000
   37.9836   16.6071    8.5720 N   0  0  0  0  0  0  0  0  0  0  0  0
   36.5802   16.2954    8.8125 C   0  0  2  0  0  0  0  0  0  0  0  0
   36.3704   14.7934    8.9666 C   0  0  0  0  0  0  0  0  0  0  0  0
   35.4301   14.3494    9.6242 O   0  0  0  0  0  0  0  0  0  0  0  0
   35.7129   16.8305    7.6800 C   0  0  0  0  0  0  0  0  0  0  0  0
   36.0198   16.2196    6.3189 C   0  0  0  0  0  0  0  0  0  0  0  0
   37.4343   17.0067    5.5077 S   0  0  0  0  0  0  0  0  0  0  0  0
   38.4091   15.4982    5.7369 C   0  0  0  0  0  0  0  0  0  0  0  0
   39.9086   15.7422    5.6143 C   0  0  1  0  0  0  0  0  0  0  0  0
   40.6200   14.5747    5.9828 O   0  0  0  0  0  0  0  0  0  0  0  0
   40.3023   16.0957    4.1894 C   0  0  1  0  0  0  0  0  0  0  0  0
   40.8263   17.4018    4.1453 O   0  0  0  0  0  0  0  0  0  0  0  0
   41.3685   15.0950    3.7946 C   0  0  1  0  0  0  0  0  0  0  0  0
   42.5539   15.7667    3.4366 O   0  0  0  0  0  0  0  0  0  0  0  0
   41.6053   14.2359    5.0248 C   0  0  2  0  0  0  0  0  0  0  0  0
   37.1368   13.9883    8.4362 O   0  0  0  0  0  0  0  0  0  0  0  0
   38.9282    9.7709    5.7063 N   0  0  0  0  0  0  0  0  0  0  0  0
   38.6811   11.0059    6.2713 C   0  0  0  0  0  0  0  0  0  0  0  0
   39.4963   12.0808    5.9766 N   0  0  0  0  0  0  0  0  0  0  0  0
   40.5459   11.9319    5.1322 C   0  0  0  0  0  0  0  0  0  0  0  0
   40.8111   10.6978    4.5544 C   0  0  0  0  0  0  0  0  0  0  0  0
   39.9949    9.6112    4.8451 C   0  0  0  0  0  0  0  0  0  0  0  0
   40.2399    8.4241    4.2982 N   0  0  0  0  0  0  0  0  0  0  0  0
   41.8994   10.8329    3.7662 N   0  0  0  0  0  0  0  0  0  0  0  0
   42.3271   12.1147    3.8307 C   0  0  0  0  0  0  0  0  0  0  0  0
   41.4977   12.8084    4.6738 N   0  0  0  0  0  0  0  0  0  0  0  0
  2  1  1  6  0  0  0
  2  3  1  0  0  0  0
  2  5  1  0  0  0  0
  3  4  1  0  0  0  0
  3 16  1  0  0  0  0
  5  6  1  0  0  0  0
  6  7  1  0  0  0  0
  7  8  1  0  0  0  0
  9  8  1  6  0  0  0
  9 10  1  0  0  0  0
  9 11  1  0  0  0  0
 10 15  1  0  0  0  0
 11 12  1  1  0  0  0
 11 13  1  0  0  0  0
 13 14  1  1  0  0  0
 13 15  1  0  0  0  0
 15 26  1  6  0  0  0
 17 18  2  0  0  0  0
 17 22  1  0  0  0  0
 18 19  1  0  0  0  0
 19 20  2  0  0  0  0
 20 21  1  0  0  0  0
 20 26  1  0  0  0  0
 21 22  2  0  0  0  0
 21 24  1  0  0  0  0
 22 23  1  0  0  0  0
 24 25  2  0  0  0  0
 25 26  1  0  0  0  0
M  END
>  <CHROM.1>
153.52092968,62.18666452,-82.10950974,110.85816417,-161.25958119,171.98964530
3.52884466,39.21901798,14.07372041,5.81414769,2.45470198,0.69274080,-0.07565735

>  <Name>
ligand

>  <RI>
0

>  <Rbt.Current_Directory>
/home/itssahil/PROJECTS/Mol_Feturizer/New_Systems/rnas/3NPQ

>  <Rbt.Executable>
rbdock ($Id: //depot/dev/client3/rdock/2013.1/src/exe/rbdock.cxx#4 $)

>  <Rbt.Library>
libRbt.so (2013.1, Build901 2013/11/27)

>  <Rbt.Parameter_File>
/export/apps/rDock/src/rDock_2013.1_src/data/scripts/dock_solv.prm

>  <Rbt.Receptor>
prm/pocket_docking_5.prm

>  <SCORE>
-19.3714

>  <SCORE.INTER>
-19.2749

>  <SCORE.INTER.CONST>
1

>  <SCORE.INTER.POLAR>
0

>  <SCORE.INTER.ROT>
7

>  <SCORE.INTER.SOLV>
18.1621

>  <SCORE.INTER.VDW>
-27.1707

>  <SCORE.INTER.norm>
-0.741344

>  <SCORE.INTRA>
-0.0964666

>  <SCORE.INTRA.DIHEDRAL>
0.382902

>  <SCORE.INTRA.DIHEDRAL.0>
6.97628

>  <SCORE.INTRA.POLAR>
0

>  <SCORE.INTRA.POLAR.0>
0

>  <SCORE.INTRA.REPUL>
0

>  <SCORE.INTRA.REPUL.0>
0

>  <SCORE.INTRA.SOLV>
2.80752

>  <SCORE.INTRA.SOLV.lig_0>
-49.8243

>  <SCORE.INTRA.VDW>
-1.69168

>  <SCORE.INTRA.VDW.0>
-1.35881

>  <SCORE.INTRA.norm>
-0.00371026

>  <SCORE.RESTR>
0

>  <SCORE.RESTR.CAVITY>
0

>  <SCORE.RESTR.norm>
0

>  <SCORE.SYSTEM>
0

>  <SCORE.SYSTEM.CONST>
0

>  <SCORE.SYSTEM.DIHEDRAL>
0

>  <SCORE.SYSTEM.SOLV>
0

>  <SCORE.SYSTEM.norm>
0

>  <SCORE.heavy>
26

>  <SCORE.norm>
-0.745054

>  <RMSD>
2.974

$$$$
ligand
 OpenBabel11021811483D
libRbt.so/2013.1/901 2013/11/27
 26 28  0  0  0  0  0  0  0  0999 V2000
   35.9147   17.0902    7.6579 N   0  0  0  0  0  0  0  0  0  0  0  0
   36.2871   15.8996    8.4118 C   0  0  2  0  0  0  0  0  0  0  0  0
   35.4110   15.7373    9.6488 C   0  0  0  0  0  0  0  0  0  0  0  0
   35.0514   14.6236   10.0285 O   0  0  0  0  0  0  0  0  0  0  0  0
   37.7548   15.9609    8.8155 C   0  0  0  0  0  0  0  0  0  0  0  0
   38.7271   15.7988    7.6545 C   0  0  0  0  0  0  0  0  0  0  0  0
   38.6136   14.1677    6.8766 S   0  0  0  0  0  0  0  0  0  0  0  0
   39.3615   14.8319    5.3674 C   0  0  0  0  0  0  0  0  0  0  0  0
   40.8816   14.9097    5.4490 C   0  0  1  0  0  0  0  0  0  0  0  0
   41.4220   13.6153    5.6431 O   0  0  0  0  0  0  0  0  0  0  0  0
   41.4812   15.4767    4.1726 C   0  0  1  0  0  0  0  0  0  0  0  0
   42.1345   16.6933    4.4473 O   0  0  0  0  0  0  0  0  0  0  0  0
   42.4826   14.4466    3.6929 C   0  0  1  0  0  0  0  0  0  0  0  0
   43.7642   15.0240    3.6002 O   0  0  0  0  0  0  0  0  0  0  0  0
   42.4790   13.3470    4.7409 C   0  0  2  0  0  0  0  0  0  0  0  0
   35.0427   16.7169   10.2980 O   0  0  0  0  0  0  0  0  0  0  0  0
   39.5793    8.9723    4.5967 N   0  0  0  0  0  0  0  0  0  0  0  0
   39.4292   10.0656    5.4258 C   0  0  0  0  0  0  0  0  0  0  0  0
   40.2919   11.1390    5.3237 N   0  0  0  0  0  0  0  0  0  0  0  0
   41.2933   11.1272    4.4105 C   0  0  0  0  0  0  0  0  0  0  0  0
   41.4608   10.0366    3.5681 C   0  0  0  0  0  0  0  0  0  0  0  0
   40.5964    8.9527    3.6638 C   0  0  0  0  0  0  0  0  0  0  0  0
   40.7479    7.9022    2.8628 N   0  0  0  0  0  0  0  0  0  0  0  0
   42.5198   10.2878    2.7684 N   0  0  0  0  0  0  0  0  0  0  0  0
   43.0237   11.5034    3.0823 C   0  0  0  0  0  0  0  0  0  0  0  0
   42.2735   12.0362    4.0988 N   0  0  0  0  0  0  0  0  0  0  0  0
  2  1  1  1  0  0  0
  2  3  1  0  0  0  0
  2  5  1  0  0  0  0
  3  4  1  0  0  0  0
  3 16  1  0  0  0  0
  5  6  1  0  0  0  0
  6  7  1  0  0  0  0
  7  8  1  0  0  0  0
  9  8  1  6  0  0  0
  9 10  1  0  0  0  0
  9 11  1  0  0  0  0
 10 15  1  0  0  0  0
 11 12  1  1  0  0  0
 11 13  1  0  0  0  0
 13 14  1  1  0  0  0
 13 15  1  0  0  0  0
 15 26  1  6  0  0  0
 17 18  2  0  0  0  0
 17 22  1  0  0  0  0
 18 19  1  0  0  0  0
 19 20  2  0  0  0  0
 20 21  1  0  0  0  0
 20 26  1  0  0  0  0
 21 22  2  0  0  0  0
 21 24  1  0  0  0  0
 22 23  1  0  0  0  0
 24 25  2  0  0  0  0
 25 26  1  0  0  0  0
M  END
>  <CHROM.1>
143.02748810,-70.35101418,-64.17359676,158.51537738,81.76467236,60.74581509
-6.45087397,39.82969110,13.46296845,5.74420369,-2.41441717,-0.61605649,-2.89761340

>  <Name>
ligand

>  <RI>
0

>  <Rbt.Current_Directory>
/home/itssahil/PROJECTS/Mol_Feturizer/New_Systems/rnas/3NPQ

>  <Rbt.Executable>
rbdock ($Id: //depot/dev/client3/rdock/2013.1/src/exe/rbdock.cxx#4 $)

>  <Rbt.Library>
libRbt.so (2013.1, Build901 2013/11/27)

>  <Rbt.Parameter_File>
/export/apps/rDock/src/rDock_2013.1_src/data/scripts/dock_solv.prm

>  <Rbt.Receptor>
prm/pocket_docking_5.prm

>  <SCORE>
-25.2959

>  <SCORE.INTER>
-22.9423

>  <SCORE.INTER.CONST>
1

>  <SCORE.INTER.POLAR>
0

>  <SCORE.INTER.ROT>
7

>  <SCORE.INTER.SOLV>
14.228

>  <SCORE.INTER.VDW>
-28.3042

>  <SCORE.INTER.norm>
-0.882395

>  <SCORE.INTRA>
-2.3536

>  <SCORE.INTRA.DIHEDRAL>
-2.428

>  <SCORE.INTRA.DIHEDRAL.0>
6.97628

>  <SCORE.INTRA.POLAR>
0

>  <SCORE.INTRA.POLAR.0>
0

>  <SCORE.INTRA.REPUL>
0

>  <SCORE.INTRA.REPUL.0>
0

>  <SCORE.INTRA.SOLV>
0.281344

>  <SCORE.INTRA.SOLV.lig_0>
-49.8243

>  <SCORE.INTRA.VDW>
-1.28027

>  <SCORE.INTRA.VDW.0>
-1.35881

>  <SCORE.INTRA.norm>
-0.0905231

>  <SCORE.RESTR>
0

>  <SCORE.RESTR.CAVITY>
0

>  <SCORE.RESTR.norm>
0

>  <SCORE.SYSTEM>
0

>  <SCORE.SYSTEM.CONST>
0

>  <SCORE.SYSTEM.DIHEDRAL>
0

>  <SCORE.SYSTEM.SOLV>
0

>  <SCORE.SYSTEM.norm>
0

>  <SCORE.heavy>
26

>  <SCORE.norm>
-0.972918

>  <RMSD>
3.035

$$$$
ligand
 OpenBabel11021811483D
libRbt.so/2013.1/901 2013/11/27
 26 28  0  0  0  0  0  0  0  0999 V2000
   33.6700   19.7539    8.1268 N   0  0  0  0  0  0  0  0  0  0  0  0
   34.5596   18.6325    8.4016 C   0  0  2  0  0  0  0  0  0  0  0  0
   34.3141   18.0663    9.7955 C   0  0  0  0  0  0  0  0  0  0  0  0
   33.5544   18.6291   10.5830 O   0  0  0  0  0  0  0  0  0  0  0  0
   36.0154   19.0588    8.2598 C   0  0  0  0  0  0  0  0  0  0  0  0
   37.0122   17.9111    8.3540 C   0  0  0  0  0  0  0  0  0  0  0  0
   38.6777   18.3937    7.8329 S   0  0  0  0  0  0  0  0  0  0  0  0
   39.2582   16.7012    8.1098 C   0  0  0  0  0  0  0  0  0  0  0  0
   38.5193   15.6784    7.2546 C   0  0  1  0  0  0  0  0  0  0  0  0
   39.0716   15.6492    5.9511 O   0  0  0  0  0  0  0  0  0  0  0  0
   38.6298   14.2789    7.8374 C   0  0  1  0  0  0  0  0  0  0  0  0
   37.3544   13.8086    8.2039 O   0  0  0  0  0  0  0  0  0  0  0  0
   39.2041   13.4154    6.7335 C   0  0  1  0  0  0  0  0  0  0  0  0
   38.3232   12.3560    6.4400 O   0  0  0  0  0  0  0  0  0  0  0  0
   39.3462   14.3271    5.5268 C   0  0  2  0  0  0  0  0  0  0  0  0
   34.8698   17.0318   10.1668 O   0  0  0  0  0  0  0  0  0  0  0  0
   42.9789   11.2504    3.3122 N   0  0  0  0  0  0  0  0  0  0  0  0
   41.6994   10.9104    3.7030 C   0  0  0  0  0  0  0  0  0  0  0  0
   40.8724   11.8573    4.2743 N   0  0  0  0  0  0  0  0  0  0  0  0
   41.3103   13.1268    4.4573 C   0  0  0  0  0  0  0  0  0  0  0  0
   42.5940   13.4879    4.0713 C   0  0  0  0  0  0  0  0  0  0  0  0
   43.4322   12.5413    3.4949 C   0  0  0  0  0  0  0  0  0  0  0  0
   44.6641   12.8756    3.1222 N   0  0  0  0  0  0  0  0  0  0  0  0
   42.7642   14.7951    4.3651 N   0  0  0  0  0  0  0  0  0  0  0  0
   41.6264   15.2673    4.9245 C   0  0  0  0  0  0  0  0  0  0  0  0
   40.7157   14.2444    4.9882 N   0  0  0  0  0  0  0  0  0  0  0  0
  2  1  1  1  0  0  0
  2  3  1  0  0  0  0
  2  5  1  0  0  0  0
  3  4  1  0  0  0  0
  3 16  1  0  0  0  0
  5  6  1  0  0  0  0
  6  7  1  0  0  0  0
  7  8  1  0  0  0  0
  9  8  1  1  0  0  0
  9 10  1  0  0  0  0
  9 11  1  0  0  0  0
 10 15  1  0  0  0  0
 11 12  1  6  0  0  0
 11 13  1  0  0  0  0
 13 14  1  6  0  0  0
 13 15  1  0  0  0  0
 15 26  1  1  0  0  0
 17 18  2  0  0  0  0
 17 22  1  0  0  0  0
 18 19  1  0  0  0  0
 19 20  2  0  0  0  0
 20 21  1  0  0  0  0
 20 26  1  0  0  0  0
 21 22  2  0  0  0  0
 21 24  1  0  0  0  0
 22 23  1  0  0  0  0
 24 25  2  0  0  0  0
 25 26  1  0  0  0  0
M  END
>  <CHROM.1>
-7.35420687,-172.58876180,167.71129030,-178.00009066,59.80870445,81.49517385
-178.35226909,38.91429009,15.35950328,6.62179141,-2.50318423,-0.54667863
-3.01920593

>  <Name>
ligand

>  <RI>
0

>  <Rbt.Current_Directory>
/home/itssahil/PROJECTS/Mol_Feturizer/New_Systems/rnas/3NPQ

>  <Rbt.Executable>
rbdock ($Id: //depot/dev/client3/rdock/2013.1/src/exe/rbdock.cxx#4 $)

>  <Rbt.Library>
libRbt.so (2013.1, Build901 2013/11/27)

>  <Rbt.Parameter_File>
/export/apps/rDock/src/rDock_2013.1_src/data/scripts/dock_solv.prm

>  <Rbt.Receptor>
prm/pocket_docking_6.prm

>  <SCORE>
-15.6714

>  <SCORE.INTER>
-14.4759

>  <SCORE.INTER.CONST>
1

>  <SCORE.INTER.POLAR>
0

>  <SCORE.INTER.ROT>
7

>  <SCORE.INTER.SOLV>
17.938

>  <SCORE.INTER.VDW>
-23.8966

>  <SCORE.INTER.norm>
-0.556765

>  <SCORE.INTRA>
-1.19554

>  <SCORE.INTRA.DIHEDRAL>
-2.03882

>  <SCORE.INTRA.DIHEDRAL.0>
6.97628

>  <SCORE.INTRA.POLAR>
0

>  <SCORE.INTRA.POLAR.0>
0

>  <SCORE.INTRA.REPUL>
0

>  <SCORE.INTRA.REPUL.0>
0

>  <SCORE.INTRA.SOLV>
-0.772059

>  <SCORE.INTRA.SOLV.lig_0>
-49.8243

>  <SCORE.INTRA.VDW>
0.209904

>  <SCORE.INTRA.VDW.0>
-1.35881

>  <SCORE.INTRA.norm>
-0.0459822

>  <SCORE.RESTR>
0

>  <SCORE.RESTR.CAVITY>
0

>  <SCORE.RESTR.norm>
0

>  <SCORE.SYSTEM>
0

>  <SCORE.SYSTEM.CONST>
0

>  <SCORE.SYSTEM.DIHEDRAL>
0

>  <SCORE.SYSTEM.SOLV>
0

>  <SCORE.SYSTEM.norm>
0

>  <SCORE.heavy>
26

>  <SCORE.norm>
-0.602747

>  <RMSD>
3.115

$$$$
ligand
 OpenBabel11021811483D
libRbt.so/2013.1/901 2013/11/27
 26 28  0  0  0  0  0  0  0  0999 V2000
   35.8770   16.5369    7.4052 N   0  0  0  0  0  0  0  0  0  0  0  0
   36.1711   15.2712    8.0656 C   0  0  2  0  0  0  0  0  0  0  0  0
   35.5879   15.2387    9.4737 C   0  0  0  0  0  0  0  0  0  0  0  0
   35.4889   16.2669   10.1422 O   0  0  0  0  0  0  0  0  0  0  0  0
   37.6750   15.0330    8.1174 C   0  0  0  0  0  0  0  0  0  0  0  0
   38.3462   14.9919    6.7508 C   0  0  0  0  0  0  0  0  0  0  0  0
   38.3401   16.6036    5.9257 S   0  0  0  0  0  0  0  0  0  0  0  0
   39.3218   15.9160    4.5686 C   0  0  0  0  0  0  0  0  0  0  0  0
   40.7993   15.7838    4.9194 C   0  0  1  0  0  0  0  0  0  0  0  0
   41.0433   14.5231    5.5161 O   0  0  0  0  0  0  0  0  0  0  0  0
   41.6784   15.8910    3.6842 C   0  0  1  0  0  0  0  0  0  0  0  0
   42.5081   17.0244    3.7813 O   0  0  0  0  0  0  0  0  0  0  0  0
   42.5199   14.6318    3.6648 C   0  0  1  0  0  0  0  0  0  0  0  0
   43.8887   14.9642    3.6850 O   0  0  0  0  0  0  0  0  0  0  0  0
   42.1488   13.8671    4.9238 C   0  0  2  0  0  0  0  0  0  0  0  0
   35.2013   14.1826    9.9758 O   0  0  0  0  0  0  0  0  0  0  0  0
   38.7705    9.9255    5.7101 N   0  0  0  0  0  0  0  0  0  0  0  0
   38.7543   11.1853    6.2741 C   0  0  0  0  0  0  0  0  0  0  0  0
   39.7320   12.1049    5.9493 N   0  0  0  0  0  0  0  0  0  0  0  0
   40.7156   11.7778    5.0761 C   0  0  0  0  0  0  0  0  0  0  0  0
   40.7493   10.5158    4.4989 C   0  0  0  0  0  0  0  0  0  0  0  0
   39.7686    9.5849    4.8197 C   0  0  0  0  0  0  0  0  0  0  0  0
   39.7913    8.3727    4.2736 N   0  0  0  0  0  0  0  0  0  0  0  0
   41.8211   10.4620    3.6789 N   0  0  0  0  0  0  0  0  0  0  0  0
   42.4629   11.6522    3.7230 C   0  0  0  0  0  0  0  0  0  0  0  0
   41.7891   12.4784    4.5851 N   0  0  0  0  0  0  0  0  0  0  0  0
  2  1  1  1  0  0  0
  2  3  1  0  0  0  0
  2  5  1  0  0  0  0
  3  4  1  0  0  0  0
  3 16  1  0  0  0  0
  5  6  1  0  0  0  0
  6  7  1  0  0  0  0
  7  8  1  0  0  0  0
  9  8  1  6  0  0  0
  9 10  1  0  0  0  0
  9 11  1  0  0  0  0
 10 15  1  0  0  0  0
 11 12  1  1  0  0  0
 11 13  1  0  0  0  0
 13 14  1  1  0  0  0
 13 15  1  0  0  0  0
 15 26  1  6  0  0  0
 17 18  2  0  0  0  0
 17 22  1  0  0  0  0
 18 19  1  0  0  0  0
 19 20  2  0  0  0  0
 20 21  1  0  0  0  0
 20 26  1  0  0  0  0
 21 22  2  0  0  0  0
 21 24  1  0  0  0  0
 22 23  1  0  0  0  0
 24 25  2  0  0  0  0
 25 26  1  0  0  0  0
M  END
>  <CHROM.1>
-31.64611878,-59.22635381,68.07872582,175.75310730,-78.36595409,88.94201844
-17.03120037,39.57397355,13.87888816,5.78260420,-2.66686769,-0.65107849,-3.07445302

>  <Name>
ligand

>  <RI>
0

>  <Rbt.Current_Directory>
/home/itssahil/PROJECTS/Mol_Feturizer/New_Systems/rnas/3NPQ

>  <Rbt.Executable>
rbdock ($Id: //depot/dev/client3/rdock/2013.1/src/exe/rbdock.cxx#4 $)

>  <Rbt.Library>
libRbt.so (2013.1, Build901 2013/11/27)

>  <Rbt.Parameter_File>
/export/apps/rDock/src/rDock_2013.1_src/data/scripts/dock_solv.prm

>  <Rbt.Receptor>
prm/pocket_docking_6.prm

>  <SCORE>
-21.4274

>  <SCORE.INTER>
-20.7636

>  <SCORE.INTER.CONST>
1

>  <SCORE.INTER.POLAR>
0

>  <SCORE.INTER.ROT>
7

>  <SCORE.INTER.SOLV>
17.2924

>  <SCORE.INTER.VDW>
-27.8732

>  <SCORE.INTER.norm>
-0.798598

>  <SCORE.INTRA>
-0.663885

>  <SCORE.INTRA.DIHEDRAL>
-1.02229

>  <SCORE.INTRA.DIHEDRAL.0>
6.97628

>  <SCORE.INTRA.POLAR>
0

>  <SCORE.INTRA.POLAR.0>
0

>  <SCORE.INTRA.REPUL>
0

>  <SCORE.INTRA.REPUL.0>
0

>  <SCORE.INTRA.SOLV>
1.397

>  <SCORE.INTRA.SOLV.lig_0>
-49.8243

>  <SCORE.INTRA.VDW>
-0.85124

>  <SCORE.INTRA.VDW.0>
-1.35881

>  <SCORE.INTRA.norm>
-0.025534

>  <SCORE.RESTR>
0

>  <SCORE.RESTR.CAVITY>
0

>  <SCORE.RESTR.norm>
0

>  <SCORE.SYSTEM>
0

>  <SCORE.SYSTEM.CONST>
0

>  <SCORE.SYSTEM.DIHEDRAL>
0

>  <SCORE.SYSTEM.SOLV>
0

>  <SCORE.SYSTEM.norm>
0

>  <SCORE.heavy>
26

>  <SCORE.norm>
-0.824132

>  <RMSD>
3.142

$$$$
ligand
 OpenBabel11021811483D
libRbt.so/2013.1/901 2013/11/27
 26 28  0  0  0  0  0  0  0  0999 V2000
   36.7083   15.6859    2.9353 N   0  0  0  0  0  0  0  0  0  0  0  0
   36.0883   16.7159    3.7596 C   0  0  2  0  0  0  0  0  0  0  0  0
   36.4015   18.1087    3.2249 C   0  0  0  0  0  0  0  0  0  0  0  0
   36.4877   18.3183    2.0155 O   0  0  0  0  0  0  0  0  0  0  0  0
   36.5538   16.5944    5.2052 C   0  0  0  0  0  0  0  0  0  0  0  0
   35.9785   15.3942    5.9457 C   0  0  0  0  0  0  0  0  0  0  0  0
   36.5065   15.3280    7.6763 S   0  0  0  0  0  0  0  0  0  0  0  0
   37.8173   14.1596    7.2350 C   0  0  0  0  0  0  0  0  0  0  0  0
   39.2058   14.7865    7.2856 C   0  0  1  0  0  0  0  0  0  0  0  0
   40.1951   13.7782    7.1882 O   0  0  0  0  0  0  0  0  0  0  0  0
   39.4210   15.7606    6.1388 C   0  0  1  0  0  0  0  0  0  0  0  0
   39.6150   17.0610    6.6424 O   0  0  0  0  0  0  0  0  0  0  0  0
   40.6705   15.2889    5.4244 C   0  0  1  0  0  0  0  0  0  0  0  0
   41.6387   16.3120    5.4164 O   0  0  0  0  0  0  0  0  0  0  0  0
   41.1758   14.0967    6.2187 C   0  0  2  0  0  0  0  0  0  0  0  0
   36.5753   19.0577    3.9905 O   0  0  0  0  0  0  0  0  0  0  0  0
   39.5286    9.3224    4.7832 N   0  0  0  0  0  0  0  0  0  0  0  0
   39.0042   10.1457    5.7593 C   0  0  0  0  0  0  0  0  0  0  0  0
   39.5702   11.3811    6.0044 N   0  0  0  0  0  0  0  0  0  0  0  0
   40.6454   11.7947    5.2904 C   0  0  0  0  0  0  0  0  0  0  0  0
   41.1875   10.9809    4.3050 C   0  0  0  0  0  0  0  0  0  0  0  0
   40.6233    9.7365    4.0514 C   0  0  0  0  0  0  0  0  0  0  0  0
   41.1347    8.9481    3.1106 N   0  0  0  0  0  0  0  0  0  0  0  0
   42.2369   11.6322    3.7586 N   0  0  0  0  0  0  0  0  0  0  0  0
   42.3716   12.8312    4.3707 C   0  0  0  0  0  0  0  0  0  0  0  0
   41.3918   12.9463    5.3228 N   0  0  0  0  0  0  0  0  0  0  0  0
  2  1  1  6  0  0  0
  2  3  1  0  0  0  0
  2  5  1  0  0  0  0
  3  4  1  0  0  0  0
  3 16  1  0  0  0  0
  5  6  1  0  0  0  0
  6  7  1  0  0  0  0
  7  8  1  0  0  0  0
  9  8  1  6  0  0  0
  9 10  1  0  0  0  0
  9 11  1  0  0  0  0
 10 15  1  0  0  0  0
 11 12  1  1  0  0  0
 11 13  1  0  0  0  0
 13 14  1  1  0  0  0
 13 15  1  0  0  0  0
 15 26  1  6  0  0  0
 17 18  2  0  0  0  0
 17 22  1  0  0  0  0
 18 19  1  0  0  0  0
 19 20  2  0  0  0  0
 20 21  1  0  0  0  0
 20 26  1  0  0  0  0
 21 22  2  0  0  0  0
 21 24  1  0  0  0  0
 22 23  1  0  0  0  0
 24 25  2  0  0  0  0
 25 26  1  0  0  0  0
M  END
>  <CHROM.1>
35.58362388,-71.98303950,-177.71383536,-97.20359047,107.77665476,168.72943374
8.30024254,39.01649568,14.25986111,5.25026386,-3.11715158,-1.00218663,1.59317462

>  <Name>
ligand

>  <RI>
0

>  <Rbt.Current_Directory>
/home/itssahil/PROJECTS/Mol_Feturizer/New_Systems/rnas/3NPQ

>  <Rbt.Executable>
rbdock ($Id: //depot/dev/client3/rdock/2013.1/src/exe/rbdock.cxx#4 $)

>  <Rbt.Library>
libRbt.so (2013.1, Build901 2013/11/27)

>  <Rbt.Parameter_File>
/export/apps/rDock/src/rDock_2013.1_src/data/scripts/dock_solv.prm

>  <Rbt.Receptor>
prm/pocket_docking_5.prm

>  <SCORE>
-21.9059

>  <SCORE.INTER>
-21.412

>  <SCORE.INTER.CONST>
1

>  <SCORE.INTER.POLAR>
0

>  <SCORE.INTER.ROT>
7

>  <SCORE.INTER.SOLV>
19.1568

>  <SCORE.INTER.VDW>
-28.9269

>  <SCORE.INTER.norm>
-0.823537

>  <SCORE.INTRA>
-0.493994

>  <SCORE.INTRA.DIHEDRAL>
0.529847

>  <SCORE.INTRA.DIHEDRAL.0>
6.97628

>  <SCORE.INTRA.POLAR>
0

>  <SCORE.INTRA.POLAR.0>
0

>  <SCORE.INTRA.REPUL>
0

>  <SCORE.INTRA.REPUL.0>
0

>  <SCORE.INTRA.SOLV>
0.378843

>  <SCORE.INTRA.SOLV.lig_0>
-49.8243

>  <SCORE.INTRA.VDW>
-0.948339

>  <SCORE.INTRA.VDW.0>
-1.35881

>  <SCORE.INTRA.norm>
-0.0189998

>  <SCORE.RESTR>
0

>  <SCORE.RESTR.CAVITY>
0

>  <SCORE.RESTR.norm>
0

>  <SCORE.SYSTEM>
0

>  <SCORE.SYSTEM.CONST>
0

>  <SCORE.SYSTEM.DIHEDRAL>
0

>  <SCORE.SYSTEM.SOLV>
0

>  <SCORE.SYSTEM.norm>
0

>  <SCORE.heavy>
26

>  <SCORE.norm>
-0.842536

>  <RMSD>
3.295

$$$$
ligand
 OpenBabel11021811483D
libRbt.so/2013.1/901 2013/11/27
 26 28  0  0  0  0  0  0  0  0999 V2000
   36.2620   16.2352    6.6912 N   0  0  0  0  0  0  0  0  0  0  0  0
   35.8829   15.2559    7.7020 C   0  0  2  0  0  0  0  0  0  0  0  0
   34.9610   15.8745    8.7468 C   0  0  0  0  0  0  0  0  0  0  0  0
   35.0669   15.5824    9.9373 O   0  0  0  0  0  0  0  0  0  0  0  0
   37.1210   14.6770    8.3751 C   0  0  0  0  0  0  0  0  0  0  0  0
   37.9998   13.8440    7.4512 C   0  0  0  0  0  0  0  0  0  0  0  0
   38.9426   14.8607    6.2868 S   0  0  0  0  0  0  0  0  0  0  0  0
   40.0212   13.4521    5.9253 C   0  0  0  0  0  0  0  0  0  0  0  0
   41.3413   13.8701    5.2882 C   0  0  1  0  0  0  0  0  0  0  0  0
   42.1402   12.7281    5.0380 O   0  0  0  0  0  0  0  0  0  0  0  0
   41.1214   14.5824    3.9636 C   0  0  1  0  0  0  0  0  0  0  0  0
   41.5831   15.9098    4.0489 O   0  0  0  0  0  0  0  0  0  0  0  0
   41.9340   13.8149    2.9414 C   0  0  1  0  0  0  0  0  0  0  0  0
   42.8716   14.6689    2.3284 O   0  0  0  0  0  0  0  0  0  0  0  0
   42.6501   12.7231    3.7177 C   0  0  2  0  0  0  0  0  0  0  0  0
   34.0885   16.6817    8.4243 O   0  0  0  0  0  0  0  0  0  0  0  0
   39.9162    8.2440    3.8929 N   0  0  0  0  0  0  0  0  0  0  0  0
   39.8389    9.3222    4.7514 C   0  0  0  0  0  0  0  0  0  0  0  0
   40.6412   10.4283    4.5521 N   0  0  0  0  0  0  0  0  0  0  0  0
   41.5115   10.4639    3.5137 C   0  0  0  0  0  0  0  0  0  0  0  0
   41.6041    9.3893    2.6398 C   0  0  0  0  0  0  0  0  0  0  0  0
   40.7997    8.2726    2.8328 C   0  0  0  0  0  0  0  0  0  0  0  0
   40.8806    7.2371    2.0026 N   0  0  0  0  0  0  0  0  0  0  0  0
   42.5371    9.6885    1.7102 N   0  0  0  0  0  0  0  0  0  0  0  0
   43.0344   10.9190    1.9731 C   0  0  0  0  0  0  0  0  0  0  0  0
   42.4080   11.4124    3.0885 N   0  0  0  0  0  0  0  0  0  0  0  0
  2  1  1  6  0  0  0
  2  3  1  0  0  0  0
  2  5  1  0  0  0  0
  3  4  1  0  0  0  0
  3 16  1  0  0  0  0
  5  6  1  0  0  0  0
  6  7  1  0  0  0  0
  7  8  1  0  0  0  0
  9  8  1  6  0  0  0
  9 10  1  0  0  0  0
  9 11  1  0  0  0  0
 10 15  1  0  0  0  0
 11 12  1  1  0  0  0
 11 13  1  0  0  0  0
 13 14  1  1  0  0  0
 13 15  1  0  0  0  0
 15 26  1  6  0  0  0
 17 18  2  0  0  0  0
 17 22  1  0  0  0  0
 18 19  1  0  0  0  0
 19 20  2  0  0  0  0
 20 21  1  0  0  0  0
 20 26  1  0  0  0  0
 21 22  2  0  0  0  0
 21 24  1  0  0  0  0
 22 23  1  0  0  0  0
 24 25  2  0  0  0  0
 25 26  1  0  0  0  0
M  END
>  <CHROM.1>
-141.14081268,-66.09232160,74.09415153,164.42890391,-161.16302409,179.65931791
17.57680989,39.80329141,12.91174905,5.03951163,-2.40566019,-0.61327831,-2.93425426

>  <Name>
ligand

>  <RI>
0

>  <Rbt.Current_Directory>
/home/itssahil/PROJECTS/Mol_Feturizer/New_Systems/rnas/3NPQ

>  <Rbt.Executable>
rbdock ($Id: //depot/dev/client3/rdock/2013.1/src/exe/rbdock.cxx#4 $)

>  <Rbt.Library>
libRbt.so (2013.1, Build901 2013/11/27)

>  <Rbt.Parameter_File>
/export/apps/rDock/src/rDock_2013.1_src/data/scripts/dock_solv.prm

>  <Rbt.Receptor>
prm/pocket_docking_6.prm

>  <SCORE>
-21.7743

>  <SCORE.INTER>
-20.6405

>  <SCORE.INTER.CONST>
1

>  <SCORE.INTER.POLAR>
0

>  <SCORE.INTER.ROT>
7

>  <SCORE.INTER.SOLV>
16.7248

>  <SCORE.INTER.VDW>
-27.6019

>  <SCORE.INTER.norm>
-0.793864

>  <SCORE.INTRA>
-1.13387

>  <SCORE.INTRA.DIHEDRAL>
-2.52034

>  <SCORE.INTRA.DIHEDRAL.0>
6.97628

>  <SCORE.INTRA.POLAR>
0

>  <SCORE.INTRA.POLAR.0>
0

>  <SCORE.INTRA.REPUL>
0

>  <SCORE.INTRA.REPUL.0>
0

>  <SCORE.INTRA.SOLV>
1.10515

>  <SCORE.INTRA.SOLV.lig_0>
-49.8243

>  <SCORE.INTRA.VDW>
-0.426276

>  <SCORE.INTRA.VDW.0>
-1.35881

>  <SCORE.INTRA.norm>
-0.0436103

>  <SCORE.RESTR>
0

>  <SCORE.RESTR.CAVITY>
0

>  <SCORE.RESTR.norm>
0

>  <SCORE.SYSTEM>
0

>  <SCORE.SYSTEM.CONST>
0

>  <SCORE.SYSTEM.DIHEDRAL>
0

>  <SCORE.SYSTEM.SOLV>
0

>  <SCORE.SYSTEM.norm>
0

>  <SCORE.heavy>
26

>  <SCORE.norm>
-0.837474

>  <RMSD>
3.410

$$$$
ligand
 OpenBabel11021811483D
libRbt.so/2013.1/901 2013/11/27
 26 28  0  0  0  0  0  0  0  0999 V2000
   35.9222   16.1111    6.9056 N   0  0  0  0  0  0  0  0  0  0  0  0
   36.1336   15.0458    7.8777 C   0  0  2  0  0  0  0  0  0  0  0  0
   35.6545   15.4643    9.2631 C   0  0  0  0  0  0  0  0  0  0  0  0
   35.7366   16.6342    9.6350 O   0  0  0  0  0  0  0  0  0  0  0  0
   37.6053   14.6552    7.9298 C   0  0  0  0  0  0  0  0  0  0  0  0
   38.0696   13.8183    6.7450 C   0  0  0  0  0  0  0  0  0  0  0  0
   39.8256   13.3882    6.8446 S   0  0  0  0  0  0  0  0  0  0  0  0
   40.1928   14.5675    5.5207 C   0  0  0  0  0  0  0  0  0  0  0  0
   41.6781   14.6310    5.1845 C   0  0  1  0  0  0  0  0  0  0  0  0
   42.2464   13.3363    5.2600 O   0  0  0  0  0  0  0  0  0  0  0  0
   41.9104   15.1590    3.7782 C   0  0  1  0  0  0  0  0  0  0  0  0
   42.6178   16.3751    3.8319 O   0  0  0  0  0  0  0  0  0  0  0  0
   42.7403   14.1064    3.0731 C   0  0  1  0  0  0  0  0  0  0  0  0
   43.9504   14.6675    2.6202 O   0  0  0  0  0  0  0  0  0  0  0  0
   43.0177   13.0338    4.1124 C   0  0  2  0  0  0  0  0  0  0  0  0
   35.1733   14.6415   10.0430 O   0  0  0  0  0  0  0  0  0  0  0  0
   39.6904    8.9881    4.4709 N   0  0  0  0  0  0  0  0  0  0  0  0
   39.7042   10.1474    5.2201 C   0  0  0  0  0  0  0  0  0  0  0  0
   40.6619   11.1144    4.9868 N   0  0  0  0  0  0  0  0  0  0  0  0
   41.5965   10.9328    4.0221 C   0  0  0  0  0  0  0  0  0  0  0  0
   41.5995    9.7734    3.2586 C   0  0  0  0  0  0  0  0  0  0  0  0
   40.6385    8.7957    3.4865 C   0  0  0  0  0  0  0  0  0  0  0  0
   40.6322    7.6807    2.7619 N   0  0  0  0  0  0  0  0  0  0  0  0
   42.6248    9.8546    2.3833 N   0  0  0  0  0  0  0  0  0  0  0  0
   43.2672   11.0299    2.5733 C   0  0  0  0  0  0  0  0  0  0  0  0
   42.6410   11.7094    3.5862 N   0  0  0  0  0  0  0  0  0  0  0  0
  2  1  1  6  0  0  0
  2  3  1  0  0  0  0
  2  5  1  0  0  0  0
  3  4  1  0  0  0  0
  3 16  1  0  0  0  0
  5  6  1  0  0  0  0
  6  7  1  0  0  0  0
  7  8  1  0  0  0  0
  9  8  1  6  0  0  0
  9 10  1  0  0  0  0
  9 11  1  0  0  0  0
 10 15  1  0  0  0  0
 11 12  1  1  0  0  0
 11 13  1  0  0  0  0
 13 14  1  1  0  0  0
 13 15  1  0  0  0  0
 15 26  1  6  0  0  0
 17 18  2  0  0  0  0
 17 22  1  0  0  0  0
 18 19  1  0  0  0  0
 19 20  2  0  0  0  0
 20 21  1  0  0  0  0
 20 26  1  0  0  0  0
 21 22  2  0  0  0  0
 21 24  1  0  0  0  0
 22 23  1  0  0  0  0
 24 25  2  0  0  0  0
 25 26  1  0  0  0  0
M  END
>  <CHROM.1>
-33.25126334,-75.35047776,179.60660409,-107.13114278,179.10716514,37.82454099
7.27844016,40.16881527,13.03288206,5.33762963,-2.50245978,-0.61793181,-2.90140436

>  <Name>
ligand

>  <RI>
0

>  <Rbt.Current_Directory>
/home/itssahil/PROJECTS/Mol_Feturizer/New_Systems/rnas/3NPQ

>  <Rbt.Executable>
rbdock ($Id: //depot/dev/client3/rdock/2013.1/src/exe/rbdock.cxx#4 $)

>  <Rbt.Library>
libRbt.so (2013.1, Build901 2013/11/27)

>  <Rbt.Parameter_File>
/export/apps/rDock/src/rDock_2013.1_src/data/scripts/dock_solv.prm

>  <Rbt.Receptor>
prm/pocket_docking_8.prm

>  <SCORE>
-24.1449

>  <SCORE.INTER>
-22.7274

>  <SCORE.INTER.CONST>
1

>  <SCORE.INTER.POLAR>
0

>  <SCORE.INTER.ROT>
7

>  <SCORE.INTER.SOLV>
16.4157

>  <SCORE.INTER.VDW>
-28.8901

>  <SCORE.INTER.norm>
-0.874129

>  <SCORE.INTRA>
-1.41754

>  <SCORE.INTRA.DIHEDRAL>
0.328427

>  <SCORE.INTRA.DIHEDRAL.0>
6.97628

>  <SCORE.INTRA.POLAR>
0

>  <SCORE.INTRA.POLAR.0>
0

>  <SCORE.INTRA.REPUL>
0

>  <SCORE.INTRA.REPUL.0>
0

>  <SCORE.INTRA.SOLV>
-0.192853

>  <SCORE.INTRA.SOLV.lig_0>
-49.8243

>  <SCORE.INTRA.VDW>
-1.48533

>  <SCORE.INTRA.VDW.0>
-1.35881

>  <SCORE.INTRA.norm>
-0.0545208

>  <SCORE.RESTR>
0

>  <SCORE.RESTR.CAVITY>
0

>  <SCORE.RESTR.norm>
0

>  <SCORE.SYSTEM>
0

>  <SCORE.SYSTEM.CONST>
0

>  <SCORE.SYSTEM.DIHEDRAL>
0

>  <SCORE.SYSTEM.SOLV>
0

>  <SCORE.SYSTEM.norm>
0

>  <SCORE.heavy>
26

>  <SCORE.norm>
-0.92865

>  <RMSD>
3.453

$$$$
ligand
 OpenBabel11021811483D
libRbt.so/2013.1/901 2013/11/27
 26 28  0  0  0  0  0  0  0  0999 V2000
   35.6336   22.4388    5.2682 N   0  0  0  0  0  0  0  0  0  0  0  0
   35.5030   21.2405    6.0878 C   0  0  2  0  0  0  0  0  0  0  0  0
   34.3931   21.4005    7.1205 C   0  0  0  0  0  0  0  0  0  0  0  0
   33.9427   20.4265    7.7223 O   0  0  0  0  0  0  0  0  0  0  0  0
   36.8211   20.9228    6.7826 C   0  0  0  0  0  0  0  0  0  0  0  0
   36.7930   19.6504    7.6193 C   0  0  0  0  0  0  0  0  0  0  0  0
   38.3881   19.2974    8.3998 S   0  0  0  0  0  0  0  0  0  0  0  0
   38.7058   18.0044    7.1729 C   0  0  0  0  0  0  0  0  0  0  0  0
   37.7033   16.8590    7.2520 C   0  0  1  0  0  0  0  0  0  0  0  0
   37.8455   16.0136    6.1250 O   0  0  0  0  0  0  0  0  0  0  0  0
   37.9182   16.0137    8.4969 C   0  0  1  0  0  0  0  0  0  0  0  0
   36.7875   16.0919    9.3323 O   0  0  0  0  0  0  0  0  0  0  0  0
   38.1030   14.5930    8.0053 C   0  0  1  0  0  0  0  0  0  0  0  0
   37.1286   13.7522    8.5778 O   0  0  0  0  0  0  0  0  0  0  0  0
   37.9240   14.6504    6.4979 C   0  0  2  0  0  0  0  0  0  0  0  0
   33.9209   22.5086    7.3775 O   0  0  0  0  0  0  0  0  0  0  0  0
   40.2382   10.1176    5.2076 N   0  0  0  0  0  0  0  0  0  0  0  0
   39.0633   10.3040    5.9077 C   0  0  0  0  0  0  0  0  0  0  0  0
   38.5986   11.5799    6.1587 N   0  0  0  0  0  0  0  0  0  0  0  0
   39.2926   12.6589    5.7214 C   0  0  0  0  0  0  0  0  0  0  0  0
   40.4766   12.4919    5.0161 C   0  0  0  0  0  0  0  0  0  0  0  0
   40.9506   11.2112    4.7586 C   0  0  0  0  0  0  0  0  0  0  0  0
   42.0840   11.0393    4.0848 N   0  0  0  0  0  0  0  0  0  0  0  0
   40.9521   13.7174    4.7059 N   0  0  0  0  0  0  0  0  0  0  0  0
   40.1031   14.6503    5.1949 C   0  0  0  0  0  0  0  0  0  0  0  0
   39.0692   14.0091    5.8272 N   0  0  0  0  0  0  0  0  0  0  0  0
  2  1  1  1  0  0  0
  2  3  1  0  0  0  0
  2  5  1  0  0  0  0
  3  4  1  0  0  0  0
  3 16  1  0  0  0  0
  5  6  1  0  0  0  0
  6  7  1  0  0  0  0
  7  8  1  0  0  0  0
  9  8  1  6  0  0  0
  9 10  1  0  0  0  0
  9 11  1  0  0  0  0
 10 15  1  0  0  0  0
 11 12  1  1  0  0  0
 11 13  1  0  0  0  0
 13 14  1  1  0  0  0
 13 15  1  0  0  0  0
 15 26  1  6  0  0  0
 17 18  2  0  0  0  0
 17 22  1  0  0  0  0
 18 19  1  0  0  0  0
 19 20  2  0  0  0  0
 20 21  1  0  0  0  0
 20 26  1  0  0  0  0
 21 22  2  0  0  0  0
 21 24  1  0  0  0  0
 22 23  1  0  0  0  0
 24 25  2  0  0  0  0
 25 26  1  0  0  0  0
M  END
>  <CHROM.1>
165.21850156,-177.66711113,178.92679216,-103.80681512,-63.52835052,169.14759763
-165.35295931,37.95027823,16.25433969,6.69771169,-2.29106644,-0.85629256
2.74724604

>  <Name>
ligand

>  <RI>
0

>  <Rbt.Current_Directory>
/home/itssahil/PROJECTS/Mol_Feturizer/New_Systems/rnas/3NPQ

>  <Rbt.Executable>
rbdock ($Id: //depot/dev/client3/rdock/2013.1/src/exe/rbdock.cxx#4 $)

>  <Rbt.Library>
libRbt.so (2013.1, Build901 2013/11/27)

>  <Rbt.Parameter_File>
/export/apps/rDock/src/rDock_2013.1_src/data/scripts/dock_solv.prm

>  <Rbt.Receptor>
prm/pocket_docking_5.prm

>  <SCORE>
-21.8227

>  <SCORE.INTER>
-20.5835

>  <SCORE.INTER.CONST>
1

>  <SCORE.INTER.POLAR>
0

>  <SCORE.INTER.ROT>
7

>  <SCORE.INTER.SOLV>
18.7249

>  <SCORE.INTER.VDW>
-28.2307

>  <SCORE.INTER.norm>
-0.791674

>  <SCORE.INTRA>
-1.23916

>  <SCORE.INTRA.DIHEDRAL>
-1.85783

>  <SCORE.INTRA.DIHEDRAL.0>
6.97628

>  <SCORE.INTRA.POLAR>
0

>  <SCORE.INTRA.POLAR.0>
0

>  <SCORE.INTRA.REPUL>
0

>  <SCORE.INTRA.REPUL.0>
0

>  <SCORE.INTRA.SOLV>
-0.668016

>  <SCORE.INTRA.SOLV.lig_0>
-49.8243

>  <SCORE.INTRA.VDW>
0.0237662

>  <SCORE.INTRA.VDW.0>
-1.35881

>  <SCORE.INTRA.norm>
-0.0476599

>  <SCORE.RESTR>
0

>  <SCORE.RESTR.CAVITY>
0

>  <SCORE.RESTR.norm>
0

>  <SCORE.SYSTEM>
0

>  <SCORE.SYSTEM.CONST>
0

>  <SCORE.SYSTEM.DIHEDRAL>
0

>  <SCORE.SYSTEM.SOLV>
0

>  <SCORE.SYSTEM.norm>
0

>  <SCORE.heavy>
26

>  <SCORE.norm>
-0.839334

>  <RMSD>
3.603

$$$$
ligand
 OpenBabel11021811483D
libRbt.so/2013.1/901 2013/11/27
 26 28  0  0  0  0  0  0  0  0999 V2000
   34.2635   16.3861    7.6491 N   0  0  0  0  0  0  0  0  0  0  0  0
   34.7600   16.0137    8.9680 C   0  0  2  0  0  0  0  0  0  0  0  0
   35.2960   17.2293    9.7157 C   0  0  0  0  0  0  0  0  0  0  0  0
   36.0979   17.9966    9.1846 O   0  0  0  0  0  0  0  0  0  0  0  0
   35.8466   14.9525    8.8492 C   0  0  0  0  0  0  0  0  0  0  0  0
   36.9753   15.3214    7.8954 C   0  0  0  0  0  0  0  0  0  0  0  0
   38.0235   13.9048    7.4794 S   0  0  0  0  0  0  0  0  0  0  0  0
   39.2456   15.0207    6.7450 C   0  0  0  0  0  0  0  0  0  0  0  0
   40.6665   14.4759    6.8310 C   0  0  1  0  0  0  0  0  0  0  0  0
   40.8494   13.4497    5.8727 O   0  0  0  0  0  0  0  0  0  0  0  0
   41.6974   15.5582    6.5551 C   0  0  1  0  0  0  0  0  0  0  0  0
   42.4905   15.7698    7.6990 O   0  0  0  0  0  0  0  0  0  0  0  0
   42.5528   15.0349    5.4200 C   0  0  1  0  0  0  0  0  0  0  0  0
   43.9022   14.9733    5.8195 O   0  0  0  0  0  0  0  0  0  0  0  0
   42.0323   13.6399    5.1190 C   0  0  2  0  0  0  0  0  0  0  0  0
   34.9389   17.4727   10.8690 O   0  0  0  0  0  0  0  0  0  0  0  0
   39.7925   15.8349    0.9080 N   0  0  0  0  0  0  0  0  0  0  0  0
   39.8497   16.3286    2.1958 C   0  0  0  0  0  0  0  0  0  0  0  0
   40.4864   15.6098    3.1881 N   0  0  0  0  0  0  0  0  0  0  0  0
   41.0586   14.4138    2.9065 C   0  0  0  0  0  0  0  0  0  0  0  0
   41.0110   13.9003    1.6176 C   0  0  0  0  0  0  0  0  0  0  0  0
   40.3730   14.6179    0.6130 C   0  0  0  0  0  0  0  0  0  0  0  0
   40.3205   14.1354   -0.6250 N   0  0  0  0  0  0  0  0  0  0  0  0
   41.6515   12.7113    1.6198 N   0  0  0  0  0  0  0  0  0  0  0  0
   42.1004   12.4610    2.8713 C   0  0  0  0  0  0  0  0  0  0  0  0
   41.7403   13.5079    3.6803 N   0  0  0  0  0  0  0  0  0  0  0  0
  2  1  1  6  0  0  0
  2  3  1  0  0  0  0
  2  5  1  0  0  0  0
  3  4  1  0  0  0  0
  3 16  1  0  0  0  0
  5  6  1  0  0  0  0
  6  7  1  0  0  0  0
  7  8  1  0  0  0  0
  9  8  1  6  0  0  0
  9 10  1  0  0  0  0
  9 11  1  0  0  0  0
 10 15  1  0  0  0  0
 11 12  1  1  0  0  0
 11 13  1  0  0  0  0
 13 14  1  1  0  0  0
 13 15  1  0  0  0  0
 15 26  1  6  0  0  0
 17 18  2  0  0  0  0
 17 22  1  0  0  0  0
 18 19  1  0  0  0  0
 19 20  2  0  0  0  0
 20 21  1  0  0  0  0
 20 26  1  0  0  0  0
 21 22  2  0  0  0  0
 21 24  1  0  0  0  0
 22 23  1  0  0  0  0
 24 25  2  0  0  0  0
 25 26  1  0  0  0  0
M  END
>  <CHROM.1>
-50.09959882,52.59972855,-166.33872668,-167.83252301,150.85268396,75.52570389
72.52614355,39.44555198,15.00529392,5.58924431,2.27352300,-0.25142918,1.46312810

>  <Name>
ligand

>  <RI>
0

>  <Rbt.Current_Directory>
/home/itssahil/PROJECTS/Mol_Feturizer/New_Systems/rnas/3NPQ

>  <Rbt.Executable>
rbdock ($Id: //depot/dev/client3/rdock/2013.1/src/exe/rbdock.cxx#4 $)

>  <Rbt.Library>
libRbt.so (2013.1, Build901 2013/11/27)

>  <Rbt.Parameter_File>
/export/apps/rDock/src/rDock_2013.1_src/data/scripts/dock_solv.prm

>  <Rbt.Receptor>
prm/pocket_docking_8.prm

>  <SCORE>
-15.5905

>  <SCORE.INTER>
-13.8644

>  <SCORE.INTER.CONST>
1

>  <SCORE.INTER.POLAR>
0

>  <SCORE.INTER.ROT>
7

>  <SCORE.INTER.SOLV>
14.1115

>  <SCORE.INTER.VDW>
-22.2134

>  <SCORE.INTER.norm>
-0.533247

>  <SCORE.INTRA>
-1.72608

>  <SCORE.INTRA.DIHEDRAL>
-1.19449

>  <SCORE.INTRA.DIHEDRAL.0>
6.97628

>  <SCORE.INTRA.POLAR>
0

>  <SCORE.INTRA.POLAR.0>
0

>  <SCORE.INTRA.REPUL>
0

>  <SCORE.INTRA.REPUL.0>
0

>  <SCORE.INTRA.SOLV>
-0.167134

>  <SCORE.INTRA.SOLV.lig_0>
-49.8243

>  <SCORE.INTRA.VDW>
-1.04527

>  <SCORE.INTRA.VDW.0>
-1.35881

>  <SCORE.INTRA.norm>
-0.0663876

>  <SCORE.RESTR>
0

>  <SCORE.RESTR.CAVITY>
0

>  <SCORE.RESTR.norm>
0

>  <SCORE.SYSTEM>
0

>  <SCORE.SYSTEM.CONST>
0

>  <SCORE.SYSTEM.DIHEDRAL>
0

>  <SCORE.SYSTEM.SOLV>
0

>  <SCORE.SYSTEM.norm>
0

>  <SCORE.heavy>
26

>  <SCORE.norm>
-0.599635

>  <RMSD>
3.713

$$$$
ligand
 OpenBabel11021811483D
libRbt.so/2013.1/901 2013/11/27
 26 28  0  0  0  0  0  0  0  0999 V2000
   35.3246   18.0523    7.5612 N   0  0  0  0  0  0  0  0  0  0  0  0
   34.5949   17.5791    8.7308 C   0  0  2  0  0  0  0  0  0  0  0  0
   33.9098   18.7331    9.4540 C   0  0  0  0  0  0  0  0  0  0  0  0
   33.7594   19.8242    8.9055 O   0  0  0  0  0  0  0  0  0  0  0  0
   35.5313   16.8475    9.6842 C   0  0  0  0  0  0  0  0  0  0  0  0
   36.0917   15.5447    9.1289 C   0  0  0  0  0  0  0  0  0  0  0  0
   37.1440   15.8040    7.6784 S   0  0  0  0  0  0  0  0  0  0  0  0
   37.8649   14.1585    7.9033 C   0  0  0  0  0  0  0  0  0  0  0  0
   38.2117   13.4825    6.5819 C   0  0  1  0  0  0  0  0  0  0  0  0
   39.0842   14.3075    5.8314 O   0  0  0  0  0  0  0  0  0  0  0  0
   38.9080   12.1494    6.8023 C   0  0  1  0  0  0  0  0  0  0  0  0
   38.1172   11.1033    6.2899 O   0  0  0  0  0  0  0  0  0  0  0  0
   40.2141   12.2340    6.0402 C   0  0  1  0  0  0  0  0  0  0  0  0
   40.2843   11.2018    5.0842 O   0  0  0  0  0  0  0  0  0  0  0  0
   40.2030   13.5868    5.3493 C   0  0  2  0  0  0  0  0  0  0  0  0
   33.4900   18.6008   10.6042 O   0  0  0  0  0  0  0  0  0  0  0  0
   45.3219   14.1096    4.3049 N   0  0  0  0  0  0  0  0  0  0  0  0
   44.4278   13.2144    3.7527 C   0  0  0  0  0  0  0  0  0  0  0  0
   43.1052   13.2187    4.1495 N   0  0  0  0  0  0  0  0  0  0  0  0
   42.6746   14.1000    5.0849 C   0  0  0  0  0  0  0  0  0  0  0  0
   43.5586   15.0076    5.6522 C   0  0  0  0  0  0  0  0  0  0  0  0
   44.8911   15.0105    5.2577 C   0  0  0  0  0  0  0  0  0  0  0  0
   45.7470   15.8747    5.7950 N   0  0  0  0  0  0  0  0  0  0  0  0
   42.8717   15.7565    6.5418 N   0  0  0  0  0  0  0  0  0  0  0  0
   41.5822   15.3473    6.5514 C   0  0  0  0  0  0  0  0  0  0  0  0
   41.4447   14.3207    5.6530 N   0  0  0  0  0  0  0  0  0  0  0  0
  2  1  1  6  0  0  0
  2  3  1  0  0  0  0
  2  5  1  0  0  0  0
  3  4  1  0  0  0  0
  3 16  1  0  0  0  0
  5  6  1  0  0  0  0
  6  7  1  0  0  0  0
  7  8  1  0  0  0  0
  9  8  1  1  0  0  0
  9 10  1  0  0  0  0
  9 11  1  0  0  0  0
 10 15  1  0  0  0  0
 11 12  1  6  0  0  0
 11 13  1  0  0  0  0
 13 14  1  6  0  0  0
 13 15  1  0  0  0  0
 15 26  1  1  0  0  0
 17 18  2  0  0  0  0
 17 22  1  0  0  0  0
 18 19  1  0  0  0  0
 19 20  2  0  0  0  0
 20 21  1  0  0  0  0
 20 26  1  0  0  0  0
 21 22  2  0  0  0  0
 21 24  1  0  0  0  0
 22 23  1  0  0  0  0
 24 25  2  0  0  0  0
 25 26  1  0  0  0  0
M  END
>  <CHROM.1>
15.80357406,-66.39737659,63.99674382,161.91976165,145.75091124,56.24625176
-163.92909279,39.30854100,15.01616247,6.79456780,-2.65663412,-0.31288854
-2.86146811

>  <Name>
ligand

>  <RI>
0

>  <Rbt.Current_Directory>
/home/itssahil/PROJECTS/Mol_Feturizer/New_Systems/rnas/3NPQ

>  <Rbt.Executable>
rbdock ($Id: //depot/dev/client3/rdock/2013.1/src/exe/rbdock.cxx#4 $)

>  <Rbt.Library>
libRbt.so (2013.1, Build901 2013/11/27)

>  <Rbt.Parameter_File>
/export/apps/rDock/src/rDock_2013.1_src/data/scripts/dock_solv.prm

>  <Rbt.Receptor>
prm/pocket_docking_7.prm

>  <SCORE>
-23.2433

>  <SCORE.INTER>
-22.4435

>  <SCORE.INTER.CONST>
1

>  <SCORE.INTER.POLAR>
0

>  <SCORE.INTER.ROT>
7

>  <SCORE.INTER.SOLV>
12.7888

>  <SCORE.INTER.VDW>
-27.4919

>  <SCORE.INTER.norm>
-0.863211

>  <SCORE.INTRA>
-0.799854

>  <SCORE.INTRA.DIHEDRAL>
-2.06248

>  <SCORE.INTRA.DIHEDRAL.0>
6.97628

>  <SCORE.INTRA.POLAR>
0

>  <SCORE.INTRA.POLAR.0>
0

>  <SCORE.INTRA.REPUL>
0

>  <SCORE.INTRA.REPUL.0>
0

>  <SCORE.INTRA.SOLV>
1.13107

>  <SCORE.INTRA.SOLV.lig_0>
-49.8243

>  <SCORE.INTRA.VDW>
-0.334152

>  <SCORE.INTRA.VDW.0>
-1.35881

>  <SCORE.INTRA.norm>
-0.0307636

>  <SCORE.RESTR>
0

>  <SCORE.RESTR.CAVITY>
0

>  <SCORE.RESTR.norm>
0

>  <SCORE.SYSTEM>
0

>  <SCORE.SYSTEM.CONST>
0

>  <SCORE.SYSTEM.DIHEDRAL>
0

>  <SCORE.SYSTEM.SOLV>
0

>  <SCORE.SYSTEM.norm>
0

>  <SCORE.heavy>
26

>  <SCORE.norm>
-0.893974

>  <RMSD>
3.955

$$$$
ligand
 OpenBabel11021811483D
libRbt.so/2013.1/901 2013/11/27
 26 28  0  0  0  0  0  0  0  0999 V2000
   38.0910   20.8610    3.1538 N   0  0  0  0  0  0  0  0  0  0  0  0
   37.3603   19.7204    3.6919 C   0  0  2  0  0  0  0  0  0  0  0  0
   38.0645   19.1455    4.9157 C   0  0  0  0  0  0  0  0  0  0  0  0
   39.2424   18.7943    4.8618 O   0  0  0  0  0  0  0  0  0  0  0  0
   37.1966   18.6416    2.6286 C   0  0  0  0  0  0  0  0  0  0  0  0
   36.4212   17.4176    3.0978 C   0  0  0  0  0  0  0  0  0  0  0  0
   37.4708   16.2182    3.9569 S   0  0  0  0  0  0  0  0  0  0  0  0
   36.0719   15.7369    5.0007 C   0  0  0  0  0  0  0  0  0  0  0  0
   36.5032   15.2847    6.3910 C   0  0  1  0  0  0  0  0  0  0  0  0
   37.1334   14.0190    6.3135 O   0  0  0  0  0  0  0  0  0  0  0  0
   37.4908   16.2580    7.0136 C   0  0  1  0  0  0  0  0  0  0  0  0
   36.9340   16.8330    8.1718 O   0  0  0  0  0  0  0  0  0  0  0  0
   38.7093   15.4350    7.3769 C   0  0  1  0  0  0  0  0  0  0  0  0
   38.9678   15.5368    8.7579 O   0  0  0  0  0  0  0  0  0  0  0  0
   38.3632   14.0011    7.0139 C   0  0  2  0  0  0  0  0  0  0  0  0
   37.4714   19.0194    5.9877 O   0  0  0  0  0  0  0  0  0  0  0  0
   40.2682    9.6492    4.7782 N   0  0  0  0  0  0  0  0  0  0  0  0
   39.1506    9.7753    5.5786 C   0  0  0  0  0  0  0  0  0  0  0  0
   38.7942   11.0095    6.0850 N   0  0  0  0  0  0  0  0  0  0  0  0
   39.5389   12.1060    5.8021 C   0  0  0  0  0  0  0  0  0  0  0  0
   40.6666   11.9993    4.9996 C   0  0  0  0  0  0  0  0  0  0  0  0
   41.0317   10.7610    4.4852 C   0  0  0  0  0  0  0  0  0  0  0  0
   42.1104   10.6467    3.7161 N   0  0  0  0  0  0  0  0  0  0  0  0
   41.2115   13.2295    4.8824 N   0  0  0  0  0  0  0  0  0  0  0  0
   40.4607   14.1070    5.5871 C   0  0  0  0  0  0  0  0  0  0  0  0
   39.4199   13.4251    6.1630 N   0  0  0  0  0  0  0  0  0  0  0  0
  2  1  1  6  0  0  0
  2  3  1  0  0  0  0
  2  5  1  0  0  0  0
  3  4  1  0  0  0  0
  3 16  1  0  0  0  0
  5  6  1  0  0  0  0
  6  7  1  0  0  0  0
  7  8  1  0  0  0  0
  9  8  1  6  0  0  0
  9 10  1  0  0  0  0
  9 11  1  0  0  0  0
 10 15  1  0  0  0  0
 11 12  1  1  0  0  0
 11 13  1  0  0  0  0
 13 14  1  1  0  0  0
 13 15  1  0  0  0  0
 15 26  1  6  0  0  0
 17 18  2  0  0  0  0
 17 22  1  0  0  0  0
 18 19  1  0  0  0  0
 19 20  2  0  0  0  0
 20 21  1  0  0  0  0
 20 26  1  0  0  0  0
 21 22  2  0  0  0  0
 21 24  1  0  0  0  0
 22 23  1  0  0  0  0
 24 25  2  0  0  0  0
 25 26  1  0  0  0  0
M  END
>  <CHROM.1>
-55.07353707,-179.01933518,-84.47979056,148.08307059,-149.23946782,-71.89041238
-71.21987382,38.52157230,15.14343855,5.36204413,-2.35057693,-1.06405309,2.32988194

>  <Name>
ligand

>  <RI>
0

>  <Rbt.Current_Directory>
/home/itssahil/PROJECTS/Mol_Feturizer/New_Systems/rnas/3NPQ

>  <Rbt.Executable>
rbdock ($Id: //depot/dev/client3/rdock/2013.1/src/exe/rbdock.cxx#4 $)

>  <Rbt.Library>
libRbt.so (2013.1, Build901 2013/11/27)

>  <Rbt.Parameter_File>
/export/apps/rDock/src/rDock_2013.1_src/data/scripts/dock_solv.prm

>  <Rbt.Receptor>
prm/pocket_docking_7.prm

>  <SCORE>
-21.6487

>  <SCORE.INTER>
-19.9838

>  <SCORE.INTER.CONST>
1

>  <SCORE.INTER.POLAR>
0

>  <SCORE.INTER.ROT>
7

>  <SCORE.INTER.SOLV>
13.8805

>  <SCORE.INTER.VDW>
-26.216

>  <SCORE.INTER.norm>
-0.768607

>  <SCORE.INTRA>
-1.66497

>  <SCORE.INTRA.DIHEDRAL>
0.727299

>  <SCORE.INTRA.DIHEDRAL.0>
6.97628

>  <SCORE.INTRA.POLAR>
0

>  <SCORE.INTRA.POLAR.0>
0

>  <SCORE.INTRA.REPUL>
0

>  <SCORE.INTRA.REPUL.0>
0

>  <SCORE.INTRA.SOLV>
-0.384008

>  <SCORE.INTRA.SOLV.lig_0>
-49.8243

>  <SCORE.INTRA.VDW>
-1.83662

>  <SCORE.INTRA.VDW.0>
-1.35881

>  <SCORE.INTRA.norm>
-0.0640374

>  <SCORE.RESTR>
0

>  <SCORE.RESTR.CAVITY>
0

>  <SCORE.RESTR.norm>
0

>  <SCORE.SYSTEM>
0

>  <SCORE.SYSTEM.CONST>
0

>  <SCORE.SYSTEM.DIHEDRAL>
0

>  <SCORE.SYSTEM.SOLV>
0

>  <SCORE.SYSTEM.norm>
0

>  <SCORE.heavy>
26

>  <SCORE.norm>
-0.832644

>  <RMSD>
3.972

$$$$
ligand
 OpenBabel11021811483D
libRbt.so/2013.1/901 2013/11/27
 26 28  0  0  0  0  0  0  0  0999 V2000
   38.2083   16.6283    6.0118 N   0  0  0  0  0  0  0  0  0  0  0  0
   37.9384   18.0372    5.7534 C   0  0  2  0  0  0  0  0  0  0  0  0
   36.6296   18.4731    6.4021 C   0  0  0  0  0  0  0  0  0  0  0  0
   36.1189   19.5590    6.1304 O   0  0  0  0  0  0  0  0  0  0  0  0
   37.8933   18.3057    4.2544 C   0  0  0  0  0  0  0  0  0  0  0  0
   39.2258   18.1025    3.5452 C   0  0  0  0  0  0  0  0  0  0  0  0
   39.6808   16.3551    3.4100 S   0  0  0  0  0  0  0  0  0  0  0  0
   41.3116   16.8253    2.7796 C   0  0  0  0  0  0  0  0  0  0  0  0
   42.3313   15.6974    2.8861 C   0  0  1  0  0  0  0  0  0  0  0  0
   42.3379   15.1745    4.2020 O   0  0  0  0  0  0  0  0  0  0  0  0
   42.0047   14.5576    1.9351 C   0  0  1  0  0  0  0  0  0  0  0  0
   43.0339   14.4141    0.9850 O   0  0  0  0  0  0  0  0  0  0  0  0
   41.9152   13.3140    2.7951 C   0  0  1  0  0  0  0  0  0  0  0  0
   42.8440   12.3518    2.3528 O   0  0  0  0  0  0  0  0  0  0  0  0
   42.2574   13.7615    4.2059 C   0  0  2  0  0  0  0  0  0  0  0  0
   36.0517   17.7485    7.2133 O   0  0  0  0  0  0  0  0  0  0  0  0
   39.0672    9.8475    5.6450 N   0  0  0  0  0  0  0  0  0  0  0  0
   39.9827    9.8629    4.6120 C   0  0  0  0  0  0  0  0  0  0  0  0
   40.7451   10.9898    4.3757 N   0  0  0  0  0  0  0  0  0  0  0  0
   40.5998   12.0896    5.1543 C   0  0  0  0  0  0  0  0  0  0  0  0
   39.6840   12.0937    6.1976 C   0  0  0  0  0  0  0  0  0  0  0  0
   38.9135   10.9634    6.4427 C   0  0  0  0  0  0  0  0  0  0  0  0
   38.0326   10.9562    7.4387 N   0  0  0  0  0  0  0  0  0  0  0  0
   39.7464   13.3004    6.8009 N   0  0  0  0  0  0  0  0  0  0  0  0
   40.6737   14.0557    6.1685 C   0  0  0  0  0  0  0  0  0  0  0  0
   41.2115   13.3184    5.1453 N   0  0  0  0  0  0  0  0  0  0  0  0
  2  1  1  6  0  0  0
  2  3  1  0  0  0  0
  2  5  1  0  0  0  0
  3  4  1  0  0  0  0
  3 16  1  0  0  0  0
  5  6  1  0  0  0  0
  6  7  1  0  0  0  0
  7  8  1  0  0  0  0
  9  8  1  1  0  0  0
  9 10  1  0  0  0  0
  9 11  1  0  0  0  0
 10 15  1  0  0  0  0
 11 12  1  6  0  0  0
 11 13  1  0  0  0  0
 13 14  1  6  0  0  0
 13 15  1  0  0  0  0
 15 26  1  1  0  0  0
 17 18  2  0  0  0  0
 17 22  1  0  0  0  0
 18 19  1  0  0  0  0
 19 20  2  0  0  0  0
 20 21  1  0  0  0  0
 20 26  1  0  0  0  0
 21 22  2  0  0  0  0
 21 24  1  0  0  0  0
 22 23  1  0  0  0  0
 24 25  2  0  0  0  0
 25 26  1  0  0  0  0
M  END
>  <CHROM.1>
-168.50428147,-65.71369088,71.97580198,-172.10037330,161.80600934,-50.88534460
160.93681465,39.93009464,14.66025582,4.62741981,2.29810072,0.72447382,-0.32202660

>  <Name>
ligand

>  <RI>
0

>  <Rbt.Current_Directory>
/home/itssahil/PROJECTS/Mol_Feturizer/New_Systems/rnas/3NPQ

>  <Rbt.Executable>
rbdock ($Id: //depot/dev/client3/rdock/2013.1/src/exe/rbdock.cxx#4 $)

>  <Rbt.Library>
libRbt.so (2013.1, Build901 2013/11/27)

>  <Rbt.Parameter_File>
/export/apps/rDock/src/rDock_2013.1_src/data/scripts/dock_solv.prm

>  <Rbt.Receptor>
prm/pocket_docking_3.prm

>  <SCORE>
-6.96413

>  <SCORE.INTER>
-6.45129

>  <SCORE.INTER.CONST>
1

>  <SCORE.INTER.POLAR>
0

>  <SCORE.INTER.ROT>
7

>  <SCORE.INTER.SOLV>
17.7964

>  <SCORE.INTER.VDW>
-18.4997

>  <SCORE.INTER.norm>
-0.248126

>  <SCORE.INTRA>
-1.67982

>  <SCORE.INTRA.DIHEDRAL>
-2.74538

>  <SCORE.INTRA.DIHEDRAL.0>
6.97628

>  <SCORE.INTRA.POLAR>
0

>  <SCORE.INTRA.POLAR.0>
0

>  <SCORE.INTRA.REPUL>
0

>  <SCORE.INTRA.REPUL.0>
0

>  <SCORE.INTRA.SOLV>
1.841

>  <SCORE.INTRA.SOLV.lig_0>
-49.8243

>  <SCORE.INTRA.VDW>
-1.22763

>  <SCORE.INTRA.VDW.0>
-1.35881

>  <SCORE.INTRA.norm>
-0.0646084

>  <SCORE.RESTR>
1.16697

>  <SCORE.RESTR.CAVITY>
1.16697

>  <SCORE.RESTR.norm>
0.0448836

>  <SCORE.SYSTEM>
0

>  <SCORE.SYSTEM.CONST>
0

>  <SCORE.SYSTEM.DIHEDRAL>
0

>  <SCORE.SYSTEM.SOLV>
0

>  <SCORE.SYSTEM.norm>
0

>  <SCORE.heavy>
26

>  <SCORE.norm>
-0.267851

>  <RMSD>
4.036

$$$$
ligand
 OpenBabel11021811483D
libRbt.so/2013.1/901 2013/11/27
 26 28  0  0  0  0  0  0  0  0999 V2000
   38.8558   19.9682    2.6072 N   0  0  0  0  0  0  0  0  0  0  0  0
   37.4514   20.1662    2.2711 C   0  0  2  0  0  0  0  0  0  0  0  0
   36.7953   21.1622    3.2206 C   0  0  0  0  0  0  0  0  0  0  0  0
   36.9118   21.0458    4.4399 O   0  0  0  0  0  0  0  0  0  0  0  0
   36.7022   18.8401    2.3055 C   0  0  0  0  0  0  0  0  0  0  0  0
   36.5855   18.2270    3.6948 C   0  0  0  0  0  0  0  0  0  0  0  0
   36.4300   16.4237    3.6469 S   0  0  0  0  0  0  0  0  0  0  0  0
   38.2019   16.2589    3.9808 C   0  0  0  0  0  0  0  0  0  0  0  0
   38.4936   15.8391    5.4167 C   0  0  1  0  0  0  0  0  0  0  0  0
   38.6009   14.4294    5.4957 O   0  0  0  0  0  0  0  0  0  0  0  0
   39.7998   16.4331    5.9180 C   0  0  1  0  0  0  0  0  0  0  0  0
   39.5498   17.3033    6.9962 O   0  0  0  0  0  0  0  0  0  0  0  0
   40.6370   15.2592    6.3817 C   0  0  1  0  0  0  0  0  0  0  0  0
   40.9752   15.4128    7.7405 O   0  0  0  0  0  0  0  0  0  0  0  0
   39.7643   14.0298    6.1956 C   0  0  2  0  0  0  0  0  0  0  0  0
   36.1333   22.1073    2.7901 O   0  0  0  0  0  0  0  0  0  0  0  0
   39.9119    9.0041    4.6830 N   0  0  0  0  0  0  0  0  0  0  0  0
   38.9746    9.6243    5.4845 C   0  0  0  0  0  0  0  0  0  0  0  0
   39.0941   10.9674    5.7821 N   0  0  0  0  0  0  0  0  0  0  0  0
   40.1327   11.6869    5.2915 C   0  0  0  0  0  0  0  0  0  0  0  0
   41.0857   11.0810    4.4842 C   0  0  0  0  0  0  0  0  0  0  0  0
   40.9722    9.7299    4.1792 C   0  0  0  0  0  0  0  0  0  0  0  0
   41.8797    9.1388    3.4076 N   0  0  0  0  0  0  0  0  0  0  0  0
   41.9955   12.0179    4.1400 N   0  0  0  0  0  0  0  0  0  0  0  0
   41.6438   13.1950    4.7066 C   0  0  0  0  0  0  0  0  0  0  0  0
   40.4906   13.0055    5.4236 N   0  0  0  0  0  0  0  0  0  0  0  0
  2  1  1  1  0  0  0
  2  3  1  0  0  0  0
  2  5  1  0  0  0  0
  3  4  1  0  0  0  0
  3 16  1  0  0  0  0
  5  6  1  0  0  0  0
  6  7  1  0  0  0  0
  7  8  1  0  0  0  0
  9  8  1  6  0  0  0
  9 10  1  0  0  0  0
  9 11  1  0  0  0  0
 10 15  1  0  0  0  0
 11 12  1  1  0  0  0
 11 13  1  0  0  0  0
 13 14  1  1  0  0  0
 13 15  1  0  0  0  0
 15 26  1  6  0  0  0
 17 18  2  0  0  0  0
 17 22  1  0  0  0  0
 18 19  1  0  0  0  0
 19 20  2  0  0  0  0
 20 21  1  0  0  0  0
 20 26  1  0  0  0  0
 21 22  2  0  0  0  0
 21 24  1  0  0  0  0
 22 23  1  0  0  0  0
 24 25  2  0  0  0  0
 25 26  1  0  0  0  0
M  END
>  <CHROM.1>
-49.65548615,66.97187836,-153.11740105,98.03846780,104.58858112,92.86022047
-75.30754761,38.98008683,15.29230203,4.61095193,2.17283552,-0.87873713,0.32037795

>  <Name>
ligand

>  <RI>
0

>  <Rbt.Current_Directory>
/home/itssahil/PROJECTS/Mol_Feturizer/New_Systems/rnas/3NPQ

>  <Rbt.Executable>
rbdock ($Id: //depot/dev/client3/rdock/2013.1/src/exe/rbdock.cxx#4 $)

>  <Rbt.Library>
libRbt.so (2013.1, Build901 2013/11/27)

>  <Rbt.Parameter_File>
/export/apps/rDock/src/rDock_2013.1_src/data/scripts/dock_solv.prm

>  <Rbt.Receptor>
prm/pocket_docking_7.prm

>  <SCORE>
-16.9805

>  <SCORE.INTER>
-19.407

>  <SCORE.INTER.CONST>
1

>  <SCORE.INTER.POLAR>
0

>  <SCORE.INTER.ROT>
7

>  <SCORE.INTER.SOLV>
12.3014

>  <SCORE.INTER.VDW>
-25.3052

>  <SCORE.INTER.norm>
-0.746423

>  <SCORE.INTRA>
2.42651

>  <SCORE.INTRA.DIHEDRAL>
4.93962

>  <SCORE.INTRA.DIHEDRAL.0>
6.97628

>  <SCORE.INTRA.POLAR>
0

>  <SCORE.INTRA.POLAR.0>
0

>  <SCORE.INTRA.REPUL>
0

>  <SCORE.INTRA.REPUL.0>
0

>  <SCORE.INTRA.SOLV>
0.257623

>  <SCORE.INTRA.SOLV.lig_0>
-49.8243

>  <SCORE.INTRA.VDW>
-0.172115

>  <SCORE.INTRA.VDW.0>
-1.35881

>  <SCORE.INTRA.norm>
0.0933272

>  <SCORE.RESTR>
0

>  <SCORE.RESTR.CAVITY>
0

>  <SCORE.RESTR.norm>
0

>  <SCORE.SYSTEM>
0

>  <SCORE.SYSTEM.CONST>
0

>  <SCORE.SYSTEM.DIHEDRAL>
0

>  <SCORE.SYSTEM.SOLV>
0

>  <SCORE.SYSTEM.norm>
0

>  <SCORE.heavy>
26

>  <SCORE.norm>
-0.653096

>  <RMSD>
4.070

$$$$
ligand
 OpenBabel11021811483D
libRbt.so/2013.1/901 2013/11/27
 26 28  0  0  0  0  0  0  0  0999 V2000
   37.1540   20.8727    2.2543 N   0  0  0  0  0  0  0  0  0  0  0  0
   37.4836   19.6635    2.9985 C   0  0  2  0  0  0  0  0  0  0  0  0
   38.9158   19.2213    2.7202 C   0  0  0  0  0  0  0  0  0  0  0  0
   39.3985   19.3112    1.5921 O   0  0  0  0  0  0  0  0  0  0  0  0
   36.5135   18.5415    2.6503 C   0  0  0  0  0  0  0  0  0  0  0  0
   36.7878   17.2328    3.3795 C   0  0  0  0  0  0  0  0  0  0  0  0
   36.9382   17.4542    5.1703 S   0  0  0  0  0  0  0  0  0  0  0  0
   37.5131   15.7454    5.3365 C   0  0  0  0  0  0  0  0  0  0  0  0
   38.4759   15.5593    6.5035 C   0  0  1  0  0  0  0  0  0  0  0  0
   38.8805   14.2048    6.5849 O   0  0  0  0  0  0  0  0  0  0  0  0
   39.7256   16.4083    6.3373 C   0  0  1  0  0  0  0  0  0  0  0  0
   39.8042   17.3567    7.3749 O   0  0  0  0  0  0  0  0  0  0  0  0
   40.8930   15.4471    6.4232 C   0  0  1  0  0  0  0  0  0  0  0  0
   41.7508   15.8205    7.4763 O   0  0  0  0  0  0  0  0  0  0  0  0
   40.2857   14.0829    6.7019 C   0  0  2  0  0  0  0  0  0  0  0  0
   39.6241   18.7641    3.6180 O   0  0  0  0  0  0  0  0  0  0  0  0
   39.6994    9.2775    4.6693 N   0  0  0  0  0  0  0  0  0  0  0  0
   38.9498    9.8797    5.6597 C   0  0  0  0  0  0  0  0  0  0  0  0
   39.2486   11.1624    6.0747 N   0  0  0  0  0  0  0  0  0  0  0  0
   40.2805   11.8395    5.5147 C   0  0  0  0  0  0  0  0  0  0  0  0
   41.0464   11.2507    4.5177 C   0  0  0  0  0  0  0  0  0  0  0  0
   40.7516    9.9605    4.0937 C   0  0  0  0  0  0  0  0  0  0  0  0
   41.4790    9.3861    3.1402 N   0  0  0  0  0  0  0  0  0  0  0  0
   41.9941   12.1371    4.1433 N   0  0  0  0  0  0  0  0  0  0  0  0
   41.8478   13.2657    4.8747 C   0  0  0  0  0  0  0  0  0  0  0  0
   40.7892   13.0963    5.7294 N   0  0  0  0  0  0  0  0  0  0  0  0
  2  1  1  6  0  0  0
  2  3  1  0  0  0  0
  2  5  1  0  0  0  0
  3  4  1  0  0  0  0
  3 16  1  0  0  0  0
  5  6  1  0  0  0  0
  6  7  1  0  0  0  0
  7  8  1  0  0  0  0
  9  8  1  6  0  0  0
  9 10  1  0  0  0  0
  9 11  1  0  0  0  0
 10 15  1  0  0  0  0
 11 12  1  1  0  0  0
 11 13  1  0  0  0  0
 13 14  1  1  0  0  0
 13 15  1  0  0  0  0
 15 26  1  6  0  0  0
 17 18  2  0  0  0  0
 17 22  1  0  0  0  0
 18 19  1  0  0  0  0
 19 20  2  0  0  0  0
 20 21  1  0  0  0  0
 20 26  1  0  0  0  0
 21 22  2  0  0  0  0
 21 24  1  0  0  0  0
 22 23  1  0  0  0  0
 24 25  2  0  0  0  0
 25 26  1  0  0  0  0
M  END
>  <CHROM.1>
-38.59297584,179.72367699,51.41916815,-170.69755334,149.40471637,179.61427892
-48.42559325,39.33425440,15.12111882,4.85375859,2.51787475,-1.17208407,0.71531272

>  <Name>
ligand

>  <RI>
0

>  <Rbt.Current_Directory>
/home/itssahil/PROJECTS/Mol_Feturizer/New_Systems/rnas/3NPQ

>  <Rbt.Executable>
rbdock ($Id: //depot/dev/client3/rdock/2013.1/src/exe/rbdock.cxx#4 $)

>  <Rbt.Library>
libRbt.so (2013.1, Build901 2013/11/27)

>  <Rbt.Parameter_File>
/export/apps/rDock/src/rDock_2013.1_src/data/scripts/dock_solv.prm

>  <Rbt.Receptor>
prm/pocket_docking_8.prm

>  <SCORE>
-19.5338

>  <SCORE.INTER>
-17.1392

>  <SCORE.INTER.CONST>
1

>  <SCORE.INTER.POLAR>
0

>  <SCORE.INTER.ROT>
7

>  <SCORE.INTER.SOLV>
11.5046

>  <SCORE.INTER.VDW>
-23.5276

>  <SCORE.INTER.norm>
-0.6592

>  <SCORE.INTRA>
-2.39466

>  <SCORE.INTRA.DIHEDRAL>
-2.65449

>  <SCORE.INTRA.DIHEDRAL.0>
6.97628

>  <SCORE.INTRA.POLAR>
0

>  <SCORE.INTRA.POLAR.0>
0

>  <SCORE.INTRA.REPUL>
0

>  <SCORE.INTRA.REPUL.0>
0

>  <SCORE.INTRA.SOLV>
-0.533668

>  <SCORE.INTRA.SOLV.lig_0>
-49.8243

>  <SCORE.INTRA.VDW>
-0.800578

>  <SCORE.INTRA.VDW.0>
-1.35881

>  <SCORE.INTRA.norm>
-0.0921022

>  <SCORE.RESTR>
0

>  <SCORE.RESTR.CAVITY>
0

>  <SCORE.RESTR.norm>
0

>  <SCORE.SYSTEM>
0

>  <SCORE.SYSTEM.CONST>
0

>  <SCORE.SYSTEM.DIHEDRAL>
0

>  <SCORE.SYSTEM.SOLV>
0

>  <SCORE.SYSTEM.norm>
0

>  <SCORE.heavy>
26

>  <SCORE.norm>
-0.751302

>  <RMSD>
4.141

$$$$
ligand
 OpenBabel11021811483D
libRbt.so/2013.1/901 2013/11/27
 26 28  0  0  0  0  0  0  0  0999 V2000
   40.9001   19.4530    8.2693 N   0  0  0  0  0  0  0  0  0  0  0  0
   40.4694   18.6768    9.4254 C   0  0  2  0  0  0  0  0  0  0  0  0
   41.0721   19.2288   10.7122 C   0  0  0  0  0  0  0  0  0  0  0  0
   40.8156   18.7180   11.8018 O   0  0  0  0  0  0  0  0  0  0  0  0
   40.8506   17.2114    9.2565 C   0  0  0  0  0  0  0  0  0  0  0  0
   40.0393   16.4751    8.1985 C   0  0  0  0  0  0  0  0  0  0  0  0
   38.2871   16.3425    8.6351 S   0  0  0  0  0  0  0  0  0  0  0  0
   37.9310   15.6389    7.0052 C   0  0  0  0  0  0  0  0  0  0  0  0
   38.1267   16.6431    5.8753 C   0  0  1  0  0  0  0  0  0  0  0  0
   39.4687   16.6084    5.4250 O   0  0  0  0  0  0  0  0  0  0  0  0
   37.2303   16.3301    4.6884 C   0  0  1  0  0  0  0  0  0  0  0  0
   36.3182   17.3830    4.4838 O   0  0  0  0  0  0  0  0  0  0  0  0
   38.1537   16.2040    3.4946 C   0  0  1  0  0  0  0  0  0  0  0  0
   37.7901   17.1340    2.5010 O   0  0  0  0  0  0  0  0  0  0  0  0
   39.5471   16.5126    4.0151 C   0  0  2  0  0  0  0  0  0  0  0  0
   41.8307   20.1988   10.6921 O   0  0  0  0  0  0  0  0  0  0  0  0
   41.1204   11.5857    4.9188 N   0  0  0  0  0  0  0  0  0  0  0  0
   40.1184   12.2894    5.5563 C   0  0  0  0  0  0  0  0  0  0  0  0
   39.8376   13.5894    5.1849 N   0  0  0  0  0  0  0  0  0  0  0  0
   40.5440   14.1853    4.1934 C   0  0  0  0  0  0  0  0  0  0  0  0
   41.5558   13.4942    3.5409 C   0  0  0  0  0  0  0  0  0  0  0  0
   41.8440   12.1852    3.9079 C   0  0  0  0  0  0  0  0  0  0  0  0
   42.8116   11.5139    3.2904 N   0  0  0  0  0  0  0  0  0  0  0  0
   42.0864   14.3156    2.6093 N   0  0  0  0  0  0  0  0  0  0  0  0
   41.4391   15.5026    2.6562 C   0  0  0  0  0  0  0  0  0  0  0  0
   40.4799   15.4370    3.6337 N   0  0  0  0  0  0  0  0  0  0  0  0
  2  1  1  6  0  0  0
  2  3  1  0  0  0  0
  2  5  1  0  0  0  0
  3  4  1  0  0  0  0
  3 16  1  0  0  0  0
  5  6  1  0  0  0  0
  6  7  1  0  0  0  0
  7  8  1  0  0  0  0
  9  8  1  1  0  0  0
  9 10  1  0  0  0  0
  9 11  1  0  0  0  0
 10 15  1  0  0  0  0
 11 12  1  6  0  0  0
 11 13  1  0  0  0  0
 13 14  1  6  0  0  0
 13 15  1  0  0  0  0
 15 26  1  1  0  0  0
 17 18  2  0  0  0  0
 17 22  1  0  0  0  0
 18 19  1  0  0  0  0
 19 20  2  0  0  0  0
 20 21  1  0  0  0  0
 20 26  1  0  0  0  0
 21 22  2  0  0  0  0
 21 24  1  0  0  0  0
 22 23  1  0  0  0  0
 24 25  2  0  0  0  0
 25 26  1  0  0  0  0
M  END
>  <CHROM.1>
179.16933305,-70.93252030,-65.08149969,173.29476330,-67.57511205,88.52230269
44.25284649,39.90450016,15.98954573,6.11288940,-1.61378037,0.65358932,-2.19726254

>  <Name>
ligand

>  <RI>
0

>  <Rbt.Current_Directory>
/home/itssahil/PROJECTS/Mol_Feturizer/New_Systems/rnas/3NPQ

>  <Rbt.Executable>
rbdock ($Id: //depot/dev/client3/rdock/2013.1/src/exe/rbdock.cxx#4 $)

>  <Rbt.Library>
libRbt.so (2013.1, Build901 2013/11/27)

>  <Rbt.Parameter_File>
/export/apps/rDock/src/rDock_2013.1_src/data/scripts/dock_solv.prm

>  <Rbt.Receptor>
prm/pocket_docking_8.prm

>  <SCORE>
-10.0061

>  <SCORE.INTER>
-8.60486

>  <SCORE.INTER.CONST>
1

>  <SCORE.INTER.POLAR>
0

>  <SCORE.INTER.ROT>
7

>  <SCORE.INTER.SOLV>
9.72288

>  <SCORE.INTER.VDW>
-17.2442

>  <SCORE.INTER.norm>
-0.330956

>  <SCORE.INTRA>
-1.40122

>  <SCORE.INTRA.DIHEDRAL>
-1.12894

>  <SCORE.INTRA.DIHEDRAL.0>
6.97628

>  <SCORE.INTRA.POLAR>
0

>  <SCORE.INTRA.POLAR.0>
0

>  <SCORE.INTRA.REPUL>
0

>  <SCORE.INTRA.REPUL.0>
0

>  <SCORE.INTRA.SOLV>
0.3196

>  <SCORE.INTRA.SOLV.lig_0>
-49.8243

>  <SCORE.INTRA.VDW>
-0.996553

>  <SCORE.INTRA.VDW.0>
-1.35881

>  <SCORE.INTRA.norm>
-0.0538931

>  <SCORE.RESTR>
0

>  <SCORE.RESTR.CAVITY>
0

>  <SCORE.RESTR.norm>
0

>  <SCORE.SYSTEM>
0

>  <SCORE.SYSTEM.CONST>
0

>  <SCORE.SYSTEM.DIHEDRAL>
0

>  <SCORE.SYSTEM.SOLV>
0

>  <SCORE.SYSTEM.norm>
0

>  <SCORE.heavy>
26

>  <SCORE.norm>
-0.384849

>  <RMSD>
4.287

$$$$
ligand
 OpenBabel11021811483D
libRbt.so/2013.1/901 2013/11/27
 26 28  0  0  0  0  0  0  0  0999 V2000
   36.0810   18.8238    8.8299 N   0  0  0  0  0  0  0  0  0  0  0  0
   35.0659   17.7782    8.8036 C   0  0  2  0  0  0  0  0  0  0  0  0
   33.6873   18.3437    9.1254 C   0  0  0  0  0  0  0  0  0  0  0  0
   33.5015   19.0245   10.1333 O   0  0  0  0  0  0  0  0  0  0  0  0
   35.4175   16.6680    9.7860 C   0  0  0  0  0  0  0  0  0  0  0  0
   36.5615   15.7721    9.3295 C   0  0  0  0  0  0  0  0  0  0  0  0
   36.2929   15.0931    7.6727 S   0  0  0  0  0  0  0  0  0  0  0  0
   37.8164   14.1257    7.8187 C   0  0  0  0  0  0  0  0  0  0  0  0
   38.2108   13.4483    6.5115 C   0  0  1  0  0  0  0  0  0  0  0  0
   38.9443   14.3495    5.7023 O   0  0  0  0  0  0  0  0  0  0  0  0
   39.0833   12.2278    6.7560 C   0  0  1  0  0  0  0  0  0  0  0  0
   38.4230   11.0674    6.3090 O   0  0  0  0  0  0  0  0  0  0  0  0
   40.3440   12.4519    5.9470 C   0  0  1  0  0  0  0  0  0  0  0  0
   40.5220   11.4001    5.0271 O   0  0  0  0  0  0  0  0  0  0  0  0
   40.1340   13.7627    5.2086 C   0  0  2  0  0  0  0  0  0  0  0  0
   32.7265   18.1332    8.3841 O   0  0  0  0  0  0  0  0  0  0  0  0
   44.1102   16.4136    3.0339 N   0  0  0  0  0  0  0  0  0  0  0  0
   43.1819   15.6067    2.4073 C   0  0  0  0  0  0  0  0  0  0  0  0
   42.1949   14.9815    3.1433 N   0  0  0  0  0  0  0  0  0  0  0  0
   42.1304   15.1535    4.4862 C   0  0  0  0  0  0  0  0  0  0  0  0
   43.0552   15.9607    5.1345 C   0  0  0  0  0  0  0  0  0  0  0  0
   44.0511   16.5942    4.4010 C   0  0  0  0  0  0  0  0  0  0  0  0
   44.9429   17.3689    5.0115 N   0  0  0  0  0  0  0  0  0  0  0  0
   42.7603   15.9550    6.4525 N   0  0  0  0  0  0  0  0  0  0  0  0
   41.6780   15.1684    6.6530 C   0  0  0  0  0  0  0  0  0  0  0  0
   41.2761   14.6645    5.4428 N   0  0  0  0  0  0  0  0  0  0  0  0
  2  1  1  1  0  0  0
  2  3  1  0  0  0  0
  2  5  1  0  0  0  0
  3  4  1  0  0  0  0
  3 16  1  0  0  0  0
  5  6  1  0  0  0  0
  6  7  1  0  0  0  0
  7  8  1  0  0  0  0
  9  8  1  1  0  0  0
  9 10  1  0  0  0  0
  9 11  1  0  0  0  0
 10 15  1  0  0  0  0
 11 12  1  6  0  0  0
 11 13  1  0  0  0  0
 13 14  1  6  0  0  0
 13 15  1  0  0  0  0
 15 26  1  1  0  0  0
 17 18  2  0  0  0  0
 17 22  1  0  0  0  0
 18 19  1  0  0  0  0
 19 20  2  0  0  0  0
 20 21  1  0  0  0  0
 20 26  1  0  0  0  0
 21 22  2  0  0  0  0
 21 24  1  0  0  0  0
 22 23  1  0  0  0  0
 24 25  2  0  0  0  0
 25 26  1  0  0  0  0
M  END
>  <CHROM.1>
-52.05856508,-73.77072552,-52.96123384,-176.12516214,-171.51883447,84.57212559
-123.30786997,39.04975901,15.36259072,6.55166054,-2.83350830,-0.47606702
-2.99897800

>  <Name>
ligand

>  <RI>
0

>  <Rbt.Current_Directory>
/home/itssahil/PROJECTS/Mol_Feturizer/New_Systems/rnas/3NPQ

>  <Rbt.Executable>
rbdock ($Id: //depot/dev/client3/rdock/2013.1/src/exe/rbdock.cxx#4 $)

>  <Rbt.Library>
libRbt.so (2013.1, Build901 2013/11/27)

>  <Rbt.Parameter_File>
/export/apps/rDock/src/rDock_2013.1_src/data/scripts/dock_solv.prm

>  <Rbt.Receptor>
prm/pocket_docking_8.prm

>  <SCORE>
-21.0301

>  <SCORE.INTER>
-19.448

>  <SCORE.INTER.CONST>
1

>  <SCORE.INTER.POLAR>
0

>  <SCORE.INTER.ROT>
7

>  <SCORE.INTER.SOLV>
13.5462

>  <SCORE.INTER.VDW>
-25.7474

>  <SCORE.INTER.norm>
-0.748001

>  <SCORE.INTRA>
-1.58209

>  <SCORE.INTRA.DIHEDRAL>
-1.33558

>  <SCORE.INTRA.DIHEDRAL.0>
6.97628

>  <SCORE.INTRA.POLAR>
0

>  <SCORE.INTRA.POLAR.0>
0

>  <SCORE.INTRA.REPUL>
0

>  <SCORE.INTRA.REPUL.0>
0

>  <SCORE.INTRA.SOLV>
0.145929

>  <SCORE.INTRA.SOLV.lig_0>
-49.8243

>  <SCORE.INTRA.VDW>
-0.987268

>  <SCORE.INTRA.VDW.0>
-1.35881

>  <SCORE.INTRA.norm>
-0.0608497

>  <SCORE.RESTR>
0

>  <SCORE.RESTR.CAVITY>
0

>  <SCORE.RESTR.norm>
0

>  <SCORE.SYSTEM>
0

>  <SCORE.SYSTEM.CONST>
0

>  <SCORE.SYSTEM.DIHEDRAL>
0

>  <SCORE.SYSTEM.SOLV>
0

>  <SCORE.SYSTEM.norm>
0

>  <SCORE.heavy>
26

>  <SCORE.norm>
-0.808851

>  <RMSD>
4.311

$$$$
ligand
 OpenBabel11021811483D
libRbt.so/2013.1/901 2013/11/27
 26 28  0  0  0  0  0  0  0  0999 V2000
   40.8376   18.9808    3.7002 N   0  0  0  0  0  0  0  0  0  0  0  0
   39.8022   17.9568    3.7619 C   0  0  2  0  0  0  0  0  0  0  0  0
   40.3568   16.5916    3.3712 C   0  0  0  0  0  0  0  0  0  0  0  0
   39.8127   15.9123    2.5014 O   0  0  0  0  0  0  0  0  0  0  0  0
   38.6333   18.3245    2.8566 C   0  0  0  0  0  0  0  0  0  0  0  0
   37.4123   17.4292    3.0219 C   0  0  0  0  0  0  0  0  0  0  0  0
   36.7351   17.4818    4.7003 S   0  0  0  0  0  0  0  0  0  0  0  0
   37.1571   15.7360    4.9287 C   0  0  0  0  0  0  0  0  0  0  0  0
   37.8449   15.4664    6.2619 C   0  0  1  0  0  0  0  0  0  0  0  0
   38.2757   14.1188    6.3196 O   0  0  0  0  0  0  0  0  0  0  0  0
   39.0653   16.3527    6.4501 C   0  0  1  0  0  0  0  0  0  0  0  0
   38.8744   17.2059    7.5537 O   0  0  0  0  0  0  0  0  0  0  0  0
   40.2225   15.4121    6.7152 C   0  0  1  0  0  0  0  0  0  0  0  0
   40.8107   15.7076    7.9606 O   0  0  0  0  0  0  0  0  0  0  0  0
   39.6241   14.0161    6.7375 C   0  0  2  0  0  0  0  0  0  0  0  0
   41.3629   16.1361    3.9162 O   0  0  0  0  0  0  0  0  0  0  0  0
   39.9580    9.2218    4.6232 N   0  0  0  0  0  0  0  0  0  0  0  0
   39.0230    9.6914    5.5237 C   0  0  0  0  0  0  0  0  0  0  0  0
   39.0884   10.9939    5.9778 N   0  0  0  0  0  0  0  0  0  0  0  0
   40.0711   11.8207    5.5448 C   0  0  0  0  0  0  0  0  0  0  0  0
   41.0209   11.3667    4.6398 C   0  0  0  0  0  0  0  0  0  0  0  0
   40.9617   10.0577    4.1772 C   0  0  0  0  0  0  0  0  0  0  0  0
   41.8666    9.6117    3.3110 N   0  0  0  0  0  0  0  0  0  0  0  0
   41.8702   12.3849    4.3826 N   0  0  0  0  0  0  0  0  0  0  0  0
   41.4835   13.4657    5.0986 C   0  0  0  0  0  0  0  0  0  0  0  0
   40.3693   13.1312    5.8242 N   0  0  0  0  0  0  0  0  0  0  0  0
  2  1  1  6  0  0  0
  2  3  1  0  0  0  0
  2  5  1  0  0  0  0
  3  4  1  0  0  0  0
  3 16  1  0  0  0  0
  5  6  1  0  0  0  0
  6  7  1  0  0  0  0
  7  8  1  0  0  0  0
  9  8  1  6  0  0  0
  9 10  1  0  0  0  0
  9 11  1  0  0  0  0
 10 15  1  0  0  0  0
 11 12  1  1  0  0  0
 11 13  1  0  0  0  0
 13 14  1  1  0  0  0
 13 15  1  0  0  0  0
 15 26  1  6  0  0  0
 17 18  2  0  0  0  0
 17 22  1  0  0  0  0
 18 19  1  0  0  0  0
 19 20  2  0  0  0  0
 20 21  1  0  0  0  0
 20 26  1  0  0  0  0
 21 22  2  0  0  0  0
 21 24  1  0  0  0  0
 22 23  1  0  0  0  0
 24 25  2  0  0  0  0
 25 26  1  0  0  0  0
M  END
>  <CHROM.1>
-127.48704740,-170.81989604,60.61592849,-115.18040853,133.60782590,-173.78205752
-58.24320275,39.55317483,14.64510261,4.99317662,-2.05939534,-0.95596056,2.67610001

>  <Name>
ligand

>  <RI>
0

>  <Rbt.Current_Directory>
/home/itssahil/PROJECTS/Mol_Feturizer/New_Systems/rnas/3NPQ

>  <Rbt.Executable>
rbdock ($Id: //depot/dev/client3/rdock/2013.1/src/exe/rbdock.cxx#4 $)

>  <Rbt.Library>
libRbt.so (2013.1, Build901 2013/11/27)

>  <Rbt.Parameter_File>
/export/apps/rDock/src/rDock_2013.1_src/data/scripts/dock_solv.prm

>  <Rbt.Receptor>
prm/pocket_docking_4.prm

>  <SCORE>
-17.8025

>  <SCORE.INTER>
-16.6454

>  <SCORE.INTER.CONST>
1

>  <SCORE.INTER.POLAR>
0

>  <SCORE.INTER.ROT>
7

>  <SCORE.INTER.SOLV>
10.3352

>  <SCORE.INTER.VDW>
-22.8086

>  <SCORE.INTER.norm>
-0.640206

>  <SCORE.INTRA>
-1.15716

>  <SCORE.INTRA.DIHEDRAL>
0.619684

>  <SCORE.INTRA.DIHEDRAL.0>
6.97628

>  <SCORE.INTRA.POLAR>
0

>  <SCORE.INTRA.POLAR.0>
0

>  <SCORE.INTRA.REPUL>
0

>  <SCORE.INTRA.REPUL.0>
0

>  <SCORE.INTRA.SOLV>
0.0257178

>  <SCORE.INTRA.SOLV.lig_0>
-49.8243

>  <SCORE.INTRA.VDW>
-1.47986

>  <SCORE.INTRA.VDW.0>
-1.35881

>  <SCORE.INTRA.norm>
-0.0445061

>  <SCORE.RESTR>
0

>  <SCORE.RESTR.CAVITY>
0

>  <SCORE.RESTR.norm>
0

>  <SCORE.SYSTEM>
0

>  <SCORE.SYSTEM.CONST>
0

>  <SCORE.SYSTEM.DIHEDRAL>
0

>  <SCORE.SYSTEM.SOLV>
0

>  <SCORE.SYSTEM.norm>
0

>  <SCORE.heavy>
26

>  <SCORE.norm>
-0.684712

>  <RMSD>
4.542

$$$$
ligand
 OpenBabel11021811483D
libRbt.so/2013.1/901 2013/11/27
 26 28  0  0  0  0  0  0  0  0999 V2000
   37.6132   19.1932    3.2471 N   0  0  0  0  0  0  0  0  0  0  0  0
   38.3714   18.2573    2.4262 C   0  0  2  0  0  0  0  0  0  0  0  0
   37.7691   16.8584    2.4907 C   0  0  0  0  0  0  0  0  0  0  0  0
   36.8916   16.5837    3.3083 O   0  0  0  0  0  0  0  0  0  0  0  0
   39.8290   18.2194    2.8679 C   0  0  0  0  0  0  0  0  0  0  0  0
   40.0375   17.6929    4.2818 C   0  0  0  0  0  0  0  0  0  0  0  0
   39.4494   18.8477    5.5463 S   0  0  0  0  0  0  0  0  0  0  0  0
   39.7053   17.5874    6.8208 C   0  0  0  0  0  0  0  0  0  0  0  0
   38.5541   16.5916    6.9031 C   0  0  1  0  0  0  0  0  0  0  0  0
   38.5794   15.7298    5.7799 O   0  0  0  0  0  0  0  0  0  0  0  0
   38.6491   15.7302    8.1518 C   0  0  1  0  0  0  0  0  0  0  0  0
   37.5393   15.9673    8.9851 O   0  0  0  0  0  0  0  0  0  0  0  0
   38.6366   14.2955    7.6664 C   0  0  1  0  0  0  0  0  0  0  0  0
   37.5549   13.5997    8.2409 O   0  0  0  0  0  0  0  0  0  0  0  0
   38.4686   14.3705    6.1585 C   0  0  2  0  0  0  0  0  0  0  0  0
   38.1459   15.9698    1.7257 O   0  0  0  0  0  0  0  0  0  0  0  0
   40.2124    9.5519    5.0153 N   0  0  0  0  0  0  0  0  0  0  0  0
   39.0850    9.9012    5.7311 C   0  0  0  0  0  0  0  0  0  0  0  0
   38.7767   11.2314    5.9369 N   0  0  0  0  0  0  0  0  0  0  0  0
   39.5788   12.2042    5.4397 C   0  0  0  0  0  0  0  0  0  0  0  0
   40.7174   11.8730    4.7178 C   0  0  0  0  0  0  0  0  0  0  0  0
   41.0342   10.5367    4.5054 C   0  0  0  0  0  0  0  0  0  0  0  0
   42.1227   10.2076    3.8162 N   0  0  0  0  0  0  0  0  0  0  0  0
   41.3226   13.0216    4.3456 N   0  0  0  0  0  0  0  0  0  0  0  0
   40.5993   14.0655    4.8118 C   0  0  0  0  0  0  0  0  0  0  0  0
   39.5149   13.5744    5.4922 N   0  0  0  0  0  0  0  0  0  0  0  0
  2  1  1  1  0  0  0
  2  3  1  0  0  0  0
  2  5  1  0  0  0  0
  3  4  1  0  0  0  0
  3 16  1  0  0  0  0
  5  6  1  0  0  0  0
  6  7  1  0  0  0  0
  7  8  1  0  0  0  0
  9  8  1  6  0  0  0
  9 10  1  0  0  0  0
  9 11  1  0  0  0  0
 10 15  1  0  0  0  0
 11 12  1  1  0  0  0
 11 13  1  0  0  0  0
 13 14  1  1  0  0  0
 13 15  1  0  0  0  0
 15 26  1  6  0  0  0
 17 18  2  0  0  0  0
 17 22  1  0  0  0  0
 18 19  1  0  0  0  0
 19 20  2  0  0  0  0
 20 21  1  0  0  0  0
 20 26  1  0  0  0  0
 21 22  2  0  0  0  0
 21 24  1  0  0  0  0
 22 23  1  0  0  0  0
 24 25  2  0  0  0  0
 25 26  1  0  0  0  0
M  END
>  <CHROM.1>
-10.26390521,64.13804070,-70.53983950,171.21378397,-81.62944703,72.27938986
-168.21446639,39.14658279,14.95574939,5.20267684,-2.28353240,-1.24078517
2.32693906

>  <Name>
ligand

>  <RI>
0

>  <Rbt.Current_Directory>
/home/itssahil/PROJECTS/Mol_Feturizer/New_Systems/rnas/3NPQ

>  <Rbt.Executable>
rbdock ($Id: //depot/dev/client3/rdock/2013.1/src/exe/rbdock.cxx#4 $)

>  <Rbt.Library>
libRbt.so (2013.1, Build901 2013/11/27)

>  <Rbt.Parameter_File>
/export/apps/rDock/src/rDock_2013.1_src/data/scripts/dock_solv.prm

>  <Rbt.Receptor>
prm/pocket_docking_5.prm

>  <SCORE>
-17.1605

>  <SCORE.INTER>
-15.0565

>  <SCORE.INTER.CONST>
1

>  <SCORE.INTER.POLAR>
0

>  <SCORE.INTER.ROT>
7

>  <SCORE.INTER.SOLV>
13.9743

>  <SCORE.INTER.VDW>
-22.9624

>  <SCORE.INTER.norm>
-0.579094

>  <SCORE.INTRA>
-2.10401

>  <SCORE.INTRA.DIHEDRAL>
-2.49099

>  <SCORE.INTRA.DIHEDRAL.0>
6.97628

>  <SCORE.INTRA.POLAR>
0

>  <SCORE.INTRA.POLAR.0>
0

>  <SCORE.INTRA.REPUL>
0

>  <SCORE.INTRA.REPUL.0>
0

>  <SCORE.INTRA.SOLV>
1.49235

>  <SCORE.INTRA.SOLV.lig_0>
-49.8243

>  <SCORE.INTRA.VDW>
-1.60469

>  <SCORE.INTRA.VDW.0>
-1.35881

>  <SCORE.INTRA.norm>
-0.0809236

>  <SCORE.RESTR>
0

>  <SCORE.RESTR.CAVITY>
0

>  <SCORE.RESTR.norm>
0

>  <SCORE.SYSTEM>
0

>  <SCORE.SYSTEM.CONST>
0

>  <SCORE.SYSTEM.DIHEDRAL>
0

>  <SCORE.SYSTEM.SOLV>
0

>  <SCORE.SYSTEM.norm>
0

>  <SCORE.heavy>
26

>  <SCORE.norm>
-0.660018

>  <RMSD>
4.542

$$$$
ligand
 OpenBabel11021811483D
libRbt.so/2013.1/901 2013/11/27
 26 28  0  0  0  0  0  0  0  0999 V2000
   35.7710   17.5807    9.1038 N   0  0  0  0  0  0  0  0  0  0  0  0
   36.4162   16.5440    8.3079 C   0  0  2  0  0  0  0  0  0  0  0  0
   35.5201   15.3180    8.1736 C   0  0  0  0  0  0  0  0  0  0  0  0
   35.1763   14.6733    9.1636 O   0  0  0  0  0  0  0  0  0  0  0  0
   37.7515   16.1498    8.9264 C   0  0  0  0  0  0  0  0  0  0  0  0
   38.7244   15.5046    7.9482 C   0  0  0  0  0  0  0  0  0  0  0  0
   38.1998   13.8485    7.4379 S   0  0  0  0  0  0  0  0  0  0  0  0
   39.8003   13.5860    6.6331 C   0  0  0  0  0  0  0  0  0  0  0  0
   39.6950   12.7226    5.3814 C   0  0  1  0  0  0  0  0  0  0  0  0
   40.5650   13.2162    4.3792 O   0  0  0  0  0  0  0  0  0  0  0  0
   40.0824   11.2802    5.6636 C   0  0  1  0  0  0  0  0  0  0  0  0
   38.9761   10.4351    5.4528 O   0  0  0  0  0  0  0  0  0  0  0  0
   41.1845   10.9478    4.6792 C   0  0  1  0  0  0  0  0  0  0  0  0
   40.8069    9.8489    3.8829 O   0  0  0  0  0  0  0  0  0  0  0  0
   41.3547   12.1857    3.8155 C   0  0  2  0  0  0  0  0  0  0  0  0
   35.1184   14.9438    7.0712 O   0  0  0  0  0  0  0  0  0  0  0  0
   46.1817   11.0536    2.0878 N   0  0  0  0  0  0  0  0  0  0  0  0
   45.0143   10.3487    1.8738 C   0  0  0  0  0  0  0  0  0  0  0  0
   43.8233   10.7976    2.4092 N   0  0  0  0  0  0  0  0  0  0  0  0
   43.7909   11.9322    3.1500 C   0  0  0  0  0  0  0  0  0  0  0  0
   44.9545   12.6546    3.3768 C   0  0  0  0  0  0  0  0  0  0  0  0
   46.1571   12.2101    2.8407 C   0  0  0  0  0  0  0  0  0  0  0  0
   47.2780   12.8934    3.0522 N   0  0  0  0  0  0  0  0  0  0  0  0
   44.6374   13.7263    4.1350 N   0  0  0  0  0  0  0  0  0  0  0  0
   43.3094   13.6999    4.3923 C   0  0  0  0  0  0  0  0  0  0  0  0
   42.7710   12.5932    3.7880 N   0  0  0  0  0  0  0  0  0  0  0  0
  2  1  1  1  0  0  0
  2  3  1  0  0  0  0
  2  5  1  0  0  0  0
  3  4  1  0  0  0  0
  3 16  1  0  0  0  0
  5  6  1  0  0  0  0
  6  7  1  0  0  0  0
  7  8  1  0  0  0  0
  9  8  1  1  0  0  0
  9 10  1  0  0  0  0
  9 11  1  0  0  0  0
 10 15  1  0  0  0  0
 11 12  1  6  0  0  0
 11 13  1  0  0  0  0
 13 14  1  6  0  0  0
 13 15  1  0  0  0  0
 15 26  1  1  0  0  0
 17 18  2  0  0  0  0
 17 22  1  0  0  0  0
 18 19  1  0  0  0  0
 19 20  2  0  0  0  0
 20 21  1  0  0  0  0
 20 26  1  0  0  0  0
 21 22  2  0  0  0  0
 21 24  1  0  0  0  0
 22 23  1  0  0  0  0
 24 25  2  0  0  0  0
 25 26  1  0  0  0  0
M  END
>  <CHROM.1>
-61.99202482,-157.82463399,-69.98990715,-170.49200332,-146.46189585,141.17166272
-170.47193716,40.62772575,13.14495111,5.43536237,-2.58525461,-0.36524465
-2.69228712

>  <Name>
ligand

>  <RI>
0

>  <Rbt.Current_Directory>
/home/itssahil/PROJECTS/Mol_Feturizer/New_Systems/rnas/3NPQ

>  <Rbt.Executable>
rbdock ($Id: //depot/dev/client3/rdock/2013.1/src/exe/rbdock.cxx#4 $)

>  <Rbt.Library>
libRbt.so (2013.1, Build901 2013/11/27)

>  <Rbt.Parameter_File>
/export/apps/rDock/src/rDock_2013.1_src/data/scripts/dock_solv.prm

>  <Rbt.Receptor>
prm/pocket_docking_7.prm

>  <SCORE>
-21.7465

>  <SCORE.INTER>
-21.5208

>  <SCORE.INTER.CONST>
1

>  <SCORE.INTER.POLAR>
0

>  <SCORE.INTER.ROT>
7

>  <SCORE.INTER.SOLV>
14.4665

>  <SCORE.INTER.VDW>
-27.436

>  <SCORE.INTER.norm>
-0.827724

>  <SCORE.INTRA>
-0.225669

>  <SCORE.INTRA.DIHEDRAL>
3.16827

>  <SCORE.INTRA.DIHEDRAL.0>
6.97628

>  <SCORE.INTRA.POLAR>
0

>  <SCORE.INTRA.POLAR.0>
0

>  <SCORE.INTRA.REPUL>
0

>  <SCORE.INTRA.REPUL.0>
0

>  <SCORE.INTRA.SOLV>
-0.67723

>  <SCORE.INTRA.SOLV.lig_0>
-49.8243

>  <SCORE.INTRA.VDW>
-1.47119

>  <SCORE.INTRA.VDW.0>
-1.35881

>  <SCORE.INTRA.norm>
-0.00867957

>  <SCORE.RESTR>
0

>  <SCORE.RESTR.CAVITY>
0

>  <SCORE.RESTR.norm>
0

>  <SCORE.SYSTEM>
0

>  <SCORE.SYSTEM.CONST>
0

>  <SCORE.SYSTEM.DIHEDRAL>
0

>  <SCORE.SYSTEM.SOLV>
0

>  <SCORE.SYSTEM.norm>
0

>  <SCORE.heavy>
26

>  <SCORE.norm>
-0.836403

>  <RMSD>
4.551

$$$$
ligand
 OpenBabel11021811483D
libRbt.so/2013.1/901 2013/11/27
 26 28  0  0  0  0  0  0  0  0999 V2000
   35.6697   16.3970    6.9376 N   0  0  0  0  0  0  0  0  0  0  0  0
   35.7440   15.2470    7.8301 C   0  0  2  0  0  0  0  0  0  0  0  0
   35.1163   15.5613    9.1833 C   0  0  0  0  0  0  0  0  0  0  0  0
   34.5587   16.6388    9.3878 O   0  0  0  0  0  0  0  0  0  0  0  0
   37.1910   14.8074    8.0149 C   0  0  0  0  0  0  0  0  0  0  0  0
   37.8766   14.3656    6.7286 C   0  0  0  0  0  0  0  0  0  0  0  0
   39.6589   14.1257    6.9389 S   0  0  0  0  0  0  0  0  0  0  0  0
   39.4329   12.3323    6.8343 C   0  0  0  0  0  0  0  0  0  0  0  0
   39.5085   11.8122    5.4035 C   0  0  1  0  0  0  0  0  0  0  0  0
   40.2846   12.6914    4.6100 O   0  0  0  0  0  0  0  0  0  0  0  0
   40.1551   10.4380    5.3421 C   0  0  1  0  0  0  0  0  0  0  0  0
   39.2296    9.4921    4.8613 O   0  0  0  0  0  0  0  0  0  0  0  0
   41.3135   10.5687    4.3752 C   0  0  1  0  0  0  0  0  0  0  0  0
   41.1595    9.6603    3.3097 O   0  0  0  0  0  0  0  0  0  0  0  0
   41.2610   11.9959    3.8575 C   0  0  2  0  0  0  0  0  0  0  0  0
   35.1518   14.7441   10.1040 O   0  0  0  0  0  0  0  0  0  0  0  0
   46.2985   12.0503    2.3784 N   0  0  0  0  0  0  0  0  0  0  0  0
   45.2955   11.2033    1.9517 C   0  0  0  0  0  0  0  0  0  0  0  0
   44.0152   11.3344    2.4522 N   0  0  0  0  0  0  0  0  0  0  0  0
   43.7334   12.2939    3.3671 C   0  0  0  0  0  0  0  0  0  0  0  0
   44.7287   13.1548    3.8091 C   0  0  0  0  0  0  0  0  0  0  0  0
   46.0196   13.0301    3.3096 C   0  0  0  0  0  0  0  0  0  0  0  0
   46.9811   13.8486    3.7264 N   0  0  0  0  0  0  0  0  0  0  0  0
   44.1784   14.0008    4.7066 N   0  0  0  0  0  0  0  0  0  0  0  0
   42.8668   13.6979    4.8428 C   0  0  0  0  0  0  0  0  0  0  0  0
   42.5762   12.6416    4.0184 N   0  0  0  0  0  0  0  0  0  0  0  0
  2  1  1  6  0  0  0
  2  3  1  0  0  0  0
  2  5  1  0  0  0  0
  3  4  1  0  0  0  0
  3 16  1  0  0  0  0
  5  6  1  0  0  0  0
  6  7  1  0  0  0  0
  7  8  1  0  0  0  0
  9  8  1  1  0  0  0
  9 10  1  0  0  0  0
  9 11  1  0  0  0  0
 10 15  1  0  0  0  0
 11 12  1  6  0  0  0
 11 13  1  0  0  0  0
 13 14  1  6  0  0  0
 13 15  1  0  0  0  0
 15 26  1  1  0  0  0
 17 18  2  0  0  0  0
 17 22  1  0  0  0  0
 18 19  1  0  0  0  0
 19 20  2  0  0  0  0
 20 21  1  0  0  0  0
 20 26  1  0  0  0  0
 21 22  2  0  0  0  0
 21 24  1  0  0  0  0
 22 23  1  0  0  0  0
 24 25  2  0  0  0  0
 25 26  1  0  0  0  0
M  END
>  <CHROM.1>
4.44088204,-61.45176217,170.16165951,107.60120998,89.02637636,25.47396023
-175.39138534,40.58965985,13.05783005,5.45530104,-2.65608127,-0.38663901
-2.72368701

>  <Name>
ligand

>  <RI>
0

>  <Rbt.Current_Directory>
/home/itssahil/PROJECTS/Mol_Feturizer/New_Systems/rnas/3NPQ

>  <Rbt.Executable>
rbdock ($Id: //depot/dev/client3/rdock/2013.1/src/exe/rbdock.cxx#4 $)

>  <Rbt.Library>
libRbt.so (2013.1, Build901 2013/11/27)

>  <Rbt.Parameter_File>
/export/apps/rDock/src/rDock_2013.1_src/data/scripts/dock_solv.prm

>  <Rbt.Receptor>
prm/pocket_docking_6.prm

>  <SCORE>
-22.4866

>  <SCORE.INTER>
-23.4559

>  <SCORE.INTER.CONST>
1

>  <SCORE.INTER.POLAR>
0

>  <SCORE.INTER.ROT>
7

>  <SCORE.INTER.SOLV>
14.5362

>  <SCORE.INTER.VDW>
-28.7493

>  <SCORE.INTER.norm>
-0.902151

>  <SCORE.INTRA>
0.969344

>  <SCORE.INTRA.DIHEDRAL>
2.61135

>  <SCORE.INTRA.DIHEDRAL.0>
6.97628

>  <SCORE.INTRA.POLAR>
0

>  <SCORE.INTRA.POLAR.0>
0

>  <SCORE.INTRA.REPUL>
0

>  <SCORE.INTRA.REPUL.0>
0

>  <SCORE.INTRA.SOLV>
-0.0264399

>  <SCORE.INTRA.SOLV.lig_0>
-49.8243

>  <SCORE.INTRA.VDW>
-0.32311

>  <SCORE.INTRA.VDW.0>
-1.35881

>  <SCORE.INTRA.norm>
0.0372824

>  <SCORE.RESTR>
0

>  <SCORE.RESTR.CAVITY>
0

>  <SCORE.RESTR.norm>
0

>  <SCORE.SYSTEM>
0

>  <SCORE.SYSTEM.CONST>
0

>  <SCORE.SYSTEM.DIHEDRAL>
0

>  <SCORE.SYSTEM.SOLV>
0

>  <SCORE.SYSTEM.norm>
0

>  <SCORE.heavy>
26

>  <SCORE.norm>
-0.864869

>  <RMSD>
4.702

$$$$
ligand
 OpenBabel11021811483D
libRbt.so/2013.1/901 2013/11/27
 26 28  0  0  0  0  0  0  0  0999 V2000
   35.8810   17.4925    7.9456 N   0  0  0  0  0  0  0  0  0  0  0  0
   36.4523   16.2840    7.3643 C   0  0  2  0  0  0  0  0  0  0  0  0
   35.4061   15.5094    6.5708 C   0  0  0  0  0  0  0  0  0  0  0  0
   34.2603   15.3731    6.9979 O   0  0  0  0  0  0  0  0  0  0  0  0
   37.0451   15.3972    8.4520 C   0  0  0  0  0  0  0  0  0  0  0  0
   37.7116   14.1316    7.9289 C   0  0  0  0  0  0  0  0  0  0  0  0
   39.0695   14.4844    6.7843 S   0  0  0  0  0  0  0  0  0  0  0  0
   39.5440   12.7372    6.8038 C   0  0  0  0  0  0  0  0  0  0  0  0
   39.5746   12.1202    5.4103 C   0  0  1  0  0  0  0  0  0  0  0  0
   40.3791   12.9071    4.5509 O   0  0  0  0  0  0  0  0  0  0  0  0
   40.1559   10.7159    5.4339 C   0  0  1  0  0  0  0  0  0  0  0  0
   39.1807    9.7850    5.0281 O   0  0  0  0  0  0  0  0  0  0  0  0
   41.3050   10.7274    4.4472 C   0  0  1  0  0  0  0  0  0  0  0  0
   41.0935    9.7584    3.4469 O   0  0  0  0  0  0  0  0  0  0  0  0
   41.3111   12.1179    3.8357 C   0  0  2  0  0  0  0  0  0  0  0  0
   35.6825   15.0020    5.4832 O   0  0  0  0  0  0  0  0  0  0  0  0
   46.3232   11.8378    2.2968 N   0  0  0  0  0  0  0  0  0  0  0  0
   45.2758   11.0129    1.9388 C   0  0  0  0  0  0  0  0  0  0  0  0
   44.0106   11.2367    2.4447 N   0  0  0  0  0  0  0  0  0  0  0  0
   43.7871   12.2662    3.2974 C   0  0  0  0  0  0  0  0  0  0  0  0
   44.8277   13.1064    3.6697 C   0  0  0  0  0  0  0  0  0  0  0  0
   46.1037   12.8886    3.1643 C   0  0  0  0  0  0  0  0  0  0  0  0
   47.1082   13.6863    3.5147 N   0  0  0  0  0  0  0  0  0  0  0  0
   44.3304   14.0343    4.5157 N   0  0  0  0  0  0  0  0  0  0  0  0
   43.0085   13.8032    4.6871 C   0  0  0  0  0  0  0  0  0  0  0  0
   42.6571   12.7100    3.9379 N   0  0  0  0  0  0  0  0  0  0  0  0
  2  1  1  1  0  0  0
  2  3  1  0  0  0  0
  2  5  1  0  0  0  0
  3  4  1  0  0  0  0
  3 16  1  0  0  0  0
  5  6  1  0  0  0  0
  6  7  1  0  0  0  0
  7  8  1  0  0  0  0
  9  8  1  1  0  0  0
  9 10  1  0  0  0  0
  9 11  1  0  0  0  0
 10 15  1  0  0  0  0
 11 12  1  6  0  0  0
 11 13  1  0  0  0  0
 13 14  1  6  0  0  0
 13 15  1  0  0  0  0
 15 26  1  1  0  0  0
 17 18  2  0  0  0  0
 17 22  1  0  0  0  0
 18 19  1  0  0  0  0
 19 20  2  0  0  0  0
 20 21  1  0  0  0  0
 20 26  1  0  0  0  0
 21 22  2  0  0  0  0
 21 24  1  0  0  0  0
 22 23  1  0  0  0  0
 24 25  2  0  0  0  0
 25 26  1  0  0  0  0
M  END
>  <CHROM.1>
-41.74672737,-177.88434958,59.35854649,170.99922720,123.81873539,52.67987658
-175.33303933,40.61202972,13.18153883,5.11867347,-2.68355414,-0.30397928
-2.78869130

>  <Name>
ligand

>  <RI>
0

>  <Rbt.Current_Directory>
/home/itssahil/PROJECTS/Mol_Feturizer/New_Systems/rnas/3NPQ

>  <Rbt.Executable>
rbdock ($Id: //depot/dev/client3/rdock/2013.1/src/exe/rbdock.cxx#4 $)

>  <Rbt.Library>
libRbt.so (2013.1, Build901 2013/11/27)

>  <Rbt.Parameter_File>
/export/apps/rDock/src/rDock_2013.1_src/data/scripts/dock_solv.prm

>  <Rbt.Receptor>
prm/pocket_docking_6.prm

>  <SCORE>
-22.6511

>  <SCORE.INTER>
-20.3779

>  <SCORE.INTER.CONST>
1

>  <SCORE.INTER.POLAR>
0

>  <SCORE.INTER.ROT>
7

>  <SCORE.INTER.SOLV>
12.9866

>  <SCORE.INTER.VDW>
-26.1808

>  <SCORE.INTER.norm>
-0.783767

>  <SCORE.INTRA>
-2.27312

>  <SCORE.INTRA.DIHEDRAL>
-1.59386

>  <SCORE.INTRA.DIHEDRAL.0>
6.97628

>  <SCORE.INTRA.POLAR>
0

>  <SCORE.INTRA.POLAR.0>
0

>  <SCORE.INTRA.REPUL>
0

>  <SCORE.INTRA.REPUL.0>
0

>  <SCORE.INTRA.SOLV>
-0.677509

>  <SCORE.INTRA.SOLV.lig_0>
-49.8243

>  <SCORE.INTRA.VDW>
-1.13744

>  <SCORE.INTRA.VDW.0>
-1.35881

>  <SCORE.INTRA.norm>
-0.0874277

>  <SCORE.RESTR>
0

>  <SCORE.RESTR.CAVITY>
0

>  <SCORE.RESTR.norm>
0

>  <SCORE.SYSTEM>
0

>  <SCORE.SYSTEM.CONST>
0

>  <SCORE.SYSTEM.DIHEDRAL>
0

>  <SCORE.SYSTEM.SOLV>
0

>  <SCORE.SYSTEM.norm>
0

>  <SCORE.heavy>
26

>  <SCORE.norm>
-0.871195

>  <RMSD>
4.725

$$$$
ligand
 OpenBabel11021811483D
libRbt.so/2013.1/901 2013/11/27
 26 28  0  0  0  0  0  0  0  0999 V2000
   37.6905   16.2904    7.0791 N   0  0  0  0  0  0  0  0  0  0  0  0
   36.8768   15.1728    7.5413 C   0  0  2  0  0  0  0  0  0  0  0  0
   36.0740   15.5541    8.7799 C   0  0  0  0  0  0  0  0  0  0  0  0
   36.5914   16.1859    9.7002 O   0  0  0  0  0  0  0  0  0  0  0  0
   37.7524   13.9620    7.8385 C   0  0  0  0  0  0  0  0  0  0  0  0
   38.3528   13.3090    6.6004 C   0  0  0  0  0  0  0  0  0  0  0  0
   38.9706   11.6387    6.9270 S   0  0  0  0  0  0  0  0  0  0  0  0
   39.6206   11.5458    5.2396 C   0  0  0  0  0  0  0  0  0  0  0  0
   40.9643   12.2489    5.0872 C   0  0  1  0  0  0  0  0  0  0  0  0
   41.6055   11.8142    3.9019 O   0  0  0  0  0  0  0  0  0  0  0  0
   40.7987   13.7573    4.9992 C   0  0  1  0  0  0  0  0  0  0  0  0
   41.4262   14.3748    6.0979 O   0  0  0  0  0  0  0  0  0  0  0  0
   41.4787   14.1737    3.7115 C   0  0  1  0  0  0  0  0  0  0  0  0
   42.4989   15.1065    3.9827 O   0  0  0  0  0  0  0  0  0  0  0  0
   42.0732   12.9033    3.1283 C   0  0  2  0  0  0  0  0  0  0  0  0
   34.8883   15.2392    8.8889 O   0  0  0  0  0  0  0  0  0  0  0  0
   39.3898   14.9835   -0.8766 N   0  0  0  0  0  0  0  0  0  0  0  0
   39.5557   15.4964    0.3941 C   0  0  0  0  0  0  0  0  0  0  0  0
   40.3017   14.8074    1.3299 N   0  0  0  0  0  0  0  0  0  0  0  0
   40.8752   13.6220    1.0092 C   0  0  0  0  0  0  0  0  0  0  0  0
   40.7192   13.0895   -0.2633 C   0  0  0  0  0  0  0  0  0  0  0  0
   39.9709   13.7771   -1.2111 C   0  0  0  0  0  0  0  0  0  0  0  0
   39.8140   13.2761   -2.4329 N   0  0  0  0  0  0  0  0  0  0  0  0
   41.3874   11.9166   -0.3080 N   0  0  0  0  0  0  0  0  0  0  0  0
   41.9588   11.6950    0.8981 C   0  0  0  0  0  0  0  0  0  0  0  0
   41.6501   12.7440    1.7253 N   0  0  0  0  0  0  0  0  0  0  0  0
  2  1  1  1  0  0  0
  2  3  1  0  0  0  0
  2  5  1  0  0  0  0
  3  4  1  0  0  0  0
  3 16  1  0  0  0  0
  5  6  1  0  0  0  0
  6  7  1  0  0  0  0
  7  8  1  0  0  0  0
  9  8  1  6  0  0  0
  9 10  1  0  0  0  0
  9 11  1  0  0  0  0
 10 15  1  0  0  0  0
 11 12  1  1  0  0  0
 11 13  1  0  0  0  0
 13 14  1  1  0  0  0
 13 15  1  0  0  0  0
 15 26  1  6  0  0  0
 17 18  2  0  0  0  0
 17 22  1  0  0  0  0
 18 19  1  0  0  0  0
 19 20  2  0  0  0  0
 20 21  1  0  0  0  0
 20 26  1  0  0  0  0
 21 22  2  0  0  0  0
 21 24  1  0  0  0  0
 22 23  1  0  0  0  0
 24 25  2  0  0  0  0
 25 26  1  0  0  0  0
M  END
>  <CHROM.1>
-43.88231122,-70.00659008,-163.39259347,-175.24723547,81.05299003,162.43344162
120.83389445,39.68254550,13.71098628,4.11480649,2.14368171,-0.71261683,1.80557224

>  <Name>
ligand

>  <RI>
0

>  <Rbt.Current_Directory>
/home/itssahil/PROJECTS/Mol_Feturizer/New_Systems/rnas/3NPQ

>  <Rbt.Executable>
rbdock ($Id: //depot/dev/client3/rdock/2013.1/src/exe/rbdock.cxx#4 $)

>  <Rbt.Library>
libRbt.so (2013.1, Build901 2013/11/27)

>  <Rbt.Parameter_File>
/export/apps/rDock/src/rDock_2013.1_src/data/scripts/dock_solv.prm

>  <Rbt.Receptor>
prm/pocket_docking_8.prm

>  <SCORE>
-19.5556

>  <SCORE.INTER>
-19.3655

>  <SCORE.INTER.CONST>
1

>  <SCORE.INTER.POLAR>
0

>  <SCORE.INTER.ROT>
7

>  <SCORE.INTER.SOLV>
10.157

>  <SCORE.INTER.VDW>
-24.5627

>  <SCORE.INTER.norm>
-0.744827

>  <SCORE.INTRA>
-0.190078

>  <SCORE.INTRA.DIHEDRAL>
-1.19086

>  <SCORE.INTRA.DIHEDRAL.0>
6.97628

>  <SCORE.INTRA.POLAR>
0

>  <SCORE.INTRA.POLAR.0>
0

>  <SCORE.INTRA.REPUL>
0

>  <SCORE.INTRA.REPUL.0>
0

>  <SCORE.INTRA.SOLV>
0.135931

>  <SCORE.INTRA.SOLV.lig_0>
-49.8243

>  <SCORE.INTRA.VDW>
0.337385

>  <SCORE.INTRA.VDW.0>
-1.35881

>  <SCORE.INTRA.norm>
-0.00731068

>  <SCORE.RESTR>
0

>  <SCORE.RESTR.CAVITY>
0

>  <SCORE.RESTR.norm>
0

>  <SCORE.SYSTEM>
0

>  <SCORE.SYSTEM.CONST>
0

>  <SCORE.SYSTEM.DIHEDRAL>
0

>  <SCORE.SYSTEM.SOLV>
0

>  <SCORE.SYSTEM.norm>
0

>  <SCORE.heavy>
26

>  <SCORE.norm>
-0.752138

>  <RMSD>
4.826

$$$$
ligand
 OpenBabel11021811483D
libRbt.so/2013.1/901 2013/11/27
 26 28  0  0  0  0  0  0  0  0999 V2000
   34.0262   24.4790    6.2212 N   0  0  0  0  0  0  0  0  0  0  0  0
   34.9742   23.3902    6.4225 C   0  0  2  0  0  0  0  0  0  0  0  0
   35.7262   23.0726    5.1351 C   0  0  0  0  0  0  0  0  0  0  0  0
   35.2629   22.2881    4.3081 O   0  0  0  0  0  0  0  0  0  0  0  0
   34.2572   22.1452    6.9295 C   0  0  0  0  0  0  0  0  0  0  0  0
   35.1583   20.9269    7.0827 C   0  0  0  0  0  0  0  0  0  0  0  0
   34.3639   19.5876    8.0066 S   0  0  0  0  0  0  0  0  0  0  0  0
   35.6492   18.4390    7.4528 C   0  0  0  0  0  0  0  0  0  0  0  0
   35.2788   16.9803    7.6947 C   0  0  1  0  0  0  0  0  0  0  0  0
   35.7715   16.1752    6.6393 O   0  0  0  0  0  0  0  0  0  0  0  0
   35.8749   16.4605    8.9927 C   0  0  1  0  0  0  0  0  0  0  0  0
   34.8463   16.1092    9.8875 O   0  0  0  0  0  0  0  0  0  0  0  0
   36.6777   15.2325    8.6165 C   0  0  1  0  0  0  0  0  0  0  0  0
   36.2018   14.1090    9.3206 O   0  0  0  0  0  0  0  0  0  0  0  0
   36.4675   15.0421    7.1242 C   0  0  2  0  0  0  0  0  0  0  0  0
   36.8151   23.5939    4.8916 O   0  0  0  0  0  0  0  0  0  0  0  0
   40.3290   11.8003    5.6592 N   0  0  0  0  0  0  0  0  0  0  0  0
   39.1745   11.4911    6.3499 C   0  0  0  0  0  0  0  0  0  0  0  0
   38.2598   12.4802    6.6529 N   0  0  0  0  0  0  0  0  0  0  0  0
   38.4885   13.7620    6.2764 C   0  0  0  0  0  0  0  0  0  0  0  0
   39.6439   14.0928    5.5817 C   0  0  0  0  0  0  0  0  0  0  0  0
   40.5691   13.1032    5.2720 C   0  0  0  0  0  0  0  0  0  0  0  0
   41.6798   13.4087    4.6077 N   0  0  0  0  0  0  0  0  0  0  0  0
   39.6154   15.4205    5.3356 N   0  0  0  0  0  0  0  0  0  0  0  0
   38.4769   15.9350    5.8548 C   0  0  0  0  0  0  0  0  0  0  0  0
   37.7679   14.9186    6.4414 N   0  0  0  0  0  0  0  0  0  0  0  0
  2  1  1  6  0  0  0
  2  3  1  0  0  0  0
  2  5  1  0  0  0  0
  3  4  1  0  0  0  0
  3 16  1  0  0  0  0
  5  6  1  0  0  0  0
  6  7  1  0  0  0  0
  7  8  1  0  0  0  0
  9  8  1  6  0  0  0
  9 10  1  0  0  0  0
  9 11  1  0  0  0  0
 10 15  1  0  0  0  0
 11 12  1  1  0  0  0
 11 13  1  0  0  0  0
 13 14  1  1  0  0  0
 13 15  1  0  0  0  0
 15 26  1  6  0  0  0
 17 18  2  0  0  0  0
 17 22  1  0  0  0  0
 18 19  1  0  0  0  0
 19 20  2  0  0  0  0
 20 21  1  0  0  0  0
 20 26  1  0  0  0  0
 21 22  2  0  0  0  0
 21 24  1  0  0  0  0
 22 23  1  0  0  0  0
 24 25  2  0  0  0  0
 25 26  1  0  0  0  0
M  END
>  <CHROM.1>
-86.65716732,176.24578282,167.85417758,165.97618582,-165.92692084,144.28082644
-155.33267884,36.77795864,17.30536295,6.73367302,-2.15991554,-0.73025231
2.72022799

>  <Name>
ligand

>  <RI>
0

>  <Rbt.Current_Directory>
/home/itssahil/PROJECTS/Mol_Feturizer/New_Systems/rnas/3NPQ

>  <Rbt.Executable>
rbdock ($Id: //depot/dev/client3/rdock/2013.1/src/exe/rbdock.cxx#4 $)

>  <Rbt.Library>
libRbt.so (2013.1, Build901 2013/11/27)

>  <Rbt.Parameter_File>
/export/apps/rDock/src/rDock_2013.1_src/data/scripts/dock_solv.prm

>  <Rbt.Receptor>
prm/pocket_docking_7.prm

>  <SCORE>
-20.7603

>  <SCORE.INTER>
-20.2035

>  <SCORE.INTER.CONST>
1

>  <SCORE.INTER.POLAR>
0

>  <SCORE.INTER.ROT>
7

>  <SCORE.INTER.SOLV>
17.9868

>  <SCORE.INTER.VDW>
-27.7313

>  <SCORE.INTER.norm>
-0.777058

>  <SCORE.INTRA>
-0.556819

>  <SCORE.INTRA.DIHEDRAL>
0.329593

>  <SCORE.INTRA.DIHEDRAL.0>
6.97628

>  <SCORE.INTRA.POLAR>
0

>  <SCORE.INTRA.POLAR.0>
0

>  <SCORE.INTRA.REPUL>
0

>  <SCORE.INTRA.REPUL.0>
0

>  <SCORE.INTRA.SOLV>
-0.947382

>  <SCORE.INTRA.SOLV.lig_0>
-49.8243

>  <SCORE.INTRA.VDW>
-0.247925

>  <SCORE.INTRA.VDW.0>
-1.35881

>  <SCORE.INTRA.norm>
-0.0214161

>  <SCORE.RESTR>
0

>  <SCORE.RESTR.CAVITY>
0

>  <SCORE.RESTR.norm>
0

>  <SCORE.SYSTEM>
0

>  <SCORE.SYSTEM.CONST>
0

>  <SCORE.SYSTEM.DIHEDRAL>
0

>  <SCORE.SYSTEM.SOLV>
0

>  <SCORE.SYSTEM.norm>
0

>  <SCORE.heavy>
26

>  <SCORE.norm>
-0.798474

>  <RMSD>
4.941

$$$$
ligand
 OpenBabel11021811483D
libRbt.so/2013.1/901 2013/11/27
 26 28  0  0  0  0  0  0  0  0999 V2000
   43.0321   21.2113    9.7228 N   0  0  0  0  0  0  0  0  0  0  0  0
   42.9680   19.9627    8.9734 C   0  0  2  0  0  0  0  0  0  0  0  0
   43.9999   19.9428    7.8515 C   0  0  0  0  0  0  0  0  0  0  0  0
   44.6890   18.9451    7.6425 O   0  0  0  0  0  0  0  0  0  0  0  0
   41.5711   19.7541    8.4023 C   0  0  0  0  0  0  0  0  0  0  0  0
   41.3880   18.4293    7.6735 C   0  0  0  0  0  0  0  0  0  0  0  0
   41.5875   17.0013    8.7685 S   0  0  0  0  0  0  0  0  0  0  0  0
   41.2252   15.8878    7.3876 C   0  0  0  0  0  0  0  0  0  0  0  0
   39.7371   15.8146    7.0655 C   0  0  1  0  0  0  0  0  0  0  0  0
   39.5167   14.9041    6.0037 O   0  0  0  0  0  0  0  0  0  0  0  0
   38.9295   15.3377    8.2616 C   0  0  1  0  0  0  0  0  0  0  0  0
   38.0437   16.3497    8.6780 O   0  0  0  0  0  0  0  0  0  0  0  0
   38.1502   14.1316    7.7800 C   0  0  1  0  0  0  0  0  0  0  0  0
   36.7687   14.3490    7.9490 O   0  0  0  0  0  0  0  0  0  0  0  0
   38.4804   13.9881    6.3042 C   0  0  2  0  0  0  0  0  0  0  0  0
   44.1681   20.9244    7.1270 O   0  0  0  0  0  0  0  0  0  0  0  0
   41.7599   10.9551    3.5450 N   0  0  0  0  0  0  0  0  0  0  0  0
   41.6505   12.3310    3.5218 C   0  0  0  0  0  0  0  0  0  0  0  0
   40.7232   12.9681    4.3223 N   0  0  0  0  0  0  0  0  0  0  0  0
   39.9122   12.2484    5.1356 C   0  0  0  0  0  0  0  0  0  0  0  0
   40.0067   10.8639    5.1726 C   0  0  0  0  0  0  0  0  0  0  0  0
   40.9380   10.2151    4.3707 C   0  0  0  0  0  0  0  0  0  0  0  0
   41.0368    8.8893    4.3972 N   0  0  0  0  0  0  0  0  0  0  0  0
   39.0937   10.4084    6.0574 N   0  0  0  0  0  0  0  0  0  0  0  0
   38.4274   11.4644    6.5780 C   0  0  0  0  0  0  0  0  0  0  0  0
   38.9240   12.6123    6.0161 N   0  0  0  0  0  0  0  0  0  0  0  0
  2  1  1  6  0  0  0
  2  3  1  0  0  0  0
  2  5  1  0  0  0  0
  3  4  1  0  0  0  0
  3 16  1  0  0  0  0
  5  6  1  0  0  0  0
  6  7  1  0  0  0  0
  7  8  1  0  0  0  0
  9  8  1  1  0  0  0
  9 10  1  0  0  0  0
  9 11  1  0  0  0  0
 10 15  1  0  0  0  0
 11 12  1  6  0  0  0
 11 13  1  0  0  0  0
 13 14  1  6  0  0  0
 13 15  1  0  0  0  0
 15 26  1  1  0  0  0
 17 18  2  0  0  0  0
 17 22  1  0  0  0  0
 18 19  1  0  0  0  0
 19 20  2  0  0  0  0
 20 21  1  0  0  0  0
 20 26  1  0  0  0  0
 21 22  2  0  0  0  0
 21 24  1  0  0  0  0
 22 23  1  0  0  0  0
 24 25  2  0  0  0  0
 25 26  1  0  0  0  0
M  END
>  <CHROM.1>
135.65189607,-176.45356596,63.47248711,178.56711601,-77.59482052,-178.46964390
-23.98243959,40.69606037,15.20586439,6.86672400,1.21534164,0.42658345,0.52016830

>  <Name>
ligand

>  <RI>
0

>  <Rbt.Current_Directory>
/home/itssahil/PROJECTS/Mol_Feturizer/New_Systems/rnas/3NPQ

>  <Rbt.Executable>
rbdock ($Id: //depot/dev/client3/rdock/2013.1/src/exe/rbdock.cxx#4 $)

>  <Rbt.Library>
libRbt.so (2013.1, Build901 2013/11/27)

>  <Rbt.Parameter_File>
/export/apps/rDock/src/rDock_2013.1_src/data/scripts/dock_solv.prm

>  <Rbt.Receptor>
prm/pocket_docking_8.prm

>  <SCORE>
-18.7467

>  <SCORE.INTER>
-15.8409

>  <SCORE.INTER.CONST>
1

>  <SCORE.INTER.POLAR>
0

>  <SCORE.INTER.ROT>
7

>  <SCORE.INTER.SOLV>
16.1912

>  <SCORE.INTER.VDW>
-24.2244

>  <SCORE.INTER.norm>
-0.609267

>  <SCORE.INTRA>
-2.90581

>  <SCORE.INTRA.DIHEDRAL>
-3.73074

>  <SCORE.INTRA.DIHEDRAL.0>
6.97628

>  <SCORE.INTRA.POLAR>
0

>  <SCORE.INTRA.POLAR.0>
0

>  <SCORE.INTRA.REPUL>
0

>  <SCORE.INTRA.REPUL.0>
0

>  <SCORE.INTRA.SOLV>
-0.502957

>  <SCORE.INTRA.SOLV.lig_0>
-49.8243

>  <SCORE.INTRA.VDW>
-0.788956

>  <SCORE.INTRA.VDW.0>
-1.35881

>  <SCORE.INTRA.norm>
-0.111762

>  <SCORE.RESTR>
0

>  <SCORE.RESTR.CAVITY>
0

>  <SCORE.RESTR.norm>
0

>  <SCORE.SYSTEM>
0

>  <SCORE.SYSTEM.CONST>
0

>  <SCORE.SYSTEM.DIHEDRAL>
0

>  <SCORE.SYSTEM.SOLV>
0

>  <SCORE.SYSTEM.norm>
0

>  <SCORE.heavy>
26

>  <SCORE.norm>
-0.721028

>  <RMSD>
4.964

$$$$
ligand
 OpenBabel11021811483D
libRbt.so/2013.1/901 2013/11/27
 26 28  0  0  0  0  0  0  0  0999 V2000
   36.1110   23.8341    4.8729 N   0  0  0  0  0  0  0  0  0  0  0  0
   35.5761   22.7645    5.7062 C   0  0  2  0  0  0  0  0  0  0  0  0
   34.3842   23.2499    6.5235 C   0  0  0  0  0  0  0  0  0  0  0  0
   33.9666   24.4018    6.4118 O   0  0  0  0  0  0  0  0  0  0  0  0
   36.6560   22.2178    6.6313 C   0  0  0  0  0  0  0  0  0  0  0  0
   36.7551   20.6980    6.6426 C   0  0  0  0  0  0  0  0  0  0  0  0
   35.1896   19.9035    7.0858 S   0  0  0  0  0  0  0  0  0  0  0  0
   36.0625   18.8258    8.2498 C   0  0  0  0  0  0  0  0  0  0  0  0
   35.4754   17.4202    8.3039 C   0  0  1  0  0  0  0  0  0  0  0  0
   35.7569   16.7323    7.0987 O   0  0  0  0  0  0  0  0  0  0  0  0
   36.0650   16.6123    9.4484 C   0  0  1  0  0  0  0  0  0  0  0  0
   35.0558   16.2796   10.3721 O   0  0  0  0  0  0  0  0  0  0  0  0
   36.6284   15.3547    8.8197 C   0  0  1  0  0  0  0  0  0  0  0  0
   36.0238   14.2167    9.3887 O   0  0  0  0  0  0  0  0  0  0  0  0
   36.2891   15.4435    7.3417 C   0  0  2  0  0  0  0  0  0  0  0  0
   33.8105   22.5005    7.3148 O   0  0  0  0  0  0  0  0  0  0  0  0
   40.1306   12.1199    6.0138 N   0  0  0  0  0  0  0  0  0  0  0  0
   39.0886   11.9080    6.8940 C   0  0  0  0  0  0  0  0  0  0  0  0
   38.1601   12.9038    7.1247 N   0  0  0  0  0  0  0  0  0  0  0  0
   38.2651   14.0970    6.4905 C   0  0  0  0  0  0  0  0  0  0  0  0
   39.3063   14.3294    5.6022 C   0  0  0  0  0  0  0  0  0  0  0  0
   40.2443   13.3322    5.3637 C   0  0  0  0  0  0  0  0  0  0  0  0
   41.2463   13.5439    4.5156 N   0  0  0  0  0  0  0  0  0  0  0  0
   39.1693   15.5835    5.1200 N   0  0  0  0  0  0  0  0  0  0  0  0
   38.0736   16.1473    5.6784 C   0  0  0  0  0  0  0  0  0  0  0  0
   37.5024   15.2376    6.5305 N   0  0  0  0  0  0  0  0  0  0  0  0
  2  1  1  1  0  0  0
  2  3  1  0  0  0  0
  2  5  1  0  0  0  0
  3  4  1  0  0  0  0
  3 16  1  0  0  0  0
  5  6  1  0  0  0  0
  6  7  1  0  0  0  0
  7  8  1  0  0  0  0
  9  8  1  6  0  0  0
  9 10  1  0  0  0  0
  9 11  1  0  0  0  0
 10 15  1  0  0  0  0
 11 12  1  1  0  0  0
 11 13  1  0  0  0  0
 13 14  1  1  0  0  0
 13 15  1  0  0  0  0
 15 26  1  6  0  0  0
 17 18  2  0  0  0  0
 17 22  1  0  0  0  0
 18 19  1  0  0  0  0
 19 20  2  0  0  0  0
 20 21  1  0  0  0  0
 20 26  1  0  0  0  0
 21 22  2  0  0  0  0
 21 24  1  0  0  0  0
 22 23  1  0  0  0  0
 24 25  2  0  0  0  0
 25 26  1  0  0  0  0
M  END
>  <CHROM.1>
1.70365547,-131.76549174,-56.64284491,-132.96019143,-143.92889478,70.18334423
-178.65023312,36.79402623,17.51516785,6.95902944,-2.16537815,-0.79039264
2.70102068

>  <Name>
ligand

>  <RI>
0

>  <Rbt.Current_Directory>
/home/itssahil/PROJECTS/Mol_Feturizer/New_Systems/rnas/3NPQ

>  <Rbt.Executable>
rbdock ($Id: //depot/dev/client3/rdock/2013.1/src/exe/rbdock.cxx#4 $)

>  <Rbt.Library>
libRbt.so (2013.1, Build901 2013/11/27)

>  <Rbt.Parameter_File>
/export/apps/rDock/src/rDock_2013.1_src/data/scripts/dock_solv.prm

>  <Rbt.Receptor>
prm/pocket_docking_8.prm

>  <SCORE>
-18.9235

>  <SCORE.INTER>
-20.0826

>  <SCORE.INTER.CONST>
1

>  <SCORE.INTER.POLAR>
0

>  <SCORE.INTER.ROT>
7

>  <SCORE.INTER.SOLV>
13.6033

>  <SCORE.INTER.VDW>
-26.1895

>  <SCORE.INTER.norm>
-0.772407

>  <SCORE.INTRA>
1.1591

>  <SCORE.INTRA.DIHEDRAL>
5.08494

>  <SCORE.INTRA.DIHEDRAL.0>
6.97628

>  <SCORE.INTRA.POLAR>
0

>  <SCORE.INTRA.POLAR.0>
0

>  <SCORE.INTRA.REPUL>
0

>  <SCORE.INTRA.REPUL.0>
0

>  <SCORE.INTRA.SOLV>
-0.543826

>  <SCORE.INTRA.SOLV.lig_0>
-49.8243

>  <SCORE.INTRA.VDW>
-1.11146

>  <SCORE.INTRA.VDW.0>
-1.35881

>  <SCORE.INTRA.norm>
0.0445806

>  <SCORE.RESTR>
0

>  <SCORE.RESTR.CAVITY>
0

>  <SCORE.RESTR.norm>
0

>  <SCORE.SYSTEM>
0

>  <SCORE.SYSTEM.CONST>
0

>  <SCORE.SYSTEM.DIHEDRAL>
0

>  <SCORE.SYSTEM.SOLV>
0

>  <SCORE.SYSTEM.norm>
0

>  <SCORE.heavy>
26

>  <SCORE.norm>
-0.727827

>  <RMSD>
5.032

$$$$
ligand
 OpenBabel11021811483D
libRbt.so/2013.1/901 2013/11/27
 26 28  0  0  0  0  0  0  0  0999 V2000
   43.8606   20.3971    5.9611 N   0  0  0  0  0  0  0  0  0  0  0  0
   42.8885   19.3914    6.3712 C   0  0  2  0  0  0  0  0  0  0  0  0
   42.8328   19.2694    7.8898 C   0  0  0  0  0  0  0  0  0  0  0  0
   41.9158   19.7787    8.5329 O   0  0  0  0  0  0  0  0  0  0  0  0
   43.2235   18.0409    5.7506 C   0  0  0  0  0  0  0  0  0  0  0  0
   42.0704   17.0460    5.7650 C   0  0  0  0  0  0  0  0  0  0  0  0
   41.6581   16.4852    7.4365 S   0  0  0  0  0  0  0  0  0  0  0  0
   40.1652   17.5094    7.4153 C   0  0  0  0  0  0  0  0  0  0  0  0
   38.8898   16.6876    7.2700 C   0  0  1  0  0  0  0  0  0  0  0  0
   38.9112   15.9743    6.0469 O   0  0  0  0  0  0  0  0  0  0  0  0
   38.7459   15.6759    8.3952 C   0  0  1  0  0  0  0  0  0  0  0  0
   37.6006   15.9674    9.1604 O   0  0  0  0  0  0  0  0  0  0  0  0
   38.5913   14.3279    7.7221 C   0  0  1  0  0  0  0  0  0  0  0  0
   37.3755   13.7306    8.1087 O   0  0  0  0  0  0  0  0  0  0  0  0
   38.5843   14.6094    6.2294 C   0  0  2  0  0  0  0  0  0  0  0  0
   43.7040   18.6578    8.5093 O   0  0  0  0  0  0  0  0  0  0  0  0
   40.0803    9.7017    5.1139 N   0  0  0  0  0  0  0  0  0  0  0  0
   38.9883   10.1113    5.8524 C   0  0  0  0  0  0  0  0  0  0  0  0
   38.7455   11.4568    6.0462 N   0  0  0  0  0  0  0  0  0  0  0  0
   39.5774   12.3855    5.5149 C   0  0  0  0  0  0  0  0  0  0  0  0
   40.6811   11.9933    4.7697 C   0  0  0  0  0  0  0  0  0  0  0  0
   40.9321   10.6413    4.5692 C   0  0  0  0  0  0  0  0  0  0  0  0
   41.9867   10.2540    3.8579 N   0  0  0  0  0  0  0  0  0  0  0  0
   41.3275   13.1082    4.3658 N   0  0  0  0  0  0  0  0  0  0  0  0
   40.6640   14.1900    4.8345 C   0  0  0  0  0  0  0  0  0  0  0  0
   39.5765   13.7578    5.5489 N   0  0  0  0  0  0  0  0  0  0  0  0
  2  1  1  1  0  0  0
  2  3  1  0  0  0  0
  2  5  1  0  0  0  0
  3  4  1  0  0  0  0
  3 16  1  0  0  0  0
  5  6  1  0  0  0  0
  6  7  1  0  0  0  0
  7  8  1  0  0  0  0
  9  8  1  1  0  0  0
  9 10  1  0  0  0  0
  9 11  1  0  0  0  0
 10 15  1  0  0  0  0
 11 12  1  6  0  0  0
 11 13  1  0  0  0  0
 13 14  1  1  0  0  0
 13 15  1  0  0  0  0
 15 26  1  6  0  0  0
 17 18  2  0  0  0  0
 17 22  1  0  0  0  0
 18 19  1  0  0  0  0
 19 20  2  0  0  0  0
 20 21  1  0  0  0  0
 20 26  1  0  0  0  0
 21 22  2  0  0  0  0
 21 24  1  0  0  0  0
 22 23  1  0  0  0  0
 24 25  2  0  0  0  0
 25 26  1  0  0  0  0
M  END
>  <CHROM.1>
102.51234904,-162.46220107,-68.54916045,105.96186843,106.94308003,-61.09820103
179.94025738,40.57059677,15.20876619,6.53394900,-1.18774584,-0.51331141,-2.68809813

>  <Name>
ligand

>  <RI>
0

>  <Rbt.Current_Directory>
/home/itssahil/PROJECTS/Mol_Feturizer/New_Systems/rnas/3NPQ

>  <Rbt.Executable>
rbdock ($Id: //depot/dev/client3/rdock/2013.1/src/exe/rbdock.cxx#4 $)

>  <Rbt.Library>
libRbt.so (2013.1, Build901 2013/11/27)

>  <Rbt.Parameter_File>
/export/apps/rDock/src/rDock_2013.1_src/data/scripts/dock_solv.prm

>  <Rbt.Receptor>
prm/pocket_docking_6.prm

>  <SCORE>
-15.2214

>  <SCORE.INTER>
-13.5935

>  <SCORE.INTER.CONST>
1

>  <SCORE.INTER.POLAR>
0

>  <SCORE.INTER.ROT>
7

>  <SCORE.INTER.SOLV>
13.9219

>  <SCORE.INTER.VDW>
-21.9697

>  <SCORE.INTER.norm>
-0.522829

>  <SCORE.INTRA>
-1.62788

>  <SCORE.INTRA.DIHEDRAL>
1.31007

>  <SCORE.INTRA.DIHEDRAL.0>
6.97628

>  <SCORE.INTRA.POLAR>
0

>  <SCORE.INTRA.POLAR.0>
0

>  <SCORE.INTRA.REPUL>
0

>  <SCORE.INTRA.REPUL.0>
0

>  <SCORE.INTRA.SOLV>
-0.300735

>  <SCORE.INTRA.SOLV.lig_0>
-49.8243

>  <SCORE.INTRA.VDW>
-2.13254

>  <SCORE.INTRA.VDW.0>
-1.35881

>  <SCORE.INTRA.norm>
-0.0626106

>  <SCORE.RESTR>
0

>  <SCORE.RESTR.CAVITY>
0

>  <SCORE.RESTR.norm>
0

>  <SCORE.SYSTEM>
0

>  <SCORE.SYSTEM.CONST>
0

>  <SCORE.SYSTEM.DIHEDRAL>
0

>  <SCORE.SYSTEM.SOLV>
0

>  <SCORE.SYSTEM.norm>
0

>  <SCORE.heavy>
26

>  <SCORE.norm>
-0.585439

>  <RMSD>
5.103

$$$$
ligand
 OpenBabel11021811483D
libRbt.so/2013.1/901 2013/11/27
 26 28  0  0  0  0  0  0  0  0999 V2000
   35.7133   24.0143    5.5912 N   0  0  0  0  0  0  0  0  0  0  0  0
   36.0717   22.7836    6.2851 C   0  0  2  0  0  0  0  0  0  0  0  0
   37.5336   22.8031    6.7169 C   0  0  0  0  0  0  0  0  0  0  0  0
   38.2980   23.6840    6.3251 O   0  0  0  0  0  0  0  0  0  0  0  0
   35.8051   21.5738    5.3982 C   0  0  0  0  0  0  0  0  0  0  0  0
   35.9329   20.2361    6.1151 C   0  0  0  0  0  0  0  0  0  0  0  0
   34.7191   20.0423    7.4447 S   0  0  0  0  0  0  0  0  0  0  0  0
   35.8397   18.9115    8.3070 C   0  0  0  0  0  0  0  0  0  0  0  0
   35.2953   17.4899    8.3857 C   0  0  1  0  0  0  0  0  0  0  0  0
   35.5598   16.8035    7.1758 O   0  0  0  0  0  0  0  0  0  0  0  0
   35.9423   16.7058    9.5156 C   0  0  1  0  0  0  0  0  0  0  0  0
   34.9715   16.3496   10.4712 O   0  0  0  0  0  0  0  0  0  0  0  0
   36.5223   15.4613    8.8762 C   0  0  1  0  0  0  0  0  0  0  0  0
   35.9683   14.3096    9.4687 O   0  0  0  0  0  0  0  0  0  0  0  0
   36.1360   15.5319    7.4088 C   0  0  2  0  0  0  0  0  0  0  0  0
   37.9844   21.9380    7.4687 O   0  0  0  0  0  0  0  0  0  0  0  0
   40.0926   12.3547    6.0604 N   0  0  0  0  0  0  0  0  0  0  0  0
   39.0934   12.1243    6.9846 C   0  0  0  0  0  0  0  0  0  0  0  0
   38.1244   13.0811    7.2136 N   0  0  0  0  0  0  0  0  0  0  0  0
   38.1471   14.2539    6.5346 C   0  0  0  0  0  0  0  0  0  0  0  0
   39.1442   14.5043    5.6016 C   0  0  0  0  0  0  0  0  0  0  0  0
   40.1226   13.5463    5.3646 C   0  0  0  0  0  0  0  0  0  0  0  0
   41.0829   13.7757    4.4740 N   0  0  0  0  0  0  0  0  0  0  0  0
   38.9276   15.7316    5.0810 N   0  0  0  0  0  0  0  0  0  0  0  0
   37.8246   16.2609    5.6585 C   0  0  0  0  0  0  0  0  0  0  0  0
   37.3296   15.3562    6.5620 N   0  0  0  0  0  0  0  0  0  0  0  0
  2  1  1  6  0  0  0
  2  3  1  0  0  0  0
  2  5  1  0  0  0  0
  3  4  1  0  0  0  0
  3 16  1  0  0  0  0
  5  6  1  0  0  0  0
  6  7  1  0  0  0  0
  7  8  1  0  0  0  0
  9  8  1  6  0  0  0
  9 10  1  0  0  0  0
  9 11  1  0  0  0  0
 10 15  1  0  0  0  0
 11 12  1  1  0  0  0
 11 13  1  0  0  0  0
 13 14  1  1  0  0  0
 13 15  1  0  0  0  0
 15 26  1  6  0  0  0
 17 18  2  0  0  0  0
 17 22  1  0  0  0  0
 18 19  1  0  0  0  0
 19 20  2  0  0  0  0
 20 21  1  0  0  0  0
 20 26  1  0  0  0  0
 21 22  2  0  0  0  0
 21 24  1  0  0  0  0
 22 23  1  0  0  0  0
 24 25  2  0  0  0  0
 25 26  1  0  0  0  0
M  END
>  <CHROM.1>
-9.66434615,-170.50172651,63.06293632,-153.15354457,-114.08615400,82.02383008
179.19366185,37.06983645,17.51181973,7.00923544,-1.93521383,-0.72681235,2.89414614

>  <Name>
ligand

>  <RI>
0

>  <Rbt.Current_Directory>
/home/itssahil/PROJECTS/Mol_Feturizer/New_Systems/rnas/3NPQ

>  <Rbt.Executable>
rbdock ($Id: //depot/dev/client3/rdock/2013.1/src/exe/rbdock.cxx#4 $)

>  <Rbt.Library>
libRbt.so (2013.1, Build901 2013/11/27)

>  <Rbt.Parameter_File>
/export/apps/rDock/src/rDock_2013.1_src/data/scripts/dock_solv.prm

>  <Rbt.Receptor>
prm/pocket_docking_8.prm

>  <SCORE>
-19.7486

>  <SCORE.INTER>
-18.7488

>  <SCORE.INTER.CONST>
1

>  <SCORE.INTER.POLAR>
0

>  <SCORE.INTER.ROT>
7

>  <SCORE.INTER.SOLV>
13.7228

>  <SCORE.INTER.VDW>
-25.3401

>  <SCORE.INTER.norm>
-0.721109

>  <SCORE.INTRA>
-0.999807

>  <SCORE.INTRA.DIHEDRAL>
0.98342

>  <SCORE.INTRA.DIHEDRAL.0>
6.97628

>  <SCORE.INTRA.POLAR>
0

>  <SCORE.INTRA.POLAR.0>
0

>  <SCORE.INTRA.REPUL>
0

>  <SCORE.INTRA.REPUL.0>
0

>  <SCORE.INTRA.SOLV>
-0.637823

>  <SCORE.INTRA.SOLV.lig_0>
-49.8243

>  <SCORE.INTRA.VDW>
-1.17261

>  <SCORE.INTRA.VDW.0>
-1.35881

>  <SCORE.INTRA.norm>
-0.0384541

>  <SCORE.RESTR>
0

>  <SCORE.RESTR.CAVITY>
0

>  <SCORE.RESTR.norm>
0

>  <SCORE.SYSTEM>
0

>  <SCORE.SYSTEM.CONST>
0

>  <SCORE.SYSTEM.DIHEDRAL>
0

>  <SCORE.SYSTEM.SOLV>
0

>  <SCORE.SYSTEM.norm>
0

>  <SCORE.heavy>
26

>  <SCORE.norm>
-0.759563

>  <RMSD>
5.109

$$$$
ligand
 OpenBabel11021811483D
libRbt.so/2013.1/901 2013/11/27
 26 28  0  0  0  0  0  0  0  0999 V2000
   38.4543   19.7702    3.7619 N   0  0  0  0  0  0  0  0  0  0  0  0
   37.3286   19.0358    4.3259 C   0  0  2  0  0  0  0  0  0  0  0  0
   36.5301   18.3326    3.2342 C   0  0  0  0  0  0  0  0  0  0  0  0
   36.1706   17.1633    3.3660 O   0  0  0  0  0  0  0  0  0  0  0  0
   36.4222   19.9720    5.1153 C   0  0  0  0  0  0  0  0  0  0  0  0
   37.0024   20.4215    6.4499 C   0  0  0  0  0  0  0  0  0  0  0  0
   37.3413   19.0336    7.5622 S   0  0  0  0  0  0  0  0  0  0  0  0
   35.5675   18.8445    7.8718 C   0  0  0  0  0  0  0  0  0  0  0  0
   35.1570   17.3904    8.0732 C   0  0  1  0  0  0  0  0  0  0  0  0
   35.5068   16.6272    6.9330 O   0  0  0  0  0  0  0  0  0  0  0  0
   35.8536   16.7748    9.2758 C   0  0  1  0  0  0  0  0  0  0  0  0
   34.9029   16.4147   10.2499 O   0  0  0  0  0  0  0  0  0  0  0  0
   36.5592   15.5390    8.7572 C   0  0  1  0  0  0  0  0  0  0  0  0
   36.1044   14.3974    9.4458 O   0  0  0  0  0  0  0  0  0  0  0  0
   36.1951   15.4418    7.2857 C   0  0  2  0  0  0  0  0  0  0  0  0
   36.2252   18.9181    2.1945 O   0  0  0  0  0  0  0  0  0  0  0  0
   40.2227   12.3478    5.9542 N   0  0  0  0  0  0  0  0  0  0  0  0
   39.1986   12.0777    6.8395 C   0  0  0  0  0  0  0  0  0  0  0  0
   38.2134   13.0173    7.0703 N   0  0  0  0  0  0  0  0  0  0  0  0
   38.2445   14.2121    6.4313 C   0  0  0  0  0  0  0  0  0  0  0  0
   39.2665   14.5026    5.5378 C   0  0  0  0  0  0  0  0  0  0  0  0
   40.2613   13.5621    5.2991 C   0  0  0  0  0  0  0  0  0  0  0  0
   41.2456   13.8298    4.4461 N   0  0  0  0  0  0  0  0  0  0  0  0
   39.0531   15.7444    5.0515 N   0  0  0  0  0  0  0  0  0  0  0  0
   37.9279   16.2441    5.6123 C   0  0  0  0  0  0  0  0  0  0  0  0
   37.4153   15.3053    6.4701 N   0  0  0  0  0  0  0  0  0  0  0  0
  2  1  1  6  0  0  0
  2  3  1  0  0  0  0
  2  5  1  0  0  0  0
  3  4  1  0  0  0  0
  3 16  1  0  0  0  0
  5  6  1  0  0  0  0
  6  7  1  0  0  0  0
  7  8  1  0  0  0  0
  9  8  1  6  0  0  0
  9 10  1  0  0  0  0
  9 11  1  0  0  0  0
 10 15  1  0  0  0  0
 11 12  1  1  0  0  0
 11 13  1  0  0  0  0
 13 14  1  1  0  0  0
 13 15  1  0  0  0  0
 15 26  1  6  0  0  0
 17 18  2  0  0  0  0
 17 22  1  0  0  0  0
 18 19  1  0  0  0  0
 19 20  2  0  0  0  0
 20 21  1  0  0  0  0
 20 26  1  0  0  0  0
 21 22  2  0  0  0  0
 21 24  1  0  0  0  0
 22 23  1  0  0  0  0
 24 25  2  0  0  0  0
 25 26  1  0  0  0  0
M  END
>  <CHROM.1>
134.49944426,-73.20468528,-60.05177073,-73.98238166,145.61971316,-58.33448546
-172.20145532,37.33111302,16.52465737,6.32955880,-2.28697131,-0.91509520
2.37462148

>  <Name>
ligand

>  <RI>
0

>  <Rbt.Current_Directory>
/home/itssahil/PROJECTS/Mol_Feturizer/New_Systems/rnas/3NPQ

>  <Rbt.Executable>
rbdock ($Id: //depot/dev/client3/rdock/2013.1/src/exe/rbdock.cxx#4 $)

>  <Rbt.Library>
libRbt.so (2013.1, Build901 2013/11/27)

>  <Rbt.Parameter_File>
/export/apps/rDock/src/rDock_2013.1_src/data/scripts/dock_solv.prm

>  <Rbt.Receptor>
prm/pocket_docking_7.prm

>  <SCORE>
-20.2073

>  <SCORE.INTER>
-17.0531

>  <SCORE.INTER.CONST>
1

>  <SCORE.INTER.POLAR>
0

>  <SCORE.INTER.ROT>
7

>  <SCORE.INTER.SOLV>
10.1233

>  <SCORE.INTER.VDW>
-23.0098

>  <SCORE.INTER.norm>
-0.655888

>  <SCORE.INTRA>
-3.15419

>  <SCORE.INTRA.DIHEDRAL>
-1.83072

>  <SCORE.INTRA.DIHEDRAL.0>
6.97628

>  <SCORE.INTRA.POLAR>
0

>  <SCORE.INTRA.POLAR.0>
0

>  <SCORE.INTRA.REPUL>
0

>  <SCORE.INTRA.REPUL.0>
0

>  <SCORE.INTRA.SOLV>
0.63771

>  <SCORE.INTRA.SOLV.lig_0>
-49.8243

>  <SCORE.INTRA.VDW>
-2.55769

>  <SCORE.INTRA.VDW.0>
-1.35881

>  <SCORE.INTRA.norm>
-0.121315

>  <SCORE.RESTR>
0

>  <SCORE.RESTR.CAVITY>
0

>  <SCORE.RESTR.norm>
0

>  <SCORE.SYSTEM>
0

>  <SCORE.SYSTEM.CONST>
0

>  <SCORE.SYSTEM.DIHEDRAL>
0

>  <SCORE.SYSTEM.SOLV>
0

>  <SCORE.SYSTEM.norm>
0

>  <SCORE.heavy>
26

>  <SCORE.norm>
-0.777203

>  <RMSD>
5.119

$$$$
ligand
 OpenBabel11021811483D
libRbt.so/2013.1/901 2013/11/27
 26 28  0  0  0  0  0  0  0  0999 V2000
   39.8346   17.8703    2.7845 N   0  0  0  0  0  0  0  0  0  0  0  0
   38.6706   17.6273    3.6275 C   0  0  2  0  0  0  0  0  0  0  0  0
   37.7228   16.6251    2.9785 C   0  0  0  0  0  0  0  0  0  0  0  0
   36.7597   16.1725    3.5962 O   0  0  0  0  0  0  0  0  0  0  0  0
   37.9365   18.9315    3.9126 C   0  0  0  0  0  0  0  0  0  0  0  0
   36.8415   18.8124    4.9645 C   0  0  0  0  0  0  0  0  0  0  0  0
   37.5028   18.5281    6.6259 S   0  0  0  0  0  0  0  0  0  0  0  0
   35.8193   18.3619    7.2711 C   0  0  0  0  0  0  0  0  0  0  0  0
   35.4375   16.9134    7.5531 C   0  0  1  0  0  0  0  0  0  0  0  0
   35.9677   16.0694    6.5474 O   0  0  0  0  0  0  0  0  0  0  0  0
   35.9839   16.4421    8.8908 C   0  0  1  0  0  0  0  0  0  0  0  0
   34.9220   16.1247    9.7591 O   0  0  0  0  0  0  0  0  0  0  0  0
   36.7979   15.2005    8.5908 C   0  0  1  0  0  0  0  0  0  0  0  0
   36.2941   14.1042    9.3179 O   0  0  0  0  0  0  0  0  0  0  0  0
   36.6431   14.9549    7.0998 C   0  0  2  0  0  0  0  0  0  0  0  0
   37.8980   16.2448    1.8203 O   0  0  0  0  0  0  0  0  0  0  0  0
   40.3484   11.6019    5.4888 N   0  0  0  0  0  0  0  0  0  0  0  0
   39.1389   11.3103    6.0868 C   0  0  0  0  0  0  0  0  0  0  0  0
   38.2788   12.3285    6.4480 N   0  0  0  0  0  0  0  0  0  0  0  0
   38.6154   13.6214    6.2200 C   0  0  0  0  0  0  0  0  0  0  0  0
   39.8275   13.9347    5.6202 C   0  0  0  0  0  0  0  0  0  0  0  0
   40.6984   12.9160    5.2529 C   0  0  0  0  0  0  0  0  0  0  0  0
   41.8625   13.2043    4.6786 N   0  0  0  0  0  0  0  0  0  0  0  0
   39.9038   15.2790    5.5143 N   0  0  0  0  0  0  0  0  0  0  0  0
   38.7763   15.8209    6.0295 C   0  0  0  0  0  0  0  0  0  0  0  0
   37.9678   14.8054    6.4710 N   0  0  0  0  0  0  0  0  0  0  0  0
  2  1  1  6  0  0  0
  2  3  1  0  0  0  0
  2  5  1  0  0  0  0
  3  4  1  0  0  0  0
  3 16  1  0  0  0  0
  5  6  1  0  0  0  0
  6  7  1  0  0  0  0
  7  8  1  0  0  0  0
  9  8  1  6  0  0  0
  9 10  1  0  0  0  0
  9 11  1  0  0  0  0
 10 15  1  0  0  0  0
 11 12  1  1  0  0  0
 11 13  1  0  0  0  0
 13 14  1  1  0  0  0
 13 15  1  0  0  0  0
 15 26  1  6  0  0  0
 17 18  2  0  0  0  0
 17 22  1  0  0  0  0
 18 19  1  0  0  0  0
 19 20  2  0  0  0  0
 20 21  1  0  0  0  0
 20 26  1  0  0  0  0
 21 22  2  0  0  0  0
 21 24  1  0  0  0  0
 22 23  1  0  0  0  0
 24 25  2  0  0  0  0
 25 26  1  0  0  0  0
M  END
>  <CHROM.1>
171.68617659,-170.63394793,69.48578360,-175.81688485,104.23404971,-38.53071554
-146.26561401,37.85570203,15.71973791,5.93428649,-0.30704220,0.85793121,-0.68479941

>  <Name>
ligand

>  <RI>
0

>  <Rbt.Current_Directory>
/home/itssahil/PROJECTS/Mol_Feturizer/New_Systems/rnas/3NPQ

>  <Rbt.Executable>
rbdock ($Id: //depot/dev/client3/rdock/2013.1/src/exe/rbdock.cxx#4 $)

>  <Rbt.Library>
libRbt.so (2013.1, Build901 2013/11/27)

>  <Rbt.Parameter_File>
/export/apps/rDock/src/rDock_2013.1_src/data/scripts/dock_solv.prm

>  <Rbt.Receptor>
prm/pocket_docking_4.prm

>  <SCORE>
-17.6037

>  <SCORE.INTER>
-14.4954

>  <SCORE.INTER.CONST>
1

>  <SCORE.INTER.POLAR>
0

>  <SCORE.INTER.ROT>
7

>  <SCORE.INTER.SOLV>
11.08

>  <SCORE.INTER.VDW>
-21.6236

>  <SCORE.INTER.norm>
-0.557517

>  <SCORE.INTRA>
-3.11028

>  <SCORE.INTRA.DIHEDRAL>
-0.0992482

>  <SCORE.INTRA.DIHEDRAL.0>
6.97628

>  <SCORE.INTRA.POLAR>
0

>  <SCORE.INTRA.POLAR.0>
0

>  <SCORE.INTRA.REPUL>
0

>  <SCORE.INTRA.REPUL.0>
0

>  <SCORE.INTRA.SOLV>
-0.153297

>  <SCORE.INTRA.SOLV.lig_0>
-49.8243

>  <SCORE.INTRA.VDW>
-2.98401

>  <SCORE.INTRA.VDW.0>
-1.35881

>  <SCORE.INTRA.norm>
-0.119626

>  <SCORE.RESTR>
0.00197427

>  <SCORE.RESTR.CAVITY>
0.00197427

>  <SCORE.RESTR.norm>
7.59334e-05

>  <SCORE.SYSTEM>
0

>  <SCORE.SYSTEM.CONST>
0

>  <SCORE.SYSTEM.DIHEDRAL>
0

>  <SCORE.SYSTEM.SOLV>
0

>  <SCORE.SYSTEM.norm>
0

>  <SCORE.heavy>
26

>  <SCORE.norm>
-0.677067

>  <RMSD>
5.125

$$$$
ligand
 OpenBabel11021811483D
libRbt.so/2013.1/901 2013/11/27
 26 28  0  0  0  0  0  0  0  0999 V2000
   38.3702   21.0042    4.1581 N   0  0  0  0  0  0  0  0  0  0  0  0
   37.7150   21.5293    5.3496 C   0  0  2  0  0  0  0  0  0  0  0  0
   38.6987   21.6515    6.5078 C   0  0  0  0  0  0  0  0  0  0  0  0
   38.5974   22.5597    7.3316 O   0  0  0  0  0  0  0  0  0  0  0  0
   36.5441   20.6407    5.7502 C   0  0  0  0  0  0  0  0  0  0  0  0
   35.7761   21.1350    6.9690 C   0  0  0  0  0  0  0  0  0  0  0  0
   34.4487   20.0050    7.4584 S   0  0  0  0  0  0  0  0  0  0  0  0
   35.6582   18.9325    8.2740 C   0  0  0  0  0  0  0  0  0  0  0  0
   35.1957   17.4827    8.3597 C   0  0  1  0  0  0  0  0  0  0  0  0
   35.4799   16.8123    7.1453 O   0  0  0  0  0  0  0  0  0  0  0  0
   35.9029   16.7360    9.4789 C   0  0  1  0  0  0  0  0  0  0  0  0
   34.9683   16.3259   10.4488 O   0  0  0  0  0  0  0  0  0  0  0  0
   36.5421   15.5261    8.8296 C   0  0  1  0  0  0  0  0  0  0  0  0
   36.0627   14.3451    9.4294 O   0  0  0  0  0  0  0  0  0  0  0  0
   36.1301   15.5750    7.3683 C   0  0  2  0  0  0  0  0  0  0  0  0
   39.6180   20.8438    6.6469 O   0  0  0  0  0  0  0  0  0  0  0  0
   40.2068   12.6014    5.9174 N   0  0  0  0  0  0  0  0  0  0  0  0
   39.2318   12.3117    6.8507 C   0  0  0  0  0  0  0  0  0  0  0  0
   38.2239   13.2200    7.1077 N   0  0  0  0  0  0  0  0  0  0  0  0
   38.1845   14.4030    6.4474 C   0  0  0  0  0  0  0  0  0  0  0  0
   39.1563   14.7127    5.5057 C   0  0  0  0  0  0  0  0  0  0  0  0
   40.1735   13.8038    5.2405 C   0  0  0  0  0  0  0  0  0  0  0  0
   41.1102   14.0902    4.3412 N   0  0  0  0  0  0  0  0  0  0  0  0
   38.8775   15.9369    5.0078 N   0  0  0  0  0  0  0  0  0  0  0  0
   37.7599   16.4068    5.6081 C   0  0  0  0  0  0  0  0  0  0  0  0
   37.3186   15.4666    6.5032 N   0  0  0  0  0  0  0  0  0  0  0  0
  2  1  1  6  0  0  0
  2  3  1  0  0  0  0
  2  5  1  0  0  0  0
  3  4  1  0  0  0  0
  3 16  1  0  0  0  0
  5  6  1  0  0  0  0
  6  7  1  0  0  0  0
  7  8  1  0  0  0  0
  9  8  1  6  0  0  0
  9 10  1  0  0  0  0
  9 11  1  0  0  0  0
 10 15  1  0  0  0  0
 11 12  1  1  0  0  0
 11 13  1  0  0  0  0
 13 14  1  1  0  0  0
 13 15  1  0  0  0  0
 15 26  1  6  0  0  0
 17 18  2  0  0  0  0
 17 22  1  0  0  0  0
 18 19  1  0  0  0  0
 19 20  2  0  0  0  0
 20 21  1  0  0  0  0
 20 26  1  0  0  0  0
 21 22  2  0  0  0  0
 21 24  1  0  0  0  0
 22 23  1  0  0  0  0
 24 25  2  0  0  0  0
 25 26  1  0  0  0  0
M  END
>  <CHROM.1>
146.23896327,-178.50181363,-177.05524229,79.44028416,-154.21363127,83.13691049
-179.71914196,37.34596156,17.29455273,6.92547040,-1.91676675,-0.67777155
2.96206400

>  <Name>
ligand

>  <RI>
0

>  <Rbt.Current_Directory>
/home/itssahil/PROJECTS/Mol_Feturizer/New_Systems/rnas/3NPQ

>  <Rbt.Executable>
rbdock ($Id: //depot/dev/client3/rdock/2013.1/src/exe/rbdock.cxx#4 $)

>  <Rbt.Library>
libRbt.so (2013.1, Build901 2013/11/27)

>  <Rbt.Parameter_File>
/export/apps/rDock/src/rDock_2013.1_src/data/scripts/dock_solv.prm

>  <Rbt.Receptor>
prm/pocket_docking_8.prm

>  <SCORE>
-18.8744

>  <SCORE.INTER>
-17.1413

>  <SCORE.INTER.CONST>
1

>  <SCORE.INTER.POLAR>
0

>  <SCORE.INTER.ROT>
7

>  <SCORE.INTER.SOLV>
10.4963

>  <SCORE.INTER.VDW>
-23.193

>  <SCORE.INTER.norm>
-0.659281

>  <SCORE.INTRA>
-1.73309

>  <SCORE.INTRA.DIHEDRAL>
-1.04923

>  <SCORE.INTRA.DIHEDRAL.0>
6.97628

>  <SCORE.INTRA.POLAR>
0

>  <SCORE.INTRA.POLAR.0>
0

>  <SCORE.INTRA.REPUL>
0

>  <SCORE.INTRA.REPUL.0>
0

>  <SCORE.INTRA.SOLV>
-0.874081

>  <SCORE.INTRA.SOLV.lig_0>
-49.8243

>  <SCORE.INTRA.VDW>
-0.771434

>  <SCORE.INTRA.VDW.0>
-1.35881

>  <SCORE.INTRA.norm>
-0.0666572

>  <SCORE.RESTR>
0

>  <SCORE.RESTR.CAVITY>
0

>  <SCORE.RESTR.norm>
0

>  <SCORE.SYSTEM>
0

>  <SCORE.SYSTEM.CONST>
0

>  <SCORE.SYSTEM.DIHEDRAL>
0

>  <SCORE.SYSTEM.SOLV>
0

>  <SCORE.SYSTEM.norm>
0

>  <SCORE.heavy>
26

>  <SCORE.norm>
-0.725938

>  <RMSD>
5.147

$$$$
ligand
 OpenBabel11021811483D
libRbt.so/2013.1/901 2013/11/27
 26 28  0  0  0  0  0  0  0  0999 V2000
   38.5321   19.8591    3.8960 N   0  0  0  0  0  0  0  0  0  0  0  0
   37.4011   19.1053    4.4223 C   0  0  2  0  0  0  0  0  0  0  0  0
   36.5856   18.4814    3.2955 C   0  0  0  0  0  0  0  0  0  0  0  0
   36.3459   19.1089    2.2647 O   0  0  0  0  0  0  0  0  0  0  0  0
   36.5127   20.0019    5.2755 C   0  0  0  0  0  0  0  0  0  0  0  0
   37.1360   20.4145    6.6025 C   0  0  0  0  0  0  0  0  0  0  0  0
   37.4530   19.0017    7.6897 S   0  0  0  0  0  0  0  0  0  0  0  0
   35.6935   18.9264    8.1101 C   0  0  0  0  0  0  0  0  0  0  0  0
   35.1879   17.4977    8.2721 C   0  0  1  0  0  0  0  0  0  0  0  0
   35.4765   16.7477    7.1063 O   0  0  0  0  0  0  0  0  0  0  0  0
   35.8510   16.8006    9.4489 C   0  0  1  0  0  0  0  0  0  0  0  0
   34.8861   16.4755   10.4212 O   0  0  0  0  0  0  0  0  0  0  0  0
   36.4678   15.5366    8.8867 C   0  0  1  0  0  0  0  0  0  0  0  0
   35.9428   14.4076    9.5455 O   0  0  0  0  0  0  0  0  0  0  0  0
   36.0863   15.5087    7.4166 C   0  0  2  0  0  0  0  0  0  0  0  0
   36.1475   17.3342    3.3898 O   0  0  0  0  0  0  0  0  0  0  0  0
   40.0303   12.2864    6.1405 N   0  0  0  0  0  0  0  0  0  0  0  0
   39.0185   12.0723    7.0548 C   0  0  0  0  0  0  0  0  0  0  0  0
   38.0552   13.0392    7.2646 N   0  0  0  0  0  0  0  0  0  0  0  0
   38.0962   14.2062    6.5764 C   0  0  0  0  0  0  0  0  0  0  0  0
   39.1061   14.4403    5.6531 C   0  0  0  0  0  0  0  0  0  0  0  0
   40.0788   13.4719    5.4354 C   0  0  0  0  0  0  0  0  0  0  0  0
   41.0514   13.6857    4.5542 N   0  0  0  0  0  0  0  0  0  0  0  0
   38.9064   15.6650    5.1201 N   0  0  0  0  0  0  0  0  0  0  0  0
   37.8014   16.2086    5.6803 C   0  0  0  0  0  0  0  0  0  0  0  0
   37.2880   15.3157    6.5852 N   0  0  0  0  0  0  0  0  0  0  0  0
  2  1  1  6  0  0  0
  2  3  1  0  0  0  0
  2  5  1  0  0  0  0
  3  4  1  0  0  0  0
  3 16  1  0  0  0  0
  5  6  1  0  0  0  0
  6  7  1  0  0  0  0
  7  8  1  0  0  0  0
  9  8  1  6  0  0  0
  9 10  1  0  0  0  0
  9 11  1  0  0  0  0
 10 15  1  0  0  0  0
 11 12  1  1  0  0  0
 11 13  1  0  0  0  0
 13 14  1  1  0  0  0
 13 15  1  0  0  0  0
 15 26  1  6  0  0  0
 17 18  2  0  0  0  0
 17 22  1  0  0  0  0
 18 19  1  0  0  0  0
 19 20  2  0  0  0  0
 20 21  1  0  0  0  0
 20 26  1  0  0  0  0
 21 22  2  0  0  0  0
 21 24  1  0  0  0  0
 22 23  1  0  0  0  0
 24 25  2  0  0  0  0
 25 26  1  0  0  0  0
M  END
>  <CHROM.1>
-41.36034772,-70.43546165,-63.07091937,-77.02531069,142.97752543,-54.86743400
-177.16290743,37.29413816,16.55097377,6.46308528,-2.17201471,-0.94677350
2.40978281

>  <Name>
ligand

>  <RI>
0

>  <Rbt.Current_Directory>
/home/itssahil/PROJECTS/Mol_Feturizer/New_Systems/rnas/3NPQ

>  <Rbt.Executable>
rbdock ($Id: //depot/dev/client3/rdock/2013.1/src/exe/rbdock.cxx#4 $)

>  <Rbt.Library>
libRbt.so (2013.1, Build901 2013/11/27)

>  <Rbt.Parameter_File>
/export/apps/rDock/src/rDock_2013.1_src/data/scripts/dock_solv.prm

>  <Rbt.Receptor>
prm/pocket_docking_6.prm

>  <SCORE>
-20.1717

>  <SCORE.INTER>
-17.0414

>  <SCORE.INTER.CONST>
1

>  <SCORE.INTER.POLAR>
0

>  <SCORE.INTER.ROT>
7

>  <SCORE.INTER.SOLV>
10.9853

>  <SCORE.INTER.VDW>
-23.2894

>  <SCORE.INTER.norm>
-0.655439

>  <SCORE.INTRA>
-3.13034

>  <SCORE.INTRA.DIHEDRAL>
-1.66006

>  <SCORE.INTRA.DIHEDRAL.0>
6.97628

>  <SCORE.INTRA.POLAR>
0

>  <SCORE.INTRA.POLAR.0>
0

>  <SCORE.INTRA.REPUL>
0

>  <SCORE.INTRA.REPUL.0>
0

>  <SCORE.INTRA.SOLV>
0.643182

>  <SCORE.INTRA.SOLV.lig_0>
-49.8243

>  <SCORE.INTRA.VDW>
-2.62191

>  <SCORE.INTRA.VDW.0>
-1.35881

>  <SCORE.INTRA.norm>
-0.120398

>  <SCORE.RESTR>
0

>  <SCORE.RESTR.CAVITY>
0

>  <SCORE.RESTR.norm>
0

>  <SCORE.SYSTEM>
0

>  <SCORE.SYSTEM.CONST>
0

>  <SCORE.SYSTEM.DIHEDRAL>
0

>  <SCORE.SYSTEM.SOLV>
0

>  <SCORE.SYSTEM.norm>
0

>  <SCORE.heavy>
26

>  <SCORE.norm>
-0.775836

>  <RMSD>
5.162

$$$$
ligand
 OpenBabel11021811483D
libRbt.so/2013.1/901 2013/11/27
 26 28  0  0  0  0  0  0  0  0999 V2000
   37.0652   20.1719    2.9734 N   0  0  0  0  0  0  0  0  0  0  0  0
   37.8931   19.0397    3.3701 C   0  0  2  0  0  0  0  0  0  0  0  0
   37.1929   17.7181    3.0750 C   0  0  0  0  0  0  0  0  0  0  0  0
   37.7801   16.8062    2.4940 O   0  0  0  0  0  0  0  0  0  0  0  0
   38.2424   19.1267    4.8504 C   0  0  0  0  0  0  0  0  0  0  0  0
   37.0330   19.1315    5.7762 C   0  0  0  0  0  0  0  0  0  0  0  0
   37.4921   18.9580    7.5190 S   0  0  0  0  0  0  0  0  0  0  0  0
   35.7417   18.8862    7.9763 C   0  0  0  0  0  0  0  0  0  0  0  0
   35.2427   17.4593    8.1719 C   0  0  1  0  0  0  0  0  0  0  0  0
   35.5559   16.6775    7.0337 O   0  0  0  0  0  0  0  0  0  0  0  0
   35.8903   16.8018    9.3796 C   0  0  1  0  0  0  0  0  0  0  0  0
   34.9112   16.4987   10.3449 O   0  0  0  0  0  0  0  0  0  0  0  0
   36.5247   15.5262    8.8655 C   0  0  1  0  0  0  0  0  0  0  0  0
   35.9961   14.4134    9.5484 O   0  0  0  0  0  0  0  0  0  0  0  0
   36.1684   15.4524    7.3906 C   0  0  2  0  0  0  0  0  0  0  0  0
   36.0230   17.5312    3.4115 O   0  0  0  0  0  0  0  0  0  0  0  0
   40.0755   12.1635    6.1723 N   0  0  0  0  0  0  0  0  0  0  0  0
   39.0383   11.9607    7.0603 C   0  0  0  0  0  0  0  0  0  0  0  0
   38.0901   12.9449    7.2580 N   0  0  0  0  0  0  0  0  0  0  0  0
   38.1708   14.1178    6.5836 C   0  0  0  0  0  0  0  0  0  0  0  0
   39.2068   14.3407    5.6868 C   0  0  0  0  0  0  0  0  0  0  0  0
   40.1646   13.3550    5.4814 C   0  0  0  0  0  0  0  0  0  0  0  0
   41.1618   13.5579    4.6255 N   0  0  0  0  0  0  0  0  0  0  0  0
   39.0445   15.5748    5.1625 N   0  0  0  0  0  0  0  0  0  0  0  0
   37.9378   16.1351    5.7025 C   0  0  0  0  0  0  0  0  0  0  0  0
   37.3853   15.2435    6.5856 N   0  0  0  0  0  0  0  0  0  0  0  0
  2  1  1  1  0  0  0
  2  3  1  0  0  0  0
  2  5  1  0  0  0  0
  3  4  1  0  0  0  0
  3 16  1  0  0  0  0
  5  6  1  0  0  0  0
  6  7  1  0  0  0  0
  7  8  1  0  0  0  0
  9  8  1  6  0  0  0
  9 10  1  0  0  0  0
  9 11  1  0  0  0  0
 10 15  1  0  0  0  0
 11 12  1  1  0  0  0
 11 13  1  0  0  0  0
 13 14  1  1  0  0  0
 13 15  1  0  0  0  0
 15 26  1  6  0  0  0
 17 18  2  0  0  0  0
 17 22  1  0  0  0  0
 18 19  1  0  0  0  0
 19 20  2  0  0  0  0
 20 21  1  0  0  0  0
 20 26  1  0  0  0  0
 21 22  2  0  0  0  0
 21 24  1  0  0  0  0
 22 23  1  0  0  0  0
 24 25  2  0  0  0  0
 25 26  1  0  0  0  0
M  END
>  <CHROM.1>
131.78298210,59.70377555,170.46214698,-175.23932931,98.07594495,-52.59510330
-174.36719868,37.44172431,16.32032134,6.32458113,-2.13573689,-0.93478073
2.38058304

>  <Name>
ligand

>  <RI>
0

>  <Rbt.Current_Directory>
/home/itssahil/PROJECTS/Mol_Feturizer/New_Systems/rnas/3NPQ

>  <Rbt.Executable>
rbdock ($Id: //depot/dev/client3/rdock/2013.1/src/exe/rbdock.cxx#4 $)

>  <Rbt.Library>
libRbt.so (2013.1, Build901 2013/11/27)

>  <Rbt.Parameter_File>
/export/apps/rDock/src/rDock_2013.1_src/data/scripts/dock_solv.prm

>  <Rbt.Receptor>
prm/pocket_docking_7.prm

>  <SCORE>
-17.9341

>  <SCORE.INTER>
-14.3531

>  <SCORE.INTER.CONST>
1

>  <SCORE.INTER.POLAR>
0

>  <SCORE.INTER.ROT>
7

>  <SCORE.INTER.SOLV>
12.1454

>  <SCORE.INTER.VDW>
-21.8839

>  <SCORE.INTER.norm>
-0.552044

>  <SCORE.INTRA>
-3.58097

>  <SCORE.INTRA.DIHEDRAL>
-2.04433

>  <SCORE.INTRA.DIHEDRAL.0>
6.97628

>  <SCORE.INTRA.POLAR>
0

>  <SCORE.INTRA.POLAR.0>
0

>  <SCORE.INTRA.REPUL>
0

>  <SCORE.INTRA.REPUL.0>
0

>  <SCORE.INTRA.SOLV>
0.201623

>  <SCORE.INTRA.SOLV.lig_0>
-49.8243

>  <SCORE.INTRA.VDW>
-2.65962

>  <SCORE.INTRA.VDW.0>
-1.35881

>  <SCORE.INTRA.norm>
-0.13773

>  <SCORE.RESTR>
0

>  <SCORE.RESTR.CAVITY>
0

>  <SCORE.RESTR.norm>
0

>  <SCORE.SYSTEM>
0

>  <SCORE.SYSTEM.CONST>
0

>  <SCORE.SYSTEM.DIHEDRAL>
0

>  <SCORE.SYSTEM.SOLV>
0

>  <SCORE.SYSTEM.norm>
0

>  <SCORE.heavy>
26

>  <SCORE.norm>
-0.689774

>  <RMSD>
5.195

$$$$
ligand
 OpenBabel11021811483D
libRbt.so/2013.1/901 2013/11/27
 26 28  0  0  0  0  0  0  0  0999 V2000
   37.6253   16.7412    8.0770 N   0  0  0  0  0  0  0  0  0  0  0  0
   36.6327   15.6803    7.9597 C   0  0  2  0  0  0  0  0  0  0  0  0
   35.5459   15.8263    9.0188 C   0  0  0  0  0  0  0  0  0  0  0  0
   34.3564   15.7124    8.7256 O   0  0  0  0  0  0  0  0  0  0  0  0
   37.2957   14.3136    8.0765 C   0  0  0  0  0  0  0  0  0  0  0  0
   38.2998   14.0123    6.9715 C   0  0  0  0  0  0  0  0  0  0  0  0
   38.7897   12.2696    6.9350 S   0  0  0  0  0  0  0  0  0  0  0  0
   40.2021   12.6856    5.8813 C   0  0  0  0  0  0  0  0  0  0  0  0
   40.2400   11.8652    4.5972 C   0  0  1  0  0  0  0  0  0  0  0  0
   41.1303   12.4595    3.6702 O   0  0  0  0  0  0  0  0  0  0  0  0
   40.7175   10.4455    4.8552 C   0  0  1  0  0  0  0  0  0  0  0  0
   39.6937    9.5300    4.5455 O   0  0  0  0  0  0  0  0  0  0  0  0
   41.9003   10.2330    3.9333 C   0  0  1  0  0  0  0  0  0  0  0  0
   41.6570    9.1405    3.0780 O   0  0  0  0  0  0  0  0  0  0  0  0
   42.0291   11.5122    3.1242 C   0  0  2  0  0  0  0  0  0  0  0  0
   35.8325   16.0611   10.1933 O   0  0  0  0  0  0  0  0  0  0  0  0
   47.0744   10.6284    1.9704 N   0  0  0  0  0  0  0  0  0  0  0  0
   45.9862    9.8226    1.7017 C   0  0  0  0  0  0  0  0  0  0  0  0
   44.7185   10.2173    2.0810 N   0  0  0  0  0  0  0  0  0  0  0  0
   44.5324   11.3973    2.7212 C   0  0  0  0  0  0  0  0  0  0  0  0
   45.6142   12.2211    3.0009 C   0  0  0  0  0  0  0  0  0  0  0  0
   46.8931   11.8317    2.6217 C   0  0  0  0  0  0  0  0  0  0  0  0
   47.9369   12.6123    2.8852 N   0  0  0  0  0  0  0  0  0  0  0  0
   45.1480   13.3183    3.6358 N   0  0  0  0  0  0  0  0  0  0  0  0
   43.8057   13.2095    3.7642 C   0  0  0  0  0  0  0  0  0  0  0  0
   43.4094   12.0235    3.2017 N   0  0  0  0  0  0  0  0  0  0  0  0
  2  1  1  1  0  0  0
  2  3  1  0  0  0  0
  2  5  1  0  0  0  0
  3  4  1  0  0  0  0
  3 16  1  0  0  0  0
  5  6  1  0  0  0  0
  6  7  1  0  0  0  0
  7  8  1  0  0  0  0
  9  8  1  1  0  0  0
  9 10  1  0  0  0  0
  9 11  1  0  0  0  0
 10 15  1  0  0  0  0
 11 12  1  6  0  0  0
 11 13  1  0  0  0  0
 13 14  1  6  0  0  0
 13 15  1  0  0  0  0
 15 26  1  1  0  0  0
 17 18  2  0  0  0  0
 17 22  1  0  0  0  0
 18 19  1  0  0  0  0
 19 20  2  0  0  0  0
 20 21  1  0  0  0  0
 20 26  1  0  0  0  0
 21 22  2  0  0  0  0
 21 24  1  0  0  0  0
 22 23  1  0  0  0  0
 24 25  2  0  0  0  0
 25 26  1  0  0  0  0
M  END
>  <CHROM.1>
134.40221184,-62.87244836,-167.49382831,-164.58299533,-125.91045505,164.63878884
-177.29645558,41.16289647,12.53095208,5.05707711,-2.58201346,-0.38199791
-2.69921971

>  <Name>
ligand

>  <RI>
0

>  <Rbt.Current_Directory>
/home/itssahil/PROJECTS/Mol_Feturizer/New_Systems/rnas/3NPQ

>  <Rbt.Executable>
rbdock ($Id: //depot/dev/client3/rdock/2013.1/src/exe/rbdock.cxx#4 $)

>  <Rbt.Library>
libRbt.so (2013.1, Build901 2013/11/27)

>  <Rbt.Parameter_File>
/export/apps/rDock/src/rDock_2013.1_src/data/scripts/dock_solv.prm

>  <Rbt.Receptor>
prm/pocket_docking_7.prm

>  <SCORE>
-25.2882

>  <SCORE.INTER>
-24.1607

>  <SCORE.INTER.CONST>
1

>  <SCORE.INTER.POLAR>
0

>  <SCORE.INTER.ROT>
7

>  <SCORE.INTER.SOLV>
11.8264

>  <SCORE.INTER.VDW>
-28.3159

>  <SCORE.INTER.norm>
-0.929259

>  <SCORE.INTRA>
-1.1277

>  <SCORE.INTRA.DIHEDRAL>
-0.181308

>  <SCORE.INTRA.DIHEDRAL.0>
6.97628

>  <SCORE.INTRA.POLAR>
0

>  <SCORE.INTRA.POLAR.0>
0

>  <SCORE.INTRA.REPUL>
0

>  <SCORE.INTRA.REPUL.0>
0

>  <SCORE.INTRA.SOLV>
-0.160398

>  <SCORE.INTRA.SOLV.lig_0>
-49.8243

>  <SCORE.INTRA.VDW>
-0.956843

>  <SCORE.INTRA.VDW.0>
-1.35881

>  <SCORE.INTRA.norm>
-0.0433729

>  <SCORE.RESTR>
0.000261623

>  <SCORE.RESTR.CAVITY>
0.000261623

>  <SCORE.RESTR.norm>
1.00624e-05

>  <SCORE.SYSTEM>
0

>  <SCORE.SYSTEM.CONST>
0

>  <SCORE.SYSTEM.DIHEDRAL>
0

>  <SCORE.SYSTEM.SOLV>
0

>  <SCORE.SYSTEM.norm>
0

>  <SCORE.heavy>
26

>  <SCORE.norm>
-0.972621

>  <RMSD>
5.199

$$$$
ligand
 OpenBabel11021811483D
libRbt.so/2013.1/901 2013/11/27
 26 28  0  0  0  0  0  0  0  0999 V2000
   34.2389   16.1593    7.6647 N   0  0  0  0  0  0  0  0  0  0  0  0
   34.8408   16.1405    8.9920 C   0  0  2  0  0  0  0  0  0  0  0  0
   34.4735   17.3935    9.7788 C   0  0  0  0  0  0  0  0  0  0  0  0
   33.6675   18.2086    9.3317 O   0  0  0  0  0  0  0  0  0  0  0  0
   36.3556   16.0134    8.8894 C   0  0  0  0  0  0  0  0  0  0  0  0
   36.8305   14.6978    8.2866 C   0  0  0  0  0  0  0  0  0  0  0  0
   38.5934   14.7194    7.8744 S   0  0  0  0  0  0  0  0  0  0  0  0
   38.4859   13.0021    7.3108 C   0  0  0  0  0  0  0  0  0  0  0  0
   38.9768   12.8208    5.8792 C   0  0  1  0  0  0  0  0  0  0  0  0
   39.1555   14.0845    5.2659 O   0  0  0  0  0  0  0  0  0  0  0  0
   40.3088   12.0900    5.8338 C   0  0  1  0  0  0  0  0  0  0  0  0
   40.1604   10.8610    5.1632 O   0  0  0  0  0  0  0  0  0  0  0  0
   41.2494   12.9921    5.0622 C   0  0  1  0  0  0  0  0  0  0  0  0
   41.7513   12.3156    3.9332 O   0  0  0  0  0  0  0  0  0  0  0  0
   40.4153   14.1855    4.6289 C   0  0  2  0  0  0  0  0  0  0  0  0
   34.9743   17.6198   10.8810 O   0  0  0  0  0  0  0  0  0  0  0  0
   39.7925   19.0344    6.5438 N   0  0  0  0  0  0  0  0  0  0  0  0
   38.8208   18.0853    6.2981 C   0  0  0  0  0  0  0  0  0  0  0  0
   39.1688   16.8501    5.7882 N   0  0  0  0  0  0  0  0  0  0  0  0
   40.4660   16.5602    5.5234 C   0  0  0  0  0  0  0  0  0  0  0  0
   41.4576   17.5018    5.7632 C   0  0  0  0  0  0  0  0  0  0  0  0
   41.1159   18.7469    6.2771 C   0  0  0  0  0  0  0  0  0  0  0  0
   42.0571   19.6568    6.5099 N   0  0  0  0  0  0  0  0  0  0  0  0
   42.6426   16.9554    5.4151 N   0  0  0  0  0  0  0  0  0  0  0  0
   42.4266   15.6987    4.9632 C   0  0  0  0  0  0  0  0  0  0  0  0
   41.0816   15.4394    5.0245 N   0  0  0  0  0  0  0  0  0  0  0  0
  2  1  1  6  0  0  0
  2  3  1  0  0  0  0
  2  5  1  0  0  0  0
  3  4  1  0  0  0  0
  3 16  1  0  0  0  0
  5  6  1  0  0  0  0
  6  7  1  0  0  0  0
  7  8  1  0  0  0  0
  9  8  1  1  0  0  0
  9 10  1  0  0  0  0
  9 11  1  0  0  0  0
 10 15  1  0  0  0  0
 11 12  1  6  0  0  0
 11 13  1  0  0  0  0
 13 14  1  6  0  0  0
 13 15  1  0  0  0  0
 15 26  1  1  0  0  0
 17 18  2  0  0  0  0
 17 22  1  0  0  0  0
 18 19  1  0  0  0  0
 19 20  2  0  0  0  0
 20 21  1  0  0  0  0
 20 26  1  0  0  0  0
 21 22  2  0  0  0  0
 21 24  1  0  0  0  0
 22 23  1  0  0  0  0
 24 25  2  0  0  0  0
 25 26  1  0  0  0  0
M  END
>  <CHROM.1>
6.16788114,-64.82025334,168.39964939,178.55631345,124.71337245,-11.09930749
-21.48866774,38.90628404,15.58522408,6.72991486,2.67235387,0.52131517,0.19298216

>  <Name>
ligand

>  <RI>
0

>  <Rbt.Current_Directory>
/home/itssahil/PROJECTS/Mol_Feturizer/New_Systems/rnas/3NPQ

>  <Rbt.Executable>
rbdock ($Id: //depot/dev/client3/rdock/2013.1/src/exe/rbdock.cxx#4 $)

>  <Rbt.Library>
libRbt.so (2013.1, Build901 2013/11/27)

>  <Rbt.Parameter_File>
/export/apps/rDock/src/rDock_2013.1_src/data/scripts/dock_solv.prm

>  <Rbt.Receptor>
prm/pocket_docking_4.prm

>  <SCORE>
-11.6386

>  <SCORE.INTER>
-12.6765

>  <SCORE.INTER.CONST>
1

>  <SCORE.INTER.POLAR>
0

>  <SCORE.INTER.ROT>
7

>  <SCORE.INTER.SOLV>
13.8037

>  <SCORE.INTER.VDW>
-21.3189

>  <SCORE.INTER.norm>
-0.487557

>  <SCORE.INTRA>
0.92065

>  <SCORE.INTRA.DIHEDRAL>
3.50041

>  <SCORE.INTRA.DIHEDRAL.0>
6.97628

>  <SCORE.INTRA.POLAR>
0

>  <SCORE.INTRA.POLAR.0>
0

>  <SCORE.INTRA.REPUL>
0

>  <SCORE.INTRA.REPUL.0>
0

>  <SCORE.INTRA.SOLV>
0.108007

>  <SCORE.INTRA.SOLV.lig_0>
-49.8243

>  <SCORE.INTRA.VDW>
-0.883559

>  <SCORE.INTRA.VDW.0>
-1.35881

>  <SCORE.INTRA.norm>
0.0354096

>  <SCORE.RESTR>
0.117238

>  <SCORE.RESTR.CAVITY>
0.117238

>  <SCORE.RESTR.norm>
0.00450915

>  <SCORE.SYSTEM>
0

>  <SCORE.SYSTEM.CONST>
0

>  <SCORE.SYSTEM.DIHEDRAL>
0

>  <SCORE.SYSTEM.SOLV>
0

>  <SCORE.SYSTEM.norm>
0

>  <SCORE.heavy>
26

>  <SCORE.norm>
-0.447638

>  <RMSD>
5.214

$$$$
ligand
 OpenBabel11021811483D
libRbt.so/2013.1/901 2013/11/27
 26 28  0  0  0  0  0  0  0  0999 V2000
   36.4029   16.0015    6.5542 N   0  0  0  0  0  0  0  0  0  0  0  0
   36.4211   14.9745    7.5883 C   0  0  2  0  0  0  0  0  0  0  0  0
   35.3388   15.2273    8.6317 C   0  0  0  0  0  0  0  0  0  0  0  0
   34.4045   15.9943    8.4020 O   0  0  0  0  0  0  0  0  0  0  0  0
   37.7884   14.9153    8.2578 C   0  0  0  0  0  0  0  0  0  0  0  0
   38.9245   14.5287    7.3200 C   0  0  0  0  0  0  0  0  0  0  0  0
   38.8146   12.8075    6.7689 S   0  0  0  0  0  0  0  0  0  0  0  0
   40.3262   13.0194    5.7951 C   0  0  0  0  0  0  0  0  0  0  0  0
   40.3560   12.1340    4.5547 C   0  0  1  0  0  0  0  0  0  0  0  0
   41.2845   12.6472    3.6169 O   0  0  0  0  0  0  0  0  0  0  0  0
   40.7750   10.7126    4.8930 C   0  0  1  0  0  0  0  0  0  0  0  0
   39.7231    9.8208    4.6094 O   0  0  0  0  0  0  0  0  0  0  0  0
   41.9652   10.4102    4.0065 C   0  0  1  0  0  0  0  0  0  0  0  0
   41.6962    9.2853    3.2024 O   0  0  0  0  0  0  0  0  0  0  0  0
   42.1565   11.6410    3.1369 C   0  0  2  0  0  0  0  0  0  0  0  0
   35.3732   14.6695    9.7292 O   0  0  0  0  0  0  0  0  0  0  0  0
   47.1688   10.5878    1.9814 N   0  0  0  0  0  0  0  0  0  0  0  0
   46.0537    9.8205    1.7104 C   0  0  0  0  0  0  0  0  0  0  0  0
   44.8002   10.2574    2.0906 N   0  0  0  0  0  0  0  0  0  0  0  0
   44.6545   11.4414    2.7338 C   0  0  0  0  0  0  0  0  0  0  0  0
   45.7638   12.2270    3.0158 C   0  0  0  0  0  0  0  0  0  0  0  0
   47.0288   11.7949    2.6358 C   0  0  0  0  0  0  0  0  0  0  0  0
   48.0986   12.5386    2.9014 N   0  0  0  0  0  0  0  0  0  0  0  0
   45.3354   13.3378    3.6535 N   0  0  0  0  0  0  0  0  0  0  0  0
   43.9901   13.2747    3.7815 C   0  0  0  0  0  0  0  0  0  0  0  0
   43.5535   12.1045    3.2159 N   0  0  0  0  0  0  0  0  0  0  0  0
  2  1  1  6  0  0  0
  2  3  1  0  0  0  0
  2  5  1  0  0  0  0
  3  4  1  0  0  0  0
  3 16  1  0  0  0  0
  5  6  1  0  0  0  0
  6  7  1  0  0  0  0
  7  8  1  0  0  0  0
  9  8  1  1  0  0  0
  9 10  1  0  0  0  0
  9 11  1  0  0  0  0
 10 15  1  0  0  0  0
 11 12  1  6  0  0  0
 11 13  1  0  0  0  0
 13 14  1  6  0  0  0
 13 15  1  0  0  0  0
 15 26  1  1  0  0  0
 17 18  2  0  0  0  0
 17 22  1  0  0  0  0
 18 19  1  0  0  0  0
 19 20  2  0  0  0  0
 20 21  1  0  0  0  0
 20 26  1  0  0  0  0
 21 22  2  0  0  0  0
 21 24  1  0  0  0  0
 22 23  1  0  0  0  0
 24 25  2  0  0  0  0
 25 26  1  0  0  0  0
M  END
>  <CHROM.1>
16.64299211,-62.71329894,-68.56659900,-179.77972762,-149.88856149,159.91240354
-174.06511392,41.20257354,12.57178038,4.95708899,-2.63866434,-0.35902365
-2.72065030

>  <Name>
ligand

>  <RI>
0

>  <Rbt.Current_Directory>
/home/itssahil/PROJECTS/Mol_Feturizer/New_Systems/rnas/3NPQ

>  <Rbt.Executable>
rbdock ($Id: //depot/dev/client3/rdock/2013.1/src/exe/rbdock.cxx#4 $)

>  <Rbt.Library>
libRbt.so (2013.1, Build901 2013/11/27)

>  <Rbt.Parameter_File>
/export/apps/rDock/src/rDock_2013.1_src/data/scripts/dock_solv.prm

>  <Rbt.Receptor>
prm/pocket_docking_7.prm

>  <SCORE>
-24.3517

>  <SCORE.INTER>
-23.1742

>  <SCORE.INTER.CONST>
1

>  <SCORE.INTER.POLAR>
0

>  <SCORE.INTER.ROT>
7

>  <SCORE.INTER.SOLV>
11.9094

>  <SCORE.INTER.VDW>
-27.6859

>  <SCORE.INTER.norm>
-0.891314

>  <SCORE.INTRA>
-1.17754

>  <SCORE.INTRA.DIHEDRAL>
-1.46766

>  <SCORE.INTRA.DIHEDRAL.0>
6.97628

>  <SCORE.INTRA.POLAR>
0

>  <SCORE.INTRA.POLAR.0>
0

>  <SCORE.INTRA.REPUL>
0

>  <SCORE.INTRA.REPUL.0>
0

>  <SCORE.INTRA.SOLV>
0.34951

>  <SCORE.INTRA.SOLV.lig_0>
-49.8243

>  <SCORE.INTRA.VDW>
-0.618466

>  <SCORE.INTRA.VDW.0>
-1.35881

>  <SCORE.INTRA.norm>
-0.04529

>  <SCORE.RESTR>
0

>  <SCORE.RESTR.CAVITY>
0

>  <SCORE.RESTR.norm>
0

>  <SCORE.SYSTEM>
0

>  <SCORE.SYSTEM.CONST>
0

>  <SCORE.SYSTEM.DIHEDRAL>
0

>  <SCORE.SYSTEM.SOLV>
0

>  <SCORE.SYSTEM.norm>
0

>  <SCORE.heavy>
26

>  <SCORE.norm>
-0.936604

>  <RMSD>
5.225

$$$$
ligand
 OpenBabel11021811483D
libRbt.so/2013.1/901 2013/11/27
 26 28  0  0  0  0  0  0  0  0999 V2000
   37.5222   16.6768    8.1334 N   0  0  0  0  0  0  0  0  0  0  0  0
   36.5908   15.5869    7.8705 C   0  0  2  0  0  0  0  0  0  0  0  0
   35.3946   15.6480    8.8135 C   0  0  0  0  0  0  0  0  0  0  0  0
   35.5336   15.4807   10.0246 O   0  0  0  0  0  0  0  0  0  0  0  0
   37.2927   14.2412    8.0035 C   0  0  0  0  0  0  0  0  0  0  0  0
   38.3748   13.9977    6.9598 C   0  0  0  0  0  0  0  0  0  0  0  0
   38.8640   12.2572    6.8601 S   0  0  0  0  0  0  0  0  0  0  0  0
   40.2620   12.7076    5.8014 C   0  0  0  0  0  0  0  0  0  0  0  0
   40.3186   11.8844    4.5198 C   0  0  1  0  0  0  0  0  0  0  0  0
   41.2243   12.4752    3.6056 O   0  0  0  0  0  0  0  0  0  0  0  0
   40.7898   10.4645    4.7883 C   0  0  1  0  0  0  0  0  0  0  0  0
   39.7694    9.5499    4.4645 O   0  0  0  0  0  0  0  0  0  0  0  0
   41.9865   10.2481    3.8855 C   0  0  1  0  0  0  0  0  0  0  0  0
   41.7549    9.1542    3.0288 O   0  0  0  0  0  0  0  0  0  0  0  0
   42.1300   11.5253    3.0758 C   0  0  2  0  0  0  0  0  0  0  0  0
   34.2605   15.8668    8.3860 O   0  0  0  0  0  0  0  0  0  0  0  0
   47.1908   10.6329    1.9994 N   0  0  0  0  0  0  0  0  0  0  0  0
   46.1057    9.8285    1.7148 C   0  0  0  0  0  0  0  0  0  0  0  0
   44.8329   10.2255    2.0745 N   0  0  0  0  0  0  0  0  0  0  0  0
   44.6390   11.4063    2.7108 C   0  0  0  0  0  0  0  0  0  0  0  0
   45.7176   12.2287    3.0062 C   0  0  0  0  0  0  0  0  0  0  0  0
   47.0016   11.8370    2.6468 C   0  0  0  0  0  0  0  0  0  0  0  0
   48.0424   12.6163    2.9255 N   0  0  0  0  0  0  0  0  0  0  0  0
   45.2436   13.3271    3.6331 N   0  0  0  0  0  0  0  0  0  0  0  0
   43.8993   13.2204    3.7412 C   0  0  0  0  0  0  0  0  0  0  0  0
   43.5097   12.0346    3.1738 N   0  0  0  0  0  0  0  0  0  0  0  0
  2  1  1  1  0  0  0
  2  3  1  0  0  0  0
  2  5  1  0  0  0  0
  3  4  1  0  0  0  0
  3 16  1  0  0  0  0
  5  6  1  0  0  0  0
  6  7  1  0  0  0  0
  7  8  1  0  0  0  0
  9  8  1  1  0  0  0
  9 10  1  0  0  0  0
  9 11  1  0  0  0  0
 10 15  1  0  0  0  0
 11 12  1  6  0  0  0
 11 13  1  0  0  0  0
 13 14  1  6  0  0  0
 13 15  1  0  0  0  0
 15 26  1  1  0  0  0
 17 18  2  0  0  0  0
 17 22  1  0  0  0  0
 18 19  1  0  0  0  0
 19 20  2  0  0  0  0
 20 21  1  0  0  0  0
 20 26  1  0  0  0  0
 21 22  2  0  0  0  0
 21 24  1  0  0  0  0
 22 23  1  0  0  0  0
 24 25  2  0  0  0  0
 25 26  1  0  0  0  0
M  END
>  <CHROM.1>
-65.37654182,-65.53302469,-164.42425316,-169.76901124,-128.54194839,166.57794607
-177.21547841,41.20719255,12.50497217,5.00017987,-2.60624709,-0.37108849
-2.70604265

>  <Name>
ligand

>  <RI>
0

>  <Rbt.Current_Directory>
/home/itssahil/PROJECTS/Mol_Feturizer/New_Systems/rnas/3NPQ

>  <Rbt.Executable>
rbdock ($Id: //depot/dev/client3/rdock/2013.1/src/exe/rbdock.cxx#4 $)

>  <Rbt.Library>
libRbt.so (2013.1, Build901 2013/11/27)

>  <Rbt.Parameter_File>
/export/apps/rDock/src/rDock_2013.1_src/data/scripts/dock_solv.prm

>  <Rbt.Receptor>
prm/pocket_docking_7.prm

>  <SCORE>
-25.1192

>  <SCORE.INTER>
-24.0495

>  <SCORE.INTER.CONST>
1

>  <SCORE.INTER.POLAR>
0

>  <SCORE.INTER.ROT>
7

>  <SCORE.INTER.SOLV>
11.6512

>  <SCORE.INTER.VDW>
-28.1834

>  <SCORE.INTER.norm>
-0.924981

>  <SCORE.INTRA>
-1.06976

>  <SCORE.INTRA.DIHEDRAL>
-0.237499

>  <SCORE.INTRA.DIHEDRAL.0>
6.97628

>  <SCORE.INTRA.POLAR>
0

>  <SCORE.INTRA.POLAR.0>
0

>  <SCORE.INTRA.REPUL>
0

>  <SCORE.INTRA.REPUL.0>
0

>  <SCORE.INTRA.SOLV>
-0.183966

>  <SCORE.INTRA.SOLV.lig_0>
-49.8243

>  <SCORE.INTRA.VDW>
-0.859023

>  <SCORE.INTRA.VDW.0>
-1.35881

>  <SCORE.INTRA.norm>
-0.0411445

>  <SCORE.RESTR>
0

>  <SCORE.RESTR.CAVITY>
0

>  <SCORE.RESTR.norm>
0

>  <SCORE.SYSTEM>
0

>  <SCORE.SYSTEM.CONST>
0

>  <SCORE.SYSTEM.DIHEDRAL>
0

>  <SCORE.SYSTEM.SOLV>
0

>  <SCORE.SYSTEM.norm>
0

>  <SCORE.heavy>
26

>  <SCORE.norm>
-0.966125

>  <RMSD>
5.263

$$$$
ligand
 OpenBabel11021811483D
libRbt.so/2013.1/901 2013/11/27
 26 28  0  0  0  0  0  0  0  0999 V2000
   40.1260   17.6597    1.2468 N   0  0  0  0  0  0  0  0  0  0  0  0
   39.4393   16.3989    1.4989 C   0  0  2  0  0  0  0  0  0  0  0  0
   39.1959   15.6377    0.2007 C   0  0  0  0  0  0  0  0  0  0  0  0
   39.4092   14.4283    0.1261 O   0  0  0  0  0  0  0  0  0  0  0  0
   38.1177   16.6450    2.2159 C   0  0  0  0  0  0  0  0  0  0  0  0
   38.2682   17.2117    3.6216 C   0  0  0  0  0  0  0  0  0  0  0  0
   36.6752   17.4476    4.4492 S   0  0  0  0  0  0  0  0  0  0  0  0
   36.6311   15.6878    4.8727 C   0  0  0  0  0  0  0  0  0  0  0  0
   37.2292   15.3975    6.2443 C   0  0  1  0  0  0  0  0  0  0  0  0
   37.7479   14.0803    6.2764 O   0  0  0  0  0  0  0  0  0  0  0  0
   38.3656   16.3524    6.5716 C   0  0  1  0  0  0  0  0  0  0  0  0
   38.0289   17.1341    7.6931 O   0  0  0  0  0  0  0  0  0  0  0  0
   39.5617   15.4787    6.8880 C   0  0  1  0  0  0  0  0  0  0  0  0
   40.0279   15.7494    8.1894 O   0  0  0  0  0  0  0  0  0  0  0  0
   39.0631   14.0466    6.7983 C   0  0  2  0  0  0  0  0  0  0  0  0
   38.7793   16.2149   -0.8044 O   0  0  0  0  0  0  0  0  0  0  0  0
   40.0245    9.3393    4.6807 N   0  0  0  0  0  0  0  0  0  0  0  0
   39.0094    9.6912    5.5474 C   0  0  0  0  0  0  0  0  0  0  0  0
   38.9075   10.9889    6.0083 N   0  0  0  0  0  0  0  0  0  0  0  0
   39.8036   11.9267    5.6152 C   0  0  0  0  0  0  0  0  0  0  0  0
   40.8318   11.5921    4.7445 C   0  0  0  0  0  0  0  0  0  0  0  0
   40.9408   10.2886    4.2753 C   0  0  0  0  0  0  0  0  0  0  0  0
   41.9222    9.9565    3.4418 N   0  0  0  0  0  0  0  0  0  0  0  0
   41.5669   12.7032    4.5227 N   0  0  0  0  0  0  0  0  0  0  0  0
   41.0323   13.7267    5.2278 C   0  0  0  0  0  0  0  0  0  0  0  0
   39.9382   13.2605    5.9101 N   0  0  0  0  0  0  0  0  0  0  0  0
  2  1  1  6  0  0  0
  2  3  1  0  0  0  0
  2  5  1  0  0  0  0
  3  4  1  0  0  0  0
  3 16  1  0  0  0  0
  5  6  1  0  0  0  0
  6  7  1  0  0  0  0
  7  8  1  0  0  0  0
  9  8  1  6  0  0  0
  9 10  1  0  0  0  0
  9 11  1  0  0  0  0
 10 15  1  0  0  0  0
 11 12  1  1  0  0  0
 11 13  1  0  0  0  0
 13 14  1  1  0  0  0
 13 15  1  0  0  0  0
 15 26  1  6  0  0  0
 17 18  2  0  0  0  0
 17 22  1  0  0  0  0
 18 19  1  0  0  0  0
 19 20  2  0  0  0  0
 20 21  1  0  0  0  0
 20 26  1  0  0  0  0
 21 22  2  0  0  0  0
 21 24  1  0  0  0  0
 22 23  1  0  0  0  0
 24 25  2  0  0  0  0
 25 26  1  0  0  0  0
M  END
>  <CHROM.1>
135.73233962,-65.68836911,-178.53214683,80.72944422,92.52364027,-152.44571249
-62.62784585,39.09785095,14.43388408,4.44991515,-2.44734261,-1.14120449,1.93351071

>  <Name>
ligand

>  <RI>
0

>  <Rbt.Current_Directory>
/home/itssahil/PROJECTS/Mol_Feturizer/New_Systems/rnas/3NPQ

>  <Rbt.Executable>
rbdock ($Id: //depot/dev/client3/rdock/2013.1/src/exe/rbdock.cxx#4 $)

>  <Rbt.Library>
libRbt.so (2013.1, Build901 2013/11/27)

>  <Rbt.Parameter_File>
/export/apps/rDock/src/rDock_2013.1_src/data/scripts/dock_solv.prm

>  <Rbt.Receptor>
prm/pocket_docking_8.prm

>  <SCORE>
-19.8202

>  <SCORE.INTER>
-20.6274

>  <SCORE.INTER.CONST>
1

>  <SCORE.INTER.POLAR>
0

>  <SCORE.INTER.ROT>
7

>  <SCORE.INTER.SOLV>
11.8432

>  <SCORE.INTER.VDW>
-25.966

>  <SCORE.INTER.norm>
-0.793361

>  <SCORE.INTRA>
0.80716

>  <SCORE.INTRA.DIHEDRAL>
0.138386

>  <SCORE.INTRA.DIHEDRAL.0>
6.97628

>  <SCORE.INTRA.POLAR>
0

>  <SCORE.INTRA.POLAR.0>
0

>  <SCORE.INTRA.REPUL>
0

>  <SCORE.INTRA.REPUL.0>
0

>  <SCORE.INTRA.SOLV>
0.0613048

>  <SCORE.INTRA.SOLV.lig_0>
-49.8243

>  <SCORE.INTRA.VDW>
0.707315

>  <SCORE.INTRA.VDW.0>
-1.35881

>  <SCORE.INTRA.norm>
0.0310446

>  <SCORE.RESTR>
0

>  <SCORE.RESTR.CAVITY>
0

>  <SCORE.RESTR.norm>
0

>  <SCORE.SYSTEM>
0

>  <SCORE.SYSTEM.CONST>
0

>  <SCORE.SYSTEM.DIHEDRAL>
0

>  <SCORE.SYSTEM.SOLV>
0

>  <SCORE.SYSTEM.norm>
0

>  <SCORE.heavy>
26

>  <SCORE.norm>
-0.762316

>  <RMSD>
5.273

$$$$
ligand
 OpenBabel11021811483D
libRbt.so/2013.1/901 2013/11/27
 26 28  0  0  0  0  0  0  0  0999 V2000
   37.6926   20.9048    2.7758 N   0  0  0  0  0  0  0  0  0  0  0  0
   37.3604   19.8374    3.7112 C   0  0  2  0  0  0  0  0  0  0  0  0
   36.6226   18.7029    3.0095 C   0  0  0  0  0  0  0  0  0  0  0  0
   36.5150   17.5961    3.5361 O   0  0  0  0  0  0  0  0  0  0  0  0
   36.5173   20.3773    4.8596 C   0  0  0  0  0  0  0  0  0  0  0  0
   36.3222   19.3928    6.0052 C   0  0  0  0  0  0  0  0  0  0  0  0
   35.1926   20.0191    7.2741 S   0  0  0  0  0  0  0  0  0  0  0  0
   35.9710   18.9415    8.5033 C   0  0  0  0  0  0  0  0  0  0  0  0
   35.3939   17.5307    8.4986 C   0  0  1  0  0  0  0  0  0  0  0  0
   35.6707   16.8995    7.2617 O   0  0  0  0  0  0  0  0  0  0  0  0
   35.9977   16.6766    9.6014 C   0  0  1  0  0  0  0  0  0  0  0  0
   34.9979   16.2957   10.5166 O   0  0  0  0  0  0  0  0  0  0  0  0
   36.5648   15.4525    8.9129 C   0  0  1  0  0  0  0  0  0  0  0  0
   35.9723   14.2858    9.4346 O   0  0  0  0  0  0  0  0  0  0  0  0
   36.2135   15.6049    7.4429 C   0  0  2  0  0  0  0  0  0  0  0  0
   36.1161   18.8670    1.8989 O   0  0  0  0  0  0  0  0  0  0  0  0
   40.1207   12.4033    6.0109 N   0  0  0  0  0  0  0  0  0  0  0  0
   39.0947   12.1495    6.8988 C   0  0  0  0  0  0  0  0  0  0  0  0
   38.1446   13.1173    7.1582 N   0  0  0  0  0  0  0  0  0  0  0  0
   38.2123   14.3241    6.5449 C   0  0  0  0  0  0  0  0  0  0  0  0
   39.2368   14.5985    5.6492 C   0  0  0  0  0  0  0  0  0  0  0  0
   40.1965   13.6295    5.3819 C   0  0  0  0  0  0  0  0  0  0  0  0
   41.1829   13.8816    4.5265 N   0  0  0  0  0  0  0  0  0  0  0  0
   39.0631   15.8572    5.1916 N   0  0  0  0  0  0  0  0  0  0  0  0
   37.9603   16.3832    5.7726 C   0  0  0  0  0  0  0  0  0  0  0  0
   37.4219   15.4442    6.6143 N   0  0  0  0  0  0  0  0  0  0  0  0
  2  1  1  6  0  0  0
  2  3  1  0  0  0  0
  2  5  1  0  0  0  0
  3  4  1  0  0  0  0
  3 16  1  0  0  0  0
  5  6  1  0  0  0  0
  6  7  1  0  0  0  0
  7  8  1  0  0  0  0
  9  8  1  6  0  0  0
  9 10  1  0  0  0  0
  9 11  1  0  0  0  0
 10 15  1  0  0  0  0
 11 12  1  1  0  0  0
 11 13  1  0  0  0  0
 13 14  1  1  0  0  0
 13 15  1  0  0  0  0
 15 26  1  6  0  0  0
 17 18  2  0  0  0  0
 17 22  1  0  0  0  0
 18 19  1  0  0  0  0
 19 20  2  0  0  0  0
 20 21  1  0  0  0  0
 20 26  1  0  0  0  0
 21 22  2  0  0  0  0
 21 24  1  0  0  0  0
 22 23  1  0  0  0  0
 24 25  2  0  0  0  0
 25 26  1  0  0  0  0
M  END
>  <CHROM.1>
163.77963236,-170.08213066,-174.74847138,-155.39186843,-84.59960807,64.34306317
179.48969552,37.13147848,16.72601649,6.32939897,-2.19104290,-0.89856883,2.31458900

>  <Name>
ligand

>  <RI>
0

>  <Rbt.Current_Directory>
/home/itssahil/PROJECTS/Mol_Feturizer/New_Systems/rnas/3NPQ

>  <Rbt.Executable>
rbdock ($Id: //depot/dev/client3/rdock/2013.1/src/exe/rbdock.cxx#4 $)

>  <Rbt.Library>
libRbt.so (2013.1, Build901 2013/11/27)

>  <Rbt.Parameter_File>
/export/apps/rDock/src/rDock_2013.1_src/data/scripts/dock_solv.prm

>  <Rbt.Receptor>
prm/pocket_docking_6.prm

>  <SCORE>
-21.4624

>  <SCORE.INTER>
-18.7678

>  <SCORE.INTER.CONST>
1

>  <SCORE.INTER.POLAR>
0

>  <SCORE.INTER.ROT>
7

>  <SCORE.INTER.SOLV>
11.4996

>  <SCORE.INTER.VDW>
-24.6117

>  <SCORE.INTER.norm>
-0.721838

>  <SCORE.INTRA>
-2.69465

>  <SCORE.INTRA.DIHEDRAL>
-2.03676

>  <SCORE.INTRA.DIHEDRAL.0>
6.97628

>  <SCORE.INTRA.POLAR>
0

>  <SCORE.INTRA.POLAR.0>
0

>  <SCORE.INTRA.REPUL>
0

>  <SCORE.INTRA.REPUL.0>
0

>  <SCORE.INTRA.SOLV>
-0.712097

>  <SCORE.INTRA.SOLV.lig_0>
-49.8243

>  <SCORE.INTRA.VDW>
-1.32022

>  <SCORE.INTRA.VDW.0>
-1.35881

>  <SCORE.INTRA.norm>
-0.10364

>  <SCORE.RESTR>
0

>  <SCORE.RESTR.CAVITY>
0

>  <SCORE.RESTR.norm>
0

>  <SCORE.SYSTEM>
0

>  <SCORE.SYSTEM.CONST>
0

>  <SCORE.SYSTEM.DIHEDRAL>
0

>  <SCORE.SYSTEM.SOLV>
0

>  <SCORE.SYSTEM.norm>
0

>  <SCORE.heavy>
26

>  <SCORE.norm>
-0.825479

>  <RMSD>
5.277

$$$$
ligand
 OpenBabel11021811483D
libRbt.so/2013.1/901 2013/11/27
 26 28  0  0  0  0  0  0  0  0999 V2000
   36.5572   17.2772    6.6999 N   0  0  0  0  0  0  0  0  0  0  0  0
   37.2255   16.3227    5.8242 C   0  0  2  0  0  0  0  0  0  0  0  0
   36.2240   15.6139    4.9194 C   0  0  0  0  0  0  0  0  0  0  0  0
   35.3170   14.9300    5.3921 O   0  0  0  0  0  0  0  0  0  0  0  0
   38.0038   15.3008    6.6435 C   0  0  0  0  0  0  0  0  0  0  0  0
   38.9849   14.4674    5.8296 C   0  0  0  0  0  0  0  0  0  0  0  0
   39.9789   13.3607    6.8619 S   0  0  0  0  0  0  0  0  0  0  0  0
   40.8871   12.8053    5.3974 C   0  0  0  0  0  0  0  0  0  0  0  0
   40.1421   11.7294    4.6159 C   0  0  1  0  0  0  0  0  0  0  0  0
   40.8689   11.3887    3.4495 O   0  0  0  0  0  0  0  0  0  0  0  0
   39.9641   10.4638    5.4385 C   0  0  1  0  0  0  0  0  0  0  0  0
   38.5946   10.2213    5.6577 O   0  0  0  0  0  0  0  0  0  0  0  0
   40.5634    9.3453    4.6116 C   0  0  1  0  0  0  0  0  0  0  0  0
   39.5920    8.3574    4.3573 O   0  0  0  0  0  0  0  0  0  0  0  0
   41.0098    9.9874    3.3093 C   0  0  2  0  0  0  0  0  0  0  0  0
   36.2985   15.7092    3.6938 O   0  0  0  0  0  0  0  0  0  0  0  0
   45.6960   11.7637    1.7435 N   0  0  0  0  0  0  0  0  0  0  0  0
   44.5189   12.4723    1.8779 C   0  0  0  0  0  0  0  0  0  0  0  0
   43.3703   11.8370    2.3068 N   0  0  0  0  0  0  0  0  0  0  0  0
   43.3886   10.5133    2.5975 C   0  0  0  0  0  0  0  0  0  0  0  0
   44.5624    9.7835    2.4680 C   0  0  0  0  0  0  0  0  0  0  0  0
   45.7230   10.4155    2.0379 C   0  0  0  0  0  0  0  0  0  0  0  0
   46.8528    9.7263    1.9093 N   0  0  0  0  0  0  0  0  0  0  0  0
   44.2989    8.5064    2.8193 N   0  0  0  0  0  0  0  0  0  0  0  0
   42.9946    8.4105    3.1656 C   0  0  0  0  0  0  0  0  0  0  0  0
   42.4171    9.6470    3.0332 N   0  0  0  0  0  0  0  0  0  0  0  0
  2  1  1  1  0  0  0
  2  3  1  0  0  0  0
  2  5  1  0  0  0  0
  3  4  1  0  0  0  0
  3 16  1  0  0  0  0
  5  6  1  0  0  0  0
  6  7  1  0  0  0  0
  7  8  1  0  0  0  0
  9  8  1  1  0  0  0
  9 10  1  0  0  0  0
  9 11  1  0  0  0  0
 10 15  1  0  0  0  0
 11 12  1  6  0  0  0
 11 13  1  0  0  0  0
 13 14  1  6  0  0  0
 13 15  1  0  0  0  0
 15 26  1  1  0  0  0
 17 18  2  0  0  0  0
 17 22  1  0  0  0  0
 18 19  1  0  0  0  0
 19 20  2  0  0  0  0
 20 21  1  0  0  0  0
 20 26  1  0  0  0  0
 21 22  2  0  0  0  0
 21 24  1  0  0  0  0
 22 23  1  0  0  0  0
 24 25  2  0  0  0  0
 25 26  1  0  0  0  0
M  END
>  <CHROM.1>
-60.81425288,-166.60872131,175.46043015,-177.38027364,-81.90118794,176.96666422
-17.29350415,40.75654042,12.03879940,4.27766916,-2.57157379,-0.44940918,3.10134186

>  <Name>
ligand

>  <RI>
0

>  <Rbt.Current_Directory>
/home/itssahil/PROJECTS/Mol_Feturizer/New_Systems/rnas/3NPQ

>  <Rbt.Executable>
rbdock ($Id: //depot/dev/client3/rdock/2013.1/src/exe/rbdock.cxx#4 $)

>  <Rbt.Library>
libRbt.so (2013.1, Build901 2013/11/27)

>  <Rbt.Parameter_File>
/export/apps/rDock/src/rDock_2013.1_src/data/scripts/dock_solv.prm

>  <Rbt.Receptor>
prm/pocket_docking_7.prm

>  <SCORE>
-19.3794

>  <SCORE.INTER>
-16.9047

>  <SCORE.INTER.CONST>
1

>  <SCORE.INTER.POLAR>
0

>  <SCORE.INTER.ROT>
7

>  <SCORE.INTER.SOLV>
16.0295

>  <SCORE.INTER.VDW>
-24.8796

>  <SCORE.INTER.norm>
-0.650179

>  <SCORE.INTRA>
-2.47472

>  <SCORE.INTRA.DIHEDRAL>
-2.81045

>  <SCORE.INTRA.DIHEDRAL.0>
6.97628

>  <SCORE.INTRA.POLAR>
0

>  <SCORE.INTRA.POLAR.0>
0

>  <SCORE.INTRA.REPUL>
0

>  <SCORE.INTRA.REPUL.0>
0

>  <SCORE.INTRA.SOLV>
-0.691729

>  <SCORE.INTRA.SOLV.lig_0>
-49.8243

>  <SCORE.INTRA.VDW>
-0.723629

>  <SCORE.INTRA.VDW.0>
-1.35881

>  <SCORE.INTRA.norm>
-0.0951814

>  <SCORE.RESTR>
0

>  <SCORE.RESTR.CAVITY>
0

>  <SCORE.RESTR.norm>
0

>  <SCORE.SYSTEM>
0

>  <SCORE.SYSTEM.CONST>
0

>  <SCORE.SYSTEM.DIHEDRAL>
0

>  <SCORE.SYSTEM.SOLV>
0

>  <SCORE.SYSTEM.norm>
0

>  <SCORE.heavy>
26

>  <SCORE.norm>
-0.74536

>  <RMSD>
5.291

$$$$
ligand
 OpenBabel11021811483D
libRbt.so/2013.1/901 2013/11/27
 26 28  0  0  0  0  0  0  0  0999 V2000
   37.7107   16.6453    7.8766 N   0  0  0  0  0  0  0  0  0  0  0  0
   36.7369   15.5647    7.7841 C   0  0  2  0  0  0  0  0  0  0  0  0
   35.6258   15.7379    8.8133 C   0  0  0  0  0  0  0  0  0  0  0  0
   35.8837   16.0270    9.9811 O   0  0  0  0  0  0  0  0  0  0  0  0
   37.4179   14.2150    7.9726 C   0  0  0  0  0  0  0  0  0  0  0  0
   38.4230   13.8671    6.8824 C   0  0  0  0  0  0  0  0  0  0  0  0
   38.9665   12.1419    6.9641 S   0  0  0  0  0  0  0  0  0  0  0  0
   40.2267   12.4761    5.7077 C   0  0  0  0  0  0  0  0  0  0  0  0
   40.1309   11.5344    4.5131 C   0  0  1  0  0  0  0  0  0  0  0  0
   40.9770   11.9871    3.4718 O   0  0  0  0  0  0  0  0  0  0  0  0
   40.5592   10.1226    4.8790 C   0  0  1  0  0  0  0  0  0  0  0  0
   39.4734    9.2380    4.7343 O   0  0  0  0  0  0  0  0  0  0  0  0
   41.6592    9.7582    3.9037 C   0  0  1  0  0  0  0  0  0  0  0  0
   41.3023    8.6027    3.1813 O   0  0  0  0  0  0  0  0  0  0  0  0
   41.7875   10.9442    2.9631 C   0  0  2  0  0  0  0  0  0  0  0  0
   34.4434   15.5931    8.5006 O   0  0  0  0  0  0  0  0  0  0  0  0
   46.7230    9.6003    1.7791 N   0  0  0  0  0  0  0  0  0  0  0  0
   45.5867    8.8205    1.7007 C   0  0  0  0  0  0  0  0  0  0  0  0
   44.3589    9.3434    2.0557 N   0  0  0  0  0  0  0  0  0  0  0  0
   44.2597   10.6251    2.4853 C   0  0  0  0  0  0  0  0  0  0  0  0
   45.3911   11.4249    2.5715 C   0  0  0  0  0  0  0  0  0  0  0  0
   46.6303   10.9066    2.2152 C   0  0  0  0  0  0  0  0  0  0  0  0
   47.7209   11.6632    2.2946 N   0  0  0  0  0  0  0  0  0  0  0  0
   45.0084   12.6393    3.0218 N   0  0  0  0  0  0  0  0  0  0  0  0
   43.6704   12.6277    3.2217 C   0  0  0  0  0  0  0  0  0  0  0  0
   43.1922   11.3854    2.8933 N   0  0  0  0  0  0  0  0  0  0  0  0
  2  1  1  1  0  0  0
  2  3  1  0  0  0  0
  2  5  1  0  0  0  0
  3  4  1  0  0  0  0
  3 16  1  0  0  0  0
  5  6  1  0  0  0  0
  6  7  1  0  0  0  0
  7  8  1  0  0  0  0
  9  8  1  1  0  0  0
  9 10  1  0  0  0  0
  9 11  1  0  0  0  0
 10 15  1  0  0  0  0
 11 12  1  6  0  0  0
 11 13  1  0  0  0  0
 13 14  1  6  0  0  0
 13 15  1  0  0  0  0
 15 26  1  1  0  0  0
 17 18  2  0  0  0  0
 17 22  1  0  0  0  0
 18 19  1  0  0  0  0
 19 20  2  0  0  0  0
 20 21  1  0  0  0  0
 20 26  1  0  0  0  0
 21 22  2  0  0  0  0
 21 24  1  0  0  0  0
 22 23  1  0  0  0  0
 24 25  2  0  0  0  0
 25 26  1  0  0  0  0
M  END
>  <CHROM.1>
-45.59412868,-64.40328288,-168.91472741,-171.38637435,-125.35754263,169.80825213
178.04775224,41.05697361,12.08577228,4.88613311,-2.53700033,-0.42037487,-2.76682670

>  <Name>
ligand

>  <RI>
0

>  <Rbt.Current_Directory>
/home/itssahil/PROJECTS/Mol_Feturizer/New_Systems/rnas/3NPQ

>  <Rbt.Executable>
rbdock ($Id: //depot/dev/client3/rdock/2013.1/src/exe/rbdock.cxx#4 $)

>  <Rbt.Library>
libRbt.so (2013.1, Build901 2013/11/27)

>  <Rbt.Parameter_File>
/export/apps/rDock/src/rDock_2013.1_src/data/scripts/dock_solv.prm

>  <Rbt.Receptor>
prm/pocket_docking_7.prm

>  <SCORE>
-25.1651

>  <SCORE.INTER>
-23.7031

>  <SCORE.INTER.CONST>
1

>  <SCORE.INTER.POLAR>
0

>  <SCORE.INTER.ROT>
7

>  <SCORE.INTER.SOLV>
12.4666

>  <SCORE.INTER.VDW>
-28.2243

>  <SCORE.INTER.norm>
-0.911656

>  <SCORE.INTRA>
-1.46201

>  <SCORE.INTRA.DIHEDRAL>
-0.93415

>  <SCORE.INTRA.DIHEDRAL.0>
6.97628

>  <SCORE.INTRA.POLAR>
0

>  <SCORE.INTRA.POLAR.0>
0

>  <SCORE.INTRA.REPUL>
0

>  <SCORE.INTRA.REPUL.0>
0

>  <SCORE.INTRA.SOLV>
-0.145844

>  <SCORE.INTRA.SOLV.lig_0>
-49.8243

>  <SCORE.INTRA.VDW>
-0.922013

>  <SCORE.INTRA.VDW.0>
-1.35881

>  <SCORE.INTRA.norm>
-0.0562312

>  <SCORE.RESTR>
0

>  <SCORE.RESTR.CAVITY>
0

>  <SCORE.RESTR.norm>
0

>  <SCORE.SYSTEM>
0

>  <SCORE.SYSTEM.CONST>
0

>  <SCORE.SYSTEM.DIHEDRAL>
0

>  <SCORE.SYSTEM.SOLV>
0

>  <SCORE.SYSTEM.norm>
0

>  <SCORE.heavy>
26

>  <SCORE.norm>
-0.967887

>  <RMSD>
5.296

$$$$
ligand
 OpenBabel11021811483D
libRbt.so/2013.1/901 2013/11/27
 26 28  0  0  0  0  0  0  0  0999 V2000
   37.7075   16.5792    7.8570 N   0  0  0  0  0  0  0  0  0  0  0  0
   36.7654   15.4670    7.8448 C   0  0  2  0  0  0  0  0  0  0  0  0
   35.7412   15.6032    8.9657 C   0  0  0  0  0  0  0  0  0  0  0  0
   34.5707   15.2627    8.7990 O   0  0  0  0  0  0  0  0  0  0  0  0
   37.5041   14.1404    7.9705 C   0  0  0  0  0  0  0  0  0  0  0  0
   38.4111   13.8187    6.7900 C   0  0  0  0  0  0  0  0  0  0  0  0
   39.0253   12.1159    6.8303 S   0  0  0  0  0  0  0  0  0  0  0  0
   40.3392   12.5590    5.6661 C   0  0  0  0  0  0  0  0  0  0  0  0
   40.3370   11.6863    4.4164 C   0  0  1  0  0  0  0  0  0  0  0  0
   41.2300   12.2175    3.4544 O   0  0  0  0  0  0  0  0  0  0  0  0
   40.7795   10.2656    4.7264 C   0  0  1  0  0  0  0  0  0  0  0  0
   39.7270    9.3668    4.4677 O   0  0  0  0  0  0  0  0  0  0  0  0
   41.9431    9.9831    3.7989 C   0  0  1  0  0  0  0  0  0  0  0  0
   41.6584    8.8639    2.9923 O   0  0  0  0  0  0  0  0  0  0  0  0
   42.0951   11.2243    2.9363 C   0  0  2  0  0  0  0  0  0  0  0  0
   36.0609   16.0568   10.0652 O   0  0  0  0  0  0  0  0  0  0  0  0
   47.1180   10.0834    1.9185 N   0  0  0  0  0  0  0  0  0  0  0  0
   46.0077    9.2873    1.7210 C   0  0  0  0  0  0  0  0  0  0  0  0
   44.7503    9.7545    2.0487 N   0  0  0  0  0  0  0  0  0  0  0  0
   44.5961   10.9968    2.5680 C   0  0  0  0  0  0  0  0  0  0  0  0
   45.7005   11.8122    2.7746 C   0  0  0  0  0  0  0  0  0  0  0  0
   46.9693   11.3499    2.4466 C   0  0  0  0  0  0  0  0  0  0  0  0
   48.0345   12.1217    2.6410 N   0  0  0  0  0  0  0  0  0  0  0  0
   45.2639   12.9797    3.2944 N   0  0  0  0  0  0  0  0  0  0  0  0
   43.9182   12.9235    3.4214 C   0  0  0  0  0  0  0  0  0  0  0  0
   43.4897   11.7000    2.9749 N   0  0  0  0  0  0  0  0  0  0  0  0
  2  1  1  1  0  0  0
  2  3  1  0  0  0  0
  2  5  1  0  0  0  0
  3  4  1  0  0  0  0
  3 16  1  0  0  0  0
  5  6  1  0  0  0  0
  6  7  1  0  0  0  0
  7  8  1  0  0  0  0
  9  8  1  1  0  0  0
  9 10  1  0  0  0  0
  9 11  1  0  0  0  0
 10 15  1  0  0  0  0
 11 12  1  6  0  0  0
 11 13  1  0  0  0  0
 13 14  1  6  0  0  0
 13 15  1  0  0  0  0
 15 26  1  1  0  0  0
 17 18  2  0  0  0  0
 17 22  1  0  0  0  0
 18 19  1  0  0  0  0
 19 20  2  0  0  0  0
 20 21  1  0  0  0  0
 20 26  1  0  0  0  0
 21 22  2  0  0  0  0
 21 24  1  0  0  0  0
 22 23  1  0  0  0  0
 24 25  2  0  0  0  0
 25 26  1  0  0  0  0
M  END
>  <CHROM.1>
143.36647130,-65.06346586,-169.36819358,-161.96814051,-124.23719991,170.24787834
179.18867996,41.27320530,12.25106028,4.91348211,-2.56105457,-0.38509038,-2.70350247

>  <Name>
ligand

>  <RI>
0

>  <Rbt.Current_Directory>
/home/itssahil/PROJECTS/Mol_Feturizer/New_Systems/rnas/3NPQ

>  <Rbt.Executable>
rbdock ($Id: //depot/dev/client3/rdock/2013.1/src/exe/rbdock.cxx#4 $)

>  <Rbt.Library>
libRbt.so (2013.1, Build901 2013/11/27)

>  <Rbt.Parameter_File>
/export/apps/rDock/src/rDock_2013.1_src/data/scripts/dock_solv.prm

>  <Rbt.Receptor>
prm/pocket_docking_8.prm

>  <SCORE>
-25.4471

>  <SCORE.INTER>
-24.1518

>  <SCORE.INTER.CONST>
1

>  <SCORE.INTER.POLAR>
0

>  <SCORE.INTER.ROT>
7

>  <SCORE.INTER.SOLV>
11.3049

>  <SCORE.INTER.VDW>
-28.1362

>  <SCORE.INTER.norm>
-0.928914

>  <SCORE.INTRA>
-1.29537

>  <SCORE.INTRA.DIHEDRAL>
-0.581761

>  <SCORE.INTRA.DIHEDRAL.0>
6.97628

>  <SCORE.INTRA.POLAR>
0

>  <SCORE.INTRA.POLAR.0>
0

>  <SCORE.INTRA.REPUL>
0

>  <SCORE.INTRA.REPUL.0>
0

>  <SCORE.INTRA.SOLV>
-0.147591

>  <SCORE.INTRA.SOLV.lig_0>
-49.8243

>  <SCORE.INTRA.VDW>
-0.930694

>  <SCORE.INTRA.VDW.0>
-1.35881

>  <SCORE.INTRA.norm>
-0.0498219

>  <SCORE.RESTR>
0

>  <SCORE.RESTR.CAVITY>
0

>  <SCORE.RESTR.norm>
0

>  <SCORE.SYSTEM>
0

>  <SCORE.SYSTEM.CONST>
0

>  <SCORE.SYSTEM.DIHEDRAL>
0

>  <SCORE.SYSTEM.SOLV>
0

>  <SCORE.SYSTEM.norm>
0

>  <SCORE.heavy>
26

>  <SCORE.norm>
-0.978736

>  <RMSD>
5.378

$$$$
ligand
 OpenBabel11021811483D
libRbt.so/2013.1/901 2013/11/27
 26 28  0  0  0  0  0  0  0  0999 V2000
   35.8021   15.7361    6.4024 N   0  0  0  0  0  0  0  0  0  0  0  0
   36.6957   14.8552    7.1442 C   0  0  2  0  0  0  0  0  0  0  0  0
   36.6329   15.1433    8.6399 C   0  0  0  0  0  0  0  0  0  0  0  0
   35.9166   14.4748    9.3841 O   0  0  0  0  0  0  0  0  0  0  0  0
   38.1270   15.0023    6.6434 C   0  0  0  0  0  0  0  0  0  0  0  0
   39.1261   14.0843    7.3355 C   0  0  0  0  0  0  0  0  0  0  0  0
   38.9486   12.3558    6.8267 S   0  0  0  0  0  0  0  0  0  0  0  0
   40.2887   12.5678    5.6278 C   0  0  0  0  0  0  0  0  0  0  0  0
   40.1931   11.5929    4.4600 C   0  0  1  0  0  0  0  0  0  0  0  0
   41.0605   12.0009    3.4177 O   0  0  0  0  0  0  0  0  0  0  0  0
   40.5927   10.1858    4.8728 C   0  0  1  0  0  0  0  0  0  0  0  0
   39.4943    9.3151    4.7390 O   0  0  0  0  0  0  0  0  0  0  0  0
   41.6994    9.7749    3.9239 C   0  0  1  0  0  0  0  0  0  0  0  0
   41.3329    8.6046    3.2308 O   0  0  0  0  0  0  0  0  0  0  0  0
   41.8601   10.9304    2.9510 C   0  0  2  0  0  0  0  0  0  0  0  0
   37.2981   16.0517    9.1392 O   0  0  0  0  0  0  0  0  0  0  0  0
   45.4370   14.4562    4.4813 N   0  0  0  0  0  0  0  0  0  0  0  0
   44.0911   14.4220    4.7863 C   0  0  0  0  0  0  0  0  0  0  0  0
   43.2919   13.4102    4.2921 N   0  0  0  0  0  0  0  0  0  0  0  0
   43.8214   12.4441    3.5027 C   0  0  0  0  0  0  0  0  0  0  0  0
   45.1725   12.4615    3.1843 C   0  0  0  0  0  0  0  0  0  0  0  0
   45.9839   13.4758    3.6784 C   0  0  0  0  0  0  0  0  0  0  0  0
   47.2792   13.5031    3.3791 N   0  0  0  0  0  0  0  0  0  0  0  0
   45.4274   11.3958    2.3949 N   0  0  0  0  0  0  0  0  0  0  0  0
   44.2774   10.7084    2.2068 C   0  0  0  0  0  0  0  0  0  0  0  0
   43.2728   11.3463    2.8877 N   0  0  0  0  0  0  0  0  0  0  0  0
  2  1  1  6  0  0  0
  2  3  1  0  0  0  0
  2  5  1  0  0  0  0
  3  4  1  0  0  0  0
  3 16  1  0  0  0  0
  5  6  1  0  0  0  0
  6  7  1  0  0  0  0
  7  8  1  0  0  0  0
  9  8  1  1  0  0  0
  9 10  1  0  0  0  0
  9 11  1  0  0  0  0
 10 15  1  0  0  0  0
 11 12  1  6  0  0  0
 11 13  1  0  0  0  0
 13 14  1  6  0  0  0
 13 15  1  0  0  0  0
 15 26  1  1  0  0  0
 17 18  2  0  0  0  0
 17 22  1  0  0  0  0
 18 19  1  0  0  0  0
 19 20  2  0  0  0  0
 20 21  1  0  0  0  0
 20 26  1  0  0  0  0
 21 22  2  0  0  0  0
 21 24  1  0  0  0  0
 22 23  1  0  0  0  0
 24 25  2  0  0  0  0
 25 26  1  0  0  0  0
M  END
>  <CHROM.1>
96.75049520,-178.21366189,72.84604206,97.05101071,-154.31860680,166.39400491
16.29336656,41.05039166,12.67429031,5.12233762,-2.63849206,-0.37932555,-2.68133975

>  <Name>
ligand

>  <RI>
0

>  <Rbt.Current_Directory>
/home/itssahil/PROJECTS/Mol_Feturizer/New_Systems/rnas/3NPQ

>  <Rbt.Executable>
rbdock ($Id: //depot/dev/client3/rdock/2013.1/src/exe/rbdock.cxx#4 $)

>  <Rbt.Library>
libRbt.so (2013.1, Build901 2013/11/27)

>  <Rbt.Parameter_File>
/export/apps/rDock/src/rDock_2013.1_src/data/scripts/dock_solv.prm

>  <Rbt.Receptor>
prm/pocket_docking_8.prm

>  <SCORE>
-23.7102

>  <SCORE.INTER>
-22.1852

>  <SCORE.INTER.CONST>
1

>  <SCORE.INTER.POLAR>
0

>  <SCORE.INTER.ROT>
7

>  <SCORE.INTER.SOLV>
14.6978

>  <SCORE.INTER.VDW>
-27.9561

>  <SCORE.INTER.norm>
-0.853277

>  <SCORE.INTRA>
-1.52497

>  <SCORE.INTRA.DIHEDRAL>
-0.494417

>  <SCORE.INTRA.DIHEDRAL.0>
6.97628

>  <SCORE.INTRA.POLAR>
0

>  <SCORE.INTRA.POLAR.0>
0

>  <SCORE.INTRA.REPUL>
0

>  <SCORE.INTRA.REPUL.0>
0

>  <SCORE.INTRA.SOLV>
-0.749465

>  <SCORE.INTRA.SOLV.lig_0>
-49.8243

>  <SCORE.INTRA.VDW>
-0.903028

>  <SCORE.INTRA.VDW.0>
-1.35881

>  <SCORE.INTRA.norm>
-0.0586527

>  <SCORE.RESTR>
0

>  <SCORE.RESTR.CAVITY>
0

>  <SCORE.RESTR.norm>
0

>  <SCORE.SYSTEM>
0

>  <SCORE.SYSTEM.CONST>
0

>  <SCORE.SYSTEM.DIHEDRAL>
0

>  <SCORE.SYSTEM.SOLV>
0

>  <SCORE.SYSTEM.norm>
0

>  <SCORE.heavy>
26

>  <SCORE.norm>
-0.911929

>  <RMSD>
5.408

$$$$
ligand
 OpenBabel11021811483D
libRbt.so/2013.1/901 2013/11/27
 26 28  0  0  0  0  0  0  0  0999 V2000
   37.9630   19.3444    2.2108 N   0  0  0  0  0  0  0  0  0  0  0  0
   37.4299   18.4837    3.2594 C   0  0  2  0  0  0  0  0  0  0  0  0
   38.4109   18.3609    4.4198 C   0  0  0  0  0  0  0  0  0  0  0  0
   39.5880   18.0601    4.2250 O   0  0  0  0  0  0  0  0  0  0  0  0
   37.1039   17.1035    2.7026 C   0  0  0  0  0  0  0  0  0  0  0  0
   36.1793   16.2778    3.5875 C   0  0  0  0  0  0  0  0  0  0  0  0
   36.9763   15.7543    5.1267 S   0  0  0  0  0  0  0  0  0  0  0  0
   35.3774   15.1985    5.7692 C   0  0  0  0  0  0  0  0  0  0  0  0
   35.3538   15.1084    7.2906 C   0  0  1  0  0  0  0  0  0  0  0  0
   36.5903   14.6066    7.7642 O   0  0  0  0  0  0  0  0  0  0  0  0
   35.1307   16.4704    7.9274 C   0  0  1  0  0  0  0  0  0  0  0  0
   33.9155   16.4756    8.6384 O   0  0  0  0  0  0  0  0  0  0  0  0
   36.2903   16.6767    8.8798 C   0  0  1  0  0  0  0  0  0  0  0  0
   35.8112   16.8775   10.1892 O   0  0  0  0  0  0  0  0  0  0  0  0
   37.1119   15.4008    8.8133 C   0  0  2  0  0  0  0  0  0  0  0  0
   38.0489   18.5602    5.5800 O   0  0  0  0  0  0  0  0  0  0  0  0
   41.4112   14.1907    6.0530 N   0  0  0  0  0  0  0  0  0  0  0  0
   40.1704   13.5879    6.0032 C   0  0  0  0  0  0  0  0  0  0  0  0
   39.1443   14.0416    6.8082 N   0  0  0  0  0  0  0  0  0  0  0  0
   39.3473   15.0807    7.6545 C   0  0  0  0  0  0  0  0  0  0  0  0
   40.5882   15.6995    7.7195 C   0  0  0  0  0  0  0  0  0  0  0  0
   41.6259   15.2496    6.9119 C   0  0  0  0  0  0  0  0  0  0  0  0
   42.8189   15.8341    6.9664 N   0  0  0  0  0  0  0  0  0  0  0  0
   40.5109   16.6915    8.6327 N   0  0  0  0  0  0  0  0  0  0  0  0
   39.2588   16.7153    9.1446 C   0  0  0  0  0  0  0  0  0  0  0  0
   38.5257   15.7222    8.5476 N   0  0  0  0  0  0  0  0  0  0  0  0
  2  1  1  6  0  0  0
  2  3  1  0  0  0  0
  2  5  1  0  0  0  0
  3  4  1  0  0  0  0
  3 16  1  0  0  0  0
  5  6  1  0  0  0  0
  6  7  1  0  0  0  0
  7  8  1  0  0  0  0
  9  8  1  6  0  0  0
  9 10  1  0  0  0  0
  9 11  1  0  0  0  0
 10 15  1  0  0  0  0
 11 12  1  1  0  0  0
 11 13  1  0  0  0  0
 13 14  1  1  0  0  0
 13 15  1  0  0  0  0
 15 26  1  6  0  0  0
 17 18  2  0  0  0  0
 17 22  1  0  0  0  0
 18 19  1  0  0  0  0
 19 20  2  0  0  0  0
 20 21  1  0  0  0  0
 20 26  1  0  0  0  0
 21 22  2  0  0  0  0
 21 24  1  0  0  0  0
 22 23  1  0  0  0  0
 24 25  2  0  0  0  0
 25 26  1  0  0  0  0
M  END
>  <CHROM.1>
-50.88560359,-162.87721289,-69.17640497,169.47363844,-158.46932746,-38.83868873
-17.06992333,37.98072183,16.22180015,6.49753098,1.14588614,0.15987800,-1.17747584

>  <Name>
ligand

>  <RI>
0

>  <Rbt.Current_Directory>
/home/itssahil/PROJECTS/Mol_Feturizer/New_Systems/rnas/3NPQ

>  <Rbt.Executable>
rbdock ($Id: //depot/dev/client3/rdock/2013.1/src/exe/rbdock.cxx#4 $)

>  <Rbt.Library>
libRbt.so (2013.1, Build901 2013/11/27)

>  <Rbt.Parameter_File>
/export/apps/rDock/src/rDock_2013.1_src/data/scripts/dock_solv.prm

>  <Rbt.Receptor>
prm/pocket_docking_6.prm

>  <SCORE>
-17.8627

>  <SCORE.INTER>
-14.8093

>  <SCORE.INTER.CONST>
1

>  <SCORE.INTER.POLAR>
0

>  <SCORE.INTER.ROT>
7

>  <SCORE.INTER.SOLV>
11.863

>  <SCORE.INTER.VDW>
-22.0939

>  <SCORE.INTER.norm>
-0.569588

>  <SCORE.INTRA>
-3.0534

>  <SCORE.INTRA.DIHEDRAL>
-0.595543

>  <SCORE.INTRA.DIHEDRAL.0>
6.97628

>  <SCORE.INTRA.POLAR>
0

>  <SCORE.INTRA.POLAR.0>
0

>  <SCORE.INTRA.REPUL>
0

>  <SCORE.INTRA.REPUL.0>
0

>  <SCORE.INTRA.SOLV>
-0.3611

>  <SCORE.INTRA.SOLV.lig_0>
-49.8243

>  <SCORE.INTRA.VDW>
-2.57508

>  <SCORE.INTRA.VDW.0>
-1.35881

>  <SCORE.INTRA.norm>
-0.117438

>  <SCORE.RESTR>
0

>  <SCORE.RESTR.CAVITY>
0

>  <SCORE.RESTR.norm>
0

>  <SCORE.SYSTEM>
0

>  <SCORE.SYSTEM.CONST>
0

>  <SCORE.SYSTEM.DIHEDRAL>
0

>  <SCORE.SYSTEM.SOLV>
0

>  <SCORE.SYSTEM.norm>
0

>  <SCORE.heavy>
26

>  <SCORE.norm>
-0.687026

>  <RMSD>
5.502

$$$$
ligand
 OpenBabel11021811483D
libRbt.so/2013.1/901 2013/11/27
 26 28  0  0  0  0  0  0  0  0999 V2000
   36.0648   17.8305    9.0012 N   0  0  0  0  0  0  0  0  0  0  0  0
   36.2721   16.5889    8.2663 C   0  0  2  0  0  0  0  0  0  0  0  0
   35.0714   15.6604    8.4082 C   0  0  0  0  0  0  0  0  0  0  0  0
   34.3018   15.4719    7.4669 O   0  0  0  0  0  0  0  0  0  0  0  0
   37.5351   15.8872    8.7495 C   0  0  0  0  0  0  0  0  0  0  0  0
   37.7723   14.5241    8.1129 C   0  0  0  0  0  0  0  0  0  0  0  0
   37.7851   14.5956    6.3037 S   0  0  0  0  0  0  0  0  0  0  0  0
   39.1584   13.4163    6.2637 C   0  0  0  0  0  0  0  0  0  0  0  0
   40.0724   13.6181    5.0607 C   0  0  1  0  0  0  0  0  0  0  0  0
   40.5897   14.9362    5.0625 O   0  0  0  0  0  0  0  0  0  0  0  0
   41.2496   12.6570    5.0862 C   0  0  1  0  0  0  0  0  0  0  0  0
   41.1909   11.7952    3.9744 O   0  0  0  0  0  0  0  0  0  0  0  0
   42.4909   13.5213    5.0080 C   0  0  1  0  0  0  0  0  0  0  0  0
   43.2573   13.1668    3.8805 O   0  0  0  0  0  0  0  0  0  0  0  0
   41.9924   14.9499    4.8734 C   0  0  2  0  0  0  0  0  0  0  0  0
   34.8432   15.0763    9.4682 O   0  0  0  0  0  0  0  0  0  0  0  0
   41.3888   17.5014    9.4224 N   0  0  0  0  0  0  0  0  0  0  0  0
   40.4574   16.7431    8.7420 C   0  0  0  0  0  0  0  0  0  0  0  0
   40.7929   16.1378    7.5471 N   0  0  0  0  0  0  0  0  0  0  0  0
   42.0379   16.2844    7.0320 C   0  0  0  0  0  0  0  0  0  0  0  0
   42.9883   17.0435    7.7011 C   0  0  0  0  0  0  0  0  0  0  0  0
   42.6590   17.6552    8.9047 C   0  0  0  0  0  0  0  0  0  0  0  0
   43.5609   18.3854    9.5538 N   0  0  0  0  0  0  0  0  0  0  0  0
   44.1261   17.0203    6.9739 N   0  0  0  0  0  0  0  0  0  0  0  0
   43.9203   16.2697    5.8673 C   0  0  0  0  0  0  0  0  0  0  0  0
   42.6300   15.8065    5.8894 N   0  0  0  0  0  0  0  0  0  0  0  0
  2  1  1  1  0  0  0
  2  3  1  0  0  0  0
  2  5  1  0  0  0  0
  3  4  1  0  0  0  0
  3 16  1  0  0  0  0
  5  6  1  0  0  0  0
  6  7  1  0  0  0  0
  7  8  1  0  0  0  0
  9  8  1  1  0  0  0
  9 10  1  0  0  0  0
  9 11  1  0  0  0  0
 10 15  1  0  0  0  0
 11 12  1  6  0  0  0
 11 13  1  0  0  0  0
 13 14  1  6  0  0  0
 13 15  1  0  0  0  0
 15 26  1  1  0  0  0
 17 18  2  0  0  0  0
 17 22  1  0  0  0  0
 18 19  1  0  0  0  0
 19 20  2  0  0  0  0
 20 21  1  0  0  0  0
 20 26  1  0  0  0  0
 21 22  2  0  0  0  0
 21 24  1  0  0  0  0
 22 23  1  0  0  0  0
 24 25  2  0  0  0  0
 25 26  1  0  0  0  0
M  END
>  <CHROM.1>
107.61058705,175.40587450,54.79327762,140.20502647,-149.81708380,57.88671205
13.84514169,39.97595300,15.38268415,6.95531230,-2.86364991,-0.19116959,-2.37444330

>  <Name>
ligand

>  <RI>
0

>  <Rbt.Current_Directory>
/home/itssahil/PROJECTS/Mol_Feturizer/New_Systems/rnas/3NPQ

>  <Rbt.Executable>
rbdock ($Id: //depot/dev/client3/rdock/2013.1/src/exe/rbdock.cxx#4 $)

>  <Rbt.Library>
libRbt.so (2013.1, Build901 2013/11/27)

>  <Rbt.Parameter_File>
/export/apps/rDock/src/rDock_2013.1_src/data/scripts/dock_solv.prm

>  <Rbt.Receptor>
prm/pocket_docking_6.prm

>  <SCORE>
-14.6082

>  <SCORE.INTER>
-12.1165

>  <SCORE.INTER.CONST>
1

>  <SCORE.INTER.POLAR>
0

>  <SCORE.INTER.ROT>
7

>  <SCORE.INTER.SOLV>
9.2071

>  <SCORE.INTER.VDW>
-19.4134

>  <SCORE.INTER.norm>
-0.466019

>  <SCORE.INTRA>
-2.50197

>  <SCORE.INTRA.DIHEDRAL>
-1.10101

>  <SCORE.INTRA.DIHEDRAL.0>
6.97628

>  <SCORE.INTRA.POLAR>
0

>  <SCORE.INTRA.POLAR.0>
0

>  <SCORE.INTRA.REPUL>
0

>  <SCORE.INTRA.REPUL.0>
0

>  <SCORE.INTRA.SOLV>
-0.682505

>  <SCORE.INTRA.SOLV.lig_0>
-49.8243

>  <SCORE.INTRA.VDW>
-1.61021

>  <SCORE.INTRA.VDW.0>
-1.35881

>  <SCORE.INTRA.norm>
-0.0962295

>  <SCORE.RESTR>
0.0103002

>  <SCORE.RESTR.CAVITY>
0.0103002

>  <SCORE.RESTR.norm>
0.000396161

>  <SCORE.SYSTEM>
0

>  <SCORE.SYSTEM.CONST>
0

>  <SCORE.SYSTEM.DIHEDRAL>
0

>  <SCORE.SYSTEM.SOLV>
0

>  <SCORE.SYSTEM.norm>
0

>  <SCORE.heavy>
26

>  <SCORE.norm>
-0.561853

>  <RMSD>
5.533

$$$$
ligand
 OpenBabel11021811483D
libRbt.so/2013.1/901 2013/11/27
 26 28  0  0  0  0  0  0  0  0999 V2000
   37.1594   17.1514    7.8688 N   0  0  0  0  0  0  0  0  0  0  0  0
   36.2427   16.0195    7.9226 C   0  0  2  0  0  0  0  0  0  0  0  0
   35.3095   16.1259    9.1233 C   0  0  0  0  0  0  0  0  0  0  0  0
   34.0876   16.1187    8.9785 O   0  0  0  0  0  0  0  0  0  0  0  0
   37.0164   14.7081    7.9768 C   0  0  0  0  0  0  0  0  0  0  0  0
   37.8126   14.4024    6.7150 C   0  0  0  0  0  0  0  0  0  0  0  0
   38.6941   12.8241    6.8157 S   0  0  0  0  0  0  0  0  0  0  0  0
   40.2767   13.6981    6.7159 C   0  0  0  0  0  0  0  0  0  0  0  0
   40.8568   13.7056    5.3064 C   0  0  1  0  0  0  0  0  0  0  0  0
   40.0106   14.4384    4.4394 O   0  0  0  0  0  0  0  0  0  0  0  0
   42.2312   14.3539    5.2715 C   0  0  1  0  0  0  0  0  0  0  0  0
   43.1983   13.4098    4.8771 O   0  0  0  0  0  0  0  0  0  0  0  0
   42.1393   15.4631    4.2442 C   0  0  1  0  0  0  0  0  0  0  0  0
   43.0924   15.2607    3.2269 O   0  0  0  0  0  0  0  0  0  0  0  0
   40.7355   15.3795    3.6699 C   0  0  2  0  0  0  0  0  0  0  0  0
   35.7561   16.2210   10.2671 O   0  0  0  0  0  0  0  0  0  0  0  0
   36.1772   17.9848    3.7155 N   0  0  0  0  0  0  0  0  0  0  0  0
   36.3774   16.6217    3.6292 C   0  0  0  0  0  0  0  0  0  0  0  0
   37.6583   16.1058    3.6312 N   0  0  0  0  0  0  0  0  0  0  0  0
   38.7286   16.9328    3.7163 C   0  0  0  0  0  0  0  0  0  0  0  0
   38.5478   18.3065    3.8033 C   0  0  0  0  0  0  0  0  0  0  0  0
   37.2620   18.8337    3.8028 C   0  0  0  0  0  0  0  0  0  0  0  0
   37.0768   20.1479    3.8847 N   0  0  0  0  0  0  0  0  0  0  0  0
   39.7671   18.8826    3.8763 N   0  0  0  0  0  0  0  0  0  0  0  0
   40.7097   17.9129    3.8377 C   0  0  0  0  0  0  0  0  0  0  0  0
   40.0810   16.6985    3.7386 N   0  0  0  0  0  0  0  0  0  0  0  0
  2  1  1  1  0  0  0
  2  3  1  0  0  0  0
  2  5  1  0  0  0  0
  3  4  1  0  0  0  0
  3 16  1  0  0  0  0
  5  6  1  0  0  0  0
  6  7  1  0  0  0  0
  7  8  1  0  0  0  0
  9  8  1  1  0  0  0
  9 10  1  0  0  0  0
  9 11  1  0  0  0  0
 10 15  1  0  0  0  0
 11 12  1  6  0  0  0
 11 13  1  0  0  0  0
 13 14  1  6  0  0  0
 13 15  1  0  0  0  0
 15 26  1  1  0  0  0
 17 18  2  0  0  0  0
 17 22  1  0  0  0  0
 18 19  1  0  0  0  0
 19 20  2  0  0  0  0
 20 21  1  0  0  0  0
 20 26  1  0  0  0  0
 21 22  2  0  0  0  0
 21 24  1  0  0  0  0
 22 23  1  0  0  0  0
 24 25  2  0  0  0  0
 25 26  1  0  0  0  0
M  END
>  <CHROM.1>
123.32844076,-66.07393773,-179.11964541,-116.01259600,-98.03345022,64.69955540
-39.70554464,38.74883089,15.85344288,5.54363033,2.88014310,-0.55407120,2.39076188

>  <Name>
ligand

>  <RI>
0

>  <Rbt.Current_Directory>
/home/itssahil/PROJECTS/Mol_Feturizer/New_Systems/rnas/3NPQ

>  <Rbt.Executable>
rbdock ($Id: //depot/dev/client3/rdock/2013.1/src/exe/rbdock.cxx#4 $)

>  <Rbt.Library>
libRbt.so (2013.1, Build901 2013/11/27)

>  <Rbt.Parameter_File>
/export/apps/rDock/src/rDock_2013.1_src/data/scripts/dock_solv.prm

>  <Rbt.Receptor>
prm/pocket_docking_7.prm

>  <SCORE>
-15.6652

>  <SCORE.INTER>
-14.0015

>  <SCORE.INTER.CONST>
1

>  <SCORE.INTER.POLAR>
0

>  <SCORE.INTER.ROT>
7

>  <SCORE.INTER.SOLV>
8.7446

>  <SCORE.INTER.VDW>
-20.5159

>  <SCORE.INTER.norm>
-0.53852

>  <SCORE.INTRA>
-1.66372

>  <SCORE.INTRA.DIHEDRAL>
-0.00475917

>  <SCORE.INTRA.DIHEDRAL.0>
6.97628

>  <SCORE.INTRA.POLAR>
0

>  <SCORE.INTRA.POLAR.0>
0

>  <SCORE.INTRA.REPUL>
0

>  <SCORE.INTRA.REPUL.0>
0

>  <SCORE.INTRA.SOLV>
-0.190051

>  <SCORE.INTRA.SOLV.lig_0>
-49.8243

>  <SCORE.INTRA.VDW>
-1.56631

>  <SCORE.INTRA.VDW.0>
-1.35881

>  <SCORE.INTRA.norm>
-0.0639891

>  <SCORE.RESTR>
0

>  <SCORE.RESTR.CAVITY>
0

>  <SCORE.RESTR.norm>
0

>  <SCORE.SYSTEM>
0

>  <SCORE.SYSTEM.CONST>
0

>  <SCORE.SYSTEM.DIHEDRAL>
0

>  <SCORE.SYSTEM.SOLV>
0

>  <SCORE.SYSTEM.norm>
0

>  <SCORE.heavy>
26

>  <SCORE.norm>
-0.602509

>  <RMSD>
5.609

$$$$
ligand
 OpenBabel11021811483D
libRbt.so/2013.1/901 2013/11/27
 26 28  0  0  0  0  0  0  0  0999 V2000
   38.9556   17.7095    3.2362 N   0  0  0  0  0  0  0  0  0  0  0  0
   38.2115   16.4949    3.5452 C   0  0  2  0  0  0  0  0  0  0  0  0
   36.7266   16.7912    3.7222 C   0  0  0  0  0  0  0  0  0  0  0  0
   36.3392   17.9117    4.0512 O   0  0  0  0  0  0  0  0  0  0  0  0
   38.7657   15.8344    4.8013 C   0  0  0  0  0  0  0  0  0  0  0  0
   40.1071   15.1416    4.6001 C   0  0  0  0  0  0  0  0  0  0  0  0
   40.6347   14.2126    6.0620 S   0  0  0  0  0  0  0  0  0  0  0  0
   41.5083   13.0335    5.0014 C   0  0  0  0  0  0  0  0  0  0  0  0
   40.5770   11.9993    4.3796 C   0  0  1  0  0  0  0  0  0  0  0  0
   41.2026   11.3959    3.2618 O   0  0  0  0  0  0  0  0  0  0  0  0
   40.2270   10.8978    5.3668 C   0  0  1  0  0  0  0  0  0  0  0  0
   38.8442   10.9107    5.6312 O   0  0  0  0  0  0  0  0  0  0  0  0
   40.6142    9.5987    4.6913 C   0  0  1  0  0  0  0  0  0  0  0  0
   39.4906    8.7561    4.5826 O   0  0  0  0  0  0  0  0  0  0  0  0
   41.1146    9.9840    3.3097 C   0  0  2  0  0  0  0  0  0  0  0  0
   35.8792   15.9163    3.5397 O   0  0  0  0  0  0  0  0  0  0  0  0
   45.9379   10.7263    1.3728 N   0  0  0  0  0  0  0  0  0  0  0  0
   44.8885   11.6223    1.4094 C   0  0  0  0  0  0  0  0  0  0  0  0
   43.6782   11.2531    1.9623 N   0  0  0  0  0  0  0  0  0  0  0  0
   43.5103   10.0084    2.4717 C   0  0  0  0  0  0  0  0  0  0  0  0
   44.5535    9.0929    2.4437 C   0  0  0  0  0  0  0  0  0  0  0  0
   45.7750    9.4569    1.8898 C   0  0  0  0  0  0  0  0  0  0  0  0
   46.7811    8.5880    1.8567 N   0  0  0  0  0  0  0  0  0  0  0  0
   44.1170    7.9475    3.0106 N   0  0  0  0  0  0  0  0  0  0  0  0
   42.8304    8.1145    3.3943 C   0  0  0  0  0  0  0  0  0  0  0  0
   42.4404    9.3875    3.0668 N   0  0  0  0  0  0  0  0  0  0  0  0
  2  1  1  1  0  0  0
  2  3  1  0  0  0  0
  2  5  1  0  0  0  0
  3  4  1  0  0  0  0
  3 16  1  0  0  0  0
  5  6  1  0  0  0  0
  6  7  1  0  0  0  0
  7  8  1  0  0  0  0
  9  8  1  1  0  0  0
  9 10  1  0  0  0  0
  9 11  1  0  0  0  0
 10 15  1  0  0  0  0
 11 12  1  6  0  0  0
 11 13  1  0  0  0  0
 13 14  1  6  0  0  0
 13 15  1  0  0  0  0
 15 26  1  1  0  0  0
 17 18  2  0  0  0  0
 17 22  1  0  0  0  0
 18 19  1  0  0  0  0
 19 20  2  0  0  0  0
 20 21  1  0  0  0  0
 20 26  1  0  0  0  0
 21 22  2  0  0  0  0
 21 24  1  0  0  0  0
 22 23  1  0  0  0  0
 24 25  2  0  0  0  0
 25 26  1  0  0  0  0
M  END
>  <CHROM.1>
-24.69397507,-73.57708409,-173.42263536,149.75045796,-80.01648224,161.31023581
-19.38050705,41.14558045,12.20159593,3.72449385,-2.43228446,-0.47892231,2.89864494

>  <Name>
ligand

>  <RI>
0

>  <Rbt.Current_Directory>
/home/itssahil/PROJECTS/Mol_Feturizer/New_Systems/rnas/3NPQ

>  <Rbt.Executable>
rbdock ($Id: //depot/dev/client3/rdock/2013.1/src/exe/rbdock.cxx#4 $)

>  <Rbt.Library>
libRbt.so (2013.1, Build901 2013/11/27)

>  <Rbt.Parameter_File>
/export/apps/rDock/src/rDock_2013.1_src/data/scripts/dock_solv.prm

>  <Rbt.Receptor>
prm/pocket_docking_7.prm

>  <SCORE>
-17.9149

>  <SCORE.INTER>
-16.7366

>  <SCORE.INTER.CONST>
1

>  <SCORE.INTER.POLAR>
0

>  <SCORE.INTER.ROT>
7

>  <SCORE.INTER.SOLV>
13.8702

>  <SCORE.INTER.VDW>
-24.0478

>  <SCORE.INTER.norm>
-0.643716

>  <SCORE.INTRA>
-1.17825

>  <SCORE.INTRA.DIHEDRAL>
-0.439048

>  <SCORE.INTRA.DIHEDRAL.0>
6.97628

>  <SCORE.INTRA.POLAR>
0

>  <SCORE.INTRA.POLAR.0>
0

>  <SCORE.INTRA.REPUL>
0

>  <SCORE.INTRA.REPUL.0>
0

>  <SCORE.INTRA.SOLV>
-0.189616

>  <SCORE.INTRA.SOLV.lig_0>
-49.8243

>  <SCORE.INTRA.VDW>
-0.863922

>  <SCORE.INTRA.VDW.0>
-1.35881

>  <SCORE.INTRA.norm>
-0.0453175

>  <SCORE.RESTR>
0

>  <SCORE.RESTR.CAVITY>
0

>  <SCORE.RESTR.norm>
0

>  <SCORE.SYSTEM>
0

>  <SCORE.SYSTEM.CONST>
0

>  <SCORE.SYSTEM.DIHEDRAL>
0

>  <SCORE.SYSTEM.SOLV>
0

>  <SCORE.SYSTEM.norm>
0

>  <SCORE.heavy>
26

>  <SCORE.norm>
-0.689034

>  <RMSD>
5.626

$$$$
ligand
 OpenBabel11021811483D
libRbt.so/2013.1/901 2013/11/27
 26 28  0  0  0  0  0  0  0  0999 V2000
   38.6524   21.1439    6.2627 N   0  0  0  0  0  0  0  0  0  0  0  0
   37.2750   20.6936    6.1062 C   0  0  2  0  0  0  0  0  0  0  0  0
   36.9917   20.2855    4.6649 C   0  0  0  0  0  0  0  0  0  0  0  0
   37.4402   20.9369    3.7224 O   0  0  0  0  0  0  0  0  0  0  0  0
   36.3042   21.7844    6.5407 C   0  0  0  0  0  0  0  0  0  0  0  0
   34.8373   21.3850    6.4487 C   0  0  0  0  0  0  0  0  0  0  0  0
   34.2633   20.5062    7.9240 S   0  0  0  0  0  0  0  0  0  0  0  0
   34.9794   18.9686    7.2906 C   0  0  0  0  0  0  0  0  0  0  0  0
   34.4878   17.7371    8.0423 C   0  0  1  0  0  0  0  0  0  0  0  0
   34.8689   16.5632    7.3482 O   0  0  0  0  0  0  0  0  0  0  0  0
   35.0795   17.6629    9.4403 C   0  0  1  0  0  0  0  0  0  0  0  0
   34.0553   17.7572   10.4017 O   0  0  0  0  0  0  0  0  0  0  0  0
   35.7548   16.3102    9.5323 C   0  0  1  0  0  0  0  0  0  0  0  0
   35.2046   15.5659   10.5942 O   0  0  0  0  0  0  0  0  0  0  0  0
   35.4764   15.6182    8.2091 C   0  0  2  0  0  0  0  0  0  0  0  0
   36.3076   19.2937    4.4094 O   0  0  0  0  0  0  0  0  0  0  0  0
   38.8436   16.0154    4.2002 N   0  0  0  0  0  0  0  0  0  0  0  0
   37.6691   16.7133    4.3972 C   0  0  0  0  0  0  0  0  0  0  0  0
   36.9008   16.4781    5.5202 N   0  0  0  0  0  0  0  0  0  0  0  0
   37.2923   15.5595    6.4367 C   0  0  0  0  0  0  0  0  0  0  0  0
   38.4700   14.8471    6.2560 C   0  0  0  0  0  0  0  0  0  0  0  0
   39.2495   15.0786    5.1290 C   0  0  0  0  0  0  0  0  0  0  0  0
   40.3789   14.4014    4.9450 N   0  0  0  0  0  0  0  0  0  0  0  0
   38.6156   14.0110    7.3067 N   0  0  0  0  0  0  0  0  0  0  0  0
   37.5649   14.1758    8.1428 C   0  0  0  0  0  0  0  0  0  0  0  0
   36.7358   15.1328    7.6167 N   0  0  0  0  0  0  0  0  0  0  0  0
  2  1  1  6  0  0  0
  2  3  1  0  0  0  0
  2  5  1  0  0  0  0
  3  4  1  0  0  0  0
  3 16  1  0  0  0  0
  5  6  1  0  0  0  0
  6  7  1  0  0  0  0
  7  8  1  0  0  0  0
  9  8  1  6  0  0  0
  9 10  1  0  0  0  0
  9 11  1  0  0  0  0
 10 15  1  0  0  0  0
 11 12  1  1  0  0  0
 11 13  1  0  0  0  0
 13 14  1  1  0  0  0
 13 15  1  0  0  0  0
 15 26  1  6  0  0  0
 17 18  2  0  0  0  0
 17 22  1  0  0  0  0
 18 19  1  0  0  0  0
 19 20  2  0  0  0  0
 20 21  1  0  0  0  0
 20 26  1  0  0  0  0
 21 22  2  0  0  0  0
 21 24  1  0  0  0  0
 22 23  1  0  0  0  0
 24 25  2  0  0  0  0
 25 26  1  0  0  0  0
M  END
>  <CHROM.1>
-40.19748535,-178.31985080,85.24895328,-81.42386926,-166.12291540,168.67914519
2.73799141,36.51088919,17.68799032,6.88190918,-2.17529577,-0.82795836,2.67421193

>  <Name>
ligand

>  <RI>
0

>  <Rbt.Current_Directory>
/home/itssahil/PROJECTS/Mol_Feturizer/New_Systems/rnas/3NPQ

>  <Rbt.Executable>
rbdock ($Id: //depot/dev/client3/rdock/2013.1/src/exe/rbdock.cxx#4 $)

>  <Rbt.Library>
libRbt.so (2013.1, Build901 2013/11/27)

>  <Rbt.Parameter_File>
/export/apps/rDock/src/rDock_2013.1_src/data/scripts/dock_solv.prm

>  <Rbt.Receptor>
prm/pocket_docking_6.prm

>  <SCORE>
-16.895

>  <SCORE.INTER>
-14.7768

>  <SCORE.INTER.CONST>
1

>  <SCORE.INTER.POLAR>
0

>  <SCORE.INTER.ROT>
7

>  <SCORE.INTER.SOLV>
11.7324

>  <SCORE.INTER.VDW>
-22.0287

>  <SCORE.INTER.norm>
-0.568339

>  <SCORE.INTRA>
-2.11821

>  <SCORE.INTRA.DIHEDRAL>
-0.788264

>  <SCORE.INTRA.DIHEDRAL.0>
6.97628

>  <SCORE.INTRA.POLAR>
0

>  <SCORE.INTRA.POLAR.0>
0

>  <SCORE.INTRA.REPUL>
0

>  <SCORE.INTRA.REPUL.0>
0

>  <SCORE.INTRA.SOLV>
-0.472545

>  <SCORE.INTRA.SOLV.lig_0>
-49.8243

>  <SCORE.INTRA.VDW>
-1.48781

>  <SCORE.INTRA.VDW.0>
-1.35881

>  <SCORE.INTRA.norm>
-0.0814698

>  <SCORE.RESTR>
0

>  <SCORE.RESTR.CAVITY>
0

>  <SCORE.RESTR.norm>
0

>  <SCORE.SYSTEM>
0

>  <SCORE.SYSTEM.CONST>
0

>  <SCORE.SYSTEM.DIHEDRAL>
0

>  <SCORE.SYSTEM.SOLV>
0

>  <SCORE.SYSTEM.norm>
0

>  <SCORE.heavy>
26

>  <SCORE.norm>
-0.649808

>  <RMSD>
5.741

$$$$
ligand
 OpenBabel11021811483D
libRbt.so/2013.1/901 2013/11/27
 26 28  0  0  0  0  0  0  0  0999 V2000
   37.2551   22.3796    4.3476 N   0  0  0  0  0  0  0  0  0  0  0  0
   37.5156   21.5306    5.5035 C   0  0  2  0  0  0  0  0  0  0  0  0
   37.3911   20.0554    5.1398 C   0  0  0  0  0  0  0  0  0  0  0  0
   38.0508   19.2001    5.7290 O   0  0  0  0  0  0  0  0  0  0  0  0
   36.5610   21.8705    6.6412 C   0  0  0  0  0  0  0  0  0  0  0  0
   35.0949   21.6078    6.3233 C   0  0  0  0  0  0  0  0  0  0  0  0
   34.2406   20.7339    7.6593 S   0  0  0  0  0  0  0  0  0  0  0  0
   35.0793   19.1979    7.1951 C   0  0  0  0  0  0  0  0  0  0  0  0
   34.5591   17.9882    7.9628 C   0  0  1  0  0  0  0  0  0  0  0  0
   34.9602   16.7951    7.3141 O   0  0  0  0  0  0  0  0  0  0  0  0
   35.1031   17.9509    9.3816 C   0  0  1  0  0  0  0  0  0  0  0  0
   34.0472   18.0733   10.3048 O   0  0  0  0  0  0  0  0  0  0  0  0
   35.7711   16.6000    9.5331 C   0  0  1  0  0  0  0  0  0  0  0  0
   35.1832   15.8859   10.5955 O   0  0  0  0  0  0  0  0  0  0  0  0
   35.5356   15.8727    8.2204 C   0  0  2  0  0  0  0  0  0  0  0  0
   36.6270   19.6843    4.2480 O   0  0  0  0  0  0  0  0  0  0  0  0
   38.8693   15.8921    4.1641 N   0  0  0  0  0  0  0  0  0  0  0  0
   37.6662   16.5589    4.2799 C   0  0  0  0  0  0  0  0  0  0  0  0
   36.9125   16.4381    5.4306 N   0  0  0  0  0  0  0  0  0  0  0  0
   37.3465   15.6631    6.4544 C   0  0  0  0  0  0  0  0  0  0  0  0
   38.5534   14.9842    6.3566 C   0  0  0  0  0  0  0  0  0  0  0  0
   39.3184   15.1012    5.2023 C   0  0  0  0  0  0  0  0  0  0  0  0
   40.4756   14.4547    5.0971 N   0  0  0  0  0  0  0  0  0  0  0  0
   38.7386   14.2978    7.5049 N   0  0  0  0  0  0  0  0  0  0  0  0
   37.6845   14.5242    8.3221 C   0  0  0  0  0  0  0  0  0  0  0  0
   36.8130   15.3690    7.6844 N   0  0  0  0  0  0  0  0  0  0  0  0
  2  1  1  6  0  0  0
  2  3  1  0  0  0  0
  2  5  1  0  0  0  0
  3  4  1  0  0  0  0
  3 16  1  0  0  0  0
  5  6  1  0  0  0  0
  6  7  1  0  0  0  0
  7  8  1  0  0  0  0
  9  8  1  6  0  0  0
  9 10  1  0  0  0  0
  9 11  1  0  0  0  0
 10 15  1  0  0  0  0
 11 12  1  1  0  0  0
 11 13  1  0  0  0  0
 13 14  1  1  0  0  0
 13 15  1  0  0  0  0
 15 26  1  6  0  0  0
 17 18  2  0  0  0  0
 17 22  1  0  0  0  0
 18 19  1  0  0  0  0
 19 20  2  0  0  0  0
 20 21  1  0  0  0  0
 20 26  1  0  0  0  0
 21 22  2  0  0  0  0
 21 24  1  0  0  0  0
 22 23  1  0  0  0  0
 24 25  2  0  0  0  0
 25 26  1  0  0  0  0
M  END
>  <CHROM.1>
150.35123945,63.58613162,133.68978363,-74.50605528,-172.71873654,163.56823740
-4.06908106,36.57189688,17.84258061,6.86538474,-2.20349920,-0.82023837,2.65193624

>  <Name>
ligand

>  <RI>
0

>  <Rbt.Current_Directory>
/home/itssahil/PROJECTS/Mol_Feturizer/New_Systems/rnas/3NPQ

>  <Rbt.Executable>
rbdock ($Id: //depot/dev/client3/rdock/2013.1/src/exe/rbdock.cxx#4 $)

>  <Rbt.Library>
libRbt.so (2013.1, Build901 2013/11/27)

>  <Rbt.Parameter_File>
/export/apps/rDock/src/rDock_2013.1_src/data/scripts/dock_solv.prm

>  <Rbt.Receptor>
prm/pocket_docking_7.prm

>  <SCORE>
-15.8137

>  <SCORE.INTER>
-14.8583

>  <SCORE.INTER.CONST>
1

>  <SCORE.INTER.POLAR>
0

>  <SCORE.INTER.ROT>
7

>  <SCORE.INTER.SOLV>
10.7506

>  <SCORE.INTER.VDW>
-21.7557

>  <SCORE.INTER.norm>
-0.571471

>  <SCORE.INTRA>
-0.955414

>  <SCORE.INTRA.DIHEDRAL>
1.90916

>  <SCORE.INTRA.DIHEDRAL.0>
6.97628

>  <SCORE.INTRA.POLAR>
0

>  <SCORE.INTRA.POLAR.0>
0

>  <SCORE.INTRA.REPUL>
0

>  <SCORE.INTRA.REPUL.0>
0

>  <SCORE.INTRA.SOLV>
-0.136786

>  <SCORE.INTRA.SOLV.lig_0>
-49.8243

>  <SCORE.INTRA.VDW>
-1.8416

>  <SCORE.INTRA.VDW.0>
-1.35881

>  <SCORE.INTRA.norm>
-0.0367467

>  <SCORE.RESTR>
0

>  <SCORE.RESTR.CAVITY>
0

>  <SCORE.RESTR.norm>
0

>  <SCORE.SYSTEM>
0

>  <SCORE.SYSTEM.CONST>
0

>  <SCORE.SYSTEM.DIHEDRAL>
0

>  <SCORE.SYSTEM.SOLV>
0

>  <SCORE.SYSTEM.norm>
0

>  <SCORE.heavy>
26

>  <SCORE.norm>
-0.608218

>  <RMSD>
5.776

$$$$
ligand
 OpenBabel11021811483D
libRbt.so/2013.1/901 2013/11/27
 26 28  0  0  0  0  0  0  0  0999 V2000
   32.9689   17.5035    7.9637 N   0  0  0  0  0  0  0  0  0  0  0  0
   33.4678   18.6166    8.7616 C   0  0  2  0  0  0  0  0  0  0  0  0
   34.3925   19.5086    7.9411 C   0  0  0  0  0  0  0  0  0  0  0  0
   35.3301   19.0319    7.3028 O   0  0  0  0  0  0  0  0  0  0  0  0
   34.1976   18.1032    9.9965 C   0  0  0  0  0  0  0  0  0  0  0  0
   35.3967   17.2164    9.6873 C   0  0  0  0  0  0  0  0  0  0  0  0
   34.9127   15.5888    9.0589 S   0  0  0  0  0  0  0  0  0  0  0  0
   36.6562   15.1208    8.9193 C   0  0  0  0  0  0  0  0  0  0  0  0
   37.0147   14.5927    7.5351 C   0  0  1  0  0  0  0  0  0  0  0  0
   36.5122   15.4656    6.5398 O   0  0  0  0  0  0  0  0  0  0  0  0
   38.5198   14.4925    7.3481 C   0  0  1  0  0  0  0  0  0  0  0  0
   38.8919   13.1484    7.1553 O   0  0  0  0  0  0  0  0  0  0  0  0
   38.8373   15.3020    6.1080 C   0  0  1  0  0  0  0  0  0  0  0  0
   39.4705   14.4884    5.1480 O   0  0  0  0  0  0  0  0  0  0  0  0
   37.4996   15.7903    5.5792 C   0  0  2  0  0  0  0  0  0  0  0  0
   34.2230   20.7277    7.8972 O   0  0  0  0  0  0  0  0  0  0  0  0
   39.7963   20.3210    6.9080 N   0  0  0  0  0  0  0  0  0  0  0  0
   40.0769   19.0543    7.3796 C   0  0  0  0  0  0  0  0  0  0  0  0
   39.3657   17.9660    6.9143 N   0  0  0  0  0  0  0  0  0  0  0  0
   38.3859   18.1325    5.9927 C   0  0  0  0  0  0  0  0  0  0  0  0
   38.0886   19.3985    5.5067 C   0  0  0  0  0  0  0  0  0  0  0  0
   38.8004   20.4988    5.9692 C   0  0  0  0  0  0  0  0  0  0  0  0
   38.5236   21.7162    5.5115 N   0  0  0  0  0  0  0  0  0  0  0  0
   37.0849   19.2750    4.6115 N   0  0  0  0  0  0  0  0  0  0  0  0
   36.7416   17.9697    4.5197 C   0  0  0  0  0  0  0  0  0  0  0  0
   37.5397   17.2489    5.3703 N   0  0  0  0  0  0  0  0  0  0  0  0
  2  1  1  6  0  0  0
  2  3  1  0  0  0  0
  2  5  1  0  0  0  0
  3  4  1  0  0  0  0
  3 16  1  0  0  0  0
  5  6  1  0  0  0  0
  6  7  1  0  0  0  0
  7  8  1  0  0  0  0
  9  8  1  1  0  0  0
  9 10  1  0  0  0  0
  9 11  1  0  0  0  0
 10 15  1  0  0  0  0
 11 12  1  6  0  0  0
 11 13  1  0  0  0  0
 13 14  1  6  0  0  0
 13 15  1  0  0  0  0
 15 26  1  1  0  0  0
 17 18  2  0  0  0  0
 17 22  1  0  0  0  0
 18 19  1  0  0  0  0
 19 20  2  0  0  0  0
 20 21  1  0  0  0  0
 20 26  1  0  0  0  0
 21 22  2  0  0  0  0
 21 24  1  0  0  0  0
 22 23  1  0  0  0  0
 24 25  2  0  0  0  0
 25 26  1  0  0  0  0
M  END
>  <CHROM.1>
-50.91637207,59.84250942,-71.81288188,179.95591877,-127.61606308,48.14015715
95.16354603,36.89751272,17.40311070,7.10444025,2.78782062,0.55106835,-0.18741118

>  <Name>
ligand

>  <RI>
0

>  <Rbt.Current_Directory>
/home/itssahil/PROJECTS/Mol_Feturizer/New_Systems/rnas/3NPQ

>  <Rbt.Executable>
rbdock ($Id: //depot/dev/client3/rdock/2013.1/src/exe/rbdock.cxx#4 $)

>  <Rbt.Library>
libRbt.so (2013.1, Build901 2013/11/27)

>  <Rbt.Parameter_File>
/export/apps/rDock/src/rDock_2013.1_src/data/scripts/dock_solv.prm

>  <Rbt.Receptor>
prm/pocket_docking_6.prm

>  <SCORE>
-18.7156

>  <SCORE.INTER>
-17.2561

>  <SCORE.INTER.CONST>
1

>  <SCORE.INTER.POLAR>
0

>  <SCORE.INTER.ROT>
7

>  <SCORE.INTER.SOLV>
14.4158

>  <SCORE.INTER.VDW>
-24.576

>  <SCORE.INTER.norm>
-0.663695

>  <SCORE.INTRA>
-1.45954

>  <SCORE.INTRA.DIHEDRAL>
-0.997482

>  <SCORE.INTRA.DIHEDRAL.0>
6.97628

>  <SCORE.INTRA.POLAR>
0

>  <SCORE.INTRA.POLAR.0>
0

>  <SCORE.INTRA.REPUL>
0

>  <SCORE.INTRA.REPUL.0>
0

>  <SCORE.INTRA.SOLV>
1.30235

>  <SCORE.INTRA.SOLV.lig_0>
-49.8243

>  <SCORE.INTRA.VDW>
-1.61198

>  <SCORE.INTRA.VDW.0>
-1.35881

>  <SCORE.INTRA.norm>
-0.0561363

>  <SCORE.RESTR>
0

>  <SCORE.RESTR.CAVITY>
0

>  <SCORE.RESTR.norm>
0

>  <SCORE.SYSTEM>
0

>  <SCORE.SYSTEM.CONST>
0

>  <SCORE.SYSTEM.DIHEDRAL>
0

>  <SCORE.SYSTEM.SOLV>
0

>  <SCORE.SYSTEM.norm>
0

>  <SCORE.heavy>
26

>  <SCORE.norm>
-0.719831

>  <RMSD>
5.941

$$$$
ligand
 OpenBabel11021811483D
libRbt.so/2013.1/901 2013/11/27
 26 28  0  0  0  0  0  0  0  0999 V2000
   44.1518   16.8978    2.5665 N   0  0  0  0  0  0  0  0  0  0  0  0
   43.2225   15.7782    2.4794 C   0  0  2  0  0  0  0  0  0  0  0  0
   43.0369   15.3305    1.0341 C   0  0  0  0  0  0  0  0  0  0  0  0
   42.9016   14.1405    0.7520 O   0  0  0  0  0  0  0  0  0  0  0  0
   41.8767   16.1531    3.0871 C   0  0  0  0  0  0  0  0  0  0  0  0
   41.9249   16.4286    4.5843 C   0  0  0  0  0  0  0  0  0  0  0  0
   42.4037   14.9695    5.5436 S   0  0  0  0  0  0  0  0  0  0  0  0
   41.4885   15.6039    6.9712 C   0  0  0  0  0  0  0  0  0  0  0  0
   39.9792   15.5829    6.7593 C   0  0  1  0  0  0  0  0  0  0  0  0
   39.6433   14.6262    5.7709 O   0  0  0  0  0  0  0  0  0  0  0  0
   39.2411   15.2115    8.0351 C   0  0  1  0  0  0  0  0  0  0  0  0
   38.4321   16.2855    8.4526 O   0  0  0  0  0  0  0  0  0  0  0  0
   38.3779   14.0184    7.6811 C   0  0  1  0  0  0  0  0  0  0  0  0
   37.0229   14.3095    7.9336 O   0  0  0  0  0  0  0  0  0  0  0  0
   38.5933   13.7779    6.1967 C   0  0  2  0  0  0  0  0  0  0  0  0
   43.0173   16.1491    0.1141 O   0  0  0  0  0  0  0  0  0  0  0  0
   41.7072   10.4614    3.5754 N   0  0  0  0  0  0  0  0  0  0  0  0
   41.6814   11.8398    3.5051 C   0  0  0  0  0  0  0  0  0  0  0  0
   40.7873   12.5583    4.2740 N   0  0  0  0  0  0  0  0  0  0  0  0
   39.9274   11.9167    5.1021 C   0  0  0  0  0  0  0  0  0  0  0  0
   39.9377   10.5311    5.1863 C   0  0  0  0  0  0  0  0  0  0  0  0
   40.8350    9.8005    4.4166 C   0  0  0  0  0  0  0  0  0  0  0  0
   40.8531    8.4729    4.4883 N   0  0  0  0  0  0  0  0  0  0  0  0
   38.9912   10.1615    6.0760 N   0  0  0  0  0  0  0  0  0  0  0  0
   38.3855   11.2728    6.5540 C   0  0  0  0  0  0  0  0  0  0  0  0
   38.9554   12.3690    5.9594 N   0  0  0  0  0  0  0  0  0  0  0  0
  2  1  1  6  0  0  0
  2  3  1  0  0  0  0
  2  5  1  0  0  0  0
  3  4  1  0  0  0  0
  3 16  1  0  0  0  0
  5  6  1  0  0  0  0
  6  7  1  0  0  0  0
  7  8  1  0  0  0  0
  9  8  1  1  0  0  0
  9 10  1  0  0  0  0
  9 11  1  0  0  0  0
 10 15  1  0  0  0  0
 11 12  1  6  0  0  0
 11 13  1  0  0  0  0
 13 14  1  6  0  0  0
 13 15  1  0  0  0  0
 15 26  1  1  0  0  0
 17 18  2  0  0  0  0
 17 22  1  0  0  0  0
 18 19  1  0  0  0  0
 19 20  2  0  0  0  0
 20 21  1  0  0  0  0
 20 26  1  0  0  0  0
 21 22  2  0  0  0  0
 21 24  1  0  0  0  0
 22 23  1  0  0  0  0
 24 25  2  0  0  0  0
 25 26  1  0  0  0  0
M  END
>  <CHROM.1>
143.30972460,-65.02285131,-63.40980961,-152.85323391,69.36506535,22.86820340
-19.05493495,40.75099738,13.78646902,4.91352051,0.17204303,0.90796763,0.28346811

>  <Name>
ligand

>  <RI>
0

>  <Rbt.Current_Directory>
/home/itssahil/PROJECTS/Mol_Feturizer/New_Systems/rnas/3NPQ

>  <Rbt.Executable>
rbdock ($Id: //depot/dev/client3/rdock/2013.1/src/exe/rbdock.cxx#4 $)

>  <Rbt.Library>
libRbt.so (2013.1, Build901 2013/11/27)

>  <Rbt.Parameter_File>
/export/apps/rDock/src/rDock_2013.1_src/data/scripts/dock_solv.prm

>  <Rbt.Receptor>
prm/pocket_docking_6.prm

>  <SCORE>
-15.8612

>  <SCORE.INTER>
-15.3061

>  <SCORE.INTER.CONST>
1

>  <SCORE.INTER.POLAR>
0

>  <SCORE.INTER.ROT>
7

>  <SCORE.INTER.SOLV>
17.3538

>  <SCORE.INTER.VDW>
-24.2554

>  <SCORE.INTER.norm>
-0.588697

>  <SCORE.INTRA>
-0.5551

>  <SCORE.INTRA.DIHEDRAL>
0.606168

>  <SCORE.INTRA.DIHEDRAL.0>
6.97628

>  <SCORE.INTRA.POLAR>
0

>  <SCORE.INTRA.POLAR.0>
0

>  <SCORE.INTRA.REPUL>
0

>  <SCORE.INTRA.REPUL.0>
0

>  <SCORE.INTRA.SOLV>
0.643015

>  <SCORE.INTRA.SOLV.lig_0>
-49.8243

>  <SCORE.INTRA.VDW>
-1.17969

>  <SCORE.INTRA.VDW.0>
-1.35881

>  <SCORE.INTRA.norm>
-0.02135

>  <SCORE.RESTR>
0

>  <SCORE.RESTR.CAVITY>
0

>  <SCORE.RESTR.norm>
0

>  <SCORE.SYSTEM>
0

>  <SCORE.SYSTEM.CONST>
0

>  <SCORE.SYSTEM.DIHEDRAL>
0

>  <SCORE.SYSTEM.SOLV>
0

>  <SCORE.SYSTEM.norm>
0

>  <SCORE.heavy>
26

>  <SCORE.norm>
-0.610047

>  <RMSD>
6.035

$$$$
ligand
 OpenBabel11021811483D
libRbt.so/2013.1/901 2013/11/27
 26 28  0  0  0  0  0  0  0  0999 V2000
   43.5553   15.3484    2.0704 N   0  0  0  0  0  0  0  0  0  0  0  0
   44.2848   15.6638    3.2922 C   0  0  2  0  0  0  0  0  0  0  0  0
   44.6347   14.3971    4.0648 C   0  0  0  0  0  0  0  0  0  0  0  0
   45.3380   14.4442    5.0733 O   0  0  0  0  0  0  0  0  0  0  0  0
   43.4710   16.6044    4.1721 C   0  0  0  0  0  0  0  0  0  0  0  0
   42.1154   16.0493    4.5894 C   0  0  0  0  0  0  0  0  0  0  0  0
   42.2532   14.7510    5.8439 S   0  0  0  0  0  0  0  0  0  0  0  0
   41.3389   15.7834    7.0172 C   0  0  0  0  0  0  0  0  0  0  0  0
   39.8299   15.7076    6.8160 C   0  0  1  0  0  0  0  0  0  0  0  0
   39.5228   14.7508    5.8184 O   0  0  0  0  0  0  0  0  0  0  0  0
   39.1163   15.2932    8.0925 C   0  0  1  0  0  0  0  0  0  0  0  0
   38.2705   16.3306    8.5290 O   0  0  0  0  0  0  0  0  0  0  0  0
   38.2962   14.0725    7.7302 C   0  0  1  0  0  0  0  0  0  0  0  0
   36.9332   14.3088    7.9962 O   0  0  0  0  0  0  0  0  0  0  0  0
   38.5091   13.8582    6.2415 C   0  0  2  0  0  0  0  0  0  0  0  0
   44.2213   13.2963    3.6984 O   0  0  0  0  0  0  0  0  0  0  0  0
   41.6919   10.6906    3.5207 N   0  0  0  0  0  0  0  0  0  0  0  0
   41.6084   12.0672    3.4622 C   0  0  0  0  0  0  0  0  0  0  0  0
   40.7044   12.7431    4.2577 N   0  0  0  0  0  0  0  0  0  0  0  0
   39.8913   12.0609    5.1006 C   0  0  0  0  0  0  0  0  0  0  0  0
   39.9600   10.6763    5.1733 C   0  0  0  0  0  0  0  0  0  0  0  0
   40.8677    9.9886    4.3767 C   0  0  0  0  0  0  0  0  0  0  0  0
   40.9416    8.6623    4.4372 N   0  0  0  0  0  0  0  0  0  0  0  0
   39.0509   10.2620    6.0820 N   0  0  0  0  0  0  0  0  0  0  0  0
   38.4120   11.3441    6.5831 C   0  0  0  0  0  0  0  0  0  0  0  0
   38.9225   12.4669    5.9842 N   0  0  0  0  0  0  0  0  0  0  0  0
  2  1  1  6  0  0  0
  2  3  1  0  0  0  0
  2  5  1  0  0  0  0
  3  4  1  0  0  0  0
  3 16  1  0  0  0  0
  5  6  1  0  0  0  0
  6  7  1  0  0  0  0
  7  8  1  0  0  0  0
  9  8  1  1  0  0  0
  9 10  1  0  0  0  0
  9 11  1  0  0  0  0
 10 15  1  0  0  0  0
 11 12  1  6  0  0  0
 11 13  1  0  0  0  0
 13 14  1  6  0  0  0
 13 15  1  0  0  0  0
 15 26  1  1  0  0  0
 17 18  2  0  0  0  0
 17 22  1  0  0  0  0
 18 19  1  0  0  0  0
 19 20  2  0  0  0  0
 20 21  1  0  0  0  0
 20 26  1  0  0  0  0
 21 22  2  0  0  0  0
 21 24  1  0  0  0  0
 22 23  1  0  0  0  0
 24 25  2  0  0  0  0
 25 26  1  0  0  0  0
M  END
>  <CHROM.1>
174.48003467,59.19062487,73.46728686,116.94625947,81.78379160,4.79907908
-20.03186875,40.98880880,13.65065884,5.43486267,-0.00890103,0.56233655,0.34912755

>  <Name>
ligand

>  <RI>
0

>  <Rbt.Current_Directory>
/home/itssahil/PROJECTS/Mol_Feturizer/New_Systems/rnas/3NPQ

>  <Rbt.Executable>
rbdock ($Id: //depot/dev/client3/rdock/2013.1/src/exe/rbdock.cxx#4 $)

>  <Rbt.Library>
libRbt.so (2013.1, Build901 2013/11/27)

>  <Rbt.Parameter_File>
/export/apps/rDock/src/rDock_2013.1_src/data/scripts/dock_solv.prm

>  <Rbt.Receptor>
prm/pocket_docking_8.prm

>  <SCORE>
-15.1617

>  <SCORE.INTER>
-16.6952

>  <SCORE.INTER.CONST>
1

>  <SCORE.INTER.POLAR>
0

>  <SCORE.INTER.ROT>
7

>  <SCORE.INTER.SOLV>
16.8212

>  <SCORE.INTER.VDW>
-25.0039

>  <SCORE.INTER.norm>
-0.642124

>  <SCORE.INTRA>
1.53347

>  <SCORE.INTRA.DIHEDRAL>
4.63453

>  <SCORE.INTRA.DIHEDRAL.0>
6.97628

>  <SCORE.INTRA.POLAR>
0

>  <SCORE.INTRA.POLAR.0>
0

>  <SCORE.INTRA.REPUL>
0

>  <SCORE.INTRA.REPUL.0>
0

>  <SCORE.INTRA.SOLV>
0.767509

>  <SCORE.INTRA.SOLV.lig_0>
-49.8243

>  <SCORE.INTRA.VDW>
-1.16755

>  <SCORE.INTRA.VDW.0>
-1.35881

>  <SCORE.INTRA.norm>
0.0589796

>  <SCORE.RESTR>
0

>  <SCORE.RESTR.CAVITY>
0

>  <SCORE.RESTR.norm>
0

>  <SCORE.SYSTEM>
0

>  <SCORE.SYSTEM.CONST>
0

>  <SCORE.SYSTEM.DIHEDRAL>
0

>  <SCORE.SYSTEM.SOLV>
0

>  <SCORE.SYSTEM.norm>
0

>  <SCORE.heavy>
26

>  <SCORE.norm>
-0.583144

>  <RMSD>
6.060

$$$$
ligand
 OpenBabel11021811483D
libRbt.so/2013.1/901 2013/11/27
 26 28  0  0  0  0  0  0  0  0999 V2000
   39.4617   16.1318    6.5745 N   0  0  0  0  0  0  0  0  0  0  0  0
   38.1801   15.5341    6.9278 C   0  0  2  0  0  0  0  0  0  0  0  0
   37.9433   15.5934    8.4326 C   0  0  0  0  0  0  0  0  0  0  0  0
   38.6692   16.2682    9.1618 O   0  0  0  0  0  0  0  0  0  0  0  0
   38.1131   14.0906    6.4449 C   0  0  0  0  0  0  0  0  0  0  0  0
   39.2543   13.2138    6.9435 C   0  0  0  0  0  0  0  0  0  0  0  0
   39.0855   11.4894    6.4179 S   0  0  0  0  0  0  0  0  0  0  0  0
   40.4747   11.6984    5.2756 C   0  0  0  0  0  0  0  0  0  0  0  0
   40.4065   10.7476    4.0862 C   0  0  1  0  0  0  0  0  0  0  0  0
   41.2960   11.1779    3.0720 O   0  0  0  0  0  0  0  0  0  0  0  0
   40.7992    9.3327    4.4789 C   0  0  1  0  0  0  0  0  0  0  0  0
   39.7055    8.4637    4.3030 O   0  0  0  0  0  0  0  0  0  0  0  0
   41.9273    8.9427    3.5465 C   0  0  1  0  0  0  0  0  0  0  0  0
   41.5781    7.7865    2.8216 O   0  0  0  0  0  0  0  0  0  0  0  0
   42.1076   10.1181    2.6012 C   0  0  2  0  0  0  0  0  0  0  0  0
   37.0197   14.9678    8.9544 O   0  0  0  0  0  0  0  0  0  0  0  0
   47.0776    8.6388    1.7782 N   0  0  0  0  0  0  0  0  0  0  0  0
   45.9352    7.8689    1.6912 C   0  0  0  0  0  0  0  0  0  0  0  0
   44.6986    8.4292    1.9435 N   0  0  0  0  0  0  0  0  0  0  0  0
   44.5965    9.7381    2.2800 C   0  0  0  0  0  0  0  0  0  0  0  0
   45.7339   10.5286    2.3732 C   0  0  0  0  0  0  0  0  0  0  0  0
   46.9821    9.9727    2.1199 C   0  0  0  0  0  0  0  0  0  0  0  0
   48.0785   10.7200    2.2070 N   0  0  0  0  0  0  0  0  0  0  0  0
   45.3466   11.7752    2.7195 N   0  0  0  0  0  0  0  0  0  0  0  0
   43.9999   11.7929    2.8473 C   0  0  0  0  0  0  0  0  0  0  0  0
   43.5206   10.5369    2.5778 N   0  0  0  0  0  0  0  0  0  0  0  0
  2  1  1  1  0  0  0
  2  3  1  0  0  0  0
  2  5  1  0  0  0  0
  3  4  1  0  0  0  0
  3 16  1  0  0  0  0
  5  6  1  0  0  0  0
  6  7  1  0  0  0  0
  7  8  1  0  0  0  0
  9  8  1  1  0  0  0
  9 10  1  0  0  0  0
  9 11  1  0  0  0  0
 10 15  1  0  0  0  0
 11 12  1  6  0  0  0
 11 13  1  0  0  0  0
 13 14  1  6  0  0  0
 13 15  1  0  0  0  0
 15 26  1  1  0  0  0
 17 18  2  0  0  0  0
 17 22  1  0  0  0  0
 18 19  1  0  0  0  0
 19 20  2  0  0  0  0
 20 21  1  0  0  0  0
 20 26  1  0  0  0  0
 21 22  2  0  0  0  0
 21 24  1  0  0  0  0
 22 23  1  0  0  0  0
 24 25  2  0  0  0  0
 25 26  1  0  0  0  0
M  END
>  <CHROM.1>
11.02575570,55.30405095,176.94184594,109.03568699,-153.29640692,164.90766612
174.51171869,41.74394843,11.40353301,4.49928538,-2.40115377,-0.38062921,-2.71545783

>  <Name>
ligand

>  <RI>
0

>  <Rbt.Current_Directory>
/home/itssahil/PROJECTS/Mol_Feturizer/New_Systems/rnas/3NPQ

>  <Rbt.Executable>
rbdock ($Id: //depot/dev/client3/rdock/2013.1/src/exe/rbdock.cxx#4 $)

>  <Rbt.Library>
libRbt.so (2013.1, Build901 2013/11/27)

>  <Rbt.Parameter_File>
/export/apps/rDock/src/rDock_2013.1_src/data/scripts/dock_solv.prm

>  <Rbt.Receptor>
prm/pocket_docking_7.prm

>  <SCORE>
-23.2952

>  <SCORE.INTER>
-22.7618

>  <SCORE.INTER.CONST>
1

>  <SCORE.INTER.POLAR>
0

>  <SCORE.INTER.ROT>
7

>  <SCORE.INTER.SOLV>
12.2765

>  <SCORE.INTER.VDW>
-27.5334

>  <SCORE.INTER.norm>
-0.875454

>  <SCORE.INTRA>
-0.533396

>  <SCORE.INTRA.DIHEDRAL>
-0.198562

>  <SCORE.INTRA.DIHEDRAL.0>
6.97628

>  <SCORE.INTRA.POLAR>
0

>  <SCORE.INTRA.POLAR.0>
0

>  <SCORE.INTRA.REPUL>
0

>  <SCORE.INTRA.REPUL.0>
0

>  <SCORE.INTRA.SOLV>
-0.0814826

>  <SCORE.INTRA.SOLV.lig_0>
-49.8243

>  <SCORE.INTRA.VDW>
-0.393374

>  <SCORE.INTRA.VDW.0>
-1.35881

>  <SCORE.INTRA.norm>
-0.0205152

>  <SCORE.RESTR>
0

>  <SCORE.RESTR.CAVITY>
0

>  <SCORE.RESTR.norm>
0

>  <SCORE.SYSTEM>
0

>  <SCORE.SYSTEM.CONST>
0

>  <SCORE.SYSTEM.DIHEDRAL>
0

>  <SCORE.SYSTEM.SOLV>
0

>  <SCORE.SYSTEM.norm>
0

>  <SCORE.heavy>
26

>  <SCORE.norm>
-0.89597

>  <RMSD>
6.061

$$$$
ligand
 OpenBabel11021811483D
libRbt.so/2013.1/901 2013/11/27
 26 28  0  0  0  0  0  0  0  0999 V2000
   37.7390   22.8044    5.3597 N   0  0  0  0  0  0  0  0  0  0  0  0
   36.4930   22.5630    4.6429 C   0  0  2  0  0  0  0  0  0  0  0  0
   36.3916   23.4480    3.4058 C   0  0  0  0  0  0  0  0  0  0  0  0
   35.9722   23.0001    2.3393 O   0  0  0  0  0  0  0  0  0  0  0  0
   35.2970   22.8022    5.5558 C   0  0  0  0  0  0  0  0  0  0  0  0
   35.2525   21.8906    6.7751 C   0  0  0  0  0  0  0  0  0  0  0  0
   35.2329   20.1357    6.3296 S   0  0  0  0  0  0  0  0  0  0  0  0
   35.2542   19.6870    8.0835 C   0  0  0  0  0  0  0  0  0  0  0  0
   34.8454   18.2386    8.3253 C   0  0  1  0  0  0  0  0  0  0  0  0
   35.5367   17.3856    7.4313 O   0  0  0  0  0  0  0  0  0  0  0  0
   35.1757   17.7939    9.7408 C   0  0  1  0  0  0  0  0  0  0  0  0
   33.9918   17.4775   10.4340 O   0  0  0  0  0  0  0  0  0  0  0  0
   36.0382   16.5574    9.5951 C   0  0  1  0  0  0  0  0  0  0  0  0
   35.4347   15.4664   10.2509 O   0  0  0  0  0  0  0  0  0  0  0  0
   36.1253   16.2874    8.1028 C   0  0  2  0  0  0  0  0  0  0  0  0
   36.7265   24.6326    3.4442 O   0  0  0  0  0  0  0  0  0  0  0  0
   39.9136   12.9722    6.6112 N   0  0  0  0  0  0  0  0  0  0  0  0
   38.6041   12.6781    6.9338 C   0  0  0  0  0  0  0  0  0  0  0  0
   37.7374   13.6859    7.3082 N   0  0  0  0  0  0  0  0  0  0  0  0
   38.1654   14.9707    7.3635 C   0  0  0  0  0  0  0  0  0  0  0  0
   39.4788   15.2863    7.0434 C   0  0  0  0  0  0  0  0  0  0  0  0
   40.3571   14.2781    6.6647 C   0  0  0  0  0  0  0  0  0  0  0  0
   41.6177   14.5685    6.3568 N   0  0  0  0  0  0  0  0  0  0  0  0
   39.6310   16.6211    7.1809 N   0  0  0  0  0  0  0  0  0  0  0  0
   38.4531   17.1549    7.5782 C   0  0  0  0  0  0  0  0  0  0  0  0
   37.5346   16.1437    7.6956 N   0  0  0  0  0  0  0  0  0  0  0  0
  2  1  1  1  0  0  0
  2  3  1  0  0  0  0
  2  5  1  0  0  0  0
  3  4  1  0  0  0  0
  3 16  1  0  0  0  0
  5  6  1  0  0  0  0
  6  7  1  0  0  0  0
  7  8  1  0  0  0  0
  9  8  1  1  0  0  0
  9 10  1  0  0  0  0
  9 11  1  0  0  0  0
 10 15  1  0  0  0  0
 11 12  1  1  0  0  0
 11 13  1  0  0  0  0
 13 14  1  1  0  0  0
 13 15  1  0  0  0  0
 15 26  1  6  0  0  0
 17 18  2  0  0  0  0
 17 22  1  0  0  0  0
 18 19  1  0  0  0  0
 19 20  2  0  0  0  0
 20 21  1  0  0  0  0
 20 26  1  0  0  0  0
 21 22  2  0  0  0  0
 21 24  1  0  0  0  0
 22 23  1  0  0  0  0
 24 25  2  0  0  0  0
 25 26  1  0  0  0  0
M  END
>  <CHROM.1>
137.81532883,-61.12405483,-57.90916121,177.76508106,163.41907449,47.27432122
-135.09924966,36.87944892,18.21568868,6.90963572,-1.90771357,-0.65880643
2.57060812

>  <Name>
ligand

>  <RI>
0

>  <Rbt.Current_Directory>
/home/itssahil/PROJECTS/Mol_Feturizer/New_Systems/rnas/3NPQ

>  <Rbt.Executable>
rbdock ($Id: //depot/dev/client3/rdock/2013.1/src/exe/rbdock.cxx#4 $)

>  <Rbt.Library>
libRbt.so (2013.1, Build901 2013/11/27)

>  <Rbt.Parameter_File>
/export/apps/rDock/src/rDock_2013.1_src/data/scripts/dock_solv.prm

>  <Rbt.Receptor>
prm/pocket_docking_8.prm

>  <SCORE>
-17.5339

>  <SCORE.INTER>
-15.1307

>  <SCORE.INTER.CONST>
1

>  <SCORE.INTER.POLAR>
0

>  <SCORE.INTER.ROT>
7

>  <SCORE.INTER.SOLV>
12.6146

>  <SCORE.INTER.VDW>
-22.5587

>  <SCORE.INTER.norm>
-0.581951

>  <SCORE.INTRA>
-2.4032

>  <SCORE.INTRA.DIHEDRAL>
-3.28918

>  <SCORE.INTRA.DIHEDRAL.0>
6.97628

>  <SCORE.INTRA.POLAR>
0

>  <SCORE.INTRA.POLAR.0>
0

>  <SCORE.INTRA.REPUL>
0

>  <SCORE.INTRA.REPUL.0>
0

>  <SCORE.INTRA.SOLV>
0.424185

>  <SCORE.INTRA.SOLV.lig_0>
-49.8243

>  <SCORE.INTRA.VDW>
-0.970707

>  <SCORE.INTRA.VDW.0>
-1.35881

>  <SCORE.INTRA.norm>
-0.0924309

>  <SCORE.RESTR>
0

>  <SCORE.RESTR.CAVITY>
0

>  <SCORE.RESTR.norm>
0

>  <SCORE.SYSTEM>
0

>  <SCORE.SYSTEM.CONST>
0

>  <SCORE.SYSTEM.DIHEDRAL>
0

>  <SCORE.SYSTEM.SOLV>
0

>  <SCORE.SYSTEM.norm>
0

>  <SCORE.heavy>
26

>  <SCORE.norm>
-0.674382

>  <RMSD>
6.062

$$$$
ligand
 OpenBabel11021811483D
libRbt.so/2013.1/901 2013/11/27
 26 28  0  0  0  0  0  0  0  0999 V2000
   36.1331   23.6272    3.8178 N   0  0  0  0  0  0  0  0  0  0  0  0
   35.7806   22.8759    5.0160 C   0  0  2  0  0  0  0  0  0  0  0  0
   35.2052   23.7930    6.0892 C   0  0  0  0  0  0  0  0  0  0  0  0
   35.6192   24.9434    6.2277 O   0  0  0  0  0  0  0  0  0  0  0  0
   36.9965   22.1354    5.5587 C   0  0  0  0  0  0  0  0  0  0  0  0
   36.7199   21.3218    6.8161 C   0  0  0  0  0  0  0  0  0  0  0  0
   35.4032   20.1019    6.5779 S   0  0  0  0  0  0  0  0  0  0  0  0
   35.7968   19.3592    8.1815 C   0  0  0  0  0  0  0  0  0  0  0  0
   35.0638   18.0437    8.4166 C   0  0  1  0  0  0  0  0  0  0  0  0
   35.4450   17.0961    7.4359 O   0  0  0  0  0  0  0  0  0  0  0  0
   35.3910   17.4578    9.7804 C   0  0  1  0  0  0  0  0  0  0  0  0
   34.2279   17.4036   10.5721 O   0  0  0  0  0  0  0  0  0  0  0  0
   35.9051   16.0578    9.5166 C   0  0  1  0  0  0  0  0  0  0  0  0
   35.1074   15.1140   10.1928 O   0  0  0  0  0  0  0  0  0  0  0  0
   35.7974   15.8538    8.0152 C   0  0  2  0  0  0  0  0  0  0  0  0
   34.3119   23.4048    6.8429 O   0  0  0  0  0  0  0  0  0  0  0  0
   41.0234   16.3184    8.2147 N   0  0  0  0  0  0  0  0  0  0  0  0
   40.0798   16.9976    8.9589 C   0  0  0  0  0  0  0  0  0  0  0  0
   38.7349   16.7457    8.7727 N   0  0  0  0  0  0  0  0  0  0  0  0
   38.3306   15.8316    7.8573 C   0  0  0  0  0  0  0  0  0  0  0  0
   39.2644   15.1388    7.0989 C   0  0  0  0  0  0  0  0  0  0  0  0
   40.6198   15.3857    7.2808 C   0  0  0  0  0  0  0  0  0  0  0  0
   41.5232   14.7288    6.5594 N   0  0  0  0  0  0  0  0  0  0  0  0
   38.5944   14.3018    6.2775 N   0  0  0  0  0  0  0  0  0  0  0  0
   37.2673   14.4473    6.4960 C   0  0  0  0  0  0  0  0  0  0  0  0
   37.0881   15.3924    7.4731 N   0  0  0  0  0  0  0  0  0  0  0  0
  2  1  1  6  0  0  0
  2  3  1  0  0  0  0
  2  5  1  0  0  0  0
  3  4  1  0  0  0  0
  3 16  1  0  0  0  0
  5  6  1  0  0  0  0
  6  7  1  0  0  0  0
  7  8  1  0  0  0  0
  9  8  1  6  0  0  0
  9 10  1  0  0  0  0
  9 11  1  0  0  0  0
 10 15  1  0  0  0  0
 11 12  1  1  0  0  0
 11 13  1  0  0  0  0
 13 14  1  1  0  0  0
 13 15  1  0  0  0  0
 15 26  1  6  0  0  0
 17 18  2  0  0  0  0
 17 22  1  0  0  0  0
 18 19  1  0  0  0  0
 19 20  2  0  0  0  0
 20 21  1  0  0  0  0
 20 26  1  0  0  0  0
 21 22  2  0  0  0  0
 21 24  1  0  0  0  0
 22 23  1  0  0  0  0
 24 25  2  0  0  0  0
 25 26  1  0  0  0  0
M  END
>  <CHROM.1>
-34.90539487,179.93822457,57.20983459,170.23925204,-170.66156457,61.61733257
79.17125949,36.81918499,18.39648316,7.43793810,-1.97107866,-0.47695067,2.69351901

>  <Name>
ligand

>  <RI>
0

>  <Rbt.Current_Directory>
/home/itssahil/PROJECTS/Mol_Feturizer/New_Systems/rnas/3NPQ

>  <Rbt.Executable>
rbdock ($Id: //depot/dev/client3/rdock/2013.1/src/exe/rbdock.cxx#4 $)

>  <Rbt.Library>
libRbt.so (2013.1, Build901 2013/11/27)

>  <Rbt.Parameter_File>
/export/apps/rDock/src/rDock_2013.1_src/data/scripts/dock_solv.prm

>  <Rbt.Receptor>
prm/pocket_docking_8.prm

>  <SCORE>
-18.0281

>  <SCORE.INTER>
-14.5099

>  <SCORE.INTER.CONST>
1

>  <SCORE.INTER.POLAR>
0

>  <SCORE.INTER.ROT>
7

>  <SCORE.INTER.SOLV>
15.1033

>  <SCORE.INTER.VDW>
-22.9743

>  <SCORE.INTER.norm>
-0.558072

>  <SCORE.INTRA>
-3.51818

>  <SCORE.INTRA.DIHEDRAL>
-3.97266

>  <SCORE.INTRA.DIHEDRAL.0>
6.97628

>  <SCORE.INTRA.POLAR>
0

>  <SCORE.INTRA.POLAR.0>
0

>  <SCORE.INTRA.REPUL>
0

>  <SCORE.INTRA.REPUL.0>
0

>  <SCORE.INTRA.SOLV>
-0.726236

>  <SCORE.INTRA.SOLV.lig_0>
-49.8243

>  <SCORE.INTRA.VDW>
-1.16873

>  <SCORE.INTRA.VDW.0>
-1.35881

>  <SCORE.INTRA.norm>
-0.135314

>  <SCORE.RESTR>
0

>  <SCORE.RESTR.CAVITY>
0

>  <SCORE.RESTR.norm>
0

>  <SCORE.SYSTEM>
0

>  <SCORE.SYSTEM.CONST>
0

>  <SCORE.SYSTEM.DIHEDRAL>
0

>  <SCORE.SYSTEM.SOLV>
0

>  <SCORE.SYSTEM.norm>
0

>  <SCORE.heavy>
26

>  <SCORE.norm>
-0.693387

>  <RMSD>
6.069

$$$$
ligand
 OpenBabel11021811483D
libRbt.so/2013.1/901 2013/11/27
 26 28  0  0  0  0  0  0  0  0999 V2000
   34.5666   22.1788    6.4678 N   0  0  0  0  0  0  0  0  0  0  0  0
   35.5785   21.1656    6.7401 C   0  0  2  0  0  0  0  0  0  0  0  0
   36.5894   21.0802    5.6022 C   0  0  0  0  0  0  0  0  0  0  0  0
   37.7916   20.9526    5.8313 O   0  0  0  0  0  0  0  0  0  0  0  0
   34.9266   19.8067    6.9629 C   0  0  0  0  0  0  0  0  0  0  0  0
   34.0025   19.7504    8.1722 C   0  0  0  0  0  0  0  0  0  0  0  0
   33.0413   18.2175    8.2405 S   0  0  0  0  0  0  0  0  0  0  0  0
   34.3974   17.4026    9.1209 C   0  0  0  0  0  0  0  0  0  0  0  0
   34.7947   16.0736    8.4890 C   0  0  1  0  0  0  0  0  0  0  0  0
   35.2580   16.2860    7.1679 O   0  0  0  0  0  0  0  0  0  0  0  0
   35.9093   15.3955    9.2688 C   0  0  1  0  0  0  0  0  0  0  0  0
   35.4521   14.1728    9.7963 O   0  0  0  0  0  0  0  0  0  0  0  0
   37.0206   15.1468    8.2701 C   0  0  1  0  0  0  0  0  0  0  0  0
   37.3163   13.7709    8.2079 O   0  0  0  0  0  0  0  0  0  0  0  0
   36.4889   15.6286    6.9312 C   0  0  2  0  0  0  0  0  0  0  0  0
   36.2271   21.1363    4.4265 O   0  0  0  0  0  0  0  0  0  0  0  0
   37.5818   18.6173    2.7551 N   0  0  0  0  0  0  0  0  0  0  0  0
   36.4750   17.8193    2.9641 C   0  0  0  0  0  0  0  0  0  0  0  0
   36.3511   17.0951    4.1333 N   0  0  0  0  0  0  0  0  0  0  0  0
   37.3150   17.1604    5.0838 C   0  0  0  0  0  0  0  0  0  0  0  0
   38.4357   17.9569    4.8918 C   0  0  0  0  0  0  0  0  0  0  0  0
   38.5677   18.6896    3.7183 C   0  0  0  0  0  0  0  0  0  0  0  0
   39.6373   19.4551    3.5232 N   0  0  0  0  0  0  0  0  0  0  0  0
   39.2231   17.8366    5.9825 N   0  0  0  0  0  0  0  0  0  0  0  0
   38.6317   16.9883    6.8549 C   0  0  0  0  0  0  0  0  0  0  0  0
   37.4476   16.5609    6.3115 N   0  0  0  0  0  0  0  0  0  0  0  0
  2  1  1  6  0  0  0
  2  3  1  0  0  0  0
  2  5  1  0  0  0  0
  3  4  1  0  0  0  0
  3 16  1  0  0  0  0
  5  6  1  0  0  0  0
  6  7  1  0  0  0  0
  7  8  1  0  0  0  0
  9  8  1  1  0  0  0
  9 10  1  0  0  0  0
  9 11  1  0  0  0  0
 10 15  1  0  0  0  0
 11 12  1  6  0  0  0
 11 13  1  0  0  0  0
 13 14  1  6  0  0  0
 13 15  1  0  0  0  0
 15 26  1  1  0  0  0
 17 18  2  0  0  0  0
 17 22  1  0  0  0  0
 18 19  1  0  0  0  0
 19 20  2  0  0  0  0
 20 21  1  0  0  0  0
 20 26  1  0  0  0  0
 21 22  2  0  0  0  0
 21 24  1  0  0  0  0
 22 23  1  0  0  0  0
 24 25  2  0  0  0  0
 25 26  1  0  0  0  0
M  END
>  <CHROM.1>
138.58404336,-62.82821667,170.38509926,86.74599855,-129.23847382,61.94261060
-63.47024850,36.30172894,17.93761792,6.51797198,1.13709656,0.69938135,-0.49315082

>  <Name>
ligand

>  <RI>
0

>  <Rbt.Current_Directory>
/home/itssahil/PROJECTS/Mol_Feturizer/New_Systems/rnas/3NPQ

>  <Rbt.Executable>
rbdock ($Id: //depot/dev/client3/rdock/2013.1/src/exe/rbdock.cxx#4 $)

>  <Rbt.Library>
libRbt.so (2013.1, Build901 2013/11/27)

>  <Rbt.Parameter_File>
/export/apps/rDock/src/rDock_2013.1_src/data/scripts/dock_solv.prm

>  <Rbt.Receptor>
prm/pocket_docking_6.prm

>  <SCORE>
-19.2039

>  <SCORE.INTER>
-16.3813

>  <SCORE.INTER.CONST>
1

>  <SCORE.INTER.POLAR>
0

>  <SCORE.INTER.ROT>
7

>  <SCORE.INTER.SOLV>
14.7124

>  <SCORE.INTER.VDW>
-24.0917

>  <SCORE.INTER.norm>
-0.630051

>  <SCORE.INTRA>
-2.82261

>  <SCORE.INTRA.DIHEDRAL>
-0.658797

>  <SCORE.INTRA.DIHEDRAL.0>
6.97628

>  <SCORE.INTRA.POLAR>
0

>  <SCORE.INTRA.POLAR.0>
0

>  <SCORE.INTRA.REPUL>
0

>  <SCORE.INTRA.REPUL.0>
0

>  <SCORE.INTRA.SOLV>
0.559555

>  <SCORE.INTRA.SOLV.lig_0>
-49.8243

>  <SCORE.INTRA.VDW>
-2.77299

>  <SCORE.INTRA.VDW.0>
-1.35881

>  <SCORE.INTRA.norm>
-0.108562

>  <SCORE.RESTR>
0

>  <SCORE.RESTR.CAVITY>
0

>  <SCORE.RESTR.norm>
0

>  <SCORE.SYSTEM>
0

>  <SCORE.SYSTEM.CONST>
0

>  <SCORE.SYSTEM.DIHEDRAL>
0

>  <SCORE.SYSTEM.SOLV>
0

>  <SCORE.SYSTEM.norm>
0

>  <SCORE.heavy>
26

>  <SCORE.norm>
-0.738613

>  <RMSD>
6.116

$$$$
ligand
 OpenBabel11021811483D
libRbt.so/2013.1/901 2013/11/27
 26 28  0  0  0  0  0  0  0  0999 V2000
   36.5537   21.6206    2.6664 N   0  0  0  0  0  0  0  0  0  0  0  0
   36.2910   21.9954    4.0503 C   0  0  2  0  0  0  0  0  0  0  0  0
   37.1373   23.1939    4.4641 C   0  0  0  0  0  0  0  0  0  0  0  0
   38.2946   23.3199    4.0657 O   0  0  0  0  0  0  0  0  0  0  0  0
   36.5593   20.8199    4.9817 C   0  0  0  0  0  0  0  0  0  0  0  0
   36.2839   21.1141    6.4505 C   0  0  0  0  0  0  0  0  0  0  0  0
   36.5015   19.6569    7.5030 S   0  0  0  0  0  0  0  0  0  0  0  0
   34.7071   19.4206    7.5523 C   0  0  0  0  0  0  0  0  0  0  0  0
   34.3030   18.1253    8.2466 C   0  0  1  0  0  0  0  0  0  0  0  0
   34.7611   17.0132    7.4993 O   0  0  0  0  0  0  0  0  0  0  0  0
   34.9028   18.0277    9.6398 C   0  0  1  0  0  0  0  0  0  0  0  0
   33.8775   18.0077   10.6045 O   0  0  0  0  0  0  0  0  0  0  0  0
   35.6691   16.7215    9.6696 C   0  0  1  0  0  0  0  0  0  0  0  0
   35.1742   15.8935   10.6961 O   0  0  0  0  0  0  0  0  0  0  0  0
   35.4344   16.0734    8.3159 C   0  0  2  0  0  0  0  0  0  0  0  0
   36.6829   24.0650    5.2067 O   0  0  0  0  0  0  0  0  0  0  0  0
   38.3353   16.0735    3.9396 N   0  0  0  0  0  0  0  0  0  0  0  0
   37.0556   16.5614    4.1122 C   0  0  0  0  0  0  0  0  0  0  0  0
   36.4400   16.4771    5.3454 N   0  0  0  0  0  0  0  0  0  0  0  0
   37.0860   15.9137    6.3953 C   0  0  0  0  0  0  0  0  0  0  0  0
   38.3732   15.4169    6.2415 C   0  0  0  0  0  0  0  0  0  0  0  0
   39.0001   15.4987    5.0039 C   0  0  0  0  0  0  0  0  0  0  0  0
   40.2324   15.0252    4.8447 N   0  0  0  0  0  0  0  0  0  0  0  0
   38.7717   14.9189    7.4319 N   0  0  0  0  0  0  0  0  0  0  0  0
   37.7740   15.0872    8.3301 C   0  0  0  0  0  0  0  0  0  0  0  0
   36.7222   15.7029    7.7020 N   0  0  0  0  0  0  0  0  0  0  0  0
  2  1  1  6  0  0  0
  2  3  1  0  0  0  0
  2  5  1  0  0  0  0
  3  4  1  0  0  0  0
  3 16  1  0  0  0  0
  5  6  1  0  0  0  0
  6  7  1  0  0  0  0
  7  8  1  0  0  0  0
  9  8  1  6  0  0  0
  9 10  1  0  0  0  0
  9 11  1  0  0  0  0
 10 15  1  0  0  0  0
 11 12  1  1  0  0  0
 11 13  1  0  0  0  0
 13 14  1  1  0  0  0
 13 15  1  0  0  0  0
 15 26  1  6  0  0  0
 17 18  2  0  0  0  0
 17 22  1  0  0  0  0
 18 19  1  0  0  0  0
 19 20  2  0  0  0  0
 20 21  1  0  0  0  0
 20 26  1  0  0  0  0
 21 22  2  0  0  0  0
 21 24  1  0  0  0  0
 22 23  1  0  0  0  0
 24 25  2  0  0  0  0
 25 26  1  0  0  0  0
M  END
>  <CHROM.1>
-37.35639573,-178.86617429,175.87345221,-101.21436928,173.30107700,-65.15541428
-16.74662658,36.60273739,18.29503602,6.65505763,-1.48573333,-0.91204564,2.70181324

>  <Name>
ligand

>  <RI>
0

>  <Rbt.Current_Directory>
/home/itssahil/PROJECTS/Mol_Feturizer/New_Systems/rnas/3NPQ

>  <Rbt.Executable>
rbdock ($Id: //depot/dev/client3/rdock/2013.1/src/exe/rbdock.cxx#4 $)

>  <Rbt.Library>
libRbt.so (2013.1, Build901 2013/11/27)

>  <Rbt.Parameter_File>
/export/apps/rDock/src/rDock_2013.1_src/data/scripts/dock_solv.prm

>  <Rbt.Receptor>
prm/pocket_docking_7.prm

>  <SCORE>
-15.3781

>  <SCORE.INTER>
-12.6744

>  <SCORE.INTER.CONST>
1

>  <SCORE.INTER.POLAR>
0

>  <SCORE.INTER.ROT>
7

>  <SCORE.INTER.SOLV>
11.9305

>  <SCORE.INTER.VDW>
-20.6931

>  <SCORE.INTER.norm>
-0.487476

>  <SCORE.INTRA>
-2.80389

>  <SCORE.INTRA.DIHEDRAL>
-2.20574

>  <SCORE.INTRA.DIHEDRAL.0>
6.97628

>  <SCORE.INTRA.POLAR>
0

>  <SCORE.INTRA.POLAR.0>
0

>  <SCORE.INTRA.REPUL>
0

>  <SCORE.INTRA.REPUL.0>
0

>  <SCORE.INTRA.SOLV>
-0.602408

>  <SCORE.INTRA.SOLV.lig_0>
-49.8243

>  <SCORE.INTRA.VDW>
-1.39981

>  <SCORE.INTRA.VDW.0>
-1.35881

>  <SCORE.INTRA.norm>
-0.107842

>  <SCORE.RESTR>
0.100208

>  <SCORE.RESTR.CAVITY>
0.100208

>  <SCORE.RESTR.norm>
0.00385415

>  <SCORE.SYSTEM>
0

>  <SCORE.SYSTEM.CONST>
0

>  <SCORE.SYSTEM.DIHEDRAL>
0

>  <SCORE.SYSTEM.SOLV>
0

>  <SCORE.SYSTEM.norm>
0

>  <SCORE.heavy>
26

>  <SCORE.norm>
-0.591464

>  <RMSD>
6.174

$$$$
ligand
 OpenBabel11021811483D
libRbt.so/2013.1/901 2013/11/27
 26 28  0  0  0  0  0  0  0  0999 V2000
   39.0298   15.4266    8.1537 N   0  0  0  0  0  0  0  0  0  0  0  0
   37.9630   14.7856    7.3950 C   0  0  2  0  0  0  0  0  0  0  0  0
   36.6143   14.9707    8.0812 C   0  0  0  0  0  0  0  0  0  0  0  0
   36.5383   15.1106    9.3013 O   0  0  0  0  0  0  0  0  0  0  0  0
   38.2561   13.3020    7.2108 C   0  0  0  0  0  0  0  0  0  0  0  0
   39.4710   13.0110    6.3395 C   0  0  0  0  0  0  0  0  0  0  0  0
   39.5317   11.2881    5.7861 S   0  0  0  0  0  0  0  0  0  0  0  0
   40.9084   11.6885    4.6804 C   0  0  0  0  0  0  0  0  0  0  0  0
   41.0458   10.6987    3.5294 C   0  0  1  0  0  0  0  0  0  0  0  0
   42.0106   11.1648    2.6038 O   0  0  0  0  0  0  0  0  0  0  0  0
   41.4944    9.3314    4.0191 C   0  0  1  0  0  0  0  0  0  0  0  0
   40.4945    8.3752    3.7577 O   0  0  0  0  0  0  0  0  0  0  0  0
   42.7465    9.0012    3.2336 C   0  0  1  0  0  0  0  0  0  0  0  0
   42.5678    7.7993    2.5209 O   0  0  0  0  0  0  0  0  0  0  0  0
   42.9460   10.1570    2.2682 C   0  0  2  0  0  0  0  0  0  0  0  0
   35.5685   14.9852    7.4309 O   0  0  0  0  0  0  0  0  0  0  0  0
   45.9812   14.0559    4.0439 N   0  0  0  0  0  0  0  0  0  0  0  0
   44.6104   13.9303    4.1468 C   0  0  0  0  0  0  0  0  0  0  0  0
   43.9718   12.8267    3.6167 N   0  0  0  0  0  0  0  0  0  0  0  0
   44.6848   11.8592    2.9902 C   0  0  0  0  0  0  0  0  0  0  0  0
   46.0640   11.9678    2.8761 C   0  0  0  0  0  0  0  0  0  0  0  0
   46.7145   13.0748    3.4076 C   0  0  0  0  0  0  0  0  0  0  0  0
   48.0351   13.1898    3.3035 N   0  0  0  0  0  0  0  0  0  0  0  0
   46.5137   10.8786    2.2161 N   0  0  0  0  0  0  0  0  0  0  0  0
   45.4589   10.0882    1.9113 C   0  0  0  0  0  0  0  0  0  0  0  0
   44.3180   10.6831    2.3849 N   0  0  0  0  0  0  0  0  0  0  0  0
  2  1  1  1  0  0  0
  2  3  1  0  0  0  0
  2  5  1  0  0  0  0
  3  4  1  0  0  0  0
  3 16  1  0  0  0  0
  5  6  1  0  0  0  0
  6  7  1  0  0  0  0
  7  8  1  0  0  0  0
  9  8  1  1  0  0  0
  9 10  1  0  0  0  0
  9 11  1  0  0  0  0
 10 15  1  0  0  0  0
 11 12  1  6  0  0  0
 11 13  1  0  0  0  0
 13 14  1  6  0  0  0
 13 15  1  0  0  0  0
 15 26  1  1  0  0  0
 17 18  2  0  0  0  0
 17 22  1  0  0  0  0
 18 19  1  0  0  0  0
 19 20  2  0  0  0  0
 20 21  1  0  0  0  0
 20 26  1  0  0  0  0
 21 22  2  0  0  0  0
 21 24  1  0  0  0  0
 22 23  1  0  0  0  0
 24 25  2  0  0  0  0
 25 26  1  0  0  0  0
M  END
>  <CHROM.1>
-28.01458519,-66.17879450,-164.78526735,171.29637216,-157.30635793,171.86357748
12.93450721,41.81567790,12.00899738,4.61091270,-2.60464091,-0.35907171,-2.65927601

>  <Name>
ligand

>  <RI>
0

>  <Rbt.Current_Directory>
/home/itssahil/PROJECTS/Mol_Feturizer/New_Systems/rnas/3NPQ

>  <Rbt.Executable>
rbdock ($Id: //depot/dev/client3/rdock/2013.1/src/exe/rbdock.cxx#4 $)

>  <Rbt.Library>
libRbt.so (2013.1, Build901 2013/11/27)

>  <Rbt.Parameter_File>
/export/apps/rDock/src/rDock_2013.1_src/data/scripts/dock_solv.prm

>  <Rbt.Receptor>
prm/pocket_docking_7.prm

>  <SCORE>
-25.4882

>  <SCORE.INTER>
-23.1612

>  <SCORE.INTER.CONST>
1

>  <SCORE.INTER.POLAR>
0

>  <SCORE.INTER.ROT>
7

>  <SCORE.INTER.SOLV>
14.771

>  <SCORE.INTER.VDW>
-28.6311

>  <SCORE.INTER.norm>
-0.890815

>  <SCORE.INTRA>
-2.327

>  <SCORE.INTRA.DIHEDRAL>
-2.20936

>  <SCORE.INTRA.DIHEDRAL.0>
6.97628

>  <SCORE.INTRA.POLAR>
0

>  <SCORE.INTRA.POLAR.0>
0

>  <SCORE.INTRA.REPUL>
0

>  <SCORE.INTRA.REPUL.0>
0

>  <SCORE.INTRA.SOLV>
-0.164933

>  <SCORE.INTRA.SOLV.lig_0>
-49.8243

>  <SCORE.INTRA.VDW>
-1.13986

>  <SCORE.INTRA.VDW.0>
-1.35881

>  <SCORE.INTRA.norm>
-0.0895002

>  <SCORE.RESTR>
0

>  <SCORE.RESTR.CAVITY>
0

>  <SCORE.RESTR.norm>
0

>  <SCORE.SYSTEM>
0

>  <SCORE.SYSTEM.CONST>
0

>  <SCORE.SYSTEM.DIHEDRAL>
0

>  <SCORE.SYSTEM.SOLV>
0

>  <SCORE.SYSTEM.norm>
0

>  <SCORE.heavy>
26

>  <SCORE.norm>
-0.980315

>  <RMSD>
6.293

$$$$
ligand
 OpenBabel11021811483D
libRbt.so/2013.1/901 2013/11/27
 26 28  0  0  0  0  0  0  0  0999 V2000
   37.1685   15.4070    7.9107 N   0  0  0  0  0  0  0  0  0  0  0  0
   38.4635   14.7540    7.7649 C   0  0  2  0  0  0  0  0  0  0  0  0
   39.4851   15.6955    7.1374 C   0  0  0  0  0  0  0  0  0  0  0  0
   39.1690   16.4535    6.2212 O   0  0  0  0  0  0  0  0  0  0  0  0
   38.3323   13.4902    6.9242 C   0  0  0  0  0  0  0  0  0  0  0  0
   39.6575   12.8029    6.6225 C   0  0  0  0  0  0  0  0  0  0  0  0
   39.4427   11.2421    5.7303 S   0  0  0  0  0  0  0  0  0  0  0  0
   40.8857   11.6254    4.7060 C   0  0  0  0  0  0  0  0  0  0  0  0
   41.0361   10.6765    3.5227 C   0  0  1  0  0  0  0  0  0  0  0  0
   42.0165   11.1707    2.6285 O   0  0  0  0  0  0  0  0  0  0  0  0
   41.4716    9.2906    3.9698 C   0  0  1  0  0  0  0  0  0  0  0  0
   40.4718    8.3490    3.6598 O   0  0  0  0  0  0  0  0  0  0  0  0
   42.7340    8.9826    3.1917 C   0  0  1  0  0  0  0  0  0  0  0  0
   42.5609    7.8077    2.4341 O   0  0  0  0  0  0  0  0  0  0  0  0
   42.9527   10.1710    2.2712 C   0  0  2  0  0  0  0  0  0  0  0  0
   40.6512   15.7205    7.5328 O   0  0  0  0  0  0  0  0  0  0  0  0
   45.9589   14.0970    4.0365 N   0  0  0  0  0  0  0  0  0  0  0  0
   44.5836   13.9897    4.0864 C   0  0  0  0  0  0  0  0  0  0  0  0
   43.9541   12.8751    3.5685 N   0  0  0  0  0  0  0  0  0  0  0  0
   44.6806   11.8788    3.0059 C   0  0  0  0  0  0  0  0  0  0  0  0
   46.0646   11.9686    2.9458 C   0  0  0  0  0  0  0  0  0  0  0  0
   46.7059   13.0866    3.4655 C   0  0  0  0  0  0  0  0  0  0  0  0
   48.0310   13.1838    3.4126 N   0  0  0  0  0  0  0  0  0  0  0  0
   46.5279   10.8523    2.3430 N   0  0  0  0  0  0  0  0  0  0  0  0
   45.4771   10.0630    2.0219 C   0  0  0  0  0  0  0  0  0  0  0  0
   44.3249   10.6862    2.4268 N   0  0  0  0  0  0  0  0  0  0  0  0
  2  1  1  6  0  0  0
  2  3  1  0  0  0  0
  2  5  1  0  0  0  0
  3  4  1  0  0  0  0
  3 16  1  0  0  0  0
  5  6  1  0  0  0  0
  6  7  1  0  0  0  0
  7  8  1  0  0  0  0
  9  8  1  1  0  0  0
  9 10  1  0  0  0  0
  9 11  1  0  0  0  0
 10 15  1  0  0  0  0
 11 12  1  6  0  0  0
 11 13  1  0  0  0  0
 13 14  1  6  0  0  0
 13 15  1  0  0  0  0
 15 26  1  1  0  0  0
 17 18  2  0  0  0  0
 17 22  1  0  0  0  0
 18 19  1  0  0  0  0
 19 20  2  0  0  0  0
 20 21  1  0  0  0  0
 20 26  1  0  0  0  0
 21 22  2  0  0  0  0
 21 24  1  0  0  0  0
 22 23  1  0  0  0  0
 24 25  2  0  0  0  0
 25 26  1  0  0  0  0
M  END
>  <CHROM.1>
-39.74816673,175.20837236,175.65577176,140.17363177,-169.43157412,169.01198650
8.60860076,42.18174573,12.11345140,4.45795220,-2.51062645,-0.35975338,-2.69973668

>  <Name>
ligand

>  <RI>
0

>  <Rbt.Current_Directory>
/home/itssahil/PROJECTS/Mol_Feturizer/New_Systems/rnas/3NPQ

>  <Rbt.Executable>
rbdock ($Id: //depot/dev/client3/rdock/2013.1/src/exe/rbdock.cxx#4 $)

>  <Rbt.Library>
libRbt.so (2013.1, Build901 2013/11/27)

>  <Rbt.Parameter_File>
/export/apps/rDock/src/rDock_2013.1_src/data/scripts/dock_solv.prm

>  <Rbt.Receptor>
prm/pocket_docking_7.prm

>  <SCORE>
-23.5948

>  <SCORE.INTER>
-21.4692

>  <SCORE.INTER.CONST>
1

>  <SCORE.INTER.POLAR>
0

>  <SCORE.INTER.ROT>
7

>  <SCORE.INTER.SOLV>
12.1472

>  <SCORE.INTER.VDW>
-26.6285

>  <SCORE.INTER.norm>
-0.825739

>  <SCORE.INTRA>
-2.12556

>  <SCORE.INTRA.DIHEDRAL>
-1.7466

>  <SCORE.INTRA.DIHEDRAL.0>
6.97628

>  <SCORE.INTRA.POLAR>
0

>  <SCORE.INTRA.POLAR.0>
0

>  <SCORE.INTRA.REPUL>
0

>  <SCORE.INTRA.REPUL.0>
0

>  <SCORE.INTRA.SOLV>
-0.807434

>  <SCORE.INTRA.SOLV.lig_0>
-49.8243

>  <SCORE.INTRA.VDW>
-0.84854

>  <SCORE.INTRA.VDW.0>
-1.35881

>  <SCORE.INTRA.norm>
-0.0817522

>  <SCORE.RESTR>
0

>  <SCORE.RESTR.CAVITY>
0

>  <SCORE.RESTR.norm>
0

>  <SCORE.SYSTEM>
0

>  <SCORE.SYSTEM.CONST>
0

>  <SCORE.SYSTEM.DIHEDRAL>
0

>  <SCORE.SYSTEM.SOLV>
0

>  <SCORE.SYSTEM.norm>
0

>  <SCORE.heavy>
26

>  <SCORE.norm>
-0.907491

>  <RMSD>
6.379

$$$$
ligand
 OpenBabel11021811483D
libRbt.so/2013.1/901 2013/11/27
 26 28  0  0  0  0  0  0  0  0999 V2000
   39.9729   18.8336    1.7082 N   0  0  0  0  0  0  0  0  0  0  0  0
   39.8013   18.5792    3.1331 C   0  0  2  0  0  0  0  0  0  0  0  0
   41.1489   18.4283    3.8296 C   0  0  0  0  0  0  0  0  0  0  0  0
   42.2011   18.6207    3.2216 O   0  0  0  0  0  0  0  0  0  0  0  0
   38.9561   17.3311    3.3545 C   0  0  0  0  0  0  0  0  0  0  0  0
   37.5291   17.4454    2.8348 C   0  0  0  0  0  0  0  0  0  0  0  0
   36.5396   15.9720    3.1933 S   0  0  0  0  0  0  0  0  0  0  0  0
   36.3053   16.5399    4.8964 C   0  0  0  0  0  0  0  0  0  0  0  0
   36.2231   15.3904    5.8940 C   0  0  1  0  0  0  0  0  0  0  0  0
   37.4311   14.6518    5.8808 O   0  0  0  0  0  0  0  0  0  0  0  0
   36.0026   15.8950    7.3107 C   0  0  1  0  0  0  0  0  0  0  0  0
   34.7620   15.4392    7.7959 O   0  0  0  0  0  0  0  0  0  0  0  0
   37.1295   15.3115    8.1376 C   0  0  1  0  0  0  0  0  0  0  0  0
   36.6058   14.5349    9.1897 O   0  0  0  0  0  0  0  0  0  0  0  0
   37.9283   14.4352    7.1881 C   0  0  2  0  0  0  0  0  0  0  0  0
   41.2167   18.1107    5.0176 O   0  0  0  0  0  0  0  0  0  0  0  0
   41.5007   17.8018    9.0514 N   0  0  0  0  0  0  0  0  0  0  0  0
   40.1333   17.8216    9.2396 C   0  0  0  0  0  0  0  0  0  0  0  0
   39.3390   16.8464    8.6695 N   0  0  0  0  0  0  0  0  0  0  0  0
   39.8948   15.8636    7.9197 C   0  0  0  0  0  0  0  0  0  0  0  0
   41.2679   15.8269    7.7185 C   0  0  0  0  0  0  0  0  0  0  0  0
   42.0743   16.8041    8.2895 C   0  0  0  0  0  0  0  0  0  0  0  0
   43.3906   16.7795    8.1028 N   0  0  0  0  0  0  0  0  0  0  0  0
   41.5462   14.7559    6.9443 N   0  0  0  0  0  0  0  0  0  0  0  0
   40.3897   14.1177    6.6521 C   0  0  0  0  0  0  0  0  0  0  0  0
   39.3569   14.7928    7.2501 N   0  0  0  0  0  0  0  0  0  0  0  0
  2  1  1  6  0  0  0
  2  3  1  0  0  0  0
  2  5  1  0  0  0  0
  3  4  1  0  0  0  0
  3 16  1  0  0  0  0
  5  6  1  0  0  0  0
  6  7  1  0  0  0  0
  7  8  1  0  0  0  0
  9  8  1  6  0  0  0
  9 10  1  0  0  0  0
  9 11  1  0  0  0  0
 10 15  1  0  0  0  0
 11 12  1  1  0  0  0
 11 13  1  0  0  0  0
 13 14  1  1  0  0  0
 13 15  1  0  0  0  0
 15 26  1  6  0  0  0
 17 18  2  0  0  0  0
 17 22  1  0  0  0  0
 18 19  1  0  0  0  0
 19 20  2  0  0  0  0
 20 21  1  0  0  0  0
 20 26  1  0  0  0  0
 21 22  2  0  0  0  0
 21 24  1  0  0  0  0
 22 23  1  0  0  0  0
 24 25  2  0  0  0  0
 25 26  1  0  0  0  0
M  END
>  <CHROM.1>
5.45999428,-63.63837856,-177.12870980,78.96153829,-146.82085774,61.43780768
110.61086254,39.00288501,16.39969309,6.06515637,0.76617181,-0.33020885,-1.20631917

>  <Name>
ligand

>  <RI>
0

>  <Rbt.Current_Directory>
/home/itssahil/PROJECTS/Mol_Feturizer/New_Systems/rnas/3NPQ

>  <Rbt.Executable>
rbdock ($Id: //depot/dev/client3/rdock/2013.1/src/exe/rbdock.cxx#4 $)

>  <Rbt.Library>
libRbt.so (2013.1, Build901 2013/11/27)

>  <Rbt.Parameter_File>
/export/apps/rDock/src/rDock_2013.1_src/data/scripts/dock_solv.prm

>  <Rbt.Receptor>
prm/pocket_docking_7.prm

>  <SCORE>
-10.6606

>  <SCORE.INTER>
-9.07961

>  <SCORE.INTER.CONST>
1

>  <SCORE.INTER.POLAR>
0

>  <SCORE.INTER.ROT>
7

>  <SCORE.INTER.SOLV>
9.59445

>  <SCORE.INTER.VDW>
-17.5179

>  <SCORE.INTER.norm>
-0.349216

>  <SCORE.INTRA>
-1.581

>  <SCORE.INTRA.DIHEDRAL>
-2.26778

>  <SCORE.INTRA.DIHEDRAL.0>
6.97628

>  <SCORE.INTRA.POLAR>
0

>  <SCORE.INTRA.POLAR.0>
0

>  <SCORE.INTRA.REPUL>
0

>  <SCORE.INTRA.REPUL.0>
0

>  <SCORE.INTRA.SOLV>
-0.16551

>  <SCORE.INTRA.SOLV.lig_0>
-49.8243

>  <SCORE.INTRA.VDW>
-0.364351

>  <SCORE.INTRA.VDW.0>
-1.35881

>  <SCORE.INTRA.norm>
-0.0608075

>  <SCORE.RESTR>
0

>  <SCORE.RESTR.CAVITY>
0

>  <SCORE.RESTR.norm>
0

>  <SCORE.SYSTEM>
0

>  <SCORE.SYSTEM.CONST>
0

>  <SCORE.SYSTEM.DIHEDRAL>
0

>  <SCORE.SYSTEM.SOLV>
0

>  <SCORE.SYSTEM.norm>
0

>  <SCORE.heavy>
26

>  <SCORE.norm>
-0.410023

>  <RMSD>
6.410

$$$$
ligand
 OpenBabel11021811483D
libRbt.so/2013.1/901 2013/11/27
 26 28  0  0  0  0  0  0  0  0999 V2000
   37.5987   15.0947    8.4330 N   0  0  0  0  0  0  0  0  0  0  0  0
   36.1689   14.8647    8.2674 C   0  0  2  0  0  0  0  0  0  0  0  0
   35.7207   15.1961    6.8485 C   0  0  0  0  0  0  0  0  0  0  0  0
   36.4743   15.7714    6.0644 O   0  0  0  0  0  0  0  0  0  0  0  0
   35.3756   15.6907    9.2722 C   0  0  0  0  0  0  0  0  0  0  0  0
   35.5673   17.1950    9.1308 C   0  0  0  0  0  0  0  0  0  0  0  0
   34.1052   18.1323    9.6427 S   0  0  0  0  0  0  0  0  0  0  0  0
   34.0714   18.9639    8.0348 C   0  0  0  0  0  0  0  0  0  0  0  0
   34.7906   20.3077    8.0520 C   0  0  1  0  0  0  0  0  0  0  0  0
   36.1919   20.1057    8.0703 O   0  0  0  0  0  0  0  0  0  0  0  0
   34.4567   21.1358    6.8219 C   0  0  1  0  0  0  0  0  0  0  0  0
   33.7879   22.3147    7.2029 O   0  0  0  0  0  0  0  0  0  0  0  0
   35.7854   21.4770    6.1799 C   0  0  1  0  0  0  0  0  0  0  0  0
   35.9360   22.8748    6.0930 O   0  0  0  0  0  0  0  0  0  0  0  0
   36.8486   20.8922    7.0938 C   0  0  2  0  0  0  0  0  0  0  0  0
   34.5938   14.8954    6.4530 O   0  0  0  0  0  0  0  0  0  0  0  0
   37.3924   17.5460    3.0845 N   0  0  0  0  0  0  0  0  0  0  0  0
   36.2393   18.1612    3.5289 C   0  0  0  0  0  0  0  0  0  0  0  0
   36.2821   19.0206    4.6089 N   0  0  0  0  0  0  0  0  0  0  0  0
   37.4551   19.2657    5.2420 C   0  0  0  0  0  0  0  0  0  0  0  0
   38.6252   18.6561    4.8103 C   0  0  0  0  0  0  0  0  0  0  0  0
   38.5910   17.7907    3.7236 C   0  0  0  0  0  0  0  0  0  0  0  0
   39.7054   17.2004    3.3019 N   0  0  0  0  0  0  0  0  0  0  0  0
   39.6307   19.0733    5.6097 N   0  0  0  0  0  0  0  0  0  0  0  0
   39.1285   19.9268    6.5314 C   0  0  0  0  0  0  0  0  0  0  0  0
   37.7806   20.0561    6.3161 N   0  0  0  0  0  0  0  0  0  0  0  0
  2  1  1  6  0  0  0
  2  3  1  0  0  0  0
  2  5  1  0  0  0  0
  3  4  1  0  0  0  0
  3 16  1  0  0  0  0
  5  6  1  0  0  0  0
  6  7  1  0  0  0  0
  7  8  1  0  0  0  0
  9  8  1  6  0  0  0
  9 10  1  0  0  0  0
  9 11  1  0  0  0  0
 10 15  1  0  0  0  0
 11 12  1  1  0  0  0
 11 13  1  0  0  0  0
 13 14  1  1  0  0  0
 13 15  1  0  0  0  0
 15 26  1  6  0  0  0
 17 18  2  0  0  0  0
 17 22  1  0  0  0  0
 18 19  1  0  0  0  0
 19 20  2  0  0  0  0
 20 21  1  0  0  0  0
 20 26  1  0  0  0  0
 21 22  2  0  0  0  0
 21 24  1  0  0  0  0
 22 23  1  0  0  0  0
 24 25  2  0  0  0  0
 25 26  1  0  0  0  0
M  END
>  <CHROM.1>
-10.13819935,61.19202287,150.12183555,-125.25131846,-94.84590022,74.80799026
83.04985016,36.30506837,18.51763088,6.67107088,-2.29877587,0.85349650,-0.19929591

>  <Name>
ligand

>  <RI>
0

>  <Rbt.Current_Directory>
/home/itssahil/PROJECTS/Mol_Feturizer/New_Systems/rnas/3NPQ

>  <Rbt.Executable>
rbdock ($Id: //depot/dev/client3/rdock/2013.1/src/exe/rbdock.cxx#4 $)

>  <Rbt.Library>
libRbt.so (2013.1, Build901 2013/11/27)

>  <Rbt.Parameter_File>
/export/apps/rDock/src/rDock_2013.1_src/data/scripts/dock_solv.prm

>  <Rbt.Receptor>
prm/pocket_docking_7.prm

>  <SCORE>
-17.4883

>  <SCORE.INTER>
-17.0316

>  <SCORE.INTER.CONST>
1

>  <SCORE.INTER.POLAR>
0

>  <SCORE.INTER.ROT>
7

>  <SCORE.INTER.SOLV>
13.8677

>  <SCORE.INTER.VDW>
-24.2437

>  <SCORE.INTER.norm>
-0.655063

>  <SCORE.INTRA>
-0.456704

>  <SCORE.INTRA.DIHEDRAL>
3.0528

>  <SCORE.INTRA.DIHEDRAL.0>
6.97628

>  <SCORE.INTRA.POLAR>
0

>  <SCORE.INTRA.POLAR.0>
0

>  <SCORE.INTRA.REPUL>
0

>  <SCORE.INTRA.REPUL.0>
0

>  <SCORE.INTRA.SOLV>
-0.173953

>  <SCORE.INTRA.SOLV.lig_0>
-49.8243

>  <SCORE.INTRA.VDW>
-1.89613

>  <SCORE.INTRA.VDW.0>
-1.35881

>  <SCORE.INTRA.norm>
-0.0175655

>  <SCORE.RESTR>
0

>  <SCORE.RESTR.CAVITY>
0

>  <SCORE.RESTR.norm>
0

>  <SCORE.SYSTEM>
0

>  <SCORE.SYSTEM.CONST>
0

>  <SCORE.SYSTEM.DIHEDRAL>
0

>  <SCORE.SYSTEM.SOLV>
0

>  <SCORE.SYSTEM.norm>
0

>  <SCORE.heavy>
26

>  <SCORE.norm>
-0.672629

>  <RMSD>
6.907

$$$$
ligand
 OpenBabel11021811483D
libRbt.so/2013.1/901 2013/11/27
 26 28  0  0  0  0  0  0  0  0999 V2000
   41.2525   18.4162    1.7682 N   0  0  0  0  0  0  0  0  0  0  0  0
   40.6728   17.1133    2.0696 C   0  0  2  0  0  0  0  0  0  0  0  0
   39.5062   17.2436    3.0423 C   0  0  0  0  0  0  0  0  0  0  0  0
   39.5054   18.1076    3.9182 O   0  0  0  0  0  0  0  0  0  0  0  0
   41.7300   16.1787    2.6441 C   0  0  0  0  0  0  0  0  0  0  0  0
   41.2214   14.7757    2.9485 C   0  0  0  0  0  0  0  0  0  0  0  0
   42.5429   13.6588    3.4820 S   0  0  0  0  0  0  0  0  0  0  0  0
   41.3591   12.2912    3.5617 C   0  0  0  0  0  0  0  0  0  0  0  0
   41.0632   11.8516    4.9909 C   0  0  1  0  0  0  0  0  0  0  0  0
   40.9697   12.9844    5.8353 O   0  0  0  0  0  0  0  0  0  0  0  0
   39.7481   11.0948    5.0816 C   0  0  1  0  0  0  0  0  0  0  0  0
   39.9829    9.7711    5.4997 O   0  0  0  0  0  0  0  0  0  0  0  0
   38.9201   11.8271    6.1171 C   0  0  1  0  0  0  0  0  0  0  0  0
   38.5723   10.9527    7.1653 O   0  0  0  0  0  0  0  0  0  0  0  0
   39.8062   12.9445    6.6403 C   0  0  2  0  0  0  0  0  0  0  0  0
   38.5363   16.4876    2.9743 O   0  0  0  0  0  0  0  0  0  0  0  0
   35.9466   15.9158    8.6005 N   0  0  0  0  0  0  0  0  0  0  0  0
   36.3223   14.6451    8.9873 C   0  0  0  0  0  0  0  0  0  0  0  0
   37.3714   14.0077    8.3548 N   0  0  0  0  0  0  0  0  0  0  0  0
   38.0391   14.6232    7.3487 C   0  0  0  0  0  0  0  0  0  0  0  0
   37.6758   15.9007    6.9450 C   0  0  0  0  0  0  0  0  0  0  0  0
   36.6218   16.5496    7.5770 C   0  0  0  0  0  0  0  0  0  0  0  0
   36.2645   17.7730    7.1981 N   0  0  0  0  0  0  0  0  0  0  0  0
   38.4976   16.2680    5.9381 N   0  0  0  0  0  0  0  0  0  0  0  0
   39.3668   15.2600    5.6959 C   0  0  0  0  0  0  0  0  0  0  0  0
   39.0949   14.2332    6.5629 N   0  0  0  0  0  0  0  0  0  0  0  0
  2  1  1  1  0  0  0
  2  3  1  0  0  0  0
  2  5  1  0  0  0  0
  3  4  1  0  0  0  0
  3 16  1  0  0  0  0
  5  6  1  0  0  0  0
  6  7  1  0  0  0  0
  7  8  1  0  0  0  0
  9  8  1  6  0  0  0
  9 10  1  0  0  0  0
  9 11  1  0  0  0  0
 10 15  1  0  0  0  0
 11 12  1  1  0  0  0
 11 13  1  0  0  0  0
 13 14  1  1  0  0  0
 13 15  1  0  0  0  0
 15 26  1  6  0  0  0
 17 18  2  0  0  0  0
 17 22  1  0  0  0  0
 18 19  1  0  0  0  0
 19 20  2  0  0  0  0
 20 21  1  0  0  0  0
 20 26  1  0  0  0  0
 21 22  2  0  0  0  0
 21 24  1  0  0  0  0
 22 23  1  0  0  0  0
 24 25  2  0  0  0  0
 25 26  1  0  0  0  0
M  END
>  <CHROM.1>
-33.69647145,-178.16455831,174.65176633,-176.95943002,-109.75506273,39.75489398
-170.27941332,39.45101982,14.56363229,5.28653188,0.48344021,0.79175417,-0.41584056

>  <Name>
ligand

>  <RI>
0

>  <Rbt.Current_Directory>
/home/itssahil/PROJECTS/Mol_Feturizer/New_Systems/rnas/3NPQ

>  <Rbt.Executable>
rbdock ($Id: //depot/dev/client3/rdock/2013.1/src/exe/rbdock.cxx#4 $)

>  <Rbt.Library>
libRbt.so (2013.1, Build901 2013/11/27)

>  <Rbt.Parameter_File>
/export/apps/rDock/src/rDock_2013.1_src/data/scripts/dock_solv.prm

>  <Rbt.Receptor>
prm/pocket_docking_6.prm

>  <SCORE>
-16.9144

>  <SCORE.INTER>
-14.0678

>  <SCORE.INTER.CONST>
1

>  <SCORE.INTER.POLAR>
0

>  <SCORE.INTER.ROT>
7

>  <SCORE.INTER.SOLV>
11.0692

>  <SCORE.INTER.VDW>
-21.3349

>  <SCORE.INTER.norm>
-0.541068

>  <SCORE.INTRA>
-2.8466

>  <SCORE.INTRA.DIHEDRAL>
-0.595175

>  <SCORE.INTRA.DIHEDRAL.0>
6.97628

>  <SCORE.INTRA.POLAR>
0

>  <SCORE.INTRA.POLAR.0>
0

>  <SCORE.INTRA.REPUL>
0

>  <SCORE.INTRA.REPUL.0>
0

>  <SCORE.INTRA.SOLV>
-0.758471

>  <SCORE.INTRA.SOLV.lig_0>
-49.8243

>  <SCORE.INTRA.VDW>
-2.16978

>  <SCORE.INTRA.VDW.0>
-1.35881

>  <SCORE.INTRA.norm>
-0.109485

>  <SCORE.RESTR>
0

>  <SCORE.RESTR.CAVITY>
0

>  <SCORE.RESTR.norm>
0

>  <SCORE.SYSTEM>
0

>  <SCORE.SYSTEM.CONST>
0

>  <SCORE.SYSTEM.DIHEDRAL>
0

>  <SCORE.SYSTEM.SOLV>
0

>  <SCORE.SYSTEM.norm>
0

>  <SCORE.heavy>
26

>  <SCORE.norm>
-0.650552

>  <RMSD>
6.909

$$$$
ligand
 OpenBabel11021811483D
libRbt.so/2013.1/901 2013/11/27
 26 28  0  0  0  0  0  0  0  0999 V2000
   36.9145   17.7790    4.7862 N   0  0  0  0  0  0  0  0  0  0  0  0
   37.5859   17.8361    3.4937 C   0  0  2  0  0  0  0  0  0  0  0  0
   37.2845   16.5935    2.6635 C   0  0  0  0  0  0  0  0  0  0  0  0
   36.4009   15.8061    2.9999 O   0  0  0  0  0  0  0  0  0  0  0  0
   39.0904   17.9876    3.6800 C   0  0  0  0  0  0  0  0  0  0  0  0
   39.8022   16.6989    4.0702 C   0  0  0  0  0  0  0  0  0  0  0  0
   41.2868   16.9990    5.0624 S   0  0  0  0  0  0  0  0  0  0  0  0
   40.2807   17.0188    6.5676 C   0  0  0  0  0  0  0  0  0  0  0  0
   40.1161   15.6344    7.1837 C   0  0  1  0  0  0  0  0  0  0  0  0
   39.3230   15.7173    8.3537 O   0  0  0  0  0  0  0  0  0  0  0  0
   39.4309   14.6743    6.2251 C   0  0  1  0  0  0  0  0  0  0  0  0
   40.3042   13.6210    5.8931 O   0  0  0  0  0  0  0  0  0  0  0  0
   38.2270   14.1353    6.9697 C   0  0  1  0  0  0  0  0  0  0  0  0
   38.3006   12.7313    7.0567 O   0  0  0  0  0  0  0  0  0  0  0  0
   38.2903   14.7495    8.3576 C   0  0  2  0  0  0  0  0  0  0  0  0
   37.9178   16.3483    1.6361 O   0  0  0  0  0  0  0  0  0  0  0  0
   35.6617   19.2692    8.8372 N   0  0  0  0  0  0  0  0  0  0  0  0
   36.9803   19.0863    8.4720 C   0  0  0  0  0  0  0  0  0  0  0  0
   37.5106   17.8136    8.3965 N   0  0  0  0  0  0  0  0  0  0  0  0
   36.7419   16.7343    8.6818 C   0  0  0  0  0  0  0  0  0  0  0  0
   35.4138   16.8978    9.0515 C   0  0  0  0  0  0  0  0  0  0  0  0
   34.8723   18.1753    9.1289 C   0  0  0  0  0  0  0  0  0  0  0  0
   33.6016   18.3439    9.4828 N   0  0  0  0  0  0  0  0  0  0  0  0
   34.8906   15.6729    9.2747 N   0  0  0  0  0  0  0  0  0  0  0  0
   35.8495   14.7437    9.0568 C   0  0  0  0  0  0  0  0  0  0  0  0
   37.0030   15.3867    8.6884 N   0  0  0  0  0  0  0  0  0  0  0  0
  2  1  1  1  0  0  0
  2  3  1  0  0  0  0
  2  5  1  0  0  0  0
  3  4  1  0  0  0  0
  3 16  1  0  0  0  0
  5  6  1  0  0  0  0
  6  7  1  0  0  0  0
  7  8  1  0  0  0  0
  9  8  1  6  0  0  0
  9 10  1  0  0  0  0
  9 11  1  0  0  0  0
 10 15  1  0  0  0  0
 11 12  1  1  0  0  0
 11 13  1  0  0  0  0
 13 14  1  1  0  0  0
 13 15  1  0  0  0  0
 15 26  1  6  0  0  0
 17 18  2  0  0  0  0
 17 22  1  0  0  0  0
 18 19  1  0  0  0  0
 19 20  2  0  0  0  0
 20 21  1  0  0  0  0
 20 26  1  0  0  0  0
 21 22  2  0  0  0  0
 21 24  1  0  0  0  0
 22 23  1  0  0  0  0
 24 25  2  0  0  0  0
 25 26  1  0  0  0  0
M  END
>  <CHROM.1>
11.62043362,77.27570948,-150.89140611,86.48284888,88.86915527,179.96505663
14.67278209,37.88559226,16.38238771,6.54280911,0.72522130,0.65609878,-1.13155955

>  <Name>
ligand

>  <RI>
0

>  <Rbt.Current_Directory>
/home/itssahil/PROJECTS/Mol_Feturizer/New_Systems/rnas/3NPQ

>  <Rbt.Executable>
rbdock ($Id: //depot/dev/client3/rdock/2013.1/src/exe/rbdock.cxx#4 $)

>  <Rbt.Library>
libRbt.so (2013.1, Build901 2013/11/27)

>  <Rbt.Parameter_File>
/export/apps/rDock/src/rDock_2013.1_src/data/scripts/dock_solv.prm

>  <Rbt.Receptor>
prm/pocket_docking_5.prm

>  <SCORE>
-10.6656

>  <SCORE.INTER>
-11.7355

>  <SCORE.INTER.CONST>
1

>  <SCORE.INTER.POLAR>
0

>  <SCORE.INTER.ROT>
7

>  <SCORE.INTER.SOLV>
17.9531

>  <SCORE.INTER.VDW>
-22.0747

>  <SCORE.INTER.norm>
-0.451364

>  <SCORE.INTRA>
1.06985

>  <SCORE.INTRA.DIHEDRAL>
1.51949

>  <SCORE.INTRA.DIHEDRAL.0>
6.97628

>  <SCORE.INTRA.POLAR>
0

>  <SCORE.INTRA.POLAR.0>
0

>  <SCORE.INTRA.REPUL>
0

>  <SCORE.INTRA.REPUL.0>
0

>  <SCORE.INTRA.SOLV>
1.30185

>  <SCORE.INTRA.SOLV.lig_0>
-49.8243

>  <SCORE.INTRA.VDW>
-0.340824

>  <SCORE.INTRA.VDW.0>
-1.35881

>  <SCORE.INTRA.norm>
0.041148

>  <SCORE.RESTR>
0

>  <SCORE.RESTR.CAVITY>
0

>  <SCORE.RESTR.norm>
0

>  <SCORE.SYSTEM>
0

>  <SCORE.SYSTEM.CONST>
0

>  <SCORE.SYSTEM.DIHEDRAL>
0

>  <SCORE.SYSTEM.SOLV>
0

>  <SCORE.SYSTEM.norm>
0

>  <SCORE.heavy>
26

>  <SCORE.norm>
-0.410216

>  <RMSD>
6.979

$$$$
ligand
 OpenBabel11021811483D
libRbt.so/2013.1/901 2013/11/27
 26 28  0  0  0  0  0  0  0  0999 V2000
   41.6840    9.3353    2.8682 N   0  0  0  0  0  0  0  0  0  0  0  0
   41.3254   10.6384    3.4140 C   0  0  2  0  0  0  0  0  0  0  0  0
   42.5612   11.5082    3.6145 C   0  0  0  0  0  0  0  0  0  0  0  0
   43.5604   11.3605    2.9119 O   0  0  0  0  0  0  0  0  0  0  0  0
   40.5800   10.4779    4.7330 C   0  0  0  0  0  0  0  0  0  0  0  0
   39.9337   11.7593    5.2428 C   0  0  0  0  0  0  0  0  0  0  0  0
   39.0143   11.5082    6.7824 S   0  0  0  0  0  0  0  0  0  0  0  0
   38.2115   13.1170    6.5690 C   0  0  0  0  0  0  0  0  0  0  0  0
   38.5836   14.1101    7.6638 C   0  0  1  0  0  0  0  0  0  0  0  0
   39.8769   14.6337    7.4221 O   0  0  0  0  0  0  0  0  0  0  0  0
   37.6115   15.2776    7.7128 C   0  0  1  0  0  0  0  0  0  0  0  0
   36.9345   15.2881    8.9472 O   0  0  0  0  0  0  0  0  0  0  0  0
   38.4575   16.5263    7.5741 C   0  0  1  0  0  0  0  0  0  0  0  0
   38.2708   17.3639    8.6912 O   0  0  0  0  0  0  0  0  0  0  0  0
   39.8974   16.0458    7.5155 C   0  0  2  0  0  0  0  0  0  0  0  0
   42.5890   12.3798    4.4842 O   0  0  0  0  0  0  0  0  0  0  0  0
   41.5946   15.1954    2.6202 N   0  0  0  0  0  0  0  0  0  0  0  0
   40.9485   14.3127    3.4622 C   0  0  0  0  0  0  0  0  0  0  0  0
   40.5703   14.7111    4.7291 N   0  0  0  0  0  0  0  0  0  0  0  0
   40.8316   15.9704    5.1567 C   0  0  0  0  0  0  0  0  0  0  0  0
   41.4808   16.8724    4.3248 C   0  0  0  0  0  0  0  0  0  0  0  0
   41.8640   16.4798    3.0480 C   0  0  0  0  0  0  0  0  0  0  0  0
   42.4873   17.3350    2.2429 N   0  0  0  0  0  0  0  0  0  0  0  0
   41.6101   18.0376    4.9954 N   0  0  0  0  0  0  0  0  0  0  0  0
   41.0620   17.8959    6.2241 C   0  0  0  0  0  0  0  0  0  0  0  0
   40.5750   16.6193    6.3388 N   0  0  0  0  0  0  0  0  0  0  0  0
  2  1  1  1  0  0  0
  2  3  1  0  0  0  0
  2  5  1  0  0  0  0
  3  4  1  0  0  0  0
  3 16  1  0  0  0  0
  5  6  1  0  0  0  0
  6  7  1  0  0  0  0
  7  8  1  0  0  0  0
  9  8  1  6  0  0  0
  9 10  1  0  0  0  0
  9 11  1  0  0  0  0
 10 15  1  0  0  0  0
 11 12  1  1  0  0  0
 11 13  1  0  0  0  0
 13 14  1  1  0  0  0
 13 15  1  0  0  0  0
 15 26  1  6  0  0  0
 17 18  2  0  0  0  0
 17 22  1  0  0  0  0
 18 19  1  0  0  0  0
 19 20  2  0  0  0  0
 20 21  1  0  0  0  0
 20 26  1  0  0  0  0
 21 22  2  0  0  0  0
 21 24  1  0  0  0  0
 22 23  1  0  0  0  0
 24 25  2  0  0  0  0
 25 26  1  0  0  0  0
M  END
>  <CHROM.1>
28.01428682,-168.86801254,178.10024379,-165.86969053,-115.40576538,77.47360691
16.58342790,40.37553749,14.23186910,5.47084749,0.86764119,-0.85462225,-3.03501816

>  <Name>
ligand

>  <RI>
0

>  <Rbt.Current_Directory>
/home/itssahil/PROJECTS/Mol_Feturizer/New_Systems/rnas/3NPQ

>  <Rbt.Executable>
rbdock ($Id: //depot/dev/client3/rdock/2013.1/src/exe/rbdock.cxx#4 $)

>  <Rbt.Library>
libRbt.so (2013.1, Build901 2013/11/27)

>  <Rbt.Parameter_File>
/export/apps/rDock/src/rDock_2013.1_src/data/scripts/dock_solv.prm

>  <Rbt.Receptor>
prm/pocket_docking_3.prm

>  <SCORE>
-15.0454

>  <SCORE.INTER>
-13.6771

>  <SCORE.INTER.CONST>
1

>  <SCORE.INTER.POLAR>
0

>  <SCORE.INTER.ROT>
7

>  <SCORE.INTER.SOLV>
11.4021

>  <SCORE.INTER.VDW>
-21.1855

>  <SCORE.INTER.norm>
-0.526044

>  <SCORE.INTRA>
-1.7854

>  <SCORE.INTRA.DIHEDRAL>
-0.12166

>  <SCORE.INTRA.DIHEDRAL.0>
6.97628

>  <SCORE.INTRA.POLAR>
0

>  <SCORE.INTRA.POLAR.0>
0

>  <SCORE.INTRA.REPUL>
0

>  <SCORE.INTRA.REPUL.0>
0

>  <SCORE.INTRA.SOLV>
-0.850163

>  <SCORE.INTRA.SOLV.lig_0>
-49.8243

>  <SCORE.INTRA.VDW>
-1.29949

>  <SCORE.INTRA.VDW.0>
-1.35881

>  <SCORE.INTRA.norm>
-0.0686694

>  <SCORE.RESTR>
0.417114

>  <SCORE.RESTR.CAVITY>
0.417114

>  <SCORE.RESTR.norm>
0.0160429

>  <SCORE.SYSTEM>
0

>  <SCORE.SYSTEM.CONST>
0

>  <SCORE.SYSTEM.DIHEDRAL>
0

>  <SCORE.SYSTEM.SOLV>
0

>  <SCORE.SYSTEM.norm>
0

>  <SCORE.heavy>
26

>  <SCORE.norm>
-0.578671

>  <RMSD>
7.069

$$$$
ligand
 OpenBabel11021811483D
libRbt.so/2013.1/901 2013/11/27
 26 28  0  0  0  0  0  0  0  0999 V2000
   40.7095   13.5053    5.3033 N   0  0  0  0  0  0  0  0  0  0  0  0
   39.5885   14.2760    5.8267 C   0  0  2  0  0  0  0  0  0  0  0  0
   40.0572   15.6128    6.3900 C   0  0  0  0  0  0  0  0  0  0  0  0
   40.8787   15.6616    7.3047 O   0  0  0  0  0  0  0  0  0  0  0  0
   38.8528   13.4855    6.9014 C   0  0  0  0  0  0  0  0  0  0  0  0
   37.5853   14.1586    7.4114 C   0  0  0  0  0  0  0  0  0  0  0  0
   37.9304   15.4688    8.6126 S   0  0  0  0  0  0  0  0  0  0  0  0
   36.1593   15.8230    8.7396 C   0  0  0  0  0  0  0  0  0  0  0  0
   35.8752   17.2644    9.1459 C   0  0  1  0  0  0  0  0  0  0  0  0
   36.6621   18.1494    8.3697 O   0  0  0  0  0  0  0  0  0  0  0  0
   34.4155   17.6286    8.9287 C   0  0  1  0  0  0  0  0  0  0  0  0
   33.8068   17.9311   10.1617 O   0  0  0  0  0  0  0  0  0  0  0  0
   34.4231   18.8542    8.0389 C   0  0  1  0  0  0  0  0  0  0  0  0
   33.7621   19.9209    8.6789 O   0  0  0  0  0  0  0  0  0  0  0  0
   35.8865   19.1997    7.8232 C   0  0  2  0  0  0  0  0  0  0  0  0
   39.6254   16.6759    5.9426 O   0  0  0  0  0  0  0  0  0  0  0  0
   37.1324   16.7135    3.3697 N   0  0  0  0  0  0  0  0  0  0  0  0
   36.9451   16.1691    4.6244 C   0  0  0  0  0  0  0  0  0  0  0  0
   36.6177   16.9809    5.6924 N   0  0  0  0  0  0  0  0  0  0  0  0
   36.4792   18.3178    5.5182 C   0  0  0  0  0  0  0  0  0  0  0  0
   36.6640   18.8841    4.2642 C   0  0  0  0  0  0  0  0  0  0  0  0
   36.9928   18.0740    3.1839 C   0  0  0  0  0  0  0  0  0  0  0  0
   37.1731   18.6055    1.9785 N   0  0  0  0  0  0  0  0  0  0  0  0
   36.4665   20.2154    4.3760 N   0  0  0  0  0  0  0  0  0  0  0  0
   36.1633   20.5040    5.6625 C   0  0  0  0  0  0  0  0  0  0  0  0
   36.1673   19.3373    6.3828 N   0  0  0  0  0  0  0  0  0  0  0  0
  2  1  1  1  0  0  0
  2  3  1  0  0  0  0
  2  5  1  0  0  0  0
  3  4  1  0  0  0  0
  3 16  1  0  0  0  0
  5  6  1  0  0  0  0
  6  7  1  0  0  0  0
  7  8  1  0  0  0  0
  9  8  1  6  0  0  0
  9 10  1  0  0  0  0
  9 11  1  0  0  0  0
 10 15  1  0  0  0  0
 11 12  1  1  0  0  0
 11 13  1  0  0  0  0
 13 14  1  1  0  0  0
 13 15  1  0  0  0  0
 15 26  1  6  0  0  0
 17 18  2  0  0  0  0
 17 22  1  0  0  0  0
 18 19  1  0  0  0  0
 19 20  2  0  0  0  0
 20 21  1  0  0  0  0
 20 26  1  0  0  0  0
 21 22  2  0  0  0  0
 21 24  1  0  0  0  0
 22 23  1  0  0  0  0
 24 25  2  0  0  0  0
 25 26  1  0  0  0  0
M  END
>  <CHROM.1>
-59.10635166,-174.41621047,-79.31557428,178.60249411,-153.40819814,46.98133401
33.32397314,37.08722767,17.11042770,6.66095390,0.07287106,-0.77892706,2.06270336

>  <Name>
ligand

>  <RI>
0

>  <Rbt.Current_Directory>
/home/itssahil/PROJECTS/Mol_Feturizer/New_Systems/rnas/3NPQ

>  <Rbt.Executable>
rbdock ($Id: //depot/dev/client3/rdock/2013.1/src/exe/rbdock.cxx#4 $)

>  <Rbt.Library>
libRbt.so (2013.1, Build901 2013/11/27)

>  <Rbt.Parameter_File>
/export/apps/rDock/src/rDock_2013.1_src/data/scripts/dock_solv.prm

>  <Rbt.Receptor>
prm/pocket_docking_6.prm

>  <SCORE>
-22.1053

>  <SCORE.INTER>
-17.5883

>  <SCORE.INTER.CONST>
1

>  <SCORE.INTER.POLAR>
0

>  <SCORE.INTER.ROT>
7

>  <SCORE.INTER.SOLV>
14.7289

>  <SCORE.INTER.VDW>
-24.9018

>  <SCORE.INTER.norm>
-0.676473

>  <SCORE.INTRA>
-4.51703

>  <SCORE.INTRA.DIHEDRAL>
-1.32238

>  <SCORE.INTRA.DIHEDRAL.0>
6.97628

>  <SCORE.INTRA.POLAR>
0

>  <SCORE.INTRA.POLAR.0>
0

>  <SCORE.INTRA.REPUL>
0

>  <SCORE.INTRA.REPUL.0>
0

>  <SCORE.INTRA.SOLV>
-0.617271

>  <SCORE.INTRA.SOLV.lig_0>
-49.8243

>  <SCORE.INTRA.VDW>
-3.54721

>  <SCORE.INTRA.VDW.0>
-1.35881

>  <SCORE.INTRA.norm>
-0.173732

>  <SCORE.RESTR>
0

>  <SCORE.RESTR.CAVITY>
0

>  <SCORE.RESTR.norm>
0

>  <SCORE.SYSTEM>
0

>  <SCORE.SYSTEM.CONST>
0

>  <SCORE.SYSTEM.DIHEDRAL>
0

>  <SCORE.SYSTEM.SOLV>
0

>  <SCORE.SYSTEM.norm>
0

>  <SCORE.heavy>
26

>  <SCORE.norm>
-0.850205

>  <RMSD>
7.208

$$$$
ligand
 OpenBabel11021811483D
libRbt.so/2013.1/901 2013/11/27
 26 28  0  0  0  0  0  0  0  0999 V2000
   40.7123   13.4850    5.3202 N   0  0  0  0  0  0  0  0  0  0  0  0
   39.6236   14.2589    5.9036 C   0  0  2  0  0  0  0  0  0  0  0  0
   40.1434   15.5416    6.5426 C   0  0  0  0  0  0  0  0  0  0  0  0
   41.0639   15.5148    7.3586 O   0  0  0  0  0  0  0  0  0  0  0  0
   38.8719   13.4283    6.9362 C   0  0  0  0  0  0  0  0  0  0  0  0
   37.6057   14.0895    7.4647 C   0  0  0  0  0  0  0  0  0  0  0  0
   37.9580   15.4665    8.5863 S   0  0  0  0  0  0  0  0  0  0  0  0
   36.1868   15.8199    8.7137 C   0  0  0  0  0  0  0  0  0  0  0  0
   35.9022   17.2592    9.1269 C   0  0  1  0  0  0  0  0  0  0  0  0
   36.6864   18.1483    8.3526 O   0  0  0  0  0  0  0  0  0  0  0  0
   34.4417   17.6229    8.9147 C   0  0  1  0  0  0  0  0  0  0  0  0
   33.8356   17.9195   10.1504 O   0  0  0  0  0  0  0  0  0  0  0  0
   34.4459   18.8523    8.0301 C   0  0  1  0  0  0  0  0  0  0  0  0
   33.7854   19.9156    8.6763 O   0  0  0  0  0  0  0  0  0  0  0  0
   35.9085   19.2002    7.8125 C   0  0  2  0  0  0  0  0  0  0  0  0
   39.6549   16.6355    6.2571 O   0  0  0  0  0  0  0  0  0  0  0  0
   37.0961   16.7283    3.3351 N   0  0  0  0  0  0  0  0  0  0  0  0
   36.9050   16.1775    4.5864 C   0  0  0  0  0  0  0  0  0  0  0  0
   36.5951   16.9862    5.6619 N   0  0  0  0  0  0  0  0  0  0  0  0
   36.4776   18.3265    5.4984 C   0  0  0  0  0  0  0  0  0  0  0  0
   36.6666   18.8993    4.2480 C   0  0  0  0  0  0  0  0  0  0  0  0
   36.9778   18.0923    3.1603 C   0  0  0  0  0  0  0  0  0  0  0  0
   37.1620   18.6300    1.9582 N   0  0  0  0  0  0  0  0  0  0  0  0
   36.4912   20.2328    4.3707 N   0  0  0  0  0  0  0  0  0  0  0  0
   36.1978   20.5163    5.6606 C   0  0  0  0  0  0  0  0  0  0  0  0
   36.1857   19.3443    6.3720 N   0  0  0  0  0  0  0  0  0  0  0  0
  2  1  1  1  0  0  0
  2  3  1  0  0  0  0
  2  5  1  0  0  0  0
  3  4  1  0  0  0  0
  3 16  1  0  0  0  0
  5  6  1  0  0  0  0
  6  7  1  0  0  0  0
  7  8  1  0  0  0  0
  9  8  1  6  0  0  0
  9 10  1  0  0  0  0
  9 11  1  0  0  0  0
 10 15  1  0  0  0  0
 11 12  1  1  0  0  0
 11 13  1  0  0  0  0
 13 14  1  1  0  0  0
 13 15  1  0  0  0  0
 15 26  1  6  0  0  0
 17 18  2  0  0  0  0
 17 22  1  0  0  0  0
 18 19  1  0  0  0  0
 19 20  2  0  0  0  0
 20 21  1  0  0  0  0
 20 26  1  0  0  0  0
 21 22  2  0  0  0  0
 21 24  1  0  0  0  0
 22 23  1  0  0  0  0
 24 25  2  0  0  0  0
 25 26  1  0  0  0  0
M  END
>  <CHROM.1>
-52.21001547,-172.31572402,-72.92588840,176.37497563,-156.98884527,47.17327104
34.33367551,37.11034434,17.09718046,6.67479294,-0.12560961,0.77472105,-1.09215697

>  <Name>
ligand

>  <RI>
0

>  <Rbt.Current_Directory>
/home/itssahil/PROJECTS/Mol_Feturizer/New_Systems/rnas/3NPQ

>  <Rbt.Executable>
rbdock ($Id: //depot/dev/client3/rdock/2013.1/src/exe/rbdock.cxx#4 $)

>  <Rbt.Library>
libRbt.so (2013.1, Build901 2013/11/27)

>  <Rbt.Parameter_File>
/export/apps/rDock/src/rDock_2013.1_src/data/scripts/dock_solv.prm

>  <Rbt.Receptor>
prm/pocket_docking_7.prm

>  <SCORE>
-22.3764

>  <SCORE.INTER>
-17.7997

>  <SCORE.INTER.CONST>
1

>  <SCORE.INTER.POLAR>
0

>  <SCORE.INTER.ROT>
7

>  <SCORE.INTER.SOLV>
14.8146

>  <SCORE.INTER.VDW>
-25.0714

>  <SCORE.INTER.norm>
-0.684605

>  <SCORE.INTRA>
-4.57668

>  <SCORE.INTRA.DIHEDRAL>
-2.11747

>  <SCORE.INTRA.DIHEDRAL.0>
6.97628

>  <SCORE.INTRA.POLAR>
0

>  <SCORE.INTRA.POLAR.0>
0

>  <SCORE.INTRA.REPUL>
0

>  <SCORE.INTRA.REPUL.0>
0

>  <SCORE.INTRA.SOLV>
-0.604395

>  <SCORE.INTRA.SOLV.lig_0>
-49.8243

>  <SCORE.INTRA.VDW>
-3.21575

>  <SCORE.INTRA.VDW.0>
-1.35881

>  <SCORE.INTRA.norm>
-0.176026

>  <SCORE.RESTR>
0

>  <SCORE.RESTR.CAVITY>
0

>  <SCORE.RESTR.norm>
0

>  <SCORE.SYSTEM>
0

>  <SCORE.SYSTEM.CONST>
0

>  <SCORE.SYSTEM.DIHEDRAL>
0

>  <SCORE.SYSTEM.SOLV>
0

>  <SCORE.SYSTEM.norm>
0

>  <SCORE.heavy>
26

>  <SCORE.norm>
-0.860631

>  <RMSD>
7.218

$$$$
ligand
 OpenBabel11021811483D
libRbt.so/2013.1/901 2013/11/27
 26 28  0  0  0  0  0  0  0  0999 V2000
   47.0818   15.3257    8.2929 N   0  0  0  0  0  0  0  0  0  0  0  0
   46.5617   16.1957    7.2454 C   0  0  2  0  0  0  0  0  0  0  0  0
   45.8026   17.3766    7.8398 C   0  0  0  0  0  0  0  0  0  0  0  0
   45.8892   18.4994    7.3442 O   0  0  0  0  0  0  0  0  0  0  0  0
   45.6559   15.4135    6.3027 C   0  0  0  0  0  0  0  0  0  0  0  0
   45.2297   16.1887    5.0629 C   0  0  0  0  0  0  0  0  0  0  0  0
   44.0160   15.2891    4.0649 S   0  0  0  0  0  0  0  0  0  0  0  0
   45.3532   14.3722    3.2592 C   0  0  0  0  0  0  0  0  0  0  0  0
   44.8533   13.1500    2.4980 C   0  0  1  0  0  0  0  0  0  0  0  0
   44.2058   12.2584    3.3872 O   0  0  0  0  0  0  0  0  0  0  0  0
   43.8558   13.5344    1.4175 C   0  0  1  0  0  0  0  0  0  0  0  0
   44.3705   13.2058    0.1489 O   0  0  0  0  0  0  0  0  0  0  0  0
   42.6086   12.7221    1.6980 C   0  0  1  0  0  0  0  0  0  0  0  0
   42.2911   11.9222    0.5828 O   0  0  0  0  0  0  0  0  0  0  0  0
   42.9461   11.8451    2.8915 C   0  0  2  0  0  0  0  0  0  0  0  0
   45.0840   17.2349    8.8299 O   0  0  0  0  0  0  0  0  0  0  0  0
   39.0287    9.5361    5.5164 N   0  0  0  0  0  0  0  0  0  0  0  0
   39.8142    9.0005    4.5156 C   0  0  0  0  0  0  0  0  0  0  0  0
   40.8090    9.7595    3.9315 N   0  0  0  0  0  0  0  0  0  0  0  0
   41.0211   11.0361    4.3345 C   0  0  0  0  0  0  0  0  0  0  0  0
   40.2412   11.5926    5.3391 C   0  0  0  0  0  0  0  0  0  0  0  0
   39.2387   10.8351    5.9327 C   0  0  0  0  0  0  0  0  0  0  0  0
   38.4849   11.3581    6.8953 N   0  0  0  0  0  0  0  0  0  0  0  0
   40.6632   12.8598    5.5393 N   0  0  0  0  0  0  0  0  0  0  0  0
   41.6849   13.1175    4.6908 C   0  0  0  0  0  0  0  0  0  0  0  0
   41.9183   11.9960    3.9373 N   0  0  0  0  0  0  0  0  0  0  0  0
  2  1  1  1  0  0  0
  2  3  1  0  0  0  0
  2  5  1  0  0  0  0
  3  4  1  0  0  0  0
  3 16  1  0  0  0  0
  5  6  1  0  0  0  0
  6  7  1  0  0  0  0
  7  8  1  0  0  0  0
  9  8  1  1  0  0  0
  9 10  1  0  0  0  0
  9 11  1  0  0  0  0
 10 15  1  0  0  0  0
 11 12  1  6  0  0  0
 11 13  1  0  0  0  0
 13 14  1  6  0  0  0
 13 15  1  0  0  0  0
 15 26  1  1  0  0  0
 17 18  2  0  0  0  0
 17 22  1  0  0  0  0
 18 19  1  0  0  0  0
 19 20  2  0  0  0  0
 20 21  1  0  0  0  0
 20 26  1  0  0  0  0
 21 22  2  0  0  0  0
 21 24  1  0  0  0  0
 22 23  1  0  0  0  0
 24 25  2  0  0  0  0
 25 26  1  0  0  0  0
M  END
>  <CHROM.1>
141.24752973,-171.50006650,-173.80923254,-83.60722239,165.44083736,-60.26512337
-129.50890719,43.15094306,13.45851477,4.62298718,0.59560188,0.70161633,1.21304054

>  <Name>
ligand

>  <RI>
0

>  <Rbt.Current_Directory>
/home/itssahil/PROJECTS/Mol_Feturizer/New_Systems/rnas/3NPQ

>  <Rbt.Executable>
rbdock ($Id: //depot/dev/client3/rdock/2013.1/src/exe/rbdock.cxx#4 $)

>  <Rbt.Library>
libRbt.so (2013.1, Build901 2013/11/27)

>  <Rbt.Parameter_File>
/export/apps/rDock/src/rDock_2013.1_src/data/scripts/dock_solv.prm

>  <Rbt.Receptor>
prm/pocket_docking_8.prm

>  <SCORE>
-12.3644

>  <SCORE.INTER>
-9.3623

>  <SCORE.INTER.CONST>
1

>  <SCORE.INTER.POLAR>
0

>  <SCORE.INTER.ROT>
7

>  <SCORE.INTER.SOLV>
19.5427

>  <SCORE.INTER.VDW>
-21.0224

>  <SCORE.INTER.norm>
-0.360088

>  <SCORE.INTRA>
-3.00213

>  <SCORE.INTRA.DIHEDRAL>
-2.75537

>  <SCORE.INTRA.DIHEDRAL.0>
6.97628

>  <SCORE.INTRA.POLAR>
0

>  <SCORE.INTRA.POLAR.0>
0

>  <SCORE.INTRA.REPUL>
0

>  <SCORE.INTRA.REPUL.0>
0

>  <SCORE.INTRA.SOLV>
-0.665305

>  <SCORE.INTRA.SOLV.lig_0>
-49.8243

>  <SCORE.INTRA.VDW>
-1.2918

>  <SCORE.INTRA.VDW.0>
-1.35881

>  <SCORE.INTRA.norm>
-0.115467

>  <SCORE.RESTR>
0

>  <SCORE.RESTR.CAVITY>
0

>  <SCORE.RESTR.norm>
0

>  <SCORE.SYSTEM>
0

>  <SCORE.SYSTEM.CONST>
0

>  <SCORE.SYSTEM.DIHEDRAL>
0

>  <SCORE.SYSTEM.SOLV>
0

>  <SCORE.SYSTEM.norm>
0

>  <SCORE.heavy>
26

>  <SCORE.norm>
-0.475555

>  <RMSD>
7.341

$$$$
ligand
 OpenBabel11021811483D
libRbt.so/2013.1/901 2013/11/27
 26 28  0  0  0  0  0  0  0  0999 V2000
   40.5618   13.5756    5.6209 N   0  0  0  0  0  0  0  0  0  0  0  0
   39.5278   13.2526    6.5961 C   0  0  2  0  0  0  0  0  0  0  0  0
   39.0648   11.8078    6.4465 C   0  0  0  0  0  0  0  0  0  0  0  0
   38.3032   11.2986    7.2678 O   0  0  0  0  0  0  0  0  0  0  0  0
   38.3426   14.1987    6.4506 C   0  0  0  0  0  0  0  0  0  0  0  0
   37.5080   14.3502    7.7156 C   0  0  0  0  0  0  0  0  0  0  0  0
   36.0690   15.4221    7.4737 S   0  0  0  0  0  0  0  0  0  0  0  0
   36.0519   15.8038    9.2434 C   0  0  0  0  0  0  0  0  0  0  0  0
   35.7742   17.2759    9.5252 C   0  0  1  0  0  0  0  0  0  0  0  0
   36.6477   18.0873    8.7612 O   0  0  0  0  0  0  0  0  0  0  0  0
   34.3486   17.6554    9.1593 C   0  0  1  0  0  0  0  0  0  0  0  0
   33.6468   18.0564   10.3121 O   0  0  0  0  0  0  0  0  0  0  0  0
   34.4646   18.8154    8.1925 C   0  0  1  0  0  0  0  0  0  0  0  0
   33.7817   19.9382    8.6996 O   0  0  0  0  0  0  0  0  0  0  0  0
   35.9499   19.1133    8.0803 C   0  0  2  0  0  0  0  0  0  0  0  0
   39.4415   11.1159    5.4998 O   0  0  0  0  0  0  0  0  0  0  0  0
   39.3773   17.4024    4.4896 N   0  0  0  0  0  0  0  0  0  0  0  0
   39.3438   17.1141    5.8392 C   0  0  0  0  0  0  0  0  0  0  0  0
   38.3603   17.6576    6.6418 N   0  0  0  0  0  0  0  0  0  0  0  0
   37.4215   18.4792    6.1119 C   0  0  0  0  0  0  0  0  0  0  0  0
   37.4389   18.7815    4.7571 C   0  0  0  0  0  0  0  0  0  0  0  0
   38.4248   18.2379    3.9423 C   0  0  0  0  0  0  0  0  0  0  0  0
   38.4518   18.5212    2.6434 N   0  0  0  0  0  0  0  0  0  0  0  0
   36.4033   19.6102    4.5027 N   0  0  0  0  0  0  0  0  0  0  0  0
   35.7350   19.8386    5.6566 C   0  0  0  0  0  0  0  0  0  0  0  0
   36.3546   19.1439    6.6633 N   0  0  0  0  0  0  0  0  0  0  0  0
  2  1  1  6  0  0  0
  2  3  1  0  0  0  0
  2  5  1  0  0  0  0
  3  4  1  0  0  0  0
  3 16  1  0  0  0  0
  5  6  1  0  0  0  0
  6  7  1  0  0  0  0
  7  8  1  0  0  0  0
  9  8  1  6  0  0  0
  9 10  1  0  0  0  0
  9 11  1  0  0  0  0
 10 15  1  0  0  0  0
 11 12  1  1  0  0  0
 11 13  1  0  0  0  0
 13 14  1  1  0  0  0
 13 15  1  0  0  0  0
 15 26  1  6  0  0  0
 17 18  2  0  0  0  0
 17 22  1  0  0  0  0
 18 19  1  0  0  0  0
 19 20  2  0  0  0  0
 20 21  1  0  0  0  0
 20 26  1  0  0  0  0
 21 22  2  0  0  0  0
 21 24  1  0  0  0  0
 22 23  1  0  0  0  0
 24 25  2  0  0  0  0
 25 26  1  0  0  0  0
M  END
>  <CHROM.1>
172.03844520,-155.72060433,-177.33968240,-155.04064533,138.52407734,-51.12845662
-11.89352025,37.10146255,16.59639693,6.87125591,-0.65128503,0.84234314,-0.49583458

>  <Name>
ligand

>  <RI>
0

>  <Rbt.Current_Directory>
/home/itssahil/PROJECTS/Mol_Feturizer/New_Systems/rnas/3NPQ

>  <Rbt.Executable>
rbdock ($Id: //depot/dev/client3/rdock/2013.1/src/exe/rbdock.cxx#4 $)

>  <Rbt.Library>
libRbt.so (2013.1, Build901 2013/11/27)

>  <Rbt.Parameter_File>
/export/apps/rDock/src/rDock_2013.1_src/data/scripts/dock_solv.prm

>  <Rbt.Receptor>
prm/pocket_docking_5.prm

>  <SCORE>
-23.4674

>  <SCORE.INTER>
-21.1195

>  <SCORE.INTER.CONST>
1

>  <SCORE.INTER.POLAR>
0

>  <SCORE.INTER.ROT>
7

>  <SCORE.INTER.SOLV>
12.191

>  <SCORE.INTER.VDW>
-26.41

>  <SCORE.INTER.norm>
-0.812287

>  <SCORE.INTRA>
-2.34792

>  <SCORE.INTRA.DIHEDRAL>
0.79128

>  <SCORE.INTRA.DIHEDRAL.0>
6.97628

>  <SCORE.INTRA.POLAR>
0

>  <SCORE.INTRA.POLAR.0>
0

>  <SCORE.INTRA.REPUL>
0

>  <SCORE.INTRA.REPUL.0>
0

>  <SCORE.INTRA.SOLV>
-0.347097

>  <SCORE.INTRA.SOLV.lig_0>
-49.8243

>  <SCORE.INTRA.VDW>
-2.57001

>  <SCORE.INTRA.VDW.0>
-1.35881

>  <SCORE.INTRA.norm>
-0.0903046

>  <SCORE.RESTR>
0

>  <SCORE.RESTR.CAVITY>
0

>  <SCORE.RESTR.norm>
0

>  <SCORE.SYSTEM>
0

>  <SCORE.SYSTEM.CONST>
0

>  <SCORE.SYSTEM.DIHEDRAL>
0

>  <SCORE.SYSTEM.SOLV>
0

>  <SCORE.SYSTEM.norm>
0

>  <SCORE.heavy>
26

>  <SCORE.norm>
-0.902592

>  <RMSD>
7.386

$$$$
ligand
 OpenBabel11021811483D
libRbt.so/2013.1/901 2013/11/27
 26 28  0  0  0  0  0  0  0  0999 V2000
   40.5624   13.5710    5.6498 N   0  0  0  0  0  0  0  0  0  0  0  0
   39.5225   13.2292    6.6123 C   0  0  2  0  0  0  0  0  0  0  0  0
   39.0770   11.7807    6.4474 C   0  0  0  0  0  0  0  0  0  0  0  0
   38.3576   11.2399    7.2864 O   0  0  0  0  0  0  0  0  0  0  0  0
   38.3284   14.1634    6.4622 C   0  0  0  0  0  0  0  0  0  0  0  0
   37.5183   14.3482    7.7386 C   0  0  0  0  0  0  0  0  0  0  0  0
   36.0806   15.4224    7.4989 S   0  0  0  0  0  0  0  0  0  0  0  0
   36.0818   15.8233    9.2646 C   0  0  0  0  0  0  0  0  0  0  0  0
   35.7639   17.2892    9.5353 C   0  0  1  0  0  0  0  0  0  0  0  0
   36.6343   18.1186    8.7873 O   0  0  0  0  0  0  0  0  0  0  0  0
   34.3379   17.6342    9.1378 C   0  0  1  0  0  0  0  0  0  0  0  0
   33.6025   18.0220   10.2740 O   0  0  0  0  0  0  0  0  0  0  0  0
   34.4475   18.7938    8.1697 C   0  0  1  0  0  0  0  0  0  0  0  0
   33.7279   19.9018    8.6583 O   0  0  0  0  0  0  0  0  0  0  0  0
   35.9275   19.1261    8.0882 C   0  0  2  0  0  0  0  0  0  0  0  0
   39.4260   11.1172    5.4703 O   0  0  0  0  0  0  0  0  0  0  0  0
   39.3636   17.3434    4.5409 N   0  0  0  0  0  0  0  0  0  0  0  0
   39.2924   17.0376    5.8851 C   0  0  0  0  0  0  0  0  0  0  0  0
   38.3129   17.6048    6.6761 N   0  0  0  0  0  0  0  0  0  0  0  0
   37.4150   18.4670    6.1400 C   0  0  0  0  0  0  0  0  0  0  0  0
   37.4706   18.7875    4.7904 C   0  0  0  0  0  0  0  0  0  0  0  0
   38.4527   18.2203    3.9873 C   0  0  0  0  0  0  0  0  0  0  0  0
   38.5161   18.5207    2.6935 N   0  0  0  0  0  0  0  0  0  0  0  0
   36.4706   19.6565    4.5279 N   0  0  0  0  0  0  0  0  0  0  0  0
   35.7877   19.8926    5.6717 C   0  0  0  0  0  0  0  0  0  0  0  0
   36.3616   19.1620    6.6800 N   0  0  0  0  0  0  0  0  0  0  0  0
  2  1  1  6  0  0  0
  2  3  1  0  0  0  0
  2  5  1  0  0  0  0
  3  4  1  0  0  0  0
  3 16  1  0  0  0  0
  5  6  1  0  0  0  0
  6  7  1  0  0  0  0
  7  8  1  0  0  0  0
  9  8  1  6  0  0  0
  9 10  1  0  0  0  0
  9 11  1  0  0  0  0
 10 15  1  0  0  0  0
 11 12  1  1  0  0  0
 11 13  1  0  0  0  0
 13 14  1  1  0  0  0
 13 15  1  0  0  0  0
 15 26  1  6  0  0  0
 17 18  2  0  0  0  0
 17 22  1  0  0  0  0
 18 19  1  0  0  0  0
 19 20  2  0  0  0  0
 20 21  1  0  0  0  0
 20 26  1  0  0  0  0
 21 22  2  0  0  0  0
 21 24  1  0  0  0  0
 22 23  1  0  0  0  0
 24 25  2  0  0  0  0
 25 26  1  0  0  0  0
M  END
>  <CHROM.1>
169.00621656,-152.94111234,-178.14205329,-155.90365899,140.51798284,-53.41656112
-8.35267505,37.10308813,16.58592225,6.88549894,-0.66101769,0.83679773,-0.48885671

>  <Name>
ligand

>  <RI>
0

>  <Rbt.Current_Directory>
/home/itssahil/PROJECTS/Mol_Feturizer/New_Systems/rnas/3NPQ

>  <Rbt.Executable>
rbdock ($Id: //depot/dev/client3/rdock/2013.1/src/exe/rbdock.cxx#4 $)

>  <Rbt.Library>
libRbt.so (2013.1, Build901 2013/11/27)

>  <Rbt.Parameter_File>
/export/apps/rDock/src/rDock_2013.1_src/data/scripts/dock_solv.prm

>  <Rbt.Receptor>
prm/pocket_docking_6.prm

>  <SCORE>
-23.437

>  <SCORE.INTER>
-21.1272

>  <SCORE.INTER.CONST>
1

>  <SCORE.INTER.POLAR>
0

>  <SCORE.INTER.ROT>
7

>  <SCORE.INTER.SOLV>
12.1433

>  <SCORE.INTER.VDW>
-26.3992

>  <SCORE.INTER.norm>
-0.812583

>  <SCORE.INTRA>
-2.30982

>  <SCORE.INTRA.DIHEDRAL>
0.905286

>  <SCORE.INTRA.DIHEDRAL.0>
6.97628

>  <SCORE.INTRA.POLAR>
0

>  <SCORE.INTRA.POLAR.0>
0

>  <SCORE.INTRA.REPUL>
0

>  <SCORE.INTRA.REPUL.0>
0

>  <SCORE.INTRA.SOLV>
-0.303989

>  <SCORE.INTRA.SOLV.lig_0>
-49.8243

>  <SCORE.INTRA.VDW>
-2.61047

>  <SCORE.INTRA.VDW.0>
-1.35881

>  <SCORE.INTRA.norm>
-0.0888392

>  <SCORE.RESTR>
0

>  <SCORE.RESTR.CAVITY>
0

>  <SCORE.RESTR.norm>
0

>  <SCORE.SYSTEM>
0

>  <SCORE.SYSTEM.CONST>
0

>  <SCORE.SYSTEM.DIHEDRAL>
0

>  <SCORE.SYSTEM.SOLV>
0

>  <SCORE.SYSTEM.norm>
0

>  <SCORE.heavy>
26

>  <SCORE.norm>
-0.901422

>  <RMSD>
7.391

$$$$
ligand
 OpenBabel11021811483D
libRbt.so/2013.1/901 2013/11/27
 26 28  0  0  0  0  0  0  0  0999 V2000
   39.3836   15.3052    6.5050 N   0  0  0  0  0  0  0  0  0  0  0  0
   39.0814   14.1239    7.3037 C   0  0  2  0  0  0  0  0  0  0  0  0
   39.4396   12.8470    6.5519 C   0  0  0  0  0  0  0  0  0  0  0  0
   38.9822   11.7586    6.8983 O   0  0  0  0  0  0  0  0  0  0  0  0
   37.6086   14.1052    7.6930 C   0  0  0  0  0  0  0  0  0  0  0  0
   37.2046   15.2154    8.6543 C   0  0  0  0  0  0  0  0  0  0  0  0
   35.6005   14.9075    9.4356 S   0  0  0  0  0  0  0  0  0  0  0  0
   34.8070   16.0276    8.2550 C   0  0  0  0  0  0  0  0  0  0  0  0
   34.6345   17.4380    8.8066 C   0  0  1  0  0  0  0  0  0  0  0  0
   35.8871   17.9508    9.2225 O   0  0  0  0  0  0  0  0  0  0  0  0
   34.0708   18.3828    7.7579 C   0  0  1  0  0  0  0  0  0  0  0  0
   32.8089   18.8561    8.1655 O   0  0  0  0  0  0  0  0  0  0  0  0
   35.0521   19.5330    7.6673 C   0  0  1  0  0  0  0  0  0  0  0  0
   34.4008   20.7485    7.9548 O   0  0  0  0  0  0  0  0  0  0  0  0
   36.1177   19.2507    8.7124 C   0  0  2  0  0  0  0  0  0  0  0  0
   40.1950   12.8743    5.5795 O   0  0  0  0  0  0  0  0  0  0  0  0
   38.9674   18.5312    4.3616 N   0  0  0  0  0  0  0  0  0  0  0  0
   37.6129   18.3293    4.5347 C   0  0  0  0  0  0  0  0  0  0  0  0
   37.0249   18.5721    5.7603 N   0  0  0  0  0  0  0  0  0  0  0  0
   37.7725   19.0089    6.8030 C   0  0  0  0  0  0  0  0  0  0  0  0
   39.1363   19.2174    6.6489 C   0  0  0  0  0  0  0  0  0  0  0  0
   39.7356   18.9762    5.4185 C   0  0  0  0  0  0  0  0  0  0  0  0
   41.0412   19.1716    5.2595 N   0  0  0  0  0  0  0  0  0  0  0  0
   39.6274   19.6473    7.8313 N   0  0  0  0  0  0  0  0  0  0  0  0
   38.6138   19.7153    8.7247 C   0  0  0  0  0  0  0  0  0  0  0  0
   37.4574   19.3225    8.1017 N   0  0  0  0  0  0  0  0  0  0  0  0
  2  1  1  6  0  0  0
  2  3  1  0  0  0  0
  2  5  1  0  0  0  0
  3  4  1  0  0  0  0
  3 16  1  0  0  0  0
  5  6  1  0  0  0  0
  6  7  1  0  0  0  0
  7  8  1  0  0  0  0
  9  8  1  6  0  0  0
  9 10  1  0  0  0  0
  9 11  1  0  0  0  0
 10 15  1  0  0  0  0
 11 12  1  1  0  0  0
 11 13  1  0  0  0  0
 13 14  1  1  0  0  0
 13 15  1  0  0  0  0
 15 26  1  6  0  0  0
 17 18  2  0  0  0  0
 17 22  1  0  0  0  0
 18 19  1  0  0  0  0
 19 20  2  0  0  0  0
 20 21  1  0  0  0  0
 20 26  1  0  0  0  0
 21 22  2  0  0  0  0
 21 24  1  0  0  0  0
 22 23  1  0  0  0  0
 24 25  2  0  0  0  0
 25 26  1  0  0  0  0
M  END
>  <CHROM.1>
-162.52825174,-67.06865451,-164.45746221,-99.65644507,-96.12566361,55.83254000
87.49444003,37.26224325,17.13359034,7.38271983,-0.87072691,0.51805236,-0.15865159

>  <Name>
ligand

>  <RI>
0

>  <Rbt.Current_Directory>
/home/itssahil/PROJECTS/Mol_Feturizer/New_Systems/rnas/3NPQ

>  <Rbt.Executable>
rbdock ($Id: //depot/dev/client3/rdock/2013.1/src/exe/rbdock.cxx#4 $)

>  <Rbt.Library>
libRbt.so (2013.1, Build901 2013/11/27)

>  <Rbt.Parameter_File>
/export/apps/rDock/src/rDock_2013.1_src/data/scripts/dock_solv.prm

>  <Rbt.Receptor>
prm/pocket_docking_5.prm

>  <SCORE>
-19.9928

>  <SCORE.INTER>
-18.8822

>  <SCORE.INTER.CONST>
1

>  <SCORE.INTER.POLAR>
0

>  <SCORE.INTER.ROT>
7

>  <SCORE.INTER.SOLV>
11.0303

>  <SCORE.INTER.VDW>
-24.5315

>  <SCORE.INTER.norm>
-0.726237

>  <SCORE.INTRA>
-1.11064

>  <SCORE.INTRA.DIHEDRAL>
0.188092

>  <SCORE.INTRA.DIHEDRAL.0>
6.97628

>  <SCORE.INTRA.POLAR>
0

>  <SCORE.INTRA.POLAR.0>
0

>  <SCORE.INTRA.REPUL>
0

>  <SCORE.INTRA.REPUL.0>
0

>  <SCORE.INTRA.SOLV>
0.0520761

>  <SCORE.INTRA.SOLV.lig_0>
-49.8243

>  <SCORE.INTRA.VDW>
-1.23072

>  <SCORE.INTRA.VDW.0>
-1.35881

>  <SCORE.INTRA.norm>
-0.0427169

>  <SCORE.RESTR>
0

>  <SCORE.RESTR.CAVITY>
0

>  <SCORE.RESTR.norm>
0

>  <SCORE.SYSTEM>
0

>  <SCORE.SYSTEM.CONST>
0

>  <SCORE.SYSTEM.DIHEDRAL>
0

>  <SCORE.SYSTEM.SOLV>
0

>  <SCORE.SYSTEM.norm>
0

>  <SCORE.heavy>
26

>  <SCORE.norm>
-0.768954

>  <RMSD>
7.397

$$$$
ligand
 OpenBabel11021811483D
libRbt.so/2013.1/901 2013/11/27
 26 28  0  0  0  0  0  0  0  0999 V2000
   45.2496   16.8358    5.6669 N   0  0  0  0  0  0  0  0  0  0  0  0
   44.2033   15.8223    5.6140 C   0  0  2  0  0  0  0  0  0  0  0  0
   43.5056   15.6833    6.9623 C   0  0  0  0  0  0  0  0  0  0  0  0
   44.1185   15.8621    8.0140 O   0  0  0  0  0  0  0  0  0  0  0  0
   44.7817   14.4800    5.1842 C   0  0  0  0  0  0  0  0  0  0  0  0
   45.4657   14.5038    3.8236 C   0  0  0  0  0  0  0  0  0  0  0  0
   46.3056   12.9459    3.4415 S   0  0  0  0  0  0  0  0  0  0  0  0
   45.2895   12.7591    1.9547 C   0  0  0  0  0  0  0  0  0  0  0  0
   44.4970   11.4571    1.9434 C   0  0  1  0  0  0  0  0  0  0  0  0
   43.8693   11.2625    3.1976 O   0  0  0  0  0  0  0  0  0  0  0  0
   43.4123   11.4727    0.8786 C   0  0  1  0  0  0  0  0  0  0  0  0
   43.6660   10.4740   -0.0809 O   0  0  0  0  0  0  0  0  0  0  0  0
   42.1160   11.1778    1.6045 C   0  0  1  0  0  0  0  0  0  0  0  0
   41.5102   10.0264    1.0645 O   0  0  0  0  0  0  0  0  0  0  0  0
   42.4996   10.9360    3.0543 C   0  0  2  0  0  0  0  0  0  0  0  0
   42.3116   15.3892    7.0311 O   0  0  0  0  0  0  0  0  0  0  0  0
   38.5284   11.0958    6.4852 N   0  0  0  0  0  0  0  0  0  0  0  0
   39.0265    9.9992    5.8106 C   0  0  0  0  0  0  0  0  0  0  0  0
   40.0865   10.1429    4.9374 N   0  0  0  0  0  0  0  0  0  0  0  0
   40.6452   11.3610    4.7344 C   0  0  0  0  0  0  0  0  0  0  0  0
   40.1580   12.4757    5.4030 C   0  0  0  0  0  0  0  0  0  0  0  0
   39.0921   12.3395    6.2842 C   0  0  0  0  0  0  0  0  0  0  0  0
   38.6165   13.4005    6.9295 N   0  0  0  0  0  0  0  0  0  0  0  0
   40.8899   13.5438    5.0189 N   0  0  0  0  0  0  0  0  0  0  0  0
   41.8227   13.1347    4.1285 C   0  0  0  0  0  0  0  0  0  0  0  0
   41.6834   11.7835    3.9421 N   0  0  0  0  0  0  0  0  0  0  0  0
  2  1  1  1  0  0  0
  2  3  1  0  0  0  0
  2  5  1  0  0  0  0
  3  4  1  0  0  0  0
  3 16  1  0  0  0  0
  5  6  1  0  0  0  0
  6  7  1  0  0  0  0
  7  8  1  0  0  0  0
  9  8  1  1  0  0  0
  9 10  1  0  0  0  0
  9 11  1  0  0  0  0
 10 15  1  0  0  0  0
 11 12  1  6  0  0  0
 11 13  1  0  0  0  0
 13 14  1  6  0  0  0
 13 15  1  0  0  0  0
 15 26  1  1  0  0  0
 17 18  2  0  0  0  0
 17 22  1  0  0  0  0
 18 19  1  0  0  0  0
 19 20  2  0  0  0  0
 20 21  1  0  0  0  0
 20 26  1  0  0  0  0
 21 22  2  0  0  0  0
 21 24  1  0  0  0  0
 22 23  1  0  0  0  0
 24 25  2  0  0  0  0
 25 26  1  0  0  0  0
M  END
>  <CHROM.1>
-32.46635812,-58.70906764,173.21240154,121.26351428,-122.42406118,46.55923342
-135.65246344,42.68375169,12.72893515,4.27447364,0.61782599,0.46436222,0.85442998

>  <Name>
ligand

>  <RI>
0

>  <Rbt.Current_Directory>
/home/itssahil/PROJECTS/Mol_Feturizer/New_Systems/rnas/3NPQ

>  <Rbt.Executable>
rbdock ($Id: //depot/dev/client3/rdock/2013.1/src/exe/rbdock.cxx#4 $)

>  <Rbt.Library>
libRbt.so (2013.1, Build901 2013/11/27)

>  <Rbt.Parameter_File>
/export/apps/rDock/src/rDock_2013.1_src/data/scripts/dock_solv.prm

>  <Rbt.Receptor>
prm/pocket_docking_8.prm

>  <SCORE>
-15.8651

>  <SCORE.INTER>
-14.3156

>  <SCORE.INTER.CONST>
1

>  <SCORE.INTER.POLAR>
0

>  <SCORE.INTER.ROT>
7

>  <SCORE.INTER.SOLV>
13.1294

>  <SCORE.INTER.VDW>
-22.1868

>  <SCORE.INTER.norm>
-0.550598

>  <SCORE.INTRA>
-1.54958

>  <SCORE.INTRA.DIHEDRAL>
1.28408

>  <SCORE.INTRA.DIHEDRAL.0>
6.97628

>  <SCORE.INTRA.POLAR>
0

>  <SCORE.INTRA.POLAR.0>
0

>  <SCORE.INTRA.REPUL>
0

>  <SCORE.INTRA.REPUL.0>
0

>  <SCORE.INTRA.SOLV>
-0.133674

>  <SCORE.INTRA.SOLV.lig_0>
-49.8243

>  <SCORE.INTRA.VDW>
-2.12478

>  <SCORE.INTRA.VDW.0>
-1.35881

>  <SCORE.INTRA.norm>
-0.0595992

>  <SCORE.RESTR>
0

>  <SCORE.RESTR.CAVITY>
0

>  <SCORE.RESTR.norm>
0

>  <SCORE.SYSTEM>
0

>  <SCORE.SYSTEM.CONST>
0

>  <SCORE.SYSTEM.DIHEDRAL>
0

>  <SCORE.SYSTEM.SOLV>
0

>  <SCORE.SYSTEM.norm>
0

>  <SCORE.heavy>
26

>  <SCORE.norm>
-0.610197

>  <RMSD>
7.430

$$$$
ligand
 OpenBabel11021811483D
libRbt.so/2013.1/901 2013/11/27
 26 28  0  0  0  0  0  0  0  0999 V2000
   41.5150   11.0456    2.7674 N   0  0  0  0  0  0  0  0  0  0  0  0
   41.4935   10.2099    3.9615 C   0  0  2  0  0  0  0  0  0  0  0  0
   41.4807    8.7302    3.5953 C   0  0  0  0  0  0  0  0  0  0  0  0
   40.4885    8.2129    3.0836 O   0  0  0  0  0  0  0  0  0  0  0  0
   40.2841   10.5447    4.8255 C   0  0  0  0  0  0  0  0  0  0  0  0
   40.2882   11.9636    5.3791 C   0  0  0  0  0  0  0  0  0  0  0  0
   38.8718   12.2918    6.4582 S   0  0  0  0  0  0  0  0  0  0  0  0
   39.6946   13.7746    7.0925 C   0  0  0  0  0  0  0  0  0  0  0  0
   38.7112   14.8723    7.4818 C   0  0  1  0  0  0  0  0  0  0  0  0
   38.8303   15.9661    6.5905 O   0  0  0  0  0  0  0  0  0  0  0  0
   37.2741   14.3807    7.4245 C   0  0  1  0  0  0  0  0  0  0  0  0
   36.7001   14.4220    8.7095 O   0  0  0  0  0  0  0  0  0  0  0  0
   36.5470   15.3353    6.5003 C   0  0  1  0  0  0  0  0  0  0  0  0
   35.4690   15.9380    7.1778 O   0  0  0  0  0  0  0  0  0  0  0  0
   37.5694   16.3867    6.1042 C   0  0  2  0  0  0  0  0  0  0  0  0
   42.4633    8.0171    3.8023 O   0  0  0  0  0  0  0  0  0  0  0  0
   40.3510   15.5370    1.7329 N   0  0  0  0  0  0  0  0  0  0  0  0
   40.6985   15.2362    3.0346 C   0  0  0  0  0  0  0  0  0  0  0  0
   39.8355   15.5333    4.0708 N   0  0  0  0  0  0  0  0  0  0  0  0
   38.6418   16.1236    3.8188 C   0  0  0  0  0  0  0  0  0  0  0  0
   38.2746   16.4344    2.5166 C   0  0  0  0  0  0  0  0  0  0  0  0
   39.1371   16.1379    1.4680 C   0  0  0  0  0  0  0  0  0  0  0  0
   38.7963   16.4320    0.2168 N   0  0  0  0  0  0  0  0  0  0  0  0
   37.0520   17.0071    2.5547 N   0  0  0  0  0  0  0  0  0  0  0  0
   36.6390   17.0661    3.8416 C   0  0  0  0  0  0  0  0  0  0  0  0
   37.6142   16.5220    4.6371 N   0  0  0  0  0  0  0  0  0  0  0  0
  2  1  1  6  0  0  0
  2  3  1  0  0  0  0
  2  5  1  0  0  0  0
  3  4  1  0  0  0  0
  3 16  1  0  0  0  0
  5  6  1  0  0  0  0
  6  7  1  0  0  0  0
  7  8  1  0  0  0  0
  9  8  1  6  0  0  0
  9 10  1  0  0  0  0
  9 11  1  0  0  0  0
 10 15  1  0  0  0  0
 11 12  1  1  0  0  0
 11 13  1  0  0  0  0
 13 14  1  1  0  0  0
 13 15  1  0  0  0  0
 15 26  1  6  0  0  0
 17 18  2  0  0  0  0
 17 22  1  0  0  0  0
 18 19  1  0  0  0  0
 19 20  2  0  0  0  0
 20 21  1  0  0  0  0
 20 26  1  0  0  0  0
 21 22  2  0  0  0  0
 21 24  1  0  0  0  0
 22 23  1  0  0  0  0
 24 25  2  0  0  0  0
 25 26  1  0  0  0  0
M  END
>  <CHROM.1>
-70.04997351,-63.63987668,-177.43967190,164.70454486,148.52621703,-111.55732656
8.84526740,39.01966861,13.84896150,4.72249243,-0.44373170,0.99790399,-0.87301720

>  <Name>
ligand

>  <RI>
0

>  <Rbt.Current_Directory>
/home/itssahil/PROJECTS/Mol_Feturizer/New_Systems/rnas/3NPQ

>  <Rbt.Executable>
rbdock ($Id: //depot/dev/client3/rdock/2013.1/src/exe/rbdock.cxx#4 $)

>  <Rbt.Library>
libRbt.so (2013.1, Build901 2013/11/27)

>  <Rbt.Parameter_File>
/export/apps/rDock/src/rDock_2013.1_src/data/scripts/dock_solv.prm

>  <Rbt.Receptor>
prm/pocket_docking_5.prm

>  <SCORE>
-19.8462

>  <SCORE.INTER>
-21.4895

>  <SCORE.INTER.CONST>
1

>  <SCORE.INTER.POLAR>
0

>  <SCORE.INTER.ROT>
7

>  <SCORE.INTER.SOLV>
16.3928

>  <SCORE.INTER.VDW>
-28.0573

>  <SCORE.INTER.norm>
-0.82652

>  <SCORE.INTRA>
1.64338

>  <SCORE.INTRA.DIHEDRAL>
2.45369

>  <SCORE.INTRA.DIHEDRAL.0>
6.97628

>  <SCORE.INTRA.POLAR>
0

>  <SCORE.INTRA.POLAR.0>
0

>  <SCORE.INTRA.REPUL>
0

>  <SCORE.INTRA.REPUL.0>
0

>  <SCORE.INTRA.SOLV>
0.0240384

>  <SCORE.INTRA.SOLV.lig_0>
-49.8243

>  <SCORE.INTRA.VDW>
0.404514

>  <SCORE.INTRA.VDW.0>
-1.35881

>  <SCORE.INTRA.norm>
0.0632068

>  <SCORE.RESTR>
0

>  <SCORE.RESTR.CAVITY>
0

>  <SCORE.RESTR.norm>
0

>  <SCORE.SYSTEM>
0

>  <SCORE.SYSTEM.CONST>
0

>  <SCORE.SYSTEM.DIHEDRAL>
0

>  <SCORE.SYSTEM.SOLV>
0

>  <SCORE.SYSTEM.norm>
0

>  <SCORE.heavy>
26

>  <SCORE.norm>
-0.763313

>  <RMSD>
7.484

$$$$
ligand
 OpenBabel11021811483D
libRbt.so/2013.1/901 2013/11/27
 26 28  0  0  0  0  0  0  0  0999 V2000
   42.2743   16.0051    3.2883 N   0  0  0  0  0  0  0  0  0  0  0  0
   41.9633   15.9377    1.8659 C   0  0  2  0  0  0  0  0  0  0  0  0
   40.4678   15.7468    1.6398 C   0  0  0  0  0  0  0  0  0  0  0  0
   40.0095   15.6238    0.5046 O   0  0  0  0  0  0  0  0  0  0  0  0
   42.7403   14.8074    1.2027 C   0  0  0  0  0  0  0  0  0  0  0  0
   42.3157   13.4145    1.6490 C   0  0  0  0  0  0  0  0  0  0  0  0
   42.7475   13.0768    3.3747 S   0  0  0  0  0  0  0  0  0  0  0  0
   41.2503   12.0752    3.5566 C   0  0  0  0  0  0  0  0  0  0  0  0
   40.9743   11.6869    5.0045 C   0  0  1  0  0  0  0  0  0  0  0  0
   40.9232   12.8472    5.8146 O   0  0  0  0  0  0  0  0  0  0  0  0
   39.6451   10.9632    5.1452 C   0  0  1  0  0  0  0  0  0  0  0  0
   39.8594    9.6481    5.6000 O   0  0  0  0  0  0  0  0  0  0  0  0
   38.8549   11.7458    6.1734 C   0  0  1  0  0  0  0  0  0  0  0  0
   38.5097   10.9124    7.2553 O   0  0  0  0  0  0  0  0  0  0  0  0
   39.7759   12.8586    6.6434 C   0  0  2  0  0  0  0  0  0  0  0  0
   39.6826   15.7107    2.5879 O   0  0  0  0  0  0  0  0  0  0  0  0
   36.0167   15.9714    8.5788 N   0  0  0  0  0  0  0  0  0  0  0  0
   36.3713   14.7045    8.9968 C   0  0  0  0  0  0  0  0  0  0  0  0
   37.3950   14.0256    8.3661 N   0  0  0  0  0  0  0  0  0  0  0  0
   38.0584   14.5963    7.3311 C   0  0  0  0  0  0  0  0  0  0  0  0
   37.7161   15.8692    6.8958 C   0  0  0  0  0  0  0  0  0  0  0  0
   36.6876   16.5596    7.5258 C   0  0  0  0  0  0  0  0  0  0  0  0
   36.3505   17.7791    7.1167 N   0  0  0  0  0  0  0  0  0  0  0  0
   38.5280   16.1885    5.8648 N   0  0  0  0  0  0  0  0  0  0  0  0
   39.3707   15.1546    5.6382 C   0  0  0  0  0  0  0  0  0  0  0  0
   39.0916   14.1600    6.5397 N   0  0  0  0  0  0  0  0  0  0  0  0
  2  1  1  1  0  0  0
  2  3  1  0  0  0  0
  2  5  1  0  0  0  0
  3  4  1  0  0  0  0
  3 16  1  0  0  0  0
  5  6  1  0  0  0  0
  6  7  1  0  0  0  0
  7  8  1  0  0  0  0
  9  8  1  6  0  0  0
  9 10  1  0  0  0  0
  9 11  1  0  0  0  0
 10 15  1  0  0  0  0
 11 12  1  1  0  0  0
 11 13  1  0  0  0  0
 13 14  1  1  0  0  0
 13 15  1  0  0  0  0
 15 26  1  6  0  0  0
 17 18  2  0  0  0  0
 17 22  1  0  0  0  0
 18 19  1  0  0  0  0
 19 20  2  0  0  0  0
 20 21  1  0  0  0  0
 20 26  1  0  0  0  0
 21 22  2  0  0  0  0
 21 24  1  0  0  0  0
 22 23  1  0  0  0  0
 24 25  2  0  0  0  0
 25 26  1  0  0  0  0
M  END
>  <CHROM.1>
-177.68351359,67.48338411,-68.30547876,145.95262293,-170.19796899,54.97214110
-170.49010122,39.72064995,14.05146237,5.01715447,0.26328776,0.84483362,-0.48507437

>  <Name>
ligand

>  <RI>
0

>  <Rbt.Current_Directory>
/home/itssahil/PROJECTS/Mol_Feturizer/New_Systems/rnas/3NPQ

>  <Rbt.Executable>
rbdock ($Id: //depot/dev/client3/rdock/2013.1/src/exe/rbdock.cxx#4 $)

>  <Rbt.Library>
libRbt.so (2013.1, Build901 2013/11/27)

>  <Rbt.Parameter_File>
/export/apps/rDock/src/rDock_2013.1_src/data/scripts/dock_solv.prm

>  <Rbt.Receptor>
prm/pocket_docking_5.prm

>  <SCORE>
-16.294

>  <SCORE.INTER>
-14.6681

>  <SCORE.INTER.CONST>
1

>  <SCORE.INTER.POLAR>
0

>  <SCORE.INTER.ROT>
7

>  <SCORE.INTER.SOLV>
11.4828

>  <SCORE.INTER.VDW>
-21.873

>  <SCORE.INTER.norm>
-0.564158

>  <SCORE.INTRA>
-1.62589

>  <SCORE.INTRA.DIHEDRAL>
-2.14371

>  <SCORE.INTRA.DIHEDRAL.0>
6.97628

>  <SCORE.INTRA.POLAR>
0

>  <SCORE.INTRA.POLAR.0>
0

>  <SCORE.INTRA.REPUL>
0

>  <SCORE.INTRA.REPUL.0>
0

>  <SCORE.INTRA.SOLV>
1.62549

>  <SCORE.INTRA.SOLV.lig_0>
-49.8243

>  <SCORE.INTRA.VDW>
-1.36678

>  <SCORE.INTRA.VDW.0>
-1.35881

>  <SCORE.INTRA.norm>
-0.0625341

>  <SCORE.RESTR>
0

>  <SCORE.RESTR.CAVITY>
0

>  <SCORE.RESTR.norm>
0

>  <SCORE.SYSTEM>
0

>  <SCORE.SYSTEM.CONST>
0

>  <SCORE.SYSTEM.DIHEDRAL>
0

>  <SCORE.SYSTEM.SOLV>
0

>  <SCORE.SYSTEM.norm>
0

>  <SCORE.heavy>
26

>  <SCORE.norm>
-0.626693

>  <RMSD>
7.491

$$$$
ligand
 OpenBabel11021811483D
libRbt.so/2013.1/901 2013/11/27
 26 28  0  0  0  0  0  0  0  0999 V2000
   40.5571   16.2638    2.1273 N   0  0  0  0  0  0  0  0  0  0  0  0
   41.9797   16.2160    2.4408 C   0  0  2  0  0  0  0  0  0  0  0  0
   42.6310   17.5803    2.2442 C   0  0  0  0  0  0  0  0  0  0  0  0
   43.5459   17.9567    2.9756 O   0  0  0  0  0  0  0  0  0  0  0  0
   42.6813   15.1733    1.5797 C   0  0  0  0  0  0  0  0  0  0  0  0
   42.2677   13.7383    1.8791 C   0  0  0  0  0  0  0  0  0  0  0  0
   42.7445   13.2115    3.5445 S   0  0  0  0  0  0  0  0  0  0  0  0
   41.2427   12.2067    3.6600 C   0  0  0  0  0  0  0  0  0  0  0  0
   40.9266   11.7831    5.0896 C   0  0  1  0  0  0  0  0  0  0  0  0
   40.8450   12.9237    5.9248 O   0  0  0  0  0  0  0  0  0  0  0  0
   39.5981   11.0496    5.1741 C   0  0  1  0  0  0  0  0  0  0  0  0
   39.8064    9.7252    5.6041 O   0  0  0  0  0  0  0  0  0  0  0  0
   38.7735   11.8037    6.1966 C   0  0  1  0  0  0  0  0  0  0  0  0
   38.4015   10.9433    7.2480 O   0  0  0  0  0  0  0  0  0  0  0  0
   39.6739   12.9098    6.7195 C   0  0  2  0  0  0  0  0  0  0  0  0
   42.2573   18.3382    1.3482 O   0  0  0  0  0  0  0  0  0  0  0  0
   35.8513   15.9629    8.6256 N   0  0  0  0  0  0  0  0  0  0  0  0
   36.2022   14.6892    9.0257 C   0  0  0  0  0  0  0  0  0  0  0  0
   37.2449   14.0287    8.4065 N   0  0  0  0  0  0  0  0  0  0  0  0
   37.9307   14.6243    7.4006 C   0  0  0  0  0  0  0  0  0  0  0  0
   37.5924   15.9045    6.9836 C   0  0  0  0  0  0  0  0  0  0  0  0
   36.5450   16.5765    7.6022 C   0  0  0  0  0  0  0  0  0  0  0  0
   36.2116   17.8027    7.2106 N   0  0  0  0  0  0  0  0  0  0  0  0
   38.4279   16.2493    5.9801 N   0  0  0  0  0  0  0  0  0  0  0  0
   39.2815   15.2246    5.7529 C   0  0  0  0  0  0  0  0  0  0  0  0
   38.9855   14.2098    6.6261 N   0  0  0  0  0  0  0  0  0  0  0  0
  2  1  1  6  0  0  0
  2  3  1  0  0  0  0
  2  5  1  0  0  0  0
  3  4  1  0  0  0  0
  3 16  1  0  0  0  0
  5  6  1  0  0  0  0
  6  7  1  0  0  0  0
  7  8  1  0  0  0  0
  9  8  1  6  0  0  0
  9 10  1  0  0  0  0
  9 11  1  0  0  0  0
 10 15  1  0  0  0  0
 11 12  1  1  0  0  0
 11 13  1  0  0  0  0
 13 14  1  1  0  0  0
 13 15  1  0  0  0  0
 15 26  1  6  0  0  0
 17 18  2  0  0  0  0
 17 22  1  0  0  0  0
 18 19  1  0  0  0  0
 19 20  2  0  0  0  0
 20 21  1  0  0  0  0
 20 26  1  0  0  0  0
 21 22  2  0  0  0  0
 21 24  1  0  0  0  0
 22 23  1  0  0  0  0
 24 25  2  0  0  0  0
 25 26  1  0  0  0  0
M  END
>  <CHROM.1>
145.40187566,-66.92176213,-65.00791930,145.36740655,-164.35762671,55.32459451
-170.19110267,39.91694087,14.41019115,5.14496595,0.34656115,0.75805253,-0.21687659

>  <Name>
ligand

>  <RI>
0

>  <Rbt.Current_Directory>
/home/itssahil/PROJECTS/Mol_Feturizer/New_Systems/rnas/3NPQ

>  <Rbt.Executable>
rbdock ($Id: //depot/dev/client3/rdock/2013.1/src/exe/rbdock.cxx#4 $)

>  <Rbt.Library>
libRbt.so (2013.1, Build901 2013/11/27)

>  <Rbt.Parameter_File>
/export/apps/rDock/src/rDock_2013.1_src/data/scripts/dock_solv.prm

>  <Rbt.Receptor>
prm/pocket_docking_5.prm

>  <SCORE>
-15.7158

>  <SCORE.INTER>
-13.5301

>  <SCORE.INTER.CONST>
1

>  <SCORE.INTER.POLAR>
0

>  <SCORE.INTER.ROT>
7

>  <SCORE.INTER.SOLV>
11.9653

>  <SCORE.INTER.VDW>
-21.2752

>  <SCORE.INTER.norm>
-0.520389

>  <SCORE.INTRA>
-2.18569

>  <SCORE.INTRA.DIHEDRAL>
-2.06822

>  <SCORE.INTRA.DIHEDRAL.0>
6.97628

>  <SCORE.INTRA.POLAR>
0

>  <SCORE.INTRA.POLAR.0>
0

>  <SCORE.INTRA.REPUL>
0

>  <SCORE.INTRA.REPUL.0>
0

>  <SCORE.INTRA.SOLV>
0.504055

>  <SCORE.INTRA.SOLV.lig_0>
-49.8243

>  <SCORE.INTRA.VDW>
-1.40361

>  <SCORE.INTRA.VDW.0>
-1.35881

>  <SCORE.INTRA.norm>
-0.0840652

>  <SCORE.RESTR>
0

>  <SCORE.RESTR.CAVITY>
0

>  <SCORE.RESTR.norm>
0

>  <SCORE.SYSTEM>
0

>  <SCORE.SYSTEM.CONST>
0

>  <SCORE.SYSTEM.DIHEDRAL>
0

>  <SCORE.SYSTEM.SOLV>
0

>  <SCORE.SYSTEM.norm>
0

>  <SCORE.heavy>
26

>  <SCORE.norm>
-0.604454

>  <RMSD>
7.508

$$$$
ligand
 OpenBabel11021811483D
libRbt.so/2013.1/901 2013/11/27
 26 28  0  0  0  0  0  0  0  0999 V2000
   41.2614    8.9204    3.3996 N   0  0  0  0  0  0  0  0  0  0  0  0
   40.9690   10.3084    3.7348 C   0  0  2  0  0  0  0  0  0  0  0  0
   42.2417   11.1474    3.7564 C   0  0  0  0  0  0  0  0  0  0  0  0
   43.2791   10.7379    3.2367 O   0  0  0  0  0  0  0  0  0  0  0  0
   40.2635   10.3948    5.0824 C   0  0  0  0  0  0  0  0  0  0  0  0
   39.7421   11.7845    5.4241 C   0  0  0  0  0  0  0  0  0  0  0  0
   38.7867   11.8087    6.9620 S   0  0  0  0  0  0  0  0  0  0  0  0
   38.1826   13.4685    6.5642 C   0  0  0  0  0  0  0  0  0  0  0  0
   37.6384   14.2044    7.7831 C   0  0  1  0  0  0  0  0  0  0  0  0
   38.7038   14.7866    8.5117 O   0  0  0  0  0  0  0  0  0  0  0  0
   36.6854   15.3190    7.3832 C   0  0  1  0  0  0  0  0  0  0  0  0
   35.3958   15.0505    7.8801 O   0  0  0  0  0  0  0  0  0  0  0  0
   37.2342   16.5799    8.0180 C   0  0  1  0  0  0  0  0  0  0  0  0
   36.2700   17.1511    8.8715 O   0  0  0  0  0  0  0  0  0  0  0  0
   38.4494   16.1446    8.8189 C   0  0  2  0  0  0  0  0  0  0  0  0
   42.2620   12.2552    4.2941 O   0  0  0  0  0  0  0  0  0  0  0  0
   43.0318   16.3334    6.2629 N   0  0  0  0  0  0  0  0  0  0  0  0
   42.1596   15.2686    6.3684 C   0  0  0  0  0  0  0  0  0  0  0  0
   40.9879   15.3986    7.0876 N   0  0  0  0  0  0  0  0  0  0  0  0
   40.6857   16.5710    7.6967 C   0  0  0  0  0  0  0  0  0  0  0  0
   41.5503   17.6530    7.6026 C   0  0  0  0  0  0  0  0  0  0  0  0
   42.7310   17.5308    6.8799 C   0  0  0  0  0  0  0  0  0  0  0  0
   43.5672   18.5602    6.7838 N   0  0  0  0  0  0  0  0  0  0  0  0
   41.0089   18.6793    8.2937 N   0  0  0  0  0  0  0  0  0  0  0  0
   39.8298   18.2756    8.8200 C   0  0  0  0  0  0  0  0  0  0  0  0
   39.6158   16.9705    8.4583 N   0  0  0  0  0  0  0  0  0  0  0  0
  2  1  1  1  0  0  0
  2  3  1  0  0  0  0
  2  5  1  0  0  0  0
  3  4  1  0  0  0  0
  3 16  1  0  0  0  0
  5  6  1  0  0  0  0
  6  7  1  0  0  0  0
  7  8  1  0  0  0  0
  9  8  1  6  0  0  0
  9 10  1  0  0  0  0
  9 11  1  0  0  0  0
 10 15  1  0  0  0  0
 11 12  1  1  0  0  0
 11 13  1  0  0  0  0
 13 14  1  1  0  0  0
 13 15  1  0  0  0  0
 15 26  1  6  0  0  0
 17 18  2  0  0  0  0
 17 22  1  0  0  0  0
 18 19  1  0  0  0  0
 19 20  2  0  0  0  0
 20 21  1  0  0  0  0
 20 26  1  0  0  0  0
 21 22  2  0  0  0  0
 21 24  1  0  0  0  0
 22 23  1  0  0  0  0
 24 25  2  0  0  0  0
 25 26  1  0  0  0  0
M  END
>  <CHROM.1>
16.13049856,-171.74164535,174.95817020,-167.22021407,-161.22195028,82.12033786
12.34265572,39.98919465,14.46696174,6.68947199,1.26158212,-0.35463550,-2.69842574

>  <Name>
ligand

>  <RI>
0

>  <Rbt.Current_Directory>
/home/itssahil/PROJECTS/Mol_Feturizer/New_Systems/rnas/3NPQ

>  <Rbt.Executable>
rbdock ($Id: //depot/dev/client3/rdock/2013.1/src/exe/rbdock.cxx#4 $)

>  <Rbt.Library>
libRbt.so (2013.1, Build901 2013/11/27)

>  <Rbt.Parameter_File>
/export/apps/rDock/src/rDock_2013.1_src/data/scripts/dock_solv.prm

>  <Rbt.Receptor>
prm/pocket_docking_5.prm

>  <SCORE>
-20.9879

>  <SCORE.INTER>
-19.1882

>  <SCORE.INTER.CONST>
1

>  <SCORE.INTER.POLAR>
0

>  <SCORE.INTER.ROT>
7

>  <SCORE.INTER.SOLV>
13.8003

>  <SCORE.INTER.VDW>
-25.6589

>  <SCORE.INTER.norm>
-0.738009

>  <SCORE.INTRA>
-1.79965

>  <SCORE.INTRA.DIHEDRAL>
-1.58203

>  <SCORE.INTRA.DIHEDRAL.0>
6.97628

>  <SCORE.INTRA.POLAR>
0

>  <SCORE.INTRA.POLAR.0>
0

>  <SCORE.INTRA.REPUL>
0

>  <SCORE.INTRA.REPUL.0>
0

>  <SCORE.INTRA.SOLV>
-0.9192

>  <SCORE.INTRA.SOLV.lig_0>
-49.8243

>  <SCORE.INTRA.VDW>
-0.549031

>  <SCORE.INTRA.VDW.0>
-1.35881

>  <SCORE.INTRA.norm>
-0.0692172

>  <SCORE.RESTR>
0

>  <SCORE.RESTR.CAVITY>
0

>  <SCORE.RESTR.norm>
0

>  <SCORE.SYSTEM>
0

>  <SCORE.SYSTEM.CONST>
0

>  <SCORE.SYSTEM.DIHEDRAL>
0

>  <SCORE.SYSTEM.SOLV>
0

>  <SCORE.SYSTEM.norm>
0

>  <SCORE.heavy>
26

>  <SCORE.norm>
-0.807226

>  <RMSD>
7.571

$$$$
ligand
 OpenBabel11021811483D
libRbt.so/2013.1/901 2013/11/27
 26 28  0  0  0  0  0  0  0  0999 V2000
   42.2084   11.0615    2.4526 N   0  0  0  0  0  0  0  0  0  0  0  0
   41.8115   10.4551    3.7173 C   0  0  2  0  0  0  0  0  0  0  0  0
   41.5442    8.9636    3.5505 C   0  0  0  0  0  0  0  0  0  0  0  0
   42.3667    8.1273    3.9219 O   0  0  0  0  0  0  0  0  0  0  0  0
   40.5754   11.1480    4.2767 C   0  0  0  0  0  0  0  0  0  0  0  0
   40.0151   10.5003    5.5362 C   0  0  0  0  0  0  0  0  0  0  0  0
   38.6468   11.4451    6.2529 S   0  0  0  0  0  0  0  0  0  0  0  0
   39.7771   12.8119    6.6170 C   0  0  0  0  0  0  0  0  0  0  0  0
   39.0686   14.0136    7.2312 C   0  0  1  0  0  0  0  0  0  0  0  0
   40.0205   14.9796    7.6383 O   0  0  0  0  0  0  0  0  0  0  0  0
   38.1297   14.6769    6.2368 C   0  0  1  0  0  0  0  0  0  0  0  0
   36.8013   14.5837    6.6938 O   0  0  0  0  0  0  0  0  0  0  0  0
   38.5555   16.1289    6.1711 C   0  0  1  0  0  0  0  0  0  0  0  0
   37.4787   16.9654    6.5247 O   0  0  0  0  0  0  0  0  0  0  0  0
   39.6838   16.2749    7.1777 C   0  0  2  0  0  0  0  0  0  0  0  0
   40.4984    8.5598    3.0405 O   0  0  0  0  0  0  0  0  0  0  0  0
   44.8389   15.9404    6.2398 N   0  0  0  0  0  0  0  0  0  0  0  0
   44.0444   15.0624    6.9492 C   0  0  0  0  0  0  0  0  0  0  0  0
   42.6941   15.3108    7.0969 N   0  0  0  0  0  0  0  0  0  0  0  0
   42.1385   16.4187    6.5483 C   0  0  0  0  0  0  0  0  0  0  0  0
   42.9211   17.3138    5.8318 C   0  0  0  0  0  0  0  0  0  0  0  0
   44.2806   17.0707    5.6778 C   0  0  0  0  0  0  0  0  0  0  0  0
   45.0401   17.9217    4.9943 N   0  0  0  0  0  0  0  0  0  0  0  0
   42.1214   18.3137    5.4021 N   0  0  0  0  0  0  0  0  0  0  0  0
   40.8593   18.0748    5.8267 C   0  0  0  0  0  0  0  0  0  0  0  0
   40.8542   16.9032    6.5388 N   0  0  0  0  0  0  0  0  0  0  0  0
  2  1  1  6  0  0  0
  2  3  1  0  0  0  0
  2  5  1  0  0  0  0
  3  4  1  0  0  0  0
  3 16  1  0  0  0  0
  5  6  1  0  0  0  0
  6  7  1  0  0  0  0
  7  8  1  0  0  0  0
  9  8  1  6  0  0  0
  9 10  1  0  0  0  0
  9 11  1  0  0  0  0
 10 15  1  0  0  0  0
 11 12  1  1  0  0  0
 11 13  1  0  0  0  0
 13 14  1  1  0  0  0
 13 15  1  0  0  0  0
 15 26  1  6  0  0  0
 17 18  2  0  0  0  0
 17 22  1  0  0  0  0
 18 19  1  0  0  0  0
 19 20  2  0  0  0  0
 20 21  1  0  0  0  0
 20 26  1  0  0  0  0
 21 22  2  0  0  0  0
 21 24  1  0  0  0  0
 22 23  1  0  0  0  0
 24 25  2  0  0  0  0
 25 26  1  0  0  0  0
M  END
>  <CHROM.1>
102.81473686,174.85267114,174.54284314,-65.36037689,177.29328605,173.05367001
-9.05884162,40.84978207,13.97681814,5.71455245,-1.71458403,0.27304022,0.31476928

>  <Name>
ligand

>  <RI>
0

>  <Rbt.Current_Directory>
/home/itssahil/PROJECTS/Mol_Feturizer/New_Systems/rnas/3NPQ

>  <Rbt.Executable>
rbdock ($Id: //depot/dev/client3/rdock/2013.1/src/exe/rbdock.cxx#4 $)

>  <Rbt.Library>
libRbt.so (2013.1, Build901 2013/11/27)

>  <Rbt.Parameter_File>
/export/apps/rDock/src/rDock_2013.1_src/data/scripts/dock_solv.prm

>  <Rbt.Receptor>
prm/pocket_docking_8.prm

>  <SCORE>
-14.9902

>  <SCORE.INTER>
-13.4032

>  <SCORE.INTER.CONST>
1

>  <SCORE.INTER.POLAR>
0

>  <SCORE.INTER.ROT>
7

>  <SCORE.INTER.SOLV>
10.6181

>  <SCORE.INTER.VDW>
-20.7415

>  <SCORE.INTER.norm>
-0.515506

>  <SCORE.INTRA>
-1.58699

>  <SCORE.INTRA.DIHEDRAL>
-3.85157

>  <SCORE.INTRA.DIHEDRAL.0>
6.97628

>  <SCORE.INTRA.POLAR>
0

>  <SCORE.INTRA.POLAR.0>
0

>  <SCORE.INTRA.REPUL>
0

>  <SCORE.INTRA.REPUL.0>
0

>  <SCORE.INTRA.SOLV>
-0.783861

>  <SCORE.INTRA.SOLV.lig_0>
-49.8243

>  <SCORE.INTRA.VDW>
0.730731

>  <SCORE.INTRA.VDW.0>
-1.35881

>  <SCORE.INTRA.norm>
-0.061038

>  <SCORE.RESTR>
0

>  <SCORE.RESTR.CAVITY>
0

>  <SCORE.RESTR.norm>
0

>  <SCORE.SYSTEM>
0

>  <SCORE.SYSTEM.CONST>
0

>  <SCORE.SYSTEM.DIHEDRAL>
0

>  <SCORE.SYSTEM.SOLV>
0

>  <SCORE.SYSTEM.norm>
0

>  <SCORE.heavy>
26

>  <SCORE.norm>
-0.576544

>  <RMSD>
7.688

$$$$
ligand
 OpenBabel11021811483D
libRbt.so/2013.1/901 2013/11/27
 26 28  0  0  0  0  0  0  0  0999 V2000
   43.7084   16.0377    5.3418 N   0  0  0  0  0  0  0  0  0  0  0  0
   44.2538   14.7724    5.8175 C   0  0  2  0  0  0  0  0  0  0  0  0
   45.2285   14.9933    6.9686 C   0  0  0  0  0  0  0  0  0  0  0  0
   46.2287   15.6955    6.8256 O   0  0  0  0  0  0  0  0  0  0  0  0
   44.9461   14.0291    4.6820 C   0  0  0  0  0  0  0  0  0  0  0  0
   43.9909   13.3902    3.6826 C   0  0  0  0  0  0  0  0  0  0  0  0
   44.8554   12.4473    2.4012 S   0  0  0  0  0  0  0  0  0  0  0  0
   43.2878   11.6998    1.8892 C   0  0  0  0  0  0  0  0  0  0  0  0
   43.1401   10.2589    2.3642 C   0  0  1  0  0  0  0  0  0  0  0  0
   42.7492   10.2364    3.7249 O   0  0  0  0  0  0  0  0  0  0  0  0
   42.0841    9.5129    1.5650 C   0  0  1  0  0  0  0  0  0  0  0  0
   42.6777    8.4490    0.8593 O   0  0  0  0  0  0  0  0  0  0  0  0
   41.0989    8.9754    2.5821 C   0  0  1  0  0  0  0  0  0  0  0  0
   41.0162    7.5728    2.4815 O   0  0  0  0  0  0  0  0  0  0  0  0
   41.6504    9.3707    3.9412 C   0  0  2  0  0  0  0  0  0  0  0  0
   45.0380   14.4748    8.0693 O   0  0  0  0  0  0  0  0  0  0  0  0
   40.0940   13.9102    6.0713 N   0  0  0  0  0  0  0  0  0  0  0  0
   41.2403   13.6604    5.3440 C   0  0  0  0  0  0  0  0  0  0  0  0
   41.4910   12.3936    4.8549 N   0  0  0  0  0  0  0  0  0  0  0  0
   40.6150   11.3855    5.0861 C   0  0  0  0  0  0  0  0  0  0  0  0
   39.4569   11.6168    5.8158 C   0  0  0  0  0  0  0  0  0  0  0  0
   39.1968   12.8891    6.3107 C   0  0  0  0  0  0  0  0  0  0  0  0
   38.0912   13.1221    7.0117 N   0  0  0  0  0  0  0  0  0  0  0  0
   38.7746   10.4538    5.8926 N   0  0  0  0  0  0  0  0  0  0  0  0
   39.4686    9.4976    5.2335 C   0  0  0  0  0  0  0  0  0  0  0  0
   40.6121   10.0604    4.7279 N   0  0  0  0  0  0  0  0  0  0  0  0
  2  1  1  6  0  0  0
  2  3  1  0  0  0  0
  2  5  1  0  0  0  0
  3  4  1  0  0  0  0
  3 16  1  0  0  0  0
  5  6  1  0  0  0  0
  6  7  1  0  0  0  0
  7  8  1  0  0  0  0
  9  8  1  6  0  0  0
  9 10  1  0  0  0  0
  9 11  1  0  0  0  0
 10 15  1  0  0  0  0
 11 12  1  1  0  0  0
 11 13  1  0  0  0  0
 13 14  1  1  0  0  0
 13 15  1  0  0  0  0
 15 26  1  1  0  0  0
 17 18  2  0  0  0  0
 17 22  1  0  0  0  0
 18 19  1  0  0  0  0
 19 20  2  0  0  0  0
 20 21  1  0  0  0  0
 20 26  1  0  0  0  0
 21 22  2  0  0  0  0
 21 24  1  0  0  0  0
 22 23  1  0  0  0  0
 24 25  2  0  0  0  0
 25 26  1  0  0  0  0
M  END
>  <CHROM.1>
-58.80266729,-74.54393072,-177.02961339,167.34059685,-104.10327106,79.51001899
6.65996688,42.32062933,11.96972458,4.46611331,1.02137192,0.43170794,0.75257303

>  <Name>
ligand

>  <RI>
0

>  <Rbt.Current_Directory>
/home/itssahil/PROJECTS/Mol_Feturizer/New_Systems/rnas/3NPQ

>  <Rbt.Executable>
rbdock ($Id: //depot/dev/client3/rdock/2013.1/src/exe/rbdock.cxx#4 $)

>  <Rbt.Library>
libRbt.so (2013.1, Build901 2013/11/27)

>  <Rbt.Parameter_File>
/export/apps/rDock/src/rDock_2013.1_src/data/scripts/dock_solv.prm

>  <Rbt.Receptor>
prm/pocket_docking_8.prm

>  <SCORE>
-19.0073

>  <SCORE.INTER>
-17.0031

>  <SCORE.INTER.CONST>
1

>  <SCORE.INTER.POLAR>
0

>  <SCORE.INTER.ROT>
7

>  <SCORE.INTER.SOLV>
16.5418

>  <SCORE.INTER.VDW>
-25.116

>  <SCORE.INTER.norm>
-0.653964

>  <SCORE.INTRA>
-2.03558

>  <SCORE.INTRA.DIHEDRAL>
0.0740076

>  <SCORE.INTRA.DIHEDRAL.0>
6.97628

>  <SCORE.INTRA.POLAR>
0

>  <SCORE.INTRA.POLAR.0>
0

>  <SCORE.INTRA.REPUL>
0

>  <SCORE.INTRA.REPUL.0>
0

>  <SCORE.INTRA.SOLV>
0.0678681

>  <SCORE.INTRA.SOLV.lig_0>
-49.8243

>  <SCORE.INTRA.VDW>
-2.10652

>  <SCORE.INTRA.VDW.0>
-1.35881

>  <SCORE.INTRA.norm>
-0.0782915

>  <SCORE.RESTR>
0.0313655

>  <SCORE.RESTR.CAVITY>
0.0313655

>  <SCORE.RESTR.norm>
0.00120637

>  <SCORE.SYSTEM>
0

>  <SCORE.SYSTEM.CONST>
0

>  <SCORE.SYSTEM.DIHEDRAL>
0

>  <SCORE.SYSTEM.SOLV>
0

>  <SCORE.SYSTEM.norm>
0

>  <SCORE.heavy>
26

>  <SCORE.norm>
-0.731049

>  <RMSD>
7.719

$$$$
ligand
 OpenBabel11021811483D
libRbt.so/2013.1/901 2013/11/27
 26 28  0  0  0  0  0  0  0  0999 V2000
   40.8063   13.6226    5.6922 N   0  0  0  0  0  0  0  0  0  0  0  0
   39.6529   13.4055    6.5566 C   0  0  2  0  0  0  0  0  0  0  0  0
   39.1023   11.9935    6.3923 C   0  0  0  0  0  0  0  0  0  0  0  0
   38.3629   11.4991    7.2425 O   0  0  0  0  0  0  0  0  0  0  0  0
   38.5638   14.4288    6.2602 C   0  0  0  0  0  0  0  0  0  0  0  0
   37.4633   14.4888    7.3115 C   0  0  0  0  0  0  0  0  0  0  0  0
   36.1082   15.5914    6.8358 S   0  0  0  0  0  0  0  0  0  0  0  0
   35.3738   15.4033    8.4800 C   0  0  0  0  0  0  0  0  0  0  0  0
   35.0354   16.7399    9.1298 C   0  0  1  0  0  0  0  0  0  0  0  0
   36.2160   17.4991    9.3164 O   0  0  0  0  0  0  0  0  0  0  0  0
   34.0892   17.5574    8.2656 C   0  0  1  0  0  0  0  0  0  0  0  0
   32.8684   17.7511    8.9398 O   0  0  0  0  0  0  0  0  0  0  0  0
   34.7770   18.8886    8.0445 C   0  0  1  0  0  0  0  0  0  0  0  0
   33.9657   19.9374    8.5200 O   0  0  0  0  0  0  0  0  0  0  0  0
   36.0687   18.8242    8.8413 C   0  0  2  0  0  0  0  0  0  0  0  0
   39.3837   11.3140    5.4044 O   0  0  0  0  0  0  0  0  0  0  0  0
   37.9338   19.0449    3.9382 N   0  0  0  0  0  0  0  0  0  0  0  0
   36.6958   18.6021    4.3585 C   0  0  0  0  0  0  0  0  0  0  0  0
   36.3717   18.6153    5.7008 N   0  0  0  0  0  0  0  0  0  0  0  0
   37.2664   19.0612    6.6160 C   0  0  0  0  0  0  0  0  0  0  0  0
   38.5167   19.5099    6.2130 C   0  0  0  0  0  0  0  0  0  0  0  0
   38.8504   19.5008    4.8640 C   0  0  0  0  0  0  0  0  0  0  0  0
   40.0454   19.9274    4.4666 N   0  0  0  0  0  0  0  0  0  0  0  0
   39.1967   19.8918    7.3157 N   0  0  0  0  0  0  0  0  0  0  0  0
   38.4120   19.6966    8.4003 C   0  0  0  0  0  0  0  0  0  0  0  0
   37.2119   19.1820    7.9823 N   0  0  0  0  0  0  0  0  0  0  0  0
  2  1  1  6  0  0  0
  2  3  1  0  0  0  0
  2  5  1  0  0  0  0
  3  4  1  0  0  0  0
  3 16  1  0  0  0  0
  5  6  1  0  0  0  0
  6  7  1  0  0  0  0
  7  8  1  0  0  0  0
  9  8  1  6  0  0  0
  9 10  1  0  0  0  0
  9 11  1  0  0  0  0
 10 15  1  0  0  0  0
 11 12  1  1  0  0  0
 11 13  1  0  0  0  0
 13 14  1  1  0  0  0
 13 15  1  0  0  0  0
 15 26  1  6  0  0  0
 17 18  2  0  0  0  0
 17 22  1  0  0  0  0
 18 19  1  0  0  0  0
 19 20  2  0  0  0  0
 20 21  1  0  0  0  0
 20 26  1  0  0  0  0
 21 22  2  0  0  0  0
 21 24  1  0  0  0  0
 22 23  1  0  0  0  0
 24 25  2  0  0  0  0
 25 26  1  0  0  0  0
M  END
>  <CHROM.1>
161.79170665,-166.72898260,-174.09641519,-172.24016413,129.55801084,-62.08384711
93.46655112,37.14911244,16.85892790,6.99367652,-1.01828115,0.60965157,-0.13179493

>  <Name>
ligand

>  <RI>
0

>  <Rbt.Current_Directory>
/home/itssahil/PROJECTS/Mol_Feturizer/New_Systems/rnas/3NPQ

>  <Rbt.Executable>
rbdock ($Id: //depot/dev/client3/rdock/2013.1/src/exe/rbdock.cxx#4 $)

>  <Rbt.Library>
libRbt.so (2013.1, Build901 2013/11/27)

>  <Rbt.Parameter_File>
/export/apps/rDock/src/rDock_2013.1_src/data/scripts/dock_solv.prm

>  <Rbt.Receptor>
prm/pocket_docking_4.prm

>  <SCORE>
-22.8847

>  <SCORE.INTER>
-20.1991

>  <SCORE.INTER.CONST>
1

>  <SCORE.INTER.POLAR>
0

>  <SCORE.INTER.ROT>
7

>  <SCORE.INTER.SOLV>
12.2685

>  <SCORE.INTER.VDW>
-25.8222

>  <SCORE.INTER.norm>
-0.776887

>  <SCORE.INTRA>
-2.6856

>  <SCORE.INTRA.DIHEDRAL>
-1.15359

>  <SCORE.INTRA.DIHEDRAL.0>
6.97628

>  <SCORE.INTRA.POLAR>
0

>  <SCORE.INTRA.POLAR.0>
0

>  <SCORE.INTRA.REPUL>
0

>  <SCORE.INTRA.REPUL.0>
0

>  <SCORE.INTRA.SOLV>
-0.55126

>  <SCORE.INTRA.SOLV.lig_0>
-49.8243

>  <SCORE.INTRA.VDW>
-1.83318

>  <SCORE.INTRA.VDW.0>
-1.35881

>  <SCORE.INTRA.norm>
-0.103292

>  <SCORE.RESTR>
0

>  <SCORE.RESTR.CAVITY>
0

>  <SCORE.RESTR.norm>
0

>  <SCORE.SYSTEM>
0

>  <SCORE.SYSTEM.CONST>
0

>  <SCORE.SYSTEM.DIHEDRAL>
0

>  <SCORE.SYSTEM.SOLV>
0

>  <SCORE.SYSTEM.norm>
0

>  <SCORE.heavy>
26

>  <SCORE.norm>
-0.880179

>  <RMSD>
7.748

$$$$
ligand
 OpenBabel11021811483D
libRbt.so/2013.1/901 2013/11/27
 26 28  0  0  0  0  0  0  0  0999 V2000
   40.9472   14.0358    6.3196 N   0  0  0  0  0  0  0  0  0  0  0  0
   39.5970   13.7185    6.7679 C   0  0  2  0  0  0  0  0  0  0  0  0
   39.2086   12.2974    6.3760 C   0  0  0  0  0  0  0  0  0  0  0  0
   39.6397   11.7848    5.3439 O   0  0  0  0  0  0  0  0  0  0  0  0
   38.5960   14.7116    6.1911 C   0  0  0  0  0  0  0  0  0  0  0  0
   37.1625   14.4918    6.6562 C   0  0  0  0  0  0  0  0  0  0  0  0
   36.9484   14.8187    8.4242 S   0  0  0  0  0  0  0  0  0  0  0  0
   35.3360   15.5726    8.0928 C   0  0  0  0  0  0  0  0  0  0  0  0
   35.1002   16.8393    8.9071 C   0  0  1  0  0  0  0  0  0  0  0  0
   36.3102   17.5634    9.0357 O   0  0  0  0  0  0  0  0  0  0  0  0
   34.0823   17.7504    8.2406 C   0  0  1  0  0  0  0  0  0  0  0  0
   32.9477   17.8867    9.0631 O   0  0  0  0  0  0  0  0  0  0  0  0
   34.7700   19.0901    8.0786 C   0  0  1  0  0  0  0  0  0  0  0  0
   34.0388   20.0931    8.7446 O   0  0  0  0  0  0  0  0  0  0  0  0
   36.1400   18.9315    8.7153 C   0  0  2  0  0  0  0  0  0  0  0  0
   38.4544   11.6282    7.0832 O   0  0  0  0  0  0  0  0  0  0  0  0
   37.6869   19.1188    3.7014 N   0  0  0  0  0  0  0  0  0  0  0  0
   36.5272   18.5733    4.2143 C   0  0  0  0  0  0  0  0  0  0  0  0
   36.2814   18.6139    5.5725 N   0  0  0  0  0  0  0  0  0  0  0  0
   37.1767   19.1877    6.4128 C   0  0  0  0  0  0  0  0  0  0  0  0
   38.3490   19.7412    5.9162 C   0  0  0  0  0  0  0  0  0  0  0  0
   38.6035   19.7053    4.5505 C   0  0  0  0  0  0  0  0  0  0  0  0
   39.7235   20.2314    4.0637 N   0  0  0  0  0  0  0  0  0  0  0  0
   39.0486   20.2382    6.9591 N   0  0  0  0  0  0  0  0  0  0  0  0
   38.3519   20.0139    8.0970 C   0  0  0  0  0  0  0  0  0  0  0  0
   37.1889   19.3634    7.7741 N   0  0  0  0  0  0  0  0  0  0  0  0
  2  1  1  6  0  0  0
  2  3  1  0  0  0  0
  2  5  1  0  0  0  0
  3  4  1  0  0  0  0
  3 16  1  0  0  0  0
  5  6  1  0  0  0  0
  6  7  1  0  0  0  0
  7  8  1  0  0  0  0
  9  8  1  6  0  0  0
  9 10  1  0  0  0  0
  9 11  1  0  0  0  0
 10 15  1  0  0  0  0
 11 12  1  1  0  0  0
 11 13  1  0  0  0  0
 13 14  1  1  0  0  0
 13 15  1  0  0  0  0
 15 26  1  6  0  0  0
 17 18  2  0  0  0  0
 17 22  1  0  0  0  0
 18 19  1  0  0  0  0
 19 20  2  0  0  0  0
 20 21  1  0  0  0  0
 20 26  1  0  0  0  0
 21 22  2  0  0  0  0
 21 24  1  0  0  0  0
 22 23  1  0  0  0  0
 24 25  2  0  0  0  0
 25 26  1  0  0  0  0
M  END
>  <CHROM.1>
-32.16629444,-177.50843907,66.87368737,141.37716994,-138.35082280,36.55719728
82.44110380,37.19127861,16.96847724,7.00966627,-1.01498225,0.66736394,-0.24179294

>  <Name>
ligand

>  <RI>
0

>  <Rbt.Current_Directory>
/home/itssahil/PROJECTS/Mol_Feturizer/New_Systems/rnas/3NPQ

>  <Rbt.Executable>
rbdock ($Id: //depot/dev/client3/rdock/2013.1/src/exe/rbdock.cxx#4 $)

>  <Rbt.Library>
libRbt.so (2013.1, Build901 2013/11/27)

>  <Rbt.Parameter_File>
/export/apps/rDock/src/rDock_2013.1_src/data/scripts/dock_solv.prm

>  <Rbt.Receptor>
prm/pocket_docking_5.prm

>  <SCORE>
-21.2271

>  <SCORE.INTER>
-20.0351

>  <SCORE.INTER.CONST>
1

>  <SCORE.INTER.POLAR>
0

>  <SCORE.INTER.ROT>
7

>  <SCORE.INTER.SOLV>
13.208

>  <SCORE.INTER.VDW>
-26.026

>  <SCORE.INTER.norm>
-0.77058

>  <SCORE.INTRA>
-1.19207

>  <SCORE.INTRA.DIHEDRAL>
1.25145

>  <SCORE.INTRA.DIHEDRAL.0>
6.97628

>  <SCORE.INTRA.POLAR>
0

>  <SCORE.INTRA.POLAR.0>
0

>  <SCORE.INTRA.REPUL>
0

>  <SCORE.INTRA.REPUL.0>
0

>  <SCORE.INTRA.SOLV>
-0.713266

>  <SCORE.INTRA.SOLV.lig_0>
-49.8243

>  <SCORE.INTRA.VDW>
-1.46116

>  <SCORE.INTRA.VDW.0>
-1.35881

>  <SCORE.INTRA.norm>
-0.0458489

>  <SCORE.RESTR>
0

>  <SCORE.RESTR.CAVITY>
0

>  <SCORE.RESTR.norm>
0

>  <SCORE.SYSTEM>
0

>  <SCORE.SYSTEM.CONST>
0

>  <SCORE.SYSTEM.DIHEDRAL>
0

>  <SCORE.SYSTEM.SOLV>
0

>  <SCORE.SYSTEM.norm>
0

>  <SCORE.heavy>
26

>  <SCORE.norm>
-0.816429

>  <RMSD>
7.788

$$$$
ligand
 OpenBabel11021811483D
libRbt.so/2013.1/901 2013/11/27
 26 28  0  0  0  0  0  0  0  0999 V2000
   41.2806   11.0542    2.9423 N   0  0  0  0  0  0  0  0  0  0  0  0
   41.3464   10.1583    4.0901 C   0  0  2  0  0  0  0  0  0  0  0  0
   41.4596    8.7045    3.6456 C   0  0  0  0  0  0  0  0  0  0  0  0
   42.4830    8.0551    3.8577 O   0  0  0  0  0  0  0  0  0  0  0  0
   40.1224   10.3389    4.9791 C   0  0  0  0  0  0  0  0  0  0  0  0
   39.9561   11.7489    5.5305 C   0  0  0  0  0  0  0  0  0  0  0  0
   38.7615   11.8266    6.8889 S   0  0  0  0  0  0  0  0  0  0  0  0
   38.3159   13.5134    6.4046 C   0  0  0  0  0  0  0  0  0  0  0  0
   37.6424   14.2902    7.5299 C   0  0  1  0  0  0  0  0  0  0  0  0
   38.6084   14.6960    8.4825 O   0  0  0  0  0  0  0  0  0  0  0  0
   36.9498   15.5392    7.0098 C   0  0  1  0  0  0  0  0  0  0  0  0
   35.5622   15.4465    7.2298 O   0  0  0  0  0  0  0  0  0  0  0  0
   37.5254   16.6928    7.8047 C   0  0  1  0  0  0  0  0  0  0  0  0
   36.4958   17.3757    8.4814 O   0  0  0  0  0  0  0  0  0  0  0  0
   38.4840   16.0687    8.8043 C   0  0  2  0  0  0  0  0  0  0  0  0
   40.5294    8.1449    3.0639 O   0  0  0  0  0  0  0  0  0  0  0  0
   43.2783   15.9746    6.6659 N   0  0  0  0  0  0  0  0  0  0  0  0
   42.2387   15.0892    6.4633 C   0  0  0  0  0  0  0  0  0  0  0  0
   41.0349   15.2698    7.1154 N   0  0  0  0  0  0  0  0  0  0  0  0
   40.8648   16.3160    7.9601 C   0  0  0  0  0  0  0  0  0  0  0  0
   41.8986   17.2167    8.1773 C   0  0  0  0  0  0  0  0  0  0  0  0
   43.1129   17.0427    7.5242 C   0  0  0  0  0  0  0  0  0  0  0  0
   44.1103   17.8987    7.7253 N   0  0  0  0  0  0  0  0  0  0  0  0
   41.4614   18.1483    9.0520 N   0  0  0  0  0  0  0  0  0  0  0  0
   40.1839   17.8607    9.3920 C   0  0  0  0  0  0  0  0  0  0  0  0
   39.8002   16.7272    8.7228 N   0  0  0  0  0  0  0  0  0  0  0  0
  2  1  1  6  0  0  0
  2  3  1  0  0  0  0
  2  5  1  0  0  0  0
  3  4  1  0  0  0  0
  3 16  1  0  0  0  0
  5  6  1  0  0  0  0
  6  7  1  0  0  0  0
  7  8  1  0  0  0  0
  9  8  1  6  0  0  0
  9 10  1  0  0  0  0
  9 11  1  0  0  0  0
 10 15  1  0  0  0  0
 11 12  1  1  0  0  0
 11 13  1  0  0  0  0
 13 14  1  1  0  0  0
 13 15  1  0  0  0  0
 15 26  1  6  0  0  0
 17 18  2  0  0  0  0
 17 22  1  0  0  0  0
 18 19  1  0  0  0  0
 19 20  2  0  0  0  0
 20 21  1  0  0  0  0
 20 26  1  0  0  0  0
 21 22  2  0  0  0  0
 21 24  1  0  0  0  0
 22 23  1  0  0  0  0
 24 25  2  0  0  0  0
 25 26  1  0  0  0  0
M  END
>  <CHROM.1>
112.99339812,-59.64505977,-165.54042666,-149.01572582,-159.95733458,75.80943917
25.20236443,40.00695336,14.07936270,6.72604563,-1.43172378,0.15507198,0.49382706

>  <Name>
ligand

>  <RI>
0

>  <Rbt.Current_Directory>
/home/itssahil/PROJECTS/Mol_Feturizer/New_Systems/rnas/3NPQ

>  <Rbt.Executable>
rbdock ($Id: //depot/dev/client3/rdock/2013.1/src/exe/rbdock.cxx#4 $)

>  <Rbt.Library>
libRbt.so (2013.1, Build901 2013/11/27)

>  <Rbt.Parameter_File>
/export/apps/rDock/src/rDock_2013.1_src/data/scripts/dock_solv.prm

>  <Rbt.Receptor>
prm/pocket_docking_6.prm

>  <SCORE>
-24.2503

>  <SCORE.INTER>
-22.1929

>  <SCORE.INTER.CONST>
1

>  <SCORE.INTER.POLAR>
0

>  <SCORE.INTER.ROT>
7

>  <SCORE.INTER.SOLV>
13.6191

>  <SCORE.INTER.VDW>
-27.6016

>  <SCORE.INTER.norm>
-0.853571

>  <SCORE.INTRA>
-2.05744

>  <SCORE.INTRA.DIHEDRAL>
-0.83675

>  <SCORE.INTRA.DIHEDRAL.0>
6.97628

>  <SCORE.INTRA.POLAR>
0

>  <SCORE.INTRA.POLAR.0>
0

>  <SCORE.INTRA.REPUL>
0

>  <SCORE.INTRA.REPUL.0>
0

>  <SCORE.INTRA.SOLV>
-0.253293

>  <SCORE.INTRA.SOLV.lig_0>
-49.8243

>  <SCORE.INTRA.VDW>
-1.51242

>  <SCORE.INTRA.VDW.0>
-1.35881

>  <SCORE.INTRA.norm>
-0.0791324

>  <SCORE.RESTR>
0

>  <SCORE.RESTR.CAVITY>
0

>  <SCORE.RESTR.norm>
0

>  <SCORE.SYSTEM>
0

>  <SCORE.SYSTEM.CONST>
0

>  <SCORE.SYSTEM.DIHEDRAL>
0

>  <SCORE.SYSTEM.SOLV>
0

>  <SCORE.SYSTEM.norm>
0

>  <SCORE.heavy>
26

>  <SCORE.norm>
-0.932704

>  <RMSD>
7.788

$$$$
ligand
 OpenBabel11021811483D
libRbt.so/2013.1/901 2013/11/27
 26 28  0  0  0  0  0  0  0  0999 V2000
   42.1282    7.9436    2.0543 N   0  0  0  0  0  0  0  0  0  0  0  0
   41.3028    8.9671    2.6834 C   0  0  2  0  0  0  0  0  0  0  0  0
   41.9900   10.3273    2.6432 C   0  0  0  0  0  0  0  0  0  0  0  0
   43.0638   10.5115    3.2149 O   0  0  0  0  0  0  0  0  0  0  0  0
   40.9842    8.5851    4.1234 C   0  0  0  0  0  0  0  0  0  0  0  0
   39.8866    9.4259    4.7622 C   0  0  0  0  0  0  0  0  0  0  0  0
   40.3605   11.1639    4.9443 S   0  0  0  0  0  0  0  0  0  0  0  0
   39.1071   11.3738    6.2339 C   0  0  0  0  0  0  0  0  0  0  0  0
   39.2694   12.6784    7.0054 C   0  0  1  0  0  0  0  0  0  0  0  0
   40.4521   13.3394    6.5937 O   0  0  0  0  0  0  0  0  0  0  0  0
   38.1018   13.6205    6.7616 C   0  0  1  0  0  0  0  0  0  0  0  0
   37.4067   13.8461    7.9650 O   0  0  0  0  0  0  0  0  0  0  0  0
   38.7115   14.9145    6.2638 C   0  0  1  0  0  0  0  0  0  0  0  0
   38.3518   15.9778    7.1149 O   0  0  0  0  0  0  0  0  0  0  0  0
   40.2154   14.7031    6.2977 C   0  0  2  0  0  0  0  0  0  0  0  0
   41.4871   11.2742    2.0371 O   0  0  0  0  0  0  0  0  0  0  0  0
   41.4935   18.5568    2.9687 N   0  0  0  0  0  0  0  0  0  0  0  0
   40.8994   18.6667    4.2099 C   0  0  0  0  0  0  0  0  0  0  0  0
   40.6336   17.5355    4.9559 N   0  0  0  0  0  0  0  0  0  0  0  0
   40.9521   16.3089    4.4754 C   0  0  0  0  0  0  0  0  0  0  0  0
   41.5495   16.1778    3.2291 C   0  0  0  0  0  0  0  0  0  0  0  0
   41.8211   17.3113    2.4725 C   0  0  0  0  0  0  0  0  0  0  0  0
   42.3922   17.1977    1.2770 N   0  0  0  0  0  0  0  0  0  0  0  0
   41.7553   14.8623    3.0031 N   0  0  0  0  0  0  0  0  0  0  0  0
   41.3053   14.1617    4.0694 C   0  0  0  0  0  0  0  0  0  0  0  0
   40.8044   15.0451    4.9905 N   0  0  0  0  0  0  0  0  0  0  0  0
  2  1  1  1  0  0  0
  2  3  1  0  0  0  0
  2  5  1  0  0  0  0
  3  4  1  0  0  0  0
  3 16  1  0  0  0  0
  5  6  1  0  0  0  0
  6  7  1  0  0  0  0
  7  8  1  0  0  0  0
  9  8  1  6  0  0  0
  9 10  1  0  0  0  0
  9 11  1  0  0  0  0
 10 15  1  0  0  0  0
 11 12  1  1  0  0  0
 11 13  1  0  0  0  0
 13 14  1  1  0  0  0
 13 15  1  0  0  0  0
 15 26  1  6  0  0  0
 17 18  2  0  0  0  0
 17 22  1  0  0  0  0
 18 19  1  0  0  0  0
 19 20  2  0  0  0  0
 20 21  1  0  0  0  0
 20 26  1  0  0  0  0
 21 22  2  0  0  0  0
 21 24  1  0  0  0  0
 22 23  1  0  0  0  0
 24 25  2  0  0  0  0
 25 26  1  0  0  0  0
M  END
>  <CHROM.1>
-62.14229295,-167.19148683,-64.93958951,-158.78202444,167.21643818,-5.64226897
-169.28820081,40.59536383,13.44653462,4.53493878,-1.45154714,0.93094446,0.00570234

>  <Name>
ligand

>  <RI>
0

>  <Rbt.Current_Directory>
/home/itssahil/PROJECTS/Mol_Feturizer/New_Systems/rnas/3NPQ

>  <Rbt.Executable>
rbdock ($Id: //depot/dev/client3/rdock/2013.1/src/exe/rbdock.cxx#4 $)

>  <Rbt.Library>
libRbt.so (2013.1, Build901 2013/11/27)

>  <Rbt.Parameter_File>
/export/apps/rDock/src/rDock_2013.1_src/data/scripts/dock_solv.prm

>  <Rbt.Receptor>
prm/pocket_docking_6.prm

>  <SCORE>
-16.6969

>  <SCORE.INTER>
-16.9339

>  <SCORE.INTER.CONST>
1

>  <SCORE.INTER.POLAR>
0

>  <SCORE.INTER.ROT>
7

>  <SCORE.INTER.SOLV>
12.176

>  <SCORE.INTER.VDW>
-23.6146

>  <SCORE.INTER.norm>
-0.651305

>  <SCORE.INTRA>
0.237019

>  <SCORE.INTRA.DIHEDRAL>
2.48898

>  <SCORE.INTRA.DIHEDRAL.0>
6.97628

>  <SCORE.INTRA.POLAR>
0

>  <SCORE.INTRA.POLAR.0>
0

>  <SCORE.INTRA.REPUL>
0

>  <SCORE.INTRA.REPUL.0>
0

>  <SCORE.INTRA.SOLV>
-0.455197

>  <SCORE.INTRA.SOLV.lig_0>
-49.8243

>  <SCORE.INTRA.VDW>
-0.779873

>  <SCORE.INTRA.VDW.0>
-1.35881

>  <SCORE.INTRA.norm>
0.0091161

>  <SCORE.RESTR>
0

>  <SCORE.RESTR.CAVITY>
0

>  <SCORE.RESTR.norm>
0

>  <SCORE.SYSTEM>
0

>  <SCORE.SYSTEM.CONST>
0

>  <SCORE.SYSTEM.DIHEDRAL>
0

>  <SCORE.SYSTEM.SOLV>
0

>  <SCORE.SYSTEM.norm>
0

>  <SCORE.heavy>
26

>  <SCORE.norm>
-0.642189

>  <RMSD>
7.792

$$$$
ligand
 OpenBabel11021811483D
libRbt.so/2013.1/901 2013/11/27
 26 28  0  0  0  0  0  0  0  0999 V2000
   41.1020   16.3992    0.8246 N   0  0  0  0  0  0  0  0  0  0  0  0
   41.9719   15.6291    1.7047 C   0  0  2  0  0  0  0  0  0  0  0  0
   42.5536   14.4203    0.9805 C   0  0  0  0  0  0  0  0  0  0  0  0
   41.8240   13.5264    0.5532 O   0  0  0  0  0  0  0  0  0  0  0  0
   41.2117   15.1785    2.9457 C   0  0  0  0  0  0  0  0  0  0  0  0
   42.1008   14.6412    4.0595 C   0  0  0  0  0  0  0  0  0  0  0  0
   42.8626   13.0544    3.6351 S   0  0  0  0  0  0  0  0  0  0  0  0
   41.2464   12.2456    3.7444 C   0  0  0  0  0  0  0  0  0  0  0  0
   40.8982   11.8159    5.1647 C   0  0  1  0  0  0  0  0  0  0  0  0
   40.8246   12.9506    6.0086 O   0  0  0  0  0  0  0  0  0  0  0  0
   39.5546   11.1076    5.2205 C   0  0  1  0  0  0  0  0  0  0  0  0
   39.7301    9.7757    5.6420 O   0  0  0  0  0  0  0  0  0  0  0  0
   38.7276   11.8687    6.2358 C   0  0  1  0  0  0  0  0  0  0  0  0
   38.3215   11.0065    7.2732 O   0  0  0  0  0  0  0  0  0  0  0  0
   39.6402   12.9525    6.7836 C   0  0  2  0  0  0  0  0  0  0  0  0
   43.7676   14.3097    0.8053 O   0  0  0  0  0  0  0  0  0  0  0  0
   35.8159   16.0453    8.6209 N   0  0  0  0  0  0  0  0  0  0  0  0
   36.1311   14.7591    9.0106 C   0  0  0  0  0  0  0  0  0  0  0  0
   37.1804   14.0892    8.4130 N   0  0  0  0  0  0  0  0  0  0  0  0
   37.9079   14.6880    7.4387 C   0  0  0  0  0  0  0  0  0  0  0  0
   37.6060   15.9807    7.0327 C   0  0  0  0  0  0  0  0  0  0  0  0
   36.5521   16.6621    7.6297 C   0  0  0  0  0  0  0  0  0  0  0  0
   36.2532   17.9003    7.2482 N   0  0  0  0  0  0  0  0  0  0  0  0
   38.4784   16.3259    6.0613 N   0  0  0  0  0  0  0  0  0  0  0  0
   39.3200   15.2892    5.8436 C   0  0  0  0  0  0  0  0  0  0  0  0
   38.9786   14.2663    6.6904 N   0  0  0  0  0  0  0  0  0  0  0  0
  2  1  1  6  0  0  0
  2  3  1  0  0  0  0
  2  5  1  0  0  0  0
  3  4  1  0  0  0  0
  3 16  1  0  0  0  0
  5  6  1  0  0  0  0
  6  7  1  0  0  0  0
  7  8  1  0  0  0  0
  9  8  1  6  0  0  0
  9 10  1  0  0  0  0
  9 11  1  0  0  0  0
 10 15  1  0  0  0  0
 11 12  1  1  0  0  0
 11 13  1  0  0  0  0
 13 14  1  1  0  0  0
 13 15  1  0  0  0  0
 15 26  1  6  0  0  0
 17 18  2  0  0  0  0
 17 22  1  0  0  0  0
 18 19  1  0  0  0  0
 19 20  2  0  0  0  0
 20 21  1  0  0  0  0
 20 26  1  0  0  0  0
 21 22  2  0  0  0  0
 21 24  1  0  0  0  0
 22 23  1  0  0  0  0
 24 25  2  0  0  0  0
 25 26  1  0  0  0  0
M  END
>  <CHROM.1>
-62.85420631,-167.08275033,-69.26599370,-69.72412269,-85.76758056,61.98261376
-171.11518806,39.86012608,13.99349299,5.07446388,0.16126142,0.82951928,-0.39531802

>  <Name>
ligand

>  <RI>
0

>  <Rbt.Current_Directory>
/home/itssahil/PROJECTS/Mol_Feturizer/New_Systems/rnas/3NPQ

>  <Rbt.Executable>
rbdock ($Id: //depot/dev/client3/rdock/2013.1/src/exe/rbdock.cxx#4 $)

>  <Rbt.Library>
libRbt.so (2013.1, Build901 2013/11/27)

>  <Rbt.Parameter_File>
/export/apps/rDock/src/rDock_2013.1_src/data/scripts/dock_solv.prm

>  <Rbt.Receptor>
prm/pocket_docking_6.prm

>  <SCORE>
-16.9481

>  <SCORE.INTER>
-14.5809

>  <SCORE.INTER.CONST>
1

>  <SCORE.INTER.POLAR>
0

>  <SCORE.INTER.ROT>
7

>  <SCORE.INTER.SOLV>
11.4977

>  <SCORE.INTER.VDW>
-21.8198

>  <SCORE.INTER.norm>
-0.560804

>  <SCORE.INTRA>
-2.36718

>  <SCORE.INTRA.DIHEDRAL>
-2.26319

>  <SCORE.INTRA.DIHEDRAL.0>
6.97628

>  <SCORE.INTRA.POLAR>
0

>  <SCORE.INTRA.POLAR.0>
0

>  <SCORE.INTRA.REPUL>
0

>  <SCORE.INTRA.REPUL.0>
0

>  <SCORE.INTRA.SOLV>
-0.484158

>  <SCORE.INTRA.SOLV.lig_0>
-49.8243

>  <SCORE.INTRA.VDW>
-0.993507

>  <SCORE.INTRA.VDW.0>
-1.35881

>  <SCORE.INTRA.norm>
-0.0910455

>  <SCORE.RESTR>
0

>  <SCORE.RESTR.CAVITY>
0

>  <SCORE.RESTR.norm>
0

>  <SCORE.SYSTEM>
0

>  <SCORE.SYSTEM.CONST>
0

>  <SCORE.SYSTEM.DIHEDRAL>
0

>  <SCORE.SYSTEM.SOLV>
0

>  <SCORE.SYSTEM.norm>
0

>  <SCORE.heavy>
26

>  <SCORE.norm>
-0.651849

>  <RMSD>
7.803

$$$$
ligand
 OpenBabel11021811483D
libRbt.so/2013.1/901 2013/11/27
 26 28  0  0  0  0  0  0  0  0999 V2000
   41.0309   15.7459    0.9446 N   0  0  0  0  0  0  0  0  0  0  0  0
   41.9671   14.8294    1.5833 C   0  0  2  0  0  0  0  0  0  0  0  0
   42.8310   15.5542    2.6091 C   0  0  0  0  0  0  0  0  0  0  0  0
   43.6873   14.9515    3.2551 O   0  0  0  0  0  0  0  0  0  0  0  0
   42.8496   14.1552    0.5403 C   0  0  0  0  0  0  0  0  0  0  0  0
   42.0888   13.2792   -0.4464 C   0  0  0  0  0  0  0  0  0  0  0  0
   41.2643   11.8822    0.3580 S   0  0  0  0  0  0  0  0  0  0  0  0
   42.7300   10.8552    0.0839 C   0  0  0  0  0  0  0  0  0  0  0  0
   43.0365    9.9404    1.2640 C   0  0  1  0  0  0  0  0  0  0  0  0
   43.2811   10.7142    2.4244 O   0  0  0  0  0  0  0  0  0  0  0  0
   41.8746    9.0075    1.5641 C   0  0  1  0  0  0  0  0  0  0  0  0
   42.2681    7.6703    1.3660 O   0  0  0  0  0  0  0  0  0  0  0  0
   41.5265    9.2358    3.0204 C   0  0  1  0  0  0  0  0  0  0  0  0
   41.6359    8.0292    3.7390 O   0  0  0  0  0  0  0  0  0  0  0  0
   42.5392   10.2445    3.5345 C   0  0  2  0  0  0  0  0  0  0  0  0
   42.6928   16.7605    2.8155 O   0  0  0  0  0  0  0  0  0  0  0  0
   38.4748   11.7155    6.5151 N   0  0  0  0  0  0  0  0  0  0  0  0
   38.7962   10.4449    6.0816 C   0  0  0  0  0  0  0  0  0  0  0  0
   39.9138   10.2403    5.2966 N   0  0  0  0  0  0  0  0  0  0  0  0
   40.7027   11.2846    4.9443 C   0  0  0  0  0  0  0  0  0  0  0  0
   40.3957   12.5698    5.3700 C   0  0  0  0  0  0  0  0  0  0  0  0
   39.2733   12.7841    6.1610 C   0  0  0  0  0  0  0  0  0  0  0  0
   38.9690   14.0109    6.5738 N   0  0  0  0  0  0  0  0  0  0  0  0
   41.3368   13.4058    4.8807 N   0  0  0  0  0  0  0  0  0  0  0  0
   42.2266   12.6854    4.1598 C   0  0  0  0  0  0  0  0  0  0  0  0
   41.8466   11.3683    4.1902 N   0  0  0  0  0  0  0  0  0  0  0  0
  2  1  1  6  0  0  0
  2  3  1  0  0  0  0
  2  5  1  0  0  0  0
  3  4  1  0  0  0  0
  3 16  1  0  0  0  0
  5  6  1  0  0  0  0
  6  7  1  0  0  0  0
  7  8  1  0  0  0  0
  9  8  1  6  0  0  0
  9 10  1  0  0  0  0
  9 11  1  0  0  0  0
 10 15  1  0  0  0  0
 11 12  1  1  0  0  0
 11 13  1  0  0  0  0
 13 14  1  1  0  0  0
 13 15  1  0  0  0  0
 15 26  1  6  0  0  0
 17 18  2  0  0  0  0
 17 22  1  0  0  0  0
 18 19  1  0  0  0  0
 19 20  2  0  0  0  0
 20 21  1  0  0  0  0
 20 26  1  0  0  0  0
 21 22  2  0  0  0  0
 21 24  1  0  0  0  0
 22 23  1  0  0  0  0
 24 25  2  0  0  0  0
 25 26  1  0  0  0  0
M  END
>  <CHROM.1>
-179.85848168,-63.13704900,-62.95925771,-91.19752347,140.78347435,-60.58139729
154.70125455,41.54628484,12.03551816,2.99562443,0.92261335,1.07782270,0.07891780

>  <Name>
ligand

>  <RI>
0

>  <Rbt.Current_Directory>
/home/itssahil/PROJECTS/Mol_Feturizer/New_Systems/rnas/3NPQ

>  <Rbt.Executable>
rbdock ($Id: //depot/dev/client3/rdock/2013.1/src/exe/rbdock.cxx#4 $)

>  <Rbt.Library>
libRbt.so (2013.1, Build901 2013/11/27)

>  <Rbt.Parameter_File>
/export/apps/rDock/src/rDock_2013.1_src/data/scripts/dock_solv.prm

>  <Rbt.Receptor>
prm/pocket_docking_8.prm

>  <SCORE>
-17.5796

>  <SCORE.INTER>
-15.1815

>  <SCORE.INTER.CONST>
1

>  <SCORE.INTER.POLAR>
0

>  <SCORE.INTER.ROT>
7

>  <SCORE.INTER.SOLV>
10.4119

>  <SCORE.INTER.VDW>
-21.8583

>  <SCORE.INTER.norm>
-0.583903

>  <SCORE.INTRA>
-2.39808

>  <SCORE.INTRA.DIHEDRAL>
-1.20102

>  <SCORE.INTRA.DIHEDRAL.0>
6.97628

>  <SCORE.INTRA.POLAR>
0

>  <SCORE.INTRA.POLAR.0>
0

>  <SCORE.INTRA.REPUL>
0

>  <SCORE.INTRA.REPUL.0>
0

>  <SCORE.INTRA.SOLV>
0.776989

>  <SCORE.INTRA.SOLV.lig_0>
-49.8243

>  <SCORE.INTRA.VDW>
-2.18606

>  <SCORE.INTRA.VDW.0>
-1.35881

>  <SCORE.INTRA.norm>
-0.0922337

>  <SCORE.RESTR>
0

>  <SCORE.RESTR.CAVITY>
0

>  <SCORE.RESTR.norm>
0

>  <SCORE.SYSTEM>
0

>  <SCORE.SYSTEM.CONST>
0

>  <SCORE.SYSTEM.DIHEDRAL>
0

>  <SCORE.SYSTEM.SOLV>
0

>  <SCORE.SYSTEM.norm>
0

>  <SCORE.heavy>
26

>  <SCORE.norm>
-0.676137

>  <RMSD>
7.851

$$$$
ligand
 OpenBabel11021811483D
libRbt.so/2013.1/901 2013/11/27
 26 28  0  0  0  0  0  0  0  0999 V2000
   44.2403   15.2957    6.5752 N   0  0  0  0  0  0  0  0  0  0  0  0
   44.1960   14.5406    5.3293 C   0  0  2  0  0  0  0  0  0  0  0  0
   45.3067   14.9797    4.3819 C   0  0  0  0  0  0  0  0  0  0  0  0
   45.9720   14.1528    3.7594 O   0  0  0  0  0  0  0  0  0  0  0  0
   42.8396   14.7026    4.6548 C   0  0  0  0  0  0  0  0  0  0  0  0
   42.7360   14.0257    3.2944 C   0  0  0  0  0  0  0  0  0  0  0  0
   43.0605   12.2464    3.3778 S   0  0  0  0  0  0  0  0  0  0  0  0
   41.2932   11.9319    3.6142 C   0  0  0  0  0  0  0  0  0  0  0  0
   40.9493   11.5566    5.0509 C   0  0  1  0  0  0  0  0  0  0  0  0
   40.9277   12.7173    5.8617 O   0  0  0  0  0  0  0  0  0  0  0  0
   39.5821   10.8991    5.1445 C   0  0  1  0  0  0  0  0  0  0  0  0
   39.7157    9.5747    5.6030 O   0  0  0  0  0  0  0  0  0  0  0  0
   38.7967   11.7188    6.1472 C   0  0  1  0  0  0  0  0  0  0  0  0
   38.3743   10.9025    7.2146 O   0  0  0  0  0  0  0  0  0  0  0  0
   39.7548   12.7845    6.6510 C   0  0  2  0  0  0  0  0  0  0  0  0
   45.5644   16.1726    4.2164 O   0  0  0  0  0  0  0  0  0  0  0  0
   36.0730   16.0680    8.4484 N   0  0  0  0  0  0  0  0  0  0  0  0
   36.3480   14.7835    8.8727 C   0  0  0  0  0  0  0  0  0  0  0  0
   37.3632   14.0584    8.2807 N   0  0  0  0  0  0  0  0  0  0  0  0
   38.0962   14.6007    7.2779 C   0  0  0  0  0  0  0  0  0  0  0  0
   37.8344   15.8907    6.8370 C   0  0  0  0  0  0  0  0  0  0  0  0
   36.8152   16.6275    7.4281 C   0  0  0  0  0  0  0  0  0  0  0  0
   36.5549   17.8638    7.0132 N   0  0  0  0  0  0  0  0  0  0  0  0
   38.7033   16.1746    5.8427 N   0  0  0  0  0  0  0  0  0  0  0  0
   39.5037   15.1020    5.6447 C   0  0  0  0  0  0  0  0  0  0  0  0
   39.1393   14.1181    6.5273 N   0  0  0  0  0  0  0  0  0  0  0  0
  2  1  1  1  0  0  0
  2  3  1  0  0  0  0
  2  5  1  0  0  0  0
  3  4  1  0  0  0  0
  3 16  1  0  0  0  0
  5  6  1  0  0  0  0
  6  7  1  0  0  0  0
  7  8  1  0  0  0  0
  9  8  1  6  0  0  0
  9 10  1  0  0  0  0
  9 11  1  0  0  0  0
 10 15  1  0  0  0  0
 11 12  1  1  0  0  0
 11 13  1  0  0  0  0
 13 14  1  1  0  0  0
 13 15  1  0  0  0  0
 15 26  1  6  0  0  0
 17 18  2  0  0  0  0
 17 22  1  0  0  0  0
 18 19  1  0  0  0  0
 19 20  2  0  0  0  0
 20 21  1  0  0  0  0
 20 26  1  0  0  0  0
 21 22  2  0  0  0  0
 21 24  1  0  0  0  0
 22 23  1  0  0  0  0
 24 25  2  0  0  0  0
 25 26  1  0  0  0  0
M  END
>  <CHROM.1>
136.37401004,175.91712045,58.43581893,91.63238044,-105.35953769,77.71775779
-170.98157557,40.59088156,13.84201799,5.72643871,-0.21708378,0.41902430,0.19115797

>  <Name>
ligand

>  <RI>
0

>  <Rbt.Current_Directory>
/home/itssahil/PROJECTS/Mol_Feturizer/New_Systems/rnas/3NPQ

>  <Rbt.Executable>
rbdock ($Id: //depot/dev/client3/rdock/2013.1/src/exe/rbdock.cxx#4 $)

>  <Rbt.Library>
libRbt.so (2013.1, Build901 2013/11/27)

>  <Rbt.Parameter_File>
/export/apps/rDock/src/rDock_2013.1_src/data/scripts/dock_solv.prm

>  <Rbt.Receptor>
prm/pocket_docking_7.prm

>  <SCORE>
-17.2543

>  <SCORE.INTER>
-15.4007

>  <SCORE.INTER.CONST>
1

>  <SCORE.INTER.POLAR>
0

>  <SCORE.INTER.ROT>
7

>  <SCORE.INTER.SOLV>
13.8256

>  <SCORE.INTER.VDW>
-23.1423

>  <SCORE.INTER.norm>
-0.592333

>  <SCORE.INTRA>
-1.85365

>  <SCORE.INTRA.DIHEDRAL>
0.19887

>  <SCORE.INTRA.DIHEDRAL.0>
6.97628

>  <SCORE.INTRA.POLAR>
0

>  <SCORE.INTRA.POLAR.0>
0

>  <SCORE.INTRA.REPUL>
0

>  <SCORE.INTRA.REPUL.0>
0

>  <SCORE.INTRA.SOLV>
-0.435437

>  <SCORE.INTRA.SOLV.lig_0>
-49.8243

>  <SCORE.INTRA.VDW>
-1.73536

>  <SCORE.INTRA.VDW.0>
-1.35881

>  <SCORE.INTRA.norm>
-0.0712942

>  <SCORE.RESTR>
0

>  <SCORE.RESTR.CAVITY>
0

>  <SCORE.RESTR.norm>
0

>  <SCORE.SYSTEM>
0

>  <SCORE.SYSTEM.CONST>
0

>  <SCORE.SYSTEM.DIHEDRAL>
0

>  <SCORE.SYSTEM.SOLV>
0

>  <SCORE.SYSTEM.norm>
0

>  <SCORE.heavy>
26

>  <SCORE.norm>
-0.663627

>  <RMSD>
7.879

$$$$
ligand
 OpenBabel11021811483D
libRbt.so/2013.1/901 2013/11/27
 26 28  0  0  0  0  0  0  0  0999 V2000
   39.8058    8.8668    4.7837 N   0  0  0  0  0  0  0  0  0  0  0  0
   40.5691    9.8878    4.0769 C   0  0  2  0  0  0  0  0  0  0  0  0
   41.9011    9.3340    3.5840 C   0  0  0  0  0  0  0  0  0  0  0  0
   42.2551    8.1901    3.8671 O   0  0  0  0  0  0  0  0  0  0  0  0
   40.8057   11.0950    4.9757 C   0  0  0  0  0  0  0  0  0  0  0  0
   39.5312   11.7168    5.5314 C   0  0  0  0  0  0  0  0  0  0  0  0
   39.8657   13.0174    6.7458 S   0  0  0  0  0  0  0  0  0  0  0  0
   38.1758   13.6378    6.5515 C   0  0  0  0  0  0  0  0  0  0  0  0
   37.6454   14.3059    7.8147 C   0  0  1  0  0  0  0  0  0  0  0  0
   38.6986   14.9707    8.4884 O   0  0  0  0  0  0  0  0  0  0  0  0
   36.5753   15.3367    7.4941 C   0  0  1  0  0  0  0  0  0  0  0  0
   35.3474   14.9479    8.0628 O   0  0  0  0  0  0  0  0  0  0  0  0
   37.0493   16.6328    8.1182 C   0  0  1  0  0  0  0  0  0  0  0  0
   36.0933   17.1045    9.0389 O   0  0  0  0  0  0  0  0  0  0  0  0
   38.3452   16.2965    8.8359 C   0  0  2  0  0  0  0  0  0  0  0  0
   42.6545   10.0179    2.8901 O   0  0  0  0  0  0  0  0  0  0  0  0
   43.1111   16.7875    6.6882 N   0  0  0  0  0  0  0  0  0  0  0  0
   42.3998   15.6284    6.9250 C   0  0  0  0  0  0  0  0  0  0  0  0
   41.1474   15.6874    7.5036 N   0  0  0  0  0  0  0  0  0  0  0  0
   40.6072   16.8826    7.8450 C   0  0  0  0  0  0  0  0  0  0  0  0
   41.3072   18.0593    7.6152 C   0  0  0  0  0  0  0  0  0  0  0  0
   42.5678   18.0087    7.0325 C   0  0  0  0  0  0  0  0  0  0  0  0
   43.2478   19.1292    6.8086 N   0  0  0  0  0  0  0  0  0  0  0  0
   40.5443   19.0876    8.0450 N   0  0  0  0  0  0  0  0  0  0  0  0
   39.3856   18.5934    8.5385 C   0  0  0  0  0  0  0  0  0  0  0  0
   39.4100   17.2275    8.4211 N   0  0  0  0  0  0  0  0  0  0  0  0
  2  1  1  1  0  0  0
  2  3  1  0  0  0  0
  2  5  1  0  0  0  0
  3  4  1  0  0  0  0
  3 16  1  0  0  0  0
  5  6  1  0  0  0  0
  6  7  1  0  0  0  0
  7  8  1  0  0  0  0
  9  8  1  6  0  0  0
  9 10  1  0  0  0  0
  9 11  1  0  0  0  0
 10 15  1  0  0  0  0
 11 12  1  1  0  0  0
 11 13  1  0  0  0  0
 13 14  1  1  0  0  0
 13 15  1  0  0  0  0
 15 26  1  6  0  0  0
 17 18  2  0  0  0  0
 17 22  1  0  0  0  0
 18 19  1  0  0  0  0
 19 20  2  0  0  0  0
 20 21  1  0  0  0  0
 20 26  1  0  0  0  0
 21 22  2  0  0  0  0
 21 24  1  0  0  0  0
 22 23  1  0  0  0  0
 24 25  2  0  0  0  0
 25 26  1  0  0  0  0
M  END
>  <CHROM.1>
-4.59047899,-56.45561798,173.13042537,162.54165217,150.86448893,34.32043074
-3.16103766,39.91399646,14.46803059,6.75901754,1.34467718,-0.32208050,-2.74514814

>  <Name>
ligand

>  <RI>
0

>  <Rbt.Current_Directory>
/home/itssahil/PROJECTS/Mol_Feturizer/New_Systems/rnas/3NPQ

>  <Rbt.Executable>
rbdock ($Id: //depot/dev/client3/rdock/2013.1/src/exe/rbdock.cxx#4 $)

>  <Rbt.Library>
libRbt.so (2013.1, Build901 2013/11/27)

>  <Rbt.Parameter_File>
/export/apps/rDock/src/rDock_2013.1_src/data/scripts/dock_solv.prm

>  <Rbt.Receptor>
prm/pocket_docking_8.prm

>  <SCORE>
-18.5623

>  <SCORE.INTER>
-17.5386

>  <SCORE.INTER.CONST>
1

>  <SCORE.INTER.POLAR>
0

>  <SCORE.INTER.ROT>
7

>  <SCORE.INTER.SOLV>
17.1278

>  <SCORE.INTER.VDW>
-25.6683

>  <SCORE.INTER.norm>
-0.67456

>  <SCORE.INTRA>
-1.02374

>  <SCORE.INTRA.DIHEDRAL>
-0.42907

>  <SCORE.INTRA.DIHEDRAL.0>
6.97628

>  <SCORE.INTRA.POLAR>
0

>  <SCORE.INTRA.POLAR.0>
0

>  <SCORE.INTRA.REPUL>
0

>  <SCORE.INTRA.REPUL.0>
0

>  <SCORE.INTRA.SOLV>
-0.0107932

>  <SCORE.INTRA.SOLV.lig_0>
-49.8243

>  <SCORE.INTRA.VDW>
-0.803808

>  <SCORE.INTRA.VDW.0>
-1.35881

>  <SCORE.INTRA.norm>
-0.0393746

>  <SCORE.RESTR>
0

>  <SCORE.RESTR.CAVITY>
0

>  <SCORE.RESTR.norm>
0

>  <SCORE.SYSTEM>
0

>  <SCORE.SYSTEM.CONST>
0

>  <SCORE.SYSTEM.DIHEDRAL>
0

>  <SCORE.SYSTEM.SOLV>
0

>  <SCORE.SYSTEM.norm>
0

>  <SCORE.heavy>
26

>  <SCORE.norm>
-0.713935

>  <RMSD>
7.921

$$$$
ligand
 OpenBabel11021811483D
libRbt.so/2013.1/901 2013/11/27
 26 28  0  0  0  0  0  0  0  0999 V2000
   39.7564   11.0622    5.7876 N   0  0  0  0  0  0  0  0  0  0  0  0
   39.3856   12.4715    5.7532 C   0  0  2  0  0  0  0  0  0  0  0  0
   40.6109   13.3563    5.5540 C   0  0  0  0  0  0  0  0  0  0  0  0
   41.6455   12.9047    5.0645 O   0  0  0  0  0  0  0  0  0  0  0  0
   38.6604   12.8641    7.0342 C   0  0  0  0  0  0  0  0  0  0  0  0
   37.8614   14.1562    6.9263 C   0  0  0  0  0  0  0  0  0  0  0  0
   37.0317   14.5909    8.4758 S   0  0  0  0  0  0  0  0  0  0  0  0
   36.0259   15.8138    7.5978 C   0  0  0  0  0  0  0  0  0  0  0  0
   35.8582   17.1101    8.3820 C   0  0  1  0  0  0  0  0  0  0  0  0
   36.6874   18.1179    7.8328 O   0  0  0  0  0  0  0  0  0  0  0  0
   34.4239   17.6109    8.3330 C   0  0  1  0  0  0  0  0  0  0  0  0
   33.8706   17.6124    9.6277 O   0  0  0  0  0  0  0  0  0  0  0  0
   34.4981   19.0262    7.7986 C   0  0  1  0  0  0  0  0  0  0  0  0
   33.9333   19.9238    8.7259 O   0  0  0  0  0  0  0  0  0  0  0  0
   35.9768   19.3229    7.6175 C   0  0  2  0  0  0  0  0  0  0  0  0
   40.5945   14.5445    5.8777 O   0  0  0  0  0  0  0  0  0  0  0  0
   36.9062   18.0380    2.6123 N   0  0  0  0  0  0  0  0  0  0  0  0
   36.7094   17.1923    3.6854 C   0  0  0  0  0  0  0  0  0  0  0  0
   36.4750   17.7095    4.9441 N   0  0  0  0  0  0  0  0  0  0  0  0
   36.4379   19.0506    5.1365 C   0  0  0  0  0  0  0  0  0  0  0  0
   36.6340   19.9173    4.0699 C   0  0  0  0  0  0  0  0  0  0  0  0
   36.8696   19.4049    2.7998 C   0  0  0  0  0  0  0  0  0  0  0  0
   37.0598   20.2256    1.7710 N   0  0  0  0  0  0  0  0  0  0  0  0
   36.5451   21.1807    4.5390 N   0  0  0  0  0  0  0  0  0  0  0  0
   36.2992   21.1350    5.8686 C   0  0  0  0  0  0  0  0  0  0  0  0
   36.2299   19.8209    6.2535 N   0  0  0  0  0  0  0  0  0  0  0  0
  2  1  1  1  0  0  0
  2  3  1  0  0  0  0
  2  5  1  0  0  0  0
  3  4  1  0  0  0  0
  3 16  1  0  0  0  0
  5  6  1  0  0  0  0
  6  7  1  0  0  0  0
  7  8  1  0  0  0  0
  9  8  1  6  0  0  0
  9 10  1  0  0  0  0
  9 11  1  0  0  0  0
 10 15  1  0  0  0  0
 11 12  1  1  0  0  0
 11 13  1  0  0  0  0
 13 14  1  1  0  0  0
 13 15  1  0  0  0  0
 15 26  1  6  0  0  0
 17 18  2  0  0  0  0
 17 22  1  0  0  0  0
 18 19  1  0  0  0  0
 19 20  2  0  0  0  0
 20 21  1  0  0  0  0
 20 26  1  0  0  0  0
 21 22  2  0  0  0  0
 21 24  1  0  0  0  0
 22 23  1  0  0  0  0
 24 25  2  0  0  0  0
 25 26  1  0  0  0  0
M  END
>  <CHROM.1>
21.43575696,-161.82197614,-179.41400555,-166.53542680,-138.81134591,104.13487768
33.66982402,37.05211963,16.91008138,6.26081099,-0.66567470,0.85997752,-0.78783233

>  <Name>
ligand

>  <RI>
0

>  <Rbt.Current_Directory>
/home/itssahil/PROJECTS/Mol_Feturizer/New_Systems/rnas/3NPQ

>  <Rbt.Executable>
rbdock ($Id: //depot/dev/client3/rdock/2013.1/src/exe/rbdock.cxx#4 $)

>  <Rbt.Library>
libRbt.so (2013.1, Build901 2013/11/27)

>  <Rbt.Parameter_File>
/export/apps/rDock/src/rDock_2013.1_src/data/scripts/dock_solv.prm

>  <Rbt.Receptor>
prm/pocket_docking_6.prm

>  <SCORE>
-19.4076

>  <SCORE.INTER>
-19.7138

>  <SCORE.INTER.CONST>
1

>  <SCORE.INTER.POLAR>
0

>  <SCORE.INTER.ROT>
7

>  <SCORE.INTER.SOLV>
18.0722

>  <SCORE.INTER.VDW>
-27.4332

>  <SCORE.INTER.norm>
-0.758222

>  <SCORE.INTRA>
0.302893

>  <SCORE.INTRA.DIHEDRAL>
3.45974

>  <SCORE.INTRA.DIHEDRAL.0>
6.97628

>  <SCORE.INTRA.POLAR>
0

>  <SCORE.INTRA.POLAR.0>
0

>  <SCORE.INTRA.REPUL>
0

>  <SCORE.INTRA.REPUL.0>
0

>  <SCORE.INTRA.SOLV>
-0.931713

>  <SCORE.INTRA.SOLV.lig_0>
-49.8243

>  <SCORE.INTRA.VDW>
-0.961122

>  <SCORE.INTRA.VDW.0>
-1.35881

>  <SCORE.INTRA.norm>
0.0116497

>  <SCORE.RESTR>
0.00331654

>  <SCORE.RESTR.CAVITY>
0.00331654

>  <SCORE.RESTR.norm>
0.000127559

>  <SCORE.SYSTEM>
0

>  <SCORE.SYSTEM.CONST>
0

>  <SCORE.SYSTEM.DIHEDRAL>
0

>  <SCORE.SYSTEM.SOLV>
0

>  <SCORE.SYSTEM.norm>
0

>  <SCORE.heavy>
26

>  <SCORE.norm>
-0.746444

>  <RMSD>
7.931

$$$$
ligand
 OpenBabel11021811483D
libRbt.so/2013.1/901 2013/11/27
 26 28  0  0  0  0  0  0  0  0999 V2000
   40.9131   12.3067    4.1154 N   0  0  0  0  0  0  0  0  0  0  0  0
   40.4403   11.6385    5.3214 C   0  0  2  0  0  0  0  0  0  0  0  0
   40.0749   10.1862    5.0365 C   0  0  0  0  0  0  0  0  0  0  0  0
   40.6979    9.5279    4.2044 O   0  0  0  0  0  0  0  0  0  0  0  0
   39.2402   12.3745    5.9038 C   0  0  0  0  0  0  0  0  0  0  0  0
   39.4647   13.8669    6.1089 C   0  0  0  0  0  0  0  0  0  0  0  0
   37.9214   14.7673    6.4020 S   0  0  0  0  0  0  0  0  0  0  0  0
   38.0170   14.3636    8.1644 C   0  0  0  0  0  0  0  0  0  0  0  0
   37.1778   15.2978    9.0283 C   0  0  1  0  0  0  0  0  0  0  0  0
   37.6243   16.6323    8.8717 O   0  0  0  0  0  0  0  0  0  0  0  0
   35.7094   15.2505    8.6386 C   0  0  1  0  0  0  0  0  0  0  0  0
   34.9426   14.7576    9.7116 O   0  0  0  0  0  0  0  0  0  0  0  0
   35.3162   16.6811    8.3337 C   0  0  1  0  0  0  0  0  0  0  0  0
   34.2546   17.0798    9.1695 O   0  0  0  0  0  0  0  0  0  0  0  0
   36.5503   17.5192    8.6200 C   0  0  2  0  0  0  0  0  0  0  0  0
   39.1477    9.6368    5.6326 O   0  0  0  0  0  0  0  0  0  0  0  0
   36.7466   17.8554    3.3840 N   0  0  0  0  0  0  0  0  0  0  0  0
   36.3645   16.7750    4.1535 C   0  0  0  0  0  0  0  0  0  0  0  0
   36.3737   16.8651    5.5314 N   0  0  0  0  0  0  0  0  0  0  0  0
   36.7593   18.0135    6.1392 C   0  0  0  0  0  0  0  0  0  0  0  0
   37.1477   19.1107    5.3825 C   0  0  0  0  0  0  0  0  0  0  0  0
   37.1403   19.0286    3.9953 C   0  0  0  0  0  0  0  0  0  0  0  0
   37.5111   20.0729    3.2604 N   0  0  0  0  0  0  0  0  0  0  0  0
   37.4766   20.1069    6.2331 N   0  0  0  0  0  0  0  0  0  0  0  0
   37.3072   19.6695    7.5021 C   0  0  0  0  0  0  0  0  0  0  0  0
   36.8627   18.3731    7.4599 N   0  0  0  0  0  0  0  0  0  0  0  0
  2  1  1  6  0  0  0
  2  3  1  0  0  0  0
  2  5  1  0  0  0  0
  3  4  1  0  0  0  0
  3 16  1  0  0  0  0
  5  6  1  0  0  0  0
  6  7  1  0  0  0  0
  7  8  1  0  0  0  0
  9  8  1  6  0  0  0
  9 10  1  0  0  0  0
  9 11  1  0  0  0  0
 10 15  1  0  0  0  0
 11 12  1  1  0  0  0
 11 13  1  0  0  0  0
 13 14  1  1  0  0  0
 13 15  1  0  0  0  0
 15 26  1  6  0  0  0
 17 18  2  0  0  0  0
 17 22  1  0  0  0  0
 18 19  1  0  0  0  0
 19 20  2  0  0  0  0
 20 21  1  0  0  0  0
 20 26  1  0  0  0  0
 21 22  2  0  0  0  0
 21 24  1  0  0  0  0
 22 23  1  0  0  0  0
 24 25  2  0  0  0  0
 25 26  1  0  0  0  0
M  END
>  <CHROM.1>
33.92340258,-51.78309290,165.70523349,85.01257940,159.68985573,-60.04739664
79.55370479,37.60467823,15.54049477,6.43825607,-0.69873321,0.99722978,-0.58975406

>  <Name>
ligand

>  <RI>
0

>  <Rbt.Current_Directory>
/home/itssahil/PROJECTS/Mol_Feturizer/New_Systems/rnas/3NPQ

>  <Rbt.Executable>
rbdock ($Id: //depot/dev/client3/rdock/2013.1/src/exe/rbdock.cxx#4 $)

>  <Rbt.Library>
libRbt.so (2013.1, Build901 2013/11/27)

>  <Rbt.Parameter_File>
/export/apps/rDock/src/rDock_2013.1_src/data/scripts/dock_solv.prm

>  <Rbt.Receptor>
prm/pocket_docking_4.prm

>  <SCORE>
-19.8772

>  <SCORE.INTER>
-19.1504

>  <SCORE.INTER.CONST>
1

>  <SCORE.INTER.POLAR>
0

>  <SCORE.INTER.ROT>
7

>  <SCORE.INTER.SOLV>
15.6285

>  <SCORE.INTER.VDW>
-26.2431

>  <SCORE.INTER.norm>
-0.736554

>  <SCORE.INTRA>
-0.93482

>  <SCORE.INTRA.DIHEDRAL>
-1.80953

>  <SCORE.INTRA.DIHEDRAL.0>
6.97628

>  <SCORE.INTRA.POLAR>
0

>  <SCORE.INTRA.POLAR.0>
0

>  <SCORE.INTRA.REPUL>
0

>  <SCORE.INTRA.REPUL.0>
0

>  <SCORE.INTRA.SOLV>
0.273228

>  <SCORE.INTRA.SOLV.lig_0>
-49.8243

>  <SCORE.INTRA.VDW>
-0.166668

>  <SCORE.INTRA.VDW.0>
-1.35881

>  <SCORE.INTRA.norm>
-0.0359546

>  <SCORE.RESTR>
0.208052

>  <SCORE.RESTR.CAVITY>
0.208052

>  <SCORE.RESTR.norm>
0.00800199

>  <SCORE.SYSTEM>
0

>  <SCORE.SYSTEM.CONST>
0

>  <SCORE.SYSTEM.DIHEDRAL>
0

>  <SCORE.SYSTEM.SOLV>
0

>  <SCORE.SYSTEM.norm>
0

>  <SCORE.heavy>
26

>  <SCORE.norm>
-0.764506

>  <RMSD>
7.939

$$$$
ligand
 OpenBabel11021811483D
libRbt.so/2013.1/901 2013/11/27
 26 28  0  0  0  0  0  0  0  0999 V2000
   41.6958   17.0546    0.3333 N   0  0  0  0  0  0  0  0  0  0  0  0
   43.0058   16.4161    0.3072 C   0  0  2  0  0  0  0  0  0  0  0  0
   43.0613   15.3211   -0.7521 C   0  0  0  0  0  0  0  0  0  0  0  0
   42.0598   14.6671   -1.0400 O   0  0  0  0  0  0  0  0  0  0  0  0
   43.3448   15.8372    1.6751 C   0  0  0  0  0  0  0  0  0  0  0  0
   42.3523   14.7949    2.1733 C   0  0  0  0  0  0  0  0  0  0  0  0
   42.8044   14.1242    3.7932 S   0  0  0  0  0  0  0  0  0  0  0  0
   41.3647   13.0274    3.7445 C   0  0  0  0  0  0  0  0  0  0  0  0
   41.1159   12.3236    5.0734 C   0  0  1  0  0  0  0  0  0  0  0  0
   40.8637   13.2797    6.0869 O   0  0  0  0  0  0  0  0  0  0  0  0
   39.9128   11.3977    4.9985 C   0  0  1  0  0  0  0  0  0  0  0  0
   40.3181   10.0651    5.2038 O   0  0  0  0  0  0  0  0  0  0  0  0
   38.9842   11.8353    6.1122 C   0  0  1  0  0  0  0  0  0  0  0  0
   38.7459   10.7623    6.9932 O   0  0  0  0  0  0  0  0  0  0  0  0
   39.7080   12.9567    6.8375 C   0  0  2  0  0  0  0  0  0  0  0  0
   44.1099   15.0653   -1.3454 O   0  0  0  0  0  0  0  0  0  0  0  0
   37.9174   17.2896    4.4738 N   0  0  0  0  0  0  0  0  0  0  0  0
   38.8159   16.3629    3.9845 C   0  0  0  0  0  0  0  0  0  0  0  0
   39.1770   15.2727    4.7513 N   0  0  0  0  0  0  0  0  0  0  0  0
   38.6538   15.1045    5.9902 C   0  0  0  0  0  0  0  0  0  0  0  0
   37.7492   16.0259    6.5000 C   0  0  0  0  0  0  0  0  0  0  0  0
   37.3799   17.1253    5.7344 C   0  0  0  0  0  0  0  0  0  0  0  0
   36.5150   18.0147    6.2129 N   0  0  0  0  0  0  0  0  0  0  0  0
   37.3929   15.6179    7.7372 N   0  0  0  0  0  0  0  0  0  0  0  0
   38.0462   14.4678    8.0213 C   0  0  0  0  0  0  0  0  0  0  0  0
   38.8319   14.1369    6.9475 N   0  0  0  0  0  0  0  0  0  0  0  0
  2  1  1  1  0  0  0
  2  3  1  0  0  0  0
  2  5  1  0  0  0  0
  3  4  1  0  0  0  0
  3 16  1  0  0  0  0
  5  6  1  0  0  0  0
  6  7  1  0  0  0  0
  7  8  1  0  0  0  0
  9  8  1  6  0  0  0
  9 10  1  0  0  0  0
  9 11  1  0  0  0  0
 10 15  1  0  0  0  0
 11 12  1  1  0  0  0
 11 13  1  0  0  0  0
 13 14  1  1  0  0  0
 13 15  1  0  0  0  0
 15 26  1  6  0  0  0
 17 18  2  0  0  0  0
 17 22  1  0  0  0  0
 18 19  1  0  0  0  0
 19 20  2  0  0  0  0
 20 21  1  0  0  0  0
 20 26  1  0  0  0  0
 21 22  2  0  0  0  0
 21 24  1  0  0  0  0
 22 23  1  0  0  0  0
 24 25  2  0  0  0  0
 25 26  1  0  0  0  0
M  END
>  <CHROM.1>
-31.81054289,59.42115952,179.43343388,-178.56214814,-170.43363880,61.14915292
34.37398823,40.34045594,14.46674656,4.17449408,0.57744816,0.81533496,-0.55582629

>  <Name>
ligand

>  <RI>
0

>  <Rbt.Current_Directory>
/home/itssahil/PROJECTS/Mol_Feturizer/New_Systems/rnas/3NPQ

>  <Rbt.Executable>
rbdock ($Id: //depot/dev/client3/rdock/2013.1/src/exe/rbdock.cxx#4 $)

>  <Rbt.Library>
libRbt.so (2013.1, Build901 2013/11/27)

>  <Rbt.Parameter_File>
/export/apps/rDock/src/rDock_2013.1_src/data/scripts/dock_solv.prm

>  <Rbt.Receptor>
prm/pocket_docking_8.prm

>  <SCORE>
-12.8927

>  <SCORE.INTER>
-9.028

>  <SCORE.INTER.CONST>
1

>  <SCORE.INTER.POLAR>
0

>  <SCORE.INTER.ROT>
7

>  <SCORE.INTER.SOLV>
10.9853

>  <SCORE.INTER.VDW>
-17.9471

>  <SCORE.INTER.norm>
-0.347231

>  <SCORE.INTRA>
-3.86468

>  <SCORE.INTRA.DIHEDRAL>
-4.15096

>  <SCORE.INTRA.DIHEDRAL.0>
6.97628

>  <SCORE.INTRA.POLAR>
0

>  <SCORE.INTRA.POLAR.0>
0

>  <SCORE.INTRA.REPUL>
0

>  <SCORE.INTRA.REPUL.0>
0

>  <SCORE.INTRA.SOLV>
-0.213003

>  <SCORE.INTRA.SOLV.lig_0>
-49.8243

>  <SCORE.INTRA.VDW>
-1.68269

>  <SCORE.INTRA.VDW.0>
-1.35881

>  <SCORE.INTRA.norm>
-0.148641

>  <SCORE.RESTR>
0

>  <SCORE.RESTR.CAVITY>
0

>  <SCORE.RESTR.norm>
0

>  <SCORE.SYSTEM>
0

>  <SCORE.SYSTEM.CONST>
0

>  <SCORE.SYSTEM.DIHEDRAL>
0

>  <SCORE.SYSTEM.SOLV>
0

>  <SCORE.SYSTEM.norm>
0

>  <SCORE.heavy>
26

>  <SCORE.norm>
-0.495872

>  <RMSD>
7.942

$$$$
ligand
 OpenBabel11021811483D
libRbt.so/2013.1/901 2013/11/27
 26 28  0  0  0  0  0  0  0  0999 V2000
   41.7128    8.8924    2.9865 N   0  0  0  0  0  0  0  0  0  0  0  0
   41.1011    9.4743    4.1747 C   0  0  2  0  0  0  0  0  0  0  0  0
   39.7179    8.8842    4.4246 C   0  0  0  0  0  0  0  0  0  0  0  0
   38.9826    9.3418    5.2986 O   0  0  0  0  0  0  0  0  0  0  0  0
   41.0063   10.9888    4.0389 C   0  0  0  0  0  0  0  0  0  0  0  0
   40.4874   11.6942    5.2850 C   0  0  0  0  0  0  0  0  0  0  0  0
   40.4224   13.4930    5.0881 S   0  0  0  0  0  0  0  0  0  0  0  0
   39.9777   13.6712    6.8342 C   0  0  0  0  0  0  0  0  0  0  0  0
   38.9756   14.7943    7.0745 C   0  0  1  0  0  0  0  0  0  0  0  0
   39.3152   15.9215    6.2877 O   0  0  0  0  0  0  0  0  0  0  0  0
   37.5643   14.3735    6.6985 C   0  0  1  0  0  0  0  0  0  0  0  0
   36.7398   14.3820    7.8398 O   0  0  0  0  0  0  0  0  0  0  0  0
   37.0782   15.4028    5.6993 C   0  0  1  0  0  0  0  0  0  0  0  0
   35.9063   16.0232    6.1749 O   0  0  0  0  0  0  0  0  0  0  0  0
   38.1976   16.4226    5.5783 C   0  0  2  0  0  0  0  0  0  0  0  0
   39.3030    7.9358    3.7574 O   0  0  0  0  0  0  0  0  0  0  0  0
   37.0161   18.9082    1.1070 N   0  0  0  0  0  0  0  0  0  0  0  0
   36.3785   19.0036    2.3277 C   0  0  0  0  0  0  0  0  0  0  0  0
   36.8301   18.2699    3.4069 N   0  0  0  0  0  0  0  0  0  0  0  0
   37.9010   17.4495    3.2762 C   0  0  0  0  0  0  0  0  0  0  0  0
   38.5550   17.3396    2.0567 C   0  0  0  0  0  0  0  0  0  0  0  0
   38.1075   18.0752    0.9659 C   0  0  0  0  0  0  0  0  0  0  0  0
   38.7257   17.9772   -0.2073 N   0  0  0  0  0  0  0  0  0  0  0  0
   39.5735   16.4656    2.2084 N   0  0  0  0  0  0  0  0  0  0  0  0
   39.5798   16.0222    3.4865 C   0  0  0  0  0  0  0  0  0  0  0  0
   38.5485   16.6235    4.1609 N   0  0  0  0  0  0  0  0  0  0  0  0
  2  1  1  6  0  0  0
  2  3  1  0  0  0  0
  2  5  1  0  0  0  0
  3  4  1  0  0  0  0
  3 16  1  0  0  0  0
  5  6  1  0  0  0  0
  6  7  1  0  0  0  0
  7  8  1  0  0  0  0
  9  8  1  6  0  0  0
  9 10  1  0  0  0  0
  9 11  1  0  0  0  0
 10 15  1  0  0  0  0
 11 12  1  1  0  0  0
 11 13  1  0  0  0  0
 13 14  1  1  0  0  0
 13 15  1  0  0  0  0
 15 26  1  6  0  0  0
 17 18  2  0  0  0  0
 17 22  1  0  0  0  0
 18 19  1  0  0  0  0
 19 20  2  0  0  0  0
 20 21  1  0  0  0  0
 20 26  1  0  0  0  0
 21 22  2  0  0  0  0
 21 24  1  0  0  0  0
 22 23  1  0  0  0  0
 24 25  2  0  0  0  0
 25 26  1  0  0  0  0
M  END
>  <CHROM.1>
-172.49573487,-175.06400070,178.88581502,-173.47706324,-143.10872322,-41.62474677
-158.62022012,38.83392726,14.38828936,4.34268112,-0.84721940,1.10255119,-0.89861550

>  <Name>
ligand

>  <RI>
0

>  <Rbt.Current_Directory>
/home/itssahil/PROJECTS/Mol_Feturizer/New_Systems/rnas/3NPQ

>  <Rbt.Executable>
rbdock ($Id: //depot/dev/client3/rdock/2013.1/src/exe/rbdock.cxx#4 $)

>  <Rbt.Library>
libRbt.so (2013.1, Build901 2013/11/27)

>  <Rbt.Parameter_File>
/export/apps/rDock/src/rDock_2013.1_src/data/scripts/dock_solv.prm

>  <Rbt.Receptor>
prm/pocket_docking_7.prm

>  <SCORE>
-19.7739

>  <SCORE.INTER>
-18.3616

>  <SCORE.INTER.CONST>
1

>  <SCORE.INTER.POLAR>
0

>  <SCORE.INTER.ROT>
7

>  <SCORE.INTER.SOLV>
12.2985

>  <SCORE.INTER.VDW>
-24.6072

>  <SCORE.INTER.norm>
-0.706215

>  <SCORE.INTRA>
-1.41229

>  <SCORE.INTRA.DIHEDRAL>
-1.38659

>  <SCORE.INTRA.DIHEDRAL.0>
6.97628

>  <SCORE.INTRA.POLAR>
0

>  <SCORE.INTRA.POLAR.0>
0

>  <SCORE.INTRA.REPUL>
0

>  <SCORE.INTRA.REPUL.0>
0

>  <SCORE.INTRA.SOLV>
-0.621485

>  <SCORE.INTRA.SOLV.lig_0>
-49.8243

>  <SCORE.INTRA.VDW>
-0.408255

>  <SCORE.INTRA.VDW.0>
-1.35881

>  <SCORE.INTRA.norm>
-0.0543189

>  <SCORE.RESTR>
0

>  <SCORE.RESTR.CAVITY>
0

>  <SCORE.RESTR.norm>
0

>  <SCORE.SYSTEM>
0

>  <SCORE.SYSTEM.CONST>
0

>  <SCORE.SYSTEM.DIHEDRAL>
0

>  <SCORE.SYSTEM.SOLV>
0

>  <SCORE.SYSTEM.norm>
0

>  <SCORE.heavy>
26

>  <SCORE.norm>
-0.760534

>  <RMSD>
7.960

$$$$
ligand
 OpenBabel11021811483D
libRbt.so/2013.1/901 2013/11/27
 26 28  0  0  0  0  0  0  0  0999 V2000
   41.7943   16.6678    1.9109 N   0  0  0  0  0  0  0  0  0  0  0  0
   43.0267   15.9835    2.2815 C   0  0  2  0  0  0  0  0  0  0  0  0
   44.1322   16.2570    1.2679 C   0  0  0  0  0  0  0  0  0  0  0  0
   45.2961   15.9301    1.4966 O   0  0  0  0  0  0  0  0  0  0  0  0
   42.7886   14.4836    2.4029 C   0  0  0  0  0  0  0  0  0  0  0  0
   42.3478   13.8164    1.1067 C   0  0  0  0  0  0  0  0  0  0  0  0
   41.6758   12.1565    1.3740 S   0  0  0  0  0  0  0  0  0  0  0  0
   43.3316   11.4510    1.1773 C   0  0  0  0  0  0  0  0  0  0  0  0
   43.4008    9.9868    1.5952 C   0  0  1  0  0  0  0  0  0  0  0  0
   43.1149    9.8645    2.9766 O   0  0  0  0  0  0  0  0  0  0  0  0
   42.3922    9.1408    0.8354 C   0  0  1  0  0  0  0  0  0  0  0  0
   43.0624    8.1885    0.0440 O   0  0  0  0  0  0  0  0  0  0  0  0
   41.5582    8.4444    1.8906 C   0  0  1  0  0  0  0  0  0  0  0  0
   41.6455    7.0474    1.7322 O   0  0  0  0  0  0  0  0  0  0  0  0
   42.1522    8.8574    3.2263 C   0  0  2  0  0  0  0  0  0  0  0  0
   43.8867   16.8111    0.1958 O   0  0  0  0  0  0  0  0  0  0  0  0
   40.2995   13.0364    5.8091 N   0  0  0  0  0  0  0  0  0  0  0  0
   41.4279   12.9565    5.0181 C   0  0  0  0  0  0  0  0  0  0  0  0
   41.7671   11.7643    4.4094 N   0  0  0  0  0  0  0  0  0  0  0  0
   40.9965   10.6633    4.5847 C   0  0  0  0  0  0  0  0  0  0  0  0
   39.8581   10.7235    5.3770 C   0  0  0  0  0  0  0  0  0  0  0  0
   39.5092   11.9197    5.9923 C   0  0  0  0  0  0  0  0  0  0  0  0
   38.4216   11.9889    6.7541 N   0  0  0  0  0  0  0  0  0  0  0  0
   39.2866    9.4998    5.3774 N   0  0  0  0  0  0  0  0  0  0  0  0
   40.0312    8.6714    4.6095 C   0  0  0  0  0  0  0  0  0  0  0  0
   41.0948    9.3787    4.1111 N   0  0  0  0  0  0  0  0  0  0  0  0
  2  1  1  6  0  0  0
  2  3  1  0  0  0  0
  2  5  1  0  0  0  0
  3  4  1  0  0  0  0
  3 16  1  0  0  0  0
  5  6  1  0  0  0  0
  6  7  1  0  0  0  0
  7  8  1  0  0  0  0
  9  8  1  6  0  0  0
  9 10  1  0  0  0  0
  9 11  1  0  0  0  0
 10 15  1  0  0  0  0
 11 12  1  1  0  0  0
 11 13  1  0  0  0  0
 13 14  1  6  0  0  0
 13 15  1  0  0  0  0
 15 26  1  1  0  0  0
 17 18  2  0  0  0  0
 17 22  1  0  0  0  0
 18 19  1  0  0  0  0
 19 20  2  0  0  0  0
 20 21  1  0  0  0  0
 20 26  1  0  0  0  0
 21 22  2  0  0  0  0
 21 24  1  0  0  0  0
 22 23  1  0  0  0  0
 24 25  2  0  0  0  0
 25 26  1  0  0  0  0
M  END
>  <CHROM.1>
169.53879865,62.20505775,-165.37532406,-89.86398065,168.38863955,-63.36349488
2.99667536,41.90909763,11.78503354,2.82614944,0.94574138,0.93635915,0.18954031

>  <Name>
ligand

>  <RI>
0

>  <Rbt.Current_Directory>
/home/itssahil/PROJECTS/Mol_Feturizer/New_Systems/rnas/3NPQ

>  <Rbt.Executable>
rbdock ($Id: //depot/dev/client3/rdock/2013.1/src/exe/rbdock.cxx#4 $)

>  <Rbt.Library>
libRbt.so (2013.1, Build901 2013/11/27)

>  <Rbt.Parameter_File>
/export/apps/rDock/src/rDock_2013.1_src/data/scripts/dock_solv.prm

>  <Rbt.Receptor>
prm/pocket_docking_6.prm

>  <SCORE>
-16.7183

>  <SCORE.INTER>
-13.8394

>  <SCORE.INTER.CONST>
1

>  <SCORE.INTER.POLAR>
0

>  <SCORE.INTER.ROT>
7

>  <SCORE.INTER.SOLV>
17.1764

>  <SCORE.INTER.VDW>
-23.2184

>  <SCORE.INTER.norm>
-0.532286

>  <SCORE.INTRA>
-2.87883

>  <SCORE.INTRA.DIHEDRAL>
-2.07649

>  <SCORE.INTRA.DIHEDRAL.0>
6.97628

>  <SCORE.INTRA.POLAR>
0

>  <SCORE.INTRA.POLAR.0>
0

>  <SCORE.INTRA.REPUL>
0

>  <SCORE.INTRA.REPUL.0>
0

>  <SCORE.INTRA.SOLV>
0.160311

>  <SCORE.INTRA.SOLV.lig_0>
-49.8243

>  <SCORE.INTRA.VDW>
-1.92074

>  <SCORE.INTRA.VDW.0>
-1.35881

>  <SCORE.INTRA.norm>
-0.110724

>  <SCORE.RESTR>
0

>  <SCORE.RESTR.CAVITY>
0

>  <SCORE.RESTR.norm>
0

>  <SCORE.SYSTEM>
0

>  <SCORE.SYSTEM.CONST>
0

>  <SCORE.SYSTEM.DIHEDRAL>
0

>  <SCORE.SYSTEM.SOLV>
0

>  <SCORE.SYSTEM.norm>
0

>  <SCORE.heavy>
26

>  <SCORE.norm>
-0.64301

>  <RMSD>
8.020

$$$$
ligand
 OpenBabel11021811483D
libRbt.so/2013.1/901 2013/11/27
 26 28  0  0  0  0  0  0  0  0999 V2000
   41.7588   10.5835    3.1462 N   0  0  0  0  0  0  0  0  0  0  0  0
   41.6499    9.3126    3.8515 C   0  0  2  0  0  0  0  0  0  0  0  0
   42.2719    8.1807    3.0417 C   0  0  0  0  0  0  0  0  0  0  0  0
   43.4217    7.8020    3.2619 O   0  0  0  0  0  0  0  0  0  0  0  0
   40.1915    8.9955    4.1579 C   0  0  0  0  0  0  0  0  0  0  0  0
   39.6127    9.7904    5.3210 C   0  0  0  0  0  0  0  0  0  0  0  0
   39.9790   11.5596    5.2032 S   0  0  0  0  0  0  0  0  0  0  0  0
   38.8346   11.8905    6.5667 C   0  0  0  0  0  0  0  0  0  0  0  0
   38.9941   13.2932    7.1415 C   0  0  1  0  0  0  0  0  0  0  0  0
   39.9067   14.0370    6.3548 O   0  0  0  0  0  0  0  0  0  0  0  0
   37.6729   14.0447    7.1555 C   0  0  1  0  0  0  0  0  0  0  0  0
   37.2990   14.3351    8.4814 O   0  0  0  0  0  0  0  0  0  0  0  0
   37.9199   15.3295    6.3925 C   0  0  1  0  0  0  0  0  0  0  0  0
   37.6415   16.4405    7.2125 O   0  0  0  0  0  0  0  0  0  0  0  0
   39.3919   15.3117    6.0179 C   0  0  2  0  0  0  0  0  0  0  0  0
   41.6385    7.6178    2.1480 O   0  0  0  0  0  0  0  0  0  0  0  0
   37.4648   17.7155    1.7665 N   0  0  0  0  0  0  0  0  0  0  0  0
   36.9740   17.7449    3.0564 C   0  0  0  0  0  0  0  0  0  0  0  0
   37.6153   17.0462    4.0601 N   0  0  0  0  0  0  0  0  0  0  0  0
   38.7300   16.3252    3.7871 C   0  0  0  0  0  0  0  0  0  0  0  0
   39.2385   16.2828    2.4960 C   0  0  0  0  0  0  0  0  0  0  0  0
   38.5996   16.9839    1.4803 C   0  0  0  0  0  0  0  0  0  0  0  0
   39.0772   16.9498    0.2398 N   0  0  0  0  0  0  0  0  0  0  0  0
   40.3402   15.5017    2.5085 N   0  0  0  0  0  0  0  0  0  0  0  0
   40.5401   15.0511    3.7684 C   0  0  0  0  0  0  0  0  0  0  0  0
   39.5496   15.5534    4.5725 N   0  0  0  0  0  0  0  0  0  0  0  0
  2  1  1  6  0  0  0
  2  3  1  0  0  0  0
  2  5  1  0  0  0  0
  3  4  1  0  0  0  0
  3 16  1  0  0  0  0
  5  6  1  0  0  0  0
  6  7  1  0  0  0  0
  7  8  1  0  0  0  0
  9  8  1  6  0  0  0
  9 10  1  0  0  0  0
  9 11  1  0  0  0  0
 10 15  1  0  0  0  0
 11 12  1  1  0  0  0
 11 13  1  0  0  0  0
 13 14  1  1  0  0  0
 13 15  1  0  0  0  0
 15 26  1  6  0  0  0
 17 18  2  0  0  0  0
 17 22  1  0  0  0  0
 18 19  1  0  0  0  0
 19 20  2  0  0  0  0
 20 21  1  0  0  0  0
 20 26  1  0  0  0  0
 21 22  2  0  0  0  0
 21 24  1  0  0  0  0
 22 23  1  0  0  0  0
 24 25  2  0  0  0  0
 25 26  1  0  0  0  0
M  END
>  <CHROM.1>
97.17195767,-76.44863887,47.74658671,170.17013054,166.02511291,6.50128175
150.09384595,39.51857846,13.41719654,4.44672109,-0.56690061,1.07374211,-0.89864644

>  <Name>
ligand

>  <RI>
0

>  <Rbt.Current_Directory>
/home/itssahil/PROJECTS/Mol_Feturizer/New_Systems/rnas/3NPQ

>  <Rbt.Executable>
rbdock ($Id: //depot/dev/client3/rdock/2013.1/src/exe/rbdock.cxx#4 $)

>  <Rbt.Library>
libRbt.so (2013.1, Build901 2013/11/27)

>  <Rbt.Parameter_File>
/export/apps/rDock/src/rDock_2013.1_src/data/scripts/dock_solv.prm

>  <Rbt.Receptor>
prm/pocket_docking_8.prm

>  <SCORE>
-20.1103

>  <SCORE.INTER>
-22.7831

>  <SCORE.INTER.CONST>
1

>  <SCORE.INTER.POLAR>
0

>  <SCORE.INTER.ROT>
7

>  <SCORE.INTER.SOLV>
14.6962

>  <SCORE.INTER.VDW>
-28.3541

>  <SCORE.INTER.norm>
-0.876274

>  <SCORE.INTRA>
2.67282

>  <SCORE.INTRA.DIHEDRAL>
2.86477

>  <SCORE.INTRA.DIHEDRAL.0>
6.97628

>  <SCORE.INTRA.POLAR>
0

>  <SCORE.INTRA.POLAR.0>
0

>  <SCORE.INTRA.REPUL>
0

>  <SCORE.INTRA.REPUL.0>
0

>  <SCORE.INTRA.SOLV>
1.26164

>  <SCORE.INTRA.SOLV.lig_0>
-49.8243

>  <SCORE.INTRA.VDW>
0.609613

>  <SCORE.INTRA.VDW.0>
-1.35881

>  <SCORE.INTRA.norm>
0.102801

>  <SCORE.RESTR>
0

>  <SCORE.RESTR.CAVITY>
0

>  <SCORE.RESTR.norm>
0

>  <SCORE.SYSTEM>
0

>  <SCORE.SYSTEM.CONST>
0

>  <SCORE.SYSTEM.DIHEDRAL>
0

>  <SCORE.SYSTEM.SOLV>
0

>  <SCORE.SYSTEM.norm>
0

>  <SCORE.heavy>
26

>  <SCORE.norm>
-0.773473

>  <RMSD>
8.072

$$$$
ligand
 OpenBabel11021811483D
libRbt.so/2013.1/901 2013/11/27
 26 28  0  0  0  0  0  0  0  0999 V2000
   40.8056    8.0223    2.8694 N   0  0  0  0  0  0  0  0  0  0  0  0
   41.3431    9.3642    3.0559 C   0  0  2  0  0  0  0  0  0  0  0  0
   42.8606    9.3325    3.1982 C   0  0  0  0  0  0  0  0  0  0  0  0
   43.4382    8.3228    3.5992 O   0  0  0  0  0  0  0  0  0  0  0  0
   40.7176   10.0247    4.2781 C   0  0  0  0  0  0  0  0  0  0  0  0
   41.0760   11.4958    4.4425 C   0  0  0  0  0  0  0  0  0  0  0  0
   40.0378   12.3303    5.6690 S   0  0  0  0  0  0  0  0  0  0  0  0
   41.1902   13.7265    5.6991 C   0  0  0  0  0  0  0  0  0  0  0  0
   40.7934   14.8379    4.7344 C   0  0  1  0  0  0  0  0  0  0  0  0
   39.4072   14.7636    4.4555 O   0  0  0  0  0  0  0  0  0  0  0  0
   41.0767   16.2122    5.3187 C   0  0  1  0  0  0  0  0  0  0  0  0
   42.0411   16.8773    4.5377 O   0  0  0  0  0  0  0  0  0  0  0  0
   39.7615   16.9618    5.2690 C   0  0  1  0  0  0  0  0  0  0  0  0
   39.9041   18.1391    4.5087 O   0  0  0  0  0  0  0  0  0  0  0  0
   38.7749   16.0219    4.5977 C   0  0  2  0  0  0  0  0  0  0  0  0
   43.5449   10.3165    2.9147 O   0  0  0  0  0  0  0  0  0  0  0  0
   36.8126   15.8818    9.4656 N   0  0  0  0  0  0  0  0  0  0  0  0
   38.1297   16.0382    9.0833 C   0  0  0  0  0  0  0  0  0  0  0  0
   38.4680   16.0518    7.7446 N   0  0  0  0  0  0  0  0  0  0  0  0
   37.5106   15.9102    6.7957 C   0  0  0  0  0  0  0  0  0  0  0  0
   36.1806   15.7512    7.1603 C   0  0  0  0  0  0  0  0  0  0  0  0
   35.8317   15.7374    8.5054 C   0  0  0  0  0  0  0  0  0  0  0  0
   34.5610   15.5848    8.8663 N   0  0  0  0  0  0  0  0  0  0  0  0
   35.4507   15.6349    6.0299 N   0  0  0  0  0  0  0  0  0  0  0  0
   36.2814   15.7156    4.9651 C   0  0  0  0  0  0  0  0  0  0  0  0
   37.5620   15.8865    5.4242 N   0  0  0  0  0  0  0  0  0  0  0  0
  2  1  1  1  0  0  0
  2  3  1  0  0  0  0
  2  5  1  0  0  0  0
  3  4  1  0  0  0  0
  3 16  1  0  0  0  0
  5  6  1  0  0  0  0
  6  7  1  0  0  0  0
  7  8  1  0  0  0  0
  9  8  1  1  0  0  0
  9 10  1  0  0  0  0
  9 11  1  0  0  0  0
 10 15  1  0  0  0  0
 11 12  1  6  0  0  0
 11 13  1  0  0  0  0
 13 14  1  6  0  0  0
 13 15  1  0  0  0  0
 15 26  1  1  0  0  0
 17 18  2  0  0  0  0
 17 22  1  0  0  0  0
 18 19  1  0  0  0  0
 19 20  2  0  0  0  0
 20 21  1  0  0  0  0
 20 26  1  0  0  0  0
 21 22  2  0  0  0  0
 21 24  1  0  0  0  0
 22 23  1  0  0  0  0
 24 25  2  0  0  0  0
 25 26  1  0  0  0  0
M  END
>  <CHROM.1>
-24.82828534,-172.08684646,167.17352302,165.89149745,93.47688094,22.92912014
84.76322596,39.49838993,13.91329675,5.45154594,0.83179020,-0.57978039,-3.09142465

>  <Name>
ligand

>  <RI>
0

>  <Rbt.Current_Directory>
/home/itssahil/PROJECTS/Mol_Feturizer/New_Systems/rnas/3NPQ

>  <Rbt.Executable>
rbdock ($Id: //depot/dev/client3/rdock/2013.1/src/exe/rbdock.cxx#4 $)

>  <Rbt.Library>
libRbt.so (2013.1, Build901 2013/11/27)

>  <Rbt.Parameter_File>
/export/apps/rDock/src/rDock_2013.1_src/data/scripts/dock_solv.prm

>  <Rbt.Receptor>
prm/pocket_docking_4.prm

>  <SCORE>
-12.5115

>  <SCORE.INTER>
-12.43

>  <SCORE.INTER.CONST>
1

>  <SCORE.INTER.POLAR>
0

>  <SCORE.INTER.ROT>
7

>  <SCORE.INTER.SOLV>
20.5818

>  <SCORE.INTER.VDW>
-23.4139

>  <SCORE.INTER.norm>
-0.478077

>  <SCORE.INTRA>
-0.0836792

>  <SCORE.INTRA.DIHEDRAL>
1.85067

>  <SCORE.INTRA.DIHEDRAL.0>
6.97628

>  <SCORE.INTRA.POLAR>
0

>  <SCORE.INTRA.POLAR.0>
0

>  <SCORE.INTRA.REPUL>
0

>  <SCORE.INTRA.REPUL.0>
0

>  <SCORE.INTRA.SOLV>
-0.761837

>  <SCORE.INTRA.SOLV.lig_0>
-49.8243

>  <SCORE.INTRA.VDW>
-0.628097

>  <SCORE.INTRA.VDW.0>
-1.35881

>  <SCORE.INTRA.norm>
-0.00321843

>  <SCORE.RESTR>
0.00218479

>  <SCORE.RESTR.CAVITY>
0.00218479

>  <SCORE.RESTR.norm>
8.40305e-05

>  <SCORE.SYSTEM>
0

>  <SCORE.SYSTEM.CONST>
0

>  <SCORE.SYSTEM.DIHEDRAL>
0

>  <SCORE.SYSTEM.SOLV>
0

>  <SCORE.SYSTEM.norm>
0

>  <SCORE.heavy>
26

>  <SCORE.norm>
-0.481211

>  <RMSD>
8.074

$$$$
ligand
 OpenBabel11021811483D
libRbt.so/2013.1/901 2013/11/27
 26 28  0  0  0  0  0  0  0  0999 V2000
   39.9805    8.6897    4.7395 N   0  0  0  0  0  0  0  0  0  0  0  0
   40.6162    9.7529    3.9712 C   0  0  2  0  0  0  0  0  0  0  0  0
   41.9683    9.3043    3.4285 C   0  0  0  0  0  0  0  0  0  0  0  0
   42.5145    8.2863    3.8517 O   0  0  0  0  0  0  0  0  0  0  0  0
   40.7851   11.0020    4.8269 C   0  0  0  0  0  0  0  0  0  0  0  0
   41.2245   12.2351    4.0484 C   0  0  0  0  0  0  0  0  0  0  0  0
   41.7888   13.5738    5.1292 S   0  0  0  0  0  0  0  0  0  0  0  0
   40.0768   14.1190    5.3528 C   0  0  0  0  0  0  0  0  0  0  0  0
   39.7354   15.3451    4.5141 C   0  0  1  0  0  0  0  0  0  0  0  0
   38.3809   15.7060    4.7148 O   0  0  0  0  0  0  0  0  0  0  0  0
   40.5955   16.5392    4.8945 C   0  0  1  0  0  0  0  0  0  0  0  0
   41.3981   16.9210    3.8025 O   0  0  0  0  0  0  0  0  0  0  0  0
   39.6282   17.6517    5.2418 C   0  0  1  0  0  0  0  0  0  0  0  0
   39.8567   18.7679    4.4134 O   0  0  0  0  0  0  0  0  0  0  0  0
   38.2408   17.0876    4.9884 C   0  0  2  0  0  0  0  0  0  0  0  0
   42.5460    9.9498    2.5530 O   0  0  0  0  0  0  0  0  0  0  0  0
   36.2335   14.8977    9.3177 N   0  0  0  0  0  0  0  0  0  0  0  0
   37.0633   14.3196    8.3781 C   0  0  0  0  0  0  0  0  0  0  0  0
   37.4991   15.0518    7.2914 N   0  0  0  0  0  0  0  0  0  0  0  0
   37.1149   16.3424    7.1377 C   0  0  0  0  0  0  0  0  0  0  0  0
   36.2803   16.9412    8.0716 C   0  0  0  0  0  0  0  0  0  0  0  0
   35.8380   16.2116    9.1685 C   0  0  0  0  0  0  0  0  0  0  0  0
   35.0376   16.7745   10.0689 N   0  0  0  0  0  0  0  0  0  0  0  0
   36.0607   18.2141    7.6773 N   0  0  0  0  0  0  0  0  0  0  0  0
   36.7317   18.4342    6.5233 C   0  0  0  0  0  0  0  0  0  0  0  0
   37.3901   17.2827    6.1763 N   0  0  0  0  0  0  0  0  0  0  0  0
  2  1  1  1  0  0  0
  2  3  1  0  0  0  0
  2  5  1  0  0  0  0
  3  4  1  0  0  0  0
  3 16  1  0  0  0  0
  5  6  1  0  0  0  0
  6  7  1  0  0  0  0
  7  8  1  0  0  0  0
  9  8  1  1  0  0  0
  9 10  1  0  0  0  0
  9 11  1  0  0  0  0
 10 15  1  0  0  0  0
 11 12  1  6  0  0  0
 11 13  1  0  0  0  0
 13 14  1  6  0  0  0
 13 15  1  0  0  0  0
 15 26  1  1  0  0  0
 17 18  2  0  0  0  0
 17 22  1  0  0  0  0
 18 19  1  0  0  0  0
 19 20  2  0  0  0  0
 20 21  1  0  0  0  0
 20 26  1  0  0  0  0
 21 22  2  0  0  0  0
 21 24  1  0  0  0  0
 22 23  1  0  0  0  0
 24 25  2  0  0  0  0
 25 26  1  0  0  0  0
M  END
>  <CHROM.1>
-13.92423338,-170.29191152,-166.39915886,-84.23082793,-102.25476641,178.96544360
19.59301981,39.24557362,14.49507639,5.66904503,0.75996197,-0.75772194,2.99763398

>  <Name>
ligand

>  <RI>
0

>  <Rbt.Current_Directory>
/home/itssahil/PROJECTS/Mol_Feturizer/New_Systems/rnas/3NPQ

>  <Rbt.Executable>
rbdock ($Id: //depot/dev/client3/rdock/2013.1/src/exe/rbdock.cxx#4 $)

>  <Rbt.Library>
libRbt.so (2013.1, Build901 2013/11/27)

>  <Rbt.Parameter_File>
/export/apps/rDock/src/rDock_2013.1_src/data/scripts/dock_solv.prm

>  <Rbt.Receptor>
prm/pocket_docking_3.prm

>  <SCORE>
-11.2489

>  <SCORE.INTER>
-9.79204

>  <SCORE.INTER.CONST>
1

>  <SCORE.INTER.POLAR>
0

>  <SCORE.INTER.ROT>
7

>  <SCORE.INTER.SOLV>
20.7555

>  <SCORE.INTER.VDW>
-21.7132

>  <SCORE.INTER.norm>
-0.376617

>  <SCORE.INTRA>
-1.45684

>  <SCORE.INTRA.DIHEDRAL>
-0.520134

>  <SCORE.INTRA.DIHEDRAL.0>
6.97628

>  <SCORE.INTRA.POLAR>
0

>  <SCORE.INTRA.POLAR.0>
0

>  <SCORE.INTRA.REPUL>
0

>  <SCORE.INTRA.REPUL.0>
0

>  <SCORE.INTRA.SOLV>
-0.740856

>  <SCORE.INTRA.SOLV.lig_0>
-49.8243

>  <SCORE.INTRA.VDW>
-0.826343

>  <SCORE.INTRA.VDW.0>
-1.35881

>  <SCORE.INTRA.norm>
-0.0560322

>  <SCORE.RESTR>
0

>  <SCORE.RESTR.CAVITY>
0

>  <SCORE.RESTR.norm>
0

>  <SCORE.SYSTEM>
0

>  <SCORE.SYSTEM.CONST>
0

>  <SCORE.SYSTEM.DIHEDRAL>
0

>  <SCORE.SYSTEM.SOLV>
0

>  <SCORE.SYSTEM.norm>
0

>  <SCORE.heavy>
26

>  <SCORE.norm>
-0.432649

>  <RMSD>
8.081

$$$$
ligand
 OpenBabel11021811483D
libRbt.so/2013.1/901 2013/11/27
 26 28  0  0  0  0  0  0  0  0999 V2000
   38.2806   16.6388    1.6970 N   0  0  0  0  0  0  0  0  0  0  0  0
   37.3682   17.0466    2.7580 C   0  0  2  0  0  0  0  0  0  0  0  0
   37.5155   18.5320    3.0674 C   0  0  0  0  0  0  0  0  0  0  0  0
   38.6264   19.0537    3.1547 O   0  0  0  0  0  0  0  0  0  0  0  0
   37.6121   16.2240    4.0170 C   0  0  0  0  0  0  0  0  0  0  0  0
   39.0715   16.1643    4.4486 C   0  0  0  0  0  0  0  0  0  0  0  0
   39.3132   15.1713    5.9432 S   0  0  0  0  0  0  0  0  0  0  0  0
   38.6736   16.5307    6.9537 C   0  0  0  0  0  0  0  0  0  0  0  0
   37.9427   16.0443    8.1997 C   0  0  1  0  0  0  0  0  0  0  0  0
   37.4324   17.1495    8.9230 O   0  0  0  0  0  0  0  0  0  0  0  0
   36.7726   15.1416    7.8442 C   0  0  1  0  0  0  0  0  0  0  0  0
   36.9895   13.8486    8.3575 O   0  0  0  0  0  0  0  0  0  0  0  0
   35.5567   15.7631    8.4996 C   0  0  1  0  0  0  0  0  0  0  0  0
   34.9602   14.8430    9.3839 O   0  0  0  0  0  0  0  0  0  0  0  0
   36.0716   16.9683    9.2676 C   0  0  2  0  0  0  0  0  0  0  0  0
   36.5262   19.2457    3.2370 O   0  0  0  0  0  0  0  0  0  0  0  0
   35.6521   21.0708    6.0180 N   0  0  0  0  0  0  0  0  0  0  0  0
   36.6178   20.0845    6.0229 C   0  0  0  0  0  0  0  0  0  0  0  0
   36.5716   19.0711    6.9597 N   0  0  0  0  0  0  0  0  0  0  0  0
   35.5794   19.0374    7.8825 C   0  0  0  0  0  0  0  0  0  0  0  0
   34.5995   20.0206    7.8942 C   0  0  0  0  0  0  0  0  0  0  0  0
   34.6383   21.0435    6.9542 C   0  0  0  0  0  0  0  0  0  0  0  0
   33.7055   21.9911    6.9565 N   0  0  0  0  0  0  0  0  0  0  0  0
   33.7464   19.7455    8.9044 N   0  0  0  0  0  0  0  0  0  0  0  0
   34.1602   18.6189    9.5289 C   0  0  0  0  0  0  0  0  0  0  0  0
   35.2957   18.1682    8.9063 N   0  0  0  0  0  0  0  0  0  0  0  0
  2  1  1  6  0  0  0
  2  3  1  0  0  0  0
  2  5  1  0  0  0  0
  3  4  1  0  0  0  0
  3 16  1  0  0  0  0
  5  6  1  0  0  0  0
  6  7  1  0  0  0  0
  7  8  1  0  0  0  0
  9  8  1  6  0  0  0
  9 10  1  0  0  0  0
  9 11  1  0  0  0  0
 10 15  1  0  0  0  0
 11 12  1  1  0  0  0
 11 13  1  0  0  0  0
 13 14  1  1  0  0  0
 13 15  1  0  0  0  0
 15 26  1  6  0  0  0
 17 18  2  0  0  0  0
 17 22  1  0  0  0  0
 18 19  1  0  0  0  0
 19 20  2  0  0  0  0
 20 21  1  0  0  0  0
 20 26  1  0  0  0  0
 21 22  2  0  0  0  0
 21 24  1  0  0  0  0
 22 23  1  0  0  0  0
 24 25  2  0  0  0  0
 25 26  1  0  0  0  0
M  END
>  <CHROM.1>
-43.50328108,50.15564535,-179.75166204,-76.82755214,148.32537580,-178.19184010
29.10443822,36.68498625,17.62820808,6.55647568,0.26525339,0.92214232,-0.83736326

>  <Name>
ligand

>  <RI>
0

>  <Rbt.Current_Directory>
/home/itssahil/PROJECTS/Mol_Feturizer/New_Systems/rnas/3NPQ

>  <Rbt.Executable>
rbdock ($Id: //depot/dev/client3/rdock/2013.1/src/exe/rbdock.cxx#4 $)

>  <Rbt.Library>
libRbt.so (2013.1, Build901 2013/11/27)

>  <Rbt.Parameter_File>
/export/apps/rDock/src/rDock_2013.1_src/data/scripts/dock_solv.prm

>  <Rbt.Receptor>
prm/pocket_docking_6.prm

>  <SCORE>
-15.1641

>  <SCORE.INTER>
-12.2496

>  <SCORE.INTER.CONST>
1

>  <SCORE.INTER.POLAR>
0

>  <SCORE.INTER.ROT>
7

>  <SCORE.INTER.SOLV>
20.5884

>  <SCORE.INTER.VDW>
-23.2959

>  <SCORE.INTER.norm>
-0.471138

>  <SCORE.INTRA>
-2.91454

>  <SCORE.INTRA.DIHEDRAL>
-2.16398

>  <SCORE.INTRA.DIHEDRAL.0>
6.97628

>  <SCORE.INTRA.POLAR>
0

>  <SCORE.INTRA.POLAR.0>
0

>  <SCORE.INTRA.REPUL>
0

>  <SCORE.INTRA.REPUL.0>
0

>  <SCORE.INTRA.SOLV>
0.000436834

>  <SCORE.INTRA.SOLV.lig_0>
-49.8243

>  <SCORE.INTRA.VDW>
-1.83277

>  <SCORE.INTRA.VDW.0>
-1.35881

>  <SCORE.INTRA.norm>
-0.112098

>  <SCORE.RESTR>
0

>  <SCORE.RESTR.CAVITY>
0

>  <SCORE.RESTR.norm>
0

>  <SCORE.SYSTEM>
0

>  <SCORE.SYSTEM.CONST>
0

>  <SCORE.SYSTEM.DIHEDRAL>
0

>  <SCORE.SYSTEM.SOLV>
0

>  <SCORE.SYSTEM.norm>
0

>  <SCORE.heavy>
26

>  <SCORE.norm>
-0.583236

>  <RMSD>
8.104

$$$$
ligand
 OpenBabel11021811483D
libRbt.so/2013.1/901 2013/11/27
 26 28  0  0  0  0  0  0  0  0999 V2000
   41.6873   10.5538    3.7750 N   0  0  0  0  0  0  0  0  0  0  0  0
   40.8847   10.8694    4.9501 C   0  0  2  0  0  0  0  0  0  0  0  0
   39.6979    9.9207    5.0747 C   0  0  0  0  0  0  0  0  0  0  0  0
   39.6235    8.9053    4.3839 O   0  0  0  0  0  0  0  0  0  0  0  0
   40.3968   12.3115    4.8915 C   0  0  0  0  0  0  0  0  0  0  0  0
   39.7778   12.8124    6.1898 C   0  0  0  0  0  0  0  0  0  0  0  0
   38.8548   14.3545    5.9692 S   0  0  0  0  0  0  0  0  0  0  0  0
   38.7073   14.5269    7.7655 C   0  0  0  0  0  0  0  0  0  0  0  0
   37.6194   15.5130    8.1746 C   0  0  1  0  0  0  0  0  0  0  0  0
   37.6776   16.6649    7.3532 O   0  0  0  0  0  0  0  0  0  0  0  0
   36.2329   14.9076    8.0282 C   0  0  1  0  0  0  0  0  0  0  0  0
   35.6096   14.8230    9.2878 O   0  0  0  0  0  0  0  0  0  0  0  0
   35.4619   15.8524    7.1299 C   0  0  1  0  0  0  0  0  0  0  0  0
   34.3114   16.3209    7.7941 O   0  0  0  0  0  0  0  0  0  0  0  0
   36.4044   17.0074    6.8384 C   0  0  2  0  0  0  0  0  0  0  0  0
   38.7854   10.1476    5.8702 O   0  0  0  0  0  0  0  0  0  0  0  0
   36.6565   20.5731    2.9927 N   0  0  0  0  0  0  0  0  0  0  0  0
   36.5745   20.7931    4.3530 C   0  0  0  0  0  0  0  0  0  0  0  0
   36.5162   19.7260    5.2274 N   0  0  0  0  0  0  0  0  0  0  0  0
   36.5373   18.4548    4.7576 C   0  0  0  0  0  0  0  0  0  0  0  0
   36.6188   18.2132    3.3930 C   0  0  0  0  0  0  0  0  0  0  0  0
   36.6788   19.2816    2.5064 C   0  0  0  0  0  0  0  0  0  0  0  0
   36.7561   19.0622    1.1972 N   0  0  0  0  0  0  0  0  0  0  0  0
   36.6229   16.8755    3.2071 N   0  0  0  0  0  0  0  0  0  0  0  0
   36.5462   16.2682    4.4136 C   0  0  0  0  0  0  0  0  0  0  0  0
   36.4925   17.2346    5.3847 N   0  0  0  0  0  0  0  0  0  0  0  0
  2  1  1  6  0  0  0
  2  3  1  0  0  0  0
  2  5  1  0  0  0  0
  3  4  1  0  0  0  0
  3 16  1  0  0  0  0
  5  6  1  0  0  0  0
  6  7  1  0  0  0  0
  7  8  1  0  0  0  0
  9  8  1  6  0  0  0
  9 10  1  0  0  0  0
  9 11  1  0  0  0  0
 10 15  1  0  0  0  0
 11 12  1  1  0  0  0
 11 13  1  0  0  0  0
 13 14  1  1  0  0  0
 13 15  1  0  0  0  0
 15 26  1  6  0  0  0
 17 18  2  0  0  0  0
 17 22  1  0  0  0  0
 18 19  1  0  0  0  0
 19 20  2  0  0  0  0
 20 21  1  0  0  0  0
 20 26  1  0  0  0  0
 21 22  2  0  0  0  0
 21 24  1  0  0  0  0
 22 23  1  0  0  0  0
 24 25  2  0  0  0  0
 25 26  1  0  0  0  0
M  END
>  <CHROM.1>
11.70976257,-168.97055370,-165.85270937,-169.97575169,-162.84418933,-43.09354107
-101.41698592,37.67437920,15.30575353,5.50797312,-0.76453827,0.97630425,-0.82730780

>  <Name>
ligand

>  <RI>
0

>  <Rbt.Current_Directory>
/home/itssahil/PROJECTS/Mol_Feturizer/New_Systems/rnas/3NPQ

>  <Rbt.Executable>
rbdock ($Id: //depot/dev/client3/rdock/2013.1/src/exe/rbdock.cxx#4 $)

>  <Rbt.Library>
libRbt.so (2013.1, Build901 2013/11/27)

>  <Rbt.Parameter_File>
/export/apps/rDock/src/rDock_2013.1_src/data/scripts/dock_solv.prm

>  <Rbt.Receptor>
prm/pocket_docking_7.prm

>  <SCORE>
-23.6303

>  <SCORE.INTER>
-21.9712

>  <SCORE.INTER.CONST>
1

>  <SCORE.INTER.POLAR>
0

>  <SCORE.INTER.ROT>
7

>  <SCORE.INTER.SOLV>
18.5195

>  <SCORE.INTER.VDW>
-29.0873

>  <SCORE.INTER.norm>
-0.845048

>  <SCORE.INTRA>
-1.65904

>  <SCORE.INTRA.DIHEDRAL>
-1.54686

>  <SCORE.INTRA.DIHEDRAL.0>
6.97628

>  <SCORE.INTRA.POLAR>
0

>  <SCORE.INTRA.POLAR.0>
0

>  <SCORE.INTRA.REPUL>
0

>  <SCORE.INTRA.REPUL.0>
0

>  <SCORE.INTRA.SOLV>
-0.680374

>  <SCORE.INTRA.SOLV.lig_0>
-49.8243

>  <SCORE.INTRA.VDW>
-0.545418

>  <SCORE.INTRA.VDW.0>
-1.35881

>  <SCORE.INTRA.norm>
-0.0638091

>  <SCORE.RESTR>
0

>  <SCORE.RESTR.CAVITY>
0

>  <SCORE.RESTR.norm>
0

>  <SCORE.SYSTEM>
0

>  <SCORE.SYSTEM.CONST>
0

>  <SCORE.SYSTEM.DIHEDRAL>
0

>  <SCORE.SYSTEM.SOLV>
0

>  <SCORE.SYSTEM.norm>
0

>  <SCORE.heavy>
26

>  <SCORE.norm>
-0.908857

>  <RMSD>
8.133

$$$$
ligand
 OpenBabel11021811483D
libRbt.so/2013.1/901 2013/11/27
 26 28  0  0  0  0  0  0  0  0999 V2000
   41.8651   16.2231   -0.7684 N   0  0  0  0  0  0  0  0  0  0  0  0
   40.7533   15.5989   -1.4747 C   0  0  2  0  0  0  0  0  0  0  0  0
   39.5539   16.5371   -1.5479 C   0  0  0  0  0  0  0  0  0  0  0  0
   38.5072   16.1856   -2.0907 O   0  0  0  0  0  0  0  0  0  0  0  0
   40.3553   14.2941   -0.7964 C   0  0  0  0  0  0  0  0  0  0  0  0
   41.4616   13.2479   -0.7617 C   0  0  0  0  0  0  0  0  0  0  0  0
   40.9944   11.7746    0.1816 S   0  0  0  0  0  0  0  0  0  0  0  0
   42.6545   11.0921   -0.0563 C   0  0  0  0  0  0  0  0  0  0  0  0
   43.0887   10.1874    1.0910 C   0  0  1  0  0  0  0  0  0  0  0  0
   43.3094   10.9588    2.2578 O   0  0  0  0  0  0  0  0  0  0  0  0
   42.0279    9.1481    1.4151 C   0  0  1  0  0  0  0  0  0  0  0  0
   42.5311    7.8557    1.1730 O   0  0  0  0  0  0  0  0  0  0  0  0
   41.7194    9.3175    2.8882 C   0  0  1  0  0  0  0  0  0  0  0  0
   41.9651    8.1128    3.5757 O   0  0  0  0  0  0  0  0  0  0  0  0
   42.6577   10.4040    3.3850 C   0  0  2  0  0  0  0  0  0  0  0  0
   39.6037   17.6690   -1.0651 O   0  0  0  0  0  0  0  0  0  0  0  0
   38.5619   11.4549    6.4974 N   0  0  0  0  0  0  0  0  0  0  0  0
   38.9724   10.2278    6.0166 C   0  0  0  0  0  0  0  0  0  0  0  0
   40.0836   10.1369    5.2018 N   0  0  0  0  0  0  0  0  0  0  0  0
   40.7787   11.2510    4.8664 C   0  0  0  0  0  0  0  0  0  0  0  0
   40.3813   12.4941    5.3395 C   0  0  0  0  0  0  0  0  0  0  0  0
   39.2647   12.5941    6.1607 C   0  0  0  0  0  0  0  0  0  0  0  0
   38.8742   13.7797    6.6190 N   0  0  0  0  0  0  0  0  0  0  0  0
   41.2414   13.4170    4.8572 N   0  0  0  0  0  0  0  0  0  0  0  0
   42.1679   12.7920    4.0947 C   0  0  0  0  0  0  0  0  0  0  0  0
   41.8941   11.4485    4.0910 N   0  0  0  0  0  0  0  0  0  0  0  0
  2  1  1  1  0  0  0
  2  3  1  0  0  0  0
  2  5  1  0  0  0  0
  3  4  1  0  0  0  0
  3 16  1  0  0  0  0
  5  6  1  0  0  0  0
  6  7  1  0  0  0  0
  7  8  1  0  0  0  0
  9  8  1  6  0  0  0
  9 10  1  0  0  0  0
  9 11  1  0  0  0  0
 10 15  1  0  0  0  0
 11 12  1  1  0  0  0
 11 13  1  0  0  0  0
 13 14  1  1  0  0  0
 13 15  1  0  0  0  0
 15 26  1  6  0  0  0
 17 18  2  0  0  0  0
 17 22  1  0  0  0  0
 18 19  1  0  0  0  0
 19 20  2  0  0  0  0
 20 21  1  0  0  0  0
 20 26  1  0  0  0  0
 21 22  2  0  0  0  0
 21 24  1  0  0  0  0
 22 23  1  0  0  0  0
 24 25  2  0  0  0  0
 25 26  1  0  0  0  0
M  END
>  <CHROM.1>
-179.00573159,-61.02498011,174.84381707,-175.94522153,150.25055810,-69.58522084
153.40831760,40.98952747,12.21827876,2.15929752,1.74398803,1.03341569,-0.98027903

>  <Name>
ligand

>  <RI>
0

>  <Rbt.Current_Directory>
/home/itssahil/PROJECTS/Mol_Feturizer/New_Systems/rnas/3NPQ

>  <Rbt.Executable>
rbdock ($Id: //depot/dev/client3/rdock/2013.1/src/exe/rbdock.cxx#4 $)

>  <Rbt.Library>
libRbt.so (2013.1, Build901 2013/11/27)

>  <Rbt.Parameter_File>
/export/apps/rDock/src/rDock_2013.1_src/data/scripts/dock_solv.prm

>  <Rbt.Receptor>
prm/pocket_docking_7.prm

>  <SCORE>
-18.5092

>  <SCORE.INTER>
-16.6308

>  <SCORE.INTER.CONST>
1

>  <SCORE.INTER.POLAR>
0

>  <SCORE.INTER.ROT>
7

>  <SCORE.INTER.SOLV>
10.9861

>  <SCORE.INTER.VDW>
-23.0159

>  <SCORE.INTER.norm>
-0.639645

>  <SCORE.INTRA>
-1.87847

>  <SCORE.INTRA.DIHEDRAL>
-2.67016

>  <SCORE.INTRA.DIHEDRAL.0>
6.97628

>  <SCORE.INTRA.POLAR>
0

>  <SCORE.INTRA.POLAR.0>
0

>  <SCORE.INTRA.REPUL>
0

>  <SCORE.INTRA.REPUL.0>
0

>  <SCORE.INTRA.SOLV>
0.102766

>  <SCORE.INTRA.SOLV.lig_0>
-49.8243

>  <SCORE.INTRA.VDW>
-0.594776

>  <SCORE.INTRA.VDW.0>
-1.35881

>  <SCORE.INTRA.norm>
-0.072249

>  <SCORE.RESTR>
0

>  <SCORE.RESTR.CAVITY>
0

>  <SCORE.RESTR.norm>
0

>  <SCORE.SYSTEM>
0

>  <SCORE.SYSTEM.CONST>
0

>  <SCORE.SYSTEM.DIHEDRAL>
0

>  <SCORE.SYSTEM.SOLV>
0

>  <SCORE.SYSTEM.norm>
0

>  <SCORE.heavy>
26

>  <SCORE.norm>
-0.711894

>  <RMSD>
8.143

$$$$
ligand
 OpenBabel11021811483D
libRbt.so/2013.1/901 2013/11/27
 26 28  0  0  0  0  0  0  0  0999 V2000
   38.6861   17.4538    2.2110 N   0  0  0  0  0  0  0  0  0  0  0  0
   38.1537   16.4919    3.1680 C   0  0  2  0  0  0  0  0  0  0  0  0
   36.6371   16.6051    3.2736 C   0  0  0  0  0  0  0  0  0  0  0  0
   36.0963   17.6892    3.4883 O   0  0  0  0  0  0  0  0  0  0  0  0
   38.7893   16.6940    4.5377 C   0  0  0  0  0  0  0  0  0  0  0  0
   38.6775   15.4872    5.4601 C   0  0  0  0  0  0  0  0  0  0  0  0
   36.9623   15.1002    5.8922 S   0  0  0  0  0  0  0  0  0  0  0  0
   37.5251   14.2801    7.4051 C   0  0  0  0  0  0  0  0  0  0  0  0
   37.1424   15.0454    8.6665 C   0  0  1  0  0  0  0  0  0  0  0  0
   37.7639   16.3177    8.6671 O   0  0  0  0  0  0  0  0  0  0  0  0
   35.6405   15.2620    8.7544 C   0  0  1  0  0  0  0  0  0  0  0  0
   35.1237   14.5956    9.8818 O   0  0  0  0  0  0  0  0  0  0  0  0
   35.4461   16.7569    8.9006 C   0  0  1  0  0  0  0  0  0  0  0  0
   34.7482   17.0400   10.0911 O   0  0  0  0  0  0  0  0  0  0  0  0
   36.8427   17.3518    8.9591 C   0  0  2  0  0  0  0  0  0  0  0  0
   35.9168   15.6143    3.1460 O   0  0  0  0  0  0  0  0  0  0  0  0
   34.5498   21.5205    6.7384 N   0  0  0  0  0  0  0  0  0  0  0  0
   34.0428   20.6929    7.7200 C   0  0  0  0  0  0  0  0  0  0  0  0
   34.7924   19.6332    8.1911 N   0  0  0  0  0  0  0  0  0  0  0  0
   36.0304   19.3962    7.6930 C   0  0  0  0  0  0  0  0  0  0  0  0
   36.5574   20.2169    6.7051 C   0  0  0  0  0  0  0  0  0  0  0  0
   35.8098   21.2860    6.2261 C   0  0  0  0  0  0  0  0  0  0  0  0
   36.3040   22.0782    5.2794 N   0  0  0  0  0  0  0  0  0  0  0  0
   37.7899   19.7584    6.3974 N   0  0  0  0  0  0  0  0  0  0  0  0
   38.0542   18.6738    7.1616 C   0  0  0  0  0  0  0  0  0  0  0  0
   36.9725   18.4371    7.9702 N   0  0  0  0  0  0  0  0  0  0  0  0
  2  1  1  6  0  0  0
  2  3  1  0  0  0  0
  2  5  1  0  0  0  0
  3  4  1  0  0  0  0
  3 16  1  0  0  0  0
  5  6  1  0  0  0  0
  6  7  1  0  0  0  0
  7  8  1  0  0  0  0
  9  8  1  6  0  0  0
  9 10  1  0  0  0  0
  9 11  1  0  0  0  0
 10 15  1  0  0  0  0
 11 12  1  1  0  0  0
 11 13  1  0  0  0  0
 13 14  1  1  0  0  0
 13 15  1  0  0  0  0
 15 26  1  6  0  0  0
 17 18  2  0  0  0  0
 17 22  1  0  0  0  0
 18 19  1  0  0  0  0
 19 20  2  0  0  0  0
 20 21  1  0  0  0  0
 20 26  1  0  0  0  0
 21 22  2  0  0  0  0
 21 24  1  0  0  0  0
 22 23  1  0  0  0  0
 24 25  2  0  0  0  0
 25 26  1  0  0  0  0
M  END
>  <CHROM.1>
-52.07772204,-160.17352216,-64.28623402,-155.65677315,110.78543312,-62.38232993
160.12806118,36.59210868,17.47245248,6.60466868,-0.16463671,1.16906766,-0.62266052

>  <Name>
ligand

>  <RI>
0

>  <Rbt.Current_Directory>
/home/itssahil/PROJECTS/Mol_Feturizer/New_Systems/rnas/3NPQ

>  <Rbt.Executable>
rbdock ($Id: //depot/dev/client3/rdock/2013.1/src/exe/rbdock.cxx#4 $)

>  <Rbt.Library>
libRbt.so (2013.1, Build901 2013/11/27)

>  <Rbt.Parameter_File>
/export/apps/rDock/src/rDock_2013.1_src/data/scripts/dock_solv.prm

>  <Rbt.Receptor>
prm/pocket_docking_6.prm

>  <SCORE>
-18.6239

>  <SCORE.INTER>
-16.1511

>  <SCORE.INTER.CONST>
1

>  <SCORE.INTER.POLAR>
0

>  <SCORE.INTER.ROT>
7

>  <SCORE.INTER.SOLV>
11.4748

>  <SCORE.INTER.VDW>
-22.859

>  <SCORE.INTER.norm>
-0.621196

>  <SCORE.INTRA>
-2.4728

>  <SCORE.INTRA.DIHEDRAL>
0.300547

>  <SCORE.INTRA.DIHEDRAL.0>
6.97628

>  <SCORE.INTRA.POLAR>
0

>  <SCORE.INTRA.POLAR.0>
0

>  <SCORE.INTRA.REPUL>
0

>  <SCORE.INTRA.REPUL.0>
0

>  <SCORE.INTRA.SOLV>
-0.281643

>  <SCORE.INTRA.SOLV.lig_0>
-49.8243

>  <SCORE.INTRA.VDW>
-2.48225

>  <SCORE.INTRA.VDW.0>
-1.35881

>  <SCORE.INTRA.norm>
-0.0951075

>  <SCORE.RESTR>
0

>  <SCORE.RESTR.CAVITY>
0

>  <SCORE.RESTR.norm>
0

>  <SCORE.SYSTEM>
0

>  <SCORE.SYSTEM.CONST>
0

>  <SCORE.SYSTEM.DIHEDRAL>
0

>  <SCORE.SYSTEM.SOLV>
0

>  <SCORE.SYSTEM.norm>
0

>  <SCORE.heavy>
26

>  <SCORE.norm>
-0.716304

>  <RMSD>
8.147

$$$$
ligand
 OpenBabel11021811483D
libRbt.so/2013.1/901 2013/11/27
 26 28  0  0  0  0  0  0  0  0999 V2000
   42.0473    9.4224    3.2436 N   0  0  0  0  0  0  0  0  0  0  0  0
   41.2832   10.6461    3.4518 C   0  0  2  0  0  0  0  0  0  0  0  0
   42.1495   11.8794    3.2231 C   0  0  0  0  0  0  0  0  0  0  0  0
   43.3489   11.8707    3.4976 O   0  0  0  0  0  0  0  0  0  0  0  0
   40.6938   10.6748    4.8564 C   0  0  0  0  0  0  0  0  0  0  0  0
   39.8575   11.9121    5.1553 C   0  0  0  0  0  0  0  0  0  0  0  0
   39.1742   11.8997    6.8320 S   0  0  0  0  0  0  0  0  0  0  0  0
   38.2569   13.4188    6.4729 C   0  0  0  0  0  0  0  0  0  0  0  0
   39.1708   14.5985    6.1620 C   0  0  1  0  0  0  0  0  0  0  0  0
   38.4027   15.7787    6.0133 O   0  0  0  0  0  0  0  0  0  0  0  0
   40.1756   14.8357    7.2776 C   0  0  1  0  0  0  0  0  0  0  0  0
   41.4838   14.6365    6.7968 O   0  0  0  0  0  0  0  0  0  0  0  0
   39.9918   16.2786    7.6998 C   0  0  1  0  0  0  0  0  0  0  0  0
   41.2012   16.9848    7.5486 O   0  0  0  0  0  0  0  0  0  0  0  0
   38.9333   16.8494    6.7717 C   0  0  2  0  0  0  0  0  0  0  0  0
   41.6699   12.9139    2.7577 O   0  0  0  0  0  0  0  0  0  0  0  0
   34.8829   16.1125   10.0303 N   0  0  0  0  0  0  0  0  0  0  0  0
   35.7051   15.1583    9.4655 C   0  0  0  0  0  0  0  0  0  0  0  0
   36.7319   15.5362    8.6230 N   0  0  0  0  0  0  0  0  0  0  0  0
   36.9398   16.8458    8.3427 C   0  0  0  0  0  0  0  0  0  0  0  0
   36.1233   17.8202    8.9006 C   0  0  0  0  0  0  0  0  0  0  0  0
   35.0883   17.4483    9.7502 C   0  0  0  0  0  0  0  0  0  0  0  0
   34.2993   18.3728   10.2895 N   0  0  0  0  0  0  0  0  0  0  0  0
   36.5495   19.0230    8.4583 N   0  0  0  0  0  0  0  0  0  0  0  0
   37.6094   18.8348    7.6388 C   0  0  0  0  0  0  0  0  0  0  0  0
   37.8632   17.4899    7.5574 N   0  0  0  0  0  0  0  0  0  0  0  0
  2  1  1  1  0  0  0
  2  3  1  0  0  0  0
  2  5  1  0  0  0  0
  3  4  1  0  0  0  0
  3 16  1  0  0  0  0
  5  6  1  0  0  0  0
  6  7  1  0  0  0  0
  7  8  1  0  0  0  0
  9  8  1  1  0  0  0
  9 10  1  0  0  0  0
  9 11  1  0  0  0  0
 10 15  1  0  0  0  0
 11 12  1  6  0  0  0
 11 13  1  0  0  0  0
 13 14  1  6  0  0  0
 13 15  1  0  0  0  0
 15 26  1  1  0  0  0
 17 18  2  0  0  0  0
 17 22  1  0  0  0  0
 18 19  1  0  0  0  0
 19 20  2  0  0  0  0
 20 21  1  0  0  0  0
 20 26  1  0  0  0  0
 21 22  2  0  0  0  0
 21 24  1  0  0  0  0
 22 23  1  0  0  0  0
 24 25  2  0  0  0  0
 25 26  1  0  0  0  0
M  END
>  <CHROM.1>
-33.06752723,-179.06445474,179.81286134,-175.09916537,-62.84114978,-174.59550635
48.56354801,38.94771152,14.69477469,6.73499031,0.82783147,-0.57036418,-2.91358508

>  <Name>
ligand

>  <RI>
0

>  <Rbt.Current_Directory>
/home/itssahil/PROJECTS/Mol_Feturizer/New_Systems/rnas/3NPQ

>  <Rbt.Executable>
rbdock ($Id: //depot/dev/client3/rdock/2013.1/src/exe/rbdock.cxx#4 $)

>  <Rbt.Library>
libRbt.so (2013.1, Build901 2013/11/27)

>  <Rbt.Parameter_File>
/export/apps/rDock/src/rDock_2013.1_src/data/scripts/dock_solv.prm

>  <Rbt.Receptor>
prm/pocket_docking_4.prm

>  <SCORE>
-20.2385

>  <SCORE.INTER>
-17.0669

>  <SCORE.INTER.CONST>
1

>  <SCORE.INTER.POLAR>
0

>  <SCORE.INTER.ROT>
7

>  <SCORE.INTER.SOLV>
21.9419

>  <SCORE.INTER.VDW>
-26.9586

>  <SCORE.INTER.norm>
-0.65642

>  <SCORE.INTRA>
-3.17156

>  <SCORE.INTRA.DIHEDRAL>
-4.14863

>  <SCORE.INTRA.DIHEDRAL.0>
6.97628

>  <SCORE.INTRA.POLAR>
0

>  <SCORE.INTRA.POLAR.0>
0

>  <SCORE.INTRA.REPUL>
0

>  <SCORE.INTRA.REPUL.0>
0

>  <SCORE.INTRA.SOLV>
-0.56977

>  <SCORE.INTRA.SOLV.lig_0>
-49.8243

>  <SCORE.INTRA.VDW>
-0.812359

>  <SCORE.INTRA.VDW.0>
-1.35881

>  <SCORE.INTRA.norm>
-0.121983

>  <SCORE.RESTR>
0

>  <SCORE.RESTR.CAVITY>
0

>  <SCORE.RESTR.norm>
0

>  <SCORE.SYSTEM>
0

>  <SCORE.SYSTEM.CONST>
0

>  <SCORE.SYSTEM.DIHEDRAL>
0

>  <SCORE.SYSTEM.SOLV>
0

>  <SCORE.SYSTEM.norm>
0

>  <SCORE.heavy>
26

>  <SCORE.norm>
-0.778403

>  <RMSD>
8.218

$$$$
ligand
 OpenBabel11021811483D
libRbt.so/2013.1/901 2013/11/27
 26 28  0  0  0  0  0  0  0  0999 V2000
   41.2793   11.0208    2.9604 N   0  0  0  0  0  0  0  0  0  0  0  0
   41.2732   10.1847    4.1543 C   0  0  2  0  0  0  0  0  0  0  0  0
   41.2832    8.7050    3.7879 C   0  0  0  0  0  0  0  0  0  0  0  0
   40.2644    8.1455    3.3844 O   0  0  0  0  0  0  0  0  0  0  0  0
   40.0602   10.5002    5.0205 C   0  0  0  0  0  0  0  0  0  0  0  0
   39.9964   11.9444    5.5000 C   0  0  0  0  0  0  0  0  0  0  0  0
   38.7059   12.2069    6.7427 S   0  0  0  0  0  0  0  0  0  0  0  0
   39.1111   13.9707    6.7955 C   0  0  0  0  0  0  0  0  0  0  0  0
   38.5782   14.6597    8.0464 C   0  0  1  0  0  0  0  0  0  0  0  0
   39.1859   15.9301    8.1944 O   0  0  0  0  0  0  0  0  0  0  0  0
   37.0748   14.8700    7.9707 C   0  0  1  0  0  0  0  0  0  0  0  0
   36.4350   14.1376    8.9889 O   0  0  0  0  0  0  0  0  0  0  0  0
   36.8535   16.3535    8.1809 C   0  0  1  0  0  0  0  0  0  0  0  0
   36.0195   16.5651    9.2962 O   0  0  0  0  0  0  0  0  0  0  0  0
   38.2293   16.9446    8.4370 C   0  0  2  0  0  0  0  0  0  0  0  0
   42.3114    8.0342    3.8864 O   0  0  0  0  0  0  0  0  0  0  0  0
   39.3054   18.4731    3.5306 N   0  0  0  0  0  0  0  0  0  0  0  0
   39.1523   17.1865    4.0068 C   0  0  0  0  0  0  0  0  0  0  0  0
   38.8680   16.9681    5.3403 N   0  0  0  0  0  0  0  0  0  0  0  0
   38.7386   18.0142    6.1923 C   0  0  0  0  0  0  0  0  0  0  0  0
   38.8895   19.3154    5.7325 C   0  0  0  0  0  0  0  0  0  0  0  0
   39.1748   19.5438    4.3918 C   0  0  0  0  0  0  0  0  0  0  0  0
   39.3224   20.7858    3.9404 N   0  0  0  0  0  0  0  0  0  0  0  0
   38.7102   20.1496    6.7794 N   0  0  0  0  0  0  0  0  0  0  0  0
   38.4513   19.4126    7.8839 C   0  0  0  0  0  0  0  0  0  0  0  0
   38.4655   18.0866    7.5356 N   0  0  0  0  0  0  0  0  0  0  0  0
  2  1  1  6  0  0  0
  2  3  1  0  0  0  0
  2  5  1  0  0  0  0
  3  4  1  0  0  0  0
  3 16  1  0  0  0  0
  5  6  1  0  0  0  0
  6  7  1  0  0  0  0
  7  8  1  0  0  0  0
  9  8  1  6  0  0  0
  9 10  1  0  0  0  0
  9 11  1  0  0  0  0
 10 15  1  0  0  0  0
 11 12  1  1  0  0  0
 11 13  1  0  0  0  0
 13 14  1  1  0  0  0
 13 15  1  0  0  0  0
 15 26  1  6  0  0  0
 17 18  2  0  0  0  0
 17 22  1  0  0  0  0
 18 19  1  0  0  0  0
 19 20  2  0  0  0  0
 20 21  1  0  0  0  0
 20 26  1  0  0  0  0
 21 22  2  0  0  0  0
 21 24  1  0  0  0  0
 22 23  1  0  0  0  0
 24 25  2  0  0  0  0
 25 26  1  0  0  0  0
M  END
>  <CHROM.1>
-76.29434844,-59.87281005,-170.33848230,-177.79332466,-161.98155684,166.00574632
44.45761278,39.04559662,14.81966168,6.08439843,-1.07401146,1.01296444,-0.18225905

>  <Name>
ligand

>  <RI>
0

>  <Rbt.Current_Directory>
/home/itssahil/PROJECTS/Mol_Feturizer/New_Systems/rnas/3NPQ

>  <Rbt.Executable>
rbdock ($Id: //depot/dev/client3/rdock/2013.1/src/exe/rbdock.cxx#4 $)

>  <Rbt.Library>
libRbt.so (2013.1, Build901 2013/11/27)

>  <Rbt.Parameter_File>
/export/apps/rDock/src/rDock_2013.1_src/data/scripts/dock_solv.prm

>  <Rbt.Receptor>
prm/pocket_docking_6.prm

>  <SCORE>
-22.2964

>  <SCORE.INTER>
-19.5746

>  <SCORE.INTER.CONST>
1

>  <SCORE.INTER.POLAR>
0

>  <SCORE.INTER.ROT>
7

>  <SCORE.INTER.SOLV>
13.4973

>  <SCORE.INTER.VDW>
-25.8155

>  <SCORE.INTER.norm>
-0.752871

>  <SCORE.INTRA>
-2.72177

>  <SCORE.INTRA.DIHEDRAL>
-2.78675

>  <SCORE.INTRA.DIHEDRAL.0>
6.97628

>  <SCORE.INTRA.POLAR>
0

>  <SCORE.INTRA.POLAR.0>
0

>  <SCORE.INTRA.REPUL>
0

>  <SCORE.INTRA.REPUL.0>
0

>  <SCORE.INTRA.SOLV>
-0.172984

>  <SCORE.INTRA.SOLV.lig_0>
-49.8243

>  <SCORE.INTRA.VDW>
-1.2419

>  <SCORE.INTRA.VDW.0>
-1.35881

>  <SCORE.INTRA.norm>
-0.104683

>  <SCORE.RESTR>
0

>  <SCORE.RESTR.CAVITY>
0

>  <SCORE.RESTR.norm>
0

>  <SCORE.SYSTEM>
0

>  <SCORE.SYSTEM.CONST>
0

>  <SCORE.SYSTEM.DIHEDRAL>
0

>  <SCORE.SYSTEM.SOLV>
0

>  <SCORE.SYSTEM.norm>
0

>  <SCORE.heavy>
26

>  <SCORE.norm>
-0.857554

>  <RMSD>
8.275

$$$$
ligand
 OpenBabel11021811483D
libRbt.so/2013.1/901 2013/11/27
 26 28  0  0  0  0  0  0  0  0999 V2000
   42.8024   13.1289    4.7820 N   0  0  0  0  0  0  0  0  0  0  0  0
   41.8852   12.1234    4.2604 C   0  0  2  0  0  0  0  0  0  0  0  0
   41.5330   12.4049    2.8042 C   0  0  0  0  0  0  0  0  0  0  0  0
   41.5009   11.4977    1.9735 O   0  0  0  0  0  0  0  0  0  0  0  0
   40.6173   12.0689    5.1034 C   0  0  0  0  0  0  0  0  0  0  0  0
   40.1254   13.4305    5.5765 C   0  0  0  0  0  0  0  0  0  0  0  0
   38.6166   13.3164    6.5709 S   0  0  0  0  0  0  0  0  0  0  0  0
   39.1626   14.7263    7.5670 C   0  0  0  0  0  0  0  0  0  0  0  0
   39.4513   15.9643    6.7259 C   0  0  1  0  0  0  0  0  0  0  0  0
   38.2391   16.6158    6.3931 O   0  0  0  0  0  0  0  0  0  0  0  0
   40.3223   16.9586    7.4763 C   0  0  1  0  0  0  0  0  0  0  0  0
   41.5535   17.1167    6.8119 O   0  0  0  0  0  0  0  0  0  0  0  0
   39.5573   18.2658    7.4697 C   0  0  1  0  0  0  0  0  0  0  0  0
   40.3275   19.2741    6.8578 O   0  0  0  0  0  0  0  0  0  0  0  0
   38.2991   18.0046    6.6598 C   0  0  2  0  0  0  0  0  0  0  0  0
   41.2715   13.5469    2.4243 O   0  0  0  0  0  0  0  0  0  0  0  0
   34.8789   16.7422   10.4381 N   0  0  0  0  0  0  0  0  0  0  0  0
   35.9508   16.0034    9.9792 C   0  0  0  0  0  0  0  0  0  0  0  0
   36.7525   16.4957    8.9684 N   0  0  0  0  0  0  0  0  0  0  0  0
   36.4927   17.7067    8.4178 C   0  0  0  0  0  0  0  0  0  0  0  0
   35.4190   18.4643    8.8654 C   0  0  0  0  0  0  0  0  0  0  0  0
   34.6079   17.9764    9.8829 C   0  0  0  0  0  0  0  0  0  0  0  0
   33.5761   18.6930   10.3190 N   0  0  0  0  0  0  0  0  0  0  0  0
   35.3938   19.6113    8.1529 N   0  0  0  0  0  0  0  0  0  0  0  0
   36.4192   19.5982    7.2704 C   0  0  0  0  0  0  0  0  0  0  0  0
   37.1096   18.4235    7.4229 N   0  0  0  0  0  0  0  0  0  0  0  0
  2  1  1  1  0  0  0
  2  3  1  0  0  0  0
  2  5  1  0  0  0  0
  3  4  1  0  0  0  0
  3 16  1  0  0  0  0
  5  6  1  0  0  0  0
  6  7  1  0  0  0  0
  7  8  1  0  0  0  0
  9  8  1  1  0  0  0
  9 10  1  0  0  0  0
  9 11  1  0  0  0  0
 10 15  1  0  0  0  0
 11 12  1  6  0  0  0
 11 13  1  0  0  0  0
 13 14  1  6  0  0  0
 13 15  1  0  0  0  0
 15 26  1  1  0  0  0
 17 18  2  0  0  0  0
 17 22  1  0  0  0  0
 18 19  1  0  0  0  0
 19 20  2  0  0  0  0
 20 21  1  0  0  0  0
 20 26  1  0  0  0  0
 21 22  2  0  0  0  0
 21 24  1  0  0  0  0
 22 23  1  0  0  0  0
 24 25  2  0  0  0  0
 25 26  1  0  0  0  0
M  END
>  <CHROM.1>
136.61901047,38.62631293,179.89599383,146.36386980,56.23207817,79.30271077
38.19005029,38.63110473,15.90450894,6.79636420,-0.74872331,0.60936146,0.19637962

>  <Name>
ligand

>  <RI>
0

>  <Rbt.Current_Directory>
/home/itssahil/PROJECTS/Mol_Feturizer/New_Systems/rnas/3NPQ

>  <Rbt.Executable>
rbdock ($Id: //depot/dev/client3/rdock/2013.1/src/exe/rbdock.cxx#4 $)

>  <Rbt.Library>
libRbt.so (2013.1, Build901 2013/11/27)

>  <Rbt.Parameter_File>
/export/apps/rDock/src/rDock_2013.1_src/data/scripts/dock_solv.prm

>  <Rbt.Receptor>
prm/pocket_docking_3.prm

>  <SCORE>
-12.0493

>  <SCORE.INTER>
-11.8936

>  <SCORE.INTER.CONST>
1

>  <SCORE.INTER.POLAR>
0

>  <SCORE.INTER.ROT>
7

>  <SCORE.INTER.SOLV>
22.9332

>  <SCORE.INTER.VDW>
-23.8401

>  <SCORE.INTER.norm>
-0.457446

>  <SCORE.INTRA>
-0.155691

>  <SCORE.INTRA.DIHEDRAL>
0.0456675

>  <SCORE.INTRA.DIHEDRAL.0>
6.97628

>  <SCORE.INTRA.POLAR>
0

>  <SCORE.INTRA.POLAR.0>
0

>  <SCORE.INTRA.REPUL>
0

>  <SCORE.INTRA.REPUL.0>
0

>  <SCORE.INTRA.SOLV>
0.0457143

>  <SCORE.INTRA.SOLV.lig_0>
-49.8243

>  <SCORE.INTRA.VDW>
-0.201382

>  <SCORE.INTRA.VDW.0>
-1.35881

>  <SCORE.INTRA.norm>
-0.00598813

>  <SCORE.RESTR>
0

>  <SCORE.RESTR.CAVITY>
0

>  <SCORE.RESTR.norm>
0

>  <SCORE.SYSTEM>
0

>  <SCORE.SYSTEM.CONST>
0

>  <SCORE.SYSTEM.DIHEDRAL>
0

>  <SCORE.SYSTEM.SOLV>
0

>  <SCORE.SYSTEM.norm>
0

>  <SCORE.heavy>
26

>  <SCORE.norm>
-0.463434

>  <RMSD>
8.277

$$$$
ligand
 OpenBabel11021811483D
libRbt.so/2013.1/901 2013/11/27
 26 28  0  0  0  0  0  0  0  0999 V2000
   38.4228   10.9343    6.2551 N   0  0  0  0  0  0  0  0  0  0  0  0
   39.7983   11.2553    5.8951 C   0  0  2  0  0  0  0  0  0  0  0  0
   39.9769   12.7559    5.6943 C   0  0  0  0  0  0  0  0  0  0  0  0
   41.0760   13.2305    5.4107 O   0  0  0  0  0  0  0  0  0  0  0  0
   40.2082   10.5069    4.6330 C   0  0  0  0  0  0  0  0  0  0  0  0
   40.0799    8.9928    4.7377 C   0  0  0  0  0  0  0  0  0  0  0  0
   40.3781    8.1600    3.1578 S   0  0  0  0  0  0  0  0  0  0  0  0
   42.1627    8.3682    3.3814 C   0  0  0  0  0  0  0  0  0  0  0  0
   42.9676    7.8684    2.1874 C   0  0  1  0  0  0  0  0  0  0  0  0
   42.7114    8.6820    1.0572 O   0  0  0  0  0  0  0  0  0  0  0  0
   44.4617    7.9130    2.4628 C   0  0  1  0  0  0  0  0  0  0  0  0
   44.9944    6.6100    2.4378 O   0  0  0  0  0  0  0  0  0  0  0  0
   45.0635    8.7413    1.3467 C   0  0  1  0  0  0  0  0  0  0  0  0
   46.0272    7.9866    0.6495 O   0  0  0  0  0  0  0  0  0  0  0  0
   43.9088    9.0945    0.4251 C   0  0  2  0  0  0  0  0  0  0  0  0
   39.0253   13.5290    5.8106 O   0  0  0  0  0  0  0  0  0  0  0  0
   41.9136   13.7147    1.9220 N   0  0  0  0  0  0  0  0  0  0  0  0
   41.6616   12.4663    2.4545 C   0  0  0  0  0  0  0  0  0  0  0  0
   42.2812   11.3490    1.9305 N   0  0  0  0  0  0  0  0  0  0  0  0
   43.1400   11.4686    0.8888 C   0  0  0  0  0  0  0  0  0  0  0  0
   43.4059   12.7154    0.3392 C   0  0  0  0  0  0  0  0  0  0  0  0
   42.7872   13.8448    0.8614 C   0  0  0  0  0  0  0  0  0  0  0  0
   43.0336   15.0440    0.3424 N   0  0  0  0  0  0  0  0  0  0  0  0
   44.2854   12.5452   -0.6715 N   0  0  0  0  0  0  0  0  0  0  0  0
   44.5806   11.2290   -0.7746 C   0  0  0  0  0  0  0  0  0  0  0  0
   43.8780   10.5487    0.1863 N   0  0  0  0  0  0  0  0  0  0  0  0
  2  1  1  6  0  0  0
  2  3  1  0  0  0  0
  2  5  1  0  0  0  0
  3  4  1  0  0  0  0
  3 16  1  0  0  0  0
  5  6  1  0  0  0  0
  6  7  1  0  0  0  0
  7  8  1  0  0  0  0
  9  8  1  1  0  0  0
  9 10  1  0  0  0  0
  9 11  1  0  0  0  0
 10 15  1  0  0  0  0
 11 12  1  6  0  0  0
 11 13  1  0  0  0  0
 13 14  1  6  0  0  0
 13 15  1  0  0  0  0
 15 26  1  1  0  0  0
 17 18  2  0  0  0  0
 17 22  1  0  0  0  0
 18 19  1  0  0  0  0
 19 20  2  0  0  0  0
 20 21  1  0  0  0  0
 20 26  1  0  0  0  0
 21 22  2  0  0  0  0
 21 24  1  0  0  0  0
 22 23  1  0  0  0  0
 24 25  2  0  0  0  0
 25 26  1  0  0  0  0
M  END
>  <CHROM.1>
178.57524239,-57.55722683,172.86739021,78.15737672,-176.37746760,66.73352572
24.66443822,42.28871193,10.57781672,2.50321403,2.95821585,0.81451369,-0.25771857

>  <Name>
ligand

>  <RI>
0

>  <Rbt.Current_Directory>
/home/itssahil/PROJECTS/Mol_Feturizer/New_Systems/rnas/3NPQ

>  <Rbt.Executable>
rbdock ($Id: //depot/dev/client3/rdock/2013.1/src/exe/rbdock.cxx#4 $)

>  <Rbt.Library>
libRbt.so (2013.1, Build901 2013/11/27)

>  <Rbt.Parameter_File>
/export/apps/rDock/src/rDock_2013.1_src/data/scripts/dock_solv.prm

>  <Rbt.Receptor>
prm/pocket_docking_7.prm

>  <SCORE>
-15.9815

>  <SCORE.INTER>
-12.5381

>  <SCORE.INTER.CONST>
1

>  <SCORE.INTER.POLAR>
0

>  <SCORE.INTER.ROT>
7

>  <SCORE.INTER.SOLV>
17.5292

>  <SCORE.INTER.VDW>
-22.4685

>  <SCORE.INTER.norm>
-0.482235

>  <SCORE.INTRA>
-3.44342

>  <SCORE.INTRA.DIHEDRAL>
-3.41333

>  <SCORE.INTRA.DIHEDRAL.0>
6.97628

>  <SCORE.INTRA.POLAR>
0

>  <SCORE.INTRA.POLAR.0>
0

>  <SCORE.INTRA.REPUL>
0

>  <SCORE.INTRA.REPUL.0>
0

>  <SCORE.INTRA.SOLV>
-0.182373

>  <SCORE.INTRA.SOLV.lig_0>
-49.8243

>  <SCORE.INTRA.VDW>
-1.64558

>  <SCORE.INTRA.VDW.0>
-1.35881

>  <SCORE.INTRA.norm>
-0.132439

>  <SCORE.RESTR>
8.07881e-05

>  <SCORE.RESTR.CAVITY>
8.07881e-05

>  <SCORE.RESTR.norm>
3.10724e-06

>  <SCORE.SYSTEM>
0

>  <SCORE.SYSTEM.CONST>
0

>  <SCORE.SYSTEM.DIHEDRAL>
0

>  <SCORE.SYSTEM.SOLV>
0

>  <SCORE.SYSTEM.norm>
0

>  <SCORE.heavy>
26

>  <SCORE.norm>
-0.614671

>  <RMSD>
8.283

$$$$
ligand
 OpenBabel11021811483D
libRbt.so/2013.1/901 2013/11/27
 26 28  0  0  0  0  0  0  0  0999 V2000
   41.3262   14.2907    4.0709 N   0  0  0  0  0  0  0  0  0  0  0  0
   41.4022   14.0077    5.4987 C   0  0  2  0  0  0  0  0  0  0  0  0
   40.0389   13.6090    6.0523 C   0  0  0  0  0  0  0  0  0  0  0  0
   39.0007   14.0238    5.5383 O   0  0  0  0  0  0  0  0  0  0  0  0
   41.9398   15.2164    6.2545 C   0  0  0  0  0  0  0  0  0  0  0  0
   41.1302   16.4899    6.0484 C   0  0  0  0  0  0  0  0  0  0  0  0
   40.4069   17.1095    7.5883 S   0  0  0  0  0  0  0  0  0  0  0  0
   38.8075   16.3971    7.1273 C   0  0  0  0  0  0  0  0  0  0  0  0
   38.0023   15.9286    8.3338 C   0  0  1  0  0  0  0  0  0  0  0  0
   37.4755   17.0456    9.0265 O   0  0  0  0  0  0  0  0  0  0  0  0
   36.8358   15.0470    7.9187 C   0  0  1  0  0  0  0  0  0  0  0  0
   37.0005   13.7519    8.4457 O   0  0  0  0  0  0  0  0  0  0  0  0
   35.5989   15.6935    8.5071 C   0  0  1  0  0  0  0  0  0  0  0  0
   34.9389   14.7877    9.3605 O   0  0  0  0  0  0  0  0  0  0  0  0
   36.0952   16.8912    9.2988 C   0  0  2  0  0  0  0  0  0  0  0  0
   39.9439   12.8619    7.0268 O   0  0  0  0  0  0  0  0  0  0  0  0
   35.7426   20.8139    5.8267 N   0  0  0  0  0  0  0  0  0  0  0  0
   36.6610   19.7838    5.8563 C   0  0  0  0  0  0  0  0  0  0  0  0
   36.6036   18.8299    6.8531 N   0  0  0  0  0  0  0  0  0  0  0  0
   35.6469   18.8980    7.8107 C   0  0  0  0  0  0  0  0  0  0  0  0
   34.7148   19.9266    7.7983 C   0  0  0  0  0  0  0  0  0  0  0  0
   34.7651   20.8901    6.7981 C   0  0  0  0  0  0  0  0  0  0  0  0
   33.8780   21.8805    6.7767 N   0  0  0  0  0  0  0  0  0  0  0  0
   33.8890   19.7523    8.8527 N   0  0  0  0  0  0  0  0  0  0  0  0
   34.2736   18.6451    9.5283 C   0  0  0  0  0  0  0  0  0  0  0  0
   35.3624   18.1045    8.8941 N   0  0  0  0  0  0  0  0  0  0  0  0
  2  1  1  6  0  0  0
  2  3  1  0  0  0  0
  2  5  1  0  0  0  0
  3  4  1  0  0  0  0
  3 16  1  0  0  0  0
  5  6  1  0  0  0  0
  6  7  1  0  0  0  0
  7  8  1  0  0  0  0
  9  8  1  6  0  0  0
  9 10  1  0  0  0  0
  9 11  1  0  0  0  0
 10 15  1  0  0  0  0
 11 12  1  1  0  0  0
 11 13  1  0  0  0  0
 13 14  1  1  0  0  0
 13 15  1  0  0  0  0
 15 26  1  6  0  0  0
 17 18  2  0  0  0  0
 17 22  1  0  0  0  0
 18 19  1  0  0  0  0
 19 20  2  0  0  0  0
 20 21  1  0  0  0  0
 20 26  1  0  0  0  0
 21 22  2  0  0  0  0
 21 24  1  0  0  0  0
 22 23  1  0  0  0  0
 24 25  2  0  0  0  0
 25 26  1  0  0  0  0
M  END
>  <CHROM.1>
-28.37271539,56.98622827,117.99826510,-100.87807493,147.54139062,74.06786155
35.39620228,37.55972022,16.85688668,7.36903194,-0.57067869,0.54232329,-0.38336753

>  <Name>
ligand

>  <RI>
0

>  <Rbt.Current_Directory>
/home/itssahil/PROJECTS/Mol_Feturizer/New_Systems/rnas/3NPQ

>  <Rbt.Executable>
rbdock ($Id: //depot/dev/client3/rdock/2013.1/src/exe/rbdock.cxx#4 $)

>  <Rbt.Library>
libRbt.so (2013.1, Build901 2013/11/27)

>  <Rbt.Parameter_File>
/export/apps/rDock/src/rDock_2013.1_src/data/scripts/dock_solv.prm

>  <Rbt.Receptor>
prm/pocket_docking_6.prm

>  <SCORE>
-12.8804

>  <SCORE.INTER>
-13.0214

>  <SCORE.INTER.CONST>
1

>  <SCORE.INTER.POLAR>
0

>  <SCORE.INTER.ROT>
7

>  <SCORE.INTER.SOLV>
18.8335

>  <SCORE.INTER.VDW>
-23.2254

>  <SCORE.INTER.norm>
-0.500822

>  <SCORE.INTRA>
0.141016

>  <SCORE.INTRA.DIHEDRAL>
5.12282

>  <SCORE.INTRA.DIHEDRAL.0>
6.97628

>  <SCORE.INTRA.POLAR>
0

>  <SCORE.INTRA.POLAR.0>
0

>  <SCORE.INTRA.REPUL>
0

>  <SCORE.INTRA.REPUL.0>
0

>  <SCORE.INTRA.SOLV>
0.123083

>  <SCORE.INTRA.SOLV.lig_0>
-49.8243

>  <SCORE.INTRA.VDW>
-2.48194

>  <SCORE.INTRA.VDW.0>
-1.35881

>  <SCORE.INTRA.norm>
0.00542371

>  <SCORE.RESTR>
0

>  <SCORE.RESTR.CAVITY>
0

>  <SCORE.RESTR.norm>
0

>  <SCORE.SYSTEM>
0

>  <SCORE.SYSTEM.CONST>
0

>  <SCORE.SYSTEM.DIHEDRAL>
0

>  <SCORE.SYSTEM.SOLV>
0

>  <SCORE.SYSTEM.norm>
0

>  <SCORE.heavy>
26

>  <SCORE.norm>
-0.495398

>  <RMSD>
8.393

$$$$
ligand
 OpenBabel11021811483D
libRbt.so/2013.1/901 2013/11/27
 26 28  0  0  0  0  0  0  0  0999 V2000
   40.1733   15.0643   -2.5124 N   0  0  0  0  0  0  0  0  0  0  0  0
   40.5693   13.7859   -1.9351 C   0  0  2  0  0  0  0  0  0  0  0  0
   39.5914   13.3471   -0.8510 C   0  0  0  0  0  0  0  0  0  0  0  0
   39.2578   14.1158    0.0499 O   0  0  0  0  0  0  0  0  0  0  0  0
   41.9788   13.8722   -1.3632 C   0  0  0  0  0  0  0  0  0  0  0  0
   42.5742   12.5268   -0.9693 C   0  0  0  0  0  0  0  0  0  0  0  0
   41.8485   11.8651    0.5518 S   0  0  0  0  0  0  0  0  0  0  0  0
   43.0455   10.5067    0.5357 C   0  0  0  0  0  0  0  0  0  0  0  0
   42.9452    9.6194    1.7710 C   0  0  1  0  0  0  0  0  0  0  0  0
   43.1187   10.3981    2.9408 O   0  0  0  0  0  0  0  0  0  0  0  0
   41.5885    8.9401    1.8621 C   0  0  1  0  0  0  0  0  0  0  0  0
   41.7427    7.5437    1.7701 O   0  0  0  0  0  0  0  0  0  0  0  0
   41.0300    9.3123    3.2199 C   0  0  1  0  0  0  0  0  0  0  0  0
   40.7677    8.1496    3.9706 O   0  0  0  0  0  0  0  0  0  0  0  0
   42.1082   10.1403    3.8977 C   0  0  2  0  0  0  0  0  0  0  0  0
   39.1114   12.2128   -0.8513 O   0  0  0  0  0  0  0  0  0  0  0  0
   38.3898   12.4078    6.8302 N   0  0  0  0  0  0  0  0  0  0  0  0
   38.5972   11.0607    6.6113 C   0  0  0  0  0  0  0  0  0  0  0  0
   39.6346   10.6395    5.8031 N   0  0  0  0  0  0  0  0  0  0  0  0
   40.4561   11.5445    5.2173 C   0  0  0  0  0  0  0  0  0  0  0  0
   40.2633   12.9035    5.4249 C   0  0  0  0  0  0  0  0  0  0  0  0
   39.2222   13.3356    6.2376 C   0  0  0  0  0  0  0  0  0  0  0  0
   39.0275   14.6349    6.4428 N   0  0  0  0  0  0  0  0  0  0  0  0
   41.2126   13.5687    4.7318 N   0  0  0  0  0  0  0  0  0  0  0  0
   41.9967   12.6692    4.0942 C   0  0  0  0  0  0  0  0  0  0  0  0
   41.5399   11.4098    4.3857 N   0  0  0  0  0  0  0  0  0  0  0  0
  2  1  1  1  0  0  0
  2  3  1  0  0  0  0
  2  5  1  0  0  0  0
  3  4  1  0  0  0  0
  3 16  1  0  0  0  0
  5  6  1  0  0  0  0
  6  7  1  0  0  0  0
  7  8  1  0  0  0  0
  9  8  1  6  0  0  0
  9 10  1  0  0  0  0
  9 11  1  0  0  0  0
 10 15  1  0  0  0  0
 11 12  1  1  0  0  0
 11 13  1  0  0  0  0
 13 14  1  1  0  0  0
 13 15  1  0  0  0  0
 15 26  1  6  0  0  0
 17 18  2  0  0  0  0
 17 22  1  0  0  0  0
 18 19  1  0  0  0  0
 19 20  2  0  0  0  0
 20 21  1  0  0  0  0
 20 26  1  0  0  0  0
 21 22  2  0  0  0  0
 21 24  1  0  0  0  0
 22 23  1  0  0  0  0
 24 25  2  0  0  0  0
 25 26  1  0  0  0  0
M  END
>  <CHROM.1>
-49.74827966,-169.39897123,-73.96082667,-173.81526214,175.23807754,-57.11810258
173.19073336,40.90137452,11.71988943,2.43552587,1.25964030,1.06032615,-1.08698649

>  <Name>
ligand

>  <RI>
0

>  <Rbt.Current_Directory>
/home/itssahil/PROJECTS/Mol_Feturizer/New_Systems/rnas/3NPQ

>  <Rbt.Executable>
rbdock ($Id: //depot/dev/client3/rdock/2013.1/src/exe/rbdock.cxx#4 $)

>  <Rbt.Library>
libRbt.so (2013.1, Build901 2013/11/27)

>  <Rbt.Parameter_File>
/export/apps/rDock/src/rDock_2013.1_src/data/scripts/dock_solv.prm

>  <Rbt.Receptor>
prm/pocket_docking_8.prm

>  <SCORE>
-21.5661

>  <SCORE.INTER>
-18.093

>  <SCORE.INTER.CONST>
1

>  <SCORE.INTER.POLAR>
0

>  <SCORE.INTER.ROT>
7

>  <SCORE.INTER.SOLV>
10.0733

>  <SCORE.INTER.VDW>
-23.6864

>  <SCORE.INTER.norm>
-0.695885

>  <SCORE.INTRA>
-3.4731

>  <SCORE.INTRA.DIHEDRAL>
-3.05191

>  <SCORE.INTRA.DIHEDRAL.0>
6.97628

>  <SCORE.INTRA.POLAR>
0

>  <SCORE.INTRA.POLAR.0>
0

>  <SCORE.INTRA.REPUL>
0

>  <SCORE.INTRA.REPUL.0>
0

>  <SCORE.INTRA.SOLV>
-0.407965

>  <SCORE.INTRA.SOLV.lig_0>
-49.8243

>  <SCORE.INTRA.VDW>
-1.74316

>  <SCORE.INTRA.VDW.0>
-1.35881

>  <SCORE.INTRA.norm>
-0.133581

>  <SCORE.RESTR>
0

>  <SCORE.RESTR.CAVITY>
0

>  <SCORE.RESTR.norm>
0

>  <SCORE.SYSTEM>
0

>  <SCORE.SYSTEM.CONST>
0

>  <SCORE.SYSTEM.DIHEDRAL>
0

>  <SCORE.SYSTEM.SOLV>
0

>  <SCORE.SYSTEM.norm>
0

>  <SCORE.heavy>
26

>  <SCORE.norm>
-0.829465

>  <RMSD>
8.455

$$$$
ligand
 OpenBabel11021811483D
libRbt.so/2013.1/901 2013/11/27
 26 28  0  0  0  0  0  0  0  0999 V2000
   37.7023   17.9873    1.4383 N   0  0  0  0  0  0  0  0  0  0  0  0
   38.1538   17.2487    2.6109 C   0  0  2  0  0  0  0  0  0  0  0  0
   39.2127   16.2181    2.2360 C   0  0  0  0  0  0  0  0  0  0  0  0
   40.1665   15.9908    2.9792 O   0  0  0  0  0  0  0  0  0  0  0  0
   36.9777   16.5639    3.2958 C   0  0  0  0  0  0  0  0  0  0  0  0
   37.2669   16.1061    4.7194 C   0  0  0  0  0  0  0  0  0  0  0  0
   37.6524   17.4852    5.8273 S   0  0  0  0  0  0  0  0  0  0  0  0
   38.6037   16.3698    6.8899 C   0  0  0  0  0  0  0  0  0  0  0  0
   37.8744   16.0247    8.1831 C   0  0  1  0  0  0  0  0  0  0  0  0
   37.3683   17.2038    8.7820 O   0  0  0  0  0  0  0  0  0  0  0  0
   36.7015   15.0915    7.9310 C   0  0  1  0  0  0  0  0  0  0  0  0
   36.9165   13.8620    8.5824 O   0  0  0  0  0  0  0  0  0  0  0  0
   35.4885   15.7841    8.5168 C   0  0  1  0  0  0  0  0  0  0  0  0
   34.8919   14.9679    9.4977 O   0  0  0  0  0  0  0  0  0  0  0  0
   36.0080   17.0648    9.1472 C   0  0  2  0  0  0  0  0  0  0  0  0
   39.1386   15.5879    1.1804 O   0  0  0  0  0  0  0  0  0  0  0  0
   36.1991   21.7692    6.8235 N   0  0  0  0  0  0  0  0  0  0  0  0
   37.2503   20.9296    7.1329 C   0  0  0  0  0  0  0  0  0  0  0  0
   37.0131   19.7172    7.7497 N   0  0  0  0  0  0  0  0  0  0  0  0
   35.7475   19.3425    8.0577 C   0  0  0  0  0  0  0  0  0  0  0  0
   34.6773   20.1733    7.7552 C   0  0  0  0  0  0  0  0  0  0  0  0
   34.9074   21.3948    7.1336 C   0  0  0  0  0  0  0  0  0  0  0  0
   33.8900   22.1991    6.8400 N   0  0  0  0  0  0  0  0  0  0  0  0
   33.5461   19.5605    8.1661 N   0  0  0  0  0  0  0  0  0  0  0  0
   33.8723   18.3692    8.7182 C   0  0  0  0  0  0  0  0  0  0  0  0
   35.2339   18.2200    8.6582 N   0  0  0  0  0  0  0  0  0  0  0  0
  2  1  1  6  0  0  0
  2  3  1  0  0  0  0
  2  5  1  0  0  0  0
  3  4  1  0  0  0  0
  3 16  1  0  0  0  0
  5  6  1  0  0  0  0
  6  7  1  0  0  0  0
  7  8  1  0  0  0  0
  9  8  1  6  0  0  0
  9 10  1  0  0  0  0
  9 11  1  0  0  0  0
 10 15  1  0  0  0  0
 11 12  1  1  0  0  0
 11 13  1  0  0  0  0
 13 14  1  1  0  0  0
 13 15  1  0  0  0  0
 15 26  1  6  0  0  0
 17 18  2  0  0  0  0
 17 22  1  0  0  0  0
 18 19  1  0  0  0  0
 19 20  2  0  0  0  0
 20 21  1  0  0  0  0
 20 26  1  0  0  0  0
 21 22  2  0  0  0  0
 21 24  1  0  0  0  0
 22 23  1  0  0  0  0
 24 25  2  0  0  0  0
 25 26  1  0  0  0  0
M  END
>  <CHROM.1>
142.48478748,-163.56750494,62.56695589,-154.38277074,-105.34969068,-47.63293103
-6.27535995,36.72969441,17.63494528,6.43299769,0.17241299,1.03406920,-0.66480081

>  <Name>
ligand

>  <RI>
0

>  <Rbt.Current_Directory>
/home/itssahil/PROJECTS/Mol_Feturizer/New_Systems/rnas/3NPQ

>  <Rbt.Executable>
rbdock ($Id: //depot/dev/client3/rdock/2013.1/src/exe/rbdock.cxx#4 $)

>  <Rbt.Library>
libRbt.so (2013.1, Build901 2013/11/27)

>  <Rbt.Parameter_File>
/export/apps/rDock/src/rDock_2013.1_src/data/scripts/dock_solv.prm

>  <Rbt.Receptor>
prm/pocket_docking_5.prm

>  <SCORE>
-15.3879

>  <SCORE.INTER>
-12.9646

>  <SCORE.INTER.CONST>
1

>  <SCORE.INTER.POLAR>
0

>  <SCORE.INTER.ROT>
7

>  <SCORE.INTER.SOLV>
19.24

>  <SCORE.INTER.VDW>
-23.3231

>  <SCORE.INTER.norm>
-0.498639

>  <SCORE.INTRA>
-2.42329

>  <SCORE.INTRA.DIHEDRAL>
0.234463

>  <SCORE.INTRA.DIHEDRAL.0>
6.97628

>  <SCORE.INTRA.POLAR>
0

>  <SCORE.INTRA.POLAR.0>
0

>  <SCORE.INTRA.REPUL>
0

>  <SCORE.INTRA.REPUL.0>
0

>  <SCORE.INTRA.SOLV>
-0.215842

>  <SCORE.INTRA.SOLV.lig_0>
-49.8243

>  <SCORE.INTRA.VDW>
-2.4326

>  <SCORE.INTRA.VDW.0>
-1.35881

>  <SCORE.INTRA.norm>
-0.0932036

>  <SCORE.RESTR>
0

>  <SCORE.RESTR.CAVITY>
0

>  <SCORE.RESTR.norm>
0

>  <SCORE.SYSTEM>
0

>  <SCORE.SYSTEM.CONST>
0

>  <SCORE.SYSTEM.DIHEDRAL>
0

>  <SCORE.SYSTEM.SOLV>
0

>  <SCORE.SYSTEM.norm>
0

>  <SCORE.heavy>
26

>  <SCORE.norm>
-0.591842

>  <RMSD>
8.477

$$$$
ligand
 OpenBabel11021811483D
libRbt.so/2013.1/901 2013/11/27
 26 28  0  0  0  0  0  0  0  0999 V2000
   39.7354   14.6496    5.4811 N   0  0  0  0  0  0  0  0  0  0  0  0
   39.6310   13.5404    6.4209 C   0  0  2  0  0  0  0  0  0  0  0  0
   39.9473   12.2133    5.7406 C   0  0  0  0  0  0  0  0  0  0  0  0
   39.1880   11.2509    5.8458 O   0  0  0  0  0  0  0  0  0  0  0  0
   38.2387   13.4925    7.0375 C   0  0  0  0  0  0  0  0  0  0  0  0
   37.7868   14.8084    7.6573 C   0  0  0  0  0  0  0  0  0  0  0  0
   36.4898   14.5811    8.9001 S   0  0  0  0  0  0  0  0  0  0  0  0
   35.4152   15.7204    7.9916 C   0  0  0  0  0  0  0  0  0  0  0  0
   34.9691   16.9083    8.8362 C   0  0  1  0  0  0  0  0  0  0  0  0
   36.0914   17.6918    9.1991 O   0  0  0  0  0  0  0  0  0  0  0  0
   34.0040   17.8032    8.0760 C   0  0  1  0  0  0  0  0  0  0  0  0
   32.7501   17.8115    8.7162 O   0  0  0  0  0  0  0  0  0  0  0  0
   34.6127   19.1897    8.1085 C   0  0  1  0  0  0  0  0  0  0  0  0
   33.7195   20.0963    8.7124 O   0  0  0  0  0  0  0  0  0  0  0  0
   35.8767   19.0670    8.9421 C   0  0  2  0  0  0  0  0  0  0  0  0
   40.9700   12.0729    5.0689 O   0  0  0  0  0  0  0  0  0  0  0  0
   37.4789   21.5509    4.6027 N   0  0  0  0  0  0  0  0  0  0  0  0
   36.1958   21.1699    4.9404 C   0  0  0  0  0  0  0  0  0  0  0  0
   35.9555   20.5192    6.1344 N   0  0  0  0  0  0  0  0  0  0  0  0
   36.9767   20.2481    6.9832 C   0  0  0  0  0  0  0  0  0  0  0  0
   38.2741   20.6228    6.6611 C   0  0  0  0  0  0  0  0  0  0  0  0
   38.5243   21.2788    5.4618 C   0  0  0  0  0  0  0  0  0  0  0  0
   39.7630   21.6415    5.1424 N   0  0  0  0  0  0  0  0  0  0  0  0
   39.0819   20.2349    7.6716 N   0  0  0  0  0  0  0  0  0  0  0  0
   38.3320   19.6273    8.6196 C   0  0  0  0  0  0  0  0  0  0  0  0
   37.0245   19.6280    8.2069 N   0  0  0  0  0  0  0  0  0  0  0  0
  2  1  1  6  0  0  0
  2  3  1  0  0  0  0
  2  5  1  0  0  0  0
  3  4  1  0  0  0  0
  3 16  1  0  0  0  0
  5  6  1  0  0  0  0
  6  7  1  0  0  0  0
  7  8  1  0  0  0  0
  9  8  1  6  0  0  0
  9 10  1  0  0  0  0
  9 11  1  0  0  0  0
 10 15  1  0  0  0  0
 11 12  1  1  0  0  0
 11 13  1  0  0  0  0
 13 14  1  1  0  0  0
 13 15  1  0  0  0  0
 15 26  1  6  0  0  0
 17 18  2  0  0  0  0
 17 22  1  0  0  0  0
 18 19  1  0  0  0  0
 19 20  2  0  0  0  0
 20 21  1  0  0  0  0
 20 26  1  0  0  0  0
 21 22  2  0  0  0  0
 21 24  1  0  0  0  0
 22 23  1  0  0  0  0
 24 25  2  0  0  0  0
 25 26  1  0  0  0  0
M  END
>  <CHROM.1>
-129.55788994,-52.78605889,-157.66676042,-123.88167432,-122.19353131,63.82803536
122.18735546,37.13347275,17.35246210,7.22778187,-1.13935340,0.58128423,-0.15573822

>  <Name>
ligand

>  <RI>
0

>  <Rbt.Current_Directory>
/home/itssahil/PROJECTS/Mol_Feturizer/New_Systems/rnas/3NPQ

>  <Rbt.Executable>
rbdock ($Id: //depot/dev/client3/rdock/2013.1/src/exe/rbdock.cxx#4 $)

>  <Rbt.Library>
libRbt.so (2013.1, Build901 2013/11/27)

>  <Rbt.Parameter_File>
/export/apps/rDock/src/rDock_2013.1_src/data/scripts/dock_solv.prm

>  <Rbt.Receptor>
prm/pocket_docking_5.prm

>  <SCORE>
-20.5901

>  <SCORE.INTER>
-22.5429

>  <SCORE.INTER.CONST>
1

>  <SCORE.INTER.POLAR>
0

>  <SCORE.INTER.ROT>
7

>  <SCORE.INTER.SOLV>
11.8054

>  <SCORE.INTER.VDW>
-27.2304

>  <SCORE.INTER.norm>
-0.867035

>  <SCORE.INTRA>
1.95278

>  <SCORE.INTRA.DIHEDRAL>
2.38854

>  <SCORE.INTRA.DIHEDRAL.0>
6.97628

>  <SCORE.INTRA.POLAR>
0

>  <SCORE.INTRA.POLAR.0>
0

>  <SCORE.INTRA.REPUL>
0

>  <SCORE.INTRA.REPUL.0>
0

>  <SCORE.INTRA.SOLV>
-0.0948287

>  <SCORE.INTRA.SOLV.lig_0>
-49.8243

>  <SCORE.INTRA.VDW>
0.805925

>  <SCORE.INTRA.VDW.0>
-1.35881

>  <SCORE.INTRA.norm>
0.075107

>  <SCORE.RESTR>
0

>  <SCORE.RESTR.CAVITY>
0

>  <SCORE.RESTR.norm>
0

>  <SCORE.SYSTEM>
0

>  <SCORE.SYSTEM.CONST>
0

>  <SCORE.SYSTEM.DIHEDRAL>
0

>  <SCORE.SYSTEM.SOLV>
0

>  <SCORE.SYSTEM.norm>
0

>  <SCORE.heavy>
26

>  <SCORE.norm>
-0.791928

>  <RMSD>
8.481

$$$$
ligand
 OpenBabel11021811483D
libRbt.so/2013.1/901 2013/11/27
 26 28  0  0  0  0  0  0  0  0999 V2000
   43.0855    8.1230    2.3336 N   0  0  0  0  0  0  0  0  0  0  0  0
   42.3261    9.0144    3.2015 C   0  0  2  0  0  0  0  0  0  0  0  0
   40.9836    8.3991    3.5801 C   0  0  0  0  0  0  0  0  0  0  0  0
   40.5315    8.5167    4.7184 O   0  0  0  0  0  0  0  0  0  0  0  0
   42.1108   10.3624    2.5250 C   0  0  0  0  0  0  0  0  0  0  0  0
   41.9844   11.5315    3.4929 C   0  0  0  0  0  0  0  0  0  0  0  0
   40.5872   11.3440    4.6292 S   0  0  0  0  0  0  0  0  0  0  0  0
   40.7555   13.0767    5.1271 C   0  0  0  0  0  0  0  0  0  0  0  0
   40.1216   13.3635    6.4832 C   0  0  1  0  0  0  0  0  0  0  0  0
   40.2261   14.7434    6.7834 O   0  0  0  0  0  0  0  0  0  0  0  0
   38.6471   12.9949    6.4997 C   0  0  1  0  0  0  0  0  0  0  0  0
   38.4197   11.9630    7.4301 O   0  0  0  0  0  0  0  0  0  0  0  0
   37.9121   14.2490    6.9254 C   0  0  1  0  0  0  0  0  0  0  0  0
   37.1642   13.9989    8.0926 O   0  0  0  0  0  0  0  0  0  0  0  0
   38.9880   15.2841    7.2053 C   0  0  2  0  0  0  0  0  0  0  0  0
   40.3192    7.7701    2.7556 O   0  0  0  0  0  0  0  0  0  0  0  0
   36.3446   17.4767    3.2340 N   0  0  0  0  0  0  0  0  0  0  0  0
   36.3398   16.1551    3.6324 C   0  0  0  0  0  0  0  0  0  0  0  0
   37.1033   15.7511    4.7098 N   0  0  0  0  0  0  0  0  0  0  0  0
   37.8644   16.6478    5.3833 C   0  0  0  0  0  0  0  0  0  0  0  0
   37.8829   17.9812    4.9975 C   0  0  0  0  0  0  0  0  0  0  0  0
   37.1167   18.3961    3.9149 C   0  0  0  0  0  0  0  0  0  0  0  0
   37.1274   19.6706    3.5358 N   0  0  0  0  0  0  0  0  0  0  0  0
   38.7138   18.6437    5.8310 N   0  0  0  0  0  0  0  0  0  0  0  0
   39.2188   17.7674    6.7294 C   0  0  0  0  0  0  0  0  0  0  0  0
   38.7012   16.5257    6.4646 N   0  0  0  0  0  0  0  0  0  0  0  0
  2  1  1  6  0  0  0
  2  3  1  0  0  0  0
  2  5  1  0  0  0  0
  3  4  1  0  0  0  0
  3 16  1  0  0  0  0
  5  6  1  0  0  0  0
  6  7  1  0  0  0  0
  7  8  1  0  0  0  0
  9  8  1  6  0  0  0
  9 10  1  0  0  0  0
  9 11  1  0  0  0  0
 10 15  1  0  0  0  0
 11 12  1  1  0  0  0
 11 13  1  0  0  0  0
 13 14  1  1  0  0  0
 13 15  1  0  0  0  0
 15 26  1  6  0  0  0
 17 18  2  0  0  0  0
 17 22  1  0  0  0  0
 18 19  1  0  0  0  0
 19 20  2  0  0  0  0
 20 21  1  0  0  0  0
 20 26  1  0  0  0  0
 21 22  2  0  0  0  0
 21 24  1  0  0  0  0
 22 23  1  0  0  0  0
 24 25  2  0  0  0  0
 25 26  1  0  0  0  0
M  END
>  <CHROM.1>
140.30636824,-151.03723850,-60.27483846,-167.28530291,-158.64679410,-177.02904065
99.91417792,39.34750501,13.59728389,5.01078363,-0.23806605,1.13731995,-1.11046937

>  <Name>
ligand

>  <RI>
0

>  <Rbt.Current_Directory>
/home/itssahil/PROJECTS/Mol_Feturizer/New_Systems/rnas/3NPQ

>  <Rbt.Executable>
rbdock ($Id: //depot/dev/client3/rdock/2013.1/src/exe/rbdock.cxx#4 $)

>  <Rbt.Library>
libRbt.so (2013.1, Build901 2013/11/27)

>  <Rbt.Parameter_File>
/export/apps/rDock/src/rDock_2013.1_src/data/scripts/dock_solv.prm

>  <Rbt.Receptor>
prm/pocket_docking_7.prm

>  <SCORE>
-21.5638

>  <SCORE.INTER>
-20.7091

>  <SCORE.INTER.CONST>
1

>  <SCORE.INTER.POLAR>
0

>  <SCORE.INTER.ROT>
7

>  <SCORE.INTER.SOLV>
15.3543

>  <SCORE.INTER.VDW>
-27.1908

>  <SCORE.INTER.norm>
-0.796502

>  <SCORE.INTRA>
-0.854715

>  <SCORE.INTRA.DIHEDRAL>
-0.617458

>  <SCORE.INTRA.DIHEDRAL.0>
6.97628

>  <SCORE.INTRA.POLAR>
0

>  <SCORE.INTRA.POLAR.0>
0

>  <SCORE.INTRA.REPUL>
0

>  <SCORE.INTRA.REPUL.0>
0

>  <SCORE.INTRA.SOLV>
-0.550985

>  <SCORE.INTRA.SOLV.lig_0>
-49.8243

>  <SCORE.INTRA.VDW>
-0.270493

>  <SCORE.INTRA.VDW.0>
-1.35881

>  <SCORE.INTRA.norm>
-0.0328737

>  <SCORE.RESTR>
0

>  <SCORE.RESTR.CAVITY>
0

>  <SCORE.RESTR.norm>
0

>  <SCORE.SYSTEM>
0

>  <SCORE.SYSTEM.CONST>
0

>  <SCORE.SYSTEM.DIHEDRAL>
0

>  <SCORE.SYSTEM.SOLV>
0

>  <SCORE.SYSTEM.norm>
0

>  <SCORE.heavy>
26

>  <SCORE.norm>
-0.829376

>  <RMSD>
8.511

$$$$
ligand
 OpenBabel11021811483D
libRbt.so/2013.1/901 2013/11/27
 26 28  0  0  0  0  0  0  0  0999 V2000
   46.9306   12.4632    1.2252 N   0  0  0  0  0  0  0  0  0  0  0  0
   45.5325   12.7866    1.4803 C   0  0  2  0  0  0  0  0  0  0  0  0
   45.2965   14.2913    1.4141 C   0  0  0  0  0  0  0  0  0  0  0  0
   45.9620   15.0675    2.0985 O   0  0  0  0  0  0  0  0  0  0  0  0
   45.0996   12.2493    2.8386 C   0  0  0  0  0  0  0  0  0  0  0  0
   43.5911   12.2269    3.0473 C   0  0  0  0  0  0  0  0  0  0  0  0
   42.9322   13.8445    3.5244 S   0  0  0  0  0  0  0  0  0  0  0  0
   41.2789   13.1254    3.6913 C   0  0  0  0  0  0  0  0  0  0  0  0
   41.0798   12.4108    5.0228 C   0  0  1  0  0  0  0  0  0  0  0  0
   40.8223   13.3562    6.0450 O   0  0  0  0  0  0  0  0  0  0  0  0
   39.9026   11.4506    4.9709 C   0  0  1  0  0  0  0  0  0  0  0  0
   40.3507   10.1297    5.1625 O   0  0  0  0  0  0  0  0  0  0  0  0
   38.9864   11.8578    6.1061 C   0  0  1  0  0  0  0  0  0  0  0  0
   38.7986   10.7758    6.9883 O   0  0  0  0  0  0  0  0  0  0  0  0
   39.6932   12.9976    6.8194 C   0  0  2  0  0  0  0  0  0  0  0  0
   44.4345   14.7660    0.6736 O   0  0  0  0  0  0  0  0  0  0  0  0
   37.7567   17.3055    4.5261 N   0  0  0  0  0  0  0  0  0  0  0  0
   38.6750   16.4099    4.0163 C   0  0  0  0  0  0  0  0  0  0  0  0
   39.0747   15.3215    4.7663 N   0  0  0  0  0  0  0  0  0  0  0  0
   38.5703   15.1247    6.0088 C   0  0  0  0  0  0  0  0  0  0  0  0
   37.6462   16.0146    6.5391 C   0  0  0  0  0  0  0  0  0  0  0  0
   37.2381   17.1120    5.7905 C   0  0  0  0  0  0  0  0  0  0  0  0
   36.3542   17.9714    6.2886 N   0  0  0  0  0  0  0  0  0  0  0  0
   37.3153   15.5829    7.7753 N   0  0  0  0  0  0  0  0  0  0  0  0
   38.0034   14.4483    8.0388 C   0  0  0  0  0  0  0  0  0  0  0  0
   38.7859   14.1516    6.9527 N   0  0  0  0  0  0  0  0  0  0  0  0
  2  1  1  1  0  0  0
  2  3  1  0  0  0  0
  2  5  1  0  0  0  0
  3  4  1  0  0  0  0
  3 16  1  0  0  0  0
  5  6  1  0  0  0  0
  6  7  1  0  0  0  0
  7  8  1  0  0  0  0
  9  8  1  6  0  0  0
  9 10  1  0  0  0  0
  9 11  1  0  0  0  0
 10 15  1  0  0  0  0
 11 12  1  1  0  0  0
 11 13  1  0  0  0  0
 13 14  1  1  0  0  0
 13 15  1  0  0  0  0
 15 26  1  6  0  0  0
 17 18  2  0  0  0  0
 17 22  1  0  0  0  0
 18 19  1  0  0  0  0
 19 20  2  0  0  0  0
 20 21  1  0  0  0  0
 20 26  1  0  0  0  0
 21 22  2  0  0  0  0
 21 24  1  0  0  0  0
 22 23  1  0  0  0  0
 24 25  2  0  0  0  0
 25 26  1  0  0  0  0
M  END
>  <CHROM.1>
-54.30092509,-165.50820336,-80.88679850,-176.85615379,81.15441998,79.07581204
33.59017010,40.95775138,13.90501481,4.59369213,0.03014686,-0.59140934,2.79653868

>  <Name>
ligand

>  <RI>
0

>  <Rbt.Current_Directory>
/home/itssahil/PROJECTS/Mol_Feturizer/New_Systems/rnas/3NPQ

>  <Rbt.Executable>
rbdock ($Id: //depot/dev/client3/rdock/2013.1/src/exe/rbdock.cxx#4 $)

>  <Rbt.Library>
libRbt.so (2013.1, Build901 2013/11/27)

>  <Rbt.Parameter_File>
/export/apps/rDock/src/rDock_2013.1_src/data/scripts/dock_solv.prm

>  <Rbt.Receptor>
prm/pocket_docking_8.prm

>  <SCORE>
-13.4385

>  <SCORE.INTER>
-10.8614

>  <SCORE.INTER.CONST>
1

>  <SCORE.INTER.POLAR>
0

>  <SCORE.INTER.ROT>
7

>  <SCORE.INTER.SOLV>
11.5001

>  <SCORE.INTER.VDW>
-19.3409

>  <SCORE.INTER.norm>
-0.417744

>  <SCORE.INTRA>
-2.57712

>  <SCORE.INTRA.DIHEDRAL>
-0.145872

>  <SCORE.INTRA.DIHEDRAL.0>
6.97628

>  <SCORE.INTRA.POLAR>
0

>  <SCORE.INTRA.POLAR.0>
0

>  <SCORE.INTRA.REPUL>
0

>  <SCORE.INTRA.REPUL.0>
0

>  <SCORE.INTRA.SOLV>
-0.686422

>  <SCORE.INTRA.SOLV.lig_0>
-49.8243

>  <SCORE.INTRA.VDW>
-2.16097

>  <SCORE.INTRA.VDW.0>
-1.35881

>  <SCORE.INTRA.norm>
-0.0991199

>  <SCORE.RESTR>
0

>  <SCORE.RESTR.CAVITY>
0

>  <SCORE.RESTR.norm>
0

>  <SCORE.SYSTEM>
0

>  <SCORE.SYSTEM.CONST>
0

>  <SCORE.SYSTEM.DIHEDRAL>
0

>  <SCORE.SYSTEM.SOLV>
0

>  <SCORE.SYSTEM.norm>
0

>  <SCORE.heavy>
26

>  <SCORE.norm>
-0.516864

>  <RMSD>
8.512

$$$$
ligand
 OpenBabel11021811483D
libRbt.so/2013.1/901 2013/11/27
 26 28  0  0  0  0  0  0  0  0999 V2000
   41.8324   11.3641   -1.4448 N   0  0  0  0  0  0  0  0  0  0  0  0
   40.7969   11.6764   -0.4678 C   0  0  2  0  0  0  0  0  0  0  0  0
   39.4945   12.0700   -1.1555 C   0  0  0  0  0  0  0  0  0  0  0  0
   39.3556   13.1841   -1.6588 O   0  0  0  0  0  0  0  0  0  0  0  0
   41.2572   12.7948    0.4587 C   0  0  0  0  0  0  0  0  0  0  0  0
   42.3816   12.3959    1.4054 C   0  0  0  0  0  0  0  0  0  0  0  0
   41.8476   11.1947    2.6505 S   0  0  0  0  0  0  0  0  0  0  0  0
   41.3135   12.5466    3.7301 C   0  0  0  0  0  0  0  0  0  0  0  0
   40.9850   12.0770    5.1425 C   0  0  1  0  0  0  0  0  0  0  0  0
   40.8170   13.1940    5.9963 O   0  0  0  0  0  0  0  0  0  0  0  0
   39.6986   11.2681    5.1772 C   0  0  1  0  0  0  0  0  0  0  0  0
   39.9708    9.9492    5.5878 O   0  0  0  0  0  0  0  0  0  0  0  0
   38.8062   11.9537    6.1909 C   0  0  1  0  0  0  0  0  0  0  0  0
   38.4566   11.0526    7.2157 O   0  0  0  0  0  0  0  0  0  0  0  0
   39.6283   13.0980    6.7587 C   0  0  2  0  0  0  0  0  0  0  0  0
   38.5504   11.2821   -1.2242 O   0  0  0  0  0  0  0  0  0  0  0  0
   35.6741   15.9484    8.7095 N   0  0  0  0  0  0  0  0  0  0  0  0
   36.0986   14.6970    9.1084 C   0  0  0  0  0  0  0  0  0  0  0  0
   37.1665   14.0911    8.4765 N   0  0  0  0  0  0  0  0  0  0  0  0
   37.8051   14.7188    7.4591 C   0  0  0  0  0  0  0  0  0  0  0  0
   37.3926   15.9774    7.0431 C   0  0  0  0  0  0  0  0  0  0  0  0
   36.3193   16.5945    7.6744 C   0  0  0  0  0  0  0  0  0  0  0  0
   35.9149   17.7995    7.2838 N   0  0  0  0  0  0  0  0  0  0  0  0
   38.1942   16.3628    6.0268 N   0  0  0  0  0  0  0  0  0  0  0  0
   39.0984   15.3846    5.7906 C   0  0  0  0  0  0  0  0  0  0  0  0
   38.8697   14.3587    6.6710 N   0  0  0  0  0  0  0  0  0  0  0  0
  2  1  1  6  0  0  0
  2  3  1  0  0  0  0
  2  5  1  0  0  0  0
  3  4  1  0  0  0  0
  3 16  1  0  0  0  0
  5  6  1  0  0  0  0
  6  7  1  0  0  0  0
  7  8  1  0  0  0  0
  9  8  1  6  0  0  0
  9 10  1  0  0  0  0
  9 11  1  0  0  0  0
 10 15  1  0  0  0  0
 11 12  1  1  0  0  0
 11 13  1  0  0  0  0
 13 14  1  1  0  0  0
 13 15  1  0  0  0  0
 15 26  1  6  0  0  0
 17 18  2  0  0  0  0
 17 22  1  0  0  0  0
 18 19  1  0  0  0  0
 19 20  2  0  0  0  0
 20 21  1  0  0  0  0
 20 26  1  0  0  0  0
 21 22  2  0  0  0  0
 21 24  1  0  0  0  0
 22 23  1  0  0  0  0
 24 25  2  0  0  0  0
 25 26  1  0  0  0  0
M  END
>  <CHROM.1>
-76.61046772,-68.93868772,-68.08366620,-87.30420375,-168.66968538,169.21836230
-167.51170983,39.31633008,13.16869805,4.38737009,0.87082932,0.90902090,-1.40470694

>  <Name>
ligand

>  <RI>
0

>  <Rbt.Current_Directory>
/home/itssahil/PROJECTS/Mol_Feturizer/New_Systems/rnas/3NPQ

>  <Rbt.Executable>
rbdock ($Id: //depot/dev/client3/rdock/2013.1/src/exe/rbdock.cxx#4 $)

>  <Rbt.Library>
libRbt.so (2013.1, Build901 2013/11/27)

>  <Rbt.Parameter_File>
/export/apps/rDock/src/rDock_2013.1_src/data/scripts/dock_solv.prm

>  <Rbt.Receptor>
prm/pocket_docking_7.prm

>  <SCORE>
-20.4883

>  <SCORE.INTER>
-18.8504

>  <SCORE.INTER.CONST>
1

>  <SCORE.INTER.POLAR>
0

>  <SCORE.INTER.ROT>
7

>  <SCORE.INTER.SOLV>
13.5336

>  <SCORE.INTER.VDW>
-25.3448

>  <SCORE.INTER.norm>
-0.725015

>  <SCORE.INTRA>
-1.63795

>  <SCORE.INTRA.DIHEDRAL>
-2.0942

>  <SCORE.INTRA.DIHEDRAL.0>
6.97628

>  <SCORE.INTRA.POLAR>
0

>  <SCORE.INTRA.POLAR.0>
0

>  <SCORE.INTRA.REPUL>
0

>  <SCORE.INTRA.REPUL.0>
0

>  <SCORE.INTRA.SOLV>
0.227652

>  <SCORE.INTRA.SOLV.lig_0>
-49.8243

>  <SCORE.INTRA.VDW>
-0.704676

>  <SCORE.INTRA.VDW.0>
-1.35881

>  <SCORE.INTRA.norm>
-0.0629981

>  <SCORE.RESTR>
0

>  <SCORE.RESTR.CAVITY>
0

>  <SCORE.RESTR.norm>
0

>  <SCORE.SYSTEM>
0

>  <SCORE.SYSTEM.CONST>
0

>  <SCORE.SYSTEM.DIHEDRAL>
0

>  <SCORE.SYSTEM.SOLV>
0

>  <SCORE.SYSTEM.norm>
0

>  <SCORE.heavy>
26

>  <SCORE.norm>
-0.788013

>  <RMSD>
8.527

$$$$
ligand
 OpenBabel11021811483D
libRbt.so/2013.1/901 2013/11/27
 26 28  0  0  0  0  0  0  0  0999 V2000
   42.1175   18.0749    4.8342 N   0  0  0  0  0  0  0  0  0  0  0  0
   41.6518   17.1493    3.8091 C   0  0  2  0  0  0  0  0  0  0  0  0
   41.4102   17.8703    2.4878 C   0  0  0  0  0  0  0  0  0  0  0  0
   41.6991   17.3409    1.4154 O   0  0  0  0  0  0  0  0  0  0  0  0
   40.3774   16.4481    4.2623 C   0  0  0  0  0  0  0  0  0  0  0  0
   40.5577   15.5582    5.4851 C   0  0  0  0  0  0  0  0  0  0  0  0
   39.0260   14.7212    5.9665 S   0  0  0  0  0  0  0  0  0  0  0  0
   38.5171   16.1847    6.9033 C   0  0  0  0  0  0  0  0  0  0  0  0
   37.8807   15.8337    8.2431 C   0  0  1  0  0  0  0  0  0  0  0  0
   37.4593   17.0142    8.9019 O   0  0  0  0  0  0  0  0  0  0  0  0
   36.6635   14.9406    8.0665 C   0  0  1  0  0  0  0  0  0  0  0  0
   36.8909   13.6919    8.6758 O   0  0  0  0  0  0  0  0  0  0  0  0
   35.5218   15.6558    8.7586 C   0  0  1  0  0  0  0  0  0  0  0  0
   34.9787   14.8369    9.7679 O   0  0  0  0  0  0  0  0  0  0  0  0
   36.1279   16.9073    9.3702 C   0  0  2  0  0  0  0  0  0  0  0  0
   40.9195   18.9996    2.4621 O   0  0  0  0  0  0  0  0  0  0  0  0
   35.5894   20.7650    5.8496 N   0  0  0  0  0  0  0  0  0  0  0  0
   36.5351   19.7598    5.8723 C   0  0  0  0  0  0  0  0  0  0  0  0
   36.5267   18.8203    6.8843 N   0  0  0  0  0  0  0  0  0  0  0  0
   35.5915   18.8783    7.8637 C   0  0  0  0  0  0  0  0  0  0  0  0
   34.6325   19.8820    7.8584 C   0  0  0  0  0  0  0  0  0  0  0  0
   34.6335   20.8308    6.8430 C   0  0  0  0  0  0  0  0  0  0  0  0
   33.7203   21.7972    6.8283 N   0  0  0  0  0  0  0  0  0  0  0  0
   33.8369   19.7025    8.9349 N   0  0  0  0  0  0  0  0  0  0  0  0
   34.2666   18.6163    9.6175 C   0  0  0  0  0  0  0  0  0  0  0  0
   35.3539   18.0946    8.9653 N   0  0  0  0  0  0  0  0  0  0  0  0
  2  1  1  1  0  0  0
  2  3  1  0  0  0  0
  2  5  1  0  0  0  0
  3  4  1  0  0  0  0
  3 16  1  0  0  0  0
  5  6  1  0  0  0  0
  6  7  1  0  0  0  0
  7  8  1  0  0  0  0
  9  8  1  6  0  0  0
  9 10  1  0  0  0  0
  9 11  1  0  0  0  0
 10 15  1  0  0  0  0
 11 12  1  1  0  0  0
 11 13  1  0  0  0  0
 13 14  1  1  0  0  0
 13 15  1  0  0  0  0
 15 26  1  6  0  0  0
 17 18  2  0  0  0  0
 17 22  1  0  0  0  0
 18 19  1  0  0  0  0
 19 20  2  0  0  0  0
 20 21  1  0  0  0  0
 20 26  1  0  0  0  0
 21 22  2  0  0  0  0
 21 24  1  0  0  0  0
 22 23  1  0  0  0  0
 24 25  2  0  0  0  0
 25 26  1  0  0  0  0
M  END
>  <CHROM.1>
141.49428480,-64.01245165,-178.86267449,-84.35520999,-138.66650621,-177.76003156
27.51410479,37.54480407,17.42304767,6.66525681,0.18696424,0.67250189,-0.53522569

>  <Name>
ligand

>  <RI>
0

>  <Rbt.Current_Directory>
/home/itssahil/PROJECTS/Mol_Feturizer/New_Systems/rnas/3NPQ

>  <Rbt.Executable>
rbdock ($Id: //depot/dev/client3/rdock/2013.1/src/exe/rbdock.cxx#4 $)

>  <Rbt.Library>
libRbt.so (2013.1, Build901 2013/11/27)

>  <Rbt.Parameter_File>
/export/apps/rDock/src/rDock_2013.1_src/data/scripts/dock_solv.prm

>  <Rbt.Receptor>
prm/pocket_docking_4.prm

>  <SCORE>
-11.6904

>  <SCORE.INTER>
-9.82543

>  <SCORE.INTER.CONST>
1

>  <SCORE.INTER.POLAR>
0

>  <SCORE.INTER.ROT>
7

>  <SCORE.INTER.SOLV>
17.4646

>  <SCORE.INTER.VDW>
-20.6385

>  <SCORE.INTER.norm>
-0.377901

>  <SCORE.INTRA>
-1.86497

>  <SCORE.INTRA.DIHEDRAL>
-1.49725

>  <SCORE.INTRA.DIHEDRAL.0>
6.97628

>  <SCORE.INTRA.POLAR>
0

>  <SCORE.INTRA.POLAR.0>
0

>  <SCORE.INTRA.REPUL>
0

>  <SCORE.INTRA.REPUL.0>
0

>  <SCORE.INTRA.SOLV>
-0.0257617

>  <SCORE.INTRA.SOLV.lig_0>
-49.8243

>  <SCORE.INTRA.VDW>
-1.10346

>  <SCORE.INTRA.VDW.0>
-1.35881

>  <SCORE.INTRA.norm>
-0.0717296

>  <SCORE.RESTR>
0

>  <SCORE.RESTR.CAVITY>
0

>  <SCORE.RESTR.norm>
0

>  <SCORE.SYSTEM>
0

>  <SCORE.SYSTEM.CONST>
0

>  <SCORE.SYSTEM.DIHEDRAL>
0

>  <SCORE.SYSTEM.SOLV>
0

>  <SCORE.SYSTEM.norm>
0

>  <SCORE.heavy>
26

>  <SCORE.norm>
-0.449631

>  <RMSD>
8.540

$$$$
ligand
 OpenBabel11021811483D
libRbt.so/2013.1/901 2013/11/27
 26 28  0  0  0  0  0  0  0  0999 V2000
   43.3560    7.5719    1.4816 N   0  0  0  0  0  0  0  0  0  0  0  0
   41.9984    7.8723    1.0444 C   0  0  2  0  0  0  0  0  0  0  0  0
   41.9405    9.2090    0.3137 C   0  0  0  0  0  0  0  0  0  0  0  0
   42.7184   10.1194    0.5961 O   0  0  0  0  0  0  0  0  0  0  0  0
   41.0454    7.8850    2.2330 C   0  0  0  0  0  0  0  0  0  0  0  0
   41.4785    8.8031    3.3684 C   0  0  0  0  0  0  0  0  0  0  0  0
   40.1284    9.1707    4.5175 S   0  0  0  0  0  0  0  0  0  0  0  0
   40.4996   10.9384    4.3931 C   0  0  0  0  0  0  0  0  0  0  0  0
   40.3280   11.6705    5.7190 C   0  0  1  0  0  0  0  0  0  0  0  0
   40.7869   13.0045    5.5974 O   0  0  0  0  0  0  0  0  0  0  0  0
   38.8701   11.7179    6.1462 C   0  0  1  0  0  0  0  0  0  0  0  0
   38.6990   11.0107    7.3516 O   0  0  0  0  0  0  0  0  0  0  0  0
   38.5473   13.1831    6.3536 C   0  0  1  0  0  0  0  0  0  0  0  0
   38.1087   13.3997    7.6746 O   0  0  0  0  0  0  0  0  0  0  0  0
   39.8453   13.9318    6.1041 C   0  0  2  0  0  0  0  0  0  0  0  0
   41.1140    9.4094   -0.5772 O   0  0  0  0  0  0  0  0  0  0  0  0
   41.0456   15.8222    1.3551 N   0  0  0  0  0  0  0  0  0  0  0  0
   41.5120   14.6698    1.9550 C   0  0  0  0  0  0  0  0  0  0  0  0
   41.0846   14.3235    3.2216 N   0  0  0  0  0  0  0  0  0  0  0  0
   40.2057   15.1126    3.8864 C   0  0  0  0  0  0  0  0  0  0  0  0
   39.7258   16.2758    3.3002 C   0  0  0  0  0  0  0  0  0  0  0  0
   40.1501   16.6309    2.0254 C   0  0  0  0  0  0  0  0  0  0  0  0
   39.6978   17.7433    1.4543 N   0  0  0  0  0  0  0  0  0  0  0  0
   38.8760   16.8607    4.1719 N   0  0  0  0  0  0  0  0  0  0  0  0
   38.8071   16.1007    5.2890 C   0  0  0  0  0  0  0  0  0  0  0  0
   39.6262   15.0132    5.1268 N   0  0  0  0  0  0  0  0  0  0  0  0
  2  1  1  1  0  0  0
  2  3  1  0  0  0  0
  2  5  1  0  0  0  0
  3  4  1  0  0  0  0
  3 16  1  0  0  0  0
  5  6  1  0  0  0  0
  6  7  1  0  0  0  0
  7  8  1  0  0  0  0
  9  8  1  6  0  0  0
  9 10  1  0  0  0  0
  9 11  1  0  0  0  0
 10 15  1  0  0  0  0
 11 12  1  1  0  0  0
 11 13  1  0  0  0  0
 13 14  1  1  0  0  0
 13 15  1  0  0  0  0
 15 26  1  6  0  0  0
 17 18  2  0  0  0  0
 17 22  1  0  0  0  0
 18 19  1  0  0  0  0
 19 20  2  0  0  0  0
 20 21  1  0  0  0  0
 20 26  1  0  0  0  0
 21 22  2  0  0  0  0
 21 24  1  0  0  0  0
 22 23  1  0  0  0  0
 24 25  2  0  0  0  0
 25 26  1  0  0  0  0
M  END
>  <CHROM.1>
-30.31677924,53.58179242,163.10448973,-130.10562759,-142.59884785,172.89162629
1.73167779,40.38300913,12.34300730,3.68317007,-0.80936612,1.14211177,-0.35834563

>  <Name>
ligand

>  <RI>
0

>  <Rbt.Current_Directory>
/home/itssahil/PROJECTS/Mol_Feturizer/New_Systems/rnas/3NPQ

>  <Rbt.Executable>
rbdock ($Id: //depot/dev/client3/rdock/2013.1/src/exe/rbdock.cxx#4 $)

>  <Rbt.Library>
libRbt.so (2013.1, Build901 2013/11/27)

>  <Rbt.Parameter_File>
/export/apps/rDock/src/rDock_2013.1_src/data/scripts/dock_solv.prm

>  <Rbt.Receptor>
prm/pocket_docking_7.prm

>  <SCORE>
-17.1308

>  <SCORE.INTER>
-16.638

>  <SCORE.INTER.CONST>
1

>  <SCORE.INTER.POLAR>
0

>  <SCORE.INTER.ROT>
7

>  <SCORE.INTER.SOLV>
13.1163

>  <SCORE.INTER.VDW>
-23.7307

>  <SCORE.INTER.norm>
-0.639922

>  <SCORE.INTRA>
-0.492856

>  <SCORE.INTRA.DIHEDRAL>
0.944816

>  <SCORE.INTRA.DIHEDRAL.0>
6.97628

>  <SCORE.INTRA.POLAR>
0

>  <SCORE.INTRA.POLAR.0>
0

>  <SCORE.INTRA.REPUL>
0

>  <SCORE.INTRA.REPUL.0>
0

>  <SCORE.INTRA.SOLV>
-0.062031

>  <SCORE.INTRA.SOLV.lig_0>
-49.8243

>  <SCORE.INTRA.VDW>
-0.934248

>  <SCORE.INTRA.VDW.0>
-1.35881

>  <SCORE.INTRA.norm>
-0.018956

>  <SCORE.RESTR>
0

>  <SCORE.RESTR.CAVITY>
0

>  <SCORE.RESTR.norm>
0

>  <SCORE.SYSTEM>
0

>  <SCORE.SYSTEM.CONST>
0

>  <SCORE.SYSTEM.DIHEDRAL>
0

>  <SCORE.SYSTEM.SOLV>
0

>  <SCORE.SYSTEM.norm>
0

>  <SCORE.heavy>
26

>  <SCORE.norm>
-0.658878

>  <RMSD>
8.542

$$$$
ligand
 OpenBabel11021811483D
libRbt.so/2013.1/901 2013/11/27
 26 28  0  0  0  0  0  0  0  0999 V2000
   41.7697    9.3343    1.0059 N   0  0  0  0  0  0  0  0  0  0  0  0
   42.5456    9.1789    2.2300 C   0  0  2  0  0  0  0  0  0  0  0  0
   41.7687    8.3862    3.2750 C   0  0  0  0  0  0  0  0  0  0  0  0
   42.3360    7.9028    4.2539 O   0  0  0  0  0  0  0  0  0  0  0  0
   42.9359   10.5405    2.7910 C   0  0  0  0  0  0  0  0  0  0  0  0
   41.7586   11.4781    3.0249 C   0  0  0  0  0  0  0  0  0  0  0  0
   40.8483   11.0849    4.5399 S   0  0  0  0  0  0  0  0  0  0  0  0
   40.7324   12.8488    4.9317 C   0  0  0  0  0  0  0  0  0  0  0  0
   40.1761   13.1062    6.3273 C   0  0  1  0  0  0  0  0  0  0  0  0
   40.3261   14.4737    6.6627 O   0  0  0  0  0  0  0  0  0  0  0  0
   38.6967   12.7671    6.4102 C   0  0  1  0  0  0  0  0  0  0  0  0
   38.4955   11.7116    7.3200 O   0  0  0  0  0  0  0  0  0  0  0  0
   38.0123   14.0219    6.9112 C   0  0  1  0  0  0  0  0  0  0  0  0
   37.3207   13.7509    8.1082 O   0  0  0  0  0  0  0  0  0  0  0  0
   39.1236   15.0259    7.1651 C   0  0  2  0  0  0  0  0  0  0  0  0
   40.5546    8.2110    3.1647 O   0  0  0  0  0  0  0  0  0  0  0  0
   36.3290   17.3927    3.4028 N   0  0  0  0  0  0  0  0  0  0  0  0
   36.3165   16.0597    3.7608 C   0  0  0  0  0  0  0  0  0  0  0  0
   37.1250   15.6074    4.7848 N   0  0  0  0  0  0  0  0  0  0  0  0
   37.9380   16.4676    5.4452 C   0  0  0  0  0  0  0  0  0  0  0  0
   37.9651   17.8118    5.0994 C   0  0  0  0  0  0  0  0  0  0  0  0
   37.1538   18.2752    4.0706 C   0  0  0  0  0  0  0  0  0  0  0  0
   37.1721   19.5604    3.7301 N   0  0  0  0  0  0  0  0  0  0  0  0
   38.8509   18.4316    5.9088 N   0  0  0  0  0  0  0  0  0  0  0  0
   39.3822   17.5179    6.7533 C   0  0  0  0  0  0  0  0  0  0  0  0
   38.8258   16.2954    6.4779 N   0  0  0  0  0  0  0  0  0  0  0  0
  2  1  1  6  0  0  0
  2  3  1  0  0  0  0
  2  5  1  0  0  0  0
  3  4  1  0  0  0  0
  3 16  1  0  0  0  0
  5  6  1  0  0  0  0
  6  7  1  0  0  0  0
  7  8  1  0  0  0  0
  9  8  1  6  0  0  0
  9 10  1  0  0  0  0
  9 11  1  0  0  0  0
 10 15  1  0  0  0  0
 11 12  1  1  0  0  0
 11 13  1  0  0  0  0
 13 14  1  1  0  0  0
 13 15  1  0  0  0  0
 15 26  1  6  0  0  0
 17 18  2  0  0  0  0
 17 22  1  0  0  0  0
 18 19  1  0  0  0  0
 19 20  2  0  0  0  0
 20 21  1  0  0  0  0
 20 26  1  0  0  0  0
 21 22  2  0  0  0  0
 21 24  1  0  0  0  0
 22 23  1  0  0  0  0
 24 25  2  0  0  0  0
 25 26  1  0  0  0  0
M  END
>  <CHROM.1>
164.35677651,54.91876812,78.26131370,137.57948225,-171.44731222,169.86329365
99.83215943,39.51020775,13.49276043,4.90819720,-0.19811171,1.10198050,-1.09962064

>  <Name>
ligand

>  <RI>
0

>  <Rbt.Current_Directory>
/home/itssahil/PROJECTS/Mol_Feturizer/New_Systems/rnas/3NPQ

>  <Rbt.Executable>
rbdock ($Id: //depot/dev/client3/rdock/2013.1/src/exe/rbdock.cxx#4 $)

>  <Rbt.Library>
libRbt.so (2013.1, Build901 2013/11/27)

>  <Rbt.Parameter_File>
/export/apps/rDock/src/rDock_2013.1_src/data/scripts/dock_solv.prm

>  <Rbt.Receptor>
prm/pocket_docking_6.prm

>  <SCORE>
-19.4231

>  <SCORE.INTER>
-18.7322

>  <SCORE.INTER.CONST>
1

>  <SCORE.INTER.POLAR>
0

>  <SCORE.INTER.ROT>
7

>  <SCORE.INTER.SOLV>
13.5819

>  <SCORE.INTER.VDW>
-25.2821

>  <SCORE.INTER.norm>
-0.720468

>  <SCORE.INTRA>
-0.690891

>  <SCORE.INTRA.DIHEDRAL>
-0.622541

>  <SCORE.INTRA.DIHEDRAL.0>
6.97628

>  <SCORE.INTRA.POLAR>
0

>  <SCORE.INTRA.POLAR.0>
0

>  <SCORE.INTRA.REPUL>
0

>  <SCORE.INTRA.REPUL.0>
0

>  <SCORE.INTRA.SOLV>
0.471139

>  <SCORE.INTRA.SOLV.lig_0>
-49.8243

>  <SCORE.INTRA.VDW>
-0.61519

>  <SCORE.INTRA.VDW.0>
-1.35881

>  <SCORE.INTRA.norm>
-0.0265727

>  <SCORE.RESTR>
0

>  <SCORE.RESTR.CAVITY>
0

>  <SCORE.RESTR.norm>
0

>  <SCORE.SYSTEM>
0

>  <SCORE.SYSTEM.CONST>
0

>  <SCORE.SYSTEM.DIHEDRAL>
0

>  <SCORE.SYSTEM.SOLV>
0

>  <SCORE.SYSTEM.norm>
0

>  <SCORE.heavy>
26

>  <SCORE.norm>
-0.747041

>  <RMSD>
8.560

$$$$
ligand
 OpenBabel11021811483D
libRbt.so/2013.1/901 2013/11/27
 26 28  0  0  0  0  0  0  0  0999 V2000
   43.3323    8.0610    1.7796 N   0  0  0  0  0  0  0  0  0  0  0  0
   42.4246    8.2471    2.9048 C   0  0  2  0  0  0  0  0  0  0  0  0
   40.9778    8.0088    2.4877 C   0  0  0  0  0  0  0  0  0  0  0  0
   40.6879    7.7669    1.3167 O   0  0  0  0  0  0  0  0  0  0  0  0
   42.5766    9.6467    3.4873 C   0  0  0  0  0  0  0  0  0  0  0  0
   42.3816   10.7671    2.4742 C   0  0  0  0  0  0  0  0  0  0  0  0
   42.9432   12.3718    3.0972 S   0  0  0  0  0  0  0  0  0  0  0  0
   41.2746   12.7227    3.7064 C   0  0  0  0  0  0  0  0  0  0  0  0
   41.0133   12.1250    5.0840 C   0  0  1  0  0  0  0  0  0  0  0  0
   40.8754   13.1593    6.0412 O   0  0  0  0  0  0  0  0  0  0  0  0
   39.7358   11.3016    5.1025 C   0  0  1  0  0  0  0  0  0  0  0  0
   40.0360    9.9545    5.3806 O   0  0  0  0  0  0  0  0  0  0  0  0
   38.8847   11.8836    6.2119 C   0  0  1  0  0  0  0  0  0  0  0  0
   38.5881   10.8905    7.1660 O   0  0  0  0  0  0  0  0  0  0  0  0
   39.7229   12.9819    6.8434 C   0  0  2  0  0  0  0  0  0  0  0  0
   40.0645    8.0522    3.3129 O   0  0  0  0  0  0  0  0  0  0  0  0
   38.2646   17.3256    4.2797 N   0  0  0  0  0  0  0  0  0  0  0  0
   39.0730   16.3019    3.8280 C   0  0  0  0  0  0  0  0  0  0  0  0
   39.3537   15.2254    4.6460 N   0  0  0  0  0  0  0  0  0  0  0  0
   38.8396   15.1658    5.8987 C   0  0  0  0  0  0  0  0  0  0  0  0
   38.0250   16.1858    6.3712 C   0  0  0  0  0  0  0  0  0  0  0  0
   37.7369   17.2722    5.5540 C   0  0  0  0  0  0  0  0  0  0  0  0
   36.9586   18.2555    5.9963 N   0  0  0  0  0  0  0  0  0  0  0  0
   37.6569   15.8733    7.6325 N   0  0  0  0  0  0  0  0  0  0  0  0
   38.2154   14.6876    7.9679 C   0  0  0  0  0  0  0  0  0  0  0  0
   38.9517   14.2366    6.9028 N   0  0  0  0  0  0  0  0  0  0  0  0
  2  1  1  6  0  0  0
  2  3  1  0  0  0  0
  2  5  1  0  0  0  0
  3  4  1  0  0  0  0
  3 16  1  0  0  0  0
  5  6  1  0  0  0  0
  6  7  1  0  0  0  0
  7  8  1  0  0  0  0
  9  8  1  6  0  0  0
  9 10  1  0  0  0  0
  9 11  1  0  0  0  0
 10 15  1  0  0  0  0
 11 12  1  1  0  0  0
 11 13  1  0  0  0  0
 13 14  1  1  0  0  0
 13 15  1  0  0  0  0
 15 26  1  6  0  0  0
 17 18  2  0  0  0  0
 17 22  1  0  0  0  0
 18 19  1  0  0  0  0
 19 20  2  0  0  0  0
 20 21  1  0  0  0  0
 20 26  1  0  0  0  0
 21 22  2  0  0  0  0
 21 24  1  0  0  0  0
 22 23  1  0  0  0  0
 24 25  2  0  0  0  0
 25 26  1  0  0  0  0
M  END
>  <CHROM.1>
-3.63081913,55.59802600,-166.58339633,-92.24151962,84.37865207,112.15658458
33.26287057,40.12402494,12.50436190,4.71558615,-0.84607839,0.89119719,-0.16543343

>  <Name>
ligand

>  <RI>
0

>  <Rbt.Current_Directory>
/home/itssahil/PROJECTS/Mol_Feturizer/New_Systems/rnas/3NPQ

>  <Rbt.Executable>
rbdock ($Id: //depot/dev/client3/rdock/2013.1/src/exe/rbdock.cxx#4 $)

>  <Rbt.Library>
libRbt.so (2013.1, Build901 2013/11/27)

>  <Rbt.Parameter_File>
/export/apps/rDock/src/rDock_2013.1_src/data/scripts/dock_solv.prm

>  <Rbt.Receptor>
prm/pocket_docking_6.prm

>  <SCORE>
-18.6849

>  <SCORE.INTER>
-18.8624

>  <SCORE.INTER.CONST>
1

>  <SCORE.INTER.POLAR>
0

>  <SCORE.INTER.ROT>
7

>  <SCORE.INTER.SOLV>
13.7189

>  <SCORE.INTER.VDW>
-25.4146

>  <SCORE.INTER.norm>
-0.725478

>  <SCORE.INTRA>
0.177568

>  <SCORE.INTRA.DIHEDRAL>
3.67911

>  <SCORE.INTRA.DIHEDRAL.0>
6.97628

>  <SCORE.INTRA.POLAR>
0

>  <SCORE.INTRA.POLAR.0>
0

>  <SCORE.INTRA.REPUL>
0

>  <SCORE.INTRA.REPUL.0>
0

>  <SCORE.INTRA.SOLV>
0.39207

>  <SCORE.INTRA.SOLV.lig_0>
-49.8243

>  <SCORE.INTRA.VDW>
-1.85802

>  <SCORE.INTRA.VDW.0>
-1.35881

>  <SCORE.INTRA.norm>
0.00682955

>  <SCORE.RESTR>
0

>  <SCORE.RESTR.CAVITY>
0

>  <SCORE.RESTR.norm>
0

>  <SCORE.SYSTEM>
0

>  <SCORE.SYSTEM.CONST>
0

>  <SCORE.SYSTEM.DIHEDRAL>
0

>  <SCORE.SYSTEM.SOLV>
0

>  <SCORE.SYSTEM.norm>
0

>  <SCORE.heavy>
26

>  <SCORE.norm>
-0.718648

>  <RMSD>
8.566

$$$$
ligand
 OpenBabel11021811483D
libRbt.so/2013.1/901 2013/11/27
 26 28  0  0  0  0  0  0  0  0999 V2000
   41.9470    9.8119    3.2390 N   0  0  0  0  0  0  0  0  0  0  0  0
   41.0926    9.9892    4.4065 C   0  0  2  0  0  0  0  0  0  0  0  0
   39.8605    9.0951    4.3256 C   0  0  0  0  0  0  0  0  0  0  0  0
   38.9490    9.1970    5.1457 O   0  0  0  0  0  0  0  0  0  0  0  0
   40.6719   11.4471    4.5436 C   0  0  0  0  0  0  0  0  0  0  0  0
   39.7743   11.7260    5.7420 C   0  0  0  0  0  0  0  0  0  0  0  0
   40.0087   13.3916    6.4122 S   0  0  0  0  0  0  0  0  0  0  0  0
   38.2892   13.4088    6.9791 C   0  0  0  0  0  0  0  0  0  0  0  0
   38.0003   14.5500    7.9474 C   0  0  1  0  0  0  0  0  0  0  0  0
   38.6452   15.7316    7.5080 O   0  0  0  0  0  0  0  0  0  0  0  0
   36.5112   14.8405    8.0400 C   0  0  1  0  0  0  0  0  0  0  0  0
   36.0524   14.5880    9.3469 O   0  0  0  0  0  0  0  0  0  0  0  0
   36.3553   16.3105    7.7100 C   0  0  1  0  0  0  0  0  0  0  0  0
   35.7380   16.9843    8.7821 O   0  0  0  0  0  0  0  0  0  0  0  0
   37.7640   16.8392    7.5015 C   0  0  2  0  0  0  0  0  0  0  0  0
   39.7477    8.2497    3.4371 O   0  0  0  0  0  0  0  0  0  0  0  0
   36.1946   20.9861    4.6896 N   0  0  0  0  0  0  0  0  0  0  0  0
   35.8459   20.6540    5.9832 C   0  0  0  0  0  0  0  0  0  0  0  0
   36.3594   19.5148    6.5709 N   0  0  0  0  0  0  0  0  0  0  0  0
   37.2081   18.7131    5.8824 C   0  0  0  0  0  0  0  0  0  0  0  0
   37.5702   19.0299    4.5803 C   0  0  0  0  0  0  0  0  0  0  0  0
   37.0586   20.1751    3.9819 C   0  0  0  0  0  0  0  0  0  0  0  0
   37.3978   20.4879    2.7348 N   0  0  0  0  0  0  0  0  0  0  0  0
   38.4153   18.0731    4.1393 N   0  0  0  0  0  0  0  0  0  0  0  0
   38.5956   17.1638    5.1246 C   0  0  0  0  0  0  0  0  0  0  0  0
   37.8534   17.5472    6.2118 N   0  0  0  0  0  0  0  0  0  0  0  0
  2  1  1  6  0  0  0
  2  3  1  0  0  0  0
  2  5  1  0  0  0  0
  3  4  1  0  0  0  0
  3 16  1  0  0  0  0
  5  6  1  0  0  0  0
  6  7  1  0  0  0  0
  7  8  1  0  0  0  0
  9  8  1  6  0  0  0
  9 10  1  0  0  0  0
  9 11  1  0  0  0  0
 10 15  1  0  0  0  0
 11 12  1  1  0  0  0
 11 13  1  0  0  0  0
 13 14  1  1  0  0  0
 13 15  1  0  0  0  0
 15 26  1  6  0  0  0
 17 18  2  0  0  0  0
 17 22  1  0  0  0  0
 18 19  1  0  0  0  0
 19 20  2  0  0  0  0
 20 21  1  0  0  0  0
 20 26  1  0  0  0  0
 21 22  2  0  0  0  0
 21 24  1  0  0  0  0
 22 23  1  0  0  0  0
 24 25  2  0  0  0  0
 25 26  1  0  0  0  0
M  END
>  <CHROM.1>
-172.47503389,-179.96707079,148.81710593,150.91651191,166.94762792,41.09722913
-175.55083186,38.24865030,15.11280763,5.87212159,-0.81822292,1.04169290,-0.57267001

>  <Name>
ligand

>  <RI>
0

>  <Rbt.Current_Directory>
/home/itssahil/PROJECTS/Mol_Feturizer/New_Systems/rnas/3NPQ

>  <Rbt.Executable>
rbdock ($Id: //depot/dev/client3/rdock/2013.1/src/exe/rbdock.cxx#4 $)

>  <Rbt.Library>
libRbt.so (2013.1, Build901 2013/11/27)

>  <Rbt.Parameter_File>
/export/apps/rDock/src/rDock_2013.1_src/data/scripts/dock_solv.prm

>  <Rbt.Receptor>
prm/pocket_docking_5.prm

>  <SCORE>
-19.8093

>  <SCORE.INTER>
-20.6006

>  <SCORE.INTER.CONST>
1

>  <SCORE.INTER.POLAR>
0

>  <SCORE.INTER.ROT>
7

>  <SCORE.INTER.SOLV>
13.0959

>  <SCORE.INTER.VDW>
-26.3657

>  <SCORE.INTER.norm>
-0.79233

>  <SCORE.INTRA>
0.789087

>  <SCORE.INTRA.DIHEDRAL>
1.22305

>  <SCORE.INTRA.DIHEDRAL.0>
6.97628

>  <SCORE.INTRA.POLAR>
0

>  <SCORE.INTRA.POLAR.0>
0

>  <SCORE.INTRA.REPUL>
0

>  <SCORE.INTRA.REPUL.0>
0

>  <SCORE.INTRA.SOLV>
-0.822681

>  <SCORE.INTRA.SOLV.lig_0>
-49.8243

>  <SCORE.INTRA.VDW>
0.588902

>  <SCORE.INTRA.VDW.0>
-1.35881

>  <SCORE.INTRA.norm>
0.0303495

>  <SCORE.RESTR>
0.00218313

>  <SCORE.RESTR.CAVITY>
0.00218313

>  <SCORE.RESTR.norm>
8.39664e-05

>  <SCORE.SYSTEM>
0

>  <SCORE.SYSTEM.CONST>
0

>  <SCORE.SYSTEM.DIHEDRAL>
0

>  <SCORE.SYSTEM.SOLV>
0

>  <SCORE.SYSTEM.norm>
0

>  <SCORE.heavy>
26

>  <SCORE.norm>
-0.761896

>  <RMSD>
8.567

$$$$
ligand
 OpenBabel11021811483D
libRbt.so/2013.1/901 2013/11/27
 26 28  0  0  0  0  0  0  0  0999 V2000
   40.7651   13.8322   -0.6202 N   0  0  0  0  0  0  0  0  0  0  0  0
   41.9565   12.9930   -0.6501 C   0  0  2  0  0  0  0  0  0  0  0  0
   41.7804   11.8245   -1.6132 C   0  0  0  0  0  0  0  0  0  0  0  0
   40.7077   11.2275   -1.6952 O   0  0  0  0  0  0  0  0  0  0  0  0
   42.2799   12.4753    0.7458 C   0  0  0  0  0  0  0  0  0  0  0  0
   42.5421   13.5709    1.7708 C   0  0  0  0  0  0  0  0  0  0  0  0
   42.9810   12.9087    3.3978 S   0  0  0  0  0  0  0  0  0  0  0  0
   41.2815   12.3261    3.6226 C   0  0  0  0  0  0  0  0  0  0  0  0
   40.9950   11.8851    5.0533 C   0  0  1  0  0  0  0  0  0  0  0  0
   40.9247   13.0159    5.9026 O   0  0  0  0  0  0  0  0  0  0  0  0
   39.6715   11.1447    5.1551 C   0  0  1  0  0  0  0  0  0  0  0  0
   39.8938    9.8165    5.5660 O   0  0  0  0  0  0  0  0  0  0  0  0
   38.8636   11.8836    6.2017 C   0  0  1  0  0  0  0  0  0  0  0  0
   38.5158   11.0098    7.2504 O   0  0  0  0  0  0  0  0  0  0  0  0
   39.7692   12.9878    6.7196 C   0  0  2  0  0  0  0  0  0  0  0  0
   42.7074   11.4504   -2.3327 O   0  0  0  0  0  0  0  0  0  0  0  0
   35.8735   15.9445    8.6296 N   0  0  0  0  0  0  0  0  0  0  0  0
   36.2233   14.6596    8.9932 C   0  0  0  0  0  0  0  0  0  0  0  0
   37.2873   14.0288    8.3792 N   0  0  0  0  0  0  0  0  0  0  0  0
   37.9952   14.6648    7.4141 C   0  0  0  0  0  0  0  0  0  0  0  0
   37.6583   15.9569    7.0343 C   0  0  0  0  0  0  0  0  0  0  0  0
   36.5896   16.5991    7.6480 C   0  0  0  0  0  0  0  0  0  0  0  0
   36.2573   17.8363    7.2915 N   0  0  0  0  0  0  0  0  0  0  0  0
   38.5177   16.3432    6.0667 N   0  0  0  0  0  0  0  0  0  0  0  0
   39.3850   15.3331    5.8262 C   0  0  0  0  0  0  0  0  0  0  0  0
   39.0735   14.2856    6.6541 N   0  0  0  0  0  0  0  0  0  0  0  0
  2  1  1  1  0  0  0
  2  3  1  0  0  0  0
  2  5  1  0  0  0  0
  3  4  1  0  0  0  0
  3 16  1  0  0  0  0
  5  6  1  0  0  0  0
  6  7  1  0  0  0  0
  7  8  1  0  0  0  0
  9  8  1  6  0  0  0
  9 10  1  0  0  0  0
  9 11  1  0  0  0  0
 10 15  1  0  0  0  0
 11 12  1  1  0  0  0
 11 13  1  0  0  0  0
 13 14  1  1  0  0  0
 13 15  1  0  0  0  0
 15 26  1  6  0  0  0
 17 18  2  0  0  0  0
 17 22  1  0  0  0  0
 18 19  1  0  0  0  0
 19 20  2  0  0  0  0
 20 21  1  0  0  0  0
 20 26  1  0  0  0  0
 21 22  2  0  0  0  0
 21 24  1  0  0  0  0
 22 23  1  0  0  0  0
 24 25  2  0  0  0  0
 25 26  1  0  0  0  0
M  END
>  <CHROM.1>
-39.51501785,-59.76833115,-177.90203042,-70.37543032,-168.21033260,72.02395491
-173.19946007,39.85545840,13.35062093,4.41369959,0.43999669,1.00761098,-0.85985681

>  <Name>
ligand

>  <RI>
0

>  <Rbt.Current_Directory>
/home/itssahil/PROJECTS/Mol_Feturizer/New_Systems/rnas/3NPQ

>  <Rbt.Executable>
rbdock ($Id: //depot/dev/client3/rdock/2013.1/src/exe/rbdock.cxx#4 $)

>  <Rbt.Library>
libRbt.so (2013.1, Build901 2013/11/27)

>  <Rbt.Parameter_File>
/export/apps/rDock/src/rDock_2013.1_src/data/scripts/dock_solv.prm

>  <Rbt.Receptor>
prm/pocket_docking_8.prm

>  <SCORE>
-16.4713

>  <SCORE.INTER>
-14.4753

>  <SCORE.INTER.CONST>
1

>  <SCORE.INTER.POLAR>
0

>  <SCORE.INTER.ROT>
7

>  <SCORE.INTER.SOLV>
12.0933

>  <SCORE.INTER.VDW>
-21.948

>  <SCORE.INTER.norm>
-0.556744

>  <SCORE.INTRA>
-1.996

>  <SCORE.INTRA.DIHEDRAL>
-3.38863

>  <SCORE.INTRA.DIHEDRAL.0>
6.97628

>  <SCORE.INTRA.POLAR>
0

>  <SCORE.INTRA.POLAR.0>
0

>  <SCORE.INTRA.REPUL>
0

>  <SCORE.INTRA.REPUL.0>
0

>  <SCORE.INTRA.SOLV>
-0.106664

>  <SCORE.INTRA.SOLV.lig_0>
-49.8243

>  <SCORE.INTRA.VDW>
-0.24835

>  <SCORE.INTRA.VDW.0>
-1.35881

>  <SCORE.INTRA.norm>
-0.0767691

>  <SCORE.RESTR>
0

>  <SCORE.RESTR.CAVITY>
0

>  <SCORE.RESTR.norm>
0

>  <SCORE.SYSTEM>
0

>  <SCORE.SYSTEM.CONST>
0

>  <SCORE.SYSTEM.DIHEDRAL>
0

>  <SCORE.SYSTEM.SOLV>
0

>  <SCORE.SYSTEM.norm>
0

>  <SCORE.heavy>
26

>  <SCORE.norm>
-0.633513

>  <RMSD>
8.698

$$$$
ligand
 OpenBabel11021811483D
libRbt.so/2013.1/901 2013/11/27
 26 28  0  0  0  0  0  0  0  0999 V2000
   44.7241   10.3573    1.4587 N   0  0  0  0  0  0  0  0  0  0  0  0
   43.9704   11.0278    2.5108 C   0  0  2  0  0  0  0  0  0  0  0  0
   42.5138   10.5779    2.5141 C   0  0  0  0  0  0  0  0  0  0  0  0
   41.8269   10.6485    1.4957 O   0  0  0  0  0  0  0  0  0  0  0  0
   44.0498   12.5400    2.3434 C   0  0  0  0  0  0  0  0  0  0  0  0
   43.2783   13.3242    3.3968 C   0  0  0  0  0  0  0  0  0  0  0  0
   41.4940   13.3301    3.0893 S   0  0  0  0  0  0  0  0  0  0  0  0
   41.2420   14.3661    4.5526 C   0  0  0  0  0  0  0  0  0  0  0  0
   40.8681   13.5571    5.7891 C   0  0  1  0  0  0  0  0  0  0  0  0
   40.5089   14.4281    6.8461 O   0  0  0  0  0  0  0  0  0  0  0  0
   39.6857   12.6405    5.5204 C   0  0  1  0  0  0  0  0  0  0  0  0
   40.0791   11.2956    5.6570 O   0  0  0  0  0  0  0  0  0  0  0  0
   38.6477   12.9867    6.5676 C   0  0  1  0  0  0  0  0  0  0  0  0
   38.3315   11.8460    7.3312 O   0  0  0  0  0  0  0  0  0  0  0  0
   39.2870   14.0456    7.4493 C   0  0  2  0  0  0  0  0  0  0  0  0
   41.9899   10.1326    3.5359 O   0  0  0  0  0  0  0  0  0  0  0  0
   34.8136   15.9283    9.4522 N   0  0  0  0  0  0  0  0  0  0  0  0
   35.3390   14.6591    9.5882 C   0  0  0  0  0  0  0  0  0  0  0  0
   36.5392   14.3355    8.9869 N   0  0  0  0  0  0  0  0  0  0  0  0
   37.2099   15.2602    8.2574 C   0  0  0  0  0  0  0  0  0  0  0  0
   36.6975   16.5418    8.1085 C   0  0  0  0  0  0  0  0  0  0  0  0
   35.4906   16.8757    8.7113 C   0  0  0  0  0  0  0  0  0  0  0  0
   34.9898   18.0999    8.5747 N   0  0  0  0  0  0  0  0  0  0  0  0
   37.5584   17.2476    7.3439 N   0  0  0  0  0  0  0  0  0  0  0  0
   38.5969   16.4487    7.0069 C   0  0  0  0  0  0  0  0  0  0  0  0
   38.3949   15.2132    7.5661 N   0  0  0  0  0  0  0  0  0  0  0  0
  2  1  1  6  0  0  0
  2  3  1  0  0  0  0
  2  5  1  0  0  0  0
  3  4  1  0  0  0  0
  3 16  1  0  0  0  0
  5  6  1  0  0  0  0
  6  7  1  0  0  0  0
  7  8  1  0  0  0  0
  9  8  1  6  0  0  0
  9 10  1  0  0  0  0
  9 11  1  0  0  0  0
 10 15  1  0  0  0  0
 11 12  1  1  0  0  0
 11 13  1  0  0  0  0
 13 14  1  1  0  0  0
 13 15  1  0  0  0  0
 15 26  1  6  0  0  0
 17 18  2  0  0  0  0
 17 22  1  0  0  0  0
 18 19  1  0  0  0  0
 19 20  2  0  0  0  0
 20 21  1  0  0  0  0
 20 26  1  0  0  0  0
 21 22  2  0  0  0  0
 21 24  1  0  0  0  0
 22 23  1  0  0  0  0
 24 25  2  0  0  0  0
 25 26  1  0  0  0  0
M  END
>  <CHROM.1>
-54.22813759,179.52351973,-77.24022780,-178.88663880,-96.32411413,-172.09848444
-170.65217841,39.71254588,13.65253692,5.70695937,-0.46420366,0.73477415,-0.01030181

>  <Name>
ligand

>  <RI>
0

>  <Rbt.Current_Directory>
/home/itssahil/PROJECTS/Mol_Feturizer/New_Systems/rnas/3NPQ

>  <Rbt.Executable>
rbdock ($Id: //depot/dev/client3/rdock/2013.1/src/exe/rbdock.cxx#4 $)

>  <Rbt.Library>
libRbt.so (2013.1, Build901 2013/11/27)

>  <Rbt.Parameter_File>
/export/apps/rDock/src/rDock_2013.1_src/data/scripts/dock_solv.prm

>  <Rbt.Receptor>
prm/pocket_docking_4.prm

>  <SCORE>
-18.4442

>  <SCORE.INTER>
-16.3029

>  <SCORE.INTER.CONST>
1

>  <SCORE.INTER.POLAR>
0

>  <SCORE.INTER.ROT>
7

>  <SCORE.INTER.SOLV>
11.5657

>  <SCORE.INTER.VDW>
-22.9905

>  <SCORE.INTER.norm>
-0.627035

>  <SCORE.INTRA>
-2.14126

>  <SCORE.INTRA.DIHEDRAL>
-1.4396

>  <SCORE.INTRA.DIHEDRAL.0>
6.97628

>  <SCORE.INTRA.POLAR>
0

>  <SCORE.INTRA.POLAR.0>
0

>  <SCORE.INTRA.REPUL>
0

>  <SCORE.INTRA.REPUL.0>
0

>  <SCORE.INTRA.SOLV>
-0.423117

>  <SCORE.INTRA.SOLV.lig_0>
-49.8243

>  <SCORE.INTRA.VDW>
-1.20991

>  <SCORE.INTRA.VDW.0>
-1.35881

>  <SCORE.INTRA.norm>
-0.0823563

>  <SCORE.RESTR>
0

>  <SCORE.RESTR.CAVITY>
0

>  <SCORE.RESTR.norm>
0

>  <SCORE.SYSTEM>
0

>  <SCORE.SYSTEM.CONST>
0

>  <SCORE.SYSTEM.DIHEDRAL>
0

>  <SCORE.SYSTEM.SOLV>
0

>  <SCORE.SYSTEM.norm>
0

>  <SCORE.heavy>
26

>  <SCORE.norm>
-0.709391

>  <RMSD>
8.707

$$$$
ligand
 OpenBabel11021811483D
libRbt.so/2013.1/901 2013/11/27
 26 28  0  0  0  0  0  0  0  0999 V2000
   42.6792   14.6344    5.3790 N   0  0  0  0  0  0  0  0  0  0  0  0
   41.9606   13.7387    4.4813 C   0  0  2  0  0  0  0  0  0  0  0  0
   41.3200   14.5105    3.3332 C   0  0  0  0  0  0  0  0  0  0  0  0
   40.8881   15.6505    3.4997 O   0  0  0  0  0  0  0  0  0  0  0  0
   40.8971   12.9589    5.2441 C   0  0  0  0  0  0  0  0  0  0  0  0
   39.8813   13.8344    5.9663 C   0  0  0  0  0  0  0  0  0  0  0  0
   38.6527   12.8652    6.8772 S   0  0  0  0  0  0  0  0  0  0  0  0
   37.5189   14.2766    6.8557 C   0  0  0  0  0  0  0  0  0  0  0  0
   37.3070   14.8823    8.2383 C   0  0  1  0  0  0  0  0  0  0  0  0
   37.9593   16.1363    8.3217 O   0  0  0  0  0  0  0  0  0  0  0  0
   35.8321   15.1056    8.5302 C   0  0  1  0  0  0  0  0  0  0  0  0
   35.4318   14.3096    9.6204 O   0  0  0  0  0  0  0  0  0  0  0  0
   35.6976   16.5727    8.8817 C   0  0  1  0  0  0  0  0  0  0  0  0
   35.1511   16.7130   10.1724 O   0  0  0  0  0  0  0  0  0  0  0  0
   37.1074   17.1374    8.8464 C   0  0  2  0  0  0  0  0  0  0  0  0
   41.2200   14.0118    2.2116 O   0  0  0  0  0  0  0  0  0  0  0  0
   34.5146   21.3747    7.1463 N   0  0  0  0  0  0  0  0  0  0  0  0
   34.0776   20.4067    8.0281 C   0  0  0  0  0  0  0  0  0  0  0  0
   34.9016   19.3515    8.3663 N   0  0  0  0  0  0  0  0  0  0  0  0
   36.1446   19.2567    7.8345 C   0  0  0  0  0  0  0  0  0  0  0  0
   36.6019   20.2199    6.9455 C   0  0  0  0  0  0  0  0  0  0  0  0
   35.7792   21.2855    6.6006 C   0  0  0  0  0  0  0  0  0  0  0  0
   36.2064   22.2134    5.7494 N   0  0  0  0  0  0  0  0  0  0  0  0
   37.8568   19.8831    6.5769 N   0  0  0  0  0  0  0  0  0  0  0  0
   38.2028   18.7370    7.2069 C   0  0  0  0  0  0  0  0  0  0  0  0
   37.1512   18.3365    7.9903 N   0  0  0  0  0  0  0  0  0  0  0  0
  2  1  1  1  0  0  0
  2  3  1  0  0  0  0
  2  5  1  0  0  0  0
  3  4  1  0  0  0  0
  3 16  1  0  0  0  0
  5  6  1  0  0  0  0
  6  7  1  0  0  0  0
  7  8  1  0  0  0  0
  9  8  1  6  0  0  0
  9 10  1  0  0  0  0
  9 11  1  0  0  0  0
 10 15  1  0  0  0  0
 11 12  1  1  0  0  0
 11 13  1  0  0  0  0
 13 14  1  1  0  0  0
 13 15  1  0  0  0  0
 15 26  1  6  0  0  0
 17 18  2  0  0  0  0
 17 22  1  0  0  0  0
 18 19  1  0  0  0  0
 19 20  2  0  0  0  0
 20 21  1  0  0  0  0
 20 26  1  0  0  0  0
 21 22  2  0  0  0  0
 21 24  1  0  0  0  0
 22 23  1  0  0  0  0
 24 25  2  0  0  0  0
 25 26  1  0  0  0  0
M  END
>  <CHROM.1>
-33.78702039,57.47174151,-179.18135286,-158.52170649,-111.44841032,108.10160427
152.25020597,37.80839884,16.57681781,6.87259791,-0.54059750,0.76474744,-0.38169489

>  <Name>
ligand

>  <RI>
0

>  <Rbt.Current_Directory>
/home/itssahil/PROJECTS/Mol_Feturizer/New_Systems/rnas/3NPQ

>  <Rbt.Executable>
rbdock ($Id: //depot/dev/client3/rdock/2013.1/src/exe/rbdock.cxx#4 $)

>  <Rbt.Library>
libRbt.so (2013.1, Build901 2013/11/27)

>  <Rbt.Parameter_File>
/export/apps/rDock/src/rDock_2013.1_src/data/scripts/dock_solv.prm

>  <Rbt.Receptor>
prm/pocket_docking_7.prm

>  <SCORE>
-17.6934

>  <SCORE.INTER>
-18.7597

>  <SCORE.INTER.CONST>
1

>  <SCORE.INTER.POLAR>
0

>  <SCORE.INTER.ROT>
7

>  <SCORE.INTER.SOLV>
12.666

>  <SCORE.INTER.VDW>
-24.9952

>  <SCORE.INTER.norm>
-0.721528

>  <SCORE.INTRA>
1.06635

>  <SCORE.INTRA.DIHEDRAL>
3.47023

>  <SCORE.INTRA.DIHEDRAL.0>
6.97628

>  <SCORE.INTRA.POLAR>
0

>  <SCORE.INTRA.POLAR.0>
0

>  <SCORE.INTRA.REPUL>
0

>  <SCORE.INTRA.REPUL.0>
0

>  <SCORE.INTRA.SOLV>
-0.174767

>  <SCORE.INTRA.SOLV.lig_0>
-49.8243

>  <SCORE.INTRA.VDW>
-0.581384

>  <SCORE.INTRA.VDW.0>
-1.35881

>  <SCORE.INTRA.norm>
0.0410133

>  <SCORE.RESTR>
0

>  <SCORE.RESTR.CAVITY>
0

>  <SCORE.RESTR.norm>
0

>  <SCORE.SYSTEM>
0

>  <SCORE.SYSTEM.CONST>
0

>  <SCORE.SYSTEM.DIHEDRAL>
0

>  <SCORE.SYSTEM.SOLV>
0

>  <SCORE.SYSTEM.norm>
0

>  <SCORE.heavy>
26

>  <SCORE.norm>
-0.680515

>  <RMSD>
8.735

$$$$
ligand
 OpenBabel11021811483D
libRbt.so/2013.1/901 2013/11/27
 26 28  0  0  0  0  0  0  0  0999 V2000
   41.2796   11.1135    2.9207 N   0  0  0  0  0  0  0  0  0  0  0  0
   41.3631   10.2347    4.0806 C   0  0  2  0  0  0  0  0  0  0  0  0
   41.5327    8.7804    3.6561 C   0  0  0  0  0  0  0  0  0  0  0  0
   40.6211    8.1741    3.0945 O   0  0  0  0  0  0  0  0  0  0  0  0
   40.1228   10.3830    4.9530 C   0  0  0  0  0  0  0  0  0  0  0  0
   39.9029   11.7919    5.4880 C   0  0  0  0  0  0  0  0  0  0  0  0
   38.7370   11.8345    6.8727 S   0  0  0  0  0  0  0  0  0  0  0  0
   38.4841   13.6079    6.6093 C   0  0  0  0  0  0  0  0  0  0  0  0
   38.0342   14.3322    7.8727 C   0  0  1  0  0  0  0  0  0  0  0  0
   39.0646   15.1879    8.3321 O   0  0  0  0  0  0  0  0  0  0  0  0
   36.8013   15.1842    7.6191 C   0  0  1  0  0  0  0  0  0  0  0  0
   35.7212   14.7076    8.3862 O   0  0  0  0  0  0  0  0  0  0  0  0
   37.1703   16.5863    8.0572 C   0  0  1  0  0  0  0  0  0  0  0  0
   36.2851   17.0289    9.0596 O   0  0  0  0  0  0  0  0  0  0  0  0
   38.5813   16.4886    8.6113 C   0  0  2  0  0  0  0  0  0  0  0  0
   42.5863    8.1777    3.8645 O   0  0  0  0  0  0  0  0  0  0  0  0
   38.9631   21.4222    6.8561 N   0  0  0  0  0  0  0  0  0  0  0  0
   37.8738   20.8094    7.4421 C   0  0  0  0  0  0  0  0  0  0  0  0
   37.9523   19.4917    7.8475 N   0  0  0  0  0  0  0  0  0  0  0  0
   39.0979   18.7892    7.6719 C   0  0  0  0  0  0  0  0  0  0  0  0
   40.2040   19.3877    7.0840 C   0  0  0  0  0  0  0  0  0  0  0  0
   40.1336   20.7137    6.6741 C   0  0  0  0  0  0  0  0  0  0  0  0
   41.1864   21.2970    6.1089 N   0  0  0  0  0  0  0  0  0  0  0  0
   41.1950   18.4715    7.0341 N   0  0  0  0  0  0  0  0  0  0  0  0
   40.7458   17.3146    7.5726 C   0  0  0  0  0  0  0  0  0  0  0  0
   39.4471   17.4962    7.9727 N   0  0  0  0  0  0  0  0  0  0  0  0
  2  1  1  6  0  0  0
  2  3  1  0  0  0  0
  2  5  1  0  0  0  0
  3  4  1  0  0  0  0
  3 16  1  0  0  0  0
  5  6  1  0  0  0  0
  6  7  1  0  0  0  0
  7  8  1  0  0  0  0
  9  8  1  6  0  0  0
  9 10  1  0  0  0  0
  9 11  1  0  0  0  0
 10 15  1  0  0  0  0
 11 12  1  1  0  0  0
 11 13  1  0  0  0  0
 13 14  1  1  0  0  0
 13 15  1  0  0  0  0
 15 26  1  6  0  0  0
 17 18  2  0  0  0  0
 17 22  1  0  0  0  0
 18 19  1  0  0  0  0
 19 20  2  0  0  0  0
 20 21  1  0  0  0  0
 20 26  1  0  0  0  0
 21 22  2  0  0  0  0
 21 24  1  0  0  0  0
 22 23  1  0  0  0  0
 24 25  2  0  0  0  0
 25 26  1  0  0  0  0
M  END
>  <CHROM.1>
-68.45034633,-59.83270252,-163.36444515,-161.22546285,-154.77088867,111.04147919
158.77717772,39.30100653,15.03537491,6.60566179,-1.34802728,0.62342756,0.19023076

>  <Name>
ligand

>  <RI>
0

>  <Rbt.Current_Directory>
/home/itssahil/PROJECTS/Mol_Feturizer/New_Systems/rnas/3NPQ

>  <Rbt.Executable>
rbdock ($Id: //depot/dev/client3/rdock/2013.1/src/exe/rbdock.cxx#4 $)

>  <Rbt.Library>
libRbt.so (2013.1, Build901 2013/11/27)

>  <Rbt.Parameter_File>
/export/apps/rDock/src/rDock_2013.1_src/data/scripts/dock_solv.prm

>  <Rbt.Receptor>
prm/pocket_docking_5.prm

>  <SCORE>
-21.3325

>  <SCORE.INTER>
-22.2578

>  <SCORE.INTER.CONST>
1

>  <SCORE.INTER.POLAR>
0

>  <SCORE.INTER.ROT>
7

>  <SCORE.INTER.SOLV>
13.4962

>  <SCORE.INTER.VDW>
-27.6039

>  <SCORE.INTER.norm>
-0.856067

>  <SCORE.INTRA>
0.916284

>  <SCORE.INTRA.DIHEDRAL>
3.10396

>  <SCORE.INTRA.DIHEDRAL.0>
6.97628

>  <SCORE.INTRA.POLAR>
0

>  <SCORE.INTRA.POLAR.0>
0

>  <SCORE.INTRA.REPUL>
0

>  <SCORE.INTRA.REPUL.0>
0

>  <SCORE.INTRA.SOLV>
-0.242464

>  <SCORE.INTRA.SOLV.lig_0>
-49.8243

>  <SCORE.INTRA.VDW>
-0.514466

>  <SCORE.INTRA.VDW.0>
-1.35881

>  <SCORE.INTRA.norm>
0.0352417

>  <SCORE.RESTR>
0.00894191

>  <SCORE.RESTR.CAVITY>
0.00894191

>  <SCORE.RESTR.norm>
0.000343919

>  <SCORE.SYSTEM>
0

>  <SCORE.SYSTEM.CONST>
0

>  <SCORE.SYSTEM.DIHEDRAL>
0

>  <SCORE.SYSTEM.SOLV>
0

>  <SCORE.SYSTEM.norm>
0

>  <SCORE.heavy>
26

>  <SCORE.norm>
-0.820482

>  <RMSD>
8.775

$$$$
ligand
 OpenBabel11021811483D
libRbt.so/2013.1/901 2013/11/27
 26 28  0  0  0  0  0  0  0  0999 V2000
   41.5928   10.9312    3.6888 N   0  0  0  0  0  0  0  0  0  0  0  0
   40.6617   11.8689    4.3038 C   0  0  2  0  0  0  0  0  0  0  0  0
   41.3396   13.2025    4.5970 C   0  0  0  0  0  0  0  0  0  0  0  0
   40.7697   14.2676    4.3633 O   0  0  0  0  0  0  0  0  0  0  0  0
   40.0837   11.2836    5.5862 C   0  0  0  0  0  0  0  0  0  0  0  0
   38.9155   12.0745    6.1602 C   0  0  0  0  0  0  0  0  0  0  0  0
   39.4465   13.5947    6.9883 S   0  0  0  0  0  0  0  0  0  0  0  0
   37.7274   14.1580    7.0633 C   0  0  0  0  0  0  0  0  0  0  0  0
   37.3864   14.8322    8.3871 C   0  0  1  0  0  0  0  0  0  0  0  0
   37.9745   16.1192    8.4396 O   0  0  0  0  0  0  0  0  0  0  0  0
   35.8854   15.0000    8.5581 C   0  0  1  0  0  0  0  0  0  0  0  0
   35.4405   14.2504    9.6637 O   0  0  0  0  0  0  0  0  0  0  0  0
   35.6602   16.4768    8.8078 C   0  0  1  0  0  0  0  0  0  0  0  0
   35.0132   16.6653   10.0448 O   0  0  0  0  0  0  0  0  0  0  0  0
   37.0422   17.1065    8.8390 C   0  0  2  0  0  0  0  0  0  0  0  0
   42.4738   13.2458    5.0753 O   0  0  0  0  0  0  0  0  0  0  0  0
   34.5717   21.3799    7.0497 N   0  0  0  0  0  0  0  0  0  0  0  0
   34.1385   20.4849    8.0072 C   0  0  0  0  0  0  0  0  0  0  0  0
   34.9266   19.4067    8.3580 N   0  0  0  0  0  0  0  0  0  0  0  0
   36.1303   19.2174    7.7645 C   0  0  0  0  0  0  0  0  0  0  0  0
   36.5831   20.1062    6.7990 C   0  0  0  0  0  0  0  0  0  0  0  0
   35.7965   21.1944    6.4409 C   0  0  0  0  0  0  0  0  0  0  0  0
   36.2196   22.0517    5.5167 N   0  0  0  0  0  0  0  0  0  0  0  0
   37.7960   19.6838    6.3812 N   0  0  0  0  0  0  0  0  0  0  0  0
   38.1198   18.5559    7.0545 C   0  0  0  0  0  0  0  0  0  0  0  0
   37.0966   18.2544    7.9159 N   0  0  0  0  0  0  0  0  0  0  0  0
  2  1  1  1  0  0  0
  2  3  1  0  0  0  0
  2  5  1  0  0  0  0
  3  4  1  0  0  0  0
  3 16  1  0  0  0  0
  5  6  1  0  0  0  0
  6  7  1  0  0  0  0
  7  8  1  0  0  0  0
  9  8  1  6  0  0  0
  9 10  1  0  0  0  0
  9 11  1  0  0  0  0
 10 15  1  0  0  0  0
 11 12  1  1  0  0  0
 11 13  1  0  0  0  0
 13 14  1  1  0  0  0
 13 15  1  0  0  0  0
 15 26  1  6  0  0  0
 17 18  2  0  0  0  0
 17 22  1  0  0  0  0
 18 19  1  0  0  0  0
 19 20  2  0  0  0  0
 20 21  1  0  0  0  0
 20 26  1  0  0  0  0
 21 22  2  0  0  0  0
 21 24  1  0  0  0  0
 22 23  1  0  0  0  0
 24 25  2  0  0  0  0
 25 26  1  0  0  0  0
M  END
>  <CHROM.1>
137.25546714,-169.27305724,-75.88754193,168.41422358,139.57586108,73.81196922
161.60219969,37.77515790,16.12933343,7.00446825,-0.71788654,0.76864890,-0.36496054

>  <Name>
ligand

>  <RI>
0

>  <Rbt.Current_Directory>
/home/itssahil/PROJECTS/Mol_Feturizer/New_Systems/rnas/3NPQ

>  <Rbt.Executable>
rbdock ($Id: //depot/dev/client3/rdock/2013.1/src/exe/rbdock.cxx#4 $)

>  <Rbt.Library>
libRbt.so (2013.1, Build901 2013/11/27)

>  <Rbt.Parameter_File>
/export/apps/rDock/src/rDock_2013.1_src/data/scripts/dock_solv.prm

>  <Rbt.Receptor>
prm/pocket_docking_4.prm

>  <SCORE>
-22.1673

>  <SCORE.INTER>
-20.5609

>  <SCORE.INTER.CONST>
1

>  <SCORE.INTER.POLAR>
0

>  <SCORE.INTER.ROT>
7

>  <SCORE.INTER.SOLV>
17.1219

>  <SCORE.INTER.VDW>
-27.6813

>  <SCORE.INTER.norm>
-0.790806

>  <SCORE.INTRA>
-1.60635

>  <SCORE.INTRA.DIHEDRAL>
-0.278618

>  <SCORE.INTRA.DIHEDRAL.0>
6.97628

>  <SCORE.INTRA.POLAR>
0

>  <SCORE.INTRA.POLAR.0>
0

>  <SCORE.INTRA.REPUL>
0

>  <SCORE.INTRA.REPUL.0>
0

>  <SCORE.INTRA.SOLV>
-0.668989

>  <SCORE.INTRA.SOLV.lig_0>
-49.8243

>  <SCORE.INTRA.VDW>
-1.13254

>  <SCORE.INTRA.VDW.0>
-1.35881

>  <SCORE.INTRA.norm>
-0.0617826

>  <SCORE.RESTR>
0

>  <SCORE.RESTR.CAVITY>
0

>  <SCORE.RESTR.norm>
0

>  <SCORE.SYSTEM>
0

>  <SCORE.SYSTEM.CONST>
0

>  <SCORE.SYSTEM.DIHEDRAL>
0

>  <SCORE.SYSTEM.SOLV>
0

>  <SCORE.SYSTEM.norm>
0

>  <SCORE.heavy>
26

>  <SCORE.norm>
-0.852588

>  <RMSD>
8.778

$$$$
ligand
 OpenBabel11021811483D
libRbt.so/2013.1/901 2013/11/27
 26 28  0  0  0  0  0  0  0  0999 V2000
   40.0348   16.4722    5.6653 N   0  0  0  0  0  0  0  0  0  0  0  0
   40.4144   15.4989    6.6817 C   0  0  2  0  0  0  0  0  0  0  0  0
   41.9300   15.3588    6.7682 C   0  0  0  0  0  0  0  0  0  0  0  0
   42.5579   15.8411    7.7101 O   0  0  0  0  0  0  0  0  0  0  0  0
   39.7806   14.1451    6.3874 C   0  0  0  0  0  0  0  0  0  0  0  0
   38.2580   14.1643    6.3555 C   0  0  0  0  0  0  0  0  0  0  0  0
   37.5309   14.3130    8.0071 S   0  0  0  0  0  0  0  0  0  0  0  0
   37.2966   16.0894    7.7474 C   0  0  0  0  0  0  0  0  0  0  0  0
   36.7880   16.8042    8.9939 C   0  0  1  0  0  0  0  0  0  0  0  0
   36.9445   18.2038    8.8461 O   0  0  0  0  0  0  0  0  0  0  0  0
   35.3136   16.5247    9.2356 C   0  0  1  0  0  0  0  0  0  0  0  0
   35.1479   15.8369   10.4529 O   0  0  0  0  0  0  0  0  0  0  0  0
   34.6424   17.8804    9.3098 C   0  0  1  0  0  0  0  0  0  0  0  0
   33.9936   18.0319   10.5510 O   0  0  0  0  0  0  0  0  0  0  0  0
   35.7582   18.9023    9.1747 C   0  0  2  0  0  0  0  0  0  0  0  0
   42.5622   14.7592    5.8978 O   0  0  0  0  0  0  0  0  0  0  0  0
   37.6467   22.3218    5.6664 N   0  0  0  0  0  0  0  0  0  0  0  0
   38.3530   21.5426    6.5606 C   0  0  0  0  0  0  0  0  0  0  0  0
   37.6857   20.6904    7.4181 N   0  0  0  0  0  0  0  0  0  0  0  0
   36.3329   20.6132    7.3901 C   0  0  0  0  0  0  0  0  0  0  0  0
   35.6049   21.3892    6.4985 C   0  0  0  0  0  0  0  0  0  0  0  0
   36.2689   22.2487    5.6315 C   0  0  0  0  0  0  0  0  0  0  0  0
   35.5819   22.9974    4.7738 N   0  0  0  0  0  0  0  0  0  0  0  0
   34.2951   21.1163    6.6829 N   0  0  0  0  0  0  0  0  0  0  0  0
   34.1770   20.1922    7.6639 C   0  0  0  0  0  0  0  0  0  0  0  0
   35.4322   19.8704    8.1121 N   0  0  0  0  0  0  0  0  0  0  0  0
  2  1  1  6  0  0  0
  2  3  1  0  0  0  0
  2  5  1  0  0  0  0
  3  4  1  0  0  0  0
  3 16  1  0  0  0  0
  5  6  1  0  0  0  0
  6  7  1  0  0  0  0
  7  8  1  0  0  0  0
  9  8  1  6  0  0  0
  9 10  1  0  0  0  0
  9 11  1  0  0  0  0
 10 15  1  0  0  0  0
 11 12  1  1  0  0  0
 11 13  1  0  0  0  0
 13 14  1  1  0  0  0
 13 15  1  0  0  0  0
 15 26  1  6  0  0  0
 17 18  2  0  0  0  0
 17 22  1  0  0  0  0
 18 19  1  0  0  0  0
 19 20  2  0  0  0  0
 20 21  1  0  0  0  0
 20 26  1  0  0  0  0
 21 22  2  0  0  0  0
 21 24  1  0  0  0  0
 22 23  1  0  0  0  0
 24 25  2  0  0  0  0
 25 26  1  0  0  0  0
M  END
>  <CHROM.1>
105.94004829,-60.06583855,-73.54052102,98.97520276,-174.19493989,165.28909518
-36.93365508,37.37159895,17.86595642,7.53374862,-0.79524153,0.50163864,-0.41595606

>  <Name>
ligand

>  <RI>
0

>  <Rbt.Current_Directory>
/home/itssahil/PROJECTS/Mol_Feturizer/New_Systems/rnas/3NPQ

>  <Rbt.Executable>
rbdock ($Id: //depot/dev/client3/rdock/2013.1/src/exe/rbdock.cxx#4 $)

>  <Rbt.Library>
libRbt.so (2013.1, Build901 2013/11/27)

>  <Rbt.Parameter_File>
/export/apps/rDock/src/rDock_2013.1_src/data/scripts/dock_solv.prm

>  <Rbt.Receptor>
prm/pocket_docking_6.prm

>  <SCORE>
-17.6445

>  <SCORE.INTER>
-17.1079

>  <SCORE.INTER.CONST>
1

>  <SCORE.INTER.POLAR>
0

>  <SCORE.INTER.ROT>
7

>  <SCORE.INTER.SOLV>
13.2653

>  <SCORE.INTER.VDW>
-24.0937

>  <SCORE.INTER.norm>
-0.657995

>  <SCORE.INTRA>
-0.536651

>  <SCORE.INTRA.DIHEDRAL>
-1.09924

>  <SCORE.INTRA.DIHEDRAL.0>
6.97628

>  <SCORE.INTRA.POLAR>
0

>  <SCORE.INTRA.POLAR.0>
0

>  <SCORE.INTRA.REPUL>
0

>  <SCORE.INTRA.REPUL.0>
0

>  <SCORE.INTRA.SOLV>
1.22493

>  <SCORE.INTRA.SOLV.lig_0>
-49.8243

>  <SCORE.INTRA.VDW>
-0.599496

>  <SCORE.INTRA.VDW.0>
-1.35881

>  <SCORE.INTRA.norm>
-0.0206404

>  <SCORE.RESTR>
0

>  <SCORE.RESTR.CAVITY>
0

>  <SCORE.RESTR.norm>
0

>  <SCORE.SYSTEM>
0

>  <SCORE.SYSTEM.CONST>
0

>  <SCORE.SYSTEM.DIHEDRAL>
0

>  <SCORE.SYSTEM.SOLV>
0

>  <SCORE.SYSTEM.norm>
0

>  <SCORE.heavy>
26

>  <SCORE.norm>
-0.678635

>  <RMSD>
8.791

$$$$
ligand
 OpenBabel11021811483D
libRbt.so/2013.1/901 2013/11/27
 26 28  0  0  0  0  0  0  0  0999 V2000
   44.1642    9.8778    1.4629 N   0  0  0  0  0  0  0  0  0  0  0  0
   43.3685    9.7303    2.6752 C   0  0  2  0  0  0  0  0  0  0  0  0
   43.3080    8.2727    3.1178 C   0  0  0  0  0  0  0  0  0  0  0  0
   42.5731    7.9207    4.0396 O   0  0  0  0  0  0  0  0  0  0  0  0
   41.9601   10.2692    2.4581 C   0  0  0  0  0  0  0  0  0  0  0  0
   41.8650   11.7891    2.4793 C   0  0  0  0  0  0  0  0  0  0  0  0
   42.1790   12.4814    4.1226 S   0  0  0  0  0  0  0  0  0  0  0  0
   40.5244   11.9751    4.6556 C   0  0  0  0  0  0  0  0  0  0  0  0
   40.1648   12.5029    6.0395 C   0  0  1  0  0  0  0  0  0  0  0  0
   40.5230   13.8689    6.1439 O   0  0  0  0  0  0  0  0  0  0  0  0
   38.6730   12.3920    6.3093 C   0  0  1  0  0  0  0  0  0  0  0  0
   38.4431   11.5147    7.3862 O   0  0  0  0  0  0  0  0  0  0  0  0
   38.2131   13.7891    6.6707 C   0  0  1  0  0  0  0  0  0  0  0  0
   37.6311   13.7904    7.9535 O   0  0  0  0  0  0  0  0  0  0  0  0
   39.4638   14.6512    6.6629 C   0  0  2  0  0  0  0  0  0  0  0  0
   43.9929    7.4125    2.5629 O   0  0  0  0  0  0  0  0  0  0  0  0
   36.1953   17.1646    3.4122 N   0  0  0  0  0  0  0  0  0  0  0  0
   35.9968   15.9585    4.0536 C   0  0  0  0  0  0  0  0  0  0  0  0
   36.9744   15.4420    4.8809 N   0  0  0  0  0  0  0  0  0  0  0  0
   38.1365   16.1137    5.0687 C   0  0  0  0  0  0  0  0  0  0  0  0
   38.3550   17.3278    4.4320 C   0  0  0  0  0  0  0  0  0  0  0  0
   37.3759   17.8549    3.5985 C   0  0  0  0  0  0  0  0  0  0  0  0
   37.5746   19.0166    2.9828 N   0  0  0  0  0  0  0  0  0  0  0  0
   39.5783   17.7723    4.7928 N   0  0  0  0  0  0  0  0  0  0  0  0
   40.1361   16.8743    5.6370 C   0  0  0  0  0  0  0  0  0  0  0  0
   39.2539   15.8404    5.8176 N   0  0  0  0  0  0  0  0  0  0  0  0
  2  1  1  6  0  0  0
  2  3  1  0  0  0  0
  2  5  1  0  0  0  0
  3  4  1  0  0  0  0
  3 16  1  0  0  0  0
  5  6  1  0  0  0  0
  6  7  1  0  0  0  0
  7  8  1  0  0  0  0
  9  8  1  6  0  0  0
  9 10  1  0  0  0  0
  9 11  1  0  0  0  0
 10 15  1  0  0  0  0
 11 12  1  1  0  0  0
 11 13  1  0  0  0  0
 13 14  1  1  0  0  0
 13 15  1  0  0  0  0
 15 26  1  6  0  0  0
 17 18  2  0  0  0  0
 17 22  1  0  0  0  0
 18 19  1  0  0  0  0
 19 20  2  0  0  0  0
 20 21  1  0  0  0  0
 20 26  1  0  0  0  0
 21 22  2  0  0  0  0
 21 24  1  0  0  0  0
 22 23  1  0  0  0  0
 24 25  2  0  0  0  0
 25 26  1  0  0  0  0
M  END
>  <CHROM.1>
-172.43625096,-76.57226974,-68.34121118,-76.30810603,-172.64307967,45.19438245
114.72093796,40.03174666,13.35522236,4.59185600,-0.52175509,0.85759371,-0.68762763

>  <Name>
ligand

>  <RI>
0

>  <Rbt.Current_Directory>
/home/itssahil/PROJECTS/Mol_Feturizer/New_Systems/rnas/3NPQ

>  <Rbt.Executable>
rbdock ($Id: //depot/dev/client3/rdock/2013.1/src/exe/rbdock.cxx#4 $)

>  <Rbt.Library>
libRbt.so (2013.1, Build901 2013/11/27)

>  <Rbt.Parameter_File>
/export/apps/rDock/src/rDock_2013.1_src/data/scripts/dock_solv.prm

>  <Rbt.Receptor>
prm/pocket_docking_6.prm

>  <SCORE>
-18.0918

>  <SCORE.INTER>
-17.7415

>  <SCORE.INTER.CONST>
1

>  <SCORE.INTER.POLAR>
0

>  <SCORE.INTER.ROT>
7

>  <SCORE.INTER.SOLV>
12.0865

>  <SCORE.INTER.VDW>
-24.1231

>  <SCORE.INTER.norm>
-0.682364

>  <SCORE.INTRA>
-0.350327

>  <SCORE.INTRA.DIHEDRAL>
-1.74561

>  <SCORE.INTRA.DIHEDRAL.0>
6.97628

>  <SCORE.INTRA.POLAR>
0

>  <SCORE.INTRA.POLAR.0>
0

>  <SCORE.INTRA.REPUL>
0

>  <SCORE.INTRA.REPUL.0>
0

>  <SCORE.INTRA.SOLV>
0.0841179

>  <SCORE.INTRA.SOLV.lig_0>
-49.8243

>  <SCORE.INTRA.VDW>
0.480418

>  <SCORE.INTRA.VDW.0>
-1.35881

>  <SCORE.INTRA.norm>
-0.0134741

>  <SCORE.RESTR>
0

>  <SCORE.RESTR.CAVITY>
0

>  <SCORE.RESTR.norm>
0

>  <SCORE.SYSTEM>
0

>  <SCORE.SYSTEM.CONST>
0

>  <SCORE.SYSTEM.DIHEDRAL>
0

>  <SCORE.SYSTEM.SOLV>
0

>  <SCORE.SYSTEM.norm>
0

>  <SCORE.heavy>
26

>  <SCORE.norm>
-0.695838

>  <RMSD>
8.791

$$$$
ligand
 OpenBabel11021811483D
libRbt.so/2013.1/901 2013/11/27
 26 28  0  0  0  0  0  0  0  0999 V2000
   43.7052    8.8643    3.0029 N   0  0  0  0  0  0  0  0  0  0  0  0
   42.2733    9.0156    2.7764 C   0  0  2  0  0  0  0  0  0  0  0  0
   41.7688    8.0005    1.7570 C   0  0  0  0  0  0  0  0  0  0  0  0
   40.8068    7.2756    2.0078 O   0  0  0  0  0  0  0  0  0  0  0  0
   41.9535   10.4295    2.3079 C   0  0  0  0  0  0  0  0  0  0  0  0
   41.9600   11.4702    3.4199 C   0  0  0  0  0  0  0  0  0  0  0  0
   40.6700   11.1741    4.6555 S   0  0  0  0  0  0  0  0  0  0  0  0
   40.7431   12.9133    5.1533 C   0  0  0  0  0  0  0  0  0  0  0  0
   40.1298   13.1585    6.5270 C   0  0  1  0  0  0  0  0  0  0  0  0
   40.2710   14.5217    6.8830 O   0  0  0  0  0  0  0  0  0  0  0  0
   38.6469   12.8251    6.5442 C   0  0  1  0  0  0  0  0  0  0  0  0
   38.4035   11.7610    7.4334 O   0  0  0  0  0  0  0  0  0  0  0  0
   37.9471   14.0776    7.0295 C   0  0  1  0  0  0  0  0  0  0  0  0
   37.2048   13.7971    8.1934 O   0  0  0  0  0  0  0  0  0  0  0  0
   39.0508   15.0739    7.3405 C   0  0  2  0  0  0  0  0  0  0  0  0
   42.3118    7.8820    0.6579 O   0  0  0  0  0  0  0  0  0  0  0  0
   36.4511   17.4868    3.4693 N   0  0  0  0  0  0  0  0  0  0  0  0
   36.4219   16.1493    3.8091 C   0  0  0  0  0  0  0  0  0  0  0  0
   37.1771   15.6845    4.8677 N   0  0  0  0  0  0  0  0  0  0  0  0
   37.9537   16.5367    5.5801 C   0  0  0  0  0  0  0  0  0  0  0  0
   37.9968   17.8852    5.2533 C   0  0  0  0  0  0  0  0  0  0  0  0
   37.2391   18.3612    4.1900 C   0  0  0  0  0  0  0  0  0  0  0  0
   37.2732   19.6507    3.8674 N   0  0  0  0  0  0  0  0  0  0  0  0
   38.8388   18.4952    6.1153 N   0  0  0  0  0  0  0  0  0  0  0  0
   39.3270   17.5712    6.9744 C   0  0  0  0  0  0  0  0  0  0  0  0
   38.7872   16.3519    6.6550 N   0  0  0  0  0  0  0  0  0  0  0  0
  2  1  1  6  0  0  0
  2  3  1  0  0  0  0
  2  5  1  0  0  0  0
  3  4  1  0  0  0  0
  3 16  1  0  0  0  0
  5  6  1  0  0  0  0
  6  7  1  0  0  0  0
  7  8  1  0  0  0  0
  9  8  1  6  0  0  0
  9 10  1  0  0  0  0
  9 11  1  0  0  0  0
 10 15  1  0  0  0  0
 11 12  1  1  0  0  0
 11 13  1  0  0  0  0
 13 14  1  1  0  0  0
 13 15  1  0  0  0  0
 15 26  1  6  0  0  0
 17 18  2  0  0  0  0
 17 22  1  0  0  0  0
 18 19  1  0  0  0  0
 19 20  2  0  0  0  0
 20 21  1  0  0  0  0
 20 26  1  0  0  0  0
 21 22  2  0  0  0  0
 21 24  1  0  0  0  0
 22 23  1  0  0  0  0
 24 25  2  0  0  0  0
 25 26  1  0  0  0  0
M  END
>  <CHROM.1>
127.78203745,-77.16262088,-64.05163407,-158.05052416,-161.47687750,177.40583059
99.18635649,39.53359169,13.46170948,4.85166968,0.01483274,1.13320883,-1.23462463

>  <Name>
ligand

>  <RI>
0

>  <Rbt.Current_Directory>
/home/itssahil/PROJECTS/Mol_Feturizer/New_Systems/rnas/3NPQ

>  <Rbt.Executable>
rbdock ($Id: //depot/dev/client3/rdock/2013.1/src/exe/rbdock.cxx#4 $)

>  <Rbt.Library>
libRbt.so (2013.1, Build901 2013/11/27)

>  <Rbt.Parameter_File>
/export/apps/rDock/src/rDock_2013.1_src/data/scripts/dock_solv.prm

>  <Rbt.Receptor>
prm/pocket_docking_4.prm

>  <SCORE>
-18.4385

>  <SCORE.INTER>
-16.9936

>  <SCORE.INTER.CONST>
1

>  <SCORE.INTER.POLAR>
0

>  <SCORE.INTER.ROT>
7

>  <SCORE.INTER.SOLV>
16.5535

>  <SCORE.INTER.VDW>
-25.1136

>  <SCORE.INTER.norm>
-0.6536

>  <SCORE.INTRA>
-1.44885

>  <SCORE.INTRA.DIHEDRAL>
-1.86915

>  <SCORE.INTRA.DIHEDRAL.0>
6.97628

>  <SCORE.INTRA.POLAR>
0

>  <SCORE.INTRA.POLAR.0>
0

>  <SCORE.INTRA.REPUL>
0

>  <SCORE.INTRA.REPUL.0>
0

>  <SCORE.INTRA.SOLV>
0.124426

>  <SCORE.INTRA.SOLV.lig_0>
-49.8243

>  <SCORE.INTRA.VDW>
-0.576488

>  <SCORE.INTRA.VDW.0>
-1.35881

>  <SCORE.INTRA.norm>
-0.0557249

>  <SCORE.RESTR>
0.00398011

>  <SCORE.RESTR.CAVITY>
0.00398011

>  <SCORE.RESTR.norm>
0.000153081

>  <SCORE.SYSTEM>
0

>  <SCORE.SYSTEM.CONST>
0

>  <SCORE.SYSTEM.DIHEDRAL>
0

>  <SCORE.SYSTEM.SOLV>
0

>  <SCORE.SYSTEM.norm>
0

>  <SCORE.heavy>
26

>  <SCORE.norm>
-0.709171

>  <RMSD>
8.828

$$$$
ligand
 OpenBabel11021811483D
libRbt.so/2013.1/901 2013/11/27
 26 28  0  0  0  0  0  0  0  0999 V2000
   42.1128   12.6922    3.2560 N   0  0  0  0  0  0  0  0  0  0  0  0
   41.2303   13.7244    3.7854 C   0  0  2  0  0  0  0  0  0  0  0  0
   41.3092   14.9960    2.9483 C   0  0  0  0  0  0  0  0  0  0  0  0
   42.3704   15.3540    2.4388 O   0  0  0  0  0  0  0  0  0  0  0  0
   41.5787   14.0317    5.2364 C   0  0  0  0  0  0  0  0  0  0  0  0
   40.6503   15.0407    5.8993 C   0  0  0  0  0  0  0  0  0  0  0  0
   38.9437   14.4458    6.0096 S   0  0  0  0  0  0  0  0  0  0  0  0
   38.4440   16.0109    6.7706 C   0  0  0  0  0  0  0  0  0  0  0  0
   37.8193   15.8223    8.1481 C   0  0  1  0  0  0  0  0  0  0  0  0
   37.4088   17.0738    8.6680 O   0  0  0  0  0  0  0  0  0  0  0  0
   36.5971   14.9207    8.0885 C   0  0  1  0  0  0  0  0  0  0  0  0
   36.8256   13.7508    8.8378 O   0  0  0  0  0  0  0  0  0  0  0  0
   35.4649   15.7176    8.7026 C   0  0  1  0  0  0  0  0  0  0  0  0
   34.9286   15.0251    9.8059 O   0  0  0  0  0  0  0  0  0  0  0  0
   36.0817   17.0290    9.1578 C   0  0  2  0  0  0  0  0  0  0  0  0
   40.3126   15.6951    2.7615 O   0  0  0  0  0  0  0  0  0  0  0  0
   36.2806   21.6679    6.7065 N   0  0  0  0  0  0  0  0  0  0  0  0
   37.3320   20.8447    7.0567 C   0  0  0  0  0  0  0  0  0  0  0  0
   37.0925   19.6483    7.7033 N   0  0  0  0  0  0  0  0  0  0  0  0
   35.8245   19.2734    8.0007 C   0  0  0  0  0  0  0  0  0  0  0  0
   34.7540   20.0878    7.6572 C   0  0  0  0  0  0  0  0  0  0  0  0
   34.9864   21.2930    7.0055 C   0  0  0  0  0  0  0  0  0  0  0  0
   33.9688   22.0816    6.6725 N   0  0  0  0  0  0  0  0  0  0  0  0
   33.6201   19.4787    8.0663 N   0  0  0  0  0  0  0  0  0  0  0  0
   33.9449   18.3057    8.6570 C   0  0  0  0  0  0  0  0  0  0  0  0
   35.3083   18.1645    8.6238 N   0  0  0  0  0  0  0  0  0  0  0  0
  2  1  1  6  0  0  0
  2  3  1  0  0  0  0
  2  5  1  0  0  0  0
  3  4  1  0  0  0  0
  3 16  1  0  0  0  0
  5  6  1  0  0  0  0
  6  7  1  0  0  0  0
  7  8  1  0  0  0  0
  9  8  1  6  0  0  0
  9 10  1  0  0  0  0
  9 11  1  0  0  0  0
 10 15  1  0  0  0  0
 11 12  1  1  0  0  0
 11 13  1  0  0  0  0
 13 14  1  1  0  0  0
 13 15  1  0  0  0  0
 15 26  1  6  0  0  0
 17 18  2  0  0  0  0
 17 22  1  0  0  0  0
 18 19  1  0  0  0  0
 19 20  2  0  0  0  0
 20 21  1  0  0  0  0
 20 26  1  0  0  0  0
 21 22  2  0  0  0  0
 21 24  1  0  0  0  0
 22 23  1  0  0  0  0
 24 25  2  0  0  0  0
 25 26  1  0  0  0  0
M  END
>  <CHROM.1>
-35.42686374,-176.44301239,63.16271017,-178.35888616,-121.44804311,-177.96894612
-13.84285668,37.63728316,16.79280383,6.73585075,-0.35409768,0.75938720,-0.42990327

>  <Name>
ligand

>  <RI>
0

>  <Rbt.Current_Directory>
/home/itssahil/PROJECTS/Mol_Feturizer/New_Systems/rnas/3NPQ

>  <Rbt.Executable>
rbdock ($Id: //depot/dev/client3/rdock/2013.1/src/exe/rbdock.cxx#4 $)

>  <Rbt.Library>
libRbt.so (2013.1, Build901 2013/11/27)

>  <Rbt.Parameter_File>
/export/apps/rDock/src/rDock_2013.1_src/data/scripts/dock_solv.prm

>  <Rbt.Receptor>
prm/pocket_docking_4.prm

>  <SCORE>
-14.9222

>  <SCORE.INTER>
-12.8082

>  <SCORE.INTER.CONST>
1

>  <SCORE.INTER.POLAR>
0

>  <SCORE.INTER.ROT>
7

>  <SCORE.INTER.SOLV>
18.6691

>  <SCORE.INTER.VDW>
-23.0285

>  <SCORE.INTER.norm>
-0.492624

>  <SCORE.INTRA>
-2.11395

>  <SCORE.INTRA.DIHEDRAL>
-1.80724

>  <SCORE.INTRA.DIHEDRAL.0>
6.97628

>  <SCORE.INTRA.POLAR>
0

>  <SCORE.INTRA.POLAR.0>
0

>  <SCORE.INTRA.REPUL>
0

>  <SCORE.INTRA.REPUL.0>
0

>  <SCORE.INTRA.SOLV>
-0.591338

>  <SCORE.INTRA.SOLV.lig_0>
-49.8243

>  <SCORE.INTRA.VDW>
-0.914664

>  <SCORE.INTRA.VDW.0>
-1.35881

>  <SCORE.INTRA.norm>
-0.081306

>  <SCORE.RESTR>
0

>  <SCORE.RESTR.CAVITY>
0

>  <SCORE.RESTR.norm>
0

>  <SCORE.SYSTEM>
0

>  <SCORE.SYSTEM.CONST>
0

>  <SCORE.SYSTEM.DIHEDRAL>
0

>  <SCORE.SYSTEM.SOLV>
0

>  <SCORE.SYSTEM.norm>
0

>  <SCORE.heavy>
26

>  <SCORE.norm>
-0.57393

>  <RMSD>
8.830

$$$$
ligand
 OpenBabel11021811483D
libRbt.so/2013.1/901 2013/11/27
 26 28  0  0  0  0  0  0  0  0999 V2000
   42.9905    9.2147    0.1840 N   0  0  0  0  0  0  0  0  0  0  0  0
   43.0453    8.8202    1.5861 C   0  0  2  0  0  0  0  0  0  0  0  0
   43.5813    7.4010    1.7362 C   0  0  0  0  0  0  0  0  0  0  0  0
   43.1297    6.4785    1.0587 O   0  0  0  0  0  0  0  0  0  0  0  0
   41.6666    8.9283    2.2253 C   0  0  0  0  0  0  0  0  0  0  0  0
   41.6544    8.6704    3.7264 C   0  0  0  0  0  0  0  0  0  0  0  0
   40.0727    9.1057    4.4927 S   0  0  0  0  0  0  0  0  0  0  0  0
   40.4859   10.8631    4.3546 C   0  0  0  0  0  0  0  0  0  0  0  0
   40.3496   11.6054    5.6789 C   0  0  1  0  0  0  0  0  0  0  0  0
   40.8650   12.9182    5.5523 O   0  0  0  0  0  0  0  0  0  0  0  0
   38.8963   11.7165    6.1099 C   0  0  1  0  0  0  0  0  0  0  0  0
   38.6984   11.0207    7.3178 O   0  0  0  0  0  0  0  0  0  0  0  0
   38.6373   13.1948    6.3140 C   0  0  1  0  0  0  0  0  0  0  0  0
   38.2121   13.4336    7.6356 O   0  0  0  0  0  0  0  0  0  0  0  0
   39.9654   13.8865    6.0589 C   0  0  2  0  0  0  0  0  0  0  0  0
   44.4795    7.1438    2.5387 O   0  0  0  0  0  0  0  0  0  0  0  0
   41.1981   15.6899    1.2844 N   0  0  0  0  0  0  0  0  0  0  0  0
   41.6113   14.5171    1.8838 C   0  0  0  0  0  0  0  0  0  0  0  0
   41.1838   14.1995    3.1579 N   0  0  0  0  0  0  0  0  0  0  0  0
   40.3570   15.0368    3.8305 C   0  0  0  0  0  0  0  0  0  0  0  0
   39.9309   16.2211    3.2448 C   0  0  0  0  0  0  0  0  0  0  0  0
   40.3558   16.5477    1.9626 C   0  0  0  0  0  0  0  0  0  0  0  0
   39.9549   17.6799    1.3921 N   0  0  0  0  0  0  0  0  0  0  0  0
   39.1253   16.8539    4.1250 N   0  0  0  0  0  0  0  0  0  0  0  0
   39.0318   16.1035    5.2468 C   0  0  0  0  0  0  0  0  0  0  0  0
   39.7902   14.9736    5.0791 N   0  0  0  0  0  0  0  0  0  0  0  0
  2  1  1  6  0  0  0
  2  3  1  0  0  0  0
  2  5  1  0  0  0  0
  3  4  1  0  0  0  0
  3 16  1  0  0  0  0
  5  6  1  0  0  0  0
  6  7  1  0  0  0  0
  7  8  1  0  0  0  0
  9  8  1  6  0  0  0
  9 10  1  0  0  0  0
  9 11  1  0  0  0  0
 10 15  1  0  0  0  0
 11 12  1  1  0  0  0
 11 13  1  0  0  0  0
 13 14  1  1  0  0  0
 13 15  1  0  0  0  0
 15 26  1  6  0  0  0
 17 18  2  0  0  0  0
 17 22  1  0  0  0  0
 18 19  1  0  0  0  0
 19 20  2  0  0  0  0
 20 21  1  0  0  0  0
 20 26  1  0  0  0  0
 21 22  2  0  0  0  0
 21 24  1  0  0  0  0
 22 23  1  0  0  0  0
 24 25  2  0  0  0  0
 25 26  1  0  0  0  0
M  END
>  <CHROM.1>
-48.90297233,-174.14318041,169.36360700,-74.81234997,-127.55168636,171.69516755
2.58199884,40.72312522,12.12264567,3.83044565,-0.83201192,1.00373177,-0.39903577

>  <Name>
ligand

>  <RI>
0

>  <Rbt.Current_Directory>
/home/itssahil/PROJECTS/Mol_Feturizer/New_Systems/rnas/3NPQ

>  <Rbt.Executable>
rbdock ($Id: //depot/dev/client3/rdock/2013.1/src/exe/rbdock.cxx#4 $)

>  <Rbt.Library>
libRbt.so (2013.1, Build901 2013/11/27)

>  <Rbt.Parameter_File>
/export/apps/rDock/src/rDock_2013.1_src/data/scripts/dock_solv.prm

>  <Rbt.Receptor>
prm/pocket_docking_6.prm

>  <SCORE>
-19.757

>  <SCORE.INTER>
-18.4272

>  <SCORE.INTER.CONST>
1

>  <SCORE.INTER.POLAR>
0

>  <SCORE.INTER.ROT>
7

>  <SCORE.INTER.SOLV>
11.0729

>  <SCORE.INTER.VDW>
-24.2424

>  <SCORE.INTER.norm>
-0.708738

>  <SCORE.INTRA>
-1.32975

>  <SCORE.INTRA.DIHEDRAL>
-0.869305

>  <SCORE.INTRA.DIHEDRAL.0>
6.97628

>  <SCORE.INTRA.POLAR>
0

>  <SCORE.INTRA.POLAR.0>
0

>  <SCORE.INTRA.REPUL>
0

>  <SCORE.INTRA.REPUL.0>
0

>  <SCORE.INTRA.SOLV>
-0.780899

>  <SCORE.INTRA.SOLV.lig_0>
-49.8243

>  <SCORE.INTRA.VDW>
-0.504652

>  <SCORE.INTRA.VDW.0>
-1.35881

>  <SCORE.INTRA.norm>
-0.0511444

>  <SCORE.RESTR>
0

>  <SCORE.RESTR.CAVITY>
0

>  <SCORE.RESTR.norm>
0

>  <SCORE.SYSTEM>
0

>  <SCORE.SYSTEM.CONST>
0

>  <SCORE.SYSTEM.DIHEDRAL>
0

>  <SCORE.SYSTEM.SOLV>
0

>  <SCORE.SYSTEM.norm>
0

>  <SCORE.heavy>
26

>  <SCORE.norm>
-0.759883

>  <RMSD>
8.840

$$$$
ligand
 OpenBabel11021811483D
libRbt.so/2013.1/901 2013/11/27
 26 28  0  0  0  0  0  0  0  0999 V2000
   39.1483   10.0660    6.0811 N   0  0  0  0  0  0  0  0  0  0  0  0
   39.3258   11.4211    5.5743 C   0  0  2  0  0  0  0  0  0  0  0  0
   40.6577   11.5646    4.8467 C   0  0  0  0  0  0  0  0  0  0  0  0
   41.3837   12.5388    5.0408 O   0  0  0  0  0  0  0  0  0  0  0  0
   39.2401   12.4317    6.7112 C   0  0  0  0  0  0  0  0  0  0  0  0
   39.0635   13.8728    6.2511 C   0  0  0  0  0  0  0  0  0  0  0  0
   39.1927   15.0575    7.6143 S   0  0  0  0  0  0  0  0  0  0  0  0
   37.3881   15.1921    7.6724 C   0  0  0  0  0  0  0  0  0  0  0  0
   36.8914   15.9058    8.9243 C   0  0  1  0  0  0  0  0  0  0  0  0
   37.2213   17.2813    8.8594 O   0  0  0  0  0  0  0  0  0  0  0  0
   35.3821   15.7965    9.0679 C   0  0  1  0  0  0  0  0  0  0  0  0
   35.0610   15.0791   10.2360 O   0  0  0  0  0  0  0  0  0  0  0  0
   34.8728   17.2188    9.1756 C   0  0  1  0  0  0  0  0  0  0  0  0
   34.1708   17.3912   10.3847 O   0  0  0  0  0  0  0  0  0  0  0  0
   36.1079   18.1029    9.1573 C   0  0  2  0  0  0  0  0  0  0  0  0
   41.0393   10.7086    4.0476 O   0  0  0  0  0  0  0  0  0  0  0  0
   38.5026   21.9267    6.4720 N   0  0  0  0  0  0  0  0  0  0  0  0
   39.0398   21.1010    7.4389 C   0  0  0  0  0  0  0  0  0  0  0  0
   38.2558   20.1402    8.0463 N   0  0  0  0  0  0  0  0  0  0  0  0
   36.9529   20.0012    7.6996 C   0  0  0  0  0  0  0  0  0  0  0  0
   36.3942   20.8225    6.7298 C   0  0  0  0  0  0  0  0  0  0  0  0
   37.1767   21.7913    6.1131 C   0  0  0  0  0  0  0  0  0  0  0  0
   36.6520   22.5842    5.1835 N   0  0  0  0  0  0  0  0  0  0  0  0
   35.0986   20.4707    6.5831 N   0  0  0  0  0  0  0  0  0  0  0  0
   34.8251   19.4530    7.4315 C   0  0  0  0  0  0  0  0  0  0  0  0
   35.9653   19.1508    8.1305 N   0  0  0  0  0  0  0  0  0  0  0  0
  2  1  1  1  0  0  0
  2  3  1  0  0  0  0
  2  5  1  0  0  0  0
  3  4  1  0  0  0  0
  3 16  1  0  0  0  0
  5  6  1  0  0  0  0
  6  7  1  0  0  0  0
  7  8  1  0  0  0  0
  9  8  1  6  0  0  0
  9 10  1  0  0  0  0
  9 11  1  0  0  0  0
 10 15  1  0  0  0  0
 11 12  1  1  0  0  0
 11 13  1  0  0  0  0
 13 14  1  1  0  0  0
 13 15  1  0  0  0  0
 15 26  1  6  0  0  0
 17 18  2  0  0  0  0
 17 22  1  0  0  0  0
 18 19  1  0  0  0  0
 19 20  2  0  0  0  0
 20 21  1  0  0  0  0
 20 26  1  0  0  0  0
 21 22  2  0  0  0  0
 21 24  1  0  0  0  0
 22 23  1  0  0  0  0
 24 25  2  0  0  0  0
 25 26  1  0  0  0  0
M  END
>  <CHROM.1>
-135.23247170,-165.44432601,-172.18641943,-100.95651762,167.54572860,70.23533211
-51.33981836,37.60194973,16.60791750,7.31844246,1.03709281,-0.74774650,2.96170763

>  <Name>
ligand

>  <RI>
0

>  <Rbt.Current_Directory>
/home/itssahil/PROJECTS/Mol_Feturizer/New_Systems/rnas/3NPQ

>  <Rbt.Executable>
rbdock ($Id: //depot/dev/client3/rdock/2013.1/src/exe/rbdock.cxx#4 $)

>  <Rbt.Library>
libRbt.so (2013.1, Build901 2013/11/27)

>  <Rbt.Parameter_File>
/export/apps/rDock/src/rDock_2013.1_src/data/scripts/dock_solv.prm

>  <Rbt.Receptor>
prm/pocket_docking_7.prm

>  <SCORE>
-21.5999

>  <SCORE.INTER>
-21.3745

>  <SCORE.INTER.CONST>
1

>  <SCORE.INTER.POLAR>
0

>  <SCORE.INTER.ROT>
7

>  <SCORE.INTER.SOLV>
19.9843

>  <SCORE.INTER.VDW>
-29.1778

>  <SCORE.INTER.norm>
-0.822097

>  <SCORE.INTRA>
-0.225384

>  <SCORE.INTRA.DIHEDRAL>
-0.824191

>  <SCORE.INTRA.DIHEDRAL.0>
6.97628

>  <SCORE.INTRA.POLAR>
0

>  <SCORE.INTRA.POLAR.0>
0

>  <SCORE.INTRA.REPUL>
0

>  <SCORE.INTRA.REPUL.0>
0

>  <SCORE.INTRA.SOLV>
-0.927313

>  <SCORE.INTRA.SOLV.lig_0>
-49.8243

>  <SCORE.INTRA.VDW>
0.650368

>  <SCORE.INTRA.VDW.0>
-1.35881

>  <SCORE.INTRA.norm>
-0.00866861

>  <SCORE.RESTR>
0

>  <SCORE.RESTR.CAVITY>
0

>  <SCORE.RESTR.norm>
0

>  <SCORE.SYSTEM>
0

>  <SCORE.SYSTEM.CONST>
0

>  <SCORE.SYSTEM.DIHEDRAL>
0

>  <SCORE.SYSTEM.SOLV>
0

>  <SCORE.SYSTEM.norm>
0

>  <SCORE.heavy>
26

>  <SCORE.norm>
-0.830765

>  <RMSD>
8.854

$$$$
ligand
 OpenBabel11021811483D
libRbt.so/2013.1/901 2013/11/27
 26 28  0  0  0  0  0  0  0  0999 V2000
   40.4442   13.8640    5.4072 N   0  0  0  0  0  0  0  0  0  0  0  0
   39.9330   12.8046    6.2680 C   0  0  2  0  0  0  0  0  0  0  0  0
   39.8916   11.4708    5.5309 C   0  0  0  0  0  0  0  0  0  0  0  0
   40.5153   11.3067    4.4830 O   0  0  0  0  0  0  0  0  0  0  0  0
   38.5442   13.1596    6.7839 C   0  0  0  0  0  0  0  0  0  0  0  0
   38.4911   14.4500    7.5913 C   0  0  0  0  0  0  0  0  0  0  0  0
   36.9261   14.6490    8.4800 S   0  0  0  0  0  0  0  0  0  0  0  0
   37.2200   16.4312    8.6047 C   0  0  0  0  0  0  0  0  0  0  0  0
   36.0169   17.1889    9.1541 C   0  0  1  0  0  0  0  0  0  0  0  0
   36.2930   18.5773    9.1846 O   0  0  0  0  0  0  0  0  0  0  0  0
   34.7833   16.9794    8.2911 C   0  0  1  0  0  0  0  0  0  0  0  0
   33.7841   16.3203    9.0324 O   0  0  0  0  0  0  0  0  0  0  0  0
   34.3114   18.3648    7.9009 C   0  0  1  0  0  0  0  0  0  0  0  0
   32.9874   18.5660    8.3378 O   0  0  0  0  0  0  0  0  0  0  0  0
   35.2470   19.3335    8.6037 C   0  0  2  0  0  0  0  0  0  0  0  0
   39.2334   10.5255    5.9667 O   0  0  0  0  0  0  0  0  0  0  0  0
   39.5939   21.4807    6.5884 N   0  0  0  0  0  0  0  0  0  0  0  0
   39.4980   20.5218    7.5768 C   0  0  0  0  0  0  0  0  0  0  0  0
   38.2601   20.0679    7.9871 N   0  0  0  0  0  0  0  0  0  0  0  0
   37.1299   20.5609    7.4245 C   0  0  0  0  0  0  0  0  0  0  0  0
   37.2057   21.5260    6.4296 C   0  0  0  0  0  0  0  0  0  0  0  0
   38.4476   21.9875    6.0103 C   0  0  0  0  0  0  0  0  0  0  0  0
   38.5323   22.9124    5.0587 N   0  0  0  0  0  0  0  0  0  0  0  0
   35.9460   21.8336    6.0518 N   0  0  0  0  0  0  0  0  0  0  0  0
   35.0799   21.0912    6.7792 C   0  0  0  0  0  0  0  0  0  0  0  0
   35.7993   20.2971    7.6347 N   0  0  0  0  0  0  0  0  0  0  0  0
  2  1  1  6  0  0  0
  2  3  1  0  0  0  0
  2  5  1  0  0  0  0
  3  4  1  0  0  0  0
  3 16  1  0  0  0  0
  5  6  1  0  0  0  0
  6  7  1  0  0  0  0
  7  8  1  0  0  0  0
  9  8  1  6  0  0  0
  9 10  1  0  0  0  0
  9 11  1  0  0  0  0
 10 15  1  0  0  0  0
 11 12  1  1  0  0  0
 11 13  1  0  0  0  0
 13 14  1  1  0  0  0
 13 15  1  0  0  0  0
 15 26  1  6  0  0  0
 17 18  2  0  0  0  0
 17 22  1  0  0  0  0
 18 19  1  0  0  0  0
 19 20  2  0  0  0  0
 20 21  1  0  0  0  0
 20 26  1  0  0  0  0
 21 22  2  0  0  0  0
 21 24  1  0  0  0  0
 22 23  1  0  0  0  0
 24 25  2  0  0  0  0
 25 26  1  0  0  0  0
M  END
>  <CHROM.1>
15.98595368,-59.51410784,-167.52741430,-159.33503701,171.80525939,-178.03688846
-7.46834025,37.27228925,17.28782297,7.27277462,-1.22057190,0.52573657,-0.07296231

>  <Name>
ligand

>  <RI>
0

>  <Rbt.Current_Directory>
/home/itssahil/PROJECTS/Mol_Feturizer/New_Systems/rnas/3NPQ

>  <Rbt.Executable>
rbdock ($Id: //depot/dev/client3/rdock/2013.1/src/exe/rbdock.cxx#4 $)

>  <Rbt.Library>
libRbt.so (2013.1, Build901 2013/11/27)

>  <Rbt.Parameter_File>
/export/apps/rDock/src/rDock_2013.1_src/data/scripts/dock_solv.prm

>  <Rbt.Receptor>
prm/pocket_docking_7.prm

>  <SCORE>
-25.1266

>  <SCORE.INTER>
-23.4135

>  <SCORE.INTER.CONST>
1

>  <SCORE.INTER.POLAR>
0

>  <SCORE.INTER.ROT>
7

>  <SCORE.INTER.SOLV>
12.0905

>  <SCORE.INTER.VDW>
-27.9058

>  <SCORE.INTER.norm>
-0.900519

>  <SCORE.INTRA>
-1.71315

>  <SCORE.INTRA.DIHEDRAL>
-2.981

>  <SCORE.INTRA.DIHEDRAL.0>
6.97628

>  <SCORE.INTRA.POLAR>
0

>  <SCORE.INTRA.POLAR.0>
0

>  <SCORE.INTRA.REPUL>
0

>  <SCORE.INTRA.REPUL.0>
0

>  <SCORE.INTRA.SOLV>
-0.0654646

>  <SCORE.INTRA.SOLV.lig_0>
-49.8243

>  <SCORE.INTRA.VDW>
-0.189918

>  <SCORE.INTRA.VDW.0>
-1.35881

>  <SCORE.INTRA.norm>
-0.0658903

>  <SCORE.RESTR>
0

>  <SCORE.RESTR.CAVITY>
0

>  <SCORE.RESTR.norm>
0

>  <SCORE.SYSTEM>
0

>  <SCORE.SYSTEM.CONST>
0

>  <SCORE.SYSTEM.DIHEDRAL>
0

>  <SCORE.SYSTEM.SOLV>
0

>  <SCORE.SYSTEM.norm>
0

>  <SCORE.heavy>
26

>  <SCORE.norm>
-0.966409

>  <RMSD>
8.857

$$$$
ligand
 OpenBabel11021811483D
libRbt.so/2013.1/901 2013/11/27
 26 28  0  0  0  0  0  0  0  0999 V2000
   40.5753   14.6475    6.8057 N   0  0  0  0  0  0  0  0  0  0  0  0
   39.8223   13.4009    6.7467 C   0  0  2  0  0  0  0  0  0  0  0  0
   40.3224   12.5109    5.6145 C   0  0  0  0  0  0  0  0  0  0  0  0
   41.1994   12.8992    4.8439 O   0  0  0  0  0  0  0  0  0  0  0  0
   38.3355   13.6833    6.5712 C   0  0  0  0  0  0  0  0  0  0  0  0
   37.6037   13.9959    7.8699 C   0  0  0  0  0  0  0  0  0  0  0  0
   37.9513   15.6655    8.4781 S   0  0  0  0  0  0  0  0  0  0  0  0
   36.1814   15.9413    8.7418 C   0  0  0  0  0  0  0  0  0  0  0  0
   35.8746   17.3430    9.2561 C   0  0  1  0  0  0  0  0  0  0  0  0
   36.6391   18.2977    8.5426 O   0  0  0  0  0  0  0  0  0  0  0  0
   34.4069   17.6951    9.0762 C   0  0  1  0  0  0  0  0  0  0  0  0
   33.8026   17.8938   10.3323 O   0  0  0  0  0  0  0  0  0  0  0  0
   34.3852   18.9834    8.2800 C   0  0  1  0  0  0  0  0  0  0  0  0
   33.7102   19.9871    9.0020 O   0  0  0  0  0  0  0  0  0  0  0  0
   35.8404   19.3711    8.0810 C   0  0  2  0  0  0  0  0  0  0  0  0
   39.8611   11.3817    5.4444 O   0  0  0  0  0  0  0  0  0  0  0  0
   35.9845   22.9414    4.2340 N   0  0  0  0  0  0  0  0  0  0  0  0
   35.6509   23.1321    5.5598 C   0  0  0  0  0  0  0  0  0  0  0  0
   35.6673   22.0688    6.4406 N   0  0  0  0  0  0  0  0  0  0  0  0
   36.0092   20.8297    6.0107 C   0  0  0  0  0  0  0  0  0  0  0  0
   36.3473   20.6177    4.6810 C   0  0  0  0  0  0  0  0  0  0  0  0
   36.3342   21.6827    3.7884 C   0  0  0  0  0  0  0  0  0  0  0  0
   36.6553   21.4913    2.5123 N   0  0  0  0  0  0  0  0  0  0  0  0
   36.6417   19.3082    4.5306 N   0  0  0  0  0  0  0  0  0  0  0  0
   36.4988   18.6899    5.7253 C   0  0  0  0  0  0  0  0  0  0  0  0
   36.1071   19.6205    6.6529 N   0  0  0  0  0  0  0  0  0  0  0  0
  2  1  1  6  0  0  0
  2  3  1  0  0  0  0
  2  5  1  0  0  0  0
  3  4  1  0  0  0  0
  3 16  1  0  0  0  0
  5  6  1  0  0  0  0
  6  7  1  0  0  0  0
  7  8  1  0  0  0  0
  9  8  1  6  0  0  0
  9 10  1  0  0  0  0
  9 11  1  0  0  0  0
 10 15  1  0  0  0  0
 11 12  1  1  0  0  0
 11 13  1  0  0  0  0
 13 14  1  1  0  0  0
 13 15  1  0  0  0  0
 15 26  1  6  0  0  0
 17 18  2  0  0  0  0
 17 22  1  0  0  0  0
 18 19  1  0  0  0  0
 19 20  2  0  0  0  0
 20 21  1  0  0  0  0
 20 26  1  0  0  0  0
 21 22  2  0  0  0  0
 21 24  1  0  0  0  0
 22 23  1  0  0  0  0
 24 25  2  0  0  0  0
 25 26  1  0  0  0  0
M  END
>  <CHROM.1>
-3.87851607,-82.94607537,75.44711001,132.53953903,-178.11215326,43.37806813
-150.27987760,36.92963257,17.64832879,6.82235328,-0.80330078,0.86045103,-0.69697461

>  <Name>
ligand

>  <RI>
0

>  <Rbt.Current_Directory>
/home/itssahil/PROJECTS/Mol_Feturizer/New_Systems/rnas/3NPQ

>  <Rbt.Executable>
rbdock ($Id: //depot/dev/client3/rdock/2013.1/src/exe/rbdock.cxx#4 $)

>  <Rbt.Library>
libRbt.so (2013.1, Build901 2013/11/27)

>  <Rbt.Parameter_File>
/export/apps/rDock/src/rDock_2013.1_src/data/scripts/dock_solv.prm

>  <Rbt.Receptor>
prm/pocket_docking_8.prm

>  <SCORE>
-21.1108

>  <SCORE.INTER>
-21.1451

>  <SCORE.INTER.CONST>
1

>  <SCORE.INTER.POLAR>
0

>  <SCORE.INTER.ROT>
7

>  <SCORE.INTER.SOLV>
15.3071

>  <SCORE.INTER.VDW>
-27.4657

>  <SCORE.INTER.norm>
-0.813272

>  <SCORE.INTRA>
0.0342924

>  <SCORE.INTRA.DIHEDRAL>
1.52892

>  <SCORE.INTRA.DIHEDRAL.0>
6.97628

>  <SCORE.INTRA.POLAR>
0

>  <SCORE.INTRA.POLAR.0>
0

>  <SCORE.INTRA.REPUL>
0

>  <SCORE.INTRA.REPUL.0>
0

>  <SCORE.INTRA.SOLV>
0.665701

>  <SCORE.INTRA.SOLV.lig_0>
-49.8243

>  <SCORE.INTRA.VDW>
-1.06302

>  <SCORE.INTRA.VDW.0>
-1.35881

>  <SCORE.INTRA.norm>
0.00131894

>  <SCORE.RESTR>
0

>  <SCORE.RESTR.CAVITY>
0

>  <SCORE.RESTR.norm>
0

>  <SCORE.SYSTEM>
0

>  <SCORE.SYSTEM.CONST>
0

>  <SCORE.SYSTEM.DIHEDRAL>
0

>  <SCORE.SYSTEM.SOLV>
0

>  <SCORE.SYSTEM.norm>
0

>  <SCORE.heavy>
26

>  <SCORE.norm>
-0.811953

>  <RMSD>
8.860

$$$$
ligand
 OpenBabel11021811483D
libRbt.so/2013.1/901 2013/11/27
 26 28  0  0  0  0  0  0  0  0999 V2000
   42.4152   12.9906    3.7720 N   0  0  0  0  0  0  0  0  0  0  0  0
   41.5308   12.6978    4.8930 C   0  0  2  0  0  0  0  0  0  0  0  0
   40.7962   11.3787    4.6821 C   0  0  0  0  0  0  0  0  0  0  0  0
   40.8178   10.8090    3.5918 O   0  0  0  0  0  0  0  0  0  0  0  0
   40.5286   13.8279    5.0916 C   0  0  0  0  0  0  0  0  0  0  0  0
   40.0584   13.9973    6.5303 C   0  0  0  0  0  0  0  0  0  0  0  0
   38.6905   12.8872    6.9487 S   0  0  0  0  0  0  0  0  0  0  0  0
   37.5345   14.2788    6.8747 C   0  0  0  0  0  0  0  0  0  0  0  0
   37.3040   14.9253    8.2356 C   0  0  1  0  0  0  0  0  0  0  0  0
   37.9405   16.1892    8.2842 O   0  0  0  0  0  0  0  0  0  0  0  0
   35.8242   15.1397    8.5088 C   0  0  1  0  0  0  0  0  0  0  0  0
   35.4245   14.3739    9.6205 O   0  0  0  0  0  0  0  0  0  0  0  0
   35.6692   16.6155    8.8123 C   0  0  1  0  0  0  0  0  0  0  0  0
   35.1105   16.7900   10.0936 O   0  0  0  0  0  0  0  0  0  0  0  0
   37.0724   17.1960    8.7701 C   0  0  2  0  0  0  0  0  0  0  0  0
   40.1640   10.8515    5.5982 O   0  0  0  0  0  0  0  0  0  0  0  0
   34.4921   21.4174    7.0127 N   0  0  0  0  0  0  0  0  0  0  0  0
   34.0665   20.4832    7.9355 C   0  0  0  0  0  0  0  0  0  0  0  0
   34.8850   19.4268    8.2832 N   0  0  0  0  0  0  0  0  0  0  0  0
   36.1112   19.2975    7.7204 C   0  0  0  0  0  0  0  0  0  0  0  0
   36.5567   20.2265    6.7899 C   0  0  0  0  0  0  0  0  0  0  0  0
   35.7396   21.2931    6.4353 C   0  0  0  0  0  0  0  0  0  0  0  0
   36.1555   22.1884    5.5445 N   0  0  0  0  0  0  0  0  0  0  0  0
   37.7960   19.8602    6.3974 N   0  0  0  0  0  0  0  0  0  0  0  0
   38.1436   18.7288    7.0526 C   0  0  0  0  0  0  0  0  0  0  0  0
   37.1089   18.3678    7.8767 N   0  0  0  0  0  0  0  0  0  0  0  0
  2  1  1  6  0  0  0
  2  3  1  0  0  0  0
  2  5  1  0  0  0  0
  3  4  1  0  0  0  0
  3 16  1  0  0  0  0
  5  6  1  0  0  0  0
  6  7  1  0  0  0  0
  7  8  1  0  0  0  0
  9  8  1  6  0  0  0
  9 10  1  0  0  0  0
  9 11  1  0  0  0  0
 10 15  1  0  0  0  0
 11 12  1  1  0  0  0
 11 13  1  0  0  0  0
 13 14  1  1  0  0  0
 13 15  1  0  0  0  0
 15 26  1  6  0  0  0
 17 18  2  0  0  0  0
 17 22  1  0  0  0  0
 18 19  1  0  0  0  0
 19 20  2  0  0  0  0
 20 21  1  0  0  0  0
 20 26  1  0  0  0  0
 21 22  2  0  0  0  0
 21 24  1  0  0  0  0
 22 23  1  0  0  0  0
 24 25  2  0  0  0  0
 25 26  1  0  0  0  0
M  END
>  <CHROM.1>
-11.30413223,-151.09252284,-84.25422433,-105.27449699,-93.71962842,107.85349611
154.80093962,37.69686322,16.10078569,6.98121685,-0.75951543,0.78553422,-0.34739714

>  <Name>
ligand

>  <RI>
0

>  <Rbt.Current_Directory>
/home/itssahil/PROJECTS/Mol_Feturizer/New_Systems/rnas/3NPQ

>  <Rbt.Executable>
rbdock ($Id: //depot/dev/client3/rdock/2013.1/src/exe/rbdock.cxx#4 $)

>  <Rbt.Library>
libRbt.so (2013.1, Build901 2013/11/27)

>  <Rbt.Parameter_File>
/export/apps/rDock/src/rDock_2013.1_src/data/scripts/dock_solv.prm

>  <Rbt.Receptor>
prm/pocket_docking_6.prm

>  <SCORE>
-20.0784

>  <SCORE.INTER>
-23.187

>  <SCORE.INTER.CONST>
1

>  <SCORE.INTER.POLAR>
0

>  <SCORE.INTER.ROT>
7

>  <SCORE.INTER.SOLV>
13.6731

>  <SCORE.INTER.VDW>
-28.2824

>  <SCORE.INTER.norm>
-0.891806

>  <SCORE.INTRA>
3.10857

>  <SCORE.INTRA.DIHEDRAL>
8.6069

>  <SCORE.INTRA.DIHEDRAL.0>
6.97628

>  <SCORE.INTRA.POLAR>
0

>  <SCORE.INTRA.POLAR.0>
0

>  <SCORE.INTRA.REPUL>
0

>  <SCORE.INTRA.REPUL.0>
0

>  <SCORE.INTRA.SOLV>
-0.618791

>  <SCORE.INTRA.SOLV.lig_0>
-49.8243

>  <SCORE.INTRA.VDW>
-0.885484

>  <SCORE.INTRA.VDW.0>
-1.35881

>  <SCORE.INTRA.norm>
0.11956

>  <SCORE.RESTR>
0

>  <SCORE.RESTR.CAVITY>
0

>  <SCORE.RESTR.norm>
0

>  <SCORE.SYSTEM>
0

>  <SCORE.SYSTEM.CONST>
0

>  <SCORE.SYSTEM.DIHEDRAL>
0

>  <SCORE.SYSTEM.SOLV>
0

>  <SCORE.SYSTEM.norm>
0

>  <SCORE.heavy>
26

>  <SCORE.norm>
-0.772246

>  <RMSD>
8.929

$$$$
ligand
 OpenBabel11021811483D
libRbt.so/2013.1/901 2013/11/27
 26 28  0  0  0  0  0  0  0  0999 V2000
   41.9151   13.2208   -3.1885 N   0  0  0  0  0  0  0  0  0  0  0  0
   41.8517   12.7098   -1.8249 C   0  0  2  0  0  0  0  0  0  0  0  0
   41.4837   13.8149   -0.8414 C   0  0  0  0  0  0  0  0  0  0  0  0
   40.7068   13.6022    0.0887 O   0  0  0  0  0  0  0  0  0  0  0  0
   43.1810   12.0794   -1.4288 C   0  0  0  0  0  0  0  0  0  0  0  0
   43.1825   11.4495   -0.0421 C   0  0  0  0  0  0  0  0  0  0  0  0
   44.7555   10.6445    0.3530 S   0  0  0  0  0  0  0  0  0  0  0  0
   44.2073   10.4049    2.0618 C   0  0  0  0  0  0  0  0  0  0  0  0
   43.5877    9.0317    2.2939 C   0  0  1  0  0  0  0  0  0  0  0  0
   43.0124    8.9734    3.5864 O   0  0  0  0  0  0  0  0  0  0  0  0
   42.4914    8.7356    1.2837 C   0  0  1  0  0  0  0  0  0  0  0  0
   42.8537    7.6298    0.4911 O   0  0  0  0  0  0  0  0  0  0  0  0
   41.2565    8.4087    2.0974 C   0  0  1  0  0  0  0  0  0  0  0  0
   40.7933    7.1176    1.7765 O   0  0  0  0  0  0  0  0  0  0  0  0
   41.6933    8.4613    3.5513 C   0  0  2  0  0  0  0  0  0  0  0  0
   41.9554   14.9470   -0.9540 O   0  0  0  0  0  0  0  0  0  0  0  0
   40.8530   13.3038    5.3984 N   0  0  0  0  0  0  0  0  0  0  0  0
   41.9238   12.8509    4.6543 C   0  0  0  0  0  0  0  0  0  0  0  0
   41.9808   11.5318    4.2498 N   0  0  0  0  0  0  0  0  0  0  0  0
   40.9876   10.6712    4.5812 C   0  0  0  0  0  0  0  0  0  0  0  0
   39.9028   11.1076    5.3295 C   0  0  0  0  0  0  0  0  0  0  0  0
   39.8374   12.4337    5.7397 C   0  0  0  0  0  0  0  0  0  0  0  0
   38.8036   12.8626    6.4577 N   0  0  0  0  0  0  0  0  0  0  0  0
   39.0740   10.0570    5.5120 N   0  0  0  0  0  0  0  0  0  0  0  0
   39.6046    8.9727    4.9012 C   0  0  0  0  0  0  0  0  0  0  0  0
   40.7913    9.3381    4.3196 N   0  0  0  0  0  0  0  0  0  0  0  0
  2  1  1  6  0  0  0
  2  3  1  0  0  0  0
  2  5  1  0  0  0  0
  3  4  1  0  0  0  0
  3 16  1  0  0  0  0
  5  6  1  0  0  0  0
  6  7  1  0  0  0  0
  7  8  1  0  0  0  0
  9  8  1  6  0  0  0
  9 10  1  0  0  0  0
  9 11  1  0  0  0  0
 10 15  1  0  0  0  0
 11 12  1  1  0  0  0
 11 13  1  0  0  0  0
 13 14  1  6  0  0  0
 13 15  1  0  0  0  0
 15 26  1  1  0  0  0
 17 18  2  0  0  0  0
 17 22  1  0  0  0  0
 18 19  1  0  0  0  0
 19 20  2  0  0  0  0
 20 21  1  0  0  0  0
 20 26  1  0  0  0  0
 21 22  2  0  0  0  0
 21 24  1  0  0  0  0
 22 23  1  0  0  0  0
 24 25  2  0  0  0  0
 25 26  1  0  0  0  0
M  END
>  <CHROM.1>
139.70042475,-176.84575656,177.24274969,171.35994743,94.97094359,-171.80924587
24.42371619,41.82321771,10.90695152,2.15021238,0.79146501,1.04048344,-0.59669123

>  <Name>
ligand

>  <RI>
0

>  <Rbt.Current_Directory>
/home/itssahil/PROJECTS/Mol_Feturizer/New_Systems/rnas/3NPQ

>  <Rbt.Executable>
rbdock ($Id: //depot/dev/client3/rdock/2013.1/src/exe/rbdock.cxx#4 $)

>  <Rbt.Library>
libRbt.so (2013.1, Build901 2013/11/27)

>  <Rbt.Parameter_File>
/export/apps/rDock/src/rDock_2013.1_src/data/scripts/dock_solv.prm

>  <Rbt.Receptor>
prm/pocket_docking_8.prm

>  <SCORE>
-18.8956

>  <SCORE.INTER>
-16.2953

>  <SCORE.INTER.CONST>
1

>  <SCORE.INTER.POLAR>
0

>  <SCORE.INTER.ROT>
7

>  <SCORE.INTER.SOLV>
14.2523

>  <SCORE.INTER.VDW>
-23.881

>  <SCORE.INTER.norm>
-0.626743

>  <SCORE.INTRA>
-2.60032

>  <SCORE.INTRA.DIHEDRAL>
-2.37863

>  <SCORE.INTRA.DIHEDRAL.0>
6.97628

>  <SCORE.INTRA.POLAR>
0

>  <SCORE.INTRA.POLAR.0>
0

>  <SCORE.INTRA.REPUL>
0

>  <SCORE.INTRA.REPUL.0>
0

>  <SCORE.INTRA.SOLV>
-0.600559

>  <SCORE.INTRA.SOLV.lig_0>
-49.8243

>  <SCORE.INTRA.VDW>
-1.11072

>  <SCORE.INTRA.VDW.0>
-1.35881

>  <SCORE.INTRA.norm>
-0.100012

>  <SCORE.RESTR>
0

>  <SCORE.RESTR.CAVITY>
0

>  <SCORE.RESTR.norm>
0

>  <SCORE.SYSTEM>
0

>  <SCORE.SYSTEM.CONST>
0

>  <SCORE.SYSTEM.DIHEDRAL>
0

>  <SCORE.SYSTEM.SOLV>
0

>  <SCORE.SYSTEM.norm>
0

>  <SCORE.heavy>
26

>  <SCORE.norm>
-0.726755

>  <RMSD>
8.931

$$$$
ligand
 OpenBabel11021811483D
libRbt.so/2013.1/901 2013/11/27
 26 28  0  0  0  0  0  0  0  0999 V2000
   40.7763   14.2203    3.6670 N   0  0  0  0  0  0  0  0  0  0  0  0
   41.4970   13.4942    4.7052 C   0  0  2  0  0  0  0  0  0  0  0  0
   42.8305   12.9709    4.1837 C   0  0  0  0  0  0  0  0  0  0  0  0
   42.8768   12.0171    3.4078 O   0  0  0  0  0  0  0  0  0  0  0  0
   40.6535   12.3405    5.2331 C   0  0  0  0  0  0  0  0  0  0  0  0
   39.3309   12.7698    5.8545 C   0  0  0  0  0  0  0  0  0  0  0  0
   39.5421   14.0381    7.1293 S   0  0  0  0  0  0  0  0  0  0  0  0
   37.7447   14.2194    7.2512 C   0  0  0  0  0  0  0  0  0  0  0  0
   37.3093   14.9157    8.5353 C   0  0  1  0  0  0  0  0  0  0  0  0
   37.8703   16.2145    8.5948 O   0  0  0  0  0  0  0  0  0  0  0  0
   35.7978   15.0588    8.6081 C   0  0  1  0  0  0  0  0  0  0  0  0
   35.2974   14.3252    9.7007 O   0  0  0  0  0  0  0  0  0  0  0  0
   35.5315   16.5362    8.8092 C   0  0  1  0  0  0  0  0  0  0  0  0
   34.8047   16.7394    9.9987 O   0  0  0  0  0  0  0  0  0  0  0  0
   36.8976   17.1924    8.9123 C   0  0  2  0  0  0  0  0  0  0  0  0
   43.8933   13.4905    4.5261 O   0  0  0  0  0  0  0  0  0  0  0  0
   34.4994   21.4205    6.9277 N   0  0  0  0  0  0  0  0  0  0  0  0
   34.0266   20.5448    7.8843 C   0  0  0  0  0  0  0  0  0  0  0  0
   34.8007   19.4763    8.2917 N   0  0  0  0  0  0  0  0  0  0  0  0
   36.0293   19.2778    7.7549 C   0  0  0  0  0  0  0  0  0  0  0  0
   36.5219   20.1472    6.7912 C   0  0  0  0  0  0  0  0  0  0  0  0
   35.7496   21.2255    6.3765 C   0  0  0  0  0  0  0  0  0  0  0  0
   36.2108   22.0641    5.4534 N   0  0  0  0  0  0  0  0  0  0  0  0
   37.7524   19.7192    6.4352 N   0  0  0  0  0  0  0  0  0  0  0  0
   38.0488   18.6067    7.1457 C   0  0  0  0  0  0  0  0  0  0  0  0
   36.9899   18.3207    7.9683 N   0  0  0  0  0  0  0  0  0  0  0  0
  2  1  1  6  0  0  0
  2  3  1  0  0  0  0
  2  5  1  0  0  0  0
  3  4  1  0  0  0  0
  3 16  1  0  0  0  0
  5  6  1  0  0  0  0
  6  7  1  0  0  0  0
  7  8  1  0  0  0  0
  9  8  1  6  0  0  0
  9 10  1  0  0  0  0
  9 11  1  0  0  0  0
 10 15  1  0  0  0  0
 11 12  1  1  0  0  0
 11 13  1  0  0  0  0
 13 14  1  1  0  0  0
 13 15  1  0  0  0  0
 15 26  1  6  0  0  0
 17 18  2  0  0  0  0
 17 22  1  0  0  0  0
 18 19  1  0  0  0  0
 19 20  2  0  0  0  0
 20 21  1  0  0  0  0
 20 26  1  0  0  0  0
 21 22  2  0  0  0  0
 21 24  1  0  0  0  0
 22 23  1  0  0  0  0
 24 25  2  0  0  0  0
 25 26  1  0  0  0  0
M  END
>  <CHROM.1>
-73.31858502,-60.38997158,-52.96033400,173.18939962,162.36882494,60.24115940
163.05243436,37.95682104,16.35772765,6.94130361,-0.54405853,0.70259044,-0.40741256

>  <Name>
ligand

>  <RI>
0

>  <Rbt.Current_Directory>
/home/itssahil/PROJECTS/Mol_Feturizer/New_Systems/rnas/3NPQ

>  <Rbt.Executable>
rbdock ($Id: //depot/dev/client3/rdock/2013.1/src/exe/rbdock.cxx#4 $)

>  <Rbt.Library>
libRbt.so (2013.1, Build901 2013/11/27)

>  <Rbt.Parameter_File>
/export/apps/rDock/src/rDock_2013.1_src/data/scripts/dock_solv.prm

>  <Rbt.Receptor>
prm/pocket_docking_4.prm

>  <SCORE>
-20.555

>  <SCORE.INTER>
-18.5313

>  <SCORE.INTER.CONST>
1

>  <SCORE.INTER.POLAR>
0

>  <SCORE.INTER.ROT>
7

>  <SCORE.INTER.SOLV>
14.1039

>  <SCORE.INTER.VDW>
-25.3222

>  <SCORE.INTER.norm>
-0.712742

>  <SCORE.INTRA>
-2.02375

>  <SCORE.INTRA.DIHEDRAL>
-3.57305

>  <SCORE.INTRA.DIHEDRAL.0>
6.97628

>  <SCORE.INTRA.POLAR>
0

>  <SCORE.INTRA.POLAR.0>
0

>  <SCORE.INTRA.REPUL>
0

>  <SCORE.INTRA.REPUL.0>
0

>  <SCORE.INTRA.SOLV>
0.596617

>  <SCORE.INTRA.SOLV.lig_0>
-49.8243

>  <SCORE.INTRA.VDW>
-0.535528

>  <SCORE.INTRA.VDW.0>
-1.35881

>  <SCORE.INTRA.norm>
-0.0778364

>  <SCORE.RESTR>
0

>  <SCORE.RESTR.CAVITY>
0

>  <SCORE.RESTR.norm>
0

>  <SCORE.SYSTEM>
0

>  <SCORE.SYSTEM.CONST>
0

>  <SCORE.SYSTEM.DIHEDRAL>
0

>  <SCORE.SYSTEM.SOLV>
0

>  <SCORE.SYSTEM.norm>
0

>  <SCORE.heavy>
26

>  <SCORE.norm>
-0.790578

>  <RMSD>
8.949

$$$$
ligand
 OpenBabel11021811483D
libRbt.so/2013.1/901 2013/11/27
 26 28  0  0  0  0  0  0  0  0999 V2000
   42.5086   13.2269    4.4797 N   0  0  0  0  0  0  0  0  0  0  0  0
   41.2740   13.1261    5.2479 C   0  0  2  0  0  0  0  0  0  0  0  0
   40.5309   11.8347    4.9252 C   0  0  0  0  0  0  0  0  0  0  0  0
   39.6977   11.3720    5.7033 O   0  0  0  0  0  0  0  0  0  0  0  0
   40.3767   14.3270    4.9762 C   0  0  0  0  0  0  0  0  0  0  0  0
   39.0674   14.3145    5.7543 C   0  0  0  0  0  0  0  0  0  0  0  0
   39.2984   14.7001    7.5082 S   0  0  0  0  0  0  0  0  0  0  0  0
   37.5111   14.5830    7.7726 C   0  0  0  0  0  0  0  0  0  0  0  0
   37.0112   15.5413    8.8474 C   0  0  1  0  0  0  0  0  0  0  0  0
   37.4987   16.8467    8.5956 O   0  0  0  0  0  0  0  0  0  0  0  0
   35.4930   15.6093    8.8728 C   0  0  1  0  0  0  0  0  0  0  0  0
   35.0109   15.1323   10.1066 O   0  0  0  0  0  0  0  0  0  0  0  0
   35.1418   17.0735    8.7093 C   0  0  1  0  0  0  0  0  0  0  0  0
   34.3802   17.5143    9.8093 O   0  0  0  0  0  0  0  0  0  0  0  0
   36.4673   17.8138    8.6606 C   0  0  2  0  0  0  0  0  0  0  0  0
   40.7463   11.2239    3.8776 O   0  0  0  0  0  0  0  0  0  0  0  0
   34.4374   22.0121    6.2478 N   0  0  0  0  0  0  0  0  0  0  0  0
   34.0738   21.4715    7.4648 C   0  0  0  0  0  0  0  0  0  0  0  0
   34.7228   20.3536    7.9506 N   0  0  0  0  0  0  0  0  0  0  0  0
   35.7202   19.7774    7.2364 C   0  0  0  0  0  0  0  0  0  0  0  0
   36.0999   20.3060    6.0102 C   0  0  0  0  0  0  0  0  0  0  0  0
   35.4524   21.4313    5.5146 C   0  0  0  0  0  0  0  0  0  0  0  0
   35.8071   21.9457    4.3408 N   0  0  0  0  0  0  0  0  0  0  0  0
   37.1040   19.5456    5.5226 N   0  0  0  0  0  0  0  0  0  0  0  0
   37.3674   18.5545    6.4050 C   0  0  0  0  0  0  0  0  0  0  0  0
   36.5173   18.6852    7.4728 N   0  0  0  0  0  0  0  0  0  0  0  0
  2  1  1  6  0  0  0
  2  3  1  0  0  0  0
  2  5  1  0  0  0  0
  3  4  1  0  0  0  0
  3 16  1  0  0  0  0
  5  6  1  0  0  0  0
  6  7  1  0  0  0  0
  7  8  1  0  0  0  0
  9  8  1  6  0  0  0
  9 10  1  0  0  0  0
  9 11  1  0  0  0  0
 10 15  1  0  0  0  0
 11 12  1  1  0  0  0
 11 13  1  0  0  0  0
 13 14  1  1  0  0  0
 13 15  1  0  0  0  0
 15 26  1  6  0  0  0
 17 18  2  0  0  0  0
 17 22  1  0  0  0  0
 18 19  1  0  0  0  0
 19 20  2  0  0  0  0
 20 21  1  0  0  0  0
 20 26  1  0  0  0  0
 21 22  2  0  0  0  0
 21 24  1  0  0  0  0
 22 23  1  0  0  0  0
 24 25  2  0  0  0  0
 25 26  1  0  0  0  0
M  END
>  <CHROM.1>
159.18300009,-179.22704358,73.69087792,178.10152615,-147.09020303,50.01624698
-176.05326126,37.40993210,16.63804444,6.90148989,-0.60283284,0.81877587,-0.59691650

>  <Name>
ligand

>  <RI>
0

>  <Rbt.Current_Directory>
/home/itssahil/PROJECTS/Mol_Feturizer/New_Systems/rnas/3NPQ

>  <Rbt.Executable>
rbdock ($Id: //depot/dev/client3/rdock/2013.1/src/exe/rbdock.cxx#4 $)

>  <Rbt.Library>
libRbt.so (2013.1, Build901 2013/11/27)

>  <Rbt.Parameter_File>
/export/apps/rDock/src/rDock_2013.1_src/data/scripts/dock_solv.prm

>  <Rbt.Receptor>
prm/pocket_docking_6.prm

>  <SCORE>
-21.078

>  <SCORE.INTER>
-18.8161

>  <SCORE.INTER.CONST>
1

>  <SCORE.INTER.POLAR>
0

>  <SCORE.INTER.ROT>
7

>  <SCORE.INTER.SOLV>
17.1821

>  <SCORE.INTER.VDW>
-26.5381

>  <SCORE.INTER.norm>
-0.723698

>  <SCORE.INTRA>
-2.26184

>  <SCORE.INTRA.DIHEDRAL>
-1.88968

>  <SCORE.INTRA.DIHEDRAL.0>
6.97628

>  <SCORE.INTRA.POLAR>
0

>  <SCORE.INTRA.POLAR.0>
0

>  <SCORE.INTRA.REPUL>
0

>  <SCORE.INTRA.REPUL.0>
0

>  <SCORE.INTRA.SOLV>
-0.725965

>  <SCORE.INTRA.SOLV.lig_0>
-49.8243

>  <SCORE.INTRA.VDW>
-0.954015

>  <SCORE.INTRA.VDW.0>
-1.35881

>  <SCORE.INTRA.norm>
-0.0869937

>  <SCORE.RESTR>
0

>  <SCORE.RESTR.CAVITY>
0

>  <SCORE.RESTR.norm>
0

>  <SCORE.SYSTEM>
0

>  <SCORE.SYSTEM.CONST>
0

>  <SCORE.SYSTEM.DIHEDRAL>
0

>  <SCORE.SYSTEM.SOLV>
0

>  <SCORE.SYSTEM.norm>
0

>  <SCORE.heavy>
26

>  <SCORE.norm>
-0.810691

>  <RMSD>
8.969

$$$$
ligand
 OpenBabel11021811483D
libRbt.so/2013.1/901 2013/11/27
 26 28  0  0  0  0  0  0  0  0999 V2000
   40.8924   13.1491    4.5546 N   0  0  0  0  0  0  0  0  0  0  0  0
   40.9784   14.3859    5.3211 C   0  0  2  0  0  0  0  0  0  0  0  0
   42.4201   14.6891    5.7132 C   0  0  0  0  0  0  0  0  0  0  0  0
   43.3445   13.9731    5.3304 O   0  0  0  0  0  0  0  0  0  0  0  0
   40.1045   14.3041    6.5663 C   0  0  0  0  0  0  0  0  0  0  0  0
   38.6124   14.2131    6.2747 C   0  0  0  0  0  0  0  0  0  0  0  0
   37.6091   14.2157    7.7820 S   0  0  0  0  0  0  0  0  0  0  0  0
   37.3967   16.0082    7.6413 C   0  0  0  0  0  0  0  0  0  0  0  0
   36.8459   16.6374    8.9157 C   0  0  1  0  0  0  0  0  0  0  0  0
   36.9697   18.0465    8.8516 O   0  0  0  0  0  0  0  0  0  0  0  0
   35.3747   16.3087    9.1101 C   0  0  1  0  0  0  0  0  0  0  0  0
   35.2027   15.5480   10.2823 O   0  0  0  0  0  0  0  0  0  0  0  0
   34.6679   17.6412    9.2477 C   0  0  1  0  0  0  0  0  0  0  0  0
   33.9915   17.7051   10.4817 O   0  0  0  0  0  0  0  0  0  0  0  0
   35.7598   18.6959    9.1947 C   0  0  2  0  0  0  0  0  0  0  0  0
   42.6940   15.6583    6.4221 O   0  0  0  0  0  0  0  0  0  0  0  0
   37.6401   22.2001    5.7664 N   0  0  0  0  0  0  0  0  0  0  0  0
   38.3501   21.3651    6.6055 C   0  0  0  0  0  0  0  0  0  0  0  0
   37.6846   20.4981    7.4495 N   0  0  0  0  0  0  0  0  0  0  0  0
   36.3298   20.4611    7.4621 C   0  0  0  0  0  0  0  0  0  0  0  0
   35.5981   21.2934    6.6261 C   0  0  0  0  0  0  0  0  0  0  0  0
   36.2602   22.1682    5.7731 C   0  0  0  0  0  0  0  0  0  0  0  0
   35.5697   22.9707    4.9686 N   0  0  0  0  0  0  0  0  0  0  0  0
   34.2871   21.0510    6.8418 N   0  0  0  0  0  0  0  0  0  0  0  0
   34.1718   20.0913    7.7884 C   0  0  0  0  0  0  0  0  0  0  0  0
   35.4301   19.7156    8.1827 N   0  0  0  0  0  0  0  0  0  0  0  0
  2  1  1  1  0  0  0
  2  3  1  0  0  0  0
  2  5  1  0  0  0  0
  3  4  1  0  0  0  0
  3 16  1  0  0  0  0
  5  6  1  0  0  0  0
  6  7  1  0  0  0  0
  7  8  1  0  0  0  0
  9  8  1  6  0  0  0
  9 10  1  0  0  0  0
  9 11  1  0  0  0  0
 10 15  1  0  0  0  0
 11 12  1  1  0  0  0
 11 13  1  0  0  0  0
 13 14  1  1  0  0  0
 13 15  1  0  0  0  0
 15 26  1  6  0  0  0
 17 18  2  0  0  0  0
 17 22  1  0  0  0  0
 18 19  1  0  0  0  0
 19 20  2  0  0  0  0
 20 21  1  0  0  0  0
 20 26  1  0  0  0  0
 21 22  2  0  0  0  0
 21 24  1  0  0  0  0
 22 23  1  0  0  0  0
 24 25  2  0  0  0  0
 25 26  1  0  0  0  0
M  END
>  <CHROM.1>
3.64705594,-65.65361111,-176.64401894,94.34589096,-166.28127660,167.56280321
-32.52156337,37.52016852,17.53499795,7.33129001,-0.68804410,0.57789243,-0.36841265

>  <Name>
ligand

>  <RI>
0

>  <Rbt.Current_Directory>
/home/itssahil/PROJECTS/Mol_Feturizer/New_Systems/rnas/3NPQ

>  <Rbt.Executable>
rbdock ($Id: //depot/dev/client3/rdock/2013.1/src/exe/rbdock.cxx#4 $)

>  <Rbt.Library>
libRbt.so (2013.1, Build901 2013/11/27)

>  <Rbt.Parameter_File>
/export/apps/rDock/src/rDock_2013.1_src/data/scripts/dock_solv.prm

>  <Rbt.Receptor>
prm/pocket_docking_7.prm

>  <SCORE>
-18.3103

>  <SCORE.INTER>
-17.1012

>  <SCORE.INTER.CONST>
1

>  <SCORE.INTER.POLAR>
0

>  <SCORE.INTER.ROT>
7

>  <SCORE.INTER.SOLV>
15.8655

>  <SCORE.INTER.VDW>
-24.9559

>  <SCORE.INTER.norm>
-0.657738

>  <SCORE.INTRA>
-1.20909

>  <SCORE.INTRA.DIHEDRAL>
-1.82343

>  <SCORE.INTRA.DIHEDRAL.0>
6.97628

>  <SCORE.INTRA.POLAR>
0

>  <SCORE.INTRA.POLAR.0>
0

>  <SCORE.INTRA.REPUL>
0

>  <SCORE.INTRA.REPUL.0>
0

>  <SCORE.INTRA.SOLV>
-0.168911

>  <SCORE.INTRA.SOLV.lig_0>
-49.8243

>  <SCORE.INTRA.VDW>
-0.212917

>  <SCORE.INTRA.VDW.0>
-1.35881

>  <SCORE.INTRA.norm>
-0.0465034

>  <SCORE.RESTR>
0

>  <SCORE.RESTR.CAVITY>
0

>  <SCORE.RESTR.norm>
0

>  <SCORE.SYSTEM>
0

>  <SCORE.SYSTEM.CONST>
0

>  <SCORE.SYSTEM.DIHEDRAL>
0

>  <SCORE.SYSTEM.SOLV>
0

>  <SCORE.SYSTEM.norm>
0

>  <SCORE.heavy>
26

>  <SCORE.norm>
-0.704241

>  <RMSD>
8.969

$$$$
ligand
 OpenBabel11021811483D
libRbt.so/2013.1/901 2013/11/27
 26 28  0  0  0  0  0  0  0  0999 V2000
   40.9032   12.4773    4.2560 N   0  0  0  0  0  0  0  0  0  0  0  0
   40.3645   11.9182    5.4896 C   0  0  2  0  0  0  0  0  0  0  0  0
   39.8964   10.4823    5.2827 C   0  0  0  0  0  0  0  0  0  0  0  0
   40.5052    9.7194    4.5334 O   0  0  0  0  0  0  0  0  0  0  0  0
   39.2140   12.7735    6.0054 C   0  0  0  0  0  0  0  0  0  0  0  0
   39.5521   14.2518    6.1470 C   0  0  0  0  0  0  0  0  0  0  0  0
   38.0843   15.2767    6.4181 S   0  0  0  0  0  0  0  0  0  0  0  0
   38.1923   14.9659    8.1985 C   0  0  0  0  0  0  0  0  0  0  0  0
   37.1322   15.7199    8.9929 C   0  0  1  0  0  0  0  0  0  0  0  0
   37.2785   17.1139    8.7922 O   0  0  0  0  0  0  0  0  0  0  0  0
   35.7281   15.3329    8.5582 C   0  0  1  0  0  0  0  0  0  0  0  0
   35.0457   14.7202    9.6264 O   0  0  0  0  0  0  0  0  0  0  0  0
   35.0410   16.6281    8.1781 C   0  0  1  0  0  0  0  0  0  0  0  0
   33.8840   16.8099    8.9606 O   0  0  0  0  0  0  0  0  0  0  0  0
   36.0463   17.7297    8.4670 C   0  0  2  0  0  0  0  0  0  0  0  0
   38.8981   10.0511    5.8608 O   0  0  0  0  0  0  0  0  0  0  0  0
   34.5544   22.1438    6.0469 N   0  0  0  0  0  0  0  0  0  0  0  0
   34.1192   21.6498    7.2602 C   0  0  0  0  0  0  0  0  0  0  0  0
   34.6253   20.4615    7.7487 N   0  0  0  0  0  0  0  0  0  0  0  0
   35.5515   19.7702    7.0408 C   0  0  0  0  0  0  0  0  0  0  0  0
   36.0013   20.2503    5.8184 C   0  0  0  0  0  0  0  0  0  0  0  0
   35.4977   21.4459    5.3201 C   0  0  0  0  0  0  0  0  0  0  0  0
   35.9205   21.9150    4.1499 N   0  0  0  0  0  0  0  0  0  0  0  0
   36.9103   19.3752    5.3369 N   0  0  0  0  0  0  0  0  0  0  0  0
   37.0459   18.3588    6.2194 C   0  0  0  0  0  0  0  0  0  0  0  0
   36.2097   18.5898    7.2812 N   0  0  0  0  0  0  0  0  0  0  0  0
  2  1  1  6  0  0  0
  2  3  1  0  0  0  0
  2  5  1  0  0  0  0
  3  4  1  0  0  0  0
  3 16  1  0  0  0  0
  5  6  1  0  0  0  0
  6  7  1  0  0  0  0
  7  8  1  0  0  0  0
  9  8  1  6  0  0  0
  9 10  1  0  0  0  0
  9 11  1  0  0  0  0
 10 15  1  0  0  0  0
 11 12  1  1  0  0  0
 11 13  1  0  0  0  0
 13 14  1  1  0  0  0
 13 15  1  0  0  0  0
 15 26  1  6  0  0  0
 17 18  2  0  0  0  0
 17 22  1  0  0  0  0
 18 19  1  0  0  0  0
 19 20  2  0  0  0  0
 20 21  1  0  0  0  0
 20 26  1  0  0  0  0
 21 22  2  0  0  0  0
 21 24  1  0  0  0  0
 22 23  1  0  0  0  0
 24 25  2  0  0  0  0
 25 26  1  0  0  0  0
M  END
>  <CHROM.1>
36.17242859,-52.63202299,167.81598883,86.11000027,176.97516318,-59.96674506
-146.10764268,37.08571588,16.34543001,6.77697414,-0.79956856,0.87162577,-0.52090807

>  <Name>
ligand

>  <RI>
0

>  <Rbt.Current_Directory>
/home/itssahil/PROJECTS/Mol_Feturizer/New_Systems/rnas/3NPQ

>  <Rbt.Executable>
rbdock ($Id: //depot/dev/client3/rdock/2013.1/src/exe/rbdock.cxx#4 $)

>  <Rbt.Library>
libRbt.so (2013.1, Build901 2013/11/27)

>  <Rbt.Parameter_File>
/export/apps/rDock/src/rDock_2013.1_src/data/scripts/dock_solv.prm

>  <Rbt.Receptor>
prm/pocket_docking_6.prm

>  <SCORE>
-24.036

>  <SCORE.INTER>
-22.4332

>  <SCORE.INTER.CONST>
1

>  <SCORE.INTER.POLAR>
0

>  <SCORE.INTER.ROT>
7

>  <SCORE.INTER.SOLV>
19.416

>  <SCORE.INTER.VDW>
-29.6941

>  <SCORE.INTER.norm>
-0.862814

>  <SCORE.INTRA>
-1.60283

>  <SCORE.INTRA.DIHEDRAL>
-2.58906

>  <SCORE.INTRA.DIHEDRAL.0>
6.97628

>  <SCORE.INTRA.POLAR>
0

>  <SCORE.INTRA.POLAR.0>
0

>  <SCORE.INTRA.REPUL>
0

>  <SCORE.INTRA.REPUL.0>
0

>  <SCORE.INTRA.SOLV>
0.112064

>  <SCORE.INTRA.SOLV.lig_0>
-49.8243

>  <SCORE.INTRA.VDW>
-0.364329

>  <SCORE.INTRA.VDW.0>
-1.35881

>  <SCORE.INTRA.norm>
-0.0616471

>  <SCORE.RESTR>
0

>  <SCORE.RESTR.CAVITY>
0

>  <SCORE.RESTR.norm>
0

>  <SCORE.SYSTEM>
0

>  <SCORE.SYSTEM.CONST>
0

>  <SCORE.SYSTEM.DIHEDRAL>
0

>  <SCORE.SYSTEM.SOLV>
0

>  <SCORE.SYSTEM.norm>
0

>  <SCORE.heavy>
26

>  <SCORE.norm>
-0.924461

>  <RMSD>
8.982

$$$$
ligand
 OpenBabel11021811483D
libRbt.so/2013.1/901 2013/11/27
 26 28  0  0  0  0  0  0  0  0999 V2000
   40.4620   13.8171    4.9018 N   0  0  0  0  0  0  0  0  0  0  0  0
   40.1812   12.7423    5.8454 C   0  0  2  0  0  0  0  0  0  0  0  0
   40.2121   11.3837    5.1545 C   0  0  0  0  0  0  0  0  0  0  0  0
   40.8618   11.2118    4.1239 O   0  0  0  0  0  0  0  0  0  0  0  0
   38.8290   12.9581    6.5133 C   0  0  0  0  0  0  0  0  0  0  0  0
   38.6712   14.3218    7.1730 C   0  0  0  0  0  0  0  0  0  0  0  0
   37.1795   14.4308    8.1935 S   0  0  0  0  0  0  0  0  0  0  0  0
   37.3156   16.2362    8.2052 C   0  0  0  0  0  0  0  0  0  0  0  0
   36.1926   16.9059    8.9886 C   0  0  1  0  0  0  0  0  0  0  0  0
   36.4106   18.3039    9.0462 O   0  0  0  0  0  0  0  0  0  0  0  0
   34.8401   16.6733    8.3353 C   0  0  1  0  0  0  0  0  0  0  0  0
   34.0107   15.9312    9.1977 O   0  0  0  0  0  0  0  0  0  0  0  0
   34.2502   18.0491    8.1044 C   0  0  1  0  0  0  0  0  0  0  0  0
   33.0126   18.1625    8.7677 O   0  0  0  0  0  0  0  0  0  0  0  0
   35.2498   19.0313    8.6906 C   0  0  2  0  0  0  0  0  0  0  0  0
   39.5878   10.4255    5.6116 O   0  0  0  0  0  0  0  0  0  0  0  0
   39.0828   21.8236    6.4370 N   0  0  0  0  0  0  0  0  0  0  0  0
   39.1955   20.8665    7.4253 C   0  0  0  0  0  0  0  0  0  0  0  0
   38.0698   20.2261    7.9044 N   0  0  0  0  0  0  0  0  0  0  0  0
   36.8458   20.5329    7.4099 C   0  0  0  0  0  0  0  0  0  0  0  0
   36.7119   21.4930    6.4162 C   0  0  0  0  0  0  0  0  0  0  0  0
   37.8399   22.1414    5.9279 C   0  0  0  0  0  0  0  0  0  0  0  0
   37.7235   23.0634    4.9768 N   0  0  0  0  0  0  0  0  0  0  0  0
   35.3999   21.5973    6.1128 N   0  0  0  0  0  0  0  0  0  0  0  0
   34.7043   20.7319    6.8859 C   0  0  0  0  0  0  0  0  0  0  0  0
   35.5873   20.0648    7.6953 N   0  0  0  0  0  0  0  0  0  0  0  0
  2  1  1  6  0  0  0
  2  3  1  0  0  0  0
  2  5  1  0  0  0  0
  3  4  1  0  0  0  0
  3 16  1  0  0  0  0
  5  6  1  0  0  0  0
  6  7  1  0  0  0  0
  7  8  1  0  0  0  0
  9  8  1  6  0  0  0
  9 10  1  0  0  0  0
  9 11  1  0  0  0  0
 10 15  1  0  0  0  0
 11 12  1  1  0  0  0
 11 13  1  0  0  0  0
 13 14  1  1  0  0  0
 13 15  1  0  0  0  0
 15 26  1  6  0  0  0
 17 18  2  0  0  0  0
 17 22  1  0  0  0  0
 18 19  1  0  0  0  0
 19 20  2  0  0  0  0
 20 21  1  0  0  0  0
 20 26  1  0  0  0  0
 21 22  2  0  0  0  0
 21 24  1  0  0  0  0
 22 23  1  0  0  0  0
 24 25  2  0  0  0  0
 25 26  1  0  0  0  0
M  END
>  <CHROM.1>
24.77930591,-53.95111613,-170.00205297,-163.85276593,179.36730748,175.57871555
-16.93599368,37.23538936,17.15663163,7.14472889,-1.13853581,0.58898193,-0.10125033

>  <Name>
ligand

>  <RI>
0

>  <Rbt.Current_Directory>
/home/itssahil/PROJECTS/Mol_Feturizer/New_Systems/rnas/3NPQ

>  <Rbt.Executable>
rbdock ($Id: //depot/dev/client3/rdock/2013.1/src/exe/rbdock.cxx#4 $)

>  <Rbt.Library>
libRbt.so (2013.1, Build901 2013/11/27)

>  <Rbt.Parameter_File>
/export/apps/rDock/src/rDock_2013.1_src/data/scripts/dock_solv.prm

>  <Rbt.Receptor>
prm/pocket_docking_7.prm

>  <SCORE>
-25.3973

>  <SCORE.INTER>
-23.724

>  <SCORE.INTER.CONST>
1

>  <SCORE.INTER.POLAR>
0

>  <SCORE.INTER.ROT>
7

>  <SCORE.INTER.SOLV>
12.15

>  <SCORE.INTER.VDW>
-28.1326

>  <SCORE.INTER.norm>
-0.91246

>  <SCORE.INTRA>
-1.67331

>  <SCORE.INTRA.DIHEDRAL>
-3.32807

>  <SCORE.INTRA.DIHEDRAL.0>
6.97628

>  <SCORE.INTRA.POLAR>
0

>  <SCORE.INTRA.POLAR.0>
0

>  <SCORE.INTRA.REPUL>
0

>  <SCORE.INTRA.REPUL.0>
0

>  <SCORE.INTRA.SOLV>
-0.0483524

>  <SCORE.INTRA.SOLV.lig_0>
-49.8243

>  <SCORE.INTRA.VDW>
0.0148978

>  <SCORE.INTRA.VDW.0>
-1.35881

>  <SCORE.INTRA.norm>
-0.0643583

>  <SCORE.RESTR>
0

>  <SCORE.RESTR.CAVITY>
0

>  <SCORE.RESTR.norm>
0

>  <SCORE.SYSTEM>
0

>  <SCORE.SYSTEM.CONST>
0

>  <SCORE.SYSTEM.DIHEDRAL>
0

>  <SCORE.SYSTEM.SOLV>
0

>  <SCORE.SYSTEM.norm>
0

>  <SCORE.heavy>
26

>  <SCORE.norm>
-0.976819

>  <RMSD>
8.989

$$$$
ligand
 OpenBabel11021811483D
libRbt.so/2013.1/901 2013/11/27
 26 28  0  0  0  0  0  0  0  0999 V2000
   39.4481   18.4127    2.3974 N   0  0  0  0  0  0  0  0  0  0  0  0
   39.6524   17.9298    3.7574 C   0  0  2  0  0  0  0  0  0  0  0  0
   41.1137   18.0595    4.1719 C   0  0  0  0  0  0  0  0  0  0  0  0
   41.4311   18.6736    5.1898 O   0  0  0  0  0  0  0  0  0  0  0  0
   39.2006   16.4802    3.8825 C   0  0  0  0  0  0  0  0  0  0  0  0
   37.7047   16.2749    3.6830 C   0  0  0  0  0  0  0  0  0  0  0  0
   36.7119   17.1782    4.8982 S   0  0  0  0  0  0  0  0  0  0  0  0
   36.9067   15.8159    6.0747 C   0  0  0  0  0  0  0  0  0  0  0  0
   36.5301   16.2095    7.4983 C   0  0  1  0  0  0  0  0  0  0  0  0
   37.2842   17.3375    7.9034 O   0  0  0  0  0  0  0  0  0  0  0  0
   35.0579   16.5717    7.6068 C   0  0  1  0  0  0  0  0  0  0  0  0
   34.4020   15.6669    8.4632 O   0  0  0  0  0  0  0  0  0  0  0  0
   35.0175   17.9664    8.1960 C   0  0  1  0  0  0  0  0  0  0  0  0
   34.2805   17.9634    9.3965 O   0  0  0  0  0  0  0  0  0  0  0  0
   36.4636   18.3413    8.4710 C   0  0  2  0  0  0  0  0  0  0  0  0
   42.0114   17.5525    3.4983 O   0  0  0  0  0  0  0  0  0  0  0  0
   34.5114   22.7574    6.4085 N   0  0  0  0  0  0  0  0  0  0  0  0
   33.8187   21.6731    6.9086 C   0  0  0  0  0  0  0  0  0  0  0  0
   34.5021   20.5864    7.4176 N   0  0  0  0  0  0  0  0  0  0  0  0
   35.8573   20.5747    7.4287 C   0  0  0  0  0  0  0  0  0  0  0  0
   36.5717   21.6554    6.9297 C   0  0  0  0  0  0  0  0  0  0  0  0
   35.8916   22.7533    6.4166 C   0  0  0  0  0  0  0  0  0  0  0  0
   36.5654   23.7936    5.9352 N   0  0  0  0  0  0  0  0  0  0  0  0
   37.8874   21.3814    7.0633 N   0  0  0  0  0  0  0  0  0  0  0  0
   38.0224   20.1609    7.6311 C   0  0  0  0  0  0  0  0  0  0  0  0
   36.7722   19.6483    7.8635 N   0  0  0  0  0  0  0  0  0  0  0  0
  2  1  1  6  0  0  0
  2  3  1  0  0  0  0
  2  5  1  0  0  0  0
  3  4  1  0  0  0  0
  3 16  1  0  0  0  0
  5  6  1  0  0  0  0
  6  7  1  0  0  0  0
  7  8  1  0  0  0  0
  9  8  1  6  0  0  0
  9 10  1  0  0  0  0
  9 11  1  0  0  0  0
 10 15  1  0  0  0  0
 11 12  1  1  0  0  0
 11 13  1  0  0  0  0
 13 14  1  1  0  0  0
 13 15  1  0  0  0  0
 15 26  1  6  0  0  0
 17 18  2  0  0  0  0
 17 22  1  0  0  0  0
 18 19  1  0  0  0  0
 19 20  2  0  0  0  0
 20 21  1  0  0  0  0
 20 26  1  0  0  0  0
 21 22  2  0  0  0  0
 21 24  1  0  0  0  0
 22 23  1  0  0  0  0
 24 25  2  0  0  0  0
 25 26  1  0  0  0  0
M  END
>  <CHROM.1>
124.88303230,-65.21051892,-60.60737541,-84.40323105,164.85616749,-55.75578758
134.95600365,37.07987617,18.73730997,6.27658027,-0.40592187,0.66089480,-0.05060896

>  <Name>
ligand

>  <RI>
0

>  <Rbt.Current_Directory>
/home/itssahil/PROJECTS/Mol_Feturizer/New_Systems/rnas/3NPQ

>  <Rbt.Executable>
rbdock ($Id: //depot/dev/client3/rdock/2013.1/src/exe/rbdock.cxx#4 $)

>  <Rbt.Library>
libRbt.so (2013.1, Build901 2013/11/27)

>  <Rbt.Parameter_File>
/export/apps/rDock/src/rDock_2013.1_src/data/scripts/dock_solv.prm

>  <Rbt.Receptor>
prm/pocket_docking_8.prm

>  <SCORE>
-10.0087

>  <SCORE.INTER>
-7.99309

>  <SCORE.INTER.CONST>
1

>  <SCORE.INTER.POLAR>
0

>  <SCORE.INTER.ROT>
7

>  <SCORE.INTER.SOLV>
8.17232

>  <SCORE.INTER.VDW>
-16.3195

>  <SCORE.INTER.norm>
-0.307426

>  <SCORE.INTRA>
-2.01559

>  <SCORE.INTRA.DIHEDRAL>
-2.91712

>  <SCORE.INTRA.DIHEDRAL.0>
6.97628

>  <SCORE.INTRA.POLAR>
0

>  <SCORE.INTRA.POLAR.0>
0

>  <SCORE.INTRA.REPUL>
0

>  <SCORE.INTRA.REPUL.0>
0

>  <SCORE.INTRA.SOLV>
0.631882

>  <SCORE.INTRA.SOLV.lig_0>
-49.8243

>  <SCORE.INTRA.VDW>
-0.872977

>  <SCORE.INTRA.VDW.0>
-1.35881

>  <SCORE.INTRA.norm>
-0.0775228

>  <SCORE.RESTR>
0

>  <SCORE.RESTR.CAVITY>
0

>  <SCORE.RESTR.norm>
0

>  <SCORE.SYSTEM>
0

>  <SCORE.SYSTEM.CONST>
0

>  <SCORE.SYSTEM.DIHEDRAL>
0

>  <SCORE.SYSTEM.SOLV>
0

>  <SCORE.SYSTEM.norm>
0

>  <SCORE.heavy>
26

>  <SCORE.norm>
-0.384949

>  <RMSD>
8.991

$$$$
ligand
 OpenBabel11021811483D
libRbt.so/2013.1/901 2013/11/27
 26 28  0  0  0  0  0  0  0  0999 V2000
   43.3616    8.2179    2.4318 N   0  0  0  0  0  0  0  0  0  0  0  0
   42.5496    9.0802    3.2814 C   0  0  2  0  0  0  0  0  0  0  0  0
   41.1779    8.4654    3.5354 C   0  0  0  0  0  0  0  0  0  0  0  0
   40.6622    8.5068    4.6518 O   0  0  0  0  0  0  0  0  0  0  0  0
   42.3956   10.4585    2.6509 C   0  0  0  0  0  0  0  0  0  0  0  0
   42.1494   11.5779    3.6540 C   0  0  0  0  0  0  0  0  0  0  0  0
   40.5989   11.3654    4.5646 S   0  0  0  0  0  0  0  0  0  0  0  0
   40.7301   13.0597    5.1894 C   0  0  0  0  0  0  0  0  0  0  0  0
   40.1245   13.2231    6.5786 C   0  0  1  0  0  0  0  0  0  0  0  0
   40.2568   14.5656    7.0087 O   0  0  0  0  0  0  0  0  0  0  0  0
   38.6446   12.8763    6.5872 C   0  0  1  0  0  0  0  0  0  0  0  0
   38.4164   11.7625    7.4177 O   0  0  0  0  0  0  0  0  0  0  0  0
   37.9378   14.0939    7.1458 C   0  0  1  0  0  0  0  0  0  0  0  0
   37.2062   13.7428    8.2973 O   0  0  0  0  0  0  0  0  0  0  0  0
   39.0353   15.0810    7.5042 C   0  0  2  0  0  0  0  0  0  0  0  0
   40.5529    7.9129    2.6294 O   0  0  0  0  0  0  0  0  0  0  0  0
   36.3335   19.5689    7.8606 N   0  0  0  0  0  0  0  0  0  0  0  0
   36.3068   18.4890    8.7201 C   0  0  0  0  0  0  0  0  0  0  0  0
   37.0913   17.3809    8.4685 N   0  0  0  0  0  0  0  0  0  0  0  0
   37.8923   17.3436    7.3758 C   0  0  0  0  0  0  0  0  0  0  0  0
   37.9325   18.4194    6.4993 C   0  0  0  0  0  0  0  0  0  0  0  0
   37.1467   19.5388    6.7458 C   0  0  0  0  0  0  0  0  0  0  0  0
   37.1765   20.5748    5.9126 N   0  0  0  0  0  0  0  0  0  0  0  0
   38.8030   18.1186    5.5115 N   0  0  0  0  0  0  0  0  0  0  0  0
   39.3114   16.8858    5.7398 C   0  0  0  0  0  0  0  0  0  0  0  0
   38.7561   16.3927    6.8924 N   0  0  0  0  0  0  0  0  0  0  0  0
  2  1  1  6  0  0  0
  2  3  1  0  0  0  0
  2  5  1  0  0  0  0
  3  4  1  0  0  0  0
  3 16  1  0  0  0  0
  5  6  1  0  0  0  0
  6  7  1  0  0  0  0
  7  8  1  0  0  0  0
  9  8  1  6  0  0  0
  9 10  1  0  0  0  0
  9 11  1  0  0  0  0
 10 15  1  0  0  0  0
 11 12  1  1  0  0  0
 11 13  1  0  0  0  0
 13 14  1  1  0  0  0
 13 15  1  0  0  0  0
 15 26  1  6  0  0  0
 17 18  2  0  0  0  0
 17 22  1  0  0  0  0
 18 19  1  0  0  0  0
 19 20  2  0  0  0  0
 20 21  1  0  0  0  0
 20 26  1  0  0  0  0
 21 22  2  0  0  0  0
 21 24  1  0  0  0  0
 22 23  1  0  0  0  0
 24 25  2  0  0  0  0
 25 26  1  0  0  0  0
M  END
>  <CHROM.1>
138.27380484,-153.56676389,-62.86732909,-167.77645767,-148.35723499,-179.92881245
-160.83980431,39.42136717,13.83637713,5.79644766,-0.89396242,0.88839664,-0.16438145

>  <Name>
ligand

>  <RI>
0

>  <Rbt.Current_Directory>
/home/itssahil/PROJECTS/Mol_Feturizer/New_Systems/rnas/3NPQ

>  <Rbt.Executable>
rbdock ($Id: //depot/dev/client3/rdock/2013.1/src/exe/rbdock.cxx#4 $)

>  <Rbt.Library>
libRbt.so (2013.1, Build901 2013/11/27)

>  <Rbt.Parameter_File>
/export/apps/rDock/src/rDock_2013.1_src/data/scripts/dock_solv.prm

>  <Rbt.Receptor>
prm/pocket_docking_4.prm

>  <SCORE>
-20.3677

>  <SCORE.INTER>
-18.957

>  <SCORE.INTER.CONST>
1

>  <SCORE.INTER.POLAR>
0

>  <SCORE.INTER.ROT>
7

>  <SCORE.INTER.SOLV>
13.8644

>  <SCORE.INTER.VDW>
-25.5262

>  <SCORE.INTER.norm>
-0.729117

>  <SCORE.INTRA>
-1.41362

>  <SCORE.INTRA.DIHEDRAL>
-0.392013

>  <SCORE.INTRA.DIHEDRAL.0>
6.97628

>  <SCORE.INTRA.POLAR>
0

>  <SCORE.INTRA.POLAR.0>
0

>  <SCORE.INTRA.REPUL>
0

>  <SCORE.INTRA.REPUL.0>
0

>  <SCORE.INTRA.SOLV>
-0.564112

>  <SCORE.INTRA.SOLV.lig_0>
-49.8243

>  <SCORE.INTRA.VDW>
-0.935555

>  <SCORE.INTRA.VDW.0>
-1.35881

>  <SCORE.INTRA.norm>
-0.0543699

>  <SCORE.RESTR>
0.00291779

>  <SCORE.RESTR.CAVITY>
0.00291779

>  <SCORE.RESTR.norm>
0.000112223

>  <SCORE.SYSTEM>
0

>  <SCORE.SYSTEM.CONST>
0

>  <SCORE.SYSTEM.DIHEDRAL>
0

>  <SCORE.SYSTEM.SOLV>
0

>  <SCORE.SYSTEM.norm>
0

>  <SCORE.heavy>
26

>  <SCORE.norm>
-0.783375

>  <RMSD>
8.995

$$$$
ligand
 OpenBabel11021811483D
libRbt.so/2013.1/901 2013/11/27
 26 28  0  0  0  0  0  0  0  0999 V2000
   41.0741   12.0815    4.3557 N   0  0  0  0  0  0  0  0  0  0  0  0
   40.3790   12.3066    5.6169 C   0  0  2  0  0  0  0  0  0  0  0  0
   39.3907   11.1827    5.9069 C   0  0  0  0  0  0  0  0  0  0  0  0
   39.3157   10.1997    5.1706 O   0  0  0  0  0  0  0  0  0  0  0  0
   39.6544   13.6467    5.5952 C   0  0  0  0  0  0  0  0  0  0  0  0
   39.0848   14.0683    6.9433 C   0  0  0  0  0  0  0  0  0  0  0  0
   38.1320   15.6048    6.8445 S   0  0  0  0  0  0  0  0  0  0  0  0
   38.0619   15.6813    8.6521 C   0  0  0  0  0  0  0  0  0  0  0  0
   36.7828   16.3331    9.1643 C   0  0  1  0  0  0  0  0  0  0  0  0
   36.8047   17.7220    8.8893 O   0  0  0  0  0  0  0  0  0  0  0  0
   35.5504   15.7465    8.4955 C   0  0  1  0  0  0  0  0  0  0  0  0
   34.7411   15.1078    9.4543 O   0  0  0  0  0  0  0  0  0  0  0  0
   34.8097   16.9209    7.8903 C   0  0  1  0  0  0  0  0  0  0  0  0
   33.5049   16.9930    8.4162 O   0  0  0  0  0  0  0  0  0  0  0  0
   35.6012   18.1563    8.2839 C   0  0  2  0  0  0  0  0  0  0  0  0
   38.6442   11.2313    6.8852 O   0  0  0  0  0  0  0  0  0  0  0  0
   34.6552   22.6311    5.7055 N   0  0  0  0  0  0  0  0  0  0  0  0
   34.1191   22.2112    6.9063 C   0  0  0  0  0  0  0  0  0  0  0  0
   34.4851   20.9926    7.4427 N   0  0  0  0  0  0  0  0  0  0  0  0
   35.3718   20.1985    6.7944 C   0  0  0  0  0  0  0  0  0  0  0  0
   35.9214   20.6030    5.5855 C   0  0  0  0  0  0  0  0  0  0  0  0
   35.5590   21.8284    5.0393 C   0  0  0  0  0  0  0  0  0  0  0  0
   36.0784   22.2257    3.8815 N   0  0  0  0  0  0  0  0  0  0  0  0
   36.7629   19.6333    5.1662 N   0  0  0  0  0  0  0  0  0  0  0  0
   36.7590   18.6309    6.0747 C   0  0  0  0  0  0  0  0  0  0  0  0
   35.9012   18.9670    7.0901 N   0  0  0  0  0  0  0  0  0  0  0  0
  2  1  1  6  0  0  0
  2  3  1  0  0  0  0
  2  5  1  0  0  0  0
  3  4  1  0  0  0  0
  3 16  1  0  0  0  0
  5  6  1  0  0  0  0
  6  7  1  0  0  0  0
  7  8  1  0  0  0  0
  9  8  1  6  0  0  0
  9 10  1  0  0  0  0
  9 11  1  0  0  0  0
 10 15  1  0  0  0  0
 11 12  1  1  0  0  0
 11 13  1  0  0  0  0
 13 14  1  1  0  0  0
 13 15  1  0  0  0  0
 15 26  1  6  0  0  0
 17 18  2  0  0  0  0
 17 22  1  0  0  0  0
 18 19  1  0  0  0  0
 19 20  2  0  0  0  0
 20 21  1  0  0  0  0
 20 26  1  0  0  0  0
 21 22  2  0  0  0  0
 21 24  1  0  0  0  0
 22 23  1  0  0  0  0
 24 25  2  0  0  0  0
 25 26  1  0  0  0  0
M  END
>  <CHROM.1>
4.63278232,-170.80087936,-175.86424617,-169.88220894,-148.37580597,-70.82605602
-130.56448971,36.89388854,16.76588050,6.81678603,-0.87528396,0.82265225,-0.51757812

>  <Name>
ligand

>  <RI>
0

>  <Rbt.Current_Directory>
/home/itssahil/PROJECTS/Mol_Feturizer/New_Systems/rnas/3NPQ

>  <Rbt.Executable>
rbdock ($Id: //depot/dev/client3/rdock/2013.1/src/exe/rbdock.cxx#4 $)

>  <Rbt.Library>
libRbt.so (2013.1, Build901 2013/11/27)

>  <Rbt.Parameter_File>
/export/apps/rDock/src/rDock_2013.1_src/data/scripts/dock_solv.prm

>  <Rbt.Receptor>
prm/pocket_docking_6.prm

>  <SCORE>
-22.4737

>  <SCORE.INTER>
-20.5289

>  <SCORE.INTER.CONST>
1

>  <SCORE.INTER.POLAR>
0

>  <SCORE.INTER.ROT>
7

>  <SCORE.INTER.SOLV>
19.5118

>  <SCORE.INTER.VDW>
-28.4565

>  <SCORE.INTER.norm>
-0.789574

>  <SCORE.INTRA>
-1.9549

>  <SCORE.INTRA.DIHEDRAL>
-2.04753

>  <SCORE.INTRA.DIHEDRAL.0>
6.97628

>  <SCORE.INTRA.POLAR>
0

>  <SCORE.INTRA.POLAR.0>
0

>  <SCORE.INTRA.REPUL>
0

>  <SCORE.INTRA.REPUL.0>
0

>  <SCORE.INTRA.SOLV>
-0.668011

>  <SCORE.INTRA.SOLV.lig_0>
-49.8243

>  <SCORE.INTRA.VDW>
-0.597127

>  <SCORE.INTRA.VDW.0>
-1.35881

>  <SCORE.INTRA.norm>
-0.0751883

>  <SCORE.RESTR>
0.0101292

>  <SCORE.RESTR.CAVITY>
0.0101292

>  <SCORE.RESTR.norm>
0.000389584

>  <SCORE.SYSTEM>
0

>  <SCORE.SYSTEM.CONST>
0

>  <SCORE.SYSTEM.DIHEDRAL>
0

>  <SCORE.SYSTEM.SOLV>
0

>  <SCORE.SYSTEM.norm>
0

>  <SCORE.heavy>
26

>  <SCORE.norm>
-0.864372

>  <RMSD>
9.020

$$$$
ligand
 OpenBabel11021811483D
libRbt.so/2013.1/901 2013/11/27
 26 28  0  0  0  0  0  0  0  0999 V2000
   44.1755    7.3250    2.0745 N   0  0  0  0  0  0  0  0  0  0  0  0
   43.4747    8.3766    2.8007 C   0  0  2  0  0  0  0  0  0  0  0  0
   41.9645    8.1821    2.7263 C   0  0  0  0  0  0  0  0  0  0  0  0
   41.2462    8.4242    3.6955 O   0  0  0  0  0  0  0  0  0  0  0  0
   43.8525    9.7469    2.2523 C   0  0  0  0  0  0  0  0  0  0  0  0
   43.2094   10.9125    2.9922 C   0  0  0  0  0  0  0  0  0  0  0  0
   41.5113   11.2278    2.4488 S   0  0  0  0  0  0  0  0  0  0  0  0
   41.3725   12.5731    3.6525 C   0  0  0  0  0  0  0  0  0  0  0  0
   41.0667   12.0743    5.0599 C   0  0  1  0  0  0  0  0  0  0  0  0
   40.9932   13.1688    5.9553 O   0  0  0  0  0  0  0  0  0  0  0  0
   39.7376   11.3388    5.1154 C   0  0  1  0  0  0  0  0  0  0  0  0
   39.9472    9.9932    5.4726 O   0  0  0  0  0  0  0  0  0  0  0  0
   38.9221   12.0383    6.1829 C   0  0  1  0  0  0  0  0  0  0  0  0
   38.5568   11.1235    7.1898 O   0  0  0  0  0  0  0  0  0  0  0  0
   39.8282   13.1138    6.7571 C   0  0  2  0  0  0  0  0  0  0  0  0
   41.4272    7.7784    1.6942 O   0  0  0  0  0  0  0  0  0  0  0  0
   35.8942   15.9944    8.7048 N   0  0  0  0  0  0  0  0  0  0  0  0
   36.2271   14.6904    9.0119 C   0  0  0  0  0  0  0  0  0  0  0  0
   37.3050   14.0849    8.3969 N   0  0  0  0  0  0  0  0  0  0  0  0
   38.0434   14.7647    7.4860 C   0  0  0  0  0  0  0  0  0  0  0  0
   37.7240   16.0766    7.1634 C   0  0  0  0  0  0  0  0  0  0  0  0
   36.6413   16.6936    7.7786 C   0  0  0  0  0  0  0  0  0  0  0  0
   36.3256   17.9495    7.4766 N   0  0  0  0  0  0  0  0  0  0  0  0
   38.6126   16.5062    6.2415 N   0  0  0  0  0  0  0  0  0  0  0  0
   39.4814   15.5041    5.9743 C   0  0  0  0  0  0  0  0  0  0  0  0
   39.1411   14.4178    6.7385 N   0  0  0  0  0  0  0  0  0  0  0  0
  2  1  1  6  0  0  0
  2  3  1  0  0  0  0
  2  5  1  0  0  0  0
  3  4  1  0  0  0  0
  3 16  1  0  0  0  0
  5  6  1  0  0  0  0
  6  7  1  0  0  0  0
  7  8  1  0  0  0  0
  9  8  1  6  0  0  0
  9 10  1  0  0  0  0
  9 11  1  0  0  0  0
 10 15  1  0  0  0  0
 11 12  1  1  0  0  0
 11 13  1  0  0  0  0
 13 14  1  1  0  0  0
 13 15  1  0  0  0  0
 15 26  1  6  0  0  0
 17 18  2  0  0  0  0
 17 22  1  0  0  0  0
 18 19  1  0  0  0  0
 19 20  2  0  0  0  0
 20 21  1  0  0  0  0
 20 26  1  0  0  0  0
 21 22  2  0  0  0  0
 21 24  1  0  0  0  0
 22 23  1  0  0  0  0
 24 25  2  0  0  0  0
 25 26  1  0  0  0  0
M  END
>  <CHROM.1>
141.95002634,-177.58313664,-81.49650630,178.78069302,-80.85403819,179.01629644
-174.29823510,40.00557874,12.29704653,5.22743905,0.72091867,-0.78784659,3.10975006

>  <Name>
ligand

>  <RI>
0

>  <Rbt.Current_Directory>
/home/itssahil/PROJECTS/Mol_Feturizer/New_Systems/rnas/3NPQ

>  <Rbt.Executable>
rbdock ($Id: //depot/dev/client3/rdock/2013.1/src/exe/rbdock.cxx#4 $)

>  <Rbt.Library>
libRbt.so (2013.1, Build901 2013/11/27)

>  <Rbt.Parameter_File>
/export/apps/rDock/src/rDock_2013.1_src/data/scripts/dock_solv.prm

>  <Rbt.Receptor>
prm/pocket_docking_7.prm

>  <SCORE>
-23.1827

>  <SCORE.INTER>
-20.452

>  <SCORE.INTER.CONST>
1

>  <SCORE.INTER.POLAR>
0

>  <SCORE.INTER.ROT>
7

>  <SCORE.INTER.SOLV>
16.5628

>  <SCORE.INTER.VDW>
-27.4223

>  <SCORE.INTER.norm>
-0.786617

>  <SCORE.INTRA>
-2.73063

>  <SCORE.INTRA.DIHEDRAL>
-2.06524

>  <SCORE.INTRA.DIHEDRAL.0>
6.97628

>  <SCORE.INTRA.POLAR>
0

>  <SCORE.INTRA.POLAR.0>
0

>  <SCORE.INTRA.REPUL>
0

>  <SCORE.INTRA.REPUL.0>
0

>  <SCORE.INTRA.SOLV>
-0.35004

>  <SCORE.INTRA.SOLV.lig_0>
-49.8243

>  <SCORE.INTRA.VDW>
-1.52299

>  <SCORE.INTRA.VDW.0>
-1.35881

>  <SCORE.INTRA.norm>
-0.105024

>  <SCORE.RESTR>
0

>  <SCORE.RESTR.CAVITY>
0

>  <SCORE.RESTR.norm>
0

>  <SCORE.SYSTEM>
0

>  <SCORE.SYSTEM.CONST>
0

>  <SCORE.SYSTEM.DIHEDRAL>
0

>  <SCORE.SYSTEM.SOLV>
0

>  <SCORE.SYSTEM.norm>
0

>  <SCORE.heavy>
26

>  <SCORE.norm>
-0.891641

>  <RMSD>
9.051

$$$$
ligand
 OpenBabel11021811483D
libRbt.so/2013.1/901 2013/11/27
 26 28  0  0  0  0  0  0  0  0999 V2000
   43.0756   14.5548    5.3683 N   0  0  0  0  0  0  0  0  0  0  0  0
   41.9918   13.6811    4.9361 C   0  0  2  0  0  0  0  0  0  0  0  0
   42.5236   12.5135    4.1128 C   0  0  0  0  0  0  0  0  0  0  0  0
   43.4921   12.6536    3.3669 O   0  0  0  0  0  0  0  0  0  0  0  0
   40.9644   14.4645    4.1287 C   0  0  0  0  0  0  0  0  0  0  0  0
   40.0778   15.3762    4.9669 C   0  0  0  0  0  0  0  0  0  0  0  0
   39.0706   14.4595    6.1600 S   0  0  0  0  0  0  0  0  0  0  0  0
   38.4702   16.0192    6.8564 C   0  0  0  0  0  0  0  0  0  0  0  0
   37.8011   15.8386    8.2139 C   0  0  1  0  0  0  0  0  0  0  0  0
   37.3868   17.0947    8.7194 O   0  0  0  0  0  0  0  0  0  0  0  0
   36.5726   14.9488    8.1171 C   0  0  1  0  0  0  0  0  0  0  0  0
   36.7661   13.7777    8.8743 O   0  0  0  0  0  0  0  0  0  0  0  0
   35.4296   15.7575    8.6947 C   0  0  1  0  0  0  0  0  0  0  0  0
   34.8523   15.0718    9.7814 O   0  0  0  0  0  0  0  0  0  0  0  0
   36.0446   17.0635    9.1676 C   0  0  2  0  0  0  0  0  0  0  0  0
   41.9971   11.4019    4.1750 O   0  0  0  0  0  0  0  0  0  0  0  0
   36.3651   21.6953    6.7159 N   0  0  0  0  0  0  0  0  0  0  0  0
   37.3969   20.8622    7.0991 C   0  0  0  0  0  0  0  0  0  0  0  0
   37.1258   19.6696    7.7401 N   0  0  0  0  0  0  0  0  0  0  0  0
   35.8455   19.3081    7.9995 C   0  0  0  0  0  0  0  0  0  0  0  0
   34.7944   20.1327    7.6224 C   0  0  0  0  0  0  0  0  0  0  0  0
   35.0586   21.3342    6.9761 C   0  0  0  0  0  0  0  0  0  0  0  0
   34.0597   22.1324    6.6111 N   0  0  0  0  0  0  0  0  0  0  0  0
   33.6424   19.5359    7.9979 N   0  0  0  0  0  0  0  0  0  0  0  0
   33.9372   18.3609    8.6001 C   0  0  0  0  0  0  0  0  0  0  0  0
   35.2994   18.2058    8.6085 N   0  0  0  0  0  0  0  0  0  0  0  0
  2  1  1  6  0  0  0
  2  3  1  0  0  0  0
  2  5  1  0  0  0  0
  3  4  1  0  0  0  0
  3 16  1  0  0  0  0
  5  6  1  0  0  0  0
  6  7  1  0  0  0  0
  7  8  1  0  0  0  0
  9  8  1  6  0  0  0
  9 10  1  0  0  0  0
  9 11  1  0  0  0  0
 10 15  1  0  0  0  0
 11 12  1  1  0  0  0
 11 13  1  0  0  0  0
 13 14  1  1  0  0  0
 13 15  1  0  0  0  0
 15 26  1  6  0  0  0
 17 18  2  0  0  0  0
 17 22  1  0  0  0  0
 18 19  1  0  0  0  0
 19 20  2  0  0  0  0
 20 21  1  0  0  0  0
 20 26  1  0  0  0  0
 21 22  2  0  0  0  0
 21 24  1  0  0  0  0
 22 23  1  0  0  0  0
 24 25  2  0  0  0  0
 25 26  1  0  0  0  0
M  END
>  <CHROM.1>
-34.53691228,-74.23070504,-62.35540651,174.71809673,-164.85099729,178.45330548
-13.77622793,37.82924117,16.53517269,6.93128266,-0.54180641,0.64800654,-0.31593485

>  <Name>
ligand

>  <RI>
0

>  <Rbt.Current_Directory>
/home/itssahil/PROJECTS/Mol_Feturizer/New_Systems/rnas/3NPQ

>  <Rbt.Executable>
rbdock ($Id: //depot/dev/client3/rdock/2013.1/src/exe/rbdock.cxx#4 $)

>  <Rbt.Library>
libRbt.so (2013.1, Build901 2013/11/27)

>  <Rbt.Parameter_File>
/export/apps/rDock/src/rDock_2013.1_src/data/scripts/dock_solv.prm

>  <Rbt.Receptor>
prm/pocket_docking_5.prm

>  <SCORE>
-16.8278

>  <SCORE.INTER>
-14.481

>  <SCORE.INTER.CONST>
1

>  <SCORE.INTER.POLAR>
0

>  <SCORE.INTER.ROT>
7

>  <SCORE.INTER.SOLV>
18.8172

>  <SCORE.INTER.VDW>
-24.1931

>  <SCORE.INTER.norm>
-0.556962

>  <SCORE.INTRA>
-2.34676

>  <SCORE.INTRA.DIHEDRAL>
-3.08173

>  <SCORE.INTRA.DIHEDRAL.0>
6.97628

>  <SCORE.INTRA.POLAR>
0

>  <SCORE.INTRA.POLAR.0>
0

>  <SCORE.INTRA.REPUL>
0

>  <SCORE.INTRA.REPUL.0>
0

>  <SCORE.INTRA.SOLV>
0.268321

>  <SCORE.INTRA.SOLV.lig_0>
-49.8243

>  <SCORE.INTRA.VDW>
-0.940056

>  <SCORE.INTRA.VDW.0>
-1.35881

>  <SCORE.INTRA.norm>
-0.09026

>  <SCORE.RESTR>
0

>  <SCORE.RESTR.CAVITY>
0

>  <SCORE.RESTR.norm>
0

>  <SCORE.SYSTEM>
0

>  <SCORE.SYSTEM.CONST>
0

>  <SCORE.SYSTEM.DIHEDRAL>
0

>  <SCORE.SYSTEM.SOLV>
0

>  <SCORE.SYSTEM.norm>
0

>  <SCORE.heavy>
26

>  <SCORE.norm>
-0.647222

>  <RMSD>
9.075

$$$$
ligand
 OpenBabel11021811483D
libRbt.so/2013.1/901 2013/11/27
 26 28  0  0  0  0  0  0  0  0999 V2000
   40.6071   13.7451    6.2909 N   0  0  0  0  0  0  0  0  0  0  0  0
   39.3763   13.1577    6.8055 C   0  0  2  0  0  0  0  0  0  0  0  0
   39.2623   11.6896    6.4109 C   0  0  0  0  0  0  0  0  0  0  0  0
   38.5127   10.9267    7.0190 O   0  0  0  0  0  0  0  0  0  0  0  0
   38.1643   13.9302    6.3001 C   0  0  0  0  0  0  0  0  0  0  0  0
   38.0441   15.3393    6.8654 C   0  0  0  0  0  0  0  0  0  0  0  0
   37.6517   15.3470    8.6330 S   0  0  0  0  0  0  0  0  0  0  0  0
   37.3177   17.1248    8.5543 C   0  0  0  0  0  0  0  0  0  0  0  0
   35.9610   17.4952    9.1421 C   0  0  1  0  0  0  0  0  0  0  0  0
   35.8235   18.9037    9.1903 O   0  0  0  0  0  0  0  0  0  0  0  0
   34.8195   16.9454    8.3025 C   0  0  1  0  0  0  0  0  0  0  0  0
   34.0735   16.0174    9.0538 O   0  0  0  0  0  0  0  0  0  0  0  0
   33.9566   18.1381    7.9461 C   0  0  1  0  0  0  0  0  0  0  0  0
   32.6427   17.9420    8.4147 O   0  0  0  0  0  0  0  0  0  0  0  0
   34.5888   19.3295    8.6449 C   0  0  2  0  0  0  0  0  0  0  0  0
   39.9174   11.2321    5.4736 O   0  0  0  0  0  0  0  0  0  0  0  0
   38.1361   22.0564    5.8976 N   0  0  0  0  0  0  0  0  0  0  0  0
   38.3573   21.0122    6.7729 C   0  0  0  0  0  0  0  0  0  0  0  0
   37.2952   20.4058    7.4141 N   0  0  0  0  0  0  0  0  0  0  0  0
   36.0280   20.8315    7.1907 C   0  0  0  0  0  0  0  0  0  0  0  0
   35.7853   21.8806    6.3145 C   0  0  0  0  0  0  0  0  0  0  0  0
   36.8486   22.4956    5.6645 C   0  0  0  0  0  0  0  0  0  0  0  0
   36.6281   23.5019    4.8238 N   0  0  0  0  0  0  0  0  0  0  0  0
   34.4522   22.0940    6.2806 N   0  0  0  0  0  0  0  0  0  0  0  0
   33.8488   21.2111    7.1092 C   0  0  0  0  0  0  0  0  0  0  0  0
   34.8131   20.4216    7.6807 N   0  0  0  0  0  0  0  0  0  0  0  0
  2  1  1  6  0  0  0
  2  3  1  0  0  0  0
  2  5  1  0  0  0  0
  3  4  1  0  0  0  0
  3 16  1  0  0  0  0
  5  6  1  0  0  0  0
  6  7  1  0  0  0  0
  7  8  1  0  0  0  0
  9  8  1  6  0  0  0
  9 10  1  0  0  0  0
  9 11  1  0  0  0  0
 10 15  1  0  0  0  0
 11 12  1  1  0  0  0
 11 13  1  0  0  0  0
 13 14  1  1  0  0  0
 13 15  1  0  0  0  0
 15 26  1  6  0  0  0
 17 18  2  0  0  0  0
 17 22  1  0  0  0  0
 18 19  1  0  0  0  0
 19 20  2  0  0  0  0
 20 21  1  0  0  0  0
 20 26  1  0  0  0  0
 21 22  2  0  0  0  0
 21 24  1  0  0  0  0
 22 23  1  0  0  0  0
 24 25  2  0  0  0  0
 25 26  1  0  0  0  0
M  END
>  <CHROM.1>
160.40887750,-68.13297050,-68.71831783,-168.86166628,128.14484744,173.40116708
10.44396707,36.69746041,17.56623909,7.32994688,-1.14659891,0.52743129,-0.22305200

>  <Name>
ligand

>  <RI>
0

>  <Rbt.Current_Directory>
/home/itssahil/PROJECTS/Mol_Feturizer/New_Systems/rnas/3NPQ

>  <Rbt.Executable>
rbdock ($Id: //depot/dev/client3/rdock/2013.1/src/exe/rbdock.cxx#4 $)

>  <Rbt.Library>
libRbt.so (2013.1, Build901 2013/11/27)

>  <Rbt.Parameter_File>
/export/apps/rDock/src/rDock_2013.1_src/data/scripts/dock_solv.prm

>  <Rbt.Receptor>
prm/pocket_docking_8.prm

>  <SCORE>
-23.8361

>  <SCORE.INTER>
-22.042

>  <SCORE.INTER.CONST>
1

>  <SCORE.INTER.POLAR>
0

>  <SCORE.INTER.ROT>
7

>  <SCORE.INTER.SOLV>
15.2289

>  <SCORE.INTER.VDW>
-28.0376

>  <SCORE.INTER.norm>
-0.84777

>  <SCORE.INTRA>
-1.79404

>  <SCORE.INTRA.DIHEDRAL>
-1.11048

>  <SCORE.INTRA.DIHEDRAL.0>
6.97628

>  <SCORE.INTRA.POLAR>
0

>  <SCORE.INTRA.POLAR.0>
0

>  <SCORE.INTRA.REPUL>
0

>  <SCORE.INTRA.REPUL.0>
0

>  <SCORE.INTRA.SOLV>
0.302037

>  <SCORE.INTRA.SOLV.lig_0>
-49.8243

>  <SCORE.INTRA.VDW>
-1.38982

>  <SCORE.INTRA.VDW.0>
-1.35881

>  <SCORE.INTRA.norm>
-0.0690017

>  <SCORE.RESTR>
0

>  <SCORE.RESTR.CAVITY>
0

>  <SCORE.RESTR.norm>
0

>  <SCORE.SYSTEM>
0

>  <SCORE.SYSTEM.CONST>
0

>  <SCORE.SYSTEM.DIHEDRAL>
0

>  <SCORE.SYSTEM.SOLV>
0

>  <SCORE.SYSTEM.norm>
0

>  <SCORE.heavy>
26

>  <SCORE.norm>
-0.916772

>  <RMSD>
9.105

$$$$
ligand
 OpenBabel11021811483D
libRbt.so/2013.1/901 2013/11/27
 26 28  0  0  0  0  0  0  0  0999 V2000
   42.4016   11.8031    3.4968 N   0  0  0  0  0  0  0  0  0  0  0  0
   41.6590   10.8410    4.3014 C   0  0  2  0  0  0  0  0  0  0  0  0
   41.5858    9.4857    3.6072 C   0  0  0  0  0  0  0  0  0  0  0  0
   41.9017    9.3621    2.4245 O   0  0  0  0  0  0  0  0  0  0  0  0
   40.2547   11.3570    4.5893 C   0  0  0  0  0  0  0  0  0  0  0  0
   40.1957   12.4349    5.6637 C   0  0  0  0  0  0  0  0  0  0  0  0
   41.1479   13.9097    5.2205 S   0  0  0  0  0  0  0  0  0  0  0  0
   39.7215   14.9529    5.6146 C   0  0  0  0  0  0  0  0  0  0  0  0
   39.2406   14.7743    7.0499 C   0  0  1  0  0  0  0  0  0  0  0  0
   39.0748   16.0389    7.6650 O   0  0  0  0  0  0  0  0  0  0  0  0
   37.9043   14.0520    7.1054 C   0  0  1  0  0  0  0  0  0  0  0  0
   38.0501   12.8218    7.7745 O   0  0  0  0  0  0  0  0  0  0  0  0
   36.9755   14.9599    7.8847 C   0  0  1  0  0  0  0  0  0  0  0  0
   36.4781   14.2861    9.0173 O   0  0  0  0  0  0  0  0  0  0  0  0
   37.8206   16.1477    8.3118 C   0  0  2  0  0  0  0  0  0  0  0  0
   41.2091    8.4821    4.2135 O   0  0  0  0  0  0  0  0  0  0  0  0
   33.8291   19.4358    9.2195 N   0  0  0  0  0  0  0  0  0  0  0  0
   34.1197   18.2514    9.8661 C   0  0  0  0  0  0  0  0  0  0  0  0
   35.2215   17.5076    9.4924 N   0  0  0  0  0  0  0  0  0  0  0  0
   36.0251   17.9332    8.4874 C   0  0  0  0  0  0  0  0  0  0  0  0
   35.7491   19.1214    7.8247 C   0  0  0  0  0  0  0  0  0  0  0  0
   34.6428   19.8763    8.1953 C   0  0  0  0  0  0  0  0  0  0  0  0
   34.3682   21.0155    7.5669 N   0  0  0  0  0  0  0  0  0  0  0  0
   36.6989   19.3018    6.8816 N   0  0  0  0  0  0  0  0  0  0  0  0
   37.5640   18.2628    6.9308 C   0  0  0  0  0  0  0  0  0  0  0  0
   37.1593   17.4059    7.9217 N   0  0  0  0  0  0  0  0  0  0  0  0
  2  1  1  6  0  0  0
  2  3  1  0  0  0  0
  2  5  1  0  0  0  0
  3  4  1  0  0  0  0
  3 16  1  0  0  0  0
  5  6  1  0  0  0  0
  6  7  1  0  0  0  0
  7  8  1  0  0  0  0
  9  8  1  6  0  0  0
  9 10  1  0  0  0  0
  9 11  1  0  0  0  0
 10 15  1  0  0  0  0
 11 12  1  1  0  0  0
 11 13  1  0  0  0  0
 13 14  1  1  0  0  0
 13 15  1  0  0  0  0
 15 26  1  6  0  0  0
 17 18  2  0  0  0  0
 17 22  1  0  0  0  0
 18 19  1  0  0  0  0
 19 20  2  0  0  0  0
 20 21  1  0  0  0  0
 20 26  1  0  0  0  0
 21 22  2  0  0  0  0
 21 24  1  0  0  0  0
 22 23  1  0  0  0  0
 24 25  2  0  0  0  0
 25 26  1  0  0  0  0
M  END
>  <CHROM.1>
-12.68711920,-76.39177541,60.75556666,129.79946627,57.72685949,131.06706346
-170.35304848,38.33403120,14.95779063,6.66710462,-0.70277275,0.76341874,-0.19109426

>  <Name>
ligand

>  <RI>
0

>  <Rbt.Current_Directory>
/home/itssahil/PROJECTS/Mol_Feturizer/New_Systems/rnas/3NPQ

>  <Rbt.Executable>
rbdock ($Id: //depot/dev/client3/rdock/2013.1/src/exe/rbdock.cxx#4 $)

>  <Rbt.Library>
libRbt.so (2013.1, Build901 2013/11/27)

>  <Rbt.Parameter_File>
/export/apps/rDock/src/rDock_2013.1_src/data/scripts/dock_solv.prm

>  <Rbt.Receptor>
prm/pocket_docking_3.prm

>  <SCORE>
-15.9417

>  <SCORE.INTER>
-18.8374

>  <SCORE.INTER.CONST>
1

>  <SCORE.INTER.POLAR>
0

>  <SCORE.INTER.ROT>
7

>  <SCORE.INTER.SOLV>
20.6624

>  <SCORE.INTER.VDW>
-27.7124

>  <SCORE.INTER.norm>
-0.724516

>  <SCORE.INTRA>
2.89573

>  <SCORE.INTRA.DIHEDRAL>
3.82599

>  <SCORE.INTRA.DIHEDRAL.0>
6.97628

>  <SCORE.INTRA.POLAR>
0

>  <SCORE.INTRA.POLAR.0>
0

>  <SCORE.INTRA.REPUL>
0

>  <SCORE.INTRA.REPUL.0>
0

>  <SCORE.INTRA.SOLV>
1.31471

>  <SCORE.INTRA.SOLV.lig_0>
-49.8243

>  <SCORE.INTRA.VDW>
0.325378

>  <SCORE.INTRA.VDW.0>
-1.35881

>  <SCORE.INTRA.norm>
0.111374

>  <SCORE.RESTR>
0

>  <SCORE.RESTR.CAVITY>
0

>  <SCORE.RESTR.norm>
0

>  <SCORE.SYSTEM>
0

>  <SCORE.SYSTEM.CONST>
0

>  <SCORE.SYSTEM.DIHEDRAL>
0

>  <SCORE.SYSTEM.SOLV>
0

>  <SCORE.SYSTEM.norm>
0

>  <SCORE.heavy>
26

>  <SCORE.norm>
-0.613142

>  <RMSD>
9.121

$$$$
ligand
 OpenBabel11021811483D
libRbt.so/2013.1/901 2013/11/27
 26 28  0  0  0  0  0  0  0  0999 V2000
   42.1646    8.1265    0.0263 N   0  0  0  0  0  0  0  0  0  0  0  0
   42.4903    8.4952    1.3984 C   0  0  2  0  0  0  0  0  0  0  0  0
   43.7172    7.7378    1.8935 C   0  0  0  0  0  0  0  0  0  0  0  0
   44.1871    7.9541    3.0098 O   0  0  0  0  0  0  0  0  0  0  0  0
   41.3054    8.2285    2.3182 C   0  0  0  0  0  0  0  0  0  0  0  0
   41.5225    8.6744    3.7583 C   0  0  0  0  0  0  0  0  0  0  0  0
   39.9779    9.1365    4.5823 S   0  0  0  0  0  0  0  0  0  0  0  0
   40.4254   10.8857    4.4468 C   0  0  0  0  0  0  0  0  0  0  0  0
   40.2591   11.6391    5.7614 C   0  0  1  0  0  0  0  0  0  0  0  0
   40.7373   12.9646    5.6225 O   0  0  0  0  0  0  0  0  0  0  0  0
   38.8004   11.7132    6.1821 C   0  0  1  0  0  0  0  0  0  0  0  0
   38.6148   11.0260    7.3968 O   0  0  0  0  0  0  0  0  0  0  0  0
   38.4976   13.1857    6.3672 C   0  0  1  0  0  0  0  0  0  0  0  0
   38.0571   13.4275    7.6832 O   0  0  0  0  0  0  0  0  0  0  0  0
   39.8070   13.9124    6.1121 C   0  0  2  0  0  0  0  0  0  0  0  0
   44.2671    6.8911    1.1882 O   0  0  0  0  0  0  0  0  0  0  0  0
   36.3412   17.0630    3.7397 N   0  0  0  0  0  0  0  0  0  0  0  0
   36.0997   16.1066    4.7053 C   0  0  0  0  0  0  0  0  0  0  0  0
   37.1418   15.3631    5.2230 N   0  0  0  0  0  0  0  0  0  0  0  0
   38.4090   15.5648    4.7866 C   0  0  0  0  0  0  0  0  0  0  0  0
   38.6718   16.5216    3.8157 C   0  0  0  0  0  0  0  0  0  0  0  0
   37.6288   17.2748    3.2902 C   0  0  0  0  0  0  0  0  0  0  0  0
   37.8687   18.1934    2.3591 N   0  0  0  0  0  0  0  0  0  0  0  0
   40.0001   16.5123    3.5716 N   0  0  0  0  0  0  0  0  0  0  0  0
   40.5809   15.5784    4.3594 C   0  0  0  0  0  0  0  0  0  0  0  0
   39.6069   14.9826    5.1185 N   0  0  0  0  0  0  0  0  0  0  0  0
  2  1  1  6  0  0  0
  2  3  1  0  0  0  0
  2  5  1  0  0  0  0
  3  4  1  0  0  0  0
  3 16  1  0  0  0  0
  5  6  1  0  0  0  0
  6  7  1  0  0  0  0
  7  8  1  0  0  0  0
  9  8  1  6  0  0  0
  9 10  1  0  0  0  0
  9 11  1  0  0  0  0
 10 15  1  0  0  0  0
 11 12  1  1  0  0  0
 11 13  1  0  0  0  0
 13 14  1  1  0  0  0
 13 15  1  0  0  0  0
 15 26  1  6  0  0  0
 17 18  2  0  0  0  0
 17 22  1  0  0  0  0
 18 19  1  0  0  0  0
 19 20  2  0  0  0  0
 20 21  1  0  0  0  0
 20 26  1  0  0  0  0
 21 22  2  0  0  0  0
 21 24  1  0  0  0  0
 22 23  1  0  0  0  0
 24 25  2  0  0  0  0
 25 26  1  0  0  0  0
M  END
>  <CHROM.1>
176.77422076,-176.00589000,150.94546346,-105.49157316,-131.48099744,174.72726654
138.93365113,39.95140995,12.29997182,4.22073393,-0.49678941,0.98353094,-0.72415718

>  <Name>
ligand

>  <RI>
0

>  <Rbt.Current_Directory>
/home/itssahil/PROJECTS/Mol_Feturizer/New_Systems/rnas/3NPQ

>  <Rbt.Executable>
rbdock ($Id: //depot/dev/client3/rdock/2013.1/src/exe/rbdock.cxx#4 $)

>  <Rbt.Library>
libRbt.so (2013.1, Build901 2013/11/27)

>  <Rbt.Parameter_File>
/export/apps/rDock/src/rDock_2013.1_src/data/scripts/dock_solv.prm

>  <Rbt.Receptor>
prm/pocket_docking_5.prm

>  <SCORE>
-20.8088

>  <SCORE.INTER>
-22.2037

>  <SCORE.INTER.CONST>
1

>  <SCORE.INTER.POLAR>
0

>  <SCORE.INTER.ROT>
7

>  <SCORE.INTER.SOLV>
13.2116

>  <SCORE.INTER.VDW>
-27.473

>  <SCORE.INTER.norm>
-0.853989

>  <SCORE.INTRA>
1.38596

>  <SCORE.INTRA.DIHEDRAL>
2.72875

>  <SCORE.INTRA.DIHEDRAL.0>
6.97628

>  <SCORE.INTRA.POLAR>
0

>  <SCORE.INTRA.POLAR.0>
0

>  <SCORE.INTRA.REPUL>
0

>  <SCORE.INTRA.REPUL.0>
0

>  <SCORE.INTRA.SOLV>
-0.725985

>  <SCORE.INTRA.SOLV.lig_0>
-49.8243

>  <SCORE.INTRA.VDW>
0.384578

>  <SCORE.INTRA.VDW.0>
-1.35881

>  <SCORE.INTRA.norm>
0.0533062

>  <SCORE.RESTR>
0.00892319

>  <SCORE.RESTR.CAVITY>
0.00892319

>  <SCORE.RESTR.norm>
0.0003432

>  <SCORE.SYSTEM>
0

>  <SCORE.SYSTEM.CONST>
0

>  <SCORE.SYSTEM.DIHEDRAL>
0

>  <SCORE.SYSTEM.SOLV>
0

>  <SCORE.SYSTEM.norm>
0

>  <SCORE.heavy>
26

>  <SCORE.norm>
-0.800339

>  <RMSD>
9.135

$$$$
ligand
 OpenBabel11021811483D
libRbt.so/2013.1/901 2013/11/27
 26 28  0  0  0  0  0  0  0  0999 V2000
   39.0081    8.1014   -2.0372 N   0  0  0  0  0  0  0  0  0  0  0  0
   39.9401    8.4093   -0.9596 C   0  0  2  0  0  0  0  0  0  0  0  0
   40.8905    9.5319   -1.3603 C   0  0  0  0  0  0  0  0  0  0  0  0
   41.5099    9.4884   -2.4225 O   0  0  0  0  0  0  0  0  0  0  0  0
   40.7327    7.1683   -0.5687 C   0  0  0  0  0  0  0  0  0  0  0  0
   41.7240    7.3944    0.5653 C   0  0  0  0  0  0  0  0  0  0  0  0
   40.9076    7.7866    2.1331 S   0  0  0  0  0  0  0  0  0  0  0  0
   42.4309    8.5564    2.7374 C   0  0  0  0  0  0  0  0  0  0  0  0
   42.7630    9.8541    2.0101 C   0  0  1  0  0  0  0  0  0  0  0  0
   41.6949   10.7733    2.1496 O   0  0  0  0  0  0  0  0  0  0  0  0
   44.0141   10.5066    2.5750 C   0  0  1  0  0  0  0  0  0  0  0  0
   45.0191   10.5527    1.5900 O   0  0  0  0  0  0  0  0  0  0  0  0
   43.6067   11.9118    2.9671 C   0  0  1  0  0  0  0  0  0  0  0  0
   44.3962   12.8542    2.2794 O   0  0  0  0  0  0  0  0  0  0  0  0
   42.1508   12.0500    2.5564 C   0  0  2  0  0  0  0  0  0  0  0  0
   41.0607   10.5094   -0.6307 O   0  0  0  0  0  0  0  0  0  0  0  0
   38.8399   10.7489    6.4181 N   0  0  0  0  0  0  0  0  0  0  0  0
   39.4168    9.9204    5.4767 C   0  0  0  0  0  0  0  0  0  0  0  0
   40.2727   10.4393    4.5253 N   0  0  0  0  0  0  0  0  0  0  0  0
   40.5518   11.7654    4.5070 C   0  0  0  0  0  0  0  0  0  0  0  0
   39.9811   12.6148    5.4450 C   0  0  0  0  0  0  0  0  0  0  0  0
   39.1194   12.1004    6.4064 C   0  0  0  0  0  0  0  0  0  0  0  0
   38.5662   12.9048    7.3092 N   0  0  0  0  0  0  0  0  0  0  0  0
   40.4263   13.8658    5.1985 N   0  0  0  0  0  0  0  0  0  0  0  0
   41.2598   13.8292    4.1335 C   0  0  0  0  0  0  0  0  0  0  0  0
   41.3476   12.5334    3.6939 N   0  0  0  0  0  0  0  0  0  0  0  0
  2  1  1  6  0  0  0
  2  3  1  0  0  0  0
  2  5  1  0  0  0  0
  3  4  1  0  0  0  0
  3 16  1  0  0  0  0
  5  6  1  0  0  0  0
  6  7  1  0  0  0  0
  7  8  1  0  0  0  0
  9  8  1  1  0  0  0
  9 10  1  0  0  0  0
  9 11  1  0  0  0  0
 10 15  1  0  0  0  0
 11 12  1  6  0  0  0
 11 13  1  0  0  0  0
 13 14  1  6  0  0  0
 13 15  1  0  0  0  0
 15 26  1  1  0  0  0
 17 18  2  0  0  0  0
 17 22  1  0  0  0  0
 18 19  1  0  0  0  0
 19 20  2  0  0  0  0
 20 21  1  0  0  0  0
 20 26  1  0  0  0  0
 21 22  2  0  0  0  0
 21 24  1  0  0  0  0
 22 23  1  0  0  0  0
 24 25  2  0  0  0  0
 25 26  1  0  0  0  0
M  END
>  <CHROM.1>
-50.47835290,-179.35069405,65.79774330,-158.36656954,69.19266045,58.15780947
17.76276262,41.25761851,10.45972261,2.45255861,1.40670646,-0.53432235,-2.20142923

>  <Name>
ligand

>  <RI>
0

>  <Rbt.Current_Directory>
/home/itssahil/PROJECTS/Mol_Feturizer/New_Systems/rnas/3NPQ

>  <Rbt.Executable>
rbdock ($Id: //depot/dev/client3/rdock/2013.1/src/exe/rbdock.cxx#4 $)

>  <Rbt.Library>
libRbt.so (2013.1, Build901 2013/11/27)

>  <Rbt.Parameter_File>
/export/apps/rDock/src/rDock_2013.1_src/data/scripts/dock_solv.prm

>  <Rbt.Receptor>
prm/pocket_docking_8.prm

>  <SCORE>
-21.3099

>  <SCORE.INTER>
-17.2292

>  <SCORE.INTER.CONST>
1

>  <SCORE.INTER.POLAR>
0

>  <SCORE.INTER.ROT>
7

>  <SCORE.INTER.SOLV>
17.5597

>  <SCORE.INTER.VDW>
-25.606

>  <SCORE.INTER.norm>
-0.662661

>  <SCORE.INTRA>
-4.08075

>  <SCORE.INTRA.DIHEDRAL>
-3.34409

>  <SCORE.INTRA.DIHEDRAL.0>
6.97628

>  <SCORE.INTRA.POLAR>
0

>  <SCORE.INTRA.POLAR.0>
0

>  <SCORE.INTRA.REPUL>
0

>  <SCORE.INTRA.REPUL.0>
0

>  <SCORE.INTRA.SOLV>
-0.547821

>  <SCORE.INTRA.SOLV.lig_0>
-49.8243

>  <SCORE.INTRA.VDW>
-2.13479

>  <SCORE.INTRA.VDW.0>
-1.35881

>  <SCORE.INTRA.norm>
-0.156952

>  <SCORE.RESTR>
0

>  <SCORE.RESTR.CAVITY>
0

>  <SCORE.RESTR.norm>
0

>  <SCORE.SYSTEM>
0

>  <SCORE.SYSTEM.CONST>
0

>  <SCORE.SYSTEM.DIHEDRAL>
0

>  <SCORE.SYSTEM.SOLV>
0

>  <SCORE.SYSTEM.norm>
0

>  <SCORE.heavy>
26

>  <SCORE.norm>
-0.819613

>  <RMSD>
9.141

$$$$
ligand
 OpenBabel11021811483D
libRbt.so/2013.1/901 2013/11/27
 26 28  0  0  0  0  0  0  0  0999 V2000
   42.2424   13.8796   -1.3399 N   0  0  0  0  0  0  0  0  0  0  0  0
   43.3949   13.2335   -0.7242 C   0  0  2  0  0  0  0  0  0  0  0  0
   44.2721   12.5605   -1.7738 C   0  0  0  0  0  0  0  0  0  0  0  0
   45.4824   12.4274   -1.5968 O   0  0  0  0  0  0  0  0  0  0  0  0
   42.9435   12.2121    0.3122 C   0  0  0  0  0  0  0  0  0  0  0  0
   42.2773   12.8223    1.5384 C   0  0  0  0  0  0  0  0  0  0  0  0
   41.7027   11.5690    2.7121 S   0  0  0  0  0  0  0  0  0  0  0  0
   41.2739   12.8699    3.8962 C   0  0  0  0  0  0  0  0  0  0  0  0
   40.9339   12.3204    5.2766 C   0  0  1  0  0  0  0  0  0  0  0  0
   40.7692   13.3863    6.1940 O   0  0  0  0  0  0  0  0  0  0  0  0
   39.6413   11.5208    5.2567 C   0  0  1  0  0  0  0  0  0  0  0  0
   39.9014   10.1779    5.5902 O   0  0  0  0  0  0  0  0  0  0  0  0
   38.7482   12.1523    6.3044 C   0  0  1  0  0  0  0  0  0  0  0  0
   38.3861   11.1950    7.2723 O   0  0  0  0  0  0  0  0  0  0  0  0
   39.5755   13.2547    6.9430 C   0  0  2  0  0  0  0  0  0  0  0  0
   43.7903   12.1335   -2.8238 O   0  0  0  0  0  0  0  0  0  0  0  0
   35.5389   15.9596    8.9320 N   0  0  0  0  0  0  0  0  0  0  0  0
   35.9384   14.6755    9.2431 C   0  0  0  0  0  0  0  0  0  0  0  0
   37.0344   14.1172    8.6154 N   0  0  0  0  0  0  0  0  0  0  0  0
   37.7253   14.8243    7.6883 C   0  0  0  0  0  0  0  0  0  0  0  0
   37.3387   16.1169    7.3614 C   0  0  0  0  0  0  0  0  0  0  0  0
   36.2374   16.6864    7.9891 C   0  0  0  0  0  0  0  0  0  0  0  0
   35.8574   17.9234    7.6833 N   0  0  0  0  0  0  0  0  0  0  0  0
   38.1915   16.5811    6.4226 N   0  0  0  0  0  0  0  0  0  0  0  0
   39.1029   15.6195    6.1488 C   0  0  0  0  0  0  0  0  0  0  0  0
   38.8267   14.5242    6.9260 N   0  0  0  0  0  0  0  0  0  0  0  0
  2  1  1  6  0  0  0
  2  3  1  0  0  0  0
  2  5  1  0  0  0  0
  3  4  1  0  0  0  0
  3 16  1  0  0  0  0
  5  6  1  0  0  0  0
  6  7  1  0  0  0  0
  7  8  1  0  0  0  0
  9  8  1  6  0  0  0
  9 10  1  0  0  0  0
  9 11  1  0  0  0  0
 10 15  1  0  0  0  0
 11 12  1  1  0  0  0
 11 13  1  0  0  0  0
 13 14  1  1  0  0  0
 13 15  1  0  0  0  0
 15 26  1  6  0  0  0
 17 18  2  0  0  0  0
 17 22  1  0  0  0  0
 18 19  1  0  0  0  0
 19 20  2  0  0  0  0
 20 21  1  0  0  0  0
 20 26  1  0  0  0  0
 21 22  2  0  0  0  0
 21 24  1  0  0  0  0
 22 23  1  0  0  0  0
 24 25  2  0  0  0  0
 25 26  1  0  0  0  0
M  END
>  <CHROM.1>
151.23487746,-67.53699787,177.84896953,173.29260683,-169.40914601,172.86362755
-170.46777005,40.06312366,13.46601942,4.43275403,0.19309991,0.94090083,-0.54422326

>  <Name>
ligand

>  <RI>
0

>  <Rbt.Current_Directory>
/home/itssahil/PROJECTS/Mol_Feturizer/New_Systems/rnas/3NPQ

>  <Rbt.Executable>
rbdock ($Id: //depot/dev/client3/rdock/2013.1/src/exe/rbdock.cxx#4 $)

>  <Rbt.Library>
libRbt.so (2013.1, Build901 2013/11/27)

>  <Rbt.Parameter_File>
/export/apps/rDock/src/rDock_2013.1_src/data/scripts/dock_solv.prm

>  <Rbt.Receptor>
prm/pocket_docking_7.prm

>  <SCORE>
-17.2688

>  <SCORE.INTER>
-14.47

>  <SCORE.INTER.CONST>
1

>  <SCORE.INTER.POLAR>
0

>  <SCORE.INTER.ROT>
7

>  <SCORE.INTER.SOLV>
11.5062

>  <SCORE.INTER.VDW>
-21.7487

>  <SCORE.INTER.norm>
-0.556539

>  <SCORE.INTRA>
-2.79879

>  <SCORE.INTRA.DIHEDRAL>
-3.62216

>  <SCORE.INTRA.DIHEDRAL.0>
6.97628

>  <SCORE.INTRA.POLAR>
0

>  <SCORE.INTRA.POLAR.0>
0

>  <SCORE.INTRA.REPUL>
0

>  <SCORE.INTRA.REPUL.0>
0

>  <SCORE.INTRA.SOLV>
-0.183358

>  <SCORE.INTRA.SOLV.lig_0>
-49.8243

>  <SCORE.INTRA.VDW>
-0.896032

>  <SCORE.INTRA.VDW.0>
-1.35881

>  <SCORE.INTRA.norm>
-0.107646

>  <SCORE.RESTR>
0

>  <SCORE.RESTR.CAVITY>
0

>  <SCORE.RESTR.norm>
0

>  <SCORE.SYSTEM>
0

>  <SCORE.SYSTEM.CONST>
0

>  <SCORE.SYSTEM.DIHEDRAL>
0

>  <SCORE.SYSTEM.SOLV>
0

>  <SCORE.SYSTEM.norm>
0

>  <SCORE.heavy>
26

>  <SCORE.norm>
-0.664185

>  <RMSD>
9.148

$$$$
ligand
 OpenBabel11021811483D
libRbt.so/2013.1/901 2013/11/27
 26 28  0  0  0  0  0  0  0  0999 V2000
   45.5826   14.1472    2.3021 N   0  0  0  0  0  0  0  0  0  0  0  0
   45.3599   13.9626    0.8735 C   0  0  2  0  0  0  0  0  0  0  0  0
   44.2776   14.9058    0.3606 C   0  0  0  0  0  0  0  0  0  0  0  0
   44.3825   15.4534   -0.7362 O   0  0  0  0  0  0  0  0  0  0  0  0
   44.9783   12.5181    0.5751 C   0  0  0  0  0  0  0  0  0  0  0  0
   46.0671   11.5057    0.9054 C   0  0  0  0  0  0  0  0  0  0  0  0
   45.5442    9.7993    0.5998 S   0  0  0  0  0  0  0  0  0  0  0  0
   44.5764    9.8186    2.1299 C   0  0  0  0  0  0  0  0  0  0  0  0
   43.7571    8.5480    2.3240 C   0  0  1  0  0  0  0  0  0  0  0  0
   43.1098    8.5780    3.5830 O   0  0  0  0  0  0  0  0  0  0  0  0
   42.6865    8.4049    1.2546 C   0  0  1  0  0  0  0  0  0  0  0  0
   42.9314    7.2551    0.4798 O   0  0  0  0  0  0  0  0  0  0  0  0
   41.3754    8.2599    1.9988 C   0  0  1  0  0  0  0  0  0  0  0  0
   40.7524    7.0457    1.6495 O   0  0  0  0  0  0  0  0  0  0  0  0
   41.7355    8.2575    3.4745 C   0  0  2  0  0  0  0  0  0  0  0  0
   43.2721   15.1418    1.0314 O   0  0  0  0  0  0  0  0  0  0  0  0
   41.3226   13.2743    4.9673 N   0  0  0  0  0  0  0  0  0  0  0  0
   42.3333   12.6849    4.2347 C   0  0  0  0  0  0  0  0  0  0  0  0
   42.2774   11.3391    3.9305 N   0  0  0  0  0  0  0  0  0  0  0  0
   41.2314   10.5860    4.3497 C   0  0  0  0  0  0  0  0  0  0  0  0
   40.2056   11.1604    5.0879 C   0  0  0  0  0  0  0  0  0  0  0  0
   40.2538   12.5143    5.3975 C   0  0  0  0  0  0  0  0  0  0  0  0
   39.2774   13.0749    6.1049 N   0  0  0  0  0  0  0  0  0  0  0  0
   39.3045   10.1944    5.3692 N   0  0  0  0  0  0  0  0  0  0  0  0
   39.7325    9.0296    4.8304 C   0  0  0  0  0  0  0  0  0  0  0  0
   40.9261    9.2567    4.1949 N   0  0  0  0  0  0  0  0  0  0  0  0
  2  1  1  1  0  0  0
  2  3  1  0  0  0  0
  2  5  1  0  0  0  0
  3  4  1  0  0  0  0
  3 16  1  0  0  0  0
  5  6  1  0  0  0  0
  6  7  1  0  0  0  0
  7  8  1  0  0  0  0
  9  8  1  6  0  0  0
  9 10  1  0  0  0  0
  9 11  1  0  0  0  0
 10 15  1  0  0  0  0
 11 12  1  1  0  0  0
 11 13  1  0  0  0  0
 13 14  1  6  0  0  0
 13 15  1  0  0  0  0
 15 26  1  1  0  0  0
 17 18  2  0  0  0  0
 17 22  1  0  0  0  0
 18 19  1  0  0  0  0
 19 20  2  0  0  0  0
 20 21  1  0  0  0  0
 20 26  1  0  0  0  0
 21 22  2  0  0  0  0
 21 24  1  0  0  0  0
 22 23  1  0  0  0  0
 24 25  2  0  0  0  0
 25 26  1  0  0  0  0
M  END
>  <CHROM.1>
140.70440137,-63.55295268,177.60298389,-77.07037247,174.77813579,175.34125438
31.71731218,42.77197668,10.95488752,2.56554758,0.51337637,0.75580293,0.14709471

>  <Name>
ligand

>  <RI>
0

>  <Rbt.Current_Directory>
/home/itssahil/PROJECTS/Mol_Feturizer/New_Systems/rnas/3NPQ

>  <Rbt.Executable>
rbdock ($Id: //depot/dev/client3/rdock/2013.1/src/exe/rbdock.cxx#4 $)

>  <Rbt.Library>
libRbt.so (2013.1, Build901 2013/11/27)

>  <Rbt.Parameter_File>
/export/apps/rDock/src/rDock_2013.1_src/data/scripts/dock_solv.prm

>  <Rbt.Receptor>
prm/pocket_docking_8.prm

>  <SCORE>
-19.4091

>  <SCORE.INTER>
-16.2238

>  <SCORE.INTER.CONST>
1

>  <SCORE.INTER.POLAR>
0

>  <SCORE.INTER.ROT>
7

>  <SCORE.INTER.SOLV>
12.8948

>  <SCORE.INTER.VDW>
-23.3808

>  <SCORE.INTER.norm>
-0.623993

>  <SCORE.INTRA>
-3.18528

>  <SCORE.INTRA.DIHEDRAL>
-3.6646

>  <SCORE.INTRA.DIHEDRAL.0>
6.97628

>  <SCORE.INTRA.POLAR>
0

>  <SCORE.INTRA.POLAR.0>
0

>  <SCORE.INTRA.REPUL>
0

>  <SCORE.INTRA.REPUL.0>
0

>  <SCORE.INTRA.SOLV>
0.0400143

>  <SCORE.INTRA.SOLV.lig_0>
-49.8243

>  <SCORE.INTRA.VDW>
-1.37299

>  <SCORE.INTRA.VDW.0>
-1.35881

>  <SCORE.INTRA.norm>
-0.122511

>  <SCORE.RESTR>
0

>  <SCORE.RESTR.CAVITY>
0

>  <SCORE.RESTR.norm>
0

>  <SCORE.SYSTEM>
0

>  <SCORE.SYSTEM.CONST>
0

>  <SCORE.SYSTEM.DIHEDRAL>
0

>  <SCORE.SYSTEM.SOLV>
0

>  <SCORE.SYSTEM.norm>
0

>  <SCORE.heavy>
26

>  <SCORE.norm>
-0.746504

>  <RMSD>
9.155

$$$$
ligand
 OpenBabel11021811483D
libRbt.so/2013.1/901 2013/11/27
 26 28  0  0  0  0  0  0  0  0999 V2000
   42.8140    8.0888    0.0194 N   0  0  0  0  0  0  0  0  0  0  0  0
   42.9590    8.6627    1.3514 C   0  0  2  0  0  0  0  0  0  0  0  0
   44.2529    8.1990    2.0106 C   0  0  0  0  0  0  0  0  0  0  0  0
   45.1113    9.0084    2.3597 O   0  0  0  0  0  0  0  0  0  0  0  0
   41.7663    8.2932    2.2244 C   0  0  0  0  0  0  0  0  0  0  0  0
   41.8546    8.8156    3.6524 C   0  0  0  0  0  0  0  0  0  0  0  0
   42.0392   10.6155    3.7229 S   0  0  0  0  0  0  0  0  0  0  0  0
   40.3548   10.7661    4.3695 C   0  0  0  0  0  0  0  0  0  0  0  0
   40.2916   11.5640    5.6668 C   0  0  1  0  0  0  0  0  0  0  0  0
   40.8155   12.8632    5.4609 O   0  0  0  0  0  0  0  0  0  0  0  0
   38.8623   11.7125    6.1621 C   0  0  1  0  0  0  0  0  0  0  0  0
   38.7152   11.0697    7.4060 O   0  0  0  0  0  0  0  0  0  0  0  0
   38.6308   13.2014    6.3166 C   0  0  1  0  0  0  0  0  0  0  0  0
   38.2731   13.5001    7.6459 O   0  0  0  0  0  0  0  0  0  0  0  0
   39.9530   13.8637    5.9694 C   0  0  2  0  0  0  0  0  0  0  0  0
   44.4699    7.0032    2.2101 O   0  0  0  0  0  0  0  0  0  0  0  0
   36.5247   17.1805    3.7756 N   0  0  0  0  0  0  0  0  0  0  0  0
   36.3014   16.2772    4.7953 C   0  0  0  0  0  0  0  0  0  0  0  0
   37.3296   15.4765    5.2521 N   0  0  0  0  0  0  0  0  0  0  0  0
   38.5649   15.5696    4.7024 C   0  0  0  0  0  0  0  0  0  0  0  0
   38.8090   16.4715    3.6756 C   0  0  0  0  0  0  0  0  0  0  0  0
   37.7800   17.2816    3.2108 C   0  0  0  0  0  0  0  0  0  0  0  0
   38.0020   18.1484    2.2272 N   0  0  0  0  0  0  0  0  0  0  0  0
   40.1070   16.3561    3.3206 N   0  0  0  0  0  0  0  0  0  0  0  0
   40.6869   15.4087    4.0929 C   0  0  0  0  0  0  0  0  0  0  0  0
   39.7431   14.9120    4.9546 N   0  0  0  0  0  0  0  0  0  0  0  0
  2  1  1  6  0  0  0
  2  3  1  0  0  0  0
  2  5  1  0  0  0  0
  3  4  1  0  0  0  0
  3 16  1  0  0  0  0
  5  6  1  0  0  0  0
  6  7  1  0  0  0  0
  7  8  1  0  0  0  0
  9  8  1  6  0  0  0
  9 10  1  0  0  0  0
  9 11  1  0  0  0  0
 10 15  1  0  0  0  0
 11 12  1  1  0  0  0
 11 13  1  0  0  0  0
 13 14  1  1  0  0  0
 13 15  1  0  0  0  0
 15 26  1  6  0  0  0
 17 18  2  0  0  0  0
 17 22  1  0  0  0  0
 18 19  1  0  0  0  0
 19 20  2  0  0  0  0
 20 21  1  0  0  0  0
 20 26  1  0  0  0  0
 21 22  2  0  0  0  0
 21 24  1  0  0  0  0
 22 23  1  0  0  0  0
 24 25  2  0  0  0  0
 25 26  1  0  0  0  0
M  END
>  <CHROM.1>
120.20670257,178.16718637,57.31044755,109.53186651,126.49104915,58.61625862
141.49237429,40.34188646,12.49253414,4.10257755,-0.41831208,0.91970239,-0.77144864

>  <Name>
ligand

>  <RI>
0

>  <Rbt.Current_Directory>
/home/itssahil/PROJECTS/Mol_Feturizer/New_Systems/rnas/3NPQ

>  <Rbt.Executable>
rbdock ($Id: //depot/dev/client3/rdock/2013.1/src/exe/rbdock.cxx#4 $)

>  <Rbt.Library>
libRbt.so (2013.1, Build901 2013/11/27)

>  <Rbt.Parameter_File>
/export/apps/rDock/src/rDock_2013.1_src/data/scripts/dock_solv.prm

>  <Rbt.Receptor>
prm/pocket_docking_5.prm

>  <SCORE>
-18.5532

>  <SCORE.INTER>
-17.9804

>  <SCORE.INTER.CONST>
1

>  <SCORE.INTER.POLAR>
0

>  <SCORE.INTER.ROT>
7

>  <SCORE.INTER.SOLV>
11.4908

>  <SCORE.INTER.VDW>
-24.0839

>  <SCORE.INTER.norm>
-0.691555

>  <SCORE.INTRA>
-0.57277

>  <SCORE.INTRA.DIHEDRAL>
0.294764

>  <SCORE.INTRA.DIHEDRAL.0>
6.97628

>  <SCORE.INTRA.POLAR>
0

>  <SCORE.INTRA.POLAR.0>
0

>  <SCORE.INTRA.REPUL>
0

>  <SCORE.INTRA.REPUL.0>
0

>  <SCORE.INTRA.SOLV>
-0.677145

>  <SCORE.INTRA.SOLV.lig_0>
-49.8243

>  <SCORE.INTRA.VDW>
-0.381579

>  <SCORE.INTRA.VDW.0>
-1.35881

>  <SCORE.INTRA.norm>
-0.0220296

>  <SCORE.RESTR>
0

>  <SCORE.RESTR.CAVITY>
0

>  <SCORE.RESTR.norm>
0

>  <SCORE.SYSTEM>
0

>  <SCORE.SYSTEM.CONST>
0

>  <SCORE.SYSTEM.DIHEDRAL>
0

>  <SCORE.SYSTEM.SOLV>
0

>  <SCORE.SYSTEM.norm>
0

>  <SCORE.heavy>
26

>  <SCORE.norm>
-0.713584

>  <RMSD>
9.169

$$$$
ligand
 OpenBabel11021811483D
libRbt.so/2013.1/901 2013/11/27
 26 28  0  0  0  0  0  0  0  0999 V2000
   44.1712   12.2404   -0.3849 N   0  0  0  0  0  0  0  0  0  0  0  0
   42.9986   11.3783   -0.3059 C   0  0  2  0  0  0  0  0  0  0  0  0
   42.7833   10.6239   -1.6130 C   0  0  0  0  0  0  0  0  0  0  0  0
   43.1805   11.0841   -2.6827 O   0  0  0  0  0  0  0  0  0  0  0  0
   41.7583   12.1942    0.0367 C   0  0  0  0  0  0  0  0  0  0  0  0
   41.7874   12.8174    1.4261 C   0  0  0  0  0  0  0  0  0  0  0  0
   41.6923   11.5797    2.7442 S   0  0  0  0  0  0  0  0  0  0  0  0
   41.2954   12.8797    3.9404 C   0  0  0  0  0  0  0  0  0  0  0  0
   40.9321   12.3252    5.3130 C   0  0  1  0  0  0  0  0  0  0  0  0
   40.7405   13.3884    6.2284 O   0  0  0  0  0  0  0  0  0  0  0  0
   39.6467   11.5154    5.2660 C   0  0  1  0  0  0  0  0  0  0  0  0
   39.9108   10.1741    5.6028 O   0  0  0  0  0  0  0  0  0  0  0  0
   38.7277   12.1380    6.2964 C   0  0  1  0  0  0  0  0  0  0  0  0
   38.3539   11.1764    7.2555 O   0  0  0  0  0  0  0  0  0  0  0  0
   39.5331   13.2461    6.9531 C   0  0  2  0  0  0  0  0  0  0  0  0
   42.2072    9.5355   -1.6296 O   0  0  0  0  0  0  0  0  0  0  0  0
   35.5060   15.9597    8.9495 N   0  0  0  0  0  0  0  0  0  0  0  0
   35.9197   14.6848    9.2793 C   0  0  0  0  0  0  0  0  0  0  0  0
   37.0105   14.1224    8.6462 N   0  0  0  0  0  0  0  0  0  0  0  0
   37.6823   14.8164    7.6954 C   0  0  0  0  0  0  0  0  0  0  0  0
   37.2812   16.0996    7.3495 C   0  0  0  0  0  0  0  0  0  0  0  0
   36.1850   16.6731    7.9825 C   0  0  0  0  0  0  0  0  0  0  0  0
   35.7912   17.9012    7.6586 N   0  0  0  0  0  0  0  0  0  0  0  0
   38.1165   16.5517    6.3893 N   0  0  0  0  0  0  0  0  0  0  0  0
   39.0310   15.5915    6.1205 C   0  0  0  0  0  0  0  0  0  0  0  0
   38.7746   14.5095    6.9227 N   0  0  0  0  0  0  0  0  0  0  0  0
  2  1  1  6  0  0  0
  2  3  1  0  0  0  0
  2  5  1  0  0  0  0
  3  4  1  0  0  0  0
  3 16  1  0  0  0  0
  5  6  1  0  0  0  0
  6  7  1  0  0  0  0
  7  8  1  0  0  0  0
  9  8  1  6  0  0  0
  9 10  1  0  0  0  0
  9 11  1  0  0  0  0
 10 15  1  0  0  0  0
 11 12  1  1  0  0  0
 11 13  1  0  0  0  0
 13 14  1  1  0  0  0
 13 15  1  0  0  0  0
 15 26  1  6  0  0  0
 17 18  2  0  0  0  0
 17 22  1  0  0  0  0
 18 19  1  0  0  0  0
 19 20  2  0  0  0  0
 20 21  1  0  0  0  0
 20 26  1  0  0  0  0
 21 22  2  0  0  0  0
 21 24  1  0  0  0  0
 22 23  1  0  0  0  0
 24 25  2  0  0  0  0
 25 26  1  0  0  0  0
M  END
>  <CHROM.1>
-26.91142404,-65.74293898,-67.96213437,-164.88514416,173.23275707,175.22776739
-168.13889208,39.82403278,13.10517123,4.48489733,0.11118198,1.02544925,-0.59011036

>  <Name>
ligand

>  <RI>
0

>  <Rbt.Current_Directory>
/home/itssahil/PROJECTS/Mol_Feturizer/New_Systems/rnas/3NPQ

>  <Rbt.Executable>
rbdock ($Id: //depot/dev/client3/rdock/2013.1/src/exe/rbdock.cxx#4 $)

>  <Rbt.Library>
libRbt.so (2013.1, Build901 2013/11/27)

>  <Rbt.Parameter_File>
/export/apps/rDock/src/rDock_2013.1_src/data/scripts/dock_solv.prm

>  <Rbt.Receptor>
prm/pocket_docking_8.prm

>  <SCORE>
-17.5642

>  <SCORE.INTER>
-14.9951

>  <SCORE.INTER.CONST>
1

>  <SCORE.INTER.POLAR>
0

>  <SCORE.INTER.ROT>
7

>  <SCORE.INTER.SOLV>
12.0019

>  <SCORE.INTER.VDW>
-22.264

>  <SCORE.INTER.norm>
-0.576735

>  <SCORE.INTRA>
-2.56905

>  <SCORE.INTRA.DIHEDRAL>
-3.41841

>  <SCORE.INTRA.DIHEDRAL.0>
6.97628

>  <SCORE.INTRA.POLAR>
0

>  <SCORE.INTRA.POLAR.0>
0

>  <SCORE.INTRA.REPUL>
0

>  <SCORE.INTRA.REPUL.0>
0

>  <SCORE.INTRA.SOLV>
0.327687

>  <SCORE.INTRA.SOLV.lig_0>
-49.8243

>  <SCORE.INTRA.VDW>
-1.02369

>  <SCORE.INTRA.VDW.0>
-1.35881

>  <SCORE.INTRA.norm>
-0.0988096

>  <SCORE.RESTR>
0

>  <SCORE.RESTR.CAVITY>
0

>  <SCORE.RESTR.norm>
0

>  <SCORE.SYSTEM>
0

>  <SCORE.SYSTEM.CONST>
0

>  <SCORE.SYSTEM.DIHEDRAL>
0

>  <SCORE.SYSTEM.SOLV>
0

>  <SCORE.SYSTEM.norm>
0

>  <SCORE.heavy>
26

>  <SCORE.norm>
-0.675545

>  <RMSD>
9.209

$$$$
ligand
 OpenBabel11021811483D
libRbt.so/2013.1/901 2013/11/27
 26 28  0  0  0  0  0  0  0  0999 V2000
   46.8380   11.9372    1.9204 N   0  0  0  0  0  0  0  0  0  0  0  0
   45.4612   11.6033    2.2632 C   0  0  2  0  0  0  0  0  0  0  0  0
   45.1754   10.1274    2.0103 C   0  0  0  0  0  0  0  0  0  0  0  0
   45.8394    9.4837    1.1988 O   0  0  0  0  0  0  0  0  0  0  0  0
   44.4891   12.4671    1.4695 C   0  0  0  0  0  0  0  0  0  0  0  0
   43.0525   12.4102    1.9722 C   0  0  0  0  0  0  0  0  0  0  0  0
   42.8921   12.9843    3.6819 S   0  0  0  0  0  0  0  0  0  0  0  0
   41.2529   12.2226    3.7872 C   0  0  0  0  0  0  0  0  0  0  0  0
   40.8923   11.7960    5.2054 C   0  0  1  0  0  0  0  0  0  0  0  0
   40.7945   12.9340    6.0422 O   0  0  0  0  0  0  0  0  0  0  0  0
   39.5566   11.0718    5.2482 C   0  0  1  0  0  0  0  0  0  0  0  0
   39.7429    9.7443    5.6789 O   0  0  0  0  0  0  0  0  0  0  0  0
   38.7080   11.8280    6.2492 C   0  0  1  0  0  0  0  0  0  0  0  0
   38.2994   10.9664    7.2860 O   0  0  0  0  0  0  0  0  0  0  0  0
   39.6006   12.9256    6.8024 C   0  0  2  0  0  0  0  0  0  0  0  0
   44.2734    9.5438    2.6126 O   0  0  0  0  0  0  0  0  0  0  0  0
   35.7848   16.0228    8.6502 N   0  0  0  0  0  0  0  0  0  0  0  0
   36.1205   14.7485    9.0614 C   0  0  0  0  0  0  0  0  0  0  0  0
   37.1638   14.0754    8.4571 N   0  0  0  0  0  0  0  0  0  0  0  0
   37.8652   14.6590    7.4550 C   0  0  0  0  0  0  0  0  0  0  0  0
   37.5425   15.9396    7.0270 C   0  0  0  0  0  0  0  0  0  0  0  0
   36.4945   16.6242    7.6305 C   0  0  0  0  0  0  0  0  0  0  0  0
   36.1758   17.8509    7.2282 N   0  0  0  0  0  0  0  0  0  0  0  0
   38.3914   16.2712    6.0303 N   0  0  0  0  0  0  0  0  0  0  0  0
   39.2384   15.2378    5.8181 C   0  0  0  0  0  0  0  0  0  0  0  0
   38.9245   14.2309    6.6941 N   0  0  0  0  0  0  0  0  0  0  0  0
  2  1  1  6  0  0  0
  2  3  1  0  0  0  0
  2  5  1  0  0  0  0
  3  4  1  0  0  0  0
  3 16  1  0  0  0  0
  5  6  1  0  0  0  0
  6  7  1  0  0  0  0
  7  8  1  0  0  0  0
  9  8  1  6  0  0  0
  9 10  1  0  0  0  0
  9 11  1  0  0  0  0
 10 15  1  0  0  0  0
 11 12  1  1  0  0  0
 11 13  1  0  0  0  0
 13 14  1  1  0  0  0
 13 15  1  0  0  0  0
 15 26  1  6  0  0  0
 17 18  2  0  0  0  0
 17 22  1  0  0  0  0
 18 19  1  0  0  0  0
 19 20  2  0  0  0  0
 20 21  1  0  0  0  0
 20 26  1  0  0  0  0
 21 22  2  0  0  0  0
 21 24  1  0  0  0  0
 22 23  1  0  0  0  0
 24 25  2  0  0  0  0
 25 26  1  0  0  0  0
M  END
>  <CHROM.1>
-24.08707456,-167.30616593,60.71459795,-164.08149106,151.42392791,64.52288286
-168.98319741,40.61064301,12.96290866,5.15385396,-0.35188980,0.65627448,-0.11690052

>  <Name>
ligand

>  <RI>
0

>  <Rbt.Current_Directory>
/home/itssahil/PROJECTS/Mol_Feturizer/New_Systems/rnas/3NPQ

>  <Rbt.Executable>
rbdock ($Id: //depot/dev/client3/rdock/2013.1/src/exe/rbdock.cxx#4 $)

>  <Rbt.Library>
libRbt.so (2013.1, Build901 2013/11/27)

>  <Rbt.Parameter_File>
/export/apps/rDock/src/rDock_2013.1_src/data/scripts/dock_solv.prm

>  <Rbt.Receptor>
prm/pocket_docking_6.prm

>  <SCORE>
-18.7638

>  <SCORE.INTER>
-16.1353

>  <SCORE.INTER.CONST>
1

>  <SCORE.INTER.POLAR>
0

>  <SCORE.INTER.ROT>
7

>  <SCORE.INTER.SOLV>
12.6055

>  <SCORE.INTER.VDW>
-23.2254

>  <SCORE.INTER.norm>
-0.620589

>  <SCORE.INTRA>
-2.62846

>  <SCORE.INTRA.DIHEDRAL>
-2.12402

>  <SCORE.INTRA.DIHEDRAL.0>
6.97628

>  <SCORE.INTRA.POLAR>
0

>  <SCORE.INTRA.POLAR.0>
0

>  <SCORE.INTRA.REPUL>
0

>  <SCORE.INTRA.REPUL.0>
0

>  <SCORE.INTRA.SOLV>
-0.660681

>  <SCORE.INTRA.SOLV.lig_0>
-49.8243

>  <SCORE.INTRA.VDW>
-1.23611

>  <SCORE.INTRA.VDW.0>
-1.35881

>  <SCORE.INTRA.norm>
-0.101095

>  <SCORE.RESTR>
0

>  <SCORE.RESTR.CAVITY>
0

>  <SCORE.RESTR.norm>
0

>  <SCORE.SYSTEM>
0

>  <SCORE.SYSTEM.CONST>
0

>  <SCORE.SYSTEM.DIHEDRAL>
0

>  <SCORE.SYSTEM.SOLV>
0

>  <SCORE.SYSTEM.norm>
0

>  <SCORE.heavy>
26

>  <SCORE.norm>
-0.721684

>  <RMSD>
9.224

$$$$
ligand
 OpenBabel11021811483D
libRbt.so/2013.1/901 2013/11/27
 26 28  0  0  0  0  0  0  0  0999 V2000
   41.3507   11.9597    3.2376 N   0  0  0  0  0  0  0  0  0  0  0  0
   41.3363   11.0214    4.3530 C   0  0  2  0  0  0  0  0  0  0  0  0
   41.4299    9.5819    3.8602 C   0  0  0  0  0  0  0  0  0  0  0  0
   40.4160    8.9172    3.6500 O   0  0  0  0  0  0  0  0  0  0  0  0
   40.0766   11.2063    5.1897 C   0  0  0  0  0  0  0  0  0  0  0  0
   39.9247   12.5993    5.7867 C   0  0  0  0  0  0  0  0  0  0  0  0
   38.5783   12.6943    6.9935 S   0  0  0  0  0  0  0  0  0  0  0  0
   38.7394   14.4972    7.0361 C   0  0  0  0  0  0  0  0  0  0  0  0
   38.0776   15.1184    8.2606 C   0  0  1  0  0  0  0  0  0  0  0  0
   38.3867   16.4985    8.3291 O   0  0  0  0  0  0  0  0  0  0  0  0
   36.5646   14.9834    8.2066 C   0  0  1  0  0  0  0  0  0  0  0  0
   36.1146   14.1845    9.2751 O   0  0  0  0  0  0  0  0  0  0  0  0
   36.0187   16.3895    8.3440 C   0  0  1  0  0  0  0  0  0  0  0  0
   35.1689   16.4714    9.4644 O   0  0  0  0  0  0  0  0  0  0  0  0
   37.2295   17.2859    8.5391 C   0  0  2  0  0  0  0  0  0  0  0  0
   42.5224    9.0498    3.6601 O   0  0  0  0  0  0  0  0  0  0  0  0
   34.5317   21.4197    6.7501 N   0  0  0  0  0  0  0  0  0  0  0  0
   34.1821   20.5490    7.7626 C   0  0  0  0  0  0  0  0  0  0  0  0
   35.0213   19.5069    8.1038 N   0  0  0  0  0  0  0  0  0  0  0  0
   36.1935   19.3294    7.4469 C   0  0  0  0  0  0  0  0  0  0  0  0
   36.5623   20.1941    6.4254 C   0  0  0  0  0  0  0  0  0  0  0  0
   35.7238   21.2460    6.0765 C   0  0  0  0  0  0  0  0  0  0  0  0
   36.0664   22.0799    5.0991 N   0  0  0  0  0  0  0  0  0  0  0  0
   37.7608   19.7905    5.9514 N   0  0  0  0  0  0  0  0  0  0  0  0
   38.1571   18.6977    6.6437 C   0  0  0  0  0  0  0  0  0  0  0  0
   37.1954   18.3999    7.5745 N   0  0  0  0  0  0  0  0  0  0  0  0
  2  1  1  6  0  0  0
  2  3  1  0  0  0  0
  2  5  1  0  0  0  0
  3  4  1  0  0  0  0
  3 16  1  0  0  0  0
  5  6  1  0  0  0  0
  6  7  1  0  0  0  0
  7  8  1  0  0  0  0
  9  8  1  6  0  0  0
  9 10  1  0  0  0  0
  9 11  1  0  0  0  0
 10 15  1  0  0  0  0
 11 12  1  1  0  0  0
 11 13  1  0  0  0  0
 13 14  1  1  0  0  0
 13 15  1  0  0  0  0
 15 26  1  6  0  0  0
 17 18  2  0  0  0  0
 17 22  1  0  0  0  0
 18 19  1  0  0  0  0
 19 20  2  0  0  0  0
 20 21  1  0  0  0  0
 20 26  1  0  0  0  0
 21 22  2  0  0  0  0
 21 24  1  0  0  0  0
 22 23  1  0  0  0  0
 24 25  2  0  0  0  0
 25 26  1  0  0  0  0
M  END
>  <CHROM.1>
-92.85949338,-59.72446358,-170.18828010,-170.29177543,-162.35065624,172.34016401
177.03507502,37.90022777,15.61597685,6.63679687,-0.71040166,0.92105710,-0.47092468

>  <Name>
ligand

>  <RI>
0

>  <Rbt.Current_Directory>
/home/itssahil/PROJECTS/Mol_Feturizer/New_Systems/rnas/3NPQ

>  <Rbt.Executable>
rbdock ($Id: //depot/dev/client3/rdock/2013.1/src/exe/rbdock.cxx#4 $)

>  <Rbt.Library>
libRbt.so (2013.1, Build901 2013/11/27)

>  <Rbt.Parameter_File>
/export/apps/rDock/src/rDock_2013.1_src/data/scripts/dock_solv.prm

>  <Rbt.Receptor>
prm/pocket_docking_6.prm

>  <SCORE>
-26.3609

>  <SCORE.INTER>
-24.5158

>  <SCORE.INTER.CONST>
1

>  <SCORE.INTER.POLAR>
0

>  <SCORE.INTER.ROT>
7

>  <SCORE.INTER.SOLV>
15.7326

>  <SCORE.INTER.VDW>
-29.8547

>  <SCORE.INTER.norm>
-0.942914

>  <SCORE.INTRA>
-1.84515

>  <SCORE.INTRA.DIHEDRAL>
-3.11708

>  <SCORE.INTRA.DIHEDRAL.0>
6.97628

>  <SCORE.INTRA.POLAR>
0

>  <SCORE.INTRA.POLAR.0>
0

>  <SCORE.INTRA.REPUL>
0

>  <SCORE.INTRA.REPUL.0>
0

>  <SCORE.INTRA.SOLV>
-0.11541

>  <SCORE.INTRA.SOLV.lig_0>
-49.8243

>  <SCORE.INTRA.VDW>
-0.228903

>  <SCORE.INTRA.VDW.0>
-1.35881

>  <SCORE.INTRA.norm>
-0.0709672

>  <SCORE.RESTR>
0

>  <SCORE.RESTR.CAVITY>
0

>  <SCORE.RESTR.norm>
0

>  <SCORE.SYSTEM>
0

>  <SCORE.SYSTEM.CONST>
0

>  <SCORE.SYSTEM.DIHEDRAL>
0

>  <SCORE.SYSTEM.SOLV>
0

>  <SCORE.SYSTEM.norm>
0

>  <SCORE.heavy>
26

>  <SCORE.norm>
-1.01388

>  <RMSD>
9.234

$$$$
ligand
 OpenBabel11021811483D
libRbt.so/2013.1/901 2013/11/27
 26 28  0  0  0  0  0  0  0  0999 V2000
   41.0966   12.7711   -3.9635 N   0  0  0  0  0  0  0  0  0  0  0  0
   41.5616   13.8068   -3.0495 C   0  0  2  0  0  0  0  0  0  0  0  0
   43.0632   14.0290   -3.1904 C   0  0  0  0  0  0  0  0  0  0  0  0
   43.5561   15.1450   -3.0306 O   0  0  0  0  0  0  0  0  0  0  0  0
   41.2203   13.4412   -1.6104 C   0  0  0  0  0  0  0  0  0  0  0  0
   41.8331   12.1288   -1.1395 C   0  0  0  0  0  0  0  0  0  0  0  0
   41.4844   11.7858    0.6038 S   0  0  0  0  0  0  0  0  0  0  0  0
   42.6834   10.4294    0.5800 C   0  0  0  0  0  0  0  0  0  0  0  0
   42.7326    9.6643    1.8975 C   0  0  1  0  0  0  0  0  0  0  0  0
   42.9538   10.5623    2.9698 O   0  0  0  0  0  0  0  0  0  0  0  0
   41.4284    8.9315    2.1668 C   0  0  1  0  0  0  0  0  0  0  0  0
   41.6544    7.5421    2.1941 O   0  0  0  0  0  0  0  0  0  0  0  0
   40.9594    9.4079    3.5259 C   0  0  1  0  0  0  0  0  0  0  0  0
   40.8244    8.3134    4.4023 O   0  0  0  0  0  0  0  0  0  0  0  0
   42.0390   10.3507    4.0289 C   0  0  2  0  0  0  0  0  0  0  0  0
   43.8190   13.0968   -3.4670 O   0  0  0  0  0  0  0  0  0  0  0  0
   38.3570   12.7025    6.9407 N   0  0  0  0  0  0  0  0  0  0  0  0
   38.6105   11.3511    6.8185 C   0  0  0  0  0  0  0  0  0  0  0  0
   39.6294   10.9063    5.9995 N   0  0  0  0  0  0  0  0  0  0  0  0
   40.3874   11.7921    5.3082 C   0  0  0  0  0  0  0  0  0  0  0  0
   40.1475   13.1551    5.4175 C   0  0  0  0  0  0  0  0  0  0  0  0
   39.1246   13.6110    6.2403 C   0  0  0  0  0  0  0  0  0  0  0  0
   38.8851   14.9142    6.3520 N   0  0  0  0  0  0  0  0  0  0  0  0
   41.0384   13.7983    4.6323 N   0  0  0  0  0  0  0  0  0  0  0  0
   41.8314   12.8812    4.0320 C   0  0  0  0  0  0  0  0  0  0  0  0
   41.4398   11.6326    4.4415 N   0  0  0  0  0  0  0  0  0  0  0  0
  2  1  1  6  0  0  0
  2  3  1  0  0  0  0
  2  5  1  0  0  0  0
  3  4  1  0  0  0  0
  3 16  1  0  0  0  0
  5  6  1  0  0  0  0
  6  7  1  0  0  0  0
  7  8  1  0  0  0  0
  9  8  1  6  0  0  0
  9 10  1  0  0  0  0
  9 11  1  0  0  0  0
 10 15  1  0  0  0  0
 11 12  1  1  0  0  0
 11 13  1  0  0  0  0
 13 14  1  1  0  0  0
 13 15  1  0  0  0  0
 15 26  1  6  0  0  0
 17 18  2  0  0  0  0
 17 22  1  0  0  0  0
 18 19  1  0  0  0  0
 19 20  2  0  0  0  0
 20 21  1  0  0  0  0
 20 26  1  0  0  0  0
 21 22  2  0  0  0  0
 21 24  1  0  0  0  0
 22 23  1  0  0  0  0
 24 25  2  0  0  0  0
 25 26  1  0  0  0  0
M  END
>  <CHROM.1>
146.69688691,59.54287981,176.51502397,-169.22603752,-176.12780871,-53.70224874
170.63859585,41.30755711,11.81269623,2.09720233,0.72023223,1.16894174,-0.58617386

>  <Name>
ligand

>  <RI>
0

>  <Rbt.Current_Directory>
/home/itssahil/PROJECTS/Mol_Feturizer/New_Systems/rnas/3NPQ

>  <Rbt.Executable>
rbdock ($Id: //depot/dev/client3/rdock/2013.1/src/exe/rbdock.cxx#4 $)

>  <Rbt.Library>
libRbt.so (2013.1, Build901 2013/11/27)

>  <Rbt.Parameter_File>
/export/apps/rDock/src/rDock_2013.1_src/data/scripts/dock_solv.prm

>  <Rbt.Receptor>
prm/pocket_docking_8.prm

>  <SCORE>
-18.1366

>  <SCORE.INTER>
-14.934

>  <SCORE.INTER.CONST>
1

>  <SCORE.INTER.POLAR>
0

>  <SCORE.INTER.ROT>
7

>  <SCORE.INTER.SOLV>
8.82268

>  <SCORE.INTER.VDW>
-21.1635

>  <SCORE.INTER.norm>
-0.574384

>  <SCORE.INTRA>
-3.20265

>  <SCORE.INTRA.DIHEDRAL>
-3.91002

>  <SCORE.INTRA.DIHEDRAL.0>
6.97628

>  <SCORE.INTRA.POLAR>
0

>  <SCORE.INTRA.POLAR.0>
0

>  <SCORE.INTRA.REPUL>
0

>  <SCORE.INTRA.REPUL.0>
0

>  <SCORE.INTRA.SOLV>
0.0778692

>  <SCORE.INTRA.SOLV.lig_0>
-49.8243

>  <SCORE.INTRA.VDW>
-1.28658

>  <SCORE.INTRA.VDW.0>
-1.35881

>  <SCORE.INTRA.norm>
-0.123179

>  <SCORE.RESTR>
0

>  <SCORE.RESTR.CAVITY>
0

>  <SCORE.RESTR.norm>
0

>  <SCORE.SYSTEM>
0

>  <SCORE.SYSTEM.CONST>
0

>  <SCORE.SYSTEM.DIHEDRAL>
0

>  <SCORE.SYSTEM.SOLV>
0

>  <SCORE.SYSTEM.norm>
0

>  <SCORE.heavy>
26

>  <SCORE.norm>
-0.697563

>  <RMSD>
9.260

$$$$
ligand
 OpenBabel11021811483D
libRbt.so/2013.1/901 2013/11/27
 26 28  0  0  0  0  0  0  0  0999 V2000
   42.4595    6.9793    1.0722 N   0  0  0  0  0  0  0  0  0  0  0  0
   42.6729    8.2223    1.8029 C   0  0  2  0  0  0  0  0  0  0  0  0
   44.0658    8.2632    2.4210 C   0  0  0  0  0  0  0  0  0  0  0  0
   44.6374    9.3336    2.6240 O   0  0  0  0  0  0  0  0  0  0  0  0
   41.6154    8.3929    2.8862 C   0  0  0  0  0  0  0  0  0  0  0  0
   41.5528    9.7940    3.4801 C   0  0  0  0  0  0  0  0  0  0  0  0
   40.1952    9.9869    4.6625 S   0  0  0  0  0  0  0  0  0  0  0  0
   40.5658   11.7534    4.8046 C   0  0  0  0  0  0  0  0  0  0  0  0
   40.1594   12.3332    6.1544 C   0  0  1  0  0  0  0  0  0  0  0  0
   40.5708   13.6852    6.2433 O   0  0  0  0  0  0  0  0  0  0  0  0
   38.6525   12.2925    6.3489 C   0  0  1  0  0  0  0  0  0  0  0  0
   38.3301   11.4550    7.4339 O   0  0  0  0  0  0  0  0  0  0  0  0
   38.2359   13.7170    6.6510 C   0  0  1  0  0  0  0  0  0  0  0  0
   37.5899   13.7774    7.9014 O   0  0  0  0  0  0  0  0  0  0  0  0
   39.5216   14.5251    6.6869 C   0  0  2  0  0  0  0  0  0  0  0  0
   44.6521    7.2259    2.7325 O   0  0  0  0  0  0  0  0  0  0  0  0
   39.0802   19.7499    6.4156 N   0  0  0  0  0  0  0  0  0  0  0  0
   39.1654   18.9607    7.5449 C   0  0  0  0  0  0  0  0  0  0  0  0
   39.2783   17.5895    7.4277 N   0  0  0  0  0  0  0  0  0  0  0  0
   39.3047   17.0075    6.2040 C   0  0  0  0  0  0  0  0  0  0  0  0
   39.2197   17.7842    5.0565 C   0  0  0  0  0  0  0  0  0  0  0  0
   39.1068   19.1649    5.1658 C   0  0  0  0  0  0  0  0  0  0  0  0
   39.0238   19.9188    4.0735 N   0  0  0  0  0  0  0  0  0  0  0  0
   39.2701   16.9571    3.9900 N   0  0  0  0  0  0  0  0  0  0  0  0
   39.3839   15.6835    4.4318 C   0  0  0  0  0  0  0  0  0  0  0  0
   39.4068   15.6988    5.8026 N   0  0  0  0  0  0  0  0  0  0  0  0
  2  1  1  1  0  0  0
  2  3  1  0  0  0  0
  2  5  1  0  0  0  0
  3  4  1  0  0  0  0
  3 16  1  0  0  0  0
  5  6  1  0  0  0  0
  6  7  1  0  0  0  0
  7  8  1  0  0  0  0
  9  8  1  6  0  0  0
  9 10  1  0  0  0  0
  9 11  1  0  0  0  0
 10 15  1  0  0  0  0
 11 12  1  1  0  0  0
 11 13  1  0  0  0  0
 13 14  1  1  0  0  0
 13 15  1  0  0  0  0
 15 26  1  6  0  0  0
 17 18  2  0  0  0  0
 17 22  1  0  0  0  0
 18 19  1  0  0  0  0
 19 20  2  0  0  0  0
 20 21  1  0  0  0  0
 20 26  1  0  0  0  0
 21 22  2  0  0  0  0
 21 24  1  0  0  0  0
 22 23  1  0  0  0  0
 24 25  2  0  0  0  0
 25 26  1  0  0  0  0
M  END
>  <CHROM.1>
152.17640396,-166.38442074,175.26992408,-174.35600555,-152.47529655,175.33378557
-132.30326874,40.32894484,13.17121342,4.98316898,-1.00128251,0.85472178,-0.11484247

>  <Name>
ligand

>  <RI>
0

>  <Rbt.Current_Directory>
/home/itssahil/PROJECTS/Mol_Feturizer/New_Systems/rnas/3NPQ

>  <Rbt.Executable>
rbdock ($Id: //depot/dev/client3/rdock/2013.1/src/exe/rbdock.cxx#4 $)

>  <Rbt.Library>
libRbt.so (2013.1, Build901 2013/11/27)

>  <Rbt.Parameter_File>
/export/apps/rDock/src/rDock_2013.1_src/data/scripts/dock_solv.prm

>  <Rbt.Receptor>
prm/pocket_docking_5.prm

>  <SCORE>
-18.5811

>  <SCORE.INTER>
-16.0444

>  <SCORE.INTER.CONST>
1

>  <SCORE.INTER.POLAR>
0

>  <SCORE.INTER.ROT>
7

>  <SCORE.INTER.SOLV>
14.2473

>  <SCORE.INTER.VDW>
-23.712

>  <SCORE.INTER.norm>
-0.617092

>  <SCORE.INTRA>
-2.53667

>  <SCORE.INTRA.DIHEDRAL>
-2.35895

>  <SCORE.INTRA.DIHEDRAL.0>
6.97628

>  <SCORE.INTRA.POLAR>
0

>  <SCORE.INTRA.POLAR.0>
0

>  <SCORE.INTRA.REPUL>
0

>  <SCORE.INTRA.REPUL.0>
0

>  <SCORE.INTRA.SOLV>
-0.856903

>  <SCORE.INTRA.SOLV.lig_0>
-49.8243

>  <SCORE.INTRA.VDW>
-0.928744

>  <SCORE.INTRA.VDW.0>
-1.35881

>  <SCORE.INTRA.norm>
-0.0975643

>  <SCORE.RESTR>
0

>  <SCORE.RESTR.CAVITY>
0

>  <SCORE.RESTR.norm>
0

>  <SCORE.SYSTEM>
0

>  <SCORE.SYSTEM.CONST>
0

>  <SCORE.SYSTEM.DIHEDRAL>
0

>  <SCORE.SYSTEM.SOLV>
0

>  <SCORE.SYSTEM.norm>
0

>  <SCORE.heavy>
26

>  <SCORE.norm>
-0.714656

>  <RMSD>
9.261

$$$$
ligand
 OpenBabel11021811483D
libRbt.so/2013.1/901 2013/11/27
 26 28  0  0  0  0  0  0  0  0999 V2000
   43.0273    9.5103    0.2176 N   0  0  0  0  0  0  0  0  0  0  0  0
   43.1599    9.5822    1.6673 C   0  0  2  0  0  0  0  0  0  0  0  0
   43.5374    8.2257    2.2517 C   0  0  0  0  0  0  0  0  0  0  0  0
   43.9884    8.1308    3.3925 O   0  0  0  0  0  0  0  0  0  0  0  0
   41.8656   10.0806    2.2977 C   0  0  0  0  0  0  0  0  0  0  0  0
   41.9760   10.3893    3.7850 C   0  0  0  0  0  0  0  0  0  0  0  0
   40.3597   10.4918    4.5946 S   0  0  0  0  0  0  0  0  0  0  0  0
   40.6333   12.2508    4.9251 C   0  0  0  0  0  0  0  0  0  0  0  0
   40.1486   12.6722    6.3074 C   0  0  1  0  0  0  0  0  0  0  0  0
   40.4989   14.0222    6.5516 O   0  0  0  0  0  0  0  0  0  0  0  0
   38.6381   12.5548    6.4294 C   0  0  1  0  0  0  0  0  0  0  0  0
   38.3076   11.5982    7.4081 O   0  0  0  0  0  0  0  0  0  0  0  0
   38.1501   13.9238    6.8560 C   0  0  1  0  0  0  0  0  0  0  0  0
   37.4521   13.8302    8.0760 O   0  0  0  0  0  0  0  0  0  0  0  0
   39.3982   14.7717    7.0312 C   0  0  2  0  0  0  0  0  0  0  0  0
   43.3995    7.1922    1.5961 O   0  0  0  0  0  0  0  0  0  0  0  0
   38.3041   19.9031    7.2279 N   0  0  0  0  0  0  0  0  0  0  0  0
   38.3117   18.9943    8.2669 C   0  0  0  0  0  0  0  0  0  0  0  0
   38.6264   17.6707    8.0303 N   0  0  0  0  0  0  0  0  0  0  0  0
   38.9285   17.2530    6.7768 C   0  0  0  0  0  0  0  0  0  0  0  0
   38.9257   18.1518    5.7188 C   0  0  0  0  0  0  0  0  0  0  0  0
   38.6110   19.4857    5.9486 C   0  0  0  0  0  0  0  0  0  0  0  0
   38.6042   20.3553    4.9427 N   0  0  0  0  0  0  0  0  0  0  0  0
   39.2589   17.4758    4.5981 N   0  0  0  0  0  0  0  0  0  0  0  0
   39.4711   16.1788    4.9190 C   0  0  0  0  0  0  0  0  0  0  0  0
   39.2701   16.0253    6.2665 N   0  0  0  0  0  0  0  0  0  0  0  0
  2  1  1  6  0  0  0
  2  3  1  0  0  0  0
  2  5  1  0  0  0  0
  3  4  1  0  0  0  0
  3 16  1  0  0  0  0
  5  6  1  0  0  0  0
  6  7  1  0  0  0  0
  7  8  1  0  0  0  0
  9  8  1  6  0  0  0
  9 10  1  0  0  0  0
  9 11  1  0  0  0  0
 10 15  1  0  0  0  0
 11 12  1  1  0  0  0
 11 13  1  0  0  0  0
 13 14  1  1  0  0  0
 13 15  1  0  0  0  0
 15 26  1  6  0  0  0
 17 18  2  0  0  0  0
 17 22  1  0  0  0  0
 18 19  1  0  0  0  0
 19 20  2  0  0  0  0
 20 21  1  0  0  0  0
 20 26  1  0  0  0  0
 21 22  2  0  0  0  0
 21 24  1  0  0  0  0
 22 23  1  0  0  0  0
 24 25  2  0  0  0  0
 25 26  1  0  0  0  0
M  END
>  <CHROM.1>
163.38973580,-171.18617557,-162.80023082,-114.66546593,-139.77799799,174.70999658
-141.17445453,40.15644551,13.56865066,5.18872985,-0.82630008,0.97461773,-0.22228106

>  <Name>
ligand

>  <RI>
0

>  <Rbt.Current_Directory>
/home/itssahil/PROJECTS/Mol_Feturizer/New_Systems/rnas/3NPQ

>  <Rbt.Executable>
rbdock ($Id: //depot/dev/client3/rdock/2013.1/src/exe/rbdock.cxx#4 $)

>  <Rbt.Library>
libRbt.so (2013.1, Build901 2013/11/27)

>  <Rbt.Parameter_File>
/export/apps/rDock/src/rDock_2013.1_src/data/scripts/dock_solv.prm

>  <Rbt.Receptor>
prm/pocket_docking_7.prm

>  <SCORE>
-15.3728

>  <SCORE.INTER>
-14.8281

>  <SCORE.INTER.CONST>
1

>  <SCORE.INTER.POLAR>
0

>  <SCORE.INTER.ROT>
7

>  <SCORE.INTER.SOLV>
10.3489

>  <SCORE.INTER.VDW>
-21.6017

>  <SCORE.INTER.norm>
-0.57031

>  <SCORE.INTRA>
-0.544748

>  <SCORE.INTRA.DIHEDRAL>
1.29539

>  <SCORE.INTRA.DIHEDRAL.0>
6.97628

>  <SCORE.INTRA.POLAR>
0

>  <SCORE.INTRA.POLAR.0>
0

>  <SCORE.INTRA.REPUL>
0

>  <SCORE.INTRA.REPUL.0>
0

>  <SCORE.INTRA.SOLV>
-0.860151

>  <SCORE.INTRA.SOLV.lig_0>
-49.8243

>  <SCORE.INTRA.VDW>
-0.762366

>  <SCORE.INTRA.VDW.0>
-1.35881

>  <SCORE.INTRA.norm>
-0.0209518

>  <SCORE.RESTR>
0

>  <SCORE.RESTR.CAVITY>
0

>  <SCORE.RESTR.norm>
0

>  <SCORE.SYSTEM>
0

>  <SCORE.SYSTEM.CONST>
0

>  <SCORE.SYSTEM.DIHEDRAL>
0

>  <SCORE.SYSTEM.SOLV>
0

>  <SCORE.SYSTEM.norm>
0

>  <SCORE.heavy>
26

>  <SCORE.norm>
-0.591262

>  <RMSD>
9.270

$$$$
ligand
 OpenBabel11021811483D
libRbt.so/2013.1/901 2013/11/27
 26 28  0  0  0  0  0  0  0  0999 V2000
   41.4073   12.0994    3.2763 N   0  0  0  0  0  0  0  0  0  0  0  0
   41.3785   11.1516    4.3833 C   0  0  2  0  0  0  0  0  0  0  0  0
   41.4950    9.7172    3.8805 C   0  0  0  0  0  0  0  0  0  0  0  0
   40.4920    9.0361    3.6708 O   0  0  0  0  0  0  0  0  0  0  0  0
   40.1004   11.3182    5.1956 C   0  0  0  0  0  0  0  0  0  0  0  0
   39.9470   12.6895    5.8405 C   0  0  0  0  0  0  0  0  0  0  0  0
   38.5107   12.7832    6.9390 S   0  0  0  0  0  0  0  0  0  0  0  0
   38.7478   14.5708    7.1015 C   0  0  0  0  0  0  0  0  0  0  0  0
   38.0783   15.1424    8.3459 C   0  0  1  0  0  0  0  0  0  0  0  0
   38.3673   16.5240    8.4587 O   0  0  0  0  0  0  0  0  0  0  0  0
   36.5674   14.9872    8.2884 C   0  0  1  0  0  0  0  0  0  0  0  0
   36.1303   14.1478    9.3309 O   0  0  0  0  0  0  0  0  0  0  0  0
   36.0012   16.3800    8.4715 C   0  0  1  0  0  0  0  0  0  0  0  0
   35.1515   16.4133    9.5945 O   0  0  0  0  0  0  0  0  0  0  0  0
   37.1990   17.2872    8.6947 C   0  0  2  0  0  0  0  0  0  0  0  0
   42.5958    9.2058    3.6716 O   0  0  0  0  0  0  0  0  0  0  0  0
   34.4168   21.4078    7.0073 N   0  0  0  0  0  0  0  0  0  0  0  0
   34.0778   20.4957    7.9864 C   0  0  0  0  0  0  0  0  0  0  0  0
   34.9396   19.4645    8.3040 N   0  0  0  0  0  0  0  0  0  0  0  0
   36.1236   19.3386    7.6566 C   0  0  0  0  0  0  0  0  0  0  0  0
   36.4821   20.2456    6.6687 C   0  0  0  0  0  0  0  0  0  0  0  0
   35.6209   21.2867    6.3436 C   0  0  0  0  0  0  0  0  0  0  0  0
   35.9535   22.1608    5.3984 N   0  0  0  0  0  0  0  0  0  0  0  0
   37.6962   19.8883    6.1970 N   0  0  0  0  0  0  0  0  0  0  0  0
   38.1122   18.7838    6.8583 C   0  0  0  0  0  0  0  0  0  0  0  0
   37.1477   18.4312    7.7666 N   0  0  0  0  0  0  0  0  0  0  0  0
  2  1  1  6  0  0  0
  2  3  1  0  0  0  0
  2  5  1  0  0  0  0
  3  4  1  0  0  0  0
  3 16  1  0  0  0  0
  5  6  1  0  0  0  0
  6  7  1  0  0  0  0
  7  8  1  0  0  0  0
  9  8  1  6  0  0  0
  9 10  1  0  0  0  0
  9 11  1  0  0  0  0
 10 15  1  0  0  0  0
 11 12  1  1  0  0  0
 11 13  1  0  0  0  0
 13 14  1  1  0  0  0
 13 15  1  0  0  0  0
 15 26  1  6  0  0  0
 17 18  2  0  0  0  0
 17 22  1  0  0  0  0
 18 19  1  0  0  0  0
 19 20  2  0  0  0  0
 20 21  1  0  0  0  0
 20 26  1  0  0  0  0
 21 22  2  0  0  0  0
 21 24  1  0  0  0  0
 22 23  1  0  0  0  0
 24 25  2  0  0  0  0
 25 26  1  0  0  0  0
M  END
>  <CHROM.1>
-94.40079339,-61.71278096,-173.74145269,-171.34621283,-159.21632386,176.47309958
176.05300632,37.87747219,15.66749508,6.75204641,-0.70549955,0.90740035,-0.44663939

>  <Name>
ligand

>  <RI>
0

>  <Rbt.Current_Directory>
/home/itssahil/PROJECTS/Mol_Feturizer/New_Systems/rnas/3NPQ

>  <Rbt.Executable>
rbdock ($Id: //depot/dev/client3/rdock/2013.1/src/exe/rbdock.cxx#4 $)

>  <Rbt.Library>
libRbt.so (2013.1, Build901 2013/11/27)

>  <Rbt.Parameter_File>
/export/apps/rDock/src/rDock_2013.1_src/data/scripts/dock_solv.prm

>  <Rbt.Receptor>
prm/pocket_docking_4.prm

>  <SCORE>
-26.1583

>  <SCORE.INTER>
-24.2535

>  <SCORE.INTER.CONST>
1

>  <SCORE.INTER.POLAR>
0

>  <SCORE.INTER.ROT>
7

>  <SCORE.INTER.SOLV>
15.6997

>  <SCORE.INTER.VDW>
-29.6689

>  <SCORE.INTER.norm>
-0.932828

>  <SCORE.INTRA>
-1.90641

>  <SCORE.INTRA.DIHEDRAL>
-3.34064

>  <SCORE.INTRA.DIHEDRAL.0>
6.97628

>  <SCORE.INTRA.POLAR>
0

>  <SCORE.INTRA.POLAR.0>
0

>  <SCORE.INTRA.REPUL>
0

>  <SCORE.INTRA.REPUL.0>
0

>  <SCORE.INTRA.SOLV>
-0.116196

>  <SCORE.INTRA.SOLV.lig_0>
-49.8243

>  <SCORE.INTRA.VDW>
-0.177996

>  <SCORE.INTRA.VDW.0>
-1.35881

>  <SCORE.INTRA.norm>
-0.0733235

>  <SCORE.RESTR>
0.00163634

>  <SCORE.RESTR.CAVITY>
0.00163634

>  <SCORE.RESTR.norm>
6.29361e-05

>  <SCORE.SYSTEM>
0

>  <SCORE.SYSTEM.CONST>
0

>  <SCORE.SYSTEM.DIHEDRAL>
0

>  <SCORE.SYSTEM.SOLV>
0

>  <SCORE.SYSTEM.norm>
0

>  <SCORE.heavy>
26

>  <SCORE.norm>
-1.00609

>  <RMSD>
9.271

$$$$
ligand
 OpenBabel11021811483D
libRbt.so/2013.1/901 2013/11/27
 26 28  0  0  0  0  0  0  0  0999 V2000
   46.3746   13.9188    1.6213 N   0  0  0  0  0  0  0  0  0  0  0  0
   45.7408   13.1110    2.6558 C   0  0  2  0  0  0  0  0  0  0  0  0
   45.6381   13.8813    3.9674 C   0  0  0  0  0  0  0  0  0  0  0  0
   44.6249   13.8162    4.6624 O   0  0  0  0  0  0  0  0  0  0  0  0
   46.5137   11.8157    2.8699 C   0  0  0  0  0  0  0  0  0  0  0  0
   46.4128   10.8319    1.7116 C   0  0  0  0  0  0  0  0  0  0  0  0
   44.7074   10.3212    1.3811 S   0  0  0  0  0  0  0  0  0  0  0  0
   45.1257    8.6192    1.8356 C   0  0  0  0  0  0  0  0  0  0  0  0
   43.9399    7.8566    2.4150 C   0  0  1  0  0  0  0  0  0  0  0  0
   43.4888    8.4909    3.5979 O   0  0  0  0  0  0  0  0  0  0  0  0
   42.7751    7.8102    1.4396 C   0  0  1  0  0  0  0  0  0  0  0  0
   42.5133    6.4782    1.0663 O   0  0  0  0  0  0  0  0  0  0  0  0
   41.5879    8.3831    2.1856 C   0  0  1  0  0  0  0  0  0  0  0  0
   40.5440    7.4385    2.2323 O   0  0  0  0  0  0  0  0  0  0  0  0
   42.0864    8.6818    3.5891 C   0  0  2  0  0  0  0  0  0  0  0  0
   46.5669   14.5867    4.3629 O   0  0  0  0  0  0  0  0  0  0  0  0
   38.8303   11.8531    6.2174 N   0  0  0  0  0  0  0  0  0  0  0  0
   38.7797   10.4775    6.1148 C   0  0  0  0  0  0  0  0  0  0  0  0
   39.7283    9.8004    5.3743 N   0  0  0  0  0  0  0  0  0  0  0  0
   40.7152   10.4803    4.7412 C   0  0  0  0  0  0  0  0  0  0  0  0
   40.7826   11.8639    4.8320 C   0  0  0  0  0  0  0  0  0  0  0  0
   39.8323   12.5529    5.5761 C   0  0  0  0  0  0  0  0  0  0  0  0
   39.8865   13.8782    5.6693 N   0  0  0  0  0  0  0  0  0  0  0  0
   41.8505   12.2761    4.1153 N   0  0  0  0  0  0  0  0  0  0  0  0
   42.4570   11.1936    3.5761 C   0  0  0  0  0  0  0  0  0  0  0  0
   41.7643   10.0727    3.9555 N   0  0  0  0  0  0  0  0  0  0  0  0
  2  1  1  6  0  0  0
  2  3  1  0  0  0  0
  2  5  1  0  0  0  0
  3  4  1  0  0  0  0
  3 16  1  0  0  0  0
  5  6  1  0  0  0  0
  6  7  1  0  0  0  0
  7  8  1  0  0  0  0
  9  8  1  6  0  0  0
  9 10  1  0  0  0  0
  9 11  1  0  0  0  0
 10 15  1  0  0  0  0
 11 12  1  1  0  0  0
 11 13  1  0  0  0  0
 13 14  1  1  0  0  0
 13 15  1  0  0  0  0
 15 26  1  6  0  0  0
 17 18  2  0  0  0  0
 17 22  1  0  0  0  0
 18 19  1  0  0  0  0
 19 20  2  0  0  0  0
 20 21  1  0  0  0  0
 20 26  1  0  0  0  0
 21 22  2  0  0  0  0
 21 24  1  0  0  0  0
 22 23  1  0  0  0  0
 24 25  2  0  0  0  0
 25 26  1  0  0  0  0
M  END
>  <CHROM.1>
138.93351666,-69.73010689,-60.08336995,-115.68402484,150.61269835,-61.27801583
-141.26860241,42.96963856,10.73983611,3.39027700,0.19223089,0.44591899,0.47380343

>  <Name>
ligand

>  <RI>
0

>  <Rbt.Current_Directory>
/home/itssahil/PROJECTS/Mol_Feturizer/New_Systems/rnas/3NPQ

>  <Rbt.Executable>
rbdock ($Id: //depot/dev/client3/rdock/2013.1/src/exe/rbdock.cxx#4 $)

>  <Rbt.Library>
libRbt.so (2013.1, Build901 2013/11/27)

>  <Rbt.Parameter_File>
/export/apps/rDock/src/rDock_2013.1_src/data/scripts/dock_solv.prm

>  <Rbt.Receptor>
prm/pocket_docking_8.prm

>  <SCORE>
-24.4904

>  <SCORE.INTER>
-22.3051

>  <SCORE.INTER.CONST>
1

>  <SCORE.INTER.POLAR>
0

>  <SCORE.INTER.ROT>
7

>  <SCORE.INTER.SOLV>
12.0031

>  <SCORE.INTER.VDW>
-27.1378

>  <SCORE.INTER.norm>
-0.857889

>  <SCORE.INTRA>
-2.1853

>  <SCORE.INTRA.DIHEDRAL>
-0.386858

>  <SCORE.INTRA.DIHEDRAL.0>
6.97628

>  <SCORE.INTRA.POLAR>
0

>  <SCORE.INTRA.POLAR.0>
0

>  <SCORE.INTRA.REPUL>
0

>  <SCORE.INTRA.REPUL.0>
0

>  <SCORE.INTRA.SOLV>
0.490825

>  <SCORE.INTRA.SOLV.lig_0>
-49.8243

>  <SCORE.INTRA.VDW>
-2.23728

>  <SCORE.INTRA.VDW.0>
-1.35881

>  <SCORE.INTRA.norm>
-0.08405

>  <SCORE.RESTR>
0

>  <SCORE.RESTR.CAVITY>
0

>  <SCORE.RESTR.norm>
0

>  <SCORE.SYSTEM>
0

>  <SCORE.SYSTEM.CONST>
0

>  <SCORE.SYSTEM.DIHEDRAL>
0

>  <SCORE.SYSTEM.SOLV>
0

>  <SCORE.SYSTEM.norm>
0

>  <SCORE.heavy>
26

>  <SCORE.norm>
-0.941939

>  <RMSD>
9.288

$$$$
ligand
 OpenBabel11021811483D
libRbt.so/2013.1/901 2013/11/27
 26 28  0  0  0  0  0  0  0  0999 V2000
   42.4680    6.7046    0.9209 N   0  0  0  0  0  0  0  0  0  0  0  0
   42.6892    7.9655    1.6178 C   0  0  2  0  0  0  0  0  0  0  0  0
   44.0721    8.0030    2.2582 C   0  0  0  0  0  0  0  0  0  0  0  0
   44.5841    9.0691    2.5978 O   0  0  0  0  0  0  0  0  0  0  0  0
   41.6167    8.1850    2.6774 C   0  0  0  0  0  0  0  0  0  0  0  0
   41.6387    9.5714    3.3075 C   0  0  0  0  0  0  0  0  0  0  0  0
   40.3619    9.7784    4.5745 S   0  0  0  0  0  0  0  0  0  0  0  0
   40.6180   11.5705    4.5443 C   0  0  0  0  0  0  0  0  0  0  0  0
   40.2943   12.2337    5.8780 C   0  0  1  0  0  0  0  0  0  0  0  0
   40.6126   13.6123    5.8219 O   0  0  0  0  0  0  0  0  0  0  0  0
   38.8182   12.1113    6.2190 C   0  0  1  0  0  0  0  0  0  0  0  0
   38.6572   11.3486    7.3915 O   0  0  0  0  0  0  0  0  0  0  0  0
   38.3280   13.5259    6.4486 C   0  0  1  0  0  0  0  0  0  0  0  0
   37.7952   13.6487    7.7468 O   0  0  0  0  0  0  0  0  0  0  0  0
   39.5494   14.4163    6.2980 C   0  0  2  0  0  0  0  0  0  0  0  0
   44.7098    6.9673    2.4515 O   0  0  0  0  0  0  0  0  0  0  0  0
   36.6735   18.6872    5.2707 N   0  0  0  0  0  0  0  0  0  0  0  0
   36.6219   17.8746    6.3853 C   0  0  0  0  0  0  0  0  0  0  0  0
   37.4610   16.7828    6.4890 N   0  0  0  0  0  0  0  0  0  0  0  0
   38.3403   16.4994    5.4973 C   0  0  0  0  0  0  0  0  0  0  0  0
   38.4068   17.3044    4.3683 C   0  0  0  0  0  0  0  0  0  0  0  0
   37.5664   18.4056    4.2566 C   0  0  0  0  0  0  0  0  0  0  0  0
   37.6207   19.1832    3.1793 N   0  0  0  0  0  0  0  0  0  0  0  0
   39.3570   16.7988    3.5525 N   0  0  0  0  0  0  0  0  0  0  0  0
   39.8902   15.6998    4.1340 C   0  0  0  0  0  0  0  0  0  0  0  0
   39.2699   15.5016    5.3406 N   0  0  0  0  0  0  0  0  0  0  0  0
  2  1  1  1  0  0  0
  2  3  1  0  0  0  0
  2  5  1  0  0  0  0
  3  4  1  0  0  0  0
  3 16  1  0  0  0  0
  5  6  1  0  0  0  0
  6  7  1  0  0  0  0
  7  8  1  0  0  0  0
  9  8  1  6  0  0  0
  9 10  1  0  0  0  0
  9 11  1  0  0  0  0
 10 15  1  0  0  0  0
 11 12  1  1  0  0  0
 11 13  1  0  0  0  0
 13 14  1  1  0  0  0
 13 15  1  0  0  0  0
 15 26  1  6  0  0  0
 17 18  2  0  0  0  0
 17 22  1  0  0  0  0
 18 19  1  0  0  0  0
 19 20  2  0  0  0  0
 20 21  1  0  0  0  0
 20 26  1  0  0  0  0
 21 22  2  0  0  0  0
 21 24  1  0  0  0  0
 22 23  1  0  0  0  0
 24 25  2  0  0  0  0
 25 26  1  0  0  0  0
M  END
>  <CHROM.1>
161.68759649,-170.99416129,-179.25002906,-165.82876418,-151.55119920,175.46910623
-177.41237266,40.00550216,12.84680593,4.59528474,-0.63455845,0.94209158,-0.54268013

>  <Name>
ligand

>  <RI>
0

>  <Rbt.Current_Directory>
/home/itssahil/PROJECTS/Mol_Feturizer/New_Systems/rnas/3NPQ

>  <Rbt.Executable>
rbdock ($Id: //depot/dev/client3/rdock/2013.1/src/exe/rbdock.cxx#4 $)

>  <Rbt.Library>
libRbt.so (2013.1, Build901 2013/11/27)

>  <Rbt.Parameter_File>
/export/apps/rDock/src/rDock_2013.1_src/data/scripts/dock_solv.prm

>  <Rbt.Receptor>
prm/pocket_docking_5.prm

>  <SCORE>
-20.2653

>  <SCORE.INTER>
-17.9156

>  <SCORE.INTER.CONST>
1

>  <SCORE.INTER.POLAR>
0

>  <SCORE.INTER.ROT>
7

>  <SCORE.INTER.SOLV>
15.0214

>  <SCORE.INTER.VDW>
-25.2175

>  <SCORE.INTER.norm>
-0.689062

>  <SCORE.INTRA>
-2.34965

>  <SCORE.INTRA.DIHEDRAL>
-2.51106

>  <SCORE.INTRA.DIHEDRAL.0>
6.97628

>  <SCORE.INTRA.POLAR>
0

>  <SCORE.INTRA.POLAR.0>
0

>  <SCORE.INTRA.REPUL>
0

>  <SCORE.INTRA.REPUL.0>
0

>  <SCORE.INTRA.SOLV>
-0.766484

>  <SCORE.INTRA.SOLV.lig_0>
-49.8243

>  <SCORE.INTRA.VDW>
-0.710878

>  <SCORE.INTRA.VDW.0>
-1.35881

>  <SCORE.INTRA.norm>
-0.0903711

>  <SCORE.RESTR>
0

>  <SCORE.RESTR.CAVITY>
0

>  <SCORE.RESTR.norm>
0

>  <SCORE.SYSTEM>
0

>  <SCORE.SYSTEM.CONST>
0

>  <SCORE.SYSTEM.DIHEDRAL>
0

>  <SCORE.SYSTEM.SOLV>
0

>  <SCORE.SYSTEM.norm>
0

>  <SCORE.heavy>
26

>  <SCORE.norm>
-0.779434

>  <RMSD>
9.319

$$$$
ligand
 OpenBabel11021811483D
libRbt.so/2013.1/901 2013/11/27
 26 28  0  0  0  0  0  0  0  0999 V2000
   38.0781    7.0780   -1.8947 N   0  0  0  0  0  0  0  0  0  0  0  0
   39.0242    8.1803   -2.0153 C   0  0  2  0  0  0  0  0  0  0  0  0
   40.3311    7.8625   -1.2978 C   0  0  0  0  0  0  0  0  0  0  0  0
   41.3812    7.7276   -1.9246 O   0  0  0  0  0  0  0  0  0  0  0  0
   38.4216    9.4642   -1.4589 C   0  0  0  0  0  0  0  0  0  0  0  0
   38.9924   10.7363   -2.0717 C   0  0  0  0  0  0  0  0  0  0  0  0
   40.8023   10.7724   -2.0362 S   0  0  0  0  0  0  0  0  0  0  0  0
   40.7578   11.5686   -0.4107 C   0  0  0  0  0  0  0  0  0  0  0  0
   42.1225   11.5985    0.2674 C   0  0  1  0  0  0  0  0  0  0  0  0
   42.0827   12.4529    1.3959 O   0  0  0  0  0  0  0  0  0  0  0  0
   42.5393   10.2171    0.7451 C   0  0  1  0  0  0  0  0  0  0  0  0
   43.7000    9.8028    0.0644 O   0  0  0  0  0  0  0  0  0  0  0  0
   42.8289   10.3611    2.2248 C   0  0  1  0  0  0  0  0  0  0  0  0
   44.1564    9.9771    2.4977 O   0  0  0  0  0  0  0  0  0  0  0  0
   42.6345   11.8337    2.5429 C   0  0  2  0  0  0  0  0  0  0  0  0
   40.3674    7.7337   -0.0735 O   0  0  0  0  0  0  0  0  0  0  0  0
   39.0372    9.5206    5.5886 N   0  0  0  0  0  0  0  0  0  0  0  0
   39.7197    8.9801    4.5173 C   0  0  0  0  0  0  0  0  0  0  0  0
   40.6399    9.7411    3.8239 N   0  0  0  0  0  0  0  0  0  0  0  0
   40.8793   11.0245    4.1881 C   0  0  0  0  0  0  0  0  0  0  0  0
   40.2026   11.5861    5.2623 C   0  0  0  0  0  0  0  0  0  0  0  0
   39.2756   10.8266    5.9659 C   0  0  0  0  0  0  0  0  0  0  0  0
   38.6208   11.3544    6.9959 N   0  0  0  0  0  0  0  0  0  0  0  0
   40.6296   12.8596    5.4028 N   0  0  0  0  0  0  0  0  0  0  0  0
   41.5544   13.1164    4.4494 C   0  0  0  0  0  0  0  0  0  0  0  0
   41.7199   11.9878    3.6885 N   0  0  0  0  0  0  0  0  0  0  0  0
  2  1  1  1  0  0  0
  2  3  1  0  0  0  0
  2  5  1  0  0  0  0
  3  4  1  0  0  0  0
  3 16  1  0  0  0  0
  5  6  1  0  0  0  0
  6  7  1  0  0  0  0
  7  8  1  0  0  0  0
  9  8  1  1  0  0  0
  9 10  1  0  0  0  0
  9 11  1  0  0  0  0
 10 15  1  0  0  0  0
 11 12  1  6  0  0  0
 11 13  1  0  0  0  0
 13 14  1  6  0  0  0
 13 15  1  0  0  0  0
 15 26  1  1  0  0  0
 17 18  2  0  0  0  0
 17 22  1  0  0  0  0
 18 19  1  0  0  0  0
 19 20  2  0  0  0  0
 20 21  1  0  0  0  0
 20 26  1  0  0  0  0
 21 22  2  0  0  0  0
 21 24  1  0  0  0  0
 22 23  1  0  0  0  0
 24 25  2  0  0  0  0
 25 26  1  0  0  0  0
M  END
>  <CHROM.1>
114.20605945,-153.50130553,-51.20101013,-89.76492741,168.34124637,168.52886924
102.28438657,40.83101675,10.31330041,1.51253562,1.61840501,-0.55573329,-1.86969168

>  <Name>
ligand

>  <RI>
0

>  <Rbt.Current_Directory>
/home/itssahil/PROJECTS/Mol_Feturizer/New_Systems/rnas/3NPQ

>  <Rbt.Executable>
rbdock ($Id: //depot/dev/client3/rdock/2013.1/src/exe/rbdock.cxx#4 $)

>  <Rbt.Library>
libRbt.so (2013.1, Build901 2013/11/27)

>  <Rbt.Parameter_File>
/export/apps/rDock/src/rDock_2013.1_src/data/scripts/dock_solv.prm

>  <Rbt.Receptor>
prm/pocket_docking_8.prm

>  <SCORE>
-14.3358

>  <SCORE.INTER>
-12.9435

>  <SCORE.INTER.CONST>
1

>  <SCORE.INTER.POLAR>
0

>  <SCORE.INTER.ROT>
7

>  <SCORE.INTER.SOLV>
22.1956

>  <SCORE.INTER.VDW>
-24.2942

>  <SCORE.INTER.norm>
-0.497827

>  <SCORE.INTRA>
-1.39235

>  <SCORE.INTRA.DIHEDRAL>
0.197253

>  <SCORE.INTRA.DIHEDRAL.0>
6.97628

>  <SCORE.INTRA.POLAR>
0

>  <SCORE.INTRA.POLAR.0>
0

>  <SCORE.INTRA.REPUL>
0

>  <SCORE.INTRA.REPUL.0>
0

>  <SCORE.INTRA.SOLV>
-0.522847

>  <SCORE.INTRA.SOLV.lig_0>
-49.8243

>  <SCORE.INTRA.VDW>
-1.22955

>  <SCORE.INTRA.VDW.0>
-1.35881

>  <SCORE.INTRA.norm>
-0.0535518

>  <SCORE.RESTR>
0

>  <SCORE.RESTR.CAVITY>
0

>  <SCORE.RESTR.norm>
0

>  <SCORE.SYSTEM>
0

>  <SCORE.SYSTEM.CONST>
0

>  <SCORE.SYSTEM.DIHEDRAL>
0

>  <SCORE.SYSTEM.SOLV>
0

>  <SCORE.SYSTEM.norm>
0

>  <SCORE.heavy>
26

>  <SCORE.norm>
-0.551379

>  <RMSD>
9.347

$$$$
ligand
 OpenBabel11021811483D
libRbt.so/2013.1/901 2013/11/27
 26 28  0  0  0  0  0  0  0  0999 V2000
   46.6151   14.9331    0.1539 N   0  0  0  0  0  0  0  0  0  0  0  0
   46.4100   14.9338    1.5970 C   0  0  2  0  0  0  0  0  0  0  0  0
   47.4405   15.8125    2.2971 C   0  0  0  0  0  0  0  0  0  0  0  0
   47.1090   16.8625    2.8462 O   0  0  0  0  0  0  0  0  0  0  0  0
   46.4748   13.5141    2.1459 C   0  0  0  0  0  0  0  0  0  0  0  0
   45.3624   12.6019    1.6458 C   0  0  0  0  0  0  0  0  0  0  0  0
   45.5066   10.9150    2.2876 S   0  0  0  0  0  0  0  0  0  0  0  0
   43.9673   10.4611    1.4493 C   0  0  0  0  0  0  0  0  0  0  0  0
   43.5073    9.0479    1.7882 C   0  0  1  0  0  0  0  0  0  0  0  0
   43.0753    8.9904    3.1355 O   0  0  0  0  0  0  0  0  0  0  0  0
   42.3464    8.6125    0.9091 C   0  0  1  0  0  0  0  0  0  0  0  0
   42.7287    7.5128    0.1175 O   0  0  0  0  0  0  0  0  0  0  0  0
   41.2376    8.2083    1.8585 C   0  0  1  0  0  0  0  0  0  0  0  0
   40.8683    6.8685    1.6287 O   0  0  0  0  0  0  0  0  0  0  0  0
   41.8139    8.3597    3.2558 C   0  0  2  0  0  0  0  0  0  0  0  0
   48.6292   15.4922    2.3303 O   0  0  0  0  0  0  0  0  0  0  0  0
   40.9364   13.0910    5.3561 N   0  0  0  0  0  0  0  0  0  0  0  0
   41.9959   12.6944    4.5651 C   0  0  0  0  0  0  0  0  0  0  0  0
   42.0656   11.3977    4.0957 N   0  0  0  0  0  0  0  0  0  0  0  0
   41.0960   10.5039    4.4087 C   0  0  0  0  0  0  0  0  0  0  0  0
   40.0229   10.8835    5.2033 C   0  0  0  0  0  0  0  0  0  0  0  0
   39.9447   12.1869    5.6790 C   0  0  0  0  0  0  0  0  0  0  0  0
   38.9219   12.5615    6.4417 N   0  0  0  0  0  0  0  0  0  0  0  0
   39.2171    9.8102    5.3544 N   0  0  0  0  0  0  0  0  0  0  0  0
   39.7510    8.7666    4.6789 C   0  0  0  0  0  0  0  0  0  0  0  0
   40.9163    9.1815    4.0873 N   0  0  0  0  0  0  0  0  0  0  0  0
  2  1  1  6  0  0  0
  2  3  1  0  0  0  0
  2  5  1  0  0  0  0
  3  4  1  0  0  0  0
  3 16  1  0  0  0  0
  5  6  1  0  0  0  0
  6  7  1  0  0  0  0
  7  8  1  0  0  0  0
  9  8  1  6  0  0  0
  9 10  1  0  0  0  0
  9 11  1  0  0  0  0
 10 15  1  0  0  0  0
 11 12  1  1  0  0  0
 11 13  1  0  0  0  0
 13 14  1  6  0  0  0
 13 15  1  0  0  0  0
 15 26  1  1  0  0  0
 17 18  2  0  0  0  0
 17 22  1  0  0  0  0
 18 19  1  0  0  0  0
 19 20  2  0  0  0  0
 20 21  1  0  0  0  0
 20 26  1  0  0  0  0
 21 22  2  0  0  0  0
 21 24  1  0  0  0  0
 22 23  1  0  0  0  0
 24 25  2  0  0  0  0
 25 26  1  0  0  0  0
M  END
>  <CHROM.1>
111.63378568,-64.66166651,178.40257321,177.19965495,-174.25484599,69.57389948
16.49611792,43.19917032,11.29568177,2.95617845,-0.47803833,-0.59828472,-2.61499855

>  <Name>
ligand

>  <RI>
0

>  <Rbt.Current_Directory>
/home/itssahil/PROJECTS/Mol_Feturizer/New_Systems/rnas/3NPQ

>  <Rbt.Executable>
rbdock ($Id: //depot/dev/client3/rdock/2013.1/src/exe/rbdock.cxx#4 $)

>  <Rbt.Library>
libRbt.so (2013.1, Build901 2013/11/27)

>  <Rbt.Parameter_File>
/export/apps/rDock/src/rDock_2013.1_src/data/scripts/dock_solv.prm

>  <Rbt.Receptor>
prm/pocket_docking_8.prm

>  <SCORE>
-19.5456

>  <SCORE.INTER>
-16.1169

>  <SCORE.INTER.CONST>
1

>  <SCORE.INTER.POLAR>
0

>  <SCORE.INTER.ROT>
7

>  <SCORE.INTER.SOLV>
14.8636

>  <SCORE.INTER.VDW>
-23.9658

>  <SCORE.INTER.norm>
-0.61988

>  <SCORE.INTRA>
-3.42876

>  <SCORE.INTRA.DIHEDRAL>
-3.81437

>  <SCORE.INTRA.DIHEDRAL.0>
6.97628

>  <SCORE.INTRA.POLAR>
0

>  <SCORE.INTRA.POLAR.0>
0

>  <SCORE.INTRA.REPUL>
0

>  <SCORE.INTRA.REPUL.0>
0

>  <SCORE.INTRA.SOLV>
-0.272188

>  <SCORE.INTRA.SOLV.lig_0>
-49.8243

>  <SCORE.INTRA.VDW>
-1.38548

>  <SCORE.INTRA.VDW.0>
-1.35881

>  <SCORE.INTRA.norm>
-0.131875

>  <SCORE.RESTR>
0

>  <SCORE.RESTR.CAVITY>
0

>  <SCORE.RESTR.norm>
0

>  <SCORE.SYSTEM>
0

>  <SCORE.SYSTEM.CONST>
0

>  <SCORE.SYSTEM.DIHEDRAL>
0

>  <SCORE.SYSTEM.SOLV>
0

>  <SCORE.SYSTEM.norm>
0

>  <SCORE.heavy>
26

>  <SCORE.norm>
-0.751755

>  <RMSD>
9.362

$$$$
ligand
 OpenBabel11021811483D
libRbt.so/2013.1/901 2013/11/27
 26 28  0  0  0  0  0  0  0  0999 V2000
   42.5616   13.3769   -1.5615 N   0  0  0  0  0  0  0  0  0  0  0  0
   42.5646   11.9193   -1.5497 C   0  0  2  0  0  0  0  0  0  0  0  0
   42.2166   11.3589   -2.9240 C   0  0  0  0  0  0  0  0  0  0  0  0
   41.3249   11.8623   -3.6061 O   0  0  0  0  0  0  0  0  0  0  0  0
   41.5863   11.3920   -0.5075 C   0  0  0  0  0  0  0  0  0  0  0  0
   41.5867    9.8757   -0.3644 C   0  0  0  0  0  0  0  0  0  0  0  0
   43.1874    9.2305    0.1832 S   0  0  0  0  0  0  0  0  0  0  0  0
   42.8524    9.8163    1.8633 C   0  0  0  0  0  0  0  0  0  0  0  0
   42.2476    8.7367    2.7532 C   0  0  1  0  0  0  0  0  0  0  0  0
   42.0597    9.2397    4.0634 O   0  0  0  0  0  0  0  0  0  0  0  0
   40.8950    8.2775    2.2336 C   0  0  1  0  0  0  0  0  0  0  0  0
   40.9550    6.9180    1.8723 O   0  0  0  0  0  0  0  0  0  0  0  0
   39.9249    8.4674    3.3811 C   0  0  1  0  0  0  0  0  0  0  0  0
   39.3179    7.2395    3.7098 O   0  0  0  0  0  0  0  0  0  0  0  0
   40.7581    8.9680    4.5485 C   0  0  2  0  0  0  0  0  0  0  0  0
   42.8200   10.3891   -3.3848 O   0  0  0  0  0  0  0  0  0  0  0  0
   41.1683   14.1793    5.0395 N   0  0  0  0  0  0  0  0  0  0  0  0
   42.0177   13.3178    4.3747 C   0  0  0  0  0  0  0  0  0  0  0  0
   41.7521   11.9630    4.3479 N   0  0  0  0  0  0  0  0  0  0  0  0
   40.6572   11.4680    4.9748 C   0  0  0  0  0  0  0  0  0  0  0  0
   39.7914   12.3183    5.6491 C   0  0  0  0  0  0  0  0  0  0  0  0
   40.0510   13.6832    5.6801 C   0  0  0  0  0  0  0  0  0  0  0  0
   39.2292   14.5069    6.3237 N   0  0  0  0  0  0  0  0  0  0  0  0
   38.7978   11.5691    6.1741 N   0  0  0  0  0  0  0  0  0  0  0  0
   39.0124   10.2731    5.8506 C   0  0  0  0  0  0  0  0  0  0  0  0
   40.1617   10.1947    5.1070 N   0  0  0  0  0  0  0  0  0  0  0  0
  2  1  1  6  0  0  0
  2  3  1  0  0  0  0
  2  5  1  0  0  0  0
  3  4  1  0  0  0  0
  3 16  1  0  0  0  0
  5  6  1  0  0  0  0
  6  7  1  0  0  0  0
  7  8  1  0  0  0  0
  9  8  1  6  0  0  0
  9 10  1  0  0  0  0
  9 11  1  0  0  0  0
 10 15  1  0  0  0  0
 11 12  1  1  0  0  0
 11 13  1  0  0  0  0
 13 14  1  1  0  0  0
 13 15  1  0  0  0  0
 15 26  1  6  0  0  0
 17 18  2  0  0  0  0
 17 22  1  0  0  0  0
 18 19  1  0  0  0  0
 19 20  2  0  0  0  0
 20 21  1  0  0  0  0
 20 26  1  0  0  0  0
 21 22  2  0  0  0  0
 21 24  1  0  0  0  0
 22 23  1  0  0  0  0
 24 25  2  0  0  0  0
 25 26  1  0  0  0  0
M  END
>  <CHROM.1>
-41.35825536,-176.37798891,62.11880704,75.22107984,94.81817937,177.66107224
11.13343056,41.25206375,10.65001673,2.26450636,-0.15690675,1.26259177,0.04628564

>  <Name>
ligand

>  <RI>
0

>  <Rbt.Current_Directory>
/home/itssahil/PROJECTS/Mol_Feturizer/New_Systems/rnas/3NPQ

>  <Rbt.Executable>
rbdock ($Id: //depot/dev/client3/rdock/2013.1/src/exe/rbdock.cxx#4 $)

>  <Rbt.Library>
libRbt.so (2013.1, Build901 2013/11/27)

>  <Rbt.Parameter_File>
/export/apps/rDock/src/rDock_2013.1_src/data/scripts/dock_solv.prm

>  <Rbt.Receptor>
prm/pocket_docking_8.prm

>  <SCORE>
-16.114

>  <SCORE.INTER>
-13.8819

>  <SCORE.INTER.CONST>
1

>  <SCORE.INTER.POLAR>
0

>  <SCORE.INTER.ROT>
7

>  <SCORE.INTER.SOLV>
11.9633

>  <SCORE.INTER.VDW>
-21.5091

>  <SCORE.INTER.norm>
-0.533921

>  <SCORE.INTRA>
-2.32301

>  <SCORE.INTRA.DIHEDRAL>
-2.36523

>  <SCORE.INTRA.DIHEDRAL.0>
6.97628

>  <SCORE.INTRA.POLAR>
0

>  <SCORE.INTRA.POLAR.0>
0

>  <SCORE.INTRA.REPUL>
0

>  <SCORE.INTRA.REPUL.0>
0

>  <SCORE.INTRA.SOLV>
-0.433315

>  <SCORE.INTRA.SOLV.lig_0>
-49.8243

>  <SCORE.INTRA.VDW>
-0.92374

>  <SCORE.INTRA.VDW.0>
-1.35881

>  <SCORE.INTRA.norm>
-0.0893467

>  <SCORE.RESTR>
0.0910053

>  <SCORE.RESTR.CAVITY>
0.0910053

>  <SCORE.RESTR.norm>
0.00350021

>  <SCORE.SYSTEM>
0

>  <SCORE.SYSTEM.CONST>
0

>  <SCORE.SYSTEM.DIHEDRAL>
0

>  <SCORE.SYSTEM.SOLV>
0

>  <SCORE.SYSTEM.norm>
0

>  <SCORE.heavy>
26

>  <SCORE.norm>
-0.619767

>  <RMSD>
9.385

$$$$
ligand
 OpenBabel11021811483D
libRbt.so/2013.1/901 2013/11/27
 26 28  0  0  0  0  0  0  0  0999 V2000
   42.9188    9.1908    0.7161 N   0  0  0  0  0  0  0  0  0  0  0  0
   43.4705    8.7701    1.9980 C   0  0  2  0  0  0  0  0  0  0  0  0
   44.0050    7.3444    1.9238 C   0  0  0  0  0  0  0  0  0  0  0  0
   45.0004    7.0070    2.5636 O   0  0  0  0  0  0  0  0  0  0  0  0
   42.4169    8.8767    3.0933 C   0  0  0  0  0  0  0  0  0  0  0  0
   41.9495   10.2994    3.3712 C   0  0  0  0  0  0  0  0  0  0  0  0
   40.6478   10.3695    4.6277 S   0  0  0  0  0  0  0  0  0  0  0  0
   40.7799   12.1748    4.6684 C   0  0  0  0  0  0  0  0  0  0  0  0
   40.3289   12.7680    5.9980 C   0  0  1  0  0  0  0  0  0  0  0  0
   40.4761   14.1761    5.9737 O   0  0  0  0  0  0  0  0  0  0  0  0
   38.8678   12.4586    6.2807 C   0  0  1  0  0  0  0  0  0  0  0  0
   38.7601   11.6600    7.4353 O   0  0  0  0  0  0  0  0  0  0  0  0
   38.1986   13.7976    6.5115 C   0  0  1  0  0  0  0  0  0  0  0  0
   37.6082   13.8297    7.7900 O   0  0  0  0  0  0  0  0  0  0  0  0
   39.3053   14.8342    6.4202 C   0  0  2  0  0  0  0  0  0  0  0  0
   43.4531    6.4959    1.2221 O   0  0  0  0  0  0  0  0  0  0  0  0
   36.3621   19.1029    5.5935 N   0  0  0  0  0  0  0  0  0  0  0  0
   36.4291   18.3227    6.7303 C   0  0  0  0  0  0  0  0  0  0  0  0
   37.2671   17.2259    6.7722 N   0  0  0  0  0  0  0  0  0  0  0  0
   38.0289   16.9057    5.6978 C   0  0  0  0  0  0  0  0  0  0  0  0
   37.9750   17.6778    4.5453 C   0  0  0  0  0  0  0  0  0  0  0  0
   37.1349   18.7837    4.4954 C   0  0  0  0  0  0  0  0  0  0  0  0
   37.0744   19.5298    3.3964 N   0  0  0  0  0  0  0  0  0  0  0  0
   38.8252   17.1398    3.6444 N   0  0  0  0  0  0  0  0  0  0  0  0
   39.4123   16.0524    4.1951 C   0  0  0  0  0  0  0  0  0  0  0  0
   38.9285   15.8947    5.4683 N   0  0  0  0  0  0  0  0  0  0  0  0
  2  1  1  6  0  0  0
  2  3  1  0  0  0  0
  2  5  1  0  0  0  0
  3  4  1  0  0  0  0
  3 16  1  0  0  0  0
  5  6  1  0  0  0  0
  6  7  1  0  0  0  0
  7  8  1  0  0  0  0
  9  8  1  6  0  0  0
  9 10  1  0  0  0  0
  9 11  1  0  0  0  0
 10 15  1  0  0  0  0
 11 12  1  1  0  0  0
 11 13  1  0  0  0  0
 13 14  1  1  0  0  0
 13 15  1  0  0  0  0
 15 26  1  6  0  0  0
 17 18  2  0  0  0  0
 17 22  1  0  0  0  0
 18 19  1  0  0  0  0
 19 20  2  0  0  0  0
 20 21  1  0  0  0  0
 20 26  1  0  0  0  0
 21 22  2  0  0  0  0
 21 24  1  0  0  0  0
 22 23  1  0  0  0  0
 24 25  2  0  0  0  0
 25 26  1  0  0  0  0
M  END
>  <CHROM.1>
145.27066278,-64.46344278,177.51535860,171.08415415,-154.49023983,179.06856158
-165.73831309,39.93313790,13.19912888,4.65790050,-0.43610059,0.98644051,-0.74192379

>  <Name>
ligand

>  <RI>
0

>  <Rbt.Current_Directory>
/home/itssahil/PROJECTS/Mol_Feturizer/New_Systems/rnas/3NPQ

>  <Rbt.Executable>
rbdock ($Id: //depot/dev/client3/rdock/2013.1/src/exe/rbdock.cxx#4 $)

>  <Rbt.Library>
libRbt.so (2013.1, Build901 2013/11/27)

>  <Rbt.Parameter_File>
/export/apps/rDock/src/rDock_2013.1_src/data/scripts/dock_solv.prm

>  <Rbt.Receptor>
prm/pocket_docking_5.prm

>  <SCORE>
-19.6389

>  <SCORE.INTER>
-17.1575

>  <SCORE.INTER.CONST>
1

>  <SCORE.INTER.POLAR>
0

>  <SCORE.INTER.ROT>
7

>  <SCORE.INTER.SOLV>
12.3702

>  <SCORE.INTER.VDW>
-23.8284

>  <SCORE.INTER.norm>
-0.659905

>  <SCORE.INTRA>
-2.48138

>  <SCORE.INTRA.DIHEDRAL>
-3.1472

>  <SCORE.INTRA.DIHEDRAL.0>
6.97628

>  <SCORE.INTRA.POLAR>
0

>  <SCORE.INTRA.POLAR.0>
0

>  <SCORE.INTRA.REPUL>
0

>  <SCORE.INTRA.REPUL.0>
0

>  <SCORE.INTRA.SOLV>
-0.152976

>  <SCORE.INTRA.SOLV.lig_0>
-49.8243

>  <SCORE.INTRA.VDW>
-0.831289

>  <SCORE.INTRA.VDW.0>
-1.35881

>  <SCORE.INTRA.norm>
-0.0954376

>  <SCORE.RESTR>
0

>  <SCORE.RESTR.CAVITY>
0

>  <SCORE.RESTR.norm>
0

>  <SCORE.SYSTEM>
0

>  <SCORE.SYSTEM.CONST>
0

>  <SCORE.SYSTEM.DIHEDRAL>
0

>  <SCORE.SYSTEM.SOLV>
0

>  <SCORE.SYSTEM.norm>
0

>  <SCORE.heavy>
26

>  <SCORE.norm>
-0.755343

>  <RMSD>
9.472

$$$$
ligand
 OpenBabel11021811483D
libRbt.so/2013.1/901 2013/11/27
 26 28  0  0  0  0  0  0  0  0999 V2000
   45.2154   11.5515   -0.7988 N   0  0  0  0  0  0  0  0  0  0  0  0
   44.6566   12.2460    0.3545 C   0  0  2  0  0  0  0  0  0  0  0  0
   44.4835   13.7333    0.0684 C   0  0  0  0  0  0  0  0  0  0  0  0
   43.3637   14.2363   -0.0138 O   0  0  0  0  0  0  0  0  0  0  0  0
   45.5436   12.0490    1.5774 C   0  0  0  0  0  0  0  0  0  0  0  0
   45.2437   10.7811    2.3663 C   0  0  0  0  0  0  0  0  0  0  0  0
   45.7270    9.2797    1.4772 S   0  0  0  0  0  0  0  0  0  0  0  0
   44.0062    9.0164    0.9798 C   0  0  0  0  0  0  0  0  0  0  0  0
   43.2114    8.2208    2.0088 C   0  0  1  0  0  0  0  0  0  0  0  0
   43.1895    8.9137    3.2435 O   0  0  0  0  0  0  0  0  0  0  0  0
   41.7720    8.0157    1.5657 C   0  0  1  0  0  0  0  0  0  0  0  0
   41.5154    6.6431    1.3851 O   0  0  0  0  0  0  0  0  0  0  0  0
   40.9123    8.5612    2.6871 C   0  0  1  0  0  0  0  0  0  0  0  0
   40.0612    7.5524    3.1791 O   0  0  0  0  0  0  0  0  0  0  0  0
   41.8794    9.0044    3.7714 C   0  0  2  0  0  0  0  0  0  0  0  0
   45.4604   14.4672   -0.0868 O   0  0  0  0  0  0  0  0  0  0  0  0
   38.6955   12.1940    6.4652 N   0  0  0  0  0  0  0  0  0  0  0  0
   38.6106   10.8228    6.3299 C   0  0  0  0  0  0  0  0  0  0  0  0
   39.5444   10.1397    5.5761 N   0  0  0  0  0  0  0  0  0  0  0  0
   40.5501   10.8093    4.9620 C   0  0  0  0  0  0  0  0  0  0  0  0
   40.6520   12.1882    5.0858 C   0  0  0  0  0  0  0  0  0  0  0  0
   39.7169   12.8831    5.8433 C   0  0  0  0  0  0  0  0  0  0  0  0
   39.8041   14.2041    5.9681 N   0  0  0  0  0  0  0  0  0  0  0  0
   41.7324   12.5901    4.3820 N   0  0  0  0  0  0  0  0  0  0  0  0
   42.3132   11.5056    3.8190 C   0  0  0  0  0  0  0  0  0  0  0  0
   41.5913   10.3940    4.1698 N   0  0  0  0  0  0  0  0  0  0  0  0
  2  1  1  6  0  0  0
  2  3  1  0  0  0  0
  2  5  1  0  0  0  0
  3  4  1  0  0  0  0
  3 16  1  0  0  0  0
  5  6  1  0  0  0  0
  6  7  1  0  0  0  0
  7  8  1  0  0  0  0
  9  8  1  6  0  0  0
  9 10  1  0  0  0  0
  9 11  1  0  0  0  0
 10 15  1  0  0  0  0
 11 12  1  1  0  0  0
 11 13  1  0  0  0  0
 13 14  1  1  0  0  0
 13 15  1  0  0  0  0
 15 26  1  6  0  0  0
 17 18  2  0  0  0  0
 17 22  1  0  0  0  0
 18 19  1  0  0  0  0
 19 20  2  0  0  0  0
 20 21  1  0  0  0  0
 20 26  1  0  0  0  0
 21 22  2  0  0  0  0
 21 24  1  0  0  0  0
 22 23  1  0  0  0  0
 24 25  2  0  0  0  0
 25 26  1  0  0  0  0
M  END
>  <CHROM.1>
112.46157100,-86.34755532,70.00739087,-100.30835584,-87.60811622,60.43955547
-165.56569247,42.50064505,10.74306523,2.79585291,-0.03434344,0.74432168,0.13053060

>  <Name>
ligand

>  <RI>
0

>  <Rbt.Current_Directory>
/home/itssahil/PROJECTS/Mol_Feturizer/New_Systems/rnas/3NPQ

>  <Rbt.Executable>
rbdock ($Id: //depot/dev/client3/rdock/2013.1/src/exe/rbdock.cxx#4 $)

>  <Rbt.Library>
libRbt.so (2013.1, Build901 2013/11/27)

>  <Rbt.Parameter_File>
/export/apps/rDock/src/rDock_2013.1_src/data/scripts/dock_solv.prm

>  <Rbt.Receptor>
prm/pocket_docking_6.prm

>  <SCORE>
-18.3107

>  <SCORE.INTER>
-18.1349

>  <SCORE.INTER.CONST>
1

>  <SCORE.INTER.POLAR>
0

>  <SCORE.INTER.ROT>
7

>  <SCORE.INTER.SOLV>
10.6607

>  <SCORE.INTER.VDW>
-23.9102

>  <SCORE.INTER.norm>
-0.697498

>  <SCORE.INTRA>
-0.175783

>  <SCORE.INTRA.DIHEDRAL>
1.31867

>  <SCORE.INTRA.DIHEDRAL.0>
6.97628

>  <SCORE.INTRA.POLAR>
0

>  <SCORE.INTRA.POLAR.0>
0

>  <SCORE.INTRA.REPUL>
0

>  <SCORE.INTRA.REPUL.0>
0

>  <SCORE.INTRA.SOLV>
1.77273

>  <SCORE.INTRA.SOLV.lig_0>
-49.8243

>  <SCORE.INTRA.VDW>
-1.72148

>  <SCORE.INTRA.VDW.0>
-1.35881

>  <SCORE.INTRA.norm>
-0.00676087

>  <SCORE.RESTR>
0

>  <SCORE.RESTR.CAVITY>
0

>  <SCORE.RESTR.norm>
0

>  <SCORE.SYSTEM>
0

>  <SCORE.SYSTEM.CONST>
0

>  <SCORE.SYSTEM.DIHEDRAL>
0

>  <SCORE.SYSTEM.SOLV>
0

>  <SCORE.SYSTEM.norm>
0

>  <SCORE.heavy>
26

>  <SCORE.norm>
-0.704259

>  <RMSD>
9.477

$$$$
ligand
 OpenBabel11021811483D
libRbt.so/2013.1/901 2013/11/27
 26 28  0  0  0  0  0  0  0  0999 V2000
   43.1059   10.9725   -2.4814 N   0  0  0  0  0  0  0  0  0  0  0  0
   42.6046   10.4127   -1.2325 C   0  0  2  0  0  0  0  0  0  0  0  0
   41.1181   10.0899   -1.3336 C   0  0  0  0  0  0  0  0  0  0  0  0
   40.6821    8.9956   -0.9783 O   0  0  0  0  0  0  0  0  0  0  0  0
   42.8527   11.3757   -0.0783 C   0  0  0  0  0  0  0  0  0  0  0  0
   44.3256   11.6223    0.2210 C   0  0  0  0  0  0  0  0  0  0  0  0
   45.2398   10.0881    0.5188 S   0  0  0  0  0  0  0  0  0  0  0  0
   44.4946    9.9597    2.1639 C   0  0  0  0  0  0  0  0  0  0  0  0
   43.7071    8.6686    2.3541 C   0  0  1  0  0  0  0  0  0  0  0  0
   43.0720    8.6718    3.6196 O   0  0  0  0  0  0  0  0  0  0  0  0
   42.6295    8.5103    1.2939 C   0  0  1  0  0  0  0  0  0  0  0  0
   42.8934    7.3737    0.5060 O   0  0  0  0  0  0  0  0  0  0  0  0
   41.3296    8.3278    2.0495 C   0  0  1  0  0  0  0  0  0  0  0  0
   40.7317    7.1026    1.6949 O   0  0  0  0  0  0  0  0  0  0  0  0
   41.7045    8.3202    3.5215 C   0  0  2  0  0  0  0  0  0  0  0  0
   40.3181   10.9168   -1.7729 O   0  0  0  0  0  0  0  0  0  0  0  0
   41.2368   13.2911    5.1459 N   0  0  0  0  0  0  0  0  0  0  0  0
   42.2605   12.7292    4.4097 C   0  0  0  0  0  0  0  0  0  0  0  0
   42.2181   11.3919    4.0682 N   0  0  0  0  0  0  0  0  0  0  0  0
   41.1728   10.6202    4.4539 C   0  0  0  0  0  0  0  0  0  0  0  0
   40.1341   11.1668    5.1952 C   0  0  0  0  0  0  0  0  0  0  0  0
   40.1687   12.5120    5.5423 C   0  0  0  0  0  0  0  0  0  0  0  0
   39.1798   13.0461    6.2529 N   0  0  0  0  0  0  0  0  0  0  0  0
   39.2369   10.1872    5.4391 N   0  0  0  0  0  0  0  0  0  0  0  0
   39.6799    9.0407    4.8738 C   0  0  0  0  0  0  0  0  0  0  0  0
   40.8792    9.2935    4.2592 N   0  0  0  0  0  0  0  0  0  0  0  0
  2  1  1  6  0  0  0
  2  3  1  0  0  0  0
  2  5  1  0  0  0  0
  3  4  1  0  0  0  0
  3 16  1  0  0  0  0
  5  6  1  0  0  0  0
  6  7  1  0  0  0  0
  7  8  1  0  0  0  0
  9  8  1  6  0  0  0
  9 10  1  0  0  0  0
  9 11  1  0  0  0  0
 10 15  1  0  0  0  0
 11 12  1  1  0  0  0
 11 13  1  0  0  0  0
 13 14  1  6  0  0  0
 13 15  1  0  0  0  0
 15 26  1  1  0  0  0
 17 18  2  0  0  0  0
 17 22  1  0  0  0  0
 18 19  1  0  0  0  0
 19 20  2  0  0  0  0
 20 21  1  0  0  0  0
 20 26  1  0  0  0  0
 21 22  2  0  0  0  0
 21 24  1  0  0  0  0
 22 23  1  0  0  0  0
 24 25  2  0  0  0  0
 25 26  1  0  0  0  0
M  END
>  <CHROM.1>
131.08842474,-64.38109844,-54.83559518,-75.47631777,121.11905451,-175.80793771
29.84689388,41.99092383,10.12487280,2.12539707,-0.76159059,0.99353165,0.60115879

>  <Name>
ligand

>  <RI>
0

>  <Rbt.Current_Directory>
/home/itssahil/PROJECTS/Mol_Feturizer/New_Systems/rnas/3NPQ

>  <Rbt.Executable>
rbdock ($Id: //depot/dev/client3/rdock/2013.1/src/exe/rbdock.cxx#4 $)

>  <Rbt.Library>
libRbt.so (2013.1, Build901 2013/11/27)

>  <Rbt.Parameter_File>
/export/apps/rDock/src/rDock_2013.1_src/data/scripts/dock_solv.prm

>  <Rbt.Receptor>
prm/pocket_docking_7.prm

>  <SCORE>
-19.4636

>  <SCORE.INTER>
-16.8498

>  <SCORE.INTER.CONST>
1

>  <SCORE.INTER.POLAR>
0

>  <SCORE.INTER.ROT>
7

>  <SCORE.INTER.SOLV>
13.3672

>  <SCORE.INTER.VDW>
-23.9556

>  <SCORE.INTER.norm>
-0.648068

>  <SCORE.INTRA>
-2.61383

>  <SCORE.INTRA.DIHEDRAL>
-1.29388

>  <SCORE.INTRA.DIHEDRAL.0>
6.97628

>  <SCORE.INTRA.POLAR>
0

>  <SCORE.INTRA.POLAR.0>
0

>  <SCORE.INTRA.REPUL>
0

>  <SCORE.INTRA.REPUL.0>
0

>  <SCORE.INTRA.SOLV>
1.25909

>  <SCORE.INTRA.SOLV.lig_0>
-49.8243

>  <SCORE.INTRA.VDW>
-2.59644

>  <SCORE.INTRA.VDW.0>
-1.35881

>  <SCORE.INTRA.norm>
-0.100532

>  <SCORE.RESTR>
0

>  <SCORE.RESTR.CAVITY>
0

>  <SCORE.RESTR.norm>
0

>  <SCORE.SYSTEM>
0

>  <SCORE.SYSTEM.CONST>
0

>  <SCORE.SYSTEM.DIHEDRAL>
0

>  <SCORE.SYSTEM.SOLV>
0

>  <SCORE.SYSTEM.norm>
0

>  <SCORE.heavy>
26

>  <SCORE.norm>
-0.7486

>  <RMSD>
9.527

$$$$
ligand
 OpenBabel11021811483D
libRbt.so/2013.1/901 2013/11/27
 26 28  0  0  0  0  0  0  0  0999 V2000
   39.9928    9.4578   -2.7611 N   0  0  0  0  0  0  0  0  0  0  0  0
   40.2190    8.2879   -1.9215 C   0  0  2  0  0  0  0  0  0  0  0  0
   38.9233    7.8251   -1.2650 C   0  0  0  0  0  0  0  0  0  0  0  0
   38.6381    6.6300   -1.1996 O   0  0  0  0  0  0  0  0  0  0  0  0
   41.2656    8.5897   -0.8563 C   0  0  0  0  0  0  0  0  0  0  0  0
   41.6927    7.3757   -0.0418 C   0  0  0  0  0  0  0  0  0  0  0  0
   41.0045    7.3863    1.6330 S   0  0  0  0  0  0  0  0  0  0  0  0
   42.0817    8.7744    2.0701 C   0  0  0  0  0  0  0  0  0  0  0  0
   41.9267    9.2042    3.5243 C   0  0  1  0  0  0  0  0  0  0  0  0
   42.6629   10.3909    3.7586 O   0  0  0  0  0  0  0  0  0  0  0  0
   40.4736    9.4826    3.8727 C   0  0  1  0  0  0  0  0  0  0  0  0
   40.0330    8.5770    4.8566 O   0  0  0  0  0  0  0  0  0  0  0  0
   40.4421   10.8959    4.4164 C   0  0  1  0  0  0  0  0  0  0  0  0
   39.9209   10.8994    5.7251 O   0  0  0  0  0  0  0  0  0  0  0  0
   41.8862   11.3671    4.4272 C   0  0  2  0  0  0  0  0  0  0  0  0
   38.1312    8.6362   -0.7839 O   0  0  0  0  0  0  0  0  0  0  0  0
   43.5851   16.3265    4.7193 N   0  0  0  0  0  0  0  0  0  0  0  0
   43.6794   15.3369    5.6771 C   0  0  0  0  0  0  0  0  0  0  0  0
   43.1730   14.0769    5.4269 N   0  0  0  0  0  0  0  0  0  0  0  0
   42.5783   13.8019    4.2405 C   0  0  0  0  0  0  0  0  0  0  0  0
   42.4734   14.7839    3.2648 C   0  0  0  0  0  0  0  0  0  0  0  0
   42.9813   16.0543    3.5084 C   0  0  0  0  0  0  0  0  0  0  0  0
   42.8856   17.0030    2.5816 N   0  0  0  0  0  0  0  0  0  0  0  0
   41.8462   14.2442    2.1974 N   0  0  0  0  0  0  0  0  0  0  0  0
   41.5530   12.9523    2.4721 C   0  0  0  0  0  0  0  0  0  0  0  0
   42.0009   12.6635    3.7354 N   0  0  0  0  0  0  0  0  0  0  0  0
  2  1  1  1  0  0  0
  2  3  1  0  0  0  0
  2  5  1  0  0  0  0
  3  4  1  0  0  0  0
  3 16  1  0  0  0  0
  5  6  1  0  0  0  0
  6  7  1  0  0  0  0
  7  8  1  0  0  0  0
  9  8  1  6  0  0  0
  9 10  1  0  0  0  0
  9 11  1  0  0  0  0
 10 15  1  0  0  0  0
 11 12  1  1  0  0  0
 11 13  1  0  0  0  0
 13 14  1  1  0  0  0
 13 15  1  0  0  0  0
 15 26  1  6  0  0  0
 17 18  2  0  0  0  0
 17 22  1  0  0  0  0
 18 19  1  0  0  0  0
 19 20  2  0  0  0  0
 20 21  1  0  0  0  0
 20 26  1  0  0  0  0
 21 22  2  0  0  0  0
 21 24  1  0  0  0  0
 22 23  1  0  0  0  0
 24 25  2  0  0  0  0
 25 26  1  0  0  0  0
M  END
>  <CHROM.1>
137.42224705,-172.81085347,-105.83870736,-70.00695901,-178.23883447,-172.66348331
-114.37893550,41.31280919,10.89753867,2.37275404,-3.01349383,1.24401037,2.02001894

>  <Name>
ligand

>  <RI>
0

>  <Rbt.Current_Directory>
/home/itssahil/PROJECTS/Mol_Feturizer/New_Systems/rnas/3NPQ

>  <Rbt.Executable>
rbdock ($Id: //depot/dev/client3/rdock/2013.1/src/exe/rbdock.cxx#4 $)

>  <Rbt.Library>
libRbt.so (2013.1, Build901 2013/11/27)

>  <Rbt.Parameter_File>
/export/apps/rDock/src/rDock_2013.1_src/data/scripts/dock_solv.prm

>  <Rbt.Receptor>
prm/pocket_docking_7.prm

>  <SCORE>
-11.7972

>  <SCORE.INTER>
-11.569

>  <SCORE.INTER.CONST>
1

>  <SCORE.INTER.POLAR>
0

>  <SCORE.INTER.ROT>
7

>  <SCORE.INTER.SOLV>
9.94834

>  <SCORE.INTER.VDW>
-19.2954

>  <SCORE.INTER.norm>
-0.44496

>  <SCORE.INTRA>
-0.228199

>  <SCORE.INTRA.DIHEDRAL>
1.03799

>  <SCORE.INTRA.DIHEDRAL.0>
6.97628

>  <SCORE.INTRA.POLAR>
0

>  <SCORE.INTRA.POLAR.0>
0

>  <SCORE.INTRA.REPUL>
0

>  <SCORE.INTRA.REPUL.0>
0

>  <SCORE.INTRA.SOLV>
-0.728877

>  <SCORE.INTRA.SOLV.lig_0>
-49.8243

>  <SCORE.INTRA.VDW>
-0.382753

>  <SCORE.INTRA.VDW.0>
-1.35881

>  <SCORE.INTRA.norm>
-0.00877689

>  <SCORE.RESTR>
0

>  <SCORE.RESTR.CAVITY>
0

>  <SCORE.RESTR.norm>
0

>  <SCORE.SYSTEM>
0

>  <SCORE.SYSTEM.CONST>
0

>  <SCORE.SYSTEM.DIHEDRAL>
0

>  <SCORE.SYSTEM.SOLV>
0

>  <SCORE.SYSTEM.norm>
0

>  <SCORE.heavy>
26

>  <SCORE.norm>
-0.453737

>  <RMSD>
9.559

$$$$
ligand
 OpenBabel11021811483D
libRbt.so/2013.1/901 2013/11/27
 26 28  0  0  0  0  0  0  0  0999 V2000
   46.7136   12.5908    0.3429 N   0  0  0  0  0  0  0  0  0  0  0  0
   45.5358   12.9227   -0.4491 C   0  0  2  0  0  0  0  0  0  0  0  0
   45.2790   14.4253   -0.4472 C   0  0  0  0  0  0  0  0  0  0  0  0
   44.8065   14.9884   -1.4339 O   0  0  0  0  0  0  0  0  0  0  0  0
   44.3126   12.1829    0.0778 C   0  0  0  0  0  0  0  0  0  0  0  0
   44.3042   10.6922   -0.2345 C   0  0  0  0  0  0  0  0  0  0  0  0
   45.6005    9.7902    0.6513 S   0  0  0  0  0  0  0  0  0  0  0  0
   44.5958    9.8191    2.1573 C   0  0  0  0  0  0  0  0  0  0  0  0
   43.7711    8.5501    2.3389 C   0  0  1  0  0  0  0  0  0  0  0  0
   43.1118    8.5774    3.5917 O   0  0  0  0  0  0  0  0  0  0  0  0
   42.7104    8.4140    1.2587 C   0  0  1  0  0  0  0  0  0  0  0  0
   42.9594    7.2663    0.4821 O   0  0  0  0  0  0  0  0  0  0  0  0
   41.3917    8.2701    1.9898 C   0  0  1  0  0  0  0  0  0  0  0  0
   40.7687    7.0590    1.6301 O   0  0  0  0  0  0  0  0  0  0  0  0
   41.7377    8.2612    3.4689 C   0  0  2  0  0  0  0  0  0  0  0  0
   45.5377   15.1117    0.5422 O   0  0  0  0  0  0  0  0  0  0  0  0
   41.3099   13.2802    4.9501 N   0  0  0  0  0  0  0  0  0  0  0  0
   42.3238   12.6915    4.2214 C   0  0  0  0  0  0  0  0  0  0  0  0
   42.2716   11.3450    3.9198 N   0  0  0  0  0  0  0  0  0  0  0  0
   41.2262   10.5905    4.3379 C   0  0  0  0  0  0  0  0  0  0  0  0
   40.1973   11.1641    5.0724 C   0  0  0  0  0  0  0  0  0  0  0  0
   40.2417   12.5187    5.3793 C   0  0  0  0  0  0  0  0  0  0  0  0
   39.2622   13.0787    6.0830 N   0  0  0  0  0  0  0  0  0  0  0  0
   39.2976   10.1967    5.3533 N   0  0  0  0  0  0  0  0  0  0  0  0
   39.7296    9.0318    4.8180 C   0  0  0  0  0  0  0  0  0  0  0  0
   40.9242    9.2602    4.1851 N   0  0  0  0  0  0  0  0  0  0  0  0
  2  1  1  1  0  0  0
  2  3  1  0  0  0  0
  2  5  1  0  0  0  0
  3  4  1  0  0  0  0
  3 16  1  0  0  0  0
  5  6  1  0  0  0  0
  6  7  1  0  0  0  0
  7  8  1  0  0  0  0
  9  8  1  6  0  0  0
  9 10  1  0  0  0  0
  9 11  1  0  0  0  0
 10 15  1  0  0  0  0
 11 12  1  1  0  0  0
 11 13  1  0  0  0  0
 13 14  1  6  0  0  0
 13 15  1  0  0  0  0
 15 26  1  1  0  0  0
 17 18  2  0  0  0  0
 17 22  1  0  0  0  0
 18 19  1  0  0  0  0
 19 20  2  0  0  0  0
 20 21  1  0  0  0  0
 20 26  1  0  0  0  0
 21 22  2  0  0  0  0
 21 24  1  0  0  0  0
 22 23  1  0  0  0  0
 24 25  2  0  0  0  0
 25 26  1  0  0  0  0
M  END
>  <CHROM.1>
146.23387908,-72.98025491,67.65661052,78.52450874,95.28559742,174.33053890
32.31374490,42.88287642,10.78393689,2.30904431,0.26543713,0.80009425,0.17471455

>  <Name>
ligand

>  <RI>
0

>  <Rbt.Current_Directory>
/home/itssahil/PROJECTS/Mol_Feturizer/New_Systems/rnas/3NPQ

>  <Rbt.Executable>
rbdock ($Id: //depot/dev/client3/rdock/2013.1/src/exe/rbdock.cxx#4 $)

>  <Rbt.Library>
libRbt.so (2013.1, Build901 2013/11/27)

>  <Rbt.Parameter_File>
/export/apps/rDock/src/rDock_2013.1_src/data/scripts/dock_solv.prm

>  <Rbt.Receptor>
prm/pocket_docking_8.prm

>  <SCORE>
-17.1731

>  <SCORE.INTER>
-15.9299

>  <SCORE.INTER.CONST>
1

>  <SCORE.INTER.POLAR>
0

>  <SCORE.INTER.ROT>
7

>  <SCORE.INTER.SOLV>
12.8816

>  <SCORE.INTER.VDW>
-23.1804

>  <SCORE.INTER.norm>
-0.612687

>  <SCORE.INTRA>
-1.25038

>  <SCORE.INTRA.DIHEDRAL>
-1.264

>  <SCORE.INTRA.DIHEDRAL.0>
6.97628

>  <SCORE.INTRA.POLAR>
0

>  <SCORE.INTRA.POLAR.0>
0

>  <SCORE.INTRA.REPUL>
0

>  <SCORE.INTRA.REPUL.0>
0

>  <SCORE.INTRA.SOLV>
1.72389

>  <SCORE.INTRA.SOLV.lig_0>
-49.8243

>  <SCORE.INTRA.VDW>
-1.48032

>  <SCORE.INTRA.VDW.0>
-1.35881

>  <SCORE.INTRA.norm>
-0.0480916

>  <SCORE.RESTR>
0.00716927

>  <SCORE.RESTR.CAVITY>
0.00716927

>  <SCORE.RESTR.norm>
0.000275741

>  <SCORE.SYSTEM>
0

>  <SCORE.SYSTEM.CONST>
0

>  <SCORE.SYSTEM.DIHEDRAL>
0

>  <SCORE.SYSTEM.SOLV>
0

>  <SCORE.SYSTEM.norm>
0

>  <SCORE.heavy>
26

>  <SCORE.norm>
-0.660503

>  <RMSD>
9.577

$$$$
ligand
 OpenBabel11021811483D
libRbt.so/2013.1/901 2013/11/27
 26 28  0  0  0  0  0  0  0  0999 V2000
   44.2003   10.8467   -2.5816 N   0  0  0  0  0  0  0  0  0  0  0  0
   43.9768    9.5361   -1.9841 C   0  0  2  0  0  0  0  0  0  0  0  0
   42.6105    9.4655   -1.3117 C   0  0  0  0  0  0  0  0  0  0  0  0
   42.2780   10.2934   -0.4644 O   0  0  0  0  0  0  0  0  0  0  0  0
   45.0726    9.2155   -0.9753 C   0  0  0  0  0  0  0  0  0  0  0  0
   44.9681    7.8246   -0.3637 C   0  0  0  0  0  0  0  0  0  0  0  0
   46.0999    7.5924    1.0304 S   0  0  0  0  0  0  0  0  0  0  0  0
   45.0484    8.6440    2.0632 C   0  0  0  0  0  0  0  0  0  0  0  0
   43.8244    7.9089    2.5970 C   0  0  1  0  0  0  0  0  0  0  0  0
   43.3438    8.5535    3.7625 O   0  0  0  0  0  0  0  0  0  0  0  0
   42.6965    7.8893    1.5783 C   0  0  1  0  0  0  0  0  0  0  0  0
   42.4183    6.5636    1.1944 O   0  0  0  0  0  0  0  0  0  0  0  0
   41.4955    8.4895    2.2795 C   0  0  1  0  0  0  0  0  0  0  0  0
   40.4291    7.5691    2.2861 O   0  0  0  0  0  0  0  0  0  0  0  0
   41.9474    8.7767    3.7010 C   0  0  2  0  0  0  0  0  0  0  0  0
   41.8064    8.5785   -1.6009 O   0  0  0  0  0  0  0  0  0  0  0  0
   38.7225   12.0139    6.2871 N   0  0  0  0  0  0  0  0  0  0  0  0
   38.6520   10.6385    6.1932 C   0  0  0  0  0  0  0  0  0  0  0  0
   39.5951    9.9423    5.4633 N   0  0  0  0  0  0  0  0  0  0  0  0
   40.5960   10.6032    4.8322 C   0  0  0  0  0  0  0  0  0  0  0  0
   40.6835   11.9863    4.9143 C   0  0  0  0  0  0  0  0  0  0  0  0
   39.7390   12.6943    5.6476 C   0  0  0  0  0  0  0  0  0  0  0  0
   39.8124   14.0193    5.7323 N   0  0  0  0  0  0  0  0  0  0  0  0
   41.7621   12.3776    4.2018 N   0  0  0  0  0  0  0  0  0  0  0  0
   42.3557   11.2825    3.6738 C   0  0  0  0  0  0  0  0  0  0  0  0
   41.6439   10.1747    4.0561 N   0  0  0  0  0  0  0  0  0  0  0  0
  2  1  1  1  0  0  0
  2  3  1  0  0  0  0
  2  5  1  0  0  0  0
  3  4  1  0  0  0  0
  3 16  1  0  0  0  0
  5  6  1  0  0  0  0
  6  7  1  0  0  0  0
  7  8  1  0  0  0  0
  9  8  1  6  0  0  0
  9 10  1  0  0  0  0
  9 11  1  0  0  0  0
 10 15  1  0  0  0  0
 11 12  1  1  0  0  0
 11 13  1  0  0  0  0
 13 14  1  1  0  0  0
 13 15  1  0  0  0  0
 15 26  1  6  0  0  0
 17 18  2  0  0  0  0
 17 22  1  0  0  0  0
 18 19  1  0  0  0  0
 19 20  2  0  0  0  0
 20 21  1  0  0  0  0
 20 26  1  0  0  0  0
 21 22  2  0  0  0  0
 21 24  1  0  0  0  0
 22 23  1  0  0  0  0
 24 25  2  0  0  0  0
 25 26  1  0  0  0  0
M  END
>  <CHROM.1>
-54.32403449,-176.35210996,-169.82868585,73.51141871,79.30546923,157.19882188
-139.37626777,42.36892814,9.57983947,2.24985239,0.41323408,0.92394458,-0.99197831

>  <Name>
ligand

>  <RI>
0

>  <Rbt.Current_Directory>
/home/itssahil/PROJECTS/Mol_Feturizer/New_Systems/rnas/3NPQ

>  <Rbt.Executable>
rbdock ($Id: //depot/dev/client3/rdock/2013.1/src/exe/rbdock.cxx#4 $)

>  <Rbt.Library>
libRbt.so (2013.1, Build901 2013/11/27)

>  <Rbt.Parameter_File>
/export/apps/rDock/src/rDock_2013.1_src/data/scripts/dock_solv.prm

>  <Rbt.Receptor>
prm/pocket_docking_7.prm

>  <SCORE>
-21.6649

>  <SCORE.INTER>
-19.4393

>  <SCORE.INTER.CONST>
1

>  <SCORE.INTER.POLAR>
0

>  <SCORE.INTER.ROT>
7

>  <SCORE.INTER.SOLV>
11.1403

>  <SCORE.INTER.VDW>
-24.9396

>  <SCORE.INTER.norm>
-0.747667

>  <SCORE.INTRA>
-2.22558

>  <SCORE.INTRA.DIHEDRAL>
-1.36088

>  <SCORE.INTRA.DIHEDRAL.0>
6.97628

>  <SCORE.INTRA.POLAR>
0

>  <SCORE.INTRA.POLAR.0>
0

>  <SCORE.INTRA.REPUL>
0

>  <SCORE.INTRA.REPUL.0>
0

>  <SCORE.INTRA.SOLV>
-0.507574

>  <SCORE.INTRA.SOLV.lig_0>
-49.8243

>  <SCORE.INTRA.VDW>
-1.29135

>  <SCORE.INTRA.VDW.0>
-1.35881

>  <SCORE.INTRA.norm>
-0.0855992

>  <SCORE.RESTR>
0

>  <SCORE.RESTR.CAVITY>
0

>  <SCORE.RESTR.norm>
0

>  <SCORE.SYSTEM>
0

>  <SCORE.SYSTEM.CONST>
0

>  <SCORE.SYSTEM.DIHEDRAL>
0

>  <SCORE.SYSTEM.SOLV>
0

>  <SCORE.SYSTEM.norm>
0

>  <SCORE.heavy>
26

>  <SCORE.norm>
-0.833266

>  <RMSD>
10.385

$$$$
ligand
 OpenBabel11021811483D
libRbt.so/2013.1/901 2013/11/27
 26 28  0  0  0  0  0  0  0  0999 V2000
   23.6447   14.9188    8.3013 N   0  0  0  0  0  0  0  0  0  0  0  0
   24.7118   15.7335    8.8689 C   0  0  2  0  0  0  0  0  0  0  0  0
   24.9585   16.9794    8.0257 C   0  0  0  0  0  0  0  0  0  0  0  0
   24.8319   16.9513    6.8021 O   0  0  0  0  0  0  0  0  0  0  0  0
   25.9956   14.9222    8.9904 C   0  0  0  0  0  0  0  0  0  0  0  0
   26.4665   14.3023    7.6813 C   0  0  0  0  0  0  0  0  0  0  0  0
   27.9618   13.3020    7.8852 S   0  0  0  0  0  0  0  0  0  0  0  0
   28.0588   13.0757    6.0914 C   0  0  0  0  0  0  0  0  0  0  0  0
   29.4594   12.7018    5.6204 C   0  0  1  0  0  0  0  0  0  0  0  0
   29.8619   11.4839    6.2201 O   0  0  0  0  0  0  0  0  0  0  0  0
   29.5108   12.5164    4.1126 C   0  0  1  0  0  0  0  0  0  0  0  0
   30.3665   13.4760    3.5390 O   0  0  0  0  0  0  0  0  0  0  0  0
   30.0647   11.1251    3.8856 C   0  0  1  0  0  0  0  0  0  0  0  0
   31.2400   11.1925    3.1121 O   0  0  0  0  0  0  0  0  0  0  0  0
   30.3781   10.5745    5.2663 C   0  0  2  0  0  0  0  0  0  0  0  0
   25.2900   18.0439    8.5489 O   0  0  0  0  0  0  0  0  0  0  0  0
   31.0892    5.5593    6.6481 N   0  0  0  0  0  0  0  0  0  0  0  0
   32.0238    6.5748    6.6199 C   0  0  0  0  0  0  0  0  0  0  0  0
   31.6567    7.8465    6.2262 N   0  0  0  0  0  0  0  0  0  0  0  0
   30.3773    8.1074    5.8630 C   0  0  0  0  0  0  0  0  0  0  0  0
   29.4232    7.0993    5.8842 C   0  0  0  0  0  0  0  0  0  0  0  0
   29.7842    5.8170    6.2800 C   0  0  0  0  0  0  0  0  0  0  0  0
   28.8790    4.8433    6.3033 N   0  0  0  0  0  0  0  0  0  0  0  0
   28.2485    7.6299    5.4808 N   0  0  0  0  0  0  0  0  0  0  0  0
   28.4349    8.9414    5.2062 C   0  0  0  0  0  0  0  0  0  0  0  0
   29.7499    9.2522    5.4385 N   0  0  0  0  0  0  0  0  0  0  0  0
  2  1  1  6  0  0  0
  2  3  1  0  0  0  0
  2  5  1  0  0  0  0
  3  4  1  0  0  0  0
  3 16  1  0  0  0  0
  5  6  1  0  0  0  0
  6  7  1  0  0  0  0
  7  8  1  0  0  0  0
  9  8  1  1  0  0  0
  9 10  1  0  0  0  0
  9 11  1  0  0  0  0
 10 15  1  0  0  0  0
 11 12  1  6  0  0  0
 11 13  1  0  0  0  0
 13 14  1  6  0  0  0
 13 15  1  0  0  0  0
 15 26  1  1  0  0  0
 17 18  2  0  0  0  0
 17 22  1  0  0  0  0
 18 19  1  0  0  0  0
 19 20  2  0  0  0  0
 20 21  1  0  0  0  0
 20 26  1  0  0  0  0
 21 22  2  0  0  0  0
 21 24  1  0  0  0  0
 22 23  1  0  0  0  0
 24 25  2  0  0  0  0
 25 26  1  0  0  0  0
M  END
>  <CHROM.1>
-34.32750805,55.91482428,-178.02349209,-173.86870108,158.60844447,60.37556059
-112.66073273,28.49823401,11.50330768,6.33494759,2.27530151,0.74588347,-0.27457096

>  <Name>
ligand

>  <RI>
0

>  <Rbt.Current_Directory>
/home/itssahil/PROJECTS/Mol_Feturizer/New_Systems/rnas/3NPQ

>  <Rbt.Executable>
rbdock ($Id: //depot/dev/client3/rdock/2013.1/src/exe/rbdock.cxx#4 $)

>  <Rbt.Library>
libRbt.so (2013.1, Build901 2013/11/27)

>  <Rbt.Parameter_File>
/export/apps/rDock/src/rDock_2013.1_src/data/scripts/dock_solv.prm

>  <Rbt.Receptor>
prm/blind_docking_40.prm

>  <SCORE>
-7.73777

>  <SCORE.INTER>
-5.16328

>  <SCORE.INTER.CONST>
1

>  <SCORE.INTER.POLAR>
0

>  <SCORE.INTER.ROT>
7

>  <SCORE.INTER.SOLV>
13.5189

>  <SCORE.INTER.VDW>
-16.2152

>  <SCORE.INTER.norm>
-0.198588

>  <SCORE.INTRA>
-2.59169

>  <SCORE.INTRA.DIHEDRAL>
-3.48236

>  <SCORE.INTRA.DIHEDRAL.0>
6.97628

>  <SCORE.INTRA.POLAR>
0

>  <SCORE.INTRA.POLAR.0>
0

>  <SCORE.INTRA.REPUL>
0

>  <SCORE.INTRA.REPUL.0>
0

>  <SCORE.INTRA.SOLV>
-0.277166

>  <SCORE.INTRA.SOLV.lig_0>
-49.8243

>  <SCORE.INTRA.VDW>
-0.711927

>  <SCORE.INTRA.VDW.0>
-1.35881

>  <SCORE.INTRA.norm>
-0.0996804

>  <SCORE.RESTR>
0.0172034

>  <SCORE.RESTR.CAVITY>
0.0172034

>  <SCORE.RESTR.norm>
0.00066167

>  <SCORE.SYSTEM>
0

>  <SCORE.SYSTEM.CONST>
0

>  <SCORE.SYSTEM.DIHEDRAL>
0

>  <SCORE.SYSTEM.SOLV>
0

>  <SCORE.SYSTEM.norm>
0

>  <SCORE.heavy>
26

>  <SCORE.norm>
-0.297607

>  <RMSD>
10.819

$$$$
ligand
 OpenBabel11021811483D
libRbt.so/2013.1/901 2013/11/27
 26 28  0  0  0  0  0  0  0  0999 V2000
   23.0738   12.0630    7.5709 N   0  0  0  0  0  0  0  0  0  0  0  0
   23.6850   12.5255    8.8107 C   0  0  2  0  0  0  0  0  0  0  0  0
   22.8028   13.5560    9.5062 C   0  0  0  0  0  0  0  0  0  0  0  0
   22.5041   13.4357   10.6937 O   0  0  0  0  0  0  0  0  0  0  0  0
   25.0629   13.1159    8.5386 C   0  0  0  0  0  0  0  0  0  0  0  0
   26.0815   12.1077    8.0232 C   0  0  0  0  0  0  0  0  0  0  0  0
   27.6637   12.8766    7.5947 S   0  0  0  0  0  0  0  0  0  0  0  0
   28.4469   11.2450    7.5456 C   0  0  0  0  0  0  0  0  0  0  0  0
   29.5996   11.1752    6.5506 C   0  0  1  0  0  0  0  0  0  0  0  0
   30.2816    9.9419    6.6869 O   0  0  0  0  0  0  0  0  0  0  0  0
   29.1064   11.2774    5.1165 C   0  0  1  0  0  0  0  0  0  0  0  0
   29.6193   12.4417    4.5134 O   0  0  0  0  0  0  0  0  0  0  0  0
   29.6377   10.0486    4.4080 C   0  0  1  0  0  0  0  0  0  0  0  0
   30.4382   10.4295    3.3132 O   0  0  0  0  0  0  0  0  0  0  0  0
   30.4757    9.3083    5.4362 C   0  0  2  0  0  0  0  0  0  0  0  0
   22.3683   14.5338    8.8963 O   0  0  0  0  0  0  0  0  0  0  0  0
   31.6310    4.5039    7.2111 N   0  0  0  0  0  0  0  0  0  0  0  0
   32.3597    5.6661    7.3655 C   0  0  0  0  0  0  0  0  0  0  0  0
   31.9000    6.8515    6.8267 N   0  0  0  0  0  0  0  0  0  0  0  0
   30.7313    6.8834    6.1411 C   0  0  0  0  0  0  0  0  0  0  0  0
   29.9845    5.7251    5.9747 C   0  0  0  0  0  0  0  0  0  0  0  0
   30.4396    4.5282    6.5146 C   0  0  0  0  0  0  0  0  0  0  0  0
   29.7331    3.4123    6.3607 N   0  0  0  0  0  0  0  0  0  0  0  0
   28.8811    6.0405    5.2625 N   0  0  0  0  0  0  0  0  0  0  0  0
   28.9114    7.3622    4.9756 C   0  0  0  0  0  0  0  0  0  0  0  0
   30.0527    7.8985    5.5139 N   0  0  0  0  0  0  0  0  0  0  0  0
  2  1  1  6  0  0  0
  2  3  1  0  0  0  0
  2  5  1  0  0  0  0
  3  4  1  0  0  0  0
  3 16  1  0  0  0  0
  5  6  1  0  0  0  0
  6  7  1  0  0  0  0
  7  8  1  0  0  0  0
  9  8  1  1  0  0  0
  9 10  1  0  0  0  0
  9 11  1  0  0  0  0
 10 15  1  0  0  0  0
 11 12  1  6  0  0  0
 11 13  1  0  0  0  0
 13 14  1  6  0  0  0
 13 15  1  0  0  0  0
 15 26  1  1  0  0  0
 17 18  2  0  0  0  0
 17 22  1  0  0  0  0
 18 19  1  0  0  0  0
 19 20  2  0  0  0  0
 20 21  1  0  0  0  0
 20 26  1  0  0  0  0
 21 22  2  0  0  0  0
 21 24  1  0  0  0  0
 22 23  1  0  0  0  0
 24 25  2  0  0  0  0
 25 26  1  0  0  0  0
M  END
>  <CHROM.1>
128.95018531,-65.04559113,175.62414133,165.55248819,149.54298180,172.15370532
-74.19850905,28.19196412,9.85888316,6.79631518,2.49707078,0.59126180,-0.26887147

>  <Name>
ligand

>  <RI>
0

>  <Rbt.Current_Directory>
/home/itssahil/PROJECTS/Mol_Feturizer/New_Systems/rnas/3NPQ

>  <Rbt.Executable>
rbdock ($Id: //depot/dev/client3/rdock/2013.1/src/exe/rbdock.cxx#4 $)

>  <Rbt.Library>
libRbt.so (2013.1, Build901 2013/11/27)

>  <Rbt.Parameter_File>
/export/apps/rDock/src/rDock_2013.1_src/data/scripts/dock_solv.prm

>  <Rbt.Receptor>
prm/blind_docking_40.prm

>  <SCORE>
-7.78942

>  <SCORE.INTER>
-6.04196

>  <SCORE.INTER.CONST>
1

>  <SCORE.INTER.POLAR>
0

>  <SCORE.INTER.ROT>
7

>  <SCORE.INTER.SOLV>
14.9157

>  <SCORE.INTER.VDW>
-17.2666

>  <SCORE.INTER.norm>
-0.232383

>  <SCORE.INTRA>
-1.74746

>  <SCORE.INTRA.DIHEDRAL>
-2.35576

>  <SCORE.INTRA.DIHEDRAL.0>
6.97628

>  <SCORE.INTRA.POLAR>
0

>  <SCORE.INTRA.POLAR.0>
0

>  <SCORE.INTRA.REPUL>
0

>  <SCORE.INTRA.REPUL.0>
0

>  <SCORE.INTRA.SOLV>
-0.214467

>  <SCORE.INTRA.SOLV.lig_0>
-49.8243

>  <SCORE.INTRA.VDW>
-0.462349

>  <SCORE.INTRA.VDW.0>
-1.35881

>  <SCORE.INTRA.norm>
-0.06721

>  <SCORE.RESTR>
0

>  <SCORE.RESTR.CAVITY>
0

>  <SCORE.RESTR.norm>
0

>  <SCORE.SYSTEM>
0

>  <SCORE.SYSTEM.CONST>
0

>  <SCORE.SYSTEM.DIHEDRAL>
0

>  <SCORE.SYSTEM.SOLV>
0

>  <SCORE.SYSTEM.norm>
0

>  <SCORE.heavy>
26

>  <SCORE.norm>
-0.299593

>  <RMSD>
11.692

$$$$
ligand
 OpenBabel11021811483D
libRbt.so/2013.1/901 2013/11/27
 26 28  0  0  0  0  0  0  0  0999 V2000
   26.2225   12.2918    7.5465 N   0  0  0  0  0  0  0  0  0  0  0  0
   25.1456   11.5611    6.8900 C   0  0  2  0  0  0  0  0  0  0  0  0
   23.7837   12.0053    7.4113 C   0  0  0  0  0  0  0  0  0  0  0  0
   23.5384   12.0116    8.6170 O   0  0  0  0  0  0  0  0  0  0  0  0
   25.3183   10.0609    7.0918 C   0  0  0  0  0  0  0  0  0  0  0  0
   26.6731    9.5249    6.6481 C   0  0  0  0  0  0  0  0  0  0  0  0
   26.8542    7.7508    6.9613 S   0  0  0  0  0  0  0  0  0  0  0  0
   28.3593    7.7236    5.9552 C   0  0  0  0  0  0  0  0  0  0  0  0
   29.5981    8.1430    6.7380 C   0  0  1  0  0  0  0  0  0  0  0  0
   30.0788    7.0524    7.5025 O   0  0  0  0  0  0  0  0  0  0  0  0
   30.7179    8.5916    5.8133 C   0  0  1  0  0  0  0  0  0  0  0  0
   31.0120    9.9500    6.0380 O   0  0  0  0  0  0  0  0  0  0  0  0
   31.9157    7.7354    6.1687 C   0  0  1  0  0  0  0  0  0  0  0  0
   32.9953    8.5518    6.5591 O   0  0  0  0  0  0  0  0  0  0  0  0
   31.4712    6.8647    7.3314 C   0  0  2  0  0  0  0  0  0  0  0  0
   22.8966   12.3690    6.6383 O   0  0  0  0  0  0  0  0  0  0  0  0
   34.2222    2.6068    8.6985 N   0  0  0  0  0  0  0  0  0  0  0  0
   34.2469    3.8586    9.2798 C   0  0  0  0  0  0  0  0  0  0  0  0
   33.4485    4.8707    8.7848 N   0  0  0  0  0  0  0  0  0  0  0  0
   32.6359    4.6440    7.7240 C   0  0  0  0  0  0  0  0  0  0  0  0
   32.5975    3.3920    7.1255 C   0  0  0  0  0  0  0  0  0  0  0  0
   33.3972    2.3678    7.6181 C   0  0  0  0  0  0  0  0  0  0  0  0
   33.3693    1.1649    7.0522 N   0  0  0  0  0  0  0  0  0  0  0  0
   31.7138    3.4457    6.1056 N   0  0  0  0  0  0  0  0  0  0  0  0
   31.1952    4.6937    6.0442 C   0  0  0  0  0  0  0  0  0  0  0  0
   31.7574    5.4482    7.0415 N   0  0  0  0  0  0  0  0  0  0  0  0
  2  1  1  1  0  0  0
  2  3  1  0  0  0  0
  2  5  1  0  0  0  0
  3  4  1  0  0  0  0
  3 16  1  0  0  0  0
  5  6  1  0  0  0  0
  6  7  1  0  0  0  0
  7  8  1  0  0  0  0
  9  8  1  6  0  0  0
  9 10  1  0  0  0  0
  9 11  1  0  0  0  0
 10 15  1  0  0  0  0
 11 12  1  1  0  0  0
 11 13  1  0  0  0  0
 13 14  1  1  0  0  0
 13 15  1  0  0  0  0
 15 26  1  6  0  0  0
 17 18  2  0  0  0  0
 17 22  1  0  0  0  0
 18 19  1  0  0  0  0
 19 20  2  0  0  0  0
 20 21  1  0  0  0  0
 20 26  1  0  0  0  0
 21 22  2  0  0  0  0
 21 24  1  0  0  0  0
 22 23  1  0  0  0  0
 24 25  2  0  0  0  0
 25 26  1  0  0  0  0
M  END
>  <CHROM.1>
-52.95841885,-54.80442575,177.94617388,168.78609255,83.76869800,80.84542872
-125.93953489,29.57866085,7.40295488,7.11464853,-2.40795164,-0.08206563,3.00282503

>  <Name>
ligand

>  <RI>
0

>  <Rbt.Current_Directory>
/home/itssahil/PROJECTS/Mol_Feturizer/New_Systems/rnas/3NPQ

>  <Rbt.Executable>
rbdock ($Id: //depot/dev/client3/rdock/2013.1/src/exe/rbdock.cxx#4 $)

>  <Rbt.Library>
libRbt.so (2013.1, Build901 2013/11/27)

>  <Rbt.Parameter_File>
/export/apps/rDock/src/rDock_2013.1_src/data/scripts/dock_solv.prm

>  <Rbt.Receptor>
prm/blind_docking_40.prm

>  <SCORE>
-11.2564

>  <SCORE.INTER>
-9.48719

>  <SCORE.INTER.CONST>
1

>  <SCORE.INTER.POLAR>
0

>  <SCORE.INTER.ROT>
7

>  <SCORE.INTER.SOLV>
8.07492

>  <SCORE.INTER.VDW>
-17.2831

>  <SCORE.INTER.norm>
-0.364892

>  <SCORE.INTRA>
-1.76918

>  <SCORE.INTRA.DIHEDRAL>
-1.75129

>  <SCORE.INTRA.DIHEDRAL.0>
6.97628

>  <SCORE.INTRA.POLAR>
0

>  <SCORE.INTRA.POLAR.0>
0

>  <SCORE.INTRA.REPUL>
0

>  <SCORE.INTRA.REPUL.0>
0

>  <SCORE.INTRA.SOLV>
-0.244453

>  <SCORE.INTRA.SOLV.lig_0>
-49.8243

>  <SCORE.INTRA.VDW>
-0.771312

>  <SCORE.INTRA.VDW.0>
-1.35881

>  <SCORE.INTRA.norm>
-0.0680455

>  <SCORE.RESTR>
0

>  <SCORE.RESTR.CAVITY>
0

>  <SCORE.RESTR.norm>
0

>  <SCORE.SYSTEM>
0

>  <SCORE.SYSTEM.CONST>
0

>  <SCORE.SYSTEM.DIHEDRAL>
0

>  <SCORE.SYSTEM.SOLV>
0

>  <SCORE.SYSTEM.norm>
0

>  <SCORE.heavy>
26

>  <SCORE.norm>
-0.432938

>  <RMSD>
11.834

$$$$
ligand
 OpenBabel11021811483D
libRbt.so/2013.1/901 2013/11/27
 26 28  0  0  0  0  0  0  0  0999 V2000
   29.2426    9.3828    4.9740 N   0  0  0  0  0  0  0  0  0  0  0  0
   29.5602    9.7643    6.3445 C   0  0  2  0  0  0  0  0  0  0  0  0
   29.0093   11.1479    6.6705 C   0  0  0  0  0  0  0  0  0  0  0  0
   29.3061   12.1254    5.9848 O   0  0  0  0  0  0  0  0  0  0  0  0
   31.0664    9.7350    6.5713 C   0  0  0  0  0  0  0  0  0  0  0  0
   31.6880    8.3502    6.4460 C   0  0  0  0  0  0  0  0  0  0  0  0
   31.1529    7.2274    7.7618 S   0  0  0  0  0  0  0  0  0  0  0  0
   31.8666    5.8277    6.8620 C   0  0  0  0  0  0  0  0  0  0  0  0
   31.4508    4.4811    7.4428 C   0  0  1  0  0  0  0  0  0  0  0  0
   31.9095    3.4328    6.6088 O   0  0  0  0  0  0  0  0  0  0  0  0
   32.0390    4.2645    8.8275 C   0  0  1  0  0  0  0  0  0  0  0  0
   31.0059    4.1697    9.7793 O   0  0  0  0  0  0  0  0  0  0  0  0
   32.7987    2.9562    8.7540 C   0  0  1  0  0  0  0  0  0  0  0  0
   32.2917    2.0482    9.7041 O   0  0  0  0  0  0  0  0  0  0  0  0
   32.5718    2.4245    7.3493 C   0  0  2  0  0  0  0  0  0  0  0  0
   28.2537   11.3203    7.6277 O   0  0  0  0  0  0  0  0  0  0  0  0
   37.3861    0.4453    8.0368 N   0  0  0  0  0  0  0  0  0  0  0  0
   36.3830    0.5883    8.9743 C   0  0  0  0  0  0  0  0  0  0  0  0
   35.1671    1.1345    8.6135 N   0  0  0  0  0  0  0  0  0  0  0  0
   34.9493    1.5360    7.3374 C   0  0  0  0  0  0  0  0  0  0  0  0
   35.9458    1.4009    6.3805 C   0  0  0  0  0  0  0  0  0  0  0  0
   37.1720    0.8514    6.7351 C   0  0  0  0  0  0  0  0  0  0  0  0
   38.1342    0.7181    5.8271 N   0  0  0  0  0  0  0  0  0  0  0  0
   35.4653    1.8739    5.2102 N   0  0  0  0  0  0  0  0  0  0  0  0
   34.1966    2.3026    5.4021 C   0  0  0  0  0  0  0  0  0  0  0  0
   33.8626    2.0994    6.7163 N   0  0  0  0  0  0  0  0  0  0  0  0
  2  1  1  6  0  0  0
  2  3  1  0  0  0  0
  2  5  1  0  0  0  0
  3  4  1  0  0  0  0
  3 16  1  0  0  0  0
  5  6  1  0  0  0  0
  6  7  1  0  0  0  0
  7  8  1  0  0  0  0
  9  8  1  6  0  0  0
  9 10  1  0  0  0  0
  9 11  1  0  0  0  0
 10 15  1  0  0  0  0
 11 12  1  1  0  0  0
 11 13  1  0  0  0  0
 13 14  1  1  0  0  0
 13 15  1  0  0  0  0
 15 26  1  6  0  0  0
 17 18  2  0  0  0  0
 17 22  1  0  0  0  0
 18 19  1  0  0  0  0
 19 20  2  0  0  0  0
 20 21  1  0  0  0  0
 20 26  1  0  0  0  0
 21 22  2  0  0  0  0
 21 24  1  0  0  0  0
 22 23  1  0  0  0  0
 24 25  2  0  0  0  0
 25 26  1  0  0  0  0
M  END
>  <CHROM.1>
-55.87275265,-64.38250176,-67.04272358,168.17997886,-168.71788601,173.21499504
156.83522084,32.65801092,4.90508619,7.23885215,-2.40305703,-0.70273624,2.45289228

>  <Name>
ligand

>  <RI>
0

>  <Rbt.Current_Directory>
/home/itssahil/PROJECTS/Mol_Feturizer/New_Systems/rnas/3NPQ

>  <Rbt.Executable>
rbdock ($Id: //depot/dev/client3/rdock/2013.1/src/exe/rbdock.cxx#4 $)

>  <Rbt.Library>
libRbt.so (2013.1, Build901 2013/11/27)

>  <Rbt.Parameter_File>
/export/apps/rDock/src/rDock_2013.1_src/data/scripts/dock_solv.prm

>  <Rbt.Receptor>
prm/blind_docking_40.prm

>  <SCORE>
-11.0414

>  <SCORE.INTER>
-8.77185

>  <SCORE.INTER.CONST>
1

>  <SCORE.INTER.POLAR>
0

>  <SCORE.INTER.ROT>
7

>  <SCORE.INTER.SOLV>
13.3903

>  <SCORE.INTER.VDW>
-18.578

>  <SCORE.INTER.norm>
-0.337379

>  <SCORE.INTRA>
-2.26955

>  <SCORE.INTRA.DIHEDRAL>
-3.45272

>  <SCORE.INTRA.DIHEDRAL.0>
6.97628

>  <SCORE.INTRA.POLAR>
0

>  <SCORE.INTRA.POLAR.0>
0

>  <SCORE.INTRA.REPUL>
0

>  <SCORE.INTRA.REPUL.0>
0

>  <SCORE.INTRA.SOLV>
0.405773

>  <SCORE.INTRA.SOLV.lig_0>
-49.8243

>  <SCORE.INTRA.VDW>
-0.746075

>  <SCORE.INTRA.VDW.0>
-1.35881

>  <SCORE.INTRA.norm>
-0.0872903

>  <SCORE.RESTR>
0

>  <SCORE.RESTR.CAVITY>
0

>  <SCORE.RESTR.norm>
0

>  <SCORE.SYSTEM>
0

>  <SCORE.SYSTEM.CONST>
0

>  <SCORE.SYSTEM.DIHEDRAL>
0

>  <SCORE.SYSTEM.SOLV>
0

>  <SCORE.SYSTEM.norm>
0

>  <SCORE.heavy>
26

>  <SCORE.norm>
-0.424669

>  <RMSD>
12.082

$$$$
ligand
 OpenBabel11021811483D
libRbt.so/2013.1/901 2013/11/27
 26 28  0  0  0  0  0  0  0  0999 V2000
   24.7660   16.4191    5.3289 N   0  0  0  0  0  0  0  0  0  0  0  0
   23.6109   15.8055    5.9720 C   0  0  2  0  0  0  0  0  0  0  0  0
   23.0273   16.7219    7.0415 C   0  0  0  0  0  0  0  0  0  0  0  0
   21.8104   16.8271    7.1901 O   0  0  0  0  0  0  0  0  0  0  0  0
   23.9915   14.4636    6.5849 C   0  0  0  0  0  0  0  0  0  0  0  0
   24.5893   13.4737    5.5937 C   0  0  0  0  0  0  0  0  0  0  0  0
   24.9965   11.8845    6.3598 S   0  0  0  0  0  0  0  0  0  0  0  0
   25.9712   11.4287    4.9036 C   0  0  0  0  0  0  0  0  0  0  0  0
   27.4716   11.5712    5.1317 C   0  0  1  0  0  0  0  0  0  0  0  0
   27.9101   10.6118    6.0762 O   0  0  0  0  0  0  0  0  0  0  0  0
   28.2551   11.3511    3.8480 C   0  0  1  0  0  0  0  0  0  0  0  0
   28.9369   12.5306    3.4925 O   0  0  0  0  0  0  0  0  0  0  0  0
   29.2484   10.2493    4.1535 C   0  0  1  0  0  0  0  0  0  0  0  0
   30.5620   10.7067    3.9310 O   0  0  0  0  0  0  0  0  0  0  0  0
   29.0535    9.9123    5.6218 C   0  0  2  0  0  0  0  0  0  0  0  0
   23.7597   17.3784    7.7826 O   0  0  0  0  0  0  0  0  0  0  0  0
   31.3194    5.2991    6.6949 N   0  0  0  0  0  0  0  0  0  0  0  0
   31.9123    6.5441    6.6321 C   0  0  0  0  0  0  0  0  0  0  0  0
   31.1557    7.6600    6.3335 N   0  0  0  0  0  0  0  0  0  0  0  0
   29.8261    7.5420    6.0983 C   0  0  0  0  0  0  0  0  0  0  0  0
   29.2118    6.2984    6.1563 C   0  0  0  0  0  0  0  0  0  0  0  0
   29.9660    5.1706    6.4570 C   0  0  0  0  0  0  0  0  0  0  0  0
   29.3884    3.9742    6.5144 N   0  0  0  0  0  0  0  0  0  0  0  0
   27.9000    6.4696    5.8845 N   0  0  0  0  0  0  0  0  0  0  0  0
   27.6704    7.7834    5.6571 C   0  0  0  0  0  0  0  0  0  0  0  0
   28.8554    8.4609    5.7862 N   0  0  0  0  0  0  0  0  0  0  0  0
  2  1  1  1  0  0  0
  2  3  1  0  0  0  0
  2  5  1  0  0  0  0
  3  4  1  0  0  0  0
  3 16  1  0  0  0  0
  5  6  1  0  0  0  0
  6  7  1  0  0  0  0
  7  8  1  0  0  0  0
  9  8  1  6  0  0  0
  9 10  1  0  0  0  0
  9 11  1  0  0  0  0
 10 15  1  0  0  0  0
 11 12  1  1  0  0  0
 11 13  1  0  0  0  0
 13 14  1  1  0  0  0
 13 15  1  0  0  0  0
 15 26  1  6  0  0  0
 17 18  2  0  0  0  0
 17 22  1  0  0  0  0
 18 19  1  0  0  0  0
 19 20  2  0  0  0  0
 20 21  1  0  0  0  0
 20 26  1  0  0  0  0
 21 22  2  0  0  0  0
 21 24  1  0  0  0  0
 22 23  1  0  0  0  0
 24 25  2  0  0  0  0
 25 26  1  0  0  0  0
M  END
>  <CHROM.1>
140.34511672,-56.82294657,-178.91196300,-166.38604079,102.64450210,67.56424763
-145.75871898,27.32580514,10.83361447,5.83400631,-2.28367247,-0.51422375
2.78914558

>  <Name>
ligand

>  <RI>
0

>  <Rbt.Current_Directory>
/home/itssahil/PROJECTS/Mol_Feturizer/New_Systems/rnas/3NPQ

>  <Rbt.Executable>
rbdock ($Id: //depot/dev/client3/rdock/2013.1/src/exe/rbdock.cxx#4 $)

>  <Rbt.Library>
libRbt.so (2013.1, Build901 2013/11/27)

>  <Rbt.Parameter_File>
/export/apps/rDock/src/rDock_2013.1_src/data/scripts/dock_solv.prm

>  <Rbt.Receptor>
prm/blind_docking_40.prm

>  <SCORE>
-7.59368

>  <SCORE.INTER>
-5.55504

>  <SCORE.INTER.CONST>
1

>  <SCORE.INTER.POLAR>
0

>  <SCORE.INTER.ROT>
7

>  <SCORE.INTER.SOLV>
9.13874

>  <SCORE.INTER.VDW>
-15.0163

>  <SCORE.INTER.norm>
-0.213655

>  <SCORE.INTRA>
-2.03865

>  <SCORE.INTRA.DIHEDRAL>
-1.83216

>  <SCORE.INTRA.DIHEDRAL.0>
6.97628

>  <SCORE.INTRA.POLAR>
0

>  <SCORE.INTRA.POLAR.0>
0

>  <SCORE.INTRA.REPUL>
0

>  <SCORE.INTRA.REPUL.0>
0

>  <SCORE.INTRA.SOLV>
-0.263306

>  <SCORE.INTRA.SOLV.lig_0>
-49.8243

>  <SCORE.INTRA.VDW>
-0.990917

>  <SCORE.INTRA.VDW.0>
-1.35881

>  <SCORE.INTRA.norm>
-0.0784095

>  <SCORE.RESTR>
0

>  <SCORE.RESTR.CAVITY>
0

>  <SCORE.RESTR.norm>
0

>  <SCORE.SYSTEM>
0

>  <SCORE.SYSTEM.CONST>
0

>  <SCORE.SYSTEM.DIHEDRAL>
0

>  <SCORE.SYSTEM.SOLV>
0

>  <SCORE.SYSTEM.norm>
0

>  <SCORE.heavy>
26

>  <SCORE.norm>
-0.292065

>  <RMSD>
12.099

$$$$
ligand
 OpenBabel11021811483D
libRbt.so/2013.1/901 2013/11/27
 26 28  0  0  0  0  0  0  0  0999 V2000
   23.2878   13.6645    7.0185 N   0  0  0  0  0  0  0  0  0  0  0  0
   23.6200   12.6556    8.0166 C   0  0  2  0  0  0  0  0  0  0  0  0
   23.0224   13.0089    9.3738 C   0  0  0  0  0  0  0  0  0  0  0  0
   23.2862   12.3436   10.3746 O   0  0  0  0  0  0  0  0  0  0  0  0
   25.1309   12.4999    8.1357 C   0  0  0  0  0  0  0  0  0  0  0  0
   25.8335   12.2159    6.8146 C   0  0  0  0  0  0  0  0  0  0  0  0
   25.4171   10.5867    6.1431 S   0  0  0  0  0  0  0  0  0  0  0  0
   26.9414    9.9051    6.8432 C   0  0  0  0  0  0  0  0  0  0  0  0
   28.1950   10.5512    6.2648 C   0  0  1  0  0  0  0  0  0  0  0  0
   29.3480    9.9995    6.8740 O   0  0  0  0  0  0  0  0  0  0  0  0
   28.3038   10.3169    4.7670 C   0  0  1  0  0  0  0  0  0  0  0  0
   28.2401   11.5454    4.0822 O   0  0  0  0  0  0  0  0  0  0  0  0
   29.6551    9.6693    4.5468 C   0  0  1  0  0  0  0  0  0  0  0  0
   30.4303   10.4532    3.6698 O   0  0  0  0  0  0  0  0  0  0  0  0
   30.3128    9.6094    5.9147 C   0  0  2  0  0  0  0  0  0  0  0  0
   22.2615   13.9690    9.5012 O   0  0  0  0  0  0  0  0  0  0  0  0
   29.0464    4.5147    6.0014 N   0  0  0  0  0  0  0  0  0  0  0  0
   28.2485    5.5839    5.6468 C   0  0  0  0  0  0  0  0  0  0  0  0
   28.7522    6.8691    5.6830 N   0  0  0  0  0  0  0  0  0  0  0  0
   30.0326    7.0914    6.0681 C   0  0  0  0  0  0  0  0  0  0  0  0
   30.8503    6.0293    6.4289 C   0  0  0  0  0  0  0  0  0  0  0  0
   30.3514    4.7327    6.3944 C   0  0  0  0  0  0  0  0  0  0  0  0
   31.1253    3.7077    6.7388 N   0  0  0  0  0  0  0  0  0  0  0  0
   32.0590    6.5302    6.7640 N   0  0  0  0  0  0  0  0  0  0  0  0
   32.0262    7.8756    6.6251 C   0  0  0  0  0  0  0  0  0  0  0  0
   30.7762    8.2383    6.1941 N   0  0  0  0  0  0  0  0  0  0  0  0
  2  1  1  6  0  0  0
  2  3  1  0  0  0  0
  2  5  1  0  0  0  0
  3  4  1  0  0  0  0
  3 16  1  0  0  0  0
  5  6  1  0  0  0  0
  6  7  1  0  0  0  0
  7  8  1  0  0  0  0
  9  8  1  1  0  0  0
  9 10  1  0  0  0  0
  9 11  1  0  0  0  0
 10 15  1  0  0  0  0
 11 12  1  6  0  0  0
 11 13  1  0  0  0  0
 13 14  1  6  0  0  0
 13 15  1  0  0  0  0
 15 26  1  1  0  0  0
 17 18  2  0  0  0  0
 17 22  1  0  0  0  0
 18 19  1  0  0  0  0
 19 20  2  0  0  0  0
 20 21  1  0  0  0  0
 20 26  1  0  0  0  0
 21 22  2  0  0  0  0
 21 24  1  0  0  0  0
 22 23  1  0  0  0  0
 24 25  2  0  0  0  0
 25 26  1  0  0  0  0
M  END
>  <CHROM.1>
-173.60602324,-53.95840129,-67.55821843,-97.62189505,-62.18555664,178.59807602
68.47573339,27.75236922,9.55773563,6.56364418,-2.61880762,-0.61508281,2.69544214

>  <Name>
ligand

>  <RI>
0

>  <Rbt.Current_Directory>
/home/itssahil/PROJECTS/Mol_Feturizer/New_Systems/rnas/3NPQ

>  <Rbt.Executable>
rbdock ($Id: //depot/dev/client3/rdock/2013.1/src/exe/rbdock.cxx#4 $)

>  <Rbt.Library>
libRbt.so (2013.1, Build901 2013/11/27)

>  <Rbt.Parameter_File>
/export/apps/rDock/src/rDock_2013.1_src/data/scripts/dock_solv.prm

>  <Rbt.Receptor>
prm/blind_docking_40.prm

>  <SCORE>
-9.63448

>  <SCORE.INTER>
-8.5499

>  <SCORE.INTER.CONST>
1

>  <SCORE.INTER.POLAR>
0

>  <SCORE.INTER.ROT>
7

>  <SCORE.INTER.SOLV>
10.2039

>  <SCORE.INTER.VDW>
-17.3679

>  <SCORE.INTER.norm>
-0.328842

>  <SCORE.INTRA>
-1.08458

>  <SCORE.INTRA.DIHEDRAL>
-2.27754

>  <SCORE.INTRA.DIHEDRAL.0>
6.97628

>  <SCORE.INTRA.POLAR>
0

>  <SCORE.INTRA.POLAR.0>
0

>  <SCORE.INTRA.REPUL>
0

>  <SCORE.INTRA.REPUL.0>
0

>  <SCORE.INTRA.SOLV>
0.751648

>  <SCORE.INTRA.SOLV.lig_0>
-49.8243

>  <SCORE.INTRA.VDW>
-0.321631

>  <SCORE.INTRA.VDW.0>
-1.35881

>  <SCORE.INTRA.norm>
-0.0417145

>  <SCORE.RESTR>
0

>  <SCORE.RESTR.CAVITY>
0

>  <SCORE.RESTR.norm>
0

>  <SCORE.SYSTEM>
0

>  <SCORE.SYSTEM.CONST>
0

>  <SCORE.SYSTEM.DIHEDRAL>
0

>  <SCORE.SYSTEM.SOLV>
0

>  <SCORE.SYSTEM.norm>
0

>  <SCORE.heavy>
26

>  <SCORE.norm>
-0.370557

>  <RMSD>
12.119

$$$$
ligand
 OpenBabel11021811483D
libRbt.so/2013.1/901 2013/11/27
 26 28  0  0  0  0  0  0  0  0999 V2000
   23.2517   14.8548    7.3182 N   0  0  0  0  0  0  0  0  0  0  0  0
   24.3450   13.9964    7.7569 C   0  0  2  0  0  0  0  0  0  0  0  0
   25.6966   14.6454    7.4814 C   0  0  0  0  0  0  0  0  0  0  0  0
   26.4647   14.9238    8.4014 O   0  0  0  0  0  0  0  0  0  0  0  0
   24.2671   12.6394    7.0687 C   0  0  0  0  0  0  0  0  0  0  0  0
   25.3473   11.6578    7.5040 C   0  0  0  0  0  0  0  0  0  0  0  0
   25.1678   10.0355    6.7202 S   0  0  0  0  0  0  0  0  0  0  0  0
   26.6321    9.4426    7.6047 C   0  0  0  0  0  0  0  0  0  0  0  0
   27.5158    8.5460    6.7452 C   0  0  1  0  0  0  0  0  0  0  0  0
   27.7469    9.1567    5.4888 O   0  0  0  0  0  0  0  0  0  0  0  0
   28.8663    8.3015    7.3983 C   0  0  1  0  0  0  0  0  0  0  0  0
   29.0182    6.9327    7.6909 O   0  0  0  0  0  0  0  0  0  0  0  0
   29.9020    8.7328    6.3808 C   0  0  1  0  0  0  0  0  0  0  0  0
   30.7552    7.6553    6.0721 O   0  0  0  0  0  0  0  0  0  0  0  0
   29.1205    9.1513    5.1472 C   0  0  2  0  0  0  0  0  0  0  0  0
   26.0523   14.9062    6.3315 O   0  0  0  0  0  0  0  0  0  0  0  0
   29.0054   14.2947    6.1956 N   0  0  0  0  0  0  0  0  0  0  0  0
   28.4345   13.2661    6.9178 C   0  0  0  0  0  0  0  0  0  0  0  0
   28.5668   11.9597    6.4904 N   0  0  0  0  0  0  0  0  0  0  0  0
   29.2562   11.6770    5.3582 C   0  0  0  0  0  0  0  0  0  0  0  0
   29.8370   12.6977    4.6179 C   0  0  0  0  0  0  0  0  0  0  0  0
   29.7093   14.0150    5.0418 C   0  0  0  0  0  0  0  0  0  0  0  0
   30.2606   15.0009    4.3401 N   0  0  0  0  0  0  0  0  0  0  0  0
   30.4543   12.1402    3.5539 N   0  0  0  0  0  0  0  0  0  0  0  0
   30.2792   10.7996    3.6023 C   0  0  0  0  0  0  0  0  0  0  0  0
   29.5383   10.4973    4.7156 N   0  0  0  0  0  0  0  0  0  0  0  0
  2  1  1  6  0  0  0
  2  3  1  0  0  0  0
  2  5  1  0  0  0  0
  3  4  1  0  0  0  0
  3 16  1  0  0  0  0
  5  6  1  0  0  0  0
  6  7  1  0  0  0  0
  7  8  1  0  0  0  0
  9  8  1  1  0  0  0
  9 10  1  0  0  0  0
  9 11  1  0  0  0  0
 10 15  1  0  0  0  0
 11 12  1  6  0  0  0
 11 13  1  0  0  0  0
 13 14  1  6  0  0  0
 13 15  1  0  0  0  0
 15 26  1  1  0  0  0
 17 18  2  0  0  0  0
 17 22  1  0  0  0  0
 18 19  1  0  0  0  0
 19 20  2  0  0  0  0
 20 21  1  0  0  0  0
 20 26  1  0  0  0  0
 21 22  2  0  0  0  0
 21 24  1  0  0  0  0
 22 23  1  0  0  0  0
 24 25  2  0  0  0  0
 25 26  1  0  0  0  0
M  END
>  <CHROM.1>
117.94080180,-178.04299710,177.25708156,-179.99221133,-140.61118709,48.51233754
47.02085840,27.74286948,11.49788781,6.28465068,2.28973322,0.47570487,-0.15644202

>  <Name>
ligand

>  <RI>
0

>  <Rbt.Current_Directory>
/home/itssahil/PROJECTS/Mol_Feturizer/New_Systems/rnas/3NPQ

>  <Rbt.Executable>
rbdock ($Id: //depot/dev/client3/rdock/2013.1/src/exe/rbdock.cxx#4 $)

>  <Rbt.Library>
libRbt.so (2013.1, Build901 2013/11/27)

>  <Rbt.Parameter_File>
/export/apps/rDock/src/rDock_2013.1_src/data/scripts/dock_solv.prm

>  <Rbt.Receptor>
prm/blind_docking_40.prm

>  <SCORE>
-7.17338

>  <SCORE.INTER>
-2.87405

>  <SCORE.INTER.CONST>
1

>  <SCORE.INTER.POLAR>
0

>  <SCORE.INTER.ROT>
7

>  <SCORE.INTER.SOLV>
12.1348

>  <SCORE.INTER.VDW>
-14.2276

>  <SCORE.INTER.norm>
-0.110541

>  <SCORE.INTRA>
-4.304

>  <SCORE.INTRA.DIHEDRAL>
-2.04141

>  <SCORE.INTRA.DIHEDRAL.0>
6.97628

>  <SCORE.INTRA.POLAR>
0

>  <SCORE.INTRA.POLAR.0>
0

>  <SCORE.INTRA.REPUL>
0

>  <SCORE.INTRA.REPUL.0>
0

>  <SCORE.INTRA.SOLV>
-0.851488

>  <SCORE.INTRA.SOLV.lig_0>
-49.8243

>  <SCORE.INTRA.VDW>
-2.85755

>  <SCORE.INTRA.VDW.0>
-1.35881

>  <SCORE.INTRA.norm>
-0.165538

>  <SCORE.RESTR>
0.00467588

>  <SCORE.RESTR.CAVITY>
0.00467588

>  <SCORE.RESTR.norm>
0.000179841

>  <SCORE.SYSTEM>
0

>  <SCORE.SYSTEM.CONST>
0

>  <SCORE.SYSTEM.DIHEDRAL>
0

>  <SCORE.SYSTEM.SOLV>
0

>  <SCORE.SYSTEM.norm>
0

>  <SCORE.heavy>
26

>  <SCORE.norm>
-0.275899

>  <RMSD>
12.126

$$$$
ligand
 OpenBabel11021811483D
libRbt.so/2013.1/901 2013/11/27
 26 28  0  0  0  0  0  0  0  0999 V2000
   27.9962    9.7908    5.5531 N   0  0  0  0  0  0  0  0  0  0  0  0
   29.3383   10.0656    6.0509 C   0  0  2  0  0  0  0  0  0  0  0  0
   29.9715   11.2345    5.3047 C   0  0  0  0  0  0  0  0  0  0  0  0
   30.2425   12.2846    5.8858 O   0  0  0  0  0  0  0  0  0  0  0  0
   30.2179    8.8279    5.9257 C   0  0  0  0  0  0  0  0  0  0  0  0
   31.5614    8.9448    6.6336 C   0  0  0  0  0  0  0  0  0  0  0  0
   32.6819    7.5823    6.2255 S   0  0  0  0  0  0  0  0  0  0  0  0
   31.7788    6.4962    7.3583 C   0  0  0  0  0  0  0  0  0  0  0  0
   30.7975    5.5794    6.6374 C   0  0  1  0  0  0  0  0  0  0  0  0
   31.4733    4.8387    5.6376 O   0  0  0  0  0  0  0  0  0  0  0  0
   30.1530    4.5890    7.5934 C   0  0  1  0  0  0  0  0  0  0  0  0
   28.7647    4.8149    7.6562 O   0  0  0  0  0  0  0  0  0  0  0  0
   30.4299    3.2165    7.0157 C   0  0  1  0  0  0  0  0  0  0  0  0
   29.2182    2.5416    6.7696 O   0  0  0  0  0  0  0  0  0  0  0  0
   31.1683    3.4585    5.7104 C   0  0  2  0  0  0  0  0  0  0  0  0
   30.2275   11.1556    4.1026 O   0  0  0  0  0  0  0  0  0  0  0  0
   35.4042    1.8788    8.3804 N   0  0  0  0  0  0  0  0  0  0  0  0
   34.3820    2.6989    8.8140 C   0  0  0  0  0  0  0  0  0  0  0  0
   33.3363    3.0126    7.9685 N   0  0  0  0  0  0  0  0  0  0  0  0
   33.3058    2.5197    6.7063 C   0  0  0  0  0  0  0  0  0  0  0  0
   34.3248    1.6938    6.2516 C   0  0  0  0  0  0  0  0  0  0  0  0
   35.3803    1.3725    7.0966 C   0  0  0  0  0  0  0  0  0  0  0  0
   36.3623    0.5831    6.6715 N   0  0  0  0  0  0  0  0  0  0  0  0
   34.0445    1.3516    4.9755 N   0  0  0  0  0  0  0  0  0  0  0  0
   32.8800    1.9375    4.6136 C   0  0  0  0  0  0  0  0  0  0  0  0
   32.4100    2.6650    5.6764 N   0  0  0  0  0  0  0  0  0  0  0  0
  2  1  1  6  0  0  0
  2  3  1  0  0  0  0
  2  5  1  0  0  0  0
  3  4  1  0  0  0  0
  3 16  1  0  0  0  0
  5  6  1  0  0  0  0
  6  7  1  0  0  0  0
  7  8  1  0  0  0  0
  9  8  1  1  0  0  0
  9 10  1  0  0  0  0
  9 11  1  0  0  0  0
 10 15  1  0  0  0  0
 11 12  1  6  0  0  0
 11 13  1  0  0  0  0
 13 14  1  6  0  0  0
 13 15  1  0  0  0  0
 15 26  1  1  0  0  0
 17 18  2  0  0  0  0
 17 22  1  0  0  0  0
 18 19  1  0  0  0  0
 19 20  2  0  0  0  0
 20 21  1  0  0  0  0
 20 26  1  0  0  0  0
 21 22  2  0  0  0  0
 21 24  1  0  0  0  0
 22 23  1  0  0  0  0
 24 25  2  0  0  0  0
 25 26  1  0  0  0  0
M  END
>  <CHROM.1>
115.13786058,-170.15015307,-170.10781361,-77.75520510,99.99349024,54.96707577
74.68102700,31.80184959,5.41319426,6.40699107,2.01170294,0.00692115,-0.13419131

>  <Name>
ligand

>  <RI>
0

>  <Rbt.Current_Directory>
/home/itssahil/PROJECTS/Mol_Feturizer/New_Systems/rnas/3NPQ

>  <Rbt.Executable>
rbdock ($Id: //depot/dev/client3/rdock/2013.1/src/exe/rbdock.cxx#4 $)

>  <Rbt.Library>
libRbt.so (2013.1, Build901 2013/11/27)

>  <Rbt.Parameter_File>
/export/apps/rDock/src/rDock_2013.1_src/data/scripts/dock_solv.prm

>  <Rbt.Receptor>
prm/blind_docking_40.prm

>  <SCORE>
-12.1346

>  <SCORE.INTER>
-10.116

>  <SCORE.INTER.CONST>
1

>  <SCORE.INTER.POLAR>
0

>  <SCORE.INTER.ROT>
7

>  <SCORE.INTER.SOLV>
10.2881

>  <SCORE.INTER.VDW>
-18.44

>  <SCORE.INTER.norm>
-0.389078

>  <SCORE.INTRA>
-2.01857

>  <SCORE.INTRA.DIHEDRAL>
-1.20785

>  <SCORE.INTRA.DIHEDRAL.0>
6.97628

>  <SCORE.INTRA.POLAR>
0

>  <SCORE.INTRA.POLAR.0>
0

>  <SCORE.INTRA.REPUL>
0

>  <SCORE.INTRA.REPUL.0>
0

>  <SCORE.INTRA.SOLV>
-0.830511

>  <SCORE.INTRA.SOLV.lig_0>
-49.8243

>  <SCORE.INTRA.VDW>
-0.999387

>  <SCORE.INTRA.VDW.0>
-1.35881

>  <SCORE.INTRA.norm>
-0.0776372

>  <SCORE.RESTR>
0

>  <SCORE.RESTR.CAVITY>
0

>  <SCORE.RESTR.norm>
0

>  <SCORE.SYSTEM>
0

>  <SCORE.SYSTEM.CONST>
0

>  <SCORE.SYSTEM.DIHEDRAL>
0

>  <SCORE.SYSTEM.SOLV>
0

>  <SCORE.SYSTEM.norm>
0

>  <SCORE.heavy>
26

>  <SCORE.norm>
-0.466716

>  <RMSD>
12.189

$$$$
ligand
 OpenBabel11021811483D
libRbt.so/2013.1/901 2013/11/27
 26 28  0  0  0  0  0  0  0  0999 V2000
   28.5946    9.8286    5.5856 N   0  0  0  0  0  0  0  0  0  0  0  0
   29.8435   10.4591    5.1769 C   0  0  2  0  0  0  0  0  0  0  0  0
   29.6951   11.1435    3.8228 C   0  0  0  0  0  0  0  0  0  0  0  0
   30.5624   11.9074    3.4008 O   0  0  0  0  0  0  0  0  0  0  0  0
   30.9673    9.4319    5.1227 C   0  0  0  0  0  0  0  0  0  0  0  0
   31.1887    8.6819    6.4297 C   0  0  0  0  0  0  0  0  0  0  0  0
   32.5628    7.5068    6.3316 S   0  0  0  0  0  0  0  0  0  0  0  0
   31.6757    6.3730    7.4296 C   0  0  0  0  0  0  0  0  0  0  0  0
   30.7269    5.4471    6.6772 C   0  0  1  0  0  0  0  0  0  0  0  0
   31.4309    4.7550    5.6622 O   0  0  0  0  0  0  0  0  0  0  0  0
   30.1072    4.4117    7.6014 C   0  0  1  0  0  0  0  0  0  0  0  0
   28.7123    4.5937    7.6609 O   0  0  0  0  0  0  0  0  0  0  0  0
   30.4291    3.0646    6.9883 C   0  0  1  0  0  0  0  0  0  0  0  0
   29.2400    2.3604    6.7156 O   0  0  0  0  0  0  0  0  0  0  0  0
   31.1675    3.3647    5.6951 C   0  0  2  0  0  0  0  0  0  0  0  0
   28.7039   10.9477    3.1185 O   0  0  0  0  0  0  0  0  0  0  0  0
   35.4437    1.8582    8.3432 N   0  0  0  0  0  0  0  0  0  0  0  0
   34.3959    2.6373    8.7912 C   0  0  0  0  0  0  0  0  0  0  0  0
   33.3431    2.9370    7.9495 N   0  0  0  0  0  0  0  0  0  0  0  0
   33.3305    2.4705    6.6770 C   0  0  0  0  0  0  0  0  0  0  0  0
   34.3753    1.6859    6.2078 C   0  0  0  0  0  0  0  0  0  0  0  0
   35.4382    1.3790    7.0488 C   0  0  0  0  0  0  0  0  0  0  0  0
   36.4448    0.6292    6.6099 N   0  0  0  0  0  0  0  0  0  0  0  0
   34.1084    1.3627    4.9239 N   0  0  0  0  0  0  0  0  0  0  0  0
   32.9274    1.9204    4.5711 C   0  0  0  0  0  0  0  0  0  0  0  0
   32.4330    2.6104    5.6479 N   0  0  0  0  0  0  0  0  0  0  0  0
  2  1  1  6  0  0  0
  2  3  1  0  0  0  0
  2  5  1  0  0  0  0
  3  4  1  0  0  0  0
  3 16  1  0  0  0  0
  5  6  1  0  0  0  0
  6  7  1  0  0  0  0
  7  8  1  0  0  0  0
  9  8  1  1  0  0  0
  9 10  1  0  0  0  0
  9 11  1  0  0  0  0
 10 15  1  0  0  0  0
 11 12  1  6  0  0  0
 11 13  1  0  0  0  0
 13 14  1  6  0  0  0
 13 15  1  0  0  0  0
 15 26  1  1  0  0  0
 17 18  2  0  0  0  0
 17 22  1  0  0  0  0
 18 19  1  0  0  0  0
 19 20  2  0  0  0  0
 20 21  1  0  0  0  0
 20 26  1  0  0  0  0
 21 22  2  0  0  0  0
 21 24  1  0  0  0  0
 22 23  1  0  0  0  0
 24 25  2  0  0  0  0
 25 26  1  0  0  0  0
M  END
>  <CHROM.1>
168.38773701,-56.46023615,-178.37613447,-145.03702985,86.76216273,54.46373016
74.26824114,31.78867855,5.35447047,6.14248678,2.00975154,0.10234309,-0.30160383

>  <Name>
ligand

>  <RI>
0

>  <Rbt.Current_Directory>
/home/itssahil/PROJECTS/Mol_Feturizer/New_Systems/rnas/3NPQ

>  <Rbt.Executable>
rbdock ($Id: //depot/dev/client3/rdock/2013.1/src/exe/rbdock.cxx#4 $)

>  <Rbt.Library>
libRbt.so (2013.1, Build901 2013/11/27)

>  <Rbt.Parameter_File>
/export/apps/rDock/src/rDock_2013.1_src/data/scripts/dock_solv.prm

>  <Rbt.Receptor>
prm/blind_docking_40.prm

>  <SCORE>
-12.7293

>  <SCORE.INTER>
-10.7425

>  <SCORE.INTER.CONST>
1

>  <SCORE.INTER.POLAR>
0

>  <SCORE.INTER.ROT>
7

>  <SCORE.INTER.SOLV>
9.8566

>  <SCORE.INTER.VDW>
-18.7139

>  <SCORE.INTER.norm>
-0.413173

>  <SCORE.INTRA>
-1.98677

>  <SCORE.INTRA.DIHEDRAL>
-1.63811

>  <SCORE.INTRA.DIHEDRAL.0>
6.97628

>  <SCORE.INTRA.POLAR>
0

>  <SCORE.INTRA.POLAR.0>
0

>  <SCORE.INTRA.REPUL>
0

>  <SCORE.INTRA.REPUL.0>
0

>  <SCORE.INTRA.SOLV>
-0.14088

>  <SCORE.INTRA.SOLV.lig_0>
-49.8243

>  <SCORE.INTRA.VDW>
-1.09728

>  <SCORE.INTRA.VDW.0>
-1.35881

>  <SCORE.INTRA.norm>
-0.0764142

>  <SCORE.RESTR>
0

>  <SCORE.RESTR.CAVITY>
0

>  <SCORE.RESTR.norm>
0

>  <SCORE.SYSTEM>
0

>  <SCORE.SYSTEM.CONST>
0

>  <SCORE.SYSTEM.DIHEDRAL>
0

>  <SCORE.SYSTEM.SOLV>
0

>  <SCORE.SYSTEM.norm>
0

>  <SCORE.heavy>
26

>  <SCORE.norm>
-0.489587

>  <RMSD>
12.325

$$$$
ligand
 OpenBabel11021811483D
libRbt.so/2013.1/901 2013/11/27
 26 28  0  0  0  0  0  0  0  0999 V2000
   25.5735   14.5907    9.1314 N   0  0  0  0  0  0  0  0  0  0  0  0
   24.9685   15.2059    7.9566 C   0  0  2  0  0  0  0  0  0  0  0  0
   24.9844   16.7265    8.0641 C   0  0  0  0  0  0  0  0  0  0  0  0
   25.3806   17.2851    9.0862 O   0  0  0  0  0  0  0  0  0  0  0  0
   23.5400   14.7102    7.7704 C   0  0  0  0  0  0  0  0  0  0  0  0
   23.4263   13.2077    7.5487 C   0  0  0  0  0  0  0  0  0  0  0  0
   24.0731   12.6928    5.9378 S   0  0  0  0  0  0  0  0  0  0  0  0
   25.3913   11.7636    6.7606 C   0  0  0  0  0  0  0  0  0  0  0  0
   25.8474   10.5518    5.9562 C   0  0  1  0  0  0  0  0  0  0  0  0
   26.5510   10.9747    4.8025 O   0  0  0  0  0  0  0  0  0  0  0  0
   26.7756    9.6611    6.7659 C   0  0  1  0  0  0  0  0  0  0  0  0
   26.1850    8.3971    6.9551 O   0  0  0  0  0  0  0  0  0  0  0  0
   28.0401    9.5253    5.9433 C   0  0  1  0  0  0  0  0  0  0  0  0
   28.2910    8.1680    5.6620 O   0  0  0  0  0  0  0  0  0  0  0  0
   27.7792   10.2868    4.6550 C   0  0  2  0  0  0  0  0  0  0  0  0
   24.6015   17.4323    7.1302 O   0  0  0  0  0  0  0  0  0  0  0  0
   29.9970   14.8269    6.0820 N   0  0  0  0  0  0  0  0  0  0  0  0
   28.8793   14.2202    6.6187 C   0  0  0  0  0  0  0  0  0  0  0  0
   28.4328   13.0148    6.1141 N   0  0  0  0  0  0  0  0  0  0  0  0
   29.0869   12.4187    5.0876 C   0  0  0  0  0  0  0  0  0  0  0  0
   30.2126   13.0135    4.5341 C   0  0  0  0  0  0  0  0  0  0  0  0
   30.6689   14.2261    5.0367 C   0  0  0  0  0  0  0  0  0  0  0  0
   31.7455   14.8055    4.5137 N   0  0  0  0  0  0  0  0  0  0  0  0
   30.6591   12.2146    3.5409 N   0  0  0  0  0  0  0  0  0  0  0  0
   29.8482   11.1353    3.4526 C   0  0  0  0  0  0  0  0  0  0  0  0
   28.8687   11.2477    4.4054 N   0  0  0  0  0  0  0  0  0  0  0  0
  2  1  1  1  0  0  0
  2  3  1  0  0  0  0
  2  5  1  0  0  0  0
  3  4  1  0  0  0  0
  3 16  1  0  0  0  0
  5  6  1  0  0  0  0
  6  7  1  0  0  0  0
  7  8  1  0  0  0  0
  9  8  1  1  0  0  0
  9 10  1  0  0  0  0
  9 11  1  0  0  0  0
 10 15  1  0  0  0  0
 11 12  1  6  0  0  0
 11 13  1  0  0  0  0
 13 14  1  6  0  0  0
 13 15  1  0  0  0  0
 15 26  1  1  0  0  0
 17 18  2  0  0  0  0
 17 22  1  0  0  0  0
 18 19  1  0  0  0  0
 19 20  2  0  0  0  0
 20 21  1  0  0  0  0
 20 26  1  0  0  0  0
 21 22  2  0  0  0  0
 21 24  1  0  0  0  0
 22 23  1  0  0  0  0
 24 25  2  0  0  0  0
 25 26  1  0  0  0  0
M  END
>  <CHROM.1>
-4.99154841,-61.24426732,-69.84240514,114.64757706,150.36063986,70.21262111
45.69880036,27.07100161,12.76392925,6.16127367,2.33622000,0.41097006,0.21647740

>  <Name>
ligand

>  <RI>
0

>  <Rbt.Current_Directory>
/home/itssahil/PROJECTS/Mol_Feturizer/New_Systems/rnas/3NPQ

>  <Rbt.Executable>
rbdock ($Id: //depot/dev/client3/rdock/2013.1/src/exe/rbdock.cxx#4 $)

>  <Rbt.Library>
libRbt.so (2013.1, Build901 2013/11/27)

>  <Rbt.Parameter_File>
/export/apps/rDock/src/rDock_2013.1_src/data/scripts/dock_solv.prm

>  <Rbt.Receptor>
prm/blind_docking_80.prm

>  <SCORE>
-4.69247

>  <SCORE.INTER>
-3.25098

>  <SCORE.INTER.CONST>
1

>  <SCORE.INTER.POLAR>
0

>  <SCORE.INTER.ROT>
7

>  <SCORE.INTER.SOLV>
16.1957

>  <SCORE.INTER.VDW>
-15.8326

>  <SCORE.INTER.norm>
-0.125038

>  <SCORE.INTRA>
-1.44908

>  <SCORE.INTRA.DIHEDRAL>
-0.0432254

>  <SCORE.INTRA.DIHEDRAL.0>
6.97628

>  <SCORE.INTRA.POLAR>
0

>  <SCORE.INTRA.POLAR.0>
0

>  <SCORE.INTRA.REPUL>
0

>  <SCORE.INTRA.REPUL.0>
0

>  <SCORE.INTRA.SOLV>
0.984139

>  <SCORE.INTRA.SOLV.lig_0>
-49.8243

>  <SCORE.INTRA.VDW>
-1.91954

>  <SCORE.INTRA.VDW.0>
-1.35881

>  <SCORE.INTRA.norm>
-0.055734

>  <SCORE.RESTR>
0.00759416

>  <SCORE.RESTR.CAVITY>
0.00759416

>  <SCORE.RESTR.norm>
0.000292083

>  <SCORE.SYSTEM>
0

>  <SCORE.SYSTEM.CONST>
0

>  <SCORE.SYSTEM.DIHEDRAL>
0

>  <SCORE.SYSTEM.SOLV>
0

>  <SCORE.SYSTEM.norm>
0

>  <SCORE.heavy>
26

>  <SCORE.norm>
-0.180479

>  <RMSD>
12.351

$$$$
ligand
 OpenBabel11021811483D
libRbt.so/2013.1/901 2013/11/27
 26 28  0  0  0  0  0  0  0  0999 V2000
   23.7330   15.4623    7.9065 N   0  0  0  0  0  0  0  0  0  0  0  0
   23.3655   14.2608    7.1676 C   0  0  2  0  0  0  0  0  0  0  0  0
   22.9244   13.1490    8.1127 C   0  0  0  0  0  0  0  0  0  0  0  0
   23.2466   13.1621    9.3001 O   0  0  0  0  0  0  0  0  0  0  0  0
   24.5306   13.7850    6.3090 C   0  0  0  0  0  0  0  0  0  0  0  0
   24.2011   12.5958    5.4163 C   0  0  0  0  0  0  0  0  0  0  0  0
   25.5283   12.2192    4.2437 S   0  0  0  0  0  0  0  0  0  0  0  0
   26.5203   11.5186    5.5866 C   0  0  0  0  0  0  0  0  0  0  0  0
   28.0050   11.8345    5.4481 C   0  0  1  0  0  0  0  0  0  0  0  0
   28.4765   11.3969    4.1866 O   0  0  0  0  0  0  0  0  0  0  0  0
   28.2702   13.3276    5.5507 C   0  0  1  0  0  0  0  0  0  0  0  0
   29.0657   13.5982    6.6804 O   0  0  0  0  0  0  0  0  0  0  0  0
   29.0176   13.7027    4.2878 C   0  0  1  0  0  0  0  0  0  0  0  0
   30.2641   14.2719    4.6141 O   0  0  0  0  0  0  0  0  0  0  0  0
   29.2190   12.4043    3.5254 C   0  0  2  0  0  0  0  0  0  0  0  0
   22.2345   12.2113    7.7106 O   0  0  0  0  0  0  0  0  0  0  0  0
   30.3391   14.1377   -1.3024 N   0  0  0  0  0  0  0  0  0  0  0  0
   31.1299   14.1963   -0.1725 C   0  0  0  0  0  0  0  0  0  0  0  0
   30.6699   13.6856    1.0252 N   0  0  0  0  0  0  0  0  0  0  0  0
   29.4384   13.1246    1.1015 C   0  0  0  0  0  0  0  0  0  0  0  0
   28.6281   13.0569   -0.0236 C   0  0  0  0  0  0  0  0  0  0  0  0
   29.0840   13.5676   -1.2330 C   0  0  0  0  0  0  0  0  0  0  0  0
   28.3162   13.5090   -2.3170 N   0  0  0  0  0  0  0  0  0  0  0  0
   27.4719   12.4564    0.3322 N   0  0  0  0  0  0  0  0  0  0  0  0
   27.5302   12.1446    1.6474 C   0  0  0  0  0  0  0  0  0  0  0  0
   28.7437   12.5527    2.1381 N   0  0  0  0  0  0  0  0  0  0  0  0
  2  1  1  1  0  0  0
  2  3  1  0  0  0  0
  2  5  1  0  0  0  0
  3  4  1  0  0  0  0
  3 16  1  0  0  0  0
  5  6  1  0  0  0  0
  6  7  1  0  0  0  0
  7  8  1  0  0  0  0
  9  8  1  6  0  0  0
  9 10  1  0  0  0  0
  9 11  1  0  0  0  0
 10 15  1  0  0  0  0
 11 12  1  1  0  0  0
 11 13  1  0  0  0  0
 13 14  1  1  0  0  0
 13 15  1  0  0  0  0
 15 26  1  6  0  0  0
 17 18  2  0  0  0  0
 17 22  1  0  0  0  0
 18 19  1  0  0  0  0
 19 20  2  0  0  0  0
 20 21  1  0  0  0  0
 20 26  1  0  0  0  0
 21 22  2  0  0  0  0
 21 24  1  0  0  0  0
 22 23  1  0  0  0  0
 24 25  2  0  0  0  0
 25 26  1  0  0  0  0
M  END
>  <CHROM.1>
-20.50276593,-175.42211984,171.57360908,74.17985198,-142.21708508,-55.55396031
-159.96801831,27.17324447,13.07681579,3.88787368,2.23016724,0.09788038,1.51570280

>  <Name>
ligand

>  <RI>
0

>  <Rbt.Current_Directory>
/home/itssahil/PROJECTS/Mol_Feturizer/New_Systems/rnas/3NPQ

>  <Rbt.Executable>
rbdock ($Id: //depot/dev/client3/rdock/2013.1/src/exe/rbdock.cxx#4 $)

>  <Rbt.Library>
libRbt.so (2013.1, Build901 2013/11/27)

>  <Rbt.Parameter_File>
/export/apps/rDock/src/rDock_2013.1_src/data/scripts/dock_solv.prm

>  <Rbt.Receptor>
prm/blind_docking_100.prm

>  <SCORE>
-11.0737

>  <SCORE.INTER>
-8.81511

>  <SCORE.INTER.CONST>
1

>  <SCORE.INTER.POLAR>
0

>  <SCORE.INTER.ROT>
7

>  <SCORE.INTER.SOLV>
9.37208

>  <SCORE.INTER.VDW>
-17.2674

>  <SCORE.INTER.norm>
-0.339043

>  <SCORE.INTRA>
-2.29316

>  <SCORE.INTRA.DIHEDRAL>
-1.90178

>  <SCORE.INTRA.DIHEDRAL.0>
6.97628

>  <SCORE.INTRA.POLAR>
0

>  <SCORE.INTRA.POLAR.0>
0

>  <SCORE.INTRA.REPUL>
0

>  <SCORE.INTRA.REPUL.0>
0

>  <SCORE.INTRA.SOLV>
-0.596844

>  <SCORE.INTRA.SOLV.lig_0>
-49.8243

>  <SCORE.INTRA.VDW>
-1.04385

>  <SCORE.INTRA.VDW.0>
-1.35881

>  <SCORE.INTRA.norm>
-0.0881985

>  <SCORE.RESTR>
0.0345798

>  <SCORE.RESTR.CAVITY>
0.0345798

>  <SCORE.RESTR.norm>
0.00132999

>  <SCORE.SYSTEM>
0

>  <SCORE.SYSTEM.CONST>
0

>  <SCORE.SYSTEM.DIHEDRAL>
0

>  <SCORE.SYSTEM.SOLV>
0

>  <SCORE.SYSTEM.norm>
0

>  <SCORE.heavy>
26

>  <SCORE.norm>
-0.425911

>  <RMSD>
12.381

$$$$
ligand
 OpenBabel11021811483D
libRbt.so/2013.1/901 2013/11/27
 26 28  0  0  0  0  0  0  0  0999 V2000
   23.2906   15.6798    7.8147 N   0  0  0  0  0  0  0  0  0  0  0  0
   23.5090   14.3046    7.3837 C   0  0  2  0  0  0  0  0  0  0  0  0
   22.7999   13.3210    8.3077 C   0  0  0  0  0  0  0  0  0  0  0  0
   22.5540   12.1724    7.9412 O   0  0  0  0  0  0  0  0  0  0  0  0
   24.9991   13.9916    7.3322 C   0  0  0  0  0  0  0  0  0  0  0  0
   25.7735   14.8161    6.3123 C   0  0  0  0  0  0  0  0  0  0  0  0
   27.5424   14.4295    6.3062 S   0  0  0  0  0  0  0  0  0  0  0  0
   27.4851   14.1809    4.5137 C   0  0  0  0  0  0  0  0  0  0  0  0
   27.9796   12.8012    4.0950 C   0  0  1  0  0  0  0  0  0  0  0  0
   27.8977   12.6650    2.6879 O   0  0  0  0  0  0  0  0  0  0  0  0
   29.4281   12.5805    4.4994 C   0  0  1  0  0  0  0  0  0  0  0  0
   29.5128   11.5248    5.4271 O   0  0  0  0  0  0  0  0  0  0  0  0
   30.1616   12.2129    3.2263 C   0  0  1  0  0  0  0  0  0  0  0  0
   30.7685   10.9493    3.3651 O   0  0  0  0  0  0  0  0  0  0  0  0
   29.1032   12.1680    2.1375 C   0  0  2  0  0  0  0  0  0  0  0  0
   22.4565   13.6522    9.4431 O   0  0  0  0  0  0  0  0  0  0  0  0
   28.3204   13.3195   -2.9249 N   0  0  0  0  0  0  0  0  0  0  0  0
   27.6607   12.3843   -2.1532 C   0  0  0  0  0  0  0  0  0  0  0  0
   28.0006   12.2141   -0.8256 N   0  0  0  0  0  0  0  0  0  0  0  0
   28.9851   12.9620   -0.2704 C   0  0  0  0  0  0  0  0  0  0  0  0
   29.6606   13.9072   -1.0303 C   0  0  0  0  0  0  0  0  0  0  0  0
   29.3239   14.0854   -2.3668 C   0  0  0  0  0  0  0  0  0  0  0  0
   29.9648   14.9871   -3.1046 N   0  0  0  0  0  0  0  0  0  0  0  0
   30.5781   14.5005   -0.2365 N   0  0  0  0  0  0  0  0  0  0  0  0
   30.5004   13.9570    1.0000 C   0  0  0  0  0  0  0  0  0  0  0  0
   29.5171   13.0015    0.9944 N   0  0  0  0  0  0  0  0  0  0  0  0
  2  1  1  1  0  0  0
  2  3  1  0  0  0  0
  2  5  1  0  0  0  0
  3  4  1  0  0  0  0
  3 16  1  0  0  0  0
  5  6  1  0  0  0  0
  6  7  1  0  0  0  0
  7  8  1  0  0  0  0
  9  8  1  6  0  0  0
  9 10  1  0  0  0  0
  9 11  1  0  0  0  0
 10 15  1  0  0  0  0
 11 12  1  1  0  0  0
 11 13  1  0  0  0  0
 13 14  1  1  0  0  0
 13 15  1  0  0  0  0
 15 26  1  6  0  0  0
 17 18  2  0  0  0  0
 17 22  1  0  0  0  0
 18 19  1  0  0  0  0
 19 20  2  0  0  0  0
 20 21  1  0  0  0  0
 20 26  1  0  0  0  0
 21 22  2  0  0  0  0
 21 24  1  0  0  0  0
 22 23  1  0  0  0  0
 24 25  2  0  0  0  0
 25 26  1  0  0  0  0
M  END
>  <CHROM.1>
160.40738776,-63.62721669,179.04855373,128.25954169,-123.59384636,179.42626485
-77.57174120,27.55444914,13.36329757,3.36359614,2.15400044,-0.31904978,1.72058385

>  <Name>
ligand

>  <RI>
0

>  <Rbt.Current_Directory>
/home/itssahil/PROJECTS/Mol_Feturizer/New_Systems/rnas/3NPQ

>  <Rbt.Executable>
rbdock ($Id: //depot/dev/client3/rdock/2013.1/src/exe/rbdock.cxx#4 $)

>  <Rbt.Library>
libRbt.so (2013.1, Build901 2013/11/27)

>  <Rbt.Parameter_File>
/export/apps/rDock/src/rDock_2013.1_src/data/scripts/dock_solv.prm

>  <Rbt.Receptor>
prm/blind_docking_100.prm

>  <SCORE>
-6.85452

>  <SCORE.INTER>
-6.68103

>  <SCORE.INTER.CONST>
1

>  <SCORE.INTER.POLAR>
0

>  <SCORE.INTER.ROT>
7

>  <SCORE.INTER.SOLV>
13.6229

>  <SCORE.INTER.VDW>
-17.2617

>  <SCORE.INTER.norm>
-0.256963

>  <SCORE.INTRA>
-0.217904

>  <SCORE.INTRA.DIHEDRAL>
0.418996

>  <SCORE.INTRA.DIHEDRAL.0>
6.97628

>  <SCORE.INTRA.POLAR>
0

>  <SCORE.INTRA.POLAR.0>
0

>  <SCORE.INTRA.REPUL>
0

>  <SCORE.INTRA.REPUL.0>
0

>  <SCORE.INTRA.SOLV>
-0.171911

>  <SCORE.INTRA.SOLV.lig_0>
-49.8243

>  <SCORE.INTRA.VDW>
-0.341447

>  <SCORE.INTRA.VDW.0>
-1.35881

>  <SCORE.INTRA.norm>
-0.00838094

>  <SCORE.RESTR>
0.0444064

>  <SCORE.RESTR.CAVITY>
0.0444064

>  <SCORE.RESTR.norm>
0.00170794

>  <SCORE.SYSTEM>
0

>  <SCORE.SYSTEM.CONST>
0

>  <SCORE.SYSTEM.DIHEDRAL>
0

>  <SCORE.SYSTEM.SOLV>
0

>  <SCORE.SYSTEM.norm>
0

>  <SCORE.heavy>
26

>  <SCORE.norm>
-0.263636

>  <RMSD>
12.440

$$$$
ligand
 OpenBabel11021811483D
libRbt.so/2013.1/901 2013/11/27
 26 28  0  0  0  0  0  0  0  0999 V2000
   25.3635   12.5031    6.9484 N   0  0  0  0  0  0  0  0  0  0  0  0
   24.2689   11.5416    6.9955 C   0  0  2  0  0  0  0  0  0  0  0  0
   23.1279   12.0517    7.8683 C   0  0  0  0  0  0  0  0  0  0  0  0
   23.3381   12.4636    9.0085 O   0  0  0  0  0  0  0  0  0  0  0  0
   24.7620   10.1965    7.5137 C   0  0  0  0  0  0  0  0  0  0  0  0
   25.8803    9.5812    6.6827 C   0  0  0  0  0  0  0  0  0  0  0  0
   26.4146    7.9729    7.3201 S   0  0  0  0  0  0  0  0  0  0  0  0
   27.8261    7.9889    6.1863 C   0  0  0  0  0  0  0  0  0  0  0  0
   29.0997    8.5128    6.8396 C   0  0  1  0  0  0  0  0  0  0  0  0
   29.5657    7.5851    7.8026 O   0  0  0  0  0  0  0  0  0  0  0  0
   30.2071    8.7186    5.8190 C   0  0  1  0  0  0  0  0  0  0  0  0
   30.5522   10.0819    5.7521 O   0  0  0  0  0  0  0  0  0  0  0  0
   31.3856    7.9088    6.3184 C   0  0  1  0  0  0  0  0  0  0  0  0
   32.5021    8.7461    6.5091 O   0  0  0  0  0  0  0  0  0  0  0  0
   30.9457    7.3133    7.6449 C   0  0  2  0  0  0  0  0  0  0  0  0
   21.9685   12.0641    7.4530 O   0  0  0  0  0  0  0  0  0  0  0  0
   29.7255    2.7035    5.4477 N   0  0  0  0  0  0  0  0  0  0  0  0
   29.2406    3.9550    5.1247 C   0  0  0  0  0  0  0  0  0  0  0  0
   29.6769    5.0688    5.8145 N   0  0  0  0  0  0  0  0  0  0  0  0
   30.5828    4.9424    6.8147 C   0  0  0  0  0  0  0  0  0  0  0  0
   31.0817    3.6923    7.1547 C   0  0  0  0  0  0  0  0  0  0  0  0
   30.6485    2.5665    6.4647 C   0  0  0  0  0  0  0  0  0  0  0  0
   31.1188    1.3639    6.7823 N   0  0  0  0  0  0  0  0  0  0  0  0
   31.9565    3.8559    8.1705 N   0  0  0  0  0  0  0  0  0  0  0  0
   32.0229    5.1712    8.4802 C   0  0  0  0  0  0  0  0  0  0  0  0
   31.1766    5.8576    7.6479 N   0  0  0  0  0  0  0  0  0  0  0  0
  2  1  1  1  0  0  0
  2  3  1  0  0  0  0
  2  5  1  0  0  0  0
  3  4  1  0  0  0  0
  3 16  1  0  0  0  0
  5  6  1  0  0  0  0
  6  7  1  0  0  0  0
  7  8  1  0  0  0  0
  9  8  1  6  0  0  0
  9 10  1  0  0  0  0
  9 11  1  0  0  0  0
 10 15  1  0  0  0  0
 11 12  1  1  0  0  0
 11 13  1  0  0  0  0
 13 14  1  1  0  0  0
 13 15  1  0  0  0  0
 15 26  1  6  0  0  0
 17 18  2  0  0  0  0
 17 22  1  0  0  0  0
 18 19  1  0  0  0  0
 19 20  2  0  0  0  0
 20 21  1  0  0  0  0
 20 26  1  0  0  0  0
 21 22  2  0  0  0  0
 21 24  1  0  0  0  0
 22 23  1  0  0  0  0
 24 25  2  0  0  0  0
 25 26  1  0  0  0  0
M  END
>  <CHROM.1>
-50.90713477,-58.57599178,-179.06104760,-170.10719370,95.69168411,69.27275605
55.68458604,28.46406748,7.62229763,6.97400109,-2.33650324,-0.06803998,-3.10326809

>  <Name>
ligand

>  <RI>
0

>  <Rbt.Current_Directory>
/home/itssahil/PROJECTS/Mol_Feturizer/New_Systems/rnas/3NPQ

>  <Rbt.Executable>
rbdock ($Id: //depot/dev/client3/rdock/2013.1/src/exe/rbdock.cxx#4 $)

>  <Rbt.Library>
libRbt.so (2013.1, Build901 2013/11/27)

>  <Rbt.Parameter_File>
/export/apps/rDock/src/rDock_2013.1_src/data/scripts/dock_solv.prm

>  <Rbt.Receptor>
prm/blind_docking_40.prm

>  <SCORE>
-13.6977

>  <SCORE.INTER>
-10.93

>  <SCORE.INTER.CONST>
1

>  <SCORE.INTER.POLAR>
0

>  <SCORE.INTER.ROT>
7

>  <SCORE.INTER.SOLV>
7.90183

>  <SCORE.INTER.VDW>
-18.1873

>  <SCORE.INTER.norm>
-0.420384

>  <SCORE.INTRA>
-2.76773

>  <SCORE.INTRA.DIHEDRAL>
-2.28349

>  <SCORE.INTRA.DIHEDRAL.0>
6.97628

>  <SCORE.INTRA.POLAR>
0

>  <SCORE.INTRA.POLAR.0>
0

>  <SCORE.INTRA.REPUL>
0

>  <SCORE.INTRA.REPUL.0>
0

>  <SCORE.INTRA.SOLV>
-0.22059

>  <SCORE.INTRA.SOLV.lig_0>
-49.8243

>  <SCORE.INTRA.VDW>
-1.51569

>  <SCORE.INTRA.VDW.0>
-1.35881

>  <SCORE.INTRA.norm>
-0.106451

>  <SCORE.RESTR>
0

>  <SCORE.RESTR.CAVITY>
0

>  <SCORE.RESTR.norm>
0

>  <SCORE.SYSTEM>
0

>  <SCORE.SYSTEM.CONST>
0

>  <SCORE.SYSTEM.DIHEDRAL>
0

>  <SCORE.SYSTEM.SOLV>
0

>  <SCORE.SYSTEM.norm>
0

>  <SCORE.heavy>
26

>  <SCORE.norm>
-0.526836

>  <RMSD>
12.515

$$$$
ligand
 OpenBabel11021811483D
libRbt.so/2013.1/901 2013/11/27
 26 28  0  0  0  0  0  0  0  0999 V2000
   29.0147   10.0234    6.3606 N   0  0  0  0  0  0  0  0  0  0  0  0
   29.4592    8.6355    6.3358 C   0  0  2  0  0  0  0  0  0  0  0  0
   30.9768    8.5474    6.2205 C   0  0  0  0  0  0  0  0  0  0  0  0
   31.6387    7.9144    7.0420 O   0  0  0  0  0  0  0  0  0  0  0  0
   28.8033    7.8854    5.1833 C   0  0  0  0  0  0  0  0  0  0  0  0
   29.0965    6.3910    5.1661 C   0  0  0  0  0  0  0  0  0  0  0  0
   28.1907    5.4910    6.4497 S   0  0  0  0  0  0  0  0  0  0  0  0
   29.4573    4.1973    6.4410 C   0  0  0  0  0  0  0  0  0  0  0  0
   30.1252    4.0185    7.7994 C   0  0  1  0  0  0  0  0  0  0  0  0
   30.9411    2.8613    7.7882 O   0  0  0  0  0  0  0  0  0  0  0  0
   31.0078    5.2058    8.1484 C   0  0  1  0  0  0  0  0  0  0  0  0
   30.5107    5.8539    9.2952 O   0  0  0  0  0  0  0  0  0  0  0  0
   32.3807    4.6317    8.4306 C   0  0  1  0  0  0  0  0  0  0  0  0
   32.7869    4.9685    9.7367 O   0  0  0  0  0  0  0  0  0  0  0  0
   32.2338    3.1254    8.3006 C   0  0  2  0  0  0  0  0  0  0  0  0
   31.5765    9.1073    5.3020 O   0  0  0  0  0  0  0  0  0  0  0  0
   36.7942    0.5578    7.8786 N   0  0  0  0  0  0  0  0  0  0  0  0
   36.1066    0.8875    9.0293 C   0  0  0  0  0  0  0  0  0  0  0  0
   34.9094    1.5712    8.9519 N   0  0  0  0  0  0  0  0  0  0  0  0
   34.4007    1.9254    7.7466 C   0  0  0  0  0  0  0  0  0  0  0  0
   35.0776    1.6034    6.5781 C   0  0  0  0  0  0  0  0  0  0  0  0
   36.2826    0.9146    6.6473 C   0  0  0  0  0  0  0  0  0  0  0  0
   36.9402    0.6017    5.5347 N   0  0  0  0  0  0  0  0  0  0  0  0
   34.3549    2.0697    5.5369 N   0  0  0  0  0  0  0  0  0  0  0  0
   33.2437    2.6756    6.0149 C   0  0  0  0  0  0  0  0  0  0  0  0
   33.2582    2.5940    7.3835 N   0  0  0  0  0  0  0  0  0  0  0  0
  2  1  1  6  0  0  0
  2  3  1  0  0  0  0
  2  5  1  0  0  0  0
  3  4  1  0  0  0  0
  3 16  1  0  0  0  0
  5  6  1  0  0  0  0
  6  7  1  0  0  0  0
  7  8  1  0  0  0  0
  9  8  1  6  0  0  0
  9 10  1  0  0  0  0
  9 11  1  0  0  0  0
 10 15  1  0  0  0  0
 11 12  1  1  0  0  0
 11 13  1  0  0  0  0
 13 14  1  1  0  0  0
 13 15  1  0  0  0  0
 15 26  1  6  0  0  0
 17 18  2  0  0  0  0
 17 22  1  0  0  0  0
 18 19  1  0  0  0  0
 19 20  2  0  0  0  0
 20 21  1  0  0  0  0
 20 26  1  0  0  0  0
 21 22  2  0  0  0  0
 21 24  1  0  0  0  0
 22 23  1  0  0  0  0
 24 25  2  0  0  0  0
 25 26  1  0  0  0  0
M  END
>  <CHROM.1>
124.87921051,-173.94657930,73.95784336,-154.72880995,120.64456394,170.56111487
-137.91616914,32.02293061,4.53654390,7.10681225,-2.35866465,-0.29385707,2.69167591

>  <Name>
ligand

>  <RI>
0

>  <Rbt.Current_Directory>
/home/itssahil/PROJECTS/Mol_Feturizer/New_Systems/rnas/3NPQ

>  <Rbt.Executable>
rbdock ($Id: //depot/dev/client3/rdock/2013.1/src/exe/rbdock.cxx#4 $)

>  <Rbt.Library>
libRbt.so (2013.1, Build901 2013/11/27)

>  <Rbt.Parameter_File>
/export/apps/rDock/src/rDock_2013.1_src/data/scripts/dock_solv.prm

>  <Rbt.Receptor>
prm/blind_docking_40.prm

>  <SCORE>
-10.8521

>  <SCORE.INTER>
-8.47926

>  <SCORE.INTER.CONST>
1

>  <SCORE.INTER.POLAR>
0

>  <SCORE.INTER.ROT>
7

>  <SCORE.INTER.SOLV>
10.0286

>  <SCORE.INTER.VDW>
-17.2624

>  <SCORE.INTER.norm>
-0.326125

>  <SCORE.INTRA>
-2.37281

>  <SCORE.INTRA.DIHEDRAL>
0.153546

>  <SCORE.INTRA.DIHEDRAL.0>
6.97628

>  <SCORE.INTRA.POLAR>
0

>  <SCORE.INTRA.POLAR.0>
0

>  <SCORE.INTRA.REPUL>
0

>  <SCORE.INTRA.REPUL.0>
0

>  <SCORE.INTRA.SOLV>
-0.587829

>  <SCORE.INTRA.SOLV.lig_0>
-49.8243

>  <SCORE.INTRA.VDW>
-2.15567

>  <SCORE.INTRA.VDW.0>
-1.35881

>  <SCORE.INTRA.norm>
-0.0912619

>  <SCORE.RESTR>
0

>  <SCORE.RESTR.CAVITY>
0

>  <SCORE.RESTR.norm>
0

>  <SCORE.SYSTEM>
0

>  <SCORE.SYSTEM.CONST>
0

>  <SCORE.SYSTEM.DIHEDRAL>
0

>  <SCORE.SYSTEM.SOLV>
0

>  <SCORE.SYSTEM.norm>
0

>  <SCORE.heavy>
26

>  <SCORE.norm>
-0.417387

>  <RMSD>
12.540

$$$$
ligand
 OpenBabel11021811483D
libRbt.so/2013.1/901 2013/11/27
 26 28  0  0  0  0  0  0  0  0999 V2000
   28.6970   12.2851    4.3345 N   0  0  0  0  0  0  0  0  0  0  0  0
   28.2404   12.2921    5.7187 C   0  0  2  0  0  0  0  0  0  0  0  0
   28.7953   13.4948    6.4733 C   0  0  0  0  0  0  0  0  0  0  0  0
   28.2663   13.8903    7.5114 O   0  0  0  0  0  0  0  0  0  0  0  0
   28.6457   11.0022    6.4209 C   0  0  0  0  0  0  0  0  0  0  0  0
   30.1281   10.6713    6.3081 C   0  0  0  0  0  0  0  0  0  0  0  0
   30.4707    8.9156    6.5880 S   0  0  0  0  0  0  0  0  0  0  0  0
   29.6392    8.5022    5.0337 C   0  0  0  0  0  0  0  0  0  0  0  0
   28.5638    7.4361    5.2072 C   0  0  1  0  0  0  0  0  0  0  0  0
   29.0630    6.1753    4.7995 O   0  0  0  0  0  0  0  0  0  0  0  0
   28.1258    7.3153    6.6576 C   0  0  1  0  0  0  0  0  0  0  0  0
   26.7674    7.6644    6.7804 O   0  0  0  0  0  0  0  0  0  0  0  0
   28.3235    5.8604    7.0296 C   0  0  1  0  0  0  0  0  0  0  0  0
   27.1026    5.2984    7.4512 O   0  0  0  0  0  0  0  0  0  0  0  0
   28.8070    5.1722    5.7646 C   0  0  2  0  0  0  0  0  0  0  0  0
   29.7867   14.0991    6.0624 O   0  0  0  0  0  0  0  0  0  0  0  0
   30.8658    0.4857    6.9331 N   0  0  0  0  0  0  0  0  0  0  0  0
   29.5373    0.8073    6.7403 C   0  0  0  0  0  0  0  0  0  0  0  0
   29.1731    2.1041    6.4362 N   0  0  0  0  0  0  0  0  0  0  0  0
   30.1161    3.0714    6.3262 C   0  0  0  0  0  0  0  0  0  0  0  0
   31.4572    2.7678    6.5171 C   0  0  0  0  0  0  0  0  0  0  0  0
   31.8321    1.4650    6.8226 C   0  0  0  0  0  0  0  0  0  0  0  0
   33.1136    1.1628    7.0085 N   0  0  0  0  0  0  0  0  0  0  0  0
   32.1685    3.9036    6.3495 N   0  0  0  0  0  0  0  0  0  0  0  0
   31.3154    4.9127    6.0592 C   0  0  0  0  0  0  0  0  0  0  0  0
   30.0392    4.4120    6.0411 N   0  0  0  0  0  0  0  0  0  0  0  0
  2  1  1  6  0  0  0
  2  3  1  0  0  0  0
  2  5  1  0  0  0  0
  3  4  1  0  0  0  0
  3 16  1  0  0  0  0
  5  6  1  0  0  0  0
  6  7  1  0  0  0  0
  7  8  1  0  0  0  0
  9  8  1  1  0  0  0
  9 10  1  0  0  0  0
  9 11  1  0  0  0  0
 10 15  1  0  0  0  0
 11 12  1  6  0  0  0
 11 13  1  0  0  0  0
 13 14  1  6  0  0  0
 13 15  1  0  0  0  0
 15 26  1  1  0  0  0
 17 18  2  0  0  0  0
 17 22  1  0  0  0  0
 18 19  1  0  0  0  0
 19 20  2  0  0  0  0
 20 21  1  0  0  0  0
 20 26  1  0  0  0  0
 21 22  2  0  0  0  0
 21 24  1  0  0  0  0
 22 23  1  0  0  0  0
 24 25  2  0  0  0  0
 25 26  1  0  0  0  0
M  END
>  <CHROM.1>
160.11596619,52.57351156,-158.79848367,68.76932878,-127.50845355,-100.41645368
-145.01995740,29.57038243,6.97626443,6.30069333,-1.75161017,-0.05814163,3.08874516

>  <Name>
ligand

>  <RI>
0

>  <Rbt.Current_Directory>
/home/itssahil/PROJECTS/Mol_Feturizer/New_Systems/rnas/3NPQ

>  <Rbt.Executable>
rbdock ($Id: //depot/dev/client3/rdock/2013.1/src/exe/rbdock.cxx#4 $)

>  <Rbt.Library>
libRbt.so (2013.1, Build901 2013/11/27)

>  <Rbt.Parameter_File>
/export/apps/rDock/src/rDock_2013.1_src/data/scripts/dock_solv.prm

>  <Rbt.Receptor>
prm/blind_docking_40.prm

>  <SCORE>
-4.86987

>  <SCORE.INTER>
-8.11752

>  <SCORE.INTER.CONST>
1

>  <SCORE.INTER.POLAR>
0

>  <SCORE.INTER.ROT>
7

>  <SCORE.INTER.SOLV>
7.43434

>  <SCORE.INTER.VDW>
-16.1565

>  <SCORE.INTER.norm>
-0.312212

>  <SCORE.INTRA>
3.20826

>  <SCORE.INTRA.DIHEDRAL>
3.89294

>  <SCORE.INTRA.DIHEDRAL.0>
6.97628

>  <SCORE.INTRA.POLAR>
0

>  <SCORE.INTRA.POLAR.0>
0

>  <SCORE.INTRA.REPUL>
0

>  <SCORE.INTRA.REPUL.0>
0

>  <SCORE.INTRA.SOLV>
0.840441

>  <SCORE.INTRA.SOLV.lig_0>
-49.8243

>  <SCORE.INTRA.VDW>
0.841569

>  <SCORE.INTRA.VDW.0>
-1.35881

>  <SCORE.INTRA.norm>
0.123395

>  <SCORE.RESTR>
0.0393922

>  <SCORE.RESTR.CAVITY>
0.0393922

>  <SCORE.RESTR.norm>
0.00151508

>  <SCORE.SYSTEM>
0

>  <SCORE.SYSTEM.CONST>
0

>  <SCORE.SYSTEM.DIHEDRAL>
0

>  <SCORE.SYSTEM.SOLV>
0

>  <SCORE.SYSTEM.norm>
0

>  <SCORE.heavy>
26

>  <SCORE.norm>
-0.187303

>  <RMSD>
12.612

$$$$
ligand
 OpenBabel11021811483D
libRbt.so/2013.1/901 2013/11/27
 26 28  0  0  0  0  0  0  0  0999 V2000
   23.9209   15.6537    6.4433 N   0  0  0  0  0  0  0  0  0  0  0  0
   24.5334   14.3464    6.6445 C   0  0  2  0  0  0  0  0  0  0  0  0
   26.0537   14.4527    6.6806 C   0  0  0  0  0  0  0  0  0  0  0  0
   26.7174   13.7765    7.4656 O   0  0  0  0  0  0  0  0  0  0  0  0
   24.1031   13.3808    5.5474 C   0  0  0  0  0  0  0  0  0  0  0  0
   24.6364   11.9647    5.7201 C   0  0  0  0  0  0  0  0  0  0  0  0
   24.1944   11.2471    7.3227 S   0  0  0  0  0  0  0  0  0  0  0  0
   25.1318    9.7525    6.9154 C   0  0  0  0  0  0  0  0  0  0  0  0
   26.6331    9.9277    7.1118 C   0  0  1  0  0  0  0  0  0  0  0  0
   27.2143    8.7008    7.5139 O   0  0  0  0  0  0  0  0  0  0  0  0
   27.3170   10.3668    5.8273 C   0  0  1  0  0  0  0  0  0  0  0  0
   27.8850   11.6438    5.9972 O   0  0  0  0  0  0  0  0  0  0  0  0
   28.4046    9.3451    5.5678 C   0  0  1  0  0  0  0  0  0  0  0  0
   29.6607    9.9800    5.5083 O   0  0  0  0  0  0  0  0  0  0  0  0
   28.3592    8.3849    6.7440 C   0  0  2  0  0  0  0  0  0  0  0  0
   26.6541   15.2174    5.9246 O   0  0  0  0  0  0  0  0  0  0  0  0
   30.9800    3.9397    5.7751 N   0  0  0  0  0  0  0  0  0  0  0  0
   31.4755    5.1286    6.2714 C   0  0  0  0  0  0  0  0  0  0  0  0
   30.6333    6.2056    6.4653 N   0  0  0  0  0  0  0  0  0  0  0  0
   29.3146    6.1048    6.1688 C   0  0  0  0  0  0  0  0  0  0  0  0
   28.7976    4.9177    5.6682 C   0  0  0  0  0  0  0  0  0  0  0  0
   29.6382    3.8288    5.4710 C   0  0  0  0  0  0  0  0  0  0  0  0
   29.1542    2.6871    4.9912 N   0  0  0  0  0  0  0  0  0  0  0  0
   27.4742    5.0939    5.4642 N   0  0  0  0  0  0  0  0  0  0  0  0
   27.1430    6.3562    5.8211 C   0  0  0  0  0  0  0  0  0  0  0  0
   28.2739    6.9952    6.2600 N   0  0  0  0  0  0  0  0  0  0  0  0
  2  1  1  6  0  0  0
  2  3  1  0  0  0  0
  2  5  1  0  0  0  0
  3  4  1  0  0  0  0
  3 16  1  0  0  0  0
  5  6  1  0  0  0  0
  6  7  1  0  0  0  0
  7  8  1  0  0  0  0
  9  8  1  6  0  0  0
  9 10  1  0  0  0  0
  9 11  1  0  0  0  0
 10 15  1  0  0  0  0
 11 12  1  1  0  0  0
 11 13  1  0  0  0  0
 13 14  1  1  0  0  0
 13 15  1  0  0  0  0
 15 26  1  6  0  0  0
 17 18  2  0  0  0  0
 17 22  1  0  0  0  0
 18 19  1  0  0  0  0
 19 20  2  0  0  0  0
 20 21  1  0  0  0  0
 20 26  1  0  0  0  0
 21 22  2  0  0  0  0
 21 24  1  0  0  0  0
 22 23  1  0  0  0  0
 24 25  2  0  0  0  0
 25 26  1  0  0  0  0
M  END
>  <CHROM.1>
141.08302465,-176.83081718,55.78897409,-177.40527696,79.21523481,147.60643619
-141.31505727,27.28436489,9.43685533,6.26844274,2.03768928,0.09885951,0.03269136

>  <Name>
ligand

>  <RI>
0

>  <Rbt.Current_Directory>
/home/itssahil/PROJECTS/Mol_Feturizer/New_Systems/rnas/3NPQ

>  <Rbt.Executable>
rbdock ($Id: //depot/dev/client3/rdock/2013.1/src/exe/rbdock.cxx#4 $)

>  <Rbt.Library>
libRbt.so (2013.1, Build901 2013/11/27)

>  <Rbt.Parameter_File>
/export/apps/rDock/src/rDock_2013.1_src/data/scripts/dock_solv.prm

>  <Rbt.Receptor>
prm/blind_docking_40.prm

>  <SCORE>
-7.78347

>  <SCORE.INTER>
-5.70351

>  <SCORE.INTER.CONST>
1

>  <SCORE.INTER.POLAR>
0

>  <SCORE.INTER.ROT>
7

>  <SCORE.INTER.SOLV>
15.6321

>  <SCORE.INTER.VDW>
-17.2797

>  <SCORE.INTER.norm>
-0.219366

>  <SCORE.INTRA>
-2.07996

>  <SCORE.INTRA.DIHEDRAL>
-0.670108

>  <SCORE.INTRA.DIHEDRAL.0>
6.97628

>  <SCORE.INTRA.POLAR>
0

>  <SCORE.INTRA.POLAR.0>
0

>  <SCORE.INTRA.REPUL>
0

>  <SCORE.INTRA.REPUL.0>
0

>  <SCORE.INTRA.SOLV>
-0.265212

>  <SCORE.INTRA.SOLV.lig_0>
-49.8243

>  <SCORE.INTRA.VDW>
-1.6123

>  <SCORE.INTRA.VDW.0>
-1.35881

>  <SCORE.INTRA.norm>
-0.0799984

>  <SCORE.RESTR>
0

>  <SCORE.RESTR.CAVITY>
0

>  <SCORE.RESTR.norm>
0

>  <SCORE.SYSTEM>
0

>  <SCORE.SYSTEM.CONST>
0

>  <SCORE.SYSTEM.DIHEDRAL>
0

>  <SCORE.SYSTEM.SOLV>
0

>  <SCORE.SYSTEM.norm>
0

>  <SCORE.heavy>
26

>  <SCORE.norm>
-0.299364

>  <RMSD>
12.629

$$$$
ligand
 OpenBabel11021811483D
libRbt.so/2013.1/901 2013/11/27
 26 28  0  0  0  0  0  0  0  0999 V2000
   25.4750   16.0801   12.0959 N   0  0  0  0  0  0  0  0  0  0  0  0
   26.1813   15.4459   10.9898 C   0  0  2  0  0  0  0  0  0  0  0  0
   25.7011   15.9891    9.6488 C   0  0  0  0  0  0  0  0  0  0  0  0
   24.8252   16.8513    9.5917 O   0  0  0  0  0  0  0  0  0  0  0  0
   25.9986   13.9341   11.0367 C   0  0  0  0  0  0  0  0  0  0  0  0
   24.5777   13.4884   11.3562 C   0  0  0  0  0  0  0  0  0  0  0  0
   23.3977   13.9509   10.0631 S   0  0  0  0  0  0  0  0  0  0  0  0
   24.0043   12.5996    9.0218 C   0  0  0  0  0  0  0  0  0  0  0  0
   24.3573   13.0567    7.6112 C   0  0  1  0  0  0  0  0  0  0  0  0
   25.7600   13.2063    7.4885 O   0  0  0  0  0  0  0  0  0  0  0  0
   23.9046   12.0484    6.5677 C   0  0  1  0  0  0  0  0  0  0  0  0
   22.9361   12.6288    5.7266 O   0  0  0  0  0  0  0  0  0  0  0  0
   25.1422   11.6963    5.7687 C   0  0  1  0  0  0  0  0  0  0  0  0
   24.9394   11.9928    4.4066 O   0  0  0  0  0  0  0  0  0  0  0  0
   26.2576   12.5603    6.3316 C   0  0  2  0  0  0  0  0  0  0  0  0
   26.1787   15.5785    8.5905 O   0  0  0  0  0  0  0  0  0  0  0  0
   30.4669    9.9811    4.5438 N   0  0  0  0  0  0  0  0  0  0  0  0
   29.5447   10.7098    3.8200 C   0  0  0  0  0  0  0  0  0  0  0  0
   28.4896   11.3282    4.4613 N   0  0  0  0  0  0  0  0  0  0  0  0
   28.3501   11.2236    5.8054 C   0  0  0  0  0  0  0  0  0  0  0  0
   29.2669   10.4947    6.5505 C   0  0  0  0  0  0  0  0  0  0  0  0
   30.3321    9.8701    5.9129 C   0  0  0  0  0  0  0  0  0  0  0  0
   31.2158    9.1685    6.6164 N   0  0  0  0  0  0  0  0  0  0  0  0
   28.8923   10.5567    7.8466 N   0  0  0  0  0  0  0  0  0  0  0  0
   27.7673   11.3023    7.9394 C   0  0  0  0  0  0  0  0  0  0  0  0
   27.4190   11.7229    6.6817 N   0  0  0  0  0  0  0  0  0  0  0  0
  2  1  1  1  0  0  0
  2  3  1  0  0  0  0
  2  5  1  0  0  0  0
  3  4  1  0  0  0  0
  3 16  1  0  0  0  0
  5  6  1  0  0  0  0
  6  7  1  0  0  0  0
  7  8  1  0  0  0  0
  9  8  1  1  0  0  0
  9 10  1  0  0  0  0
  9 11  1  0  0  0  0
 10 15  1  0  0  0  0
 11 12  1  6  0  0  0
 11 13  1  0  0  0  0
 13 14  1  6  0  0  0
 13 15  1  0  0  0  0
 15 26  1  1  0  0  0
 17 18  2  0  0  0  0
 17 22  1  0  0  0  0
 18 19  1  0  0  0  0
 19 20  2  0  0  0  0
 20 21  1  0  0  0  0
 20 26  1  0  0  0  0
 21 22  2  0  0  0  0
 21 24  1  0  0  0  0
 22 23  1  0  0  0  0
 24 25  2  0  0  0  0
 25 26  1  0  0  0  0
M  END
>  <CHROM.1>
-0.03315854,42.80875189,65.16646252,76.50831616,-129.43406530,101.38385509
-162.68299268,26.35156551,12.72580925,7.69864972,-2.22363912,0.30465457,-2.10080435

>  <Name>
ligand

>  <RI>
0

>  <Rbt.Current_Directory>
/home/itssahil/PROJECTS/Mol_Feturizer/New_Systems/rnas/3NPQ

>  <Rbt.Executable>
rbdock ($Id: //depot/dev/client3/rdock/2013.1/src/exe/rbdock.cxx#4 $)

>  <Rbt.Library>
libRbt.so (2013.1, Build901 2013/11/27)

>  <Rbt.Parameter_File>
/export/apps/rDock/src/rDock_2013.1_src/data/scripts/dock_solv.prm

>  <Rbt.Receptor>
prm/blind_docking_60.prm

>  <SCORE>
-2.77601

>  <SCORE.INTER>
-3.61885

>  <SCORE.INTER.CONST>
1

>  <SCORE.INTER.POLAR>
0

>  <SCORE.INTER.ROT>
7

>  <SCORE.INTER.SOLV>
12.6662

>  <SCORE.INTER.VDW>
-14.9013

>  <SCORE.INTER.norm>
-0.139187

>  <SCORE.INTRA>
0.842844

>  <SCORE.INTRA.DIHEDRAL>
3.71977

>  <SCORE.INTRA.DIHEDRAL.0>
6.97628

>  <SCORE.INTRA.POLAR>
0

>  <SCORE.INTRA.POLAR.0>
0

>  <SCORE.INTRA.REPUL>
0

>  <SCORE.INTRA.REPUL.0>
0

>  <SCORE.INTRA.SOLV>
1.02689

>  <SCORE.INTRA.SOLV.lig_0>
-49.8243

>  <SCORE.INTRA.VDW>
-1.53048

>  <SCORE.INTRA.VDW.0>
-1.35881

>  <SCORE.INTRA.norm>
0.0324171

>  <SCORE.RESTR>
0

>  <SCORE.RESTR.CAVITY>
0

>  <SCORE.RESTR.norm>
0

>  <SCORE.SYSTEM>
0

>  <SCORE.SYSTEM.CONST>
0

>  <SCORE.SYSTEM.DIHEDRAL>
0

>  <SCORE.SYSTEM.SOLV>
0

>  <SCORE.SYSTEM.norm>
0

>  <SCORE.heavy>
26

>  <SCORE.norm>
-0.10677

>  <RMSD>
12.699

$$$$
ligand
 OpenBabel11021811483D
libRbt.so/2013.1/901 2013/11/27
 26 28  0  0  0  0  0  0  0  0999 V2000
   22.9215   15.9735    7.4365 N   0  0  0  0  0  0  0  0  0  0  0  0
   23.5703   14.6887    7.2066 C   0  0  2  0  0  0  0  0  0  0  0  0
   23.0974   13.6472    8.2143 C   0  0  0  0  0  0  0  0  0  0  0  0
   22.8298   12.4995    7.8605 O   0  0  0  0  0  0  0  0  0  0  0  0
   25.0851   14.8353    7.2788 C   0  0  0  0  0  0  0  0  0  0  0  0
   25.8520   13.5896    6.8549 C   0  0  0  0  0  0  0  0  0  0  0  0
   27.6185   13.9087    6.6186 S   0  0  0  0  0  0  0  0  0  0  0  0
   27.9731   12.1513    6.8716 C   0  0  0  0  0  0  0  0  0  0  0  0
   29.1779   11.6727    6.0699 C   0  0  1  0  0  0  0  0  0  0  0  0
   29.5553   10.3752    6.4929 O   0  0  0  0  0  0  0  0  0  0  0  0
   28.8683   11.6049    4.5833 C   0  0  1  0  0  0  0  0  0  0  0  0
   29.6828   12.5133    3.8806 O   0  0  0  0  0  0  0  0  0  0  0  0
   29.1868   10.1863    4.1588 C   0  0  1  0  0  0  0  0  0  0  0  0
   30.1589   10.1930    3.1393 O   0  0  0  0  0  0  0  0  0  0  0  0
   29.7325    9.4967    5.3974 C   0  0  2  0  0  0  0  0  0  0  0  0
   22.9722   13.9293    9.4065 O   0  0  0  0  0  0  0  0  0  0  0  0
   25.5315    7.2434    7.5977 N   0  0  0  0  0  0  0  0  0  0  0  0
   25.8814    8.5787    7.6027 C   0  0  0  0  0  0  0  0  0  0  0  0
   27.0331    8.9979    6.9666 N   0  0  0  0  0  0  0  0  0  0  0  0
   27.8297    8.1023    6.3340 C   0  0  0  0  0  0  0  0  0  0  0  0
   27.4951    6.7551    6.3183 C   0  0  0  0  0  0  0  0  0  0  0  0
   26.3372    6.3252    6.9553 C   0  0  0  0  0  0  0  0  0  0  0  0
   26.0072    5.0371    6.9476 N   0  0  0  0  0  0  0  0  0  0  0  0
   28.4506    6.0973    5.6266 N   0  0  0  0  0  0  0  0  0  0  0  0
   29.3764    6.9900    5.2069 C   0  0  0  0  0  0  0  0  0  0  0  0
   29.0050    8.2375    5.6378 N   0  0  0  0  0  0  0  0  0  0  0  0
  2  1  1  1  0  0  0
  2  3  1  0  0  0  0
  2  5  1  0  0  0  0
  3  4  1  0  0  0  0
  3 16  1  0  0  0  0
  5  6  1  0  0  0  0
  6  7  1  0  0  0  0
  7  8  1  0  0  0  0
  9  8  1  1  0  0  0
  9 10  1  0  0  0  0
  9 11  1  0  0  0  0
 10 15  1  0  0  0  0
 11 12  1  6  0  0  0
 11 13  1  0  0  0  0
 13 14  1  6  0  0  0
 13 15  1  0  0  0  0
 15 26  1  1  0  0  0
 17 18  2  0  0  0  0
 17 22  1  0  0  0  0
 18 19  1  0  0  0  0
 19 20  2  0  0  0  0
 20 21  1  0  0  0  0
 20 26  1  0  0  0  0
 21 22  2  0  0  0  0
 21 24  1  0  0  0  0
 22 23  1  0  0  0  0
 24 25  2  0  0  0  0
 25 26  1  0  0  0  0
M  END
>  <CHROM.1>
137.04927446,-171.68086536,167.86921959,157.45031283,148.17515458,169.16285736
32.47625648,26.99791824,10.77862031,6.41418416,2.21214938,0.52668201,-0.07138338

>  <Name>
ligand

>  <RI>
0

>  <Rbt.Current_Directory>
/home/itssahil/PROJECTS/Mol_Feturizer/New_Systems/rnas/3NPQ

>  <Rbt.Executable>
rbdock ($Id: //depot/dev/client3/rdock/2013.1/src/exe/rbdock.cxx#4 $)

>  <Rbt.Library>
libRbt.so (2013.1, Build901 2013/11/27)

>  <Rbt.Parameter_File>
/export/apps/rDock/src/rDock_2013.1_src/data/scripts/dock_solv.prm

>  <Rbt.Receptor>
prm/blind_docking_40.prm

>  <SCORE>
-6.34424

>  <SCORE.INTER>
-3.82619

>  <SCORE.INTER.CONST>
1

>  <SCORE.INTER.POLAR>
0

>  <SCORE.INTER.ROT>
7

>  <SCORE.INTER.SOLV>
18.6579

>  <SCORE.INTER.VDW>
-17.0368

>  <SCORE.INTER.norm>
-0.147161

>  <SCORE.INTRA>
-2.51805

>  <SCORE.INTRA.DIHEDRAL>
-1.04361

>  <SCORE.INTRA.DIHEDRAL.0>
6.97628

>  <SCORE.INTRA.POLAR>
0

>  <SCORE.INTRA.POLAR.0>
0

>  <SCORE.INTRA.REPUL>
0

>  <SCORE.INTRA.REPUL.0>
0

>  <SCORE.INTRA.SOLV>
-0.810636

>  <SCORE.INTRA.SOLV.lig_0>
-49.8243

>  <SCORE.INTRA.VDW>
-1.59093

>  <SCORE.INTRA.VDW.0>
-1.35881

>  <SCORE.INTRA.norm>
-0.096848

>  <SCORE.RESTR>
0

>  <SCORE.RESTR.CAVITY>
0

>  <SCORE.RESTR.norm>
0

>  <SCORE.SYSTEM>
0

>  <SCORE.SYSTEM.CONST>
0

>  <SCORE.SYSTEM.DIHEDRAL>
0

>  <SCORE.SYSTEM.SOLV>
0

>  <SCORE.SYSTEM.norm>
0

>  <SCORE.heavy>
26

>  <SCORE.norm>
-0.244009

>  <RMSD>
12.751

$$$$
ligand
 OpenBabel11021811483D
libRbt.so/2013.1/901 2013/11/27
 26 28  0  0  0  0  0  0  0  0999 V2000
   23.3368   18.1889    4.9819 N   0  0  0  0  0  0  0  0  0  0  0  0
   23.0112   17.0198    5.7892 C   0  0  2  0  0  0  0  0  0  0  0  0
   22.3147   17.4237    7.0837 C   0  0  0  0  0  0  0  0  0  0  0  0
   22.7743   18.3128    7.7994 O   0  0  0  0  0  0  0  0  0  0  0  0
   24.2693   16.2191    6.1008 C   0  0  0  0  0  0  0  0  0  0  0  0
   24.0032   14.7779    6.5155 C   0  0  0  0  0  0  0  0  0  0  0  0
   23.2068   14.6580    8.1372 S   0  0  0  0  0  0  0  0  0  0  0  0
   23.7673   12.9431    8.2891 C   0  0  0  0  0  0  0  0  0  0  0  0
   24.9456   12.7916    9.2441 C   0  0  1  0  0  0  0  0  0  0  0  0
   25.6006   11.5579    9.0116 O   0  0  0  0  0  0  0  0  0  0  0  0
   25.9657   13.9022    9.0532 C   0  0  1  0  0  0  0  0  0  0  0  0
   26.0576   14.6773   10.2250 O   0  0  0  0  0  0  0  0  0  0  0  0
   27.2855   13.2097    8.7840 C   0  0  1  0  0  0  0  0  0  0  0  0
   28.2387   13.5932    9.7477 O   0  0  0  0  0  0  0  0  0  0  0  0
   27.0014   11.7214    8.8926 C   0  0  2  0  0  0  0  0  0  0  0  0
   21.2751   16.8703    7.4439 O   0  0  0  0  0  0  0  0  0  0  0  0
   31.0372    9.2328    6.6374 N   0  0  0  0  0  0  0  0  0  0  0  0
   30.9804    9.7941    7.8972 C   0  0  0  0  0  0  0  0  0  0  0  0
   29.8254   10.4150    8.3301 N   0  0  0  0  0  0  0  0  0  0  0  0
   28.7395   10.4797    7.5217 C   0  0  0  0  0  0  0  0  0  0  0  0
   28.7773    9.9216    6.2512 C   0  0  0  0  0  0  0  0  0  0  0  0
   29.9355    9.2941    5.8083 C   0  0  0  0  0  0  0  0  0  0  0  0
   29.9835    8.7569    4.5929 N   0  0  0  0  0  0  0  0  0  0  0  0
   27.5752   10.1270    5.6708 N   0  0  0  0  0  0  0  0  0  0  0  0
   26.7822   10.7977    6.5378 C   0  0  0  0  0  0  0  0  0  0  0  0
   27.4904   11.0235    7.6900 N   0  0  0  0  0  0  0  0  0  0  0  0
  2  1  1  1  0  0  0
  2  3  1  0  0  0  0
  2  5  1  0  0  0  0
  3  4  1  0  0  0  0
  3 16  1  0  0  0  0
  5  6  1  0  0  0  0
  6  7  1  0  0  0  0
  7  8  1  0  0  0  0
  9  8  1  6  0  0  0
  9 10  1  0  0  0  0
  9 11  1  0  0  0  0
 10 15  1  0  0  0  0
 11 12  1  1  0  0  0
 11 13  1  0  0  0  0
 13 14  1  1  0  0  0
 13 15  1  0  0  0  0
 15 26  1  6  0  0  0
 17 18  2  0  0  0  0
 17 22  1  0  0  0  0
 18 19  1  0  0  0  0
 19 20  2  0  0  0  0
 20 21  1  0  0  0  0
 20 26  1  0  0  0  0
 21 22  2  0  0  0  0
 21 24  1  0  0  0  0
 22 23  1  0  0  0  0
 24 25  2  0  0  0  0
 25 26  1  0  0  0  0
M  END
>  <CHROM.1>
-48.87668733,-160.46207520,-69.00697320,-159.36532383,104.24626591,-161.62617132
-150.93469888,26.08187421,13.16743409,7.53983819,3.07653853,-0.80029570,1.51957166

>  <Name>
ligand

>  <RI>
0

>  <Rbt.Current_Directory>
/home/itssahil/PROJECTS/Mol_Feturizer/New_Systems/rnas/3NPQ

>  <Rbt.Executable>
rbdock ($Id: //depot/dev/client3/rdock/2013.1/src/exe/rbdock.cxx#4 $)

>  <Rbt.Library>
libRbt.so (2013.1, Build901 2013/11/27)

>  <Rbt.Parameter_File>
/export/apps/rDock/src/rDock_2013.1_src/data/scripts/dock_solv.prm

>  <Rbt.Receptor>
prm/blind_docking_60.prm

>  <SCORE>
-8.07233

>  <SCORE.INTER>
-7.28723

>  <SCORE.INTER.CONST>
1

>  <SCORE.INTER.POLAR>
0

>  <SCORE.INTER.ROT>
7

>  <SCORE.INTER.SOLV>
14.9345

>  <SCORE.INTER.VDW>
-18.103

>  <SCORE.INTER.norm>
-0.280278

>  <SCORE.INTRA>
-0.785103

>  <SCORE.INTRA.DIHEDRAL>
1.14854

>  <SCORE.INTRA.DIHEDRAL.0>
6.97628

>  <SCORE.INTRA.POLAR>
0

>  <SCORE.INTRA.POLAR.0>
0

>  <SCORE.INTRA.REPUL>
0

>  <SCORE.INTRA.REPUL.0>
0

>  <SCORE.INTRA.SOLV>
-0.460403

>  <SCORE.INTRA.SOLV.lig_0>
-49.8243

>  <SCORE.INTRA.VDW>
-1.12917

>  <SCORE.INTRA.VDW.0>
-1.35881

>  <SCORE.INTRA.norm>
-0.0301963

>  <SCORE.RESTR>
0

>  <SCORE.RESTR.CAVITY>
0

>  <SCORE.RESTR.norm>
0

>  <SCORE.SYSTEM>
0

>  <SCORE.SYSTEM.CONST>
0

>  <SCORE.SYSTEM.DIHEDRAL>
0

>  <SCORE.SYSTEM.SOLV>
0

>  <SCORE.SYSTEM.norm>
0

>  <SCORE.heavy>
26

>  <SCORE.norm>
-0.310474

>  <RMSD>
12.880

$$$$
ligand
 OpenBabel11021811483D
libRbt.so/2013.1/901 2013/11/27
 26 28  0  0  0  0  0  0  0  0999 V2000
   25.0743   16.5519    8.8290 N   0  0  0  0  0  0  0  0  0  0  0  0
   24.1838   16.6399    7.6785 C   0  0  2  0  0  0  0  0  0  0  0  0
   23.3910   17.9418    7.6966 C   0  0  0  0  0  0  0  0  0  0  0  0
   23.5864   18.7903    8.5660 O   0  0  0  0  0  0  0  0  0  0  0  0
   23.2331   15.4497    7.6473 C   0  0  0  0  0  0  0  0  0  0  0  0
   23.9305   14.0976    7.5760 C   0  0  0  0  0  0  0  0  0  0  0  0
   22.7792   12.7122    7.7589 S   0  0  0  0  0  0  0  0  0  0  0  0
   24.1439   11.6428    8.2805 C   0  0  0  0  0  0  0  0  0  0  0  0
   24.6438   10.7381    7.1603 C   0  0  1  0  0  0  0  0  0  0  0  0
   25.2850   11.5126    6.1633 O   0  0  0  0  0  0  0  0  0  0  0  0
   25.6471    9.7174    7.6723 C   0  0  1  0  0  0  0  0  0  0  0  0
   25.1369    8.4159    7.5049 O   0  0  0  0  0  0  0  0  0  0  0  0
   26.8907    9.9001    6.8273 C   0  0  1  0  0  0  0  0  0  0  0  0
   27.2108    8.6957    6.1706 O   0  0  0  0  0  0  0  0  0  0  0  0
   26.5457   10.9746    5.8105 C   0  0  2  0  0  0  0  0  0  0  0  0
   22.5363   18.1759    6.8414 O   0  0  0  0  0  0  0  0  0  0  0  0
   30.8479   12.9149    3.5098 N   0  0  0  0  0  0  0  0  0  0  0  0
   30.1238   11.7951    3.1532 C   0  0  0  0  0  0  0  0  0  0  0  0
   29.0074   11.4291    3.8787 N   0  0  0  0  0  0  0  0  0  0  0  0
   28.6145   12.1648    4.9471 C   0  0  0  0  0  0  0  0  0  0  0  0
   29.3299   13.2940    5.3217 C   0  0  0  0  0  0  0  0  0  0  0  0
   30.4541   13.6697    4.5962 C   0  0  0  0  0  0  0  0  0  0  0  0
   31.1476   14.7488    4.9464 N   0  0  0  0  0  0  0  0  0  0  0  0
   28.7250   13.8293    6.4040 N   0  0  0  0  0  0  0  0  0  0  0  0
   27.6507   13.0709    6.7219 C   0  0  0  0  0  0  0  0  0  0  0  0
   27.5692   12.0351    5.8273 N   0  0  0  0  0  0  0  0  0  0  0  0
  2  1  1  1  0  0  0
  2  3  1  0  0  0  0
  2  5  1  0  0  0  0
  3  4  1  0  0  0  0
  3 16  1  0  0  0  0
  5  6  1  0  0  0  0
  6  7  1  0  0  0  0
  7  8  1  0  0  0  0
  9  8  1  1  0  0  0
  9 10  1  0  0  0  0
  9 11  1  0  0  0  0
 10 15  1  0  0  0  0
 11 12  1  6  0  0  0
 11 13  1  0  0  0  0
 13 14  1  6  0  0  0
 13 15  1  0  0  0  0
 15 26  1  1  0  0  0
 17 18  2  0  0  0  0
 17 22  1  0  0  0  0
 18 19  1  0  0  0  0
 19 20  2  0  0  0  0
 20 21  1  0  0  0  0
 20 26  1  0  0  0  0
 21 22  2  0  0  0  0
 21 24  1  0  0  0  0
 22 23  1  0  0  0  0
 24 25  2  0  0  0  0
 25 26  1  0  0  0  0
M  END
>  <CHROM.1>
3.49466207,-59.05440127,172.50720424,-157.83772561,-100.66624029,68.60102036
-142.29040234,26.18113630,13.09551500,6.54690448,-2.46804236,-0.47271098
-3.13729158

>  <Name>
ligand

>  <RI>
0

>  <Rbt.Current_Directory>
/home/itssahil/PROJECTS/Mol_Feturizer/New_Systems/rnas/3NPQ

>  <Rbt.Executable>
rbdock ($Id: //depot/dev/client3/rdock/2013.1/src/exe/rbdock.cxx#4 $)

>  <Rbt.Library>
libRbt.so (2013.1, Build901 2013/11/27)

>  <Rbt.Parameter_File>
/export/apps/rDock/src/rDock_2013.1_src/data/scripts/dock_solv.prm

>  <Rbt.Receptor>
prm/blind_docking_80.prm

>  <SCORE>
-12.806

>  <SCORE.INTER>
-11.0177

>  <SCORE.INTER.CONST>
1

>  <SCORE.INTER.POLAR>
0

>  <SCORE.INTER.ROT>
7

>  <SCORE.INTER.SOLV>
17.4678

>  <SCORE.INTER.VDW>
-21.4344

>  <SCORE.INTER.norm>
-0.423756

>  <SCORE.INTRA>
-1.78838

>  <SCORE.INTRA.DIHEDRAL>
-1.27341

>  <SCORE.INTRA.DIHEDRAL.0>
6.97628

>  <SCORE.INTRA.POLAR>
0

>  <SCORE.INTRA.POLAR.0>
0

>  <SCORE.INTRA.REPUL>
0

>  <SCORE.INTRA.REPUL.0>
0

>  <SCORE.INTRA.SOLV>
-0.198322

>  <SCORE.INTRA.SOLV.lig_0>
-49.8243

>  <SCORE.INTRA.VDW>
-1.05251

>  <SCORE.INTRA.VDW.0>
-1.35881

>  <SCORE.INTRA.norm>
-0.0687839

>  <SCORE.RESTR>
0

>  <SCORE.RESTR.CAVITY>
0

>  <SCORE.RESTR.norm>
0

>  <SCORE.SYSTEM>
0

>  <SCORE.SYSTEM.CONST>
0

>  <SCORE.SYSTEM.DIHEDRAL>
0

>  <SCORE.SYSTEM.SOLV>
0

>  <SCORE.SYSTEM.norm>
0

>  <SCORE.heavy>
26

>  <SCORE.norm>
-0.49254

>  <RMSD>
12.963

$$$$
ligand
 OpenBabel11021811483D
libRbt.so/2013.1/901 2013/11/27
 26 28  0  0  0  0  0  0  0  0999 V2000
   27.6252    7.4530    8.5951 N   0  0  0  0  0  0  0  0  0  0  0  0
   26.8761    7.4502    7.3447 C   0  0  2  0  0  0  0  0  0  0  0  0
   25.6300    8.3220    7.4498 C   0  0  0  0  0  0  0  0  0  0  0  0
   24.6657    7.9695    8.1279 O   0  0  0  0  0  0  0  0  0  0  0  0
   26.4880    6.0286    6.9582 C   0  0  0  0  0  0  0  0  0  0  0  0
   27.6714    5.0858    6.7838 C   0  0  0  0  0  0  0  0  0  0  0  0
   28.8296    5.6532    5.5129 S   0  0  0  0  0  0  0  0  0  0  0  0
   29.7720    4.1164    5.6811 C   0  0  0  0  0  0  0  0  0  0  0  0
   30.3543    3.9331    7.0777 C   0  0  1  0  0  0  0  0  0  0  0  0
   31.1609    2.7700    7.1161 O   0  0  0  0  0  0  0  0  0  0  0  0
   31.2224    5.1139    7.4804 C   0  0  1  0  0  0  0  0  0  0  0  0
   30.6608    5.7658    8.5948 O   0  0  0  0  0  0  0  0  0  0  0  0
   32.5713    4.5300    7.8459 C   0  0  1  0  0  0  0  0  0  0  0  0
   32.8993    4.8640    9.1745 O   0  0  0  0  0  0  0  0  0  0  0  0
   32.4217    3.0248    7.7067 C   0  0  2  0  0  0  0  0  0  0  0  0
   25.5587    9.4003    6.8589 O   0  0  0  0  0  0  0  0  0  0  0  0
   37.0141    0.4835    7.5682 N   0  0  0  0  0  0  0  0  0  0  0  0
   36.2647    0.8269    8.6754 C   0  0  0  0  0  0  0  0  0  0  0  0
   35.0689    1.5007    8.5237 N   0  0  0  0  0  0  0  0  0  0  0  0
   34.6224    1.8315    7.2875 C   0  0  0  0  0  0  0  0  0  0  0  0
   35.3620    1.4954    6.1619 C   0  0  0  0  0  0  0  0  0  0  0  0
   36.5660    0.8165    6.3059 C   0  0  0  0  0  0  0  0  0  0  0  0
   37.2834    0.4902    5.2349 N   0  0  0  0  0  0  0  0  0  0  0  0
   34.6923    1.9394    5.0764 N   0  0  0  0  0  0  0  0  0  0  0  0
   33.5536    2.5450    5.4851 C   0  0  0  0  0  0  0  0  0  0  0  0
   33.4964    2.4859    6.8538 N   0  0  0  0  0  0  0  0  0  0  0  0
  2  1  1  1  0  0  0
  2  3  1  0  0  0  0
  2  5  1  0  0  0  0
  3  4  1  0  0  0  0
  3 16  1  0  0  0  0
  5  6  1  0  0  0  0
  6  7  1  0  0  0  0
  7  8  1  0  0  0  0
  9  8  1  6  0  0  0
  9 10  1  0  0  0  0
  9 11  1  0  0  0  0
 10 15  1  0  0  0  0
 11 12  1  1  0  0  0
 11 13  1  0  0  0  0
 13 14  1  1  0  0  0
 13 15  1  0  0  0  0
 15 26  1  6  0  0  0
 17 18  2  0  0  0  0
 17 22  1  0  0  0  0
 18 19  1  0  0  0  0
 19 20  2  0  0  0  0
 20 21  1  0  0  0  0
 20 26  1  0  0  0  0
 21 22  2  0  0  0  0
 21 24  1  0  0  0  0
 22 23  1  0  0  0  0
 24 25  2  0  0  0  0
 25 26  1  0  0  0  0
M  END
>  <CHROM.1>
-71.42891748,-58.78229419,-59.00987926,-174.00094697,-61.71365224,-175.56646712
-139.24932011,31.22093147,4.24035151,7.08108300,-2.90454389,0.54338924,-1.94408244

>  <Name>
ligand

>  <RI>
0

>  <Rbt.Current_Directory>
/home/itssahil/PROJECTS/Mol_Feturizer/New_Systems/rnas/3NPQ

>  <Rbt.Executable>
rbdock ($Id: //depot/dev/client3/rdock/2013.1/src/exe/rbdock.cxx#4 $)

>  <Rbt.Library>
libRbt.so (2013.1, Build901 2013/11/27)

>  <Rbt.Parameter_File>
/export/apps/rDock/src/rDock_2013.1_src/data/scripts/dock_solv.prm

>  <Rbt.Receptor>
prm/blind_docking_40.prm

>  <SCORE>
-13.5177

>  <SCORE.INTER>
-11.9266

>  <SCORE.INTER.CONST>
1

>  <SCORE.INTER.POLAR>
0

>  <SCORE.INTER.ROT>
7

>  <SCORE.INTER.SOLV>
9.62326

>  <SCORE.INTER.VDW>
-19.4255

>  <SCORE.INTER.norm>
-0.458716

>  <SCORE.INTRA>
-1.59105

>  <SCORE.INTRA.DIHEDRAL>
-4.16462

>  <SCORE.INTRA.DIHEDRAL.0>
6.97628

>  <SCORE.INTRA.POLAR>
0

>  <SCORE.INTRA.POLAR.0>
0

>  <SCORE.INTRA.REPUL>
0

>  <SCORE.INTRA.REPUL.0>
0

>  <SCORE.INTRA.SOLV>
1.50071

>  <SCORE.INTRA.SOLV.lig_0>
-49.8243

>  <SCORE.INTRA.VDW>
-0.259088

>  <SCORE.INTRA.VDW.0>
-1.35881

>  <SCORE.INTRA.norm>
-0.0611941

>  <SCORE.RESTR>
0

>  <SCORE.RESTR.CAVITY>
0

>  <SCORE.RESTR.norm>
0

>  <SCORE.SYSTEM>
0

>  <SCORE.SYSTEM.CONST>
0

>  <SCORE.SYSTEM.DIHEDRAL>
0

>  <SCORE.SYSTEM.SOLV>
0

>  <SCORE.SYSTEM.norm>
0

>  <SCORE.heavy>
26

>  <SCORE.norm>
-0.51991

>  <RMSD>
13.125

$$$$
ligand
 OpenBabel11021811483D
libRbt.so/2013.1/901 2013/11/27
 26 28  0  0  0  0  0  0  0  0999 V2000
   24.9737   13.4337    5.9584 N   0  0  0  0  0  0  0  0  0  0  0  0
   25.6256   12.1462    6.1628 C   0  0  2  0  0  0  0  0  0  0  0  0
   24.6283   11.0955    6.6378 C   0  0  0  0  0  0  0  0  0  0  0  0
   24.7260    9.9223    6.2802 O   0  0  0  0  0  0  0  0  0  0  0  0
   26.7638   12.2777    7.1669 C   0  0  0  0  0  0  0  0  0  0  0  0
   27.5320   10.9852    7.4100 C   0  0  0  0  0  0  0  0  0  0  0  0
   28.4772   10.4561    5.9591 S   0  0  0  0  0  0  0  0  0  0  0  0
   28.6127    8.7886    6.6515 C   0  0  0  0  0  0  0  0  0  0  0  0
   27.4754    7.8743    6.2110 C   0  0  1  0  0  0  0  0  0  0  0  0
   27.9508    6.9324    5.2667 O   0  0  0  0  0  0  0  0  0  0  0  0
   26.8928    7.1027    7.3838 C   0  0  1  0  0  0  0  0  0  0  0  0
   25.5472    7.4683    7.5790 O   0  0  0  0  0  0  0  0  0  0  0  0
   26.9831    5.6398    7.0022 C   0  0  1  0  0  0  0  0  0  0  0  0
   25.7013    5.0559    7.0165 O   0  0  0  0  0  0  0  0  0  0  0  0
   27.5539    5.6140    5.5947 C   0  0  2  0  0  0  0  0  0  0  0  0
   23.7014   11.3958    7.3911 O   0  0  0  0  0  0  0  0  0  0  0  0
   32.6400    4.9707    6.7284 N   0  0  0  0  0  0  0  0  0  0  0  0
   31.8475    6.0749    6.9697 C   0  0  0  0  0  0  0  0  0  0  0  0
   30.5168    6.0693    6.6010 N   0  0  0  0  0  0  0  0  0  0  0  0
   29.9786    4.9812    5.9982 C   0  0  0  0  0  0  0  0  0  0  0  0
   30.7595    3.8614    5.7465 C   0  0  0  0  0  0  0  0  0  0  0  0
   32.0994    3.8586    6.1153 C   0  0  0  0  0  0  0  0  0  0  0  0
   32.8572    2.7919    5.8784 N   0  0  0  0  0  0  0  0  0  0  0  0
   29.9794    2.9369    5.1459 N   0  0  0  0  0  0  0  0  0  0  0  0
   28.7313    3.4413    5.0119 C   0  0  0  0  0  0  0  0  0  0  0  0
   28.7153    4.7082    5.5358 N   0  0  0  0  0  0  0  0  0  0  0  0
  2  1  1  1  0  0  0
  2  3  1  0  0  0  0
  2  5  1  0  0  0  0
  3  4  1  0  0  0  0
  3 16  1  0  0  0  0
  5  6  1  0  0  0  0
  6  7  1  0  0  0  0
  7  8  1  0  0  0  0
  9  8  1  1  0  0  0
  9 10  1  0  0  0  0
  9 11  1  0  0  0  0
 10 15  1  0  0  0  0
 11 12  1  6  0  0  0
 11 13  1  0  0  0  0
 13 14  1  6  0  0  0
 13 15  1  0  0  0  0
 15 26  1  1  0  0  0
 17 18  2  0  0  0  0
 17 22  1  0  0  0  0
 18 19  1  0  0  0  0
 19 20  2  0  0  0  0
 20 21  1  0  0  0  0
 20 26  1  0  0  0  0
 21 22  2  0  0  0  0
 21 24  1  0  0  0  0
 22 23  1  0  0  0  0
 24 25  2  0  0  0  0
 25 26  1  0  0  0  0
M  END
>  <CHROM.1>
144.57472681,-178.19100409,67.68402703,-162.25567592,91.04056945,106.82255460
41.67167759,28.04021028,7.52896411,6.35911573,-2.19455711,-0.05636630,-3.08634355

>  <Name>
ligand

>  <RI>
0

>  <Rbt.Current_Directory>
/home/itssahil/PROJECTS/Mol_Feturizer/New_Systems/rnas/3NPQ

>  <Rbt.Executable>
rbdock ($Id: //depot/dev/client3/rdock/2013.1/src/exe/rbdock.cxx#4 $)

>  <Rbt.Library>
libRbt.so (2013.1, Build901 2013/11/27)

>  <Rbt.Parameter_File>
/export/apps/rDock/src/rDock_2013.1_src/data/scripts/dock_solv.prm

>  <Rbt.Receptor>
prm/blind_docking_40.prm

>  <SCORE>
-12.1629

>  <SCORE.INTER>
-10.5547

>  <SCORE.INTER.CONST>
1

>  <SCORE.INTER.POLAR>
0

>  <SCORE.INTER.ROT>
7

>  <SCORE.INTER.SOLV>
9.30635

>  <SCORE.INTER.VDW>
-18.4053

>  <SCORE.INTER.norm>
-0.405951

>  <SCORE.INTRA>
-1.60821

>  <SCORE.INTRA.DIHEDRAL>
2.34304

>  <SCORE.INTRA.DIHEDRAL.0>
6.97628

>  <SCORE.INTRA.POLAR>
0

>  <SCORE.INTRA.POLAR.0>
0

>  <SCORE.INTRA.REPUL>
0

>  <SCORE.INTRA.REPUL.0>
0

>  <SCORE.INTRA.SOLV>
-0.625219

>  <SCORE.INTRA.SOLV.lig_0>
-49.8243

>  <SCORE.INTRA.VDW>
-2.46712

>  <SCORE.INTRA.VDW.0>
-1.35881

>  <SCORE.INTRA.norm>
-0.0618543

>  <SCORE.RESTR>
0

>  <SCORE.RESTR.CAVITY>
0

>  <SCORE.RESTR.norm>
0

>  <SCORE.SYSTEM>
0

>  <SCORE.SYSTEM.CONST>
0

>  <SCORE.SYSTEM.DIHEDRAL>
0

>  <SCORE.SYSTEM.SOLV>
0

>  <SCORE.SYSTEM.norm>
0

>  <SCORE.heavy>
26

>  <SCORE.norm>
-0.467805

>  <RMSD>
13.232

$$$$
ligand
 OpenBabel11021811483D
libRbt.so/2013.1/901 2013/11/27
 26 28  0  0  0  0  0  0  0  0999 V2000
   28.2072    6.4493    7.9497 N   0  0  0  0  0  0  0  0  0  0  0  0
   28.6724    7.2786    6.8450 C   0  0  2  0  0  0  0  0  0  0  0  0
   28.0668    6.8214    5.5228 C   0  0  0  0  0  0  0  0  0  0  0  0
   27.4356    5.7680    5.4460 O   0  0  0  0  0  0  0  0  0  0  0  0
   30.1933    7.2506    6.7603 C   0  0  0  0  0  0  0  0  0  0  0  0
   30.8348    8.6256    6.6269 C   0  0  0  0  0  0  0  0  0  0  0  0
   30.4429    9.4244    5.0499 S   0  0  0  0  0  0  0  0  0  0  0  0
   30.2092   11.0035    5.9043 C   0  0  0  0  0  0  0  0  0  0  0  0
   29.8576   12.1410    4.9526 C   0  0  1  0  0  0  0  0  0  0  0  0
   28.4511   12.2681    4.8500 O   0  0  0  0  0  0  0  0  0  0  0  0
   30.4095   13.4698    5.4425 C   0  0  1  0  0  0  0  0  0  0  0  0
   31.3523   13.9674    4.5227 O   0  0  0  0  0  0  0  0  0  0  0  0
   29.2215   14.4057    5.5257 C   0  0  1  0  0  0  0  0  0  0  0  0
   29.4348   15.5324    4.7076 O   0  0  0  0  0  0  0  0  0  0  0  0
   28.0314   13.6092    5.0190 C   0  0  2  0  0  0  0  0  0  0  0  0
   28.1942    7.4956    4.5001 O   0  0  0  0  0  0  0  0  0  0  0  0
   24.0853   11.0115    7.3098 N   0  0  0  0  0  0  0  0  0  0  0  0
   24.9674   10.5487    6.3542 C   0  0  0  0  0  0  0  0  0  0  0  0
   25.9537   11.3784    5.8587 N   0  0  0  0  0  0  0  0  0  0  0  0
   26.0627   12.6535    6.3049 C   0  0  0  0  0  0  0  0  0  0  0  0
   25.1847   13.1376    7.2651 C   0  0  0  0  0  0  0  0  0  0  0  0
   24.1899   12.3087    7.7696 C   0  0  0  0  0  0  0  0  0  0  0  0
   23.3427   12.7619    8.6889 N   0  0  0  0  0  0  0  0  0  0  0  0
   25.5173   14.4208    7.5234 N   0  0  0  0  0  0  0  0  0  0  0  0
   26.5779   14.7589    6.7545 C   0  0  0  0  0  0  0  0  0  0  0  0
   26.9274   13.6732    5.9936 N   0  0  0  0  0  0  0  0  0  0  0  0
  2  1  1  1  0  0  0
  2  3  1  0  0  0  0
  2  5  1  0  0  0  0
  3  4  1  0  0  0  0
  3 16  1  0  0  0  0
  5  6  1  0  0  0  0
  6  7  1  0  0  0  0
  7  8  1  0  0  0  0
  9  8  1  1  0  0  0
  9 10  1  0  0  0  0
  9 11  1  0  0  0  0
 10 15  1  0  0  0  0
 11 12  1  6  0  0  0
 11 13  1  0  0  0  0
 13 14  1  6  0  0  0
 13 15  1  0  0  0  0
 15 26  1  1  0  0  0
 17 18  2  0  0  0  0
 17 22  1  0  0  0  0
 18 19  1  0  0  0  0
 19 20  2  0  0  0  0
 20 21  1  0  0  0  0
 20 26  1  0  0  0  0
 21 22  2  0  0  0  0
 21 24  1  0  0  0  0
 22 23  1  0  0  0  0
 24 25  2  0  0  0  0
 25 26  1  0  0  0  0
M  END
>  <CHROM.1>
-9.58580774,-131.93524755,-66.77086878,138.42927927,178.80496007,92.68051686
-24.31888785,27.96581653,11.11604935,6.03603236,1.20821116,-0.37348800,3.06231826

>  <Name>
ligand

>  <RI>
0

>  <Rbt.Current_Directory>
/home/itssahil/PROJECTS/Mol_Feturizer/New_Systems/rnas/3NPQ

>  <Rbt.Executable>
rbdock ($Id: //depot/dev/client3/rdock/2013.1/src/exe/rbdock.cxx#4 $)

>  <Rbt.Library>
libRbt.so (2013.1, Build901 2013/11/27)

>  <Rbt.Parameter_File>
/export/apps/rDock/src/rDock_2013.1_src/data/scripts/dock_solv.prm

>  <Rbt.Receptor>
prm/blind_docking_40.prm

>  <SCORE>
-5.23053

>  <SCORE.INTER>
-6.64664

>  <SCORE.INTER.CONST>
1

>  <SCORE.INTER.POLAR>
0

>  <SCORE.INTER.ROT>
7

>  <SCORE.INTER.SOLV>
12.3389

>  <SCORE.INTER.VDW>
-16.8107

>  <SCORE.INTER.norm>
-0.25564

>  <SCORE.INTRA>
1.41109

>  <SCORE.INTRA.DIHEDRAL>
6.0217

>  <SCORE.INTRA.DIHEDRAL.0>
6.97628

>  <SCORE.INTRA.POLAR>
0

>  <SCORE.INTRA.POLAR.0>
0

>  <SCORE.INTRA.REPUL>
0

>  <SCORE.INTRA.REPUL.0>
0

>  <SCORE.INTRA.SOLV>
-0.627238

>  <SCORE.INTRA.SOLV.lig_0>
-49.8243

>  <SCORE.INTRA.VDW>
-1.28614

>  <SCORE.INTRA.VDW.0>
-1.35881

>  <SCORE.INTRA.norm>
0.0542728

>  <SCORE.RESTR>
0.00501461

>  <SCORE.RESTR.CAVITY>
0.00501461

>  <SCORE.RESTR.norm>
0.00019287

>  <SCORE.SYSTEM>
0

>  <SCORE.SYSTEM.CONST>
0

>  <SCORE.SYSTEM.DIHEDRAL>
0

>  <SCORE.SYSTEM.SOLV>
0

>  <SCORE.SYSTEM.norm>
0

>  <SCORE.heavy>
26

>  <SCORE.norm>
-0.201174

>  <RMSD>
13.441

$$$$
ligand
 OpenBabel11021811483D
libRbt.so/2013.1/901 2013/11/27
 26 28  0  0  0  0  0  0  0  0999 V2000
   25.3070   11.6251    5.1760 N   0  0  0  0  0  0  0  0  0  0  0  0
   24.7113   11.2858    6.4623 C   0  0  2  0  0  0  0  0  0  0  0  0
   23.5473   12.2142    6.7897 C   0  0  0  0  0  0  0  0  0  0  0  0
   22.8914   12.0683    7.8204 O   0  0  0  0  0  0  0  0  0  0  0  0
   25.7572   11.3494    7.5682 C   0  0  0  0  0  0  0  0  0  0  0  0
   26.8047   10.2459    7.4985 C   0  0  0  0  0  0  0  0  0  0  0  0
   27.8796   10.3997    6.0497 S   0  0  0  0  0  0  0  0  0  0  0  0
   28.4412    8.6941    6.2814 C   0  0  0  0  0  0  0  0  0  0  0  0
   27.3387    7.6722    6.0295 C   0  0  1  0  0  0  0  0  0  0  0  0
   27.8031    6.6682    5.1455 O   0  0  0  0  0  0  0  0  0  0  0  0
   26.9027    6.9920    7.3169 C   0  0  1  0  0  0  0  0  0  0  0  0
   25.5544    7.2938    7.5875 O   0  0  0  0  0  0  0  0  0  0  0  0
   27.0634    5.5056    7.0743 C   0  0  1  0  0  0  0  0  0  0  0  0
   25.8295    4.8500    7.2532 O   0  0  0  0  0  0  0  0  0  0  0  0
   27.5241    5.3692    5.6332 C   0  0  2  0  0  0  0  0  0  0  0  0
   23.2358   13.1327    6.0307 O   0  0  0  0  0  0  0  0  0  0  0  0
   32.5748    4.9039    6.9899 N   0  0  0  0  0  0  0  0  0  0  0  0
   31.7094    5.9409    7.2745 C   0  0  0  0  0  0  0  0  0  0  0  0
   30.4014    5.8956    6.8340 N   0  0  0  0  0  0  0  0  0  0  0  0
   29.9574    4.8341    6.1176 C   0  0  0  0  0  0  0  0  0  0  0  0
   30.8127    3.7817    5.8208 C   0  0  0  0  0  0  0  0  0  0  0  0
   32.1302    3.8192    6.2613 C   0  0  0  0  0  0  0  0  0  0  0  0
   32.9587    2.8173    5.9821 N   0  0  0  0  0  0  0  0  0  0  0  0
   30.1180    2.8701    5.1064 N   0  0  0  0  0  0  0  0  0  0  0  0
   28.8515    3.3173    4.9446 C   0  0  0  0  0  0  0  0  0  0  0  0
   28.7367    4.5340    5.5663 N   0  0  0  0  0  0  0  0  0  0  0  0
  2  1  1  6  0  0  0
  2  3  1  0  0  0  0
  2  5  1  0  0  0  0
  3  4  1  0  0  0  0
  3 16  1  0  0  0  0
  5  6  1  0  0  0  0
  6  7  1  0  0  0  0
  7  8  1  0  0  0  0
  9  8  1  1  0  0  0
  9 10  1  0  0  0  0
  9 11  1  0  0  0  0
 10 15  1  0  0  0  0
 11 12  1  6  0  0  0
 11 13  1  0  0  0  0
 13 14  1  6  0  0  0
 13 15  1  0  0  0  0
 15 26  1  1  0  0  0
 17 18  2  0  0  0  0
 17 22  1  0  0  0  0
 18 19  1  0  0  0  0
 19 20  2  0  0  0  0
 20 21  1  0  0  0  0
 20 26  1  0  0  0  0
 21 22  2  0  0  0  0
 21 24  1  0  0  0  0
 22 23  1  0  0  0  0
 24 25  2  0  0  0  0
 25 26  1  0  0  0  0
M  END
>  <CHROM.1>
178.19470955,-69.73958885,67.21231014,-164.34076886,67.38140935,130.05372071
54.63580289,27.76732635,7.47700215,6.40600795,-2.25681736,-0.04838500,-3.09884755

>  <Name>
ligand

>  <RI>
0

>  <Rbt.Current_Directory>
/home/itssahil/PROJECTS/Mol_Feturizer/New_Systems/rnas/3NPQ

>  <Rbt.Executable>
rbdock ($Id: //depot/dev/client3/rdock/2013.1/src/exe/rbdock.cxx#4 $)

>  <Rbt.Library>
libRbt.so (2013.1, Build901 2013/11/27)

>  <Rbt.Parameter_File>
/export/apps/rDock/src/rDock_2013.1_src/data/scripts/dock_solv.prm

>  <Rbt.Receptor>
prm/blind_docking_40.prm

>  <SCORE>
-10.801

>  <SCORE.INTER>
-11.2825

>  <SCORE.INTER.CONST>
1

>  <SCORE.INTER.POLAR>
0

>  <SCORE.INTER.ROT>
7

>  <SCORE.INTER.SOLV>
11.6643

>  <SCORE.INTER.VDW>
-19.6764

>  <SCORE.INTER.norm>
-0.433943

>  <SCORE.INTRA>
0.481476

>  <SCORE.INTRA.DIHEDRAL>
1.65944

>  <SCORE.INTRA.DIHEDRAL.0>
6.97628

>  <SCORE.INTRA.POLAR>
0

>  <SCORE.INTRA.POLAR.0>
0

>  <SCORE.INTRA.REPUL>
0

>  <SCORE.INTRA.REPUL.0>
0

>  <SCORE.INTRA.SOLV>
1.57654

>  <SCORE.INTRA.SOLV.lig_0>
-49.8243

>  <SCORE.INTRA.VDW>
-1.13652

>  <SCORE.INTRA.VDW.0>
-1.35881

>  <SCORE.INTRA.norm>
0.0185183

>  <SCORE.RESTR>
0

>  <SCORE.RESTR.CAVITY>
0

>  <SCORE.RESTR.norm>
0

>  <SCORE.SYSTEM>
0

>  <SCORE.SYSTEM.CONST>
0

>  <SCORE.SYSTEM.DIHEDRAL>
0

>  <SCORE.SYSTEM.SOLV>
0

>  <SCORE.SYSTEM.norm>
0

>  <SCORE.heavy>
26

>  <SCORE.norm>
-0.415424

>  <RMSD>
13.453

$$$$
ligand
 OpenBabel11021811483D
libRbt.so/2013.1/901 2013/11/27
 26 28  0  0  0  0  0  0  0  0999 V2000
   24.4029   14.4125    8.3994 N   0  0  0  0  0  0  0  0  0  0  0  0
   24.6626   13.6171    7.2059 C   0  0  2  0  0  0  0  0  0  0  0  0
   23.5104   12.6599    6.9231 C   0  0  0  0  0  0  0  0  0  0  0  0
   23.0130   12.5817    5.8004 O   0  0  0  0  0  0  0  0  0  0  0  0
   25.9636   12.8387    7.3559 C   0  0  0  0  0  0  0  0  0  0  0  0
   26.3026   11.9566    6.1614 C   0  0  0  0  0  0  0  0  0  0  0  0
   27.9149   11.1500    6.3294 S   0  0  0  0  0  0  0  0  0  0  0  0
   27.2007    9.9568    7.4889 C   0  0  0  0  0  0  0  0  0  0  0  0
   26.4955    8.8028    6.7857 C   0  0  1  0  0  0  0  0  0  0  0  0
   27.4128    8.1053    5.9629 O   0  0  0  0  0  0  0  0  0  0  0  0
   25.9180    7.8109    7.7821 C   0  0  1  0  0  0  0  0  0  0  0  0
   24.5151    7.7759    7.6678 O   0  0  0  0  0  0  0  0  0  0  0  0
   26.5027    6.4639    7.4110 C   0  0  1  0  0  0  0  0  0  0  0  0
   25.4697    5.5509    7.1219 O   0  0  0  0  0  0  0  0  0  0  0  0
   27.3478    6.7070    6.1724 C   0  0  2  0  0  0  0  0  0  0  0  0
   23.0500   11.9416    7.8113 O   0  0  0  0  0  0  0  0  0  0  0  0
   30.6207    2.7131    5.2216 N   0  0  0  0  0  0  0  0  0  0  0  0
   29.3057    2.8487    4.8242 C   0  0  0  0  0  0  0  0  0  0  0  0
   28.5888    3.9780    5.1672 N   0  0  0  0  0  0  0  0  0  0  0  0
   29.1694    4.9611    5.8976 C   0  0  0  0  0  0  0  0  0  0  0  0
   30.4906    4.8428    6.3071 C   0  0  0  0  0  0  0  0  0  0  0  0
   31.2193    3.7099    5.9653 C   0  0  0  0  0  0  0  0  0  0  0  0
   32.4852    3.5855    6.3528 N   0  0  0  0  0  0  0  0  0  0  0  0
   30.8089    5.9515    7.0096 N   0  0  0  0  0  0  0  0  0  0  0  0
   29.7278    6.7636    7.0547 C   0  0  0  0  0  0  0  0  0  0  0  0
   28.7034    6.1629    6.3695 N   0  0  0  0  0  0  0  0  0  0  0  0
  2  1  1  1  0  0  0
  2  3  1  0  0  0  0
  2  5  1  0  0  0  0
  3  4  1  0  0  0  0
  3 16  1  0  0  0  0
  5  6  1  0  0  0  0
  6  7  1  0  0  0  0
  7  8  1  0  0  0  0
  9  8  1  1  0  0  0
  9 10  1  0  0  0  0
  9 11  1  0  0  0  0
 10 15  1  0  0  0  0
 11 12  1  6  0  0  0
 11 13  1  0  0  0  0
 13 14  1  6  0  0  0
 13 15  1  0  0  0  0
 15 26  1  1  0  0  0
 17 18  2  0  0  0  0
 17 22  1  0  0  0  0
 18 19  1  0  0  0  0
 19 20  2  0  0  0  0
 20 21  1  0  0  0  0
 20 26  1  0  0  0  0
 21 22  2  0  0  0  0
 21 24  1  0  0  0  0
 22 23  1  0  0  0  0
 24 25  2  0  0  0  0
 25 26  1  0  0  0  0
M  END
>  <CHROM.1>
130.98142128,178.92641883,175.63318895,76.91976321,82.64069159,59.90693254
-141.83623134,27.26109735,8.23404239,6.63748478,-2.15197277,-0.10728516,-3.07146361

>  <Name>
ligand

>  <RI>
0

>  <Rbt.Current_Directory>
/home/itssahil/PROJECTS/Mol_Feturizer/New_Systems/rnas/3NPQ

>  <Rbt.Executable>
rbdock ($Id: //depot/dev/client3/rdock/2013.1/src/exe/rbdock.cxx#4 $)

>  <Rbt.Library>
libRbt.so (2013.1, Build901 2013/11/27)

>  <Rbt.Parameter_File>
/export/apps/rDock/src/rDock_2013.1_src/data/scripts/dock_solv.prm

>  <Rbt.Receptor>
prm/blind_docking_40.prm

>  <SCORE>
-11.0839

>  <SCORE.INTER>
-8.59321

>  <SCORE.INTER.CONST>
1

>  <SCORE.INTER.POLAR>
0

>  <SCORE.INTER.ROT>
7

>  <SCORE.INTER.SOLV>
9.49441

>  <SCORE.INTER.VDW>
-17.1603

>  <SCORE.INTER.norm>
-0.330508

>  <SCORE.INTRA>
-2.49074

>  <SCORE.INTRA.DIHEDRAL>
-3.03928

>  <SCORE.INTRA.DIHEDRAL.0>
6.97628

>  <SCORE.INTRA.POLAR>
0

>  <SCORE.INTRA.POLAR.0>
0

>  <SCORE.INTRA.REPUL>
0

>  <SCORE.INTRA.REPUL.0>
0

>  <SCORE.INTRA.SOLV>
-0.914284

>  <SCORE.INTRA.SOLV.lig_0>
-49.8243

>  <SCORE.INTRA.VDW>
-0.513952

>  <SCORE.INTRA.VDW.0>
-1.35881

>  <SCORE.INTRA.norm>
-0.0957975

>  <SCORE.RESTR>
0

>  <SCORE.RESTR.CAVITY>
0

>  <SCORE.RESTR.norm>
0

>  <SCORE.SYSTEM>
0

>  <SCORE.SYSTEM.CONST>
0

>  <SCORE.SYSTEM.DIHEDRAL>
0

>  <SCORE.SYSTEM.SOLV>
0

>  <SCORE.SYSTEM.norm>
0

>  <SCORE.heavy>
26

>  <SCORE.norm>
-0.426305

>  <RMSD>
13.483

$$$$
ligand
 OpenBabel11021811483D
libRbt.so/2013.1/901 2013/11/27
 26 28  0  0  0  0  0  0  0  0999 V2000
   31.3435    2.1621    6.9511 N   0  0  0  0  0  0  0  0  0  0  0  0
   31.8183    2.8382    5.7503 C   0  0  2  0  0  0  0  0  0  0  0  0
   32.9627    2.0670    5.1027 C   0  0  0  0  0  0  0  0  0  0  0  0
   33.3912    1.0289    5.6053 O   0  0  0  0  0  0  0  0  0  0  0  0
   32.2646    4.2576    6.0781 C   0  0  0  0  0  0  0  0  0  0  0  0
   31.1562    5.1482    6.6241 C   0  0  0  0  0  0  0  0  0  0  0  0
   31.6787    6.8718    6.8101 S   0  0  0  0  0  0  0  0  0  0  0  0
   30.1811    7.4214    5.9537 C   0  0  0  0  0  0  0  0  0  0  0  0
   29.0741    7.8401    6.9143 C   0  0  1  0  0  0  0  0  0  0  0  0
   29.3407    9.1338    7.4245 O   0  0  0  0  0  0  0  0  0  0  0  0
   27.7213    7.8832    6.2227 C   0  0  1  0  0  0  0  0  0  0  0  0
   26.8571    6.9316    6.7971 O   0  0  0  0  0  0  0  0  0  0  0  0
   27.1828    9.2798    6.4541 C   0  0  1  0  0  0  0  0  0  0  0  0
   25.9430    9.2164    7.1198 O   0  0  0  0  0  0  0  0  0  0  0  0
   28.2101    9.9797    7.3272 C   0  0  2  0  0  0  0  0  0  0  0  0
   33.4855    2.4641    4.0606 O   0  0  0  0  0  0  0  0  0  0  0  0
   30.7033   12.3649    3.3697 N   0  0  0  0  0  0  0  0  0  0  0  0
   30.5606   11.0101    3.5921 C   0  0  0  0  0  0  0  0  0  0  0  0
   29.8655   10.5562    4.6956 N   0  0  0  0  0  0  0  0  0  0  0  0
   29.3195   11.4365    5.5696 C   0  0  0  0  0  0  0  0  0  0  0  0
   29.4527   12.8029    5.3635 C   0  0  0  0  0  0  0  0  0  0  0  0
   30.1499   13.2678    4.2549 C   0  0  0  0  0  0  0  0  0  0  0  0
   30.2846   14.5744    4.0478 N   0  0  0  0  0  0  0  0  0  0  0  0
   28.8202   13.4393    6.3729 N   0  0  0  0  0  0  0  0  0  0  0  0
   28.2933   12.5145    7.2081 C   0  0  0  0  0  0  0  0  0  0  0  0
   28.5946   11.2680    6.7230 N   0  0  0  0  0  0  0  0  0  0  0  0
  2  1  1  1  0  0  0
  2  3  1  0  0  0  0
  2  5  1  0  0  0  0
  3  4  1  0  0  0  0
  3 16  1  0  0  0  0
  5  6  1  0  0  0  0
  6  7  1  0  0  0  0
  7  8  1  0  0  0  0
  9  8  1  6  0  0  0
  9 10  1  0  0  0  0
  9 11  1  0  0  0  0
 10 15  1  0  0  0  0
 11 12  1  1  0  0  0
 11 13  1  0  0  0  0
 13 14  1  1  0  0  0
 13 15  1  0  0  0  0
 15 26  1  6  0  0  0
 17 18  2  0  0  0  0
 17 22  1  0  0  0  0
 18 19  1  0  0  0  0
 19 20  2  0  0  0  0
 20 21  1  0  0  0  0
 20 26  1  0  0  0  0
 21 22  2  0  0  0  0
 21 24  1  0  0  0  0
 22 23  1  0  0  0  0
 24 25  2  0  0  0  0
 25 26  1  0  0  0  0
M  END
>  <CHROM.1>
-1.31562140,-61.76589945,-173.07046953,131.27109795,97.21827394,77.98398891
49.55223255,30.03738076,8.17535307,5.92882211,1.16816218,-0.54643755,2.89919492

>  <Name>
ligand

>  <RI>
0

>  <Rbt.Current_Directory>
/home/itssahil/PROJECTS/Mol_Feturizer/New_Systems/rnas/3NPQ

>  <Rbt.Executable>
rbdock ($Id: //depot/dev/client3/rdock/2013.1/src/exe/rbdock.cxx#4 $)

>  <Rbt.Library>
libRbt.so (2013.1, Build901 2013/11/27)

>  <Rbt.Parameter_File>
/export/apps/rDock/src/rDock_2013.1_src/data/scripts/dock_solv.prm

>  <Rbt.Receptor>
prm/blind_docking_40.prm

>  <SCORE>
-9.08826

>  <SCORE.INTER>
-8.04444

>  <SCORE.INTER.CONST>
1

>  <SCORE.INTER.POLAR>
0

>  <SCORE.INTER.ROT>
7

>  <SCORE.INTER.SOLV>
8.57938

>  <SCORE.INTER.VDW>
-16.4894

>  <SCORE.INTER.norm>
-0.309402

>  <SCORE.INTRA>
-1.04382

>  <SCORE.INTRA.DIHEDRAL>
0.813197

>  <SCORE.INTRA.DIHEDRAL.0>
6.97628

>  <SCORE.INTRA.POLAR>
0

>  <SCORE.INTRA.POLAR.0>
0

>  <SCORE.INTRA.REPUL>
0

>  <SCORE.INTRA.REPUL.0>
0

>  <SCORE.INTRA.SOLV>
-0.254487

>  <SCORE.INTRA.SOLV.lig_0>
-49.8243

>  <SCORE.INTRA.VDW>
-1.32318

>  <SCORE.INTRA.VDW.0>
-1.35881

>  <SCORE.INTRA.norm>
-0.040147

>  <SCORE.RESTR>
0

>  <SCORE.RESTR.CAVITY>
0

>  <SCORE.RESTR.norm>
0

>  <SCORE.SYSTEM>
0

>  <SCORE.SYSTEM.CONST>
0

>  <SCORE.SYSTEM.DIHEDRAL>
0

>  <SCORE.SYSTEM.SOLV>
0

>  <SCORE.SYSTEM.norm>
0

>  <SCORE.heavy>
26

>  <SCORE.norm>
-0.349549

>  <RMSD>
13.521

$$$$
ligand
 OpenBabel11021811483D
libRbt.so/2013.1/901 2013/11/27
 26 28  0  0  0  0  0  0  0  0999 V2000
   28.0315    7.6615    6.1096 N   0  0  0  0  0  0  0  0  0  0  0  0
   28.1160    6.2773    6.5582 C   0  0  2  0  0  0  0  0  0  0  0  0
   26.7713    5.5726    6.4197 C   0  0  0  0  0  0  0  0  0  0  0  0
   26.4625    4.9966    5.3772 O   0  0  0  0  0  0  0  0  0  0  0  0
   28.5930    6.2129    8.0037 C   0  0  0  0  0  0  0  0  0  0  0  0
   29.9055    6.9423    8.2592 C   0  0  0  0  0  0  0  0  0  0  0  0
   30.8842    6.1707    9.5726 S   0  0  0  0  0  0  0  0  0  0  0  0
   31.9727    5.4292    8.3302 C   0  0  0  0  0  0  0  0  0  0  0  0
   31.2371    4.4722    7.3995 C   0  0  1  0  0  0  0  0  0  0  0  0
   32.0633    4.1375    6.2992 O   0  0  0  0  0  0  0  0  0  0  0  0
   30.8623    3.1810    8.1085 C   0  0  1  0  0  0  0  0  0  0  0  0
   29.4615    3.0491    8.1587 O   0  0  0  0  0  0  0  0  0  0  0  0
   31.4595    2.0644    7.2775 C   0  0  1  0  0  0  0  0  0  0  0  0
   30.4462    1.1838    6.8507 O   0  0  0  0  0  0  0  0  0  0  0  0
   32.1041    2.7399    6.0793 C   0  0  2  0  0  0  0  0  0  0  0  0
   25.9620    5.5625    7.3480 O   0  0  0  0  0  0  0  0  0  0  0  0
   36.3455    0.8494    8.5296 N   0  0  0  0  0  0  0  0  0  0  0  0
   35.1183    1.1672    9.0758 C   0  0  0  0  0  0  0  0  0  0  0  0
   34.1066    1.6576    8.2741 N   0  0  0  0  0  0  0  0  0  0  0  0
   34.3105    1.8322    6.9456 C   0  0  0  0  0  0  0  0  0  0  0  0
   35.5379    1.5189    6.3777 C   0  0  0  0  0  0  0  0  0  0  0  0
   36.5610    1.0240    7.1775 C   0  0  0  0  0  0  0  0  0  0  0  0
   37.7411    0.7214    6.6447 N   0  0  0  0  0  0  0  0  0  0  0  0
   35.4647    1.7859    5.0559 N   0  0  0  0  0  0  0  0  0  0  0  0
   34.2284    2.2580    4.7749 C   0  0  0  0  0  0  0  0  0  0  0  0
   33.5013    2.2923    5.9368 N   0  0  0  0  0  0  0  0  0  0  0  0
  2  1  1  1  0  0  0
  2  3  1  0  0  0  0
  2  5  1  0  0  0  0
  3  4  1  0  0  0  0
  3 16  1  0  0  0  0
  5  6  1  0  0  0  0
  6  7  1  0  0  0  0
  7  8  1  0  0  0  0
  9  8  1  1  0  0  0
  9 10  1  0  0  0  0
  9 11  1  0  0  0  0
 10 15  1  0  0  0  0
 11 12  1  6  0  0  0
 11 13  1  0  0  0  0
 13 14  1  6  0  0  0
 13 15  1  0  0  0  0
 15 26  1  1  0  0  0
 17 18  2  0  0  0  0
 17 22  1  0  0  0  0
 18 19  1  0  0  0  0
 19 20  2  0  0  0  0
 20 21  1  0  0  0  0
 20 26  1  0  0  0  0
 21 22  2  0  0  0  0
 21 24  1  0  0  0  0
 22 23  1  0  0  0  0
 24 25  2  0  0  0  0
 25 26  1  0  0  0  0
M  END
>  <CHROM.1>
88.85406283,-54.50102641,-148.51380031,102.89792043,-61.72806819,168.26349850
92.42041774,31.64623588,3.66484291,7.23409696,2.76634880,-0.40424517,0.83364896

>  <Name>
ligand

>  <RI>
0

>  <Rbt.Current_Directory>
/home/itssahil/PROJECTS/Mol_Feturizer/New_Systems/rnas/3NPQ

>  <Rbt.Executable>
rbdock ($Id: //depot/dev/client3/rdock/2013.1/src/exe/rbdock.cxx#4 $)

>  <Rbt.Library>
libRbt.so (2013.1, Build901 2013/11/27)

>  <Rbt.Parameter_File>
/export/apps/rDock/src/rDock_2013.1_src/data/scripts/dock_solv.prm

>  <Rbt.Receptor>
prm/blind_docking_40.prm

>  <SCORE>
-7.89224

>  <SCORE.INTER>
-8.65756

>  <SCORE.INTER.CONST>
1

>  <SCORE.INTER.POLAR>
0

>  <SCORE.INTER.ROT>
7

>  <SCORE.INTER.SOLV>
9.8783

>  <SCORE.INTER.VDW>
-17.3311

>  <SCORE.INTER.norm>
-0.332983

>  <SCORE.INTRA>
0.76532

>  <SCORE.INTRA.DIHEDRAL>
1.21722

>  <SCORE.INTRA.DIHEDRAL.0>
6.97628

>  <SCORE.INTRA.POLAR>
0

>  <SCORE.INTRA.POLAR.0>
0

>  <SCORE.INTRA.REPUL>
0

>  <SCORE.INTRA.REPUL.0>
0

>  <SCORE.INTRA.SOLV>
0.374288

>  <SCORE.INTRA.SOLV.lig_0>
-49.8243

>  <SCORE.INTRA.VDW>
-0.0304352

>  <SCORE.INTRA.VDW.0>
-1.35881

>  <SCORE.INTRA.norm>
0.0294354

>  <SCORE.RESTR>
0

>  <SCORE.RESTR.CAVITY>
0

>  <SCORE.RESTR.norm>
0

>  <SCORE.SYSTEM>
0

>  <SCORE.SYSTEM.CONST>
0

>  <SCORE.SYSTEM.DIHEDRAL>
0

>  <SCORE.SYSTEM.SOLV>
0

>  <SCORE.SYSTEM.norm>
0

>  <SCORE.heavy>
26

>  <SCORE.norm>
-0.303548

>  <RMSD>
13.541

$$$$
ligand
 OpenBabel11021811483D
libRbt.so/2013.1/901 2013/11/27
 26 28  0  0  0  0  0  0  0  0999 V2000
   25.3516   18.1155    9.0836 N   0  0  0  0  0  0  0  0  0  0  0  0
   24.3667   18.2349   10.1515 C   0  0  2  0  0  0  0  0  0  0  0  0
   24.1097   19.6966   10.4998 C   0  0  0  0  0  0  0  0  0  0  0  0
   23.2028   20.0146   11.2682 O   0  0  0  0  0  0  0  0  0  0  0  0
   24.8272   17.4759   11.3896 C   0  0  0  0  0  0  0  0  0  0  0  0
   24.8005   15.9608   11.2368 C   0  0  0  0  0  0  0  0  0  0  0  0
   26.1286   15.3472   10.1700 S   0  0  0  0  0  0  0  0  0  0  0  0
   25.1448   13.8765    9.7859 C   0  0  0  0  0  0  0  0  0  0  0  0
   24.1223   14.1241    8.6830 C   0  0  1  0  0  0  0  0  0  0  0  0
   24.5651   15.1721    7.8399 O   0  0  0  0  0  0  0  0  0  0  0  0
   23.9201   12.8886    7.8211 C   0  0  1  0  0  0  0  0  0  0  0  0
   22.5942   12.4304    7.9411 O   0  0  0  0  0  0  0  0  0  0  0  0
   24.1904   13.3287    6.3973 C   0  0  1  0  0  0  0  0  0  0  0  0
   23.0576   13.0917    5.5942 O   0  0  0  0  0  0  0  0  0  0  0  0
   24.4758   14.8188    6.4722 C   0  0  2  0  0  0  0  0  0  0  0  0
   24.8039   20.5942   10.0210 O   0  0  0  0  0  0  0  0  0  0  0  0
   29.5733   13.6479    6.0121 N   0  0  0  0  0  0  0  0  0  0  0  0
   28.6404   13.0721    6.8509 C   0  0  0  0  0  0  0  0  0  0  0  0
   27.3307   13.5096    6.8383 N   0  0  0  0  0  0  0  0  0  0  0  0
   26.9510   14.5081    6.0042 C   0  0  0  0  0  0  0  0  0  0  0  0
   27.8748   15.1000    5.1536 C   0  0  0  0  0  0  0  0  0  0  0  0
   29.1946   14.6650    5.1594 C   0  0  0  0  0  0  0  0  0  0  0  0
   30.0883   15.2253    4.3497 N   0  0  0  0  0  0  0  0  0  0  0  0
   27.2343   16.0531    4.4426 N   0  0  0  0  0  0  0  0  0  0  0  0
   25.9354   16.0788    4.8204 C   0  0  0  0  0  0  0  0  0  0  0  0
   25.7447   15.1263    5.7880 N   0  0  0  0  0  0  0  0  0  0  0  0
  2  1  1  6  0  0  0
  2  3  1  0  0  0  0
  2  5  1  0  0  0  0
  3  4  1  0  0  0  0
  3 16  1  0  0  0  0
  5  6  1  0  0  0  0
  6  7  1  0  0  0  0
  7  8  1  0  0  0  0
  9  8  1  1  0  0  0
  9 10  1  0  0  0  0
  9 11  1  0  0  0  0
 10 15  1  0  0  0  0
 11 12  1  6  0  0  0
 11 13  1  0  0  0  0
 13 14  1  6  0  0  0
 13 15  1  0  0  0  0
 15 26  1  6  0  0  0
 17 18  2  0  0  0  0
 17 22  1  0  0  0  0
 18 19  1  0  0  0  0
 19 20  2  0  0  0  0
 20 21  1  0  0  0  0
 20 26  1  0  0  0  0
 21 22  2  0  0  0  0
 21 24  1  0  0  0  0
 22 23  1  0  0  0  0
 24 25  2  0  0  0  0
 25 26  1  0  0  0  0
M  END
>  <CHROM.1>
171.66532397,-70.43130356,73.10588994,-155.16801628,82.43205335,26.42910516
66.97196464,25.64130936,15.49157656,7.86384697,-2.11357323,-0.59403462,-2.59116673

>  <Name>
ligand

>  <RI>
0

>  <Rbt.Current_Directory>
/home/itssahil/PROJECTS/Mol_Feturizer/New_Systems/rnas/3NPQ

>  <Rbt.Executable>
rbdock ($Id: //depot/dev/client3/rdock/2013.1/src/exe/rbdock.cxx#4 $)

>  <Rbt.Library>
libRbt.so (2013.1, Build901 2013/11/27)

>  <Rbt.Parameter_File>
/export/apps/rDock/src/rDock_2013.1_src/data/scripts/dock_solv.prm

>  <Rbt.Receptor>
prm/blind_docking_100.prm

>  <SCORE>
-9.05891

>  <SCORE.INTER>
-9.4006

>  <SCORE.INTER.CONST>
1

>  <SCORE.INTER.POLAR>
0

>  <SCORE.INTER.ROT>
7

>  <SCORE.INTER.SOLV>
18.5817

>  <SCORE.INTER.VDW>
-20.7276

>  <SCORE.INTER.norm>
-0.361561

>  <SCORE.INTRA>
0.341681

>  <SCORE.INTRA.DIHEDRAL>
1.49836

>  <SCORE.INTRA.DIHEDRAL.0>
6.97628

>  <SCORE.INTRA.POLAR>
0

>  <SCORE.INTRA.POLAR.0>
0

>  <SCORE.INTRA.REPUL>
0

>  <SCORE.INTRA.REPUL.0>
0

>  <SCORE.INTRA.SOLV>
2.55466

>  <SCORE.INTRA.SOLV.lig_0>
-49.8243

>  <SCORE.INTRA.VDW>
-1.68483

>  <SCORE.INTRA.VDW.0>
-1.35881

>  <SCORE.INTRA.norm>
0.0131416

>  <SCORE.RESTR>
0

>  <SCORE.RESTR.CAVITY>
0

>  <SCORE.RESTR.norm>
0

>  <SCORE.SYSTEM>
0

>  <SCORE.SYSTEM.CONST>
0

>  <SCORE.SYSTEM.DIHEDRAL>
0

>  <SCORE.SYSTEM.SOLV>
0

>  <SCORE.SYSTEM.norm>
0

>  <SCORE.heavy>
26

>  <SCORE.norm>
-0.34842

>  <RMSD>
13.663

$$$$
ligand
 OpenBabel11021811483D
libRbt.so/2013.1/901 2013/11/27
 26 28  0  0  0  0  0  0  0  0999 V2000
   29.5833   15.1018   -2.9474 N   0  0  0  0  0  0  0  0  0  0  0  0
   29.8466   14.1051   -1.9170 C   0  0  2  0  0  0  0  0  0  0  0  0
   29.0516   12.8295   -2.1716 C   0  0  0  0  0  0  0  0  0  0  0  0
   28.9005   11.9898   -1.2851 O   0  0  0  0  0  0  0  0  0  0  0  0
   29.5137   14.6617   -0.5384 C   0  0  0  0  0  0  0  0  0  0  0  0
   30.1011   13.8596    0.6153 C   0  0  0  0  0  0  0  0  0  0  0  0
   29.2575   14.1812    2.1848 S   0  0  0  0  0  0  0  0  0  0  0  0
   30.6415   13.4375    3.0847 C   0  0  0  0  0  0  0  0  0  0  0  0
   30.3054   13.1428    4.5419 C   0  0  1  0  0  0  0  0  0  0  0  0
   29.7523   14.2943    5.1527 O   0  0  0  0  0  0  0  0  0  0  0  0
   29.2897   12.0187    4.6646 C   0  0  1  0  0  0  0  0  0  0  0  0
   29.8638   10.9231    5.3371 O   0  0  0  0  0  0  0  0  0  0  0  0
   28.1434   12.5839    5.4773 C   0  0  1  0  0  0  0  0  0  0  0  0
   27.9447   11.8099    6.6374 O   0  0  0  0  0  0  0  0  0  0  0  0
   28.5605   13.9949    5.8551 C   0  0  2  0  0  0  0  0  0  0  0  0
   28.5411   12.6092   -3.2706 O   0  0  0  0  0  0  0  0  0  0  0  0
   23.8869   16.0279    7.1165 N   0  0  0  0  0  0  0  0  0  0  0  0
   24.6024   15.0578    7.7892 C   0  0  0  0  0  0  0  0  0  0  0  0
   25.8275   14.6392    7.3088 N   0  0  0  0  0  0  0  0  0  0  0  0
   26.3363   15.1757    6.1730 C   0  0  0  0  0  0  0  0  0  0  0  0
   25.6316   16.1519    5.4820 C   0  0  0  0  0  0  0  0  0  0  0  0
   24.3984   16.5794    5.9592 C   0  0  0  0  0  0  0  0  0  0  0  0
   23.7140   17.5132    5.3052 N   0  0  0  0  0  0  0  0  0  0  0  0
   26.3613   16.5055    4.4019 N   0  0  0  0  0  0  0  0  0  0  0  0
   27.5038   15.7810    4.3923 C   0  0  0  0  0  0  0  0  0  0  0  0
   27.5026   14.9520    5.4844 N   0  0  0  0  0  0  0  0  0  0  0  0
  2  1  1  6  0  0  0
  2  3  1  0  0  0  0
  2  5  1  0  0  0  0
  3  4  1  0  0  0  0
  3 16  1  0  0  0  0
  5  6  1  0  0  0  0
  6  7  1  0  0  0  0
  7  8  1  0  0  0  0
  9  8  1  6  0  0  0
  9 10  1  0  0  0  0
  9 11  1  0  0  0  0
 10 15  1  0  0  0  0
 11 12  1  1  0  0  0
 11 13  1  0  0  0  0
 13 14  1  1  0  0  0
 13 15  1  0  0  0  0
 15 26  1  6  0  0  0
 17 18  2  0  0  0  0
 17 22  1  0  0  0  0
 18 19  1  0  0  0  0
 19 20  2  0  0  0  0
 20 21  1  0  0  0  0
 20 26  1  0  0  0  0
 21 22  2  0  0  0  0
 21 24  1  0  0  0  0
 22 23  1  0  0  0  0
 24 25  2  0  0  0  0
 25 26  1  0  0  0  0
M  END
>  <CHROM.1>
-163.91957583,-164.11522930,-160.45895589,-163.81400603,-166.34932439,-50.63311895
-163.59461713,28.01725121,14.15607035,3.36579571,0.98012385,0.73041315,-1.37114520

>  <Name>
ligand

>  <RI>
0

>  <Rbt.Current_Directory>
/home/itssahil/PROJECTS/Mol_Feturizer/New_Systems/rnas/3NPQ

>  <Rbt.Executable>
rbdock ($Id: //depot/dev/client3/rdock/2013.1/src/exe/rbdock.cxx#4 $)

>  <Rbt.Library>
libRbt.so (2013.1, Build901 2013/11/27)

>  <Rbt.Parameter_File>
/export/apps/rDock/src/rDock_2013.1_src/data/scripts/dock_solv.prm

>  <Rbt.Receptor>
prm/blind_docking_100.prm

>  <SCORE>
-9.15974

>  <SCORE.INTER>
-7.64719

>  <SCORE.INTER.CONST>
1

>  <SCORE.INTER.POLAR>
0

>  <SCORE.INTER.ROT>
7

>  <SCORE.INTER.SOLV>
11.3193

>  <SCORE.INTER.VDW>
-17.1379

>  <SCORE.INTER.norm>
-0.294123

>  <SCORE.INTRA>
-1.71418

>  <SCORE.INTRA.DIHEDRAL>
-1.04176

>  <SCORE.INTRA.DIHEDRAL.0>
6.97628

>  <SCORE.INTRA.POLAR>
0

>  <SCORE.INTRA.POLAR.0>
0

>  <SCORE.INTRA.REPUL>
0

>  <SCORE.INTRA.REPUL.0>
0

>  <SCORE.INTRA.SOLV>
-0.605458

>  <SCORE.INTRA.SOLV.lig_0>
-49.8243

>  <SCORE.INTRA.VDW>
-0.890571

>  <SCORE.INTRA.VDW.0>
-1.35881

>  <SCORE.INTRA.norm>
-0.0659299

>  <SCORE.RESTR>
0.201629

>  <SCORE.RESTR.CAVITY>
0.201629

>  <SCORE.RESTR.norm>
0.00775498

>  <SCORE.SYSTEM>
0

>  <SCORE.SYSTEM.CONST>
0

>  <SCORE.SYSTEM.DIHEDRAL>
0

>  <SCORE.SYSTEM.SOLV>
0

>  <SCORE.SYSTEM.norm>
0

>  <SCORE.heavy>
26

>  <SCORE.norm>
-0.352298

>  <RMSD>
13.729

$$$$
ligand
 OpenBabel11021811483D
libRbt.so/2013.1/901 2013/11/27
 26 28  0  0  0  0  0  0  0  0999 V2000
   31.6322   19.2463   19.4391 N   0  0  0  0  0  0  0  0  0  0  0  0
   31.7180   19.7285   18.0663 C   0  0  2  0  0  0  0  0  0  0  0  0
   31.3272   18.6373   17.0761 C   0  0  0  0  0  0  0  0  0  0  0  0
   30.6455   18.8959   16.0850 O   0  0  0  0  0  0  0  0  0  0  0  0
   33.1246   20.2294   17.7635 C   0  0  0  0  0  0  0  0  0  0  0  0
   33.2723   20.8807   16.3947 C   0  0  0  0  0  0  0  0  0  0  0  0
   34.9510   21.4881   16.0923 S   0  0  0  0  0  0  0  0  0  0  0  0
   34.5540   23.0268   16.9601 C   0  0  0  0  0  0  0  0  0  0  0  0
   35.7939   23.8395   17.3141 C   0  0  1  0  0  0  0  0  0  0  0  0
   36.6343   23.0898   18.1724 O   0  0  0  0  0  0  0  0  0  0  0  0
   36.5979   24.2000   16.0755 C   0  0  1  0  0  0  0  0  0  0  0  0
   36.6243   25.5978   15.9094 O   0  0  0  0  0  0  0  0  0  0  0  0
   37.9984   23.6804   16.3258 C   0  0  1  0  0  0  0  0  0  0  0  0
   38.9265   24.7378   16.2557 O   0  0  0  0  0  0  0  0  0  0  0  0
   37.9778   23.0946   17.7272 C   0  0  2  0  0  0  0  0  0  0  0  0
   31.6849   17.4708   17.2441 O   0  0  0  0  0  0  0  0  0  0  0  0
   36.9607   18.0203   18.6127 N   0  0  0  0  0  0  0  0  0  0  0  0
   36.1122   19.0979   18.7681 C   0  0  0  0  0  0  0  0  0  0  0  0
   36.5525   20.3758   18.4854 N   0  0  0  0  0  0  0  0  0  0  0  0
   37.8210   20.5826   18.0549 C   0  0  0  0  0  0  0  0  0  0  0  0
   38.6894   19.5117   17.8930 C   0  0  0  0  0  0  0  0  0  0  0  0
   38.2538   18.2225   18.1744 C   0  0  0  0  0  0  0  0  0  0  0  0
   39.0772   17.1893   18.0238 N   0  0  0  0  0  0  0  0  0  0  0  0
   39.8723   19.9978   17.4587 N   0  0  0  0  0  0  0  0  0  0  0  0
   39.7744   21.3421   17.3427 C   0  0  0  0  0  0  0  0  0  0  0  0
   38.5081   21.7194   17.7089 N   0  0  0  0  0  0  0  0  0  0  0  0
  2  1  1  1  0  0  0
  2  3  1  0  0  0  0
  2  5  1  0  0  0  0
  3  4  1  0  0  0  0
  3 16  1  0  0  0  0
  5  6  1  0  0  0  0
  6  7  1  0  0  0  0
  7  8  1  0  0  0  0
  9  8  1  6  0  0  0
  9 10  1  0  0  0  0
  9 11  1  0  0  0  0
 10 15  1  0  0  0  0
 11 12  1  1  0  0  0
 11 13  1  0  0  0  0
 13 14  1  1  0  0  0
 13 15  1  0  0  0  0
 15 26  1  6  0  0  0
 17 18  2  0  0  0  0
 17 22  1  0  0  0  0
 18 19  1  0  0  0  0
 19 20  2  0  0  0  0
 20 21  1  0  0  0  0
 20 26  1  0  0  0  0
 21 22  2  0  0  0  0
 21 24  1  0  0  0  0
 22 23  1  0  0  0  0
 24 25  2  0  0  0  0
 25 26  1  0  0  0  0
M  END
>  <CHROM.1>
139.72798951,-174.21677162,178.90169903,-84.45777532,165.63274600,-60.92683959
0.55295089,35.85386773,20.99137382,17.34601391,2.61198877,0.10522925,2.86241515

>  <Name>
ligand

>  <RI>
0

>  <Rbt.Current_Directory>
/home/itssahil/PROJECTS/Mol_Feturizer/New_Systems/rnas/3NPQ

>  <Rbt.Executable>
rbdock ($Id: //depot/dev/client3/rdock/2013.1/src/exe/rbdock.cxx#4 $)

>  <Rbt.Library>
libRbt.so (2013.1, Build901 2013/11/27)

>  <Rbt.Parameter_File>
/export/apps/rDock/src/rDock_2013.1_src/data/scripts/dock_solv.prm

>  <Rbt.Receptor>
prm/blind_docking_100.prm

>  <SCORE>
-15.0215

>  <SCORE.INTER>
-11.1033

>  <SCORE.INTER.CONST>
1

>  <SCORE.INTER.POLAR>
0

>  <SCORE.INTER.ROT>
7

>  <SCORE.INTER.SOLV>
7.32072

>  <SCORE.INTER.VDW>
-18.1091

>  <SCORE.INTER.norm>
-0.427051

>  <SCORE.INTRA>
-3.91817

>  <SCORE.INTRA.DIHEDRAL>
-2.99783

>  <SCORE.INTRA.DIHEDRAL.0>
6.97628

>  <SCORE.INTRA.POLAR>
0

>  <SCORE.INTRA.POLAR.0>
0

>  <SCORE.INTRA.REPUL>
0

>  <SCORE.INTRA.REPUL.0>
0

>  <SCORE.INTRA.SOLV>
-0.535075

>  <SCORE.INTRA.SOLV.lig_0>
-49.8243

>  <SCORE.INTRA.VDW>
-2.15172

>  <SCORE.INTRA.VDW.0>
-1.35881

>  <SCORE.INTRA.norm>
-0.150699

>  <SCORE.RESTR>
0

>  <SCORE.RESTR.CAVITY>
0

>  <SCORE.RESTR.norm>
0

>  <SCORE.SYSTEM>
0

>  <SCORE.SYSTEM.CONST>
0

>  <SCORE.SYSTEM.DIHEDRAL>
0

>  <SCORE.SYSTEM.SOLV>
0

>  <SCORE.SYSTEM.norm>
0

>  <SCORE.heavy>
26

>  <SCORE.norm>
-0.57775

>  <RMSD>
13.829

$$$$
ligand
 OpenBabel11021811483D
libRbt.so/2013.1/901 2013/11/27
 26 28  0  0  0  0  0  0  0  0999 V2000
   32.4834    3.0807    6.2967 N   0  0  0  0  0  0  0  0  0  0  0  0
   31.6389    2.0597    6.9041 C   0  0  2  0  0  0  0  0  0  0  0  0
   30.1845    2.2265    6.4790 C   0  0  0  0  0  0  0  0  0  0  0  0
   29.3534    1.3481    6.7062 O   0  0  0  0  0  0  0  0  0  0  0  0
   31.7484    2.1107    8.4228 C   0  0  0  0  0  0  0  0  0  0  0  0
   31.1740    3.3761    9.0462 C   0  0  0  0  0  0  0  0  0  0  0  0
   32.1339    4.8533    8.6281 S   0  0  0  0  0  0  0  0  0  0  0  0
   30.6637    5.6012    7.8814 C   0  0  0  0  0  0  0  0  0  0  0  0
   30.9712    6.3281    6.5774 C   0  0  1  0  0  0  0  0  0  0  0  0
   29.7660    6.7341    5.9547 O   0  0  0  0  0  0  0  0  0  0  0  0
   31.8125    7.5713    6.8158 C   0  0  1  0  0  0  0  0  0  0  0  0
   33.0628    7.4344    6.1831 O   0  0  0  0  0  0  0  0  0  0  0  0
   31.0404    8.7181    6.1972 C   0  0  1  0  0  0  0  0  0  0  0  0
   31.8233    9.3537    5.2136 O   0  0  0  0  0  0  0  0  0  0  0  0
   29.8095    8.0935    5.5631 C   0  0  2  0  0  0  0  0  0  0  0  0
   29.8063    3.2447    5.8983 O   0  0  0  0  0  0  0  0  0  0  0  0
   27.5915   12.7257    6.6543 N   0  0  0  0  0  0  0  0  0  0  0  0
   28.8746   12.4807    6.2081 C   0  0  0  0  0  0  0  0  0  0  0  0
   29.2925   11.1863    5.9701 N   0  0  0  0  0  0  0  0  0  0  0  0
   28.4476   10.1463    6.1742 C   0  0  0  0  0  0  0  0  0  0  0  0
   27.1536   10.3723    6.6232 C   0  0  0  0  0  0  0  0  0  0  0  0
   26.7249   11.6721    6.8642 C   0  0  0  0  0  0  0  0  0  0  0  0
   25.4880   11.9004    7.2954 N   0  0  0  0  0  0  0  0  0  0  0  0
   26.5384    9.1755    6.7380 N   0  0  0  0  0  0  0  0  0  0  0  0
   27.4063    8.2033    6.3750 C   0  0  0  0  0  0  0  0  0  0  0  0
   28.5945    8.7900    6.0227 N   0  0  0  0  0  0  0  0  0  0  0  0
  2  1  1  6  0  0  0
  2  3  1  0  0  0  0
  2  5  1  0  0  0  0
  3  4  1  0  0  0  0
  3 16  1  0  0  0  0
  5  6  1  0  0  0  0
  6  7  1  0  0  0  0
  7  8  1  0  0  0  0
  9  8  1  1  0  0  0
  9 10  1  0  0  0  0
  9 11  1  0  0  0  0
 10 15  1  0  0  0  0
 11 12  1  6  0  0  0
 11 13  1  0  0  0  0
 13 14  1  6  0  0  0
 13 15  1  0  0  0  0
 15 26  1  1  0  0  0
 17 18  2  0  0  0  0
 17 22  1  0  0  0  0
 18 19  1  0  0  0  0
 19 20  2  0  0  0  0
 20 21  1  0  0  0  0
 20 26  1  0  0  0  0
 21 22  2  0  0  0  0
 21 24  1  0  0  0  0
 22 23  1  0  0  0  0
 24 25  2  0  0  0  0
 25 26  1  0  0  0  0
M  END
>  <CHROM.1>
168.24555368,66.84815094,-67.58489460,121.30888296,-138.68447600,172.22978904
160.05939943,29.92935672,7.04913837,6.76691564,-1.16386730,0.04067247,-0.13070379

>  <Name>
ligand

>  <RI>
0

>  <Rbt.Current_Directory>
/home/itssahil/PROJECTS/Mol_Feturizer/New_Systems/rnas/3NPQ

>  <Rbt.Executable>
rbdock ($Id: //depot/dev/client3/rdock/2013.1/src/exe/rbdock.cxx#4 $)

>  <Rbt.Library>
libRbt.so (2013.1, Build901 2013/11/27)

>  <Rbt.Parameter_File>
/export/apps/rDock/src/rDock_2013.1_src/data/scripts/dock_solv.prm

>  <Rbt.Receptor>
prm/blind_docking_40.prm

>  <SCORE>
-4.03707

>  <SCORE.INTER>
-4.27706

>  <SCORE.INTER.CONST>
1

>  <SCORE.INTER.POLAR>
0

>  <SCORE.INTER.ROT>
7

>  <SCORE.INTER.SOLV>
7.53482

>  <SCORE.INTER.VDW>
-13.6296

>  <SCORE.INTER.norm>
-0.164502

>  <SCORE.INTRA>
0.239988

>  <SCORE.INTRA.DIHEDRAL>
0.560047

>  <SCORE.INTRA.DIHEDRAL.0>
6.97628

>  <SCORE.INTRA.POLAR>
0

>  <SCORE.INTRA.POLAR.0>
0

>  <SCORE.INTRA.REPUL>
0

>  <SCORE.INTRA.REPUL.0>
0

>  <SCORE.INTRA.SOLV>
2.74044

>  <SCORE.INTRA.SOLV.lig_0>
-49.8243

>  <SCORE.INTRA.VDW>
-1.41025

>  <SCORE.INTRA.VDW.0>
-1.35881

>  <SCORE.INTRA.norm>
0.0092303

>  <SCORE.RESTR>
0

>  <SCORE.RESTR.CAVITY>
0

>  <SCORE.RESTR.norm>
0

>  <SCORE.SYSTEM>
0

>  <SCORE.SYSTEM.CONST>
0

>  <SCORE.SYSTEM.DIHEDRAL>
0

>  <SCORE.SYSTEM.SOLV>
0

>  <SCORE.SYSTEM.norm>
0

>  <SCORE.heavy>
26

>  <SCORE.norm>
-0.155272

>  <RMSD>
13.862

$$$$
ligand
 OpenBabel11021811483D
libRbt.so/2013.1/901 2013/11/27
 26 28  0  0  0  0  0  0  0  0999 V2000
   33.0070    0.7727    6.5966 N   0  0  0  0  0  0  0  0  0  0  0  0
   32.4512    2.0875    6.8916 C   0  0  2  0  0  0  0  0  0  0  0  0
   30.9856    1.9849    7.2983 C   0  0  0  0  0  0  0  0  0  0  0  0
   30.1593    1.4504    6.5597 O   0  0  0  0  0  0  0  0  0  0  0  0
   32.5960    3.0104    5.6881 C   0  0  0  0  0  0  0  0  0  0  0  0
   32.2500    4.4657    5.9745 C   0  0  0  0  0  0  0  0  0  0  0  0
   30.4756    4.7200    6.2303 S   0  0  0  0  0  0  0  0  0  0  0  0
   30.7724    6.4739    6.5679 C   0  0  0  0  0  0  0  0  0  0  0  0
   29.5896    7.1499    7.2515 C   0  0  1  0  0  0  0  0  0  0  0  0
   29.8517    8.5317    7.4160 O   0  0  0  0  0  0  0  0  0  0  0  0
   28.3174    7.0129    6.4311 C   0  0  1  0  0  0  0  0  0  0  0  0
   27.3632    6.2633    7.1451 O   0  0  0  0  0  0  0  0  0  0  0  0
   27.8118    8.4240    6.2133 C   0  0  1  0  0  0  0  0  0  0  0  0
   26.5088    8.5566    6.7318 O   0  0  0  0  0  0  0  0  0  0  0  0
   28.7702    9.3280    6.9694 C   0  0  2  0  0  0  0  0  0  0  0  0
   30.5936    2.4339    8.3760 O   0  0  0  0  0  0  0  0  0  0  0  0
   28.7440   14.4711    5.9135 N   0  0  0  0  0  0  0  0  0  0  0  0
   28.0865   13.8078    6.9300 C   0  0  0  0  0  0  0  0  0  0  0  0
   28.2081   12.4383    7.0589 N   0  0  0  0  0  0  0  0  0  0  0  0
   28.9721   11.7345    6.1883 C   0  0  0  0  0  0  0  0  0  0  0  0
   29.6407   12.3835    5.1592 C   0  0  0  0  0  0  0  0  0  0  0  0
   29.5243   13.7616    5.0231 C   0  0  0  0  0  0  0  0  0  0  0  0
   30.1594   14.3938    4.0407 N   0  0  0  0  0  0  0  0  0  0  0  0
   30.3186   11.4536    4.4524 N   0  0  0  0  0  0  0  0  0  0  0  0
   30.0966   10.2391    5.0055 C   0  0  0  0  0  0  0  0  0  0  0  0
   29.2635   10.3973    6.0829 N   0  0  0  0  0  0  0  0  0  0  0  0
  2  1  1  6  0  0  0
  2  3  1  0  0  0  0
  2  5  1  0  0  0  0
  3  4  1  0  0  0  0
  3 16  1  0  0  0  0
  5  6  1  0  0  0  0
  6  7  1  0  0  0  0
  7  8  1  0  0  0  0
  9  8  1  6  0  0  0
  9 10  1  0  0  0  0
  9 11  1  0  0  0  0
 10 15  1  0  0  0  0
 11 12  1  1  0  0  0
 11 13  1  0  0  0  0
 13 14  1  1  0  0  0
 13 15  1  0  0  0  0
 15 26  1  6  0  0  0
 17 18  2  0  0  0  0
 17 22  1  0  0  0  0
 18 19  1  0  0  0  0
 19 20  2  0  0  0  0
 20 21  1  0  0  0  0
 20 26  1  0  0  0  0
 21 22  2  0  0  0  0
 21 24  1  0  0  0  0
 22 23  1  0  0  0  0
 24 25  2  0  0  0  0
 25 26  1  0  0  0  0
M  END
>  <CHROM.1>
-56.41668437,-170.62484190,-70.86261935,177.57700654,-163.70099196,-176.55996961
-129.65404533,29.81162958,7.69565144,6.34221438,-1.32300703,0.42474128,-0.20965805

>  <Name>
ligand

>  <RI>
0

>  <Rbt.Current_Directory>
/home/itssahil/PROJECTS/Mol_Feturizer/New_Systems/rnas/3NPQ

>  <Rbt.Executable>
rbdock ($Id: //depot/dev/client3/rdock/2013.1/src/exe/rbdock.cxx#4 $)

>  <Rbt.Library>
libRbt.so (2013.1, Build901 2013/11/27)

>  <Rbt.Parameter_File>
/export/apps/rDock/src/rDock_2013.1_src/data/scripts/dock_solv.prm

>  <Rbt.Receptor>
prm/blind_docking_40.prm

>  <SCORE>
-7.1161

>  <SCORE.INTER>
-4.31217

>  <SCORE.INTER.CONST>
1

>  <SCORE.INTER.POLAR>
0

>  <SCORE.INTER.ROT>
7

>  <SCORE.INTER.SOLV>
6.40507

>  <SCORE.INTER.VDW>
-13.2765

>  <SCORE.INTER.norm>
-0.165853

>  <SCORE.INTRA>
-2.80393

>  <SCORE.INTRA.DIHEDRAL>
-3.07859

>  <SCORE.INTRA.DIHEDRAL.0>
6.97628

>  <SCORE.INTRA.POLAR>
0

>  <SCORE.INTRA.POLAR.0>
0

>  <SCORE.INTRA.REPUL>
0

>  <SCORE.INTRA.REPUL.0>
0

>  <SCORE.INTRA.SOLV>
-0.63453

>  <SCORE.INTRA.SOLV.lig_0>
-49.8243

>  <SCORE.INTRA.VDW>
-0.947373

>  <SCORE.INTRA.VDW.0>
-1.35881

>  <SCORE.INTRA.norm>
-0.107844

>  <SCORE.RESTR>
0

>  <SCORE.RESTR.CAVITY>
0

>  <SCORE.RESTR.norm>
0

>  <SCORE.SYSTEM>
0

>  <SCORE.SYSTEM.CONST>
0

>  <SCORE.SYSTEM.DIHEDRAL>
0

>  <SCORE.SYSTEM.SOLV>
0

>  <SCORE.SYSTEM.norm>
0

>  <SCORE.heavy>
26

>  <SCORE.norm>
-0.273696

>  <RMSD>
13.929

$$$$
ligand
 OpenBabel11021811483D
libRbt.so/2013.1/901 2013/11/27
 26 28  0  0  0  0  0  0  0  0999 V2000
   34.0463    4.6144    9.3282 N   0  0  0  0  0  0  0  0  0  0  0  0
   32.7957    3.9106    9.0729 C   0  0  2  0  0  0  0  0  0  0  0  0
   33.0044    2.4006    9.0811 C   0  0  0  0  0  0  0  0  0  0  0  0
   34.0495    1.9034    8.6635 O   0  0  0  0  0  0  0  0  0  0  0  0
   32.1992    4.3484    7.7410 C   0  0  0  0  0  0  0  0  0  0  0  0
   31.8362    5.8261    7.6772 C   0  0  0  0  0  0  0  0  0  0  0  0
   30.4297    6.2419    8.7389 S   0  0  0  0  0  0  0  0  0  0  0  0
   30.5542    7.9752    8.2304 C   0  0  0  0  0  0  0  0  0  0  0  0
   30.2951    8.1716    6.7412 C   0  0  1  0  0  0  0  0  0  0  0  0
   28.9567    8.5849    6.5340 O   0  0  0  0  0  0  0  0  0  0  0  0
   31.2064    9.2354    6.1512 C   0  0  1  0  0  0  0  0  0  0  0  0
   32.0520    8.6611    5.1830 O   0  0  0  0  0  0  0  0  0  0  0  0
   30.2898   10.2519    5.5026 C   0  0  1  0  0  0  0  0  0  0  0  0
   30.5938   10.3729    4.1325 O   0  0  0  0  0  0  0  0  0  0  0  0
   28.8813    9.7112    5.6801 C   0  0  2  0  0  0  0  0  0  0  0  0
   32.1322    1.6421    9.5063 O   0  0  0  0  0  0  0  0  0  0  0  0
   24.0886   10.8618    7.4892 N   0  0  0  0  0  0  0  0  0  0  0  0
   24.5336    9.6679    6.9581 C   0  0  0  0  0  0  0  0  0  0  0  0
   25.8398    9.5425    6.5282 N   0  0  0  0  0  0  0  0  0  0  0  0
   26.6946   10.5901    6.6225 C   0  0  0  0  0  0  0  0  0  0  0  0
   26.2656   11.7990    7.1532 C   0  0  0  0  0  0  0  0  0  0  0  0
   24.9529   11.9332    7.5891 C   0  0  0  0  0  0  0  0  0  0  0  0
   24.5307   13.0868    8.0983 N   0  0  0  0  0  0  0  0  0  0  0  0
   27.3084   12.6570    7.1292 N   0  0  0  0  0  0  0  0  0  0  0  0
   28.3804   12.0245    6.5991 C   0  0  0  0  0  0  0  0  0  0  0  0
   28.0152   10.7420    6.2801 N   0  0  0  0  0  0  0  0  0  0  0  0
  2  1  1  6  0  0  0
  2  3  1  0  0  0  0
  2  5  1  0  0  0  0
  3  4  1  0  0  0  0
  3 16  1  0  0  0  0
  5  6  1  0  0  0  0
  6  7  1  0  0  0  0
  7  8  1  0  0  0  0
  9  8  1  1  0  0  0
  9 10  1  0  0  0  0
  9 11  1  0  0  0  0
 10 15  1  0  0  0  0
 11 12  1  6  0  0  0
 11 13  1  0  0  0  0
 13 14  1  6  0  0  0
 13 15  1  0  0  0  0
 15 26  1  1  0  0  0
 17 18  2  0  0  0  0
 17 22  1  0  0  0  0
 18 19  1  0  0  0  0
 19 20  2  0  0  0  0
 20 21  1  0  0  0  0
 20 26  1  0  0  0  0
 21 22  2  0  0  0  0
 21 24  1  0  0  0  0
 22 23  1  0  0  0  0
 24 25  2  0  0  0  0
 25 26  1  0  0  0  0
M  END
>  <CHROM.1>
-34.46138537,-62.11491602,-69.21137333,179.47656015,63.48100427,98.20716106
-59.16833652,29.53947932,8.13622192,7.31202908,-0.81911481,0.38699535,-0.57052298

>  <Name>
ligand

>  <RI>
0

>  <Rbt.Current_Directory>
/home/itssahil/PROJECTS/Mol_Feturizer/New_Systems/rnas/3NPQ

>  <Rbt.Executable>
rbdock ($Id: //depot/dev/client3/rdock/2013.1/src/exe/rbdock.cxx#4 $)

>  <Rbt.Library>
libRbt.so (2013.1, Build901 2013/11/27)

>  <Rbt.Parameter_File>
/export/apps/rDock/src/rDock_2013.1_src/data/scripts/dock_solv.prm

>  <Rbt.Receptor>
prm/blind_docking_40.prm

>  <SCORE>
-3.13776

>  <SCORE.INTER>
-3.23064

>  <SCORE.INTER.CONST>
1

>  <SCORE.INTER.POLAR>
0

>  <SCORE.INTER.ROT>
7

>  <SCORE.INTER.SOLV>
13.4402

>  <SCORE.INTER.VDW>
-14.9005

>  <SCORE.INTER.norm>
-0.124256

>  <SCORE.INTRA>
0.092886

>  <SCORE.INTRA.DIHEDRAL>
-0.209784

>  <SCORE.INTRA.DIHEDRAL.0>
6.97628

>  <SCORE.INTRA.POLAR>
0

>  <SCORE.INTRA.POLAR.0>
0

>  <SCORE.INTRA.REPUL>
0

>  <SCORE.INTRA.REPUL.0>
0

>  <SCORE.INTRA.SOLV>
0.362786

>  <SCORE.INTRA.SOLV.lig_0>
-49.8243

>  <SCORE.INTRA.VDW>
0.0163852

>  <SCORE.INTRA.VDW.0>
-1.35881

>  <SCORE.INTRA.norm>
0.00357254

>  <SCORE.RESTR>
0

>  <SCORE.RESTR.CAVITY>
0

>  <SCORE.RESTR.norm>
0

>  <SCORE.SYSTEM>
0

>  <SCORE.SYSTEM.CONST>
0

>  <SCORE.SYSTEM.DIHEDRAL>
0

>  <SCORE.SYSTEM.SOLV>
0

>  <SCORE.SYSTEM.norm>
0

>  <SCORE.heavy>
26

>  <SCORE.norm>
-0.120683

>  <RMSD>
13.976

$$$$
ligand
 OpenBabel11021811483D
libRbt.so/2013.1/901 2013/11/27
 26 28  0  0  0  0  0  0  0  0999 V2000
   31.0214    4.1178    9.5636 N   0  0  0  0  0  0  0  0  0  0  0  0
   30.8677    3.2953    8.3701 C   0  0  2  0  0  0  0  0  0  0  0  0
   31.5527    1.9444    8.5429 C   0  0  0  0  0  0  0  0  0  0  0  0
   32.5680    1.8323    9.2288 O   0  0  0  0  0  0  0  0  0  0  0  0
   31.4304    4.0142    7.1504 C   0  0  0  0  0  0  0  0  0  0  0  0
   31.1575    3.3063    5.8298 C   0  0  0  0  0  0  0  0  0  0  0  0
   29.3898    3.1959    5.4535 S   0  0  0  0  0  0  0  0  0  0  0  0
   29.3454    4.9759    5.1253 C   0  0  0  0  0  0  0  0  0  0  0  0
   28.7981    5.7775    6.3006 C   0  0  1  0  0  0  0  0  0  0  0  0
   29.5956    6.9278    6.5142 O   0  0  0  0  0  0  0  0  0  0  0  0
   27.3732    6.2411    6.0453 C   0  0  1  0  0  0  0  0  0  0  0  0
   26.5016    5.6555    6.9832 O   0  0  0  0  0  0  0  0  0  0  0  0
   27.3899    7.7454    6.2208 C   0  0  1  0  0  0  0  0  0  0  0  0
   26.4810    8.1252    7.2277 O   0  0  0  0  0  0  0  0  0  0  0  0
   28.8080    8.0974    6.6364 C   0  0  2  0  0  0  0  0  0  0  0  0
   31.1061    0.9329    8.0005 O   0  0  0  0  0  0  0  0  0  0  0  0
   29.1276   13.2635    5.7550 N   0  0  0  0  0  0  0  0  0  0  0  0
   28.4661   12.6142    6.7778 C   0  0  0  0  0  0  0  0  0  0  0  0
   28.4886   11.2356    6.8553 N   0  0  0  0  0  0  0  0  0  0  0  0
   29.1584   10.5093    5.9276 C   0  0  0  0  0  0  0  0  0  0  0  0
   29.8293   11.1440    4.8911 C   0  0  0  0  0  0  0  0  0  0  0  0
   29.8124   12.5310    4.8065 C   0  0  0  0  0  0  0  0  0  0  0  0
   30.4506   13.1497    3.8176 N   0  0  0  0  0  0  0  0  0  0  0  0
   30.4033   10.1928    4.1232 N   0  0  0  0  0  0  0  0  0  0  0  0
   30.1137    8.9787    4.6451 C   0  0  0  0  0  0  0  0  0  0  0  0
   29.3424    9.1588    5.7643 N   0  0  0  0  0  0  0  0  0  0  0  0
  2  1  1  1  0  0  0
  2  3  1  0  0  0  0
  2  5  1  0  0  0  0
  3  4  1  0  0  0  0
  3 16  1  0  0  0  0
  5  6  1  0  0  0  0
  6  7  1  0  0  0  0
  7  8  1  0  0  0  0
  9  8  1  6  0  0  0
  9 10  1  0  0  0  0
  9 11  1  0  0  0  0
 10 15  1  0  0  0  0
 11 12  1  1  0  0  0
 11 13  1  0  0  0  0
 13 14  1  1  0  0  0
 13 15  1  0  0  0  0
 15 26  1  6  0  0  0
 17 18  2  0  0  0  0
 17 22  1  0  0  0  0
 18 19  1  0  0  0  0
 19 20  2  0  0  0  0
 20 21  1  0  0  0  0
 20 26  1  0  0  0  0
 21 22  2  0  0  0  0
 21 24  1  0  0  0  0
 22 23  1  0  0  0  0
 24 25  2  0  0  0  0
 25 26  1  0  0  0  0
M  END
>  <CHROM.1>
-32.14130596,-172.74789212,63.22925298,71.30555088,-99.83906759,136.19202610
-156.51189426,29.54812729,6.94170455,6.40268769,-1.39962342,-0.01107997,-0.24030930

>  <Name>
ligand

>  <RI>
0

>  <Rbt.Current_Directory>
/home/itssahil/PROJECTS/Mol_Feturizer/New_Systems/rnas/3NPQ

>  <Rbt.Executable>
rbdock ($Id: //depot/dev/client3/rdock/2013.1/src/exe/rbdock.cxx#4 $)

>  <Rbt.Library>
libRbt.so (2013.1, Build901 2013/11/27)

>  <Rbt.Parameter_File>
/export/apps/rDock/src/rDock_2013.1_src/data/scripts/dock_solv.prm

>  <Rbt.Receptor>
prm/blind_docking_40.prm

>  <SCORE>
-7.36993

>  <SCORE.INTER>
-7.4567

>  <SCORE.INTER.CONST>
1

>  <SCORE.INTER.POLAR>
0

>  <SCORE.INTER.ROT>
7

>  <SCORE.INTER.SOLV>
8.43973

>  <SCORE.INTER.VDW>
-16.051

>  <SCORE.INTER.norm>
-0.286796

>  <SCORE.INTRA>
0.0867611

>  <SCORE.INTRA.DIHEDRAL>
2.30972

>  <SCORE.INTRA.DIHEDRAL.0>
6.97628

>  <SCORE.INTRA.POLAR>
0

>  <SCORE.INTRA.POLAR.0>
0

>  <SCORE.INTRA.REPUL>
0

>  <SCORE.INTRA.REPUL.0>
0

>  <SCORE.INTRA.SOLV>
-0.316587

>  <SCORE.INTRA.SOLV.lig_0>
-49.8243

>  <SCORE.INTRA.VDW>
-0.909807

>  <SCORE.INTRA.VDW.0>
-1.35881

>  <SCORE.INTRA.norm>
0.00333697

>  <SCORE.RESTR>
0

>  <SCORE.RESTR.CAVITY>
0

>  <SCORE.RESTR.norm>
0

>  <SCORE.SYSTEM>
0

>  <SCORE.SYSTEM.CONST>
0

>  <SCORE.SYSTEM.DIHEDRAL>
0

>  <SCORE.SYSTEM.SOLV>
0

>  <SCORE.SYSTEM.norm>
0

>  <SCORE.heavy>
26

>  <SCORE.norm>
-0.283459

>  <RMSD>
14.082

$$$$
ligand
 OpenBabel11021811483D
libRbt.so/2013.1/901 2013/11/27
 26 28  0  0  0  0  0  0  0  0999 V2000
   33.7002   21.3030   18.8800 N   0  0  0  0  0  0  0  0  0  0  0  0
   33.2163   21.3150   17.5052 C   0  0  2  0  0  0  0  0  0  0  0  0
   32.5029   20.0119   17.1633 C   0  0  0  0  0  0  0  0  0  0  0  0
   31.6243   19.9777   16.3026 O   0  0  0  0  0  0  0  0  0  0  0  0
   34.3680   21.5499   16.5360 C   0  0  0  0  0  0  0  0  0  0  0  0
   35.0457   22.9051   16.6912 C   0  0  0  0  0  0  0  0  0  0  0  0
   36.1203   23.3083   15.2908 S   0  0  0  0  0  0  0  0  0  0  0  0
   36.5126   24.9056   16.0478 C   0  0  0  0  0  0  0  0  0  0  0  0
   37.8154   24.8778   16.8386 C   0  0  1  0  0  0  0  0  0  0  0  0
   37.5999   24.2800   18.1040 O   0  0  0  0  0  0  0  0  0  0  0  0
   38.8872   24.0733   16.1213 C   0  0  1  0  0  0  0  0  0  0  0  0
   39.9662   24.9095   15.7767 O   0  0  0  0  0  0  0  0  0  0  0  0
   39.3425   23.0185   17.1082 C   0  0  1  0  0  0  0  0  0  0  0  0
   40.7257   23.1416   17.3443 O   0  0  0  0  0  0  0  0  0  0  0  0
   38.5677   23.2867   18.3870 C   0  0  2  0  0  0  0  0  0  0  0  0
   32.7892   18.9620   17.7399 O   0  0  0  0  0  0  0  0  0  0  0  0
   38.2636   18.0671   17.9073 N   0  0  0  0  0  0  0  0  0  0  0  0
   39.0940   18.9369   17.2295 C   0  0  0  0  0  0  0  0  0  0  0  0
   39.0382   20.2927   17.4855 N   0  0  0  0  0  0  0  0  0  0  0  0
   38.1673   20.7804   18.4023 C   0  0  0  0  0  0  0  0  0  0  0  0
   37.3236   19.9217   19.0938 C   0  0  0  0  0  0  0  0  0  0  0  0
   37.3742   18.5558   18.8428 C   0  0  0  0  0  0  0  0  0  0  0  0
   36.5702   17.7240   19.4984 N   0  0  0  0  0  0  0  0  0  0  0  0
   36.5716   20.6650   19.9341 N   0  0  0  0  0  0  0  0  0  0  0  0
   36.9164   21.9654   19.7920 C   0  0  0  0  0  0  0  0  0  0  0  0
   37.9048   22.0527   18.8457 N   0  0  0  0  0  0  0  0  0  0  0  0
  2  1  1  1  0  0  0
  2  3  1  0  0  0  0
  2  5  1  0  0  0  0
  3  4  1  0  0  0  0
  3 16  1  0  0  0  0
  5  6  1  0  0  0  0
  6  7  1  0  0  0  0
  7  8  1  0  0  0  0
  9  8  1  6  0  0  0
  9 10  1  0  0  0  0
  9 11  1  0  0  0  0
 10 15  1  0  0  0  0
 11 12  1  1  0  0  0
 11 13  1  0  0  0  0
 13 14  1  1  0  0  0
 13 15  1  0  0  0  0
 15 26  1  6  0  0  0
 17 18  2  0  0  0  0
 17 22  1  0  0  0  0
 18 19  1  0  0  0  0
 19 20  2  0  0  0  0
 20 21  1  0  0  0  0
 20 26  1  0  0  0  0
 21 22  2  0  0  0  0
 21 24  1  0  0  0  0
 22 23  1  0  0  0  0
 24 25  2  0  0  0  0
 25 26  1  0  0  0  0
M  END
>  <CHROM.1>
152.79526610,-63.62902495,-166.12527499,178.53949296,96.30099843,-79.12936080
132.71761720,36.71748307,21.69703316,17.50073816,2.48867764,0.18129374,2.68765680

>  <Name>
ligand

>  <RI>
0

>  <Rbt.Current_Directory>
/home/itssahil/PROJECTS/Mol_Feturizer/New_Systems/rnas/3NPQ

>  <Rbt.Executable>
rbdock ($Id: //depot/dev/client3/rdock/2013.1/src/exe/rbdock.cxx#4 $)

>  <Rbt.Library>
libRbt.so (2013.1, Build901 2013/11/27)

>  <Rbt.Parameter_File>
/export/apps/rDock/src/rDock_2013.1_src/data/scripts/dock_solv.prm

>  <Rbt.Receptor>
prm/blind_docking_100.prm

>  <SCORE>
-14.2978

>  <SCORE.INTER>
-12.7536

>  <SCORE.INTER.CONST>
1

>  <SCORE.INTER.POLAR>
0

>  <SCORE.INTER.ROT>
7

>  <SCORE.INTER.SOLV>
6.62773

>  <SCORE.INTER.VDW>
-18.9783

>  <SCORE.INTER.norm>
-0.490524

>  <SCORE.INTRA>
-1.54422

>  <SCORE.INTRA.DIHEDRAL>
-0.749886

>  <SCORE.INTRA.DIHEDRAL.0>
6.97628

>  <SCORE.INTRA.POLAR>
0

>  <SCORE.INTRA.POLAR.0>
0

>  <SCORE.INTRA.REPUL>
0

>  <SCORE.INTRA.REPUL.0>
0

>  <SCORE.INTRA.SOLV>
1.0814

>  <SCORE.INTRA.SOLV.lig_0>
-49.8243

>  <SCORE.INTRA.VDW>
-1.70998

>  <SCORE.INTRA.VDW.0>
-1.35881

>  <SCORE.INTRA.norm>
-0.0593931

>  <SCORE.RESTR>
0

>  <SCORE.RESTR.CAVITY>
0

>  <SCORE.RESTR.norm>
0

>  <SCORE.SYSTEM>
0

>  <SCORE.SYSTEM.CONST>
0

>  <SCORE.SYSTEM.DIHEDRAL>
0

>  <SCORE.SYSTEM.SOLV>
0

>  <SCORE.SYSTEM.norm>
0

>  <SCORE.heavy>
26

>  <SCORE.norm>
-0.549917

>  <RMSD>
14.090

$$$$
ligand
 OpenBabel11021811483D
libRbt.so/2013.1/901 2013/11/27
 26 28  0  0  0  0  0  0  0  0999 V2000
   31.5370    1.4175    6.6055 N   0  0  0  0  0  0  0  0  0  0  0  0
   30.4674    2.4031    6.7017 C   0  0  2  0  0  0  0  0  0  0  0  0
   29.2331    1.8095    7.3712 C   0  0  0  0  0  0  0  0  0  0  0  0
   28.9226    0.6318    7.1968 O   0  0  0  0  0  0  0  0  0  0  0  0
   30.1071    2.9363    5.3207 C   0  0  0  0  0  0  0  0  0  0  0  0
   29.0970    4.0761    5.3376 C   0  0  0  0  0  0  0  0  0  0  0  0
   29.7224    5.5453    6.1911 S   0  0  0  0  0  0  0  0  0  0  0  0
   28.0788    6.2997    6.1036 C   0  0  0  0  0  0  0  0  0  0  0  0
   27.9208    7.4783    7.0571 C   0  0  1  0  0  0  0  0  0  0  0  0
   28.9618    8.4144    6.8450 O   0  0  0  0  0  0  0  0  0  0  0  0
   26.5989    8.1971    6.8424 C   0  0  1  0  0  0  0  0  0  0  0  0
   25.8031    8.0961    7.9995 O   0  0  0  0  0  0  0  0  0  0  0  0
   26.9537    9.6463    6.5813 C   0  0  1  0  0  0  0  0  0  0  0  0
   26.3317   10.4761    7.5345 O   0  0  0  0  0  0  0  0  0  0  0  0
   28.4641    9.7333    6.7182 C   0  0  2  0  0  0  0  0  0  0  0  0
   28.5175    2.4943    8.1031 O   0  0  0  0  0  0  0  0  0  0  0  0
   30.1448   14.2241    4.5792 N   0  0  0  0  0  0  0  0  0  0  0  0
   29.6214   14.0262    5.8410 C   0  0  0  0  0  0  0  0  0  0  0  0
   29.2272   12.7643    6.2400 N   0  0  0  0  0  0  0  0  0  0  0  0
   29.3493   11.7109    5.3961 C   0  0  0  0  0  0  0  0  0  0  0  0
   29.8728   11.8898    4.1229 C   0  0  0  0  0  0  0  0  0  0  0  0
   30.2728   13.1563    3.7139 C   0  0  0  0  0  0  0  0  0  0  0  0
   30.7748   13.3397    2.4964 N   0  0  0  0  0  0  0  0  0  0  0  0
   29.8809   10.6893    3.5042 N   0  0  0  0  0  0  0  0  0  0  0  0
   29.3781    9.7605    4.3496 C   0  0  0  0  0  0  0  0  0  0  0  0
   29.0441   10.3789    5.5268 N   0  0  0  0  0  0  0  0  0  0  0  0
  2  1  1  6  0  0  0
  2  3  1  0  0  0  0
  2  5  1  0  0  0  0
  3  4  1  0  0  0  0
  3 16  1  0  0  0  0
  5  6  1  0  0  0  0
  6  7  1  0  0  0  0
  7  8  1  0  0  0  0
  9  8  1  6  0  0  0
  9 10  1  0  0  0  0
  9 11  1  0  0  0  0
 10 15  1  0  0  0  0
 11 12  1  1  0  0  0
 11 13  1  0  0  0  0
 13 14  1  1  0  0  0
 13 15  1  0  0  0  0
 15 26  1  6  0  0  0
 17 18  2  0  0  0  0
 17 22  1  0  0  0  0
 18 19  1  0  0  0  0
 19 20  2  0  0  0  0
 20 21  1  0  0  0  0
 20 26  1  0  0  0  0
 21 22  2  0  0  0  0
 21 24  1  0  0  0  0
 22 23  1  0  0  0  0
 24 25  2  0  0  0  0
 25 26  1  0  0  0  0
M  END
>  <CHROM.1>
-34.83086654,-174.03900425,63.07506926,-171.16998894,163.80757648,53.44198452
-146.47896754,29.00327489,7.89339410,6.00310014,-1.56285895,0.66884224,-0.19823337

>  <Name>
ligand

>  <RI>
0

>  <Rbt.Current_Directory>
/home/itssahil/PROJECTS/Mol_Feturizer/New_Systems/rnas/3NPQ

>  <Rbt.Executable>
rbdock ($Id: //depot/dev/client3/rdock/2013.1/src/exe/rbdock.cxx#4 $)

>  <Rbt.Library>
libRbt.so (2013.1, Build901 2013/11/27)

>  <Rbt.Parameter_File>
/export/apps/rDock/src/rDock_2013.1_src/data/scripts/dock_solv.prm

>  <Rbt.Receptor>
prm/blind_docking_40.prm

>  <SCORE>
-9.81892

>  <SCORE.INTER>
-6.52315

>  <SCORE.INTER.CONST>
1

>  <SCORE.INTER.POLAR>
0

>  <SCORE.INTER.ROT>
7

>  <SCORE.INTER.SOLV>
11.9195

>  <SCORE.INTER.VDW>
-16.5886

>  <SCORE.INTER.norm>
-0.25089

>  <SCORE.INTRA>
-3.30372

>  <SCORE.INTRA.DIHEDRAL>
-3.45269

>  <SCORE.INTRA.DIHEDRAL.0>
6.97628

>  <SCORE.INTRA.POLAR>
0

>  <SCORE.INTRA.POLAR.0>
0

>  <SCORE.INTRA.REPUL>
0

>  <SCORE.INTRA.REPUL.0>
0

>  <SCORE.INTRA.SOLV>
-0.775409

>  <SCORE.INTRA.SOLV.lig_0>
-49.8243

>  <SCORE.INTRA.VDW>
-1.18967

>  <SCORE.INTRA.VDW.0>
-1.35881

>  <SCORE.INTRA.norm>
-0.127066

>  <SCORE.RESTR>
0.0079481

>  <SCORE.RESTR.CAVITY>
0.0079481

>  <SCORE.RESTR.norm>
0.000305696

>  <SCORE.SYSTEM>
0

>  <SCORE.SYSTEM.CONST>
0

>  <SCORE.SYSTEM.DIHEDRAL>
0

>  <SCORE.SYSTEM.SOLV>
0

>  <SCORE.SYSTEM.norm>
0

>  <SCORE.heavy>
26

>  <SCORE.norm>
-0.377651

>  <RMSD>
14.095

$$$$
ligand
 OpenBabel11021811483D
libRbt.so/2013.1/901 2013/11/27
 26 28  0  0  0  0  0  0  0  0999 V2000
   33.1807    2.5807    7.4880 N   0  0  0  0  0  0  0  0  0  0  0  0
   32.5744    1.8656    6.3719 C   0  0  2  0  0  0  0  0  0  0  0  0
   32.9934    2.4738    5.0382 C   0  0  0  0  0  0  0  0  0  0  0  0
   33.0322    1.7912    4.0152 O   0  0  0  0  0  0  0  0  0  0  0  0
   31.0559    1.8727    6.4952 C   0  0  0  0  0  0  0  0  0  0  0  0
   30.4343    3.2625    6.4520 C   0  0  0  0  0  0  0  0  0  0  0  0
   29.2941    3.4700    5.0608 S   0  0  0  0  0  0  0  0  0  0  0  0
   29.4233    5.2690    5.2192 C   0  0  0  0  0  0  0  0  0  0  0  0
   28.6893    5.8062    6.4424 C   0  0  1  0  0  0  0  0  0  0  0  0
   29.4200    6.8764    7.0130 O   0  0  0  0  0  0  0  0  0  0  0  0
   27.3081    6.3275    6.0806 C   0  0  1  0  0  0  0  0  0  0  0  0
   26.3203    5.5635    6.7309 O   0  0  0  0  0  0  0  0  0  0  0  0
   27.2645    7.7593    6.5727 C   0  0  1  0  0  0  0  0  0  0  0  0
   26.2076    7.9240    7.4892 O   0  0  0  0  0  0  0  0  0  0  0  0
   28.5966    8.0005    7.2616 C   0  0  2  0  0  0  0  0  0  0  0  0
   33.3026    3.6628    4.9527 O   0  0  0  0  0  0  0  0  0  0  0  0
   29.0107   11.2538    3.1614 N   0  0  0  0  0  0  0  0  0  0  0  0
   28.2349   10.1174    3.2709 C   0  0  0  0  0  0  0  0  0  0  0  0
   28.2495    9.3754    4.4354 N   0  0  0  0  0  0  0  0  0  0  0  0
   29.0263    9.7555    5.4790 C   0  0  0  0  0  0  0  0  0  0  0  0
   29.8139   10.8950    5.3878 C   0  0  0  0  0  0  0  0  0  0  0  0
   29.8042   11.6478    4.2198 C   0  0  0  0  0  0  0  0  0  0  0  0
   30.5554   12.7406    4.1209 N   0  0  0  0  0  0  0  0  0  0  0  0
   30.4761   11.0373    6.5563 N   0  0  0  0  0  0  0  0  0  0  0  0
   30.1290   10.0215    7.3798 C   0  0  0  0  0  0  0  0  0  0  0  0
   29.2306    9.2185    6.7256 N   0  0  0  0  0  0  0  0  0  0  0  0
  2  1  1  1  0  0  0
  2  3  1  0  0  0  0
  2  5  1  0  0  0  0
  3  4  1  0  0  0  0
  3 16  1  0  0  0  0
  5  6  1  0  0  0  0
  6  7  1  0  0  0  0
  7  8  1  0  0  0  0
  9  8  1  6  0  0  0
  9 10  1  0  0  0  0
  9 11  1  0  0  0  0
 10 15  1  0  0  0  0
 11 12  1  1  0  0  0
 11 13  1  0  0  0  0
 13 14  1  1  0  0  0
 13 15  1  0  0  0  0
 15 26  1  6  0  0  0
 17 18  2  0  0  0  0
 17 22  1  0  0  0  0
 18 19  1  0  0  0  0
 19 20  2  0  0  0  0
 20 21  1  0  0  0  0
 20 26  1  0  0  0  0
 21 22  2  0  0  0  0
 21 24  1  0  0  0  0
 22 23  1  0  0  0  0
 24 25  2  0  0  0  0
 25 26  1  0  0  0  0
M  END
>  <CHROM.1>
152.64005437,62.15097815,119.04780865,-161.21546427,-72.74803573,142.87439278
92.71960438,29.73382158,6.67261087,5.73096881,-1.21621618,0.35637349,-0.18839182

>  <Name>
ligand

>  <RI>
0

>  <Rbt.Current_Directory>
/home/itssahil/PROJECTS/Mol_Feturizer/New_Systems/rnas/3NPQ

>  <Rbt.Executable>
rbdock ($Id: //depot/dev/client3/rdock/2013.1/src/exe/rbdock.cxx#4 $)

>  <Rbt.Library>
libRbt.so (2013.1, Build901 2013/11/27)

>  <Rbt.Parameter_File>
/export/apps/rDock/src/rDock_2013.1_src/data/scripts/dock_solv.prm

>  <Rbt.Receptor>
prm/blind_docking_40.prm

>  <SCORE>
-9.03606

>  <SCORE.INTER>
-11.0792

>  <SCORE.INTER.CONST>
1

>  <SCORE.INTER.POLAR>
0

>  <SCORE.INTER.ROT>
7

>  <SCORE.INTER.SOLV>
10.6472

>  <SCORE.INTER.VDW>
-19.2019

>  <SCORE.INTER.norm>
-0.426122

>  <SCORE.INTRA>
2.04312

>  <SCORE.INTRA.DIHEDRAL>
5.61583

>  <SCORE.INTRA.DIHEDRAL.0>
6.97628

>  <SCORE.INTRA.POLAR>
0

>  <SCORE.INTRA.POLAR.0>
0

>  <SCORE.INTRA.REPUL>
0

>  <SCORE.INTRA.REPUL.0>
0

>  <SCORE.INTRA.SOLV>
-0.142303

>  <SCORE.INTRA.SOLV.lig_0>
-49.8243

>  <SCORE.INTRA.VDW>
-0.693643

>  <SCORE.INTRA.VDW.0>
-1.35881

>  <SCORE.INTRA.norm>
0.0785815

>  <SCORE.RESTR>
0

>  <SCORE.RESTR.CAVITY>
0

>  <SCORE.RESTR.norm>
0

>  <SCORE.SYSTEM>
0

>  <SCORE.SYSTEM.CONST>
0

>  <SCORE.SYSTEM.DIHEDRAL>
0

>  <SCORE.SYSTEM.SOLV>
0

>  <SCORE.SYSTEM.norm>
0

>  <SCORE.heavy>
26

>  <SCORE.norm>
-0.347541

>  <RMSD>
14.168

$$$$
ligand
 OpenBabel11021811483D
libRbt.so/2013.1/901 2013/11/27
 26 28  0  0  0  0  0  0  0  0999 V2000
   33.8737   21.2621   19.6236 N   0  0  0  0  0  0  0  0  0  0  0  0
   33.0346   21.4580   18.4480 C   0  0  2  0  0  0  0  0  0  0  0  0
   33.2126   20.3187   17.4509 C   0  0  0  0  0  0  0  0  0  0  0  0
   34.2382   19.6391   17.4422 O   0  0  0  0  0  0  0  0  0  0  0  0
   33.3529   22.7904   17.7812 C   0  0  0  0  0  0  0  0  0  0  0  0
   34.7534   22.8708   17.1880 C   0  0  0  0  0  0  0  0  0  0  0  0
   35.1075   24.4909   16.4612 S   0  0  0  0  0  0  0  0  0  0  0  0
   36.6593   23.8509   15.7828 C   0  0  0  0  0  0  0  0  0  0  0  0
   37.8406   24.0519   16.7248 C   0  0  1  0  0  0  0  0  0  0  0  0
   37.7656   23.1306   17.7974 O   0  0  0  0  0  0  0  0  0  0  0  0
   39.1658   23.8303   16.0141 C   0  0  1  0  0  0  0  0  0  0  0  0
   39.9111   25.0248   16.0029 O   0  0  0  0  0  0  0  0  0  0  0  0
   39.8936   22.7719   16.8165 C   0  0  1  0  0  0  0  0  0  0  0  0
   41.1329   23.2705   17.2635 O   0  0  0  0  0  0  0  0  0  0  0  0
   38.9961   22.4620   18.0023 C   0  0  2  0  0  0  0  0  0  0  0  0
   32.3340   20.0510   16.6304 O   0  0  0  0  0  0  0  0  0  0  0  0
   36.5148   18.5998   20.5506 N   0  0  0  0  0  0  0  0  0  0  0  0
   36.4530   19.9571   20.7943 C   0  0  0  0  0  0  0  0  0  0  0  0
   37.1796   20.8368   20.0165 N   0  0  0  0  0  0  0  0  0  0  0  0
   37.9601   20.3751   19.0093 C   0  0  0  0  0  0  0  0  0  0  0  0
   38.0359   19.0136   18.7490 C   0  0  0  0  0  0  0  0  0  0  0  0
   37.3071   18.1217   19.5265 C   0  0  0  0  0  0  0  0  0  0  0  0
   37.3727   16.8154   19.2869 N   0  0  0  0  0  0  0  0  0  0  0  0
   38.8743   18.8359   17.7052 N   0  0  0  0  0  0  0  0  0  0  0  0
   39.3286   20.0445   17.3010 C   0  0  0  0  0  0  0  0  0  0  0  0
   38.7703   21.0087   18.1002 N   0  0  0  0  0  0  0  0  0  0  0  0
  2  1  1  1  0  0  0
  2  3  1  0  0  0  0
  2  5  1  0  0  0  0
  3  4  1  0  0  0  0
  3 16  1  0  0  0  0
  5  6  1  0  0  0  0
  6  7  1  0  0  0  0
  7  8  1  0  0  0  0
  9  8  1  6  0  0  0
  9 10  1  0  0  0  0
  9 11  1  0  0  0  0
 10 15  1  0  0  0  0
 11 12  1  1  0  0  0
 11 13  1  0  0  0  0
 13 14  1  1  0  0  0
 13 15  1  0  0  0  0
 15 26  1  6  0  0  0
 17 18  2  0  0  0  0
 17 22  1  0  0  0  0
 18 19  1  0  0  0  0
 19 20  2  0  0  0  0
 20 21  1  0  0  0  0
 20 26  1  0  0  0  0
 21 22  2  0  0  0  0
 21 24  1  0  0  0  0
 22 23  1  0  0  0  0
 24 25  2  0  0  0  0
 25 26  1  0  0  0  0
M  END
>  <CHROM.1>
-23.47322201,65.73305700,-177.88934315,-172.06701348,-91.29424249,74.54638756
-58.10749542,36.78934579,21.55044008,17.82769477,2.32440120,0.01619795,2.66261260

>  <Name>
ligand

>  <RI>
0

>  <Rbt.Current_Directory>
/home/itssahil/PROJECTS/Mol_Feturizer/New_Systems/rnas/3NPQ

>  <Rbt.Executable>
rbdock ($Id: //depot/dev/client3/rdock/2013.1/src/exe/rbdock.cxx#4 $)

>  <Rbt.Library>
libRbt.so (2013.1, Build901 2013/11/27)

>  <Rbt.Parameter_File>
/export/apps/rDock/src/rDock_2013.1_src/data/scripts/dock_solv.prm

>  <Rbt.Receptor>
prm/blind_docking_80.prm

>  <SCORE>
-13.7929

>  <SCORE.INTER>
-11.8753

>  <SCORE.INTER.CONST>
1

>  <SCORE.INTER.POLAR>
0

>  <SCORE.INTER.ROT>
7

>  <SCORE.INTER.SOLV>
8.15416

>  <SCORE.INTER.VDW>
-18.9016

>  <SCORE.INTER.norm>
-0.456741

>  <SCORE.INTRA>
-1.91765

>  <SCORE.INTRA.DIHEDRAL>
-2.05444

>  <SCORE.INTRA.DIHEDRAL.0>
6.97628

>  <SCORE.INTRA.POLAR>
0

>  <SCORE.INTRA.POLAR.0>
0

>  <SCORE.INTRA.REPUL>
0

>  <SCORE.INTRA.REPUL.0>
0

>  <SCORE.INTRA.SOLV>
0.74765

>  <SCORE.INTRA.SOLV.lig_0>
-49.8243

>  <SCORE.INTRA.VDW>
-1.26425

>  <SCORE.INTRA.VDW.0>
-1.35881

>  <SCORE.INTRA.norm>
-0.0737556

>  <SCORE.RESTR>
0

>  <SCORE.RESTR.CAVITY>
0

>  <SCORE.RESTR.norm>
0

>  <SCORE.SYSTEM>
0

>  <SCORE.SYSTEM.CONST>
0

>  <SCORE.SYSTEM.DIHEDRAL>
0

>  <SCORE.SYSTEM.SOLV>
0

>  <SCORE.SYSTEM.norm>
0

>  <SCORE.heavy>
26

>  <SCORE.norm>
-0.530497

>  <RMSD>
14.232

$$$$
ligand
 OpenBabel11021811483D
libRbt.so/2013.1/901 2013/11/27
 26 28  0  0  0  0  0  0  0  0999 V2000
   31.0515    2.4341    7.9922 N   0  0  0  0  0  0  0  0  0  0  0  0
   29.8080    2.2987    7.2440 C   0  0  2  0  0  0  0  0  0  0  0  0
   30.0274    2.5745    5.7608 C   0  0  0  0  0  0  0  0  0  0  0  0
   31.1466    2.8416    5.3251 O   0  0  0  0  0  0  0  0  0  0  0  0
   28.7461    3.2397    7.7988 C   0  0  0  0  0  0  0  0  0  0  0  0
   29.0385    4.7159    7.5641 C   0  0  0  0  0  0  0  0  0  0  0  0
   28.5944    5.2545    5.8935 S   0  0  0  0  0  0  0  0  0  0  0  0
   29.2817    6.8941    6.2360 C   0  0  0  0  0  0  0  0  0  0  0  0
   28.4581    7.6768    7.2522 C   0  0  1  0  0  0  0  0  0  0  0  0
   29.1076    8.8956    7.5648 O   0  0  0  0  0  0  0  0  0  0  0  0
   27.0770    8.0115    6.7129 C   0  0  1  0  0  0  0  0  0  0  0  0
   26.0900    7.3789    7.4926 O   0  0  0  0  0  0  0  0  0  0  0  0
   26.9424    9.5159    6.8257 C   0  0  1  0  0  0  0  0  0  0  0  0
   25.8302    9.8436    7.6258 O   0  0  0  0  0  0  0  0  0  0  0  0
   28.2224    9.9972    7.4870 C   0  0  2  0  0  0  0  0  0  0  0  0
   29.0898    2.5360    4.9631 O   0  0  0  0  0  0  0  0  0  0  0  0
   27.8489   14.9929    5.9151 N   0  0  0  0  0  0  0  0  0  0  0  0
   26.9904   14.2939    6.7395 C   0  0  0  0  0  0  0  0  0  0  0  0
   27.2469   12.9732    7.0507 N   0  0  0  0  0  0  0  0  0  0  0  0
   28.3420   12.3524    6.5483 C   0  0  0  0  0  0  0  0  0  0  0  0
   29.2169   13.0384    5.7169 C   0  0  0  0  0  0  0  0  0  0  0  0
   28.9664   14.3680    5.3996 C   0  0  0  0  0  0  0  0  0  0  0  0
   29.7970   15.0347    4.6036 N   0  0  0  0  0  0  0  0  0  0  0  0
   30.2084   12.1908    5.3667 N   0  0  0  0  0  0  0  0  0  0  0  0
   29.9836   10.9922    5.9524 C   0  0  0  0  0  0  0  0  0  0  0  0
   28.8298   11.0770    6.6884 N   0  0  0  0  0  0  0  0  0  0  0  0
  2  1  1  1  0  0  0
  2  3  1  0  0  0  0
  2  5  1  0  0  0  0
  3  4  1  0  0  0  0
  3 16  1  0  0  0  0
  5  6  1  0  0  0  0
  6  7  1  0  0  0  0
  7  8  1  0  0  0  0
  9  8  1  6  0  0  0
  9 10  1  0  0  0  0
  9 11  1  0  0  0  0
 10 15  1  0  0  0  0
 11 12  1  1  0  0  0
 11 13  1  0  0  0  0
 13 14  1  1  0  0  0
 13 15  1  0  0  0  0
 15 26  1  6  0  0  0
 17 18  2  0  0  0  0
 17 22  1  0  0  0  0
 18 19  1  0  0  0  0
 19 20  2  0  0  0  0
 20 21  1  0  0  0  0
 20 26  1  0  0  0  0
 21 22  2  0  0  0  0
 21 24  1  0  0  0  0
 22 23  1  0  0  0  0
 24 25  2  0  0  0  0
 25 26  1  0  0  0  0
M  END
>  <CHROM.1>
1.45903009,68.16676001,80.57386247,-175.55053249,-69.00492391,174.86393329
-170.84375956,28.67429024,8.37470358,6.50767366,-1.43502933,0.49852774,-0.10825177

>  <Name>
ligand

>  <RI>
0

>  <Rbt.Current_Directory>
/home/itssahil/PROJECTS/Mol_Feturizer/New_Systems/rnas/3NPQ

>  <Rbt.Executable>
rbdock ($Id: //depot/dev/client3/rdock/2013.1/src/exe/rbdock.cxx#4 $)

>  <Rbt.Library>
libRbt.so (2013.1, Build901 2013/11/27)

>  <Rbt.Parameter_File>
/export/apps/rDock/src/rDock_2013.1_src/data/scripts/dock_solv.prm

>  <Rbt.Receptor>
prm/blind_docking_40.prm

>  <SCORE>
-6.99475

>  <SCORE.INTER>
-5.80336

>  <SCORE.INTER.CONST>
1

>  <SCORE.INTER.POLAR>
0

>  <SCORE.INTER.ROT>
7

>  <SCORE.INTER.SOLV>
8.35722

>  <SCORE.INTER.VDW>
-14.9213

>  <SCORE.INTER.norm>
-0.223206

>  <SCORE.INTRA>
-1.19139

>  <SCORE.INTRA.DIHEDRAL>
-2.34753

>  <SCORE.INTRA.DIHEDRAL.0>
6.97628

>  <SCORE.INTRA.POLAR>
0

>  <SCORE.INTRA.POLAR.0>
0

>  <SCORE.INTRA.REPUL>
0

>  <SCORE.INTRA.REPUL.0>
0

>  <SCORE.INTRA.SOLV>
0.388396

>  <SCORE.INTRA.SOLV.lig_0>
-49.8243

>  <SCORE.INTRA.VDW>
-0.211824

>  <SCORE.INTRA.VDW.0>
-1.35881

>  <SCORE.INTRA.norm>
-0.0458227

>  <SCORE.RESTR>
0

>  <SCORE.RESTR.CAVITY>
0

>  <SCORE.RESTR.norm>
0

>  <SCORE.SYSTEM>
0

>  <SCORE.SYSTEM.CONST>
0

>  <SCORE.SYSTEM.DIHEDRAL>
0

>  <SCORE.SYSTEM.SOLV>
0

>  <SCORE.SYSTEM.norm>
0

>  <SCORE.heavy>
26

>  <SCORE.norm>
-0.269029

>  <RMSD>
14.261

$$$$
ligand
 OpenBabel11021811483D
libRbt.so/2013.1/901 2013/11/27
 26 28  0  0  0  0  0  0  0  0999 V2000
   32.7713   18.2288   19.2746 N   0  0  0  0  0  0  0  0  0  0  0  0
   32.8072   19.6557   18.9793 C   0  0  2  0  0  0  0  0  0  0  0  0
   31.4343   20.1622   18.5522 C   0  0  0  0  0  0  0  0  0  0  0  0
   30.8058   20.9552   19.2523 O   0  0  0  0  0  0  0  0  0  0  0  0
   33.8339   19.9503   17.8929 C   0  0  0  0  0  0  0  0  0  0  0  0
   34.0323   21.4336   17.6097 C   0  0  0  0  0  0  0  0  0  0  0  0
   35.0472   21.7300   16.1398 S   0  0  0  0  0  0  0  0  0  0  0  0
   35.0878   23.4995   16.5207 C   0  0  0  0  0  0  0  0  0  0  0  0
   36.3215   23.9011   17.3207 C   0  0  1  0  0  0  0  0  0  0  0  0
   36.3015   23.2712   18.5886 O   0  0  0  0  0  0  0  0  0  0  0  0
   37.6031   23.4868   16.6163 C   0  0  1  0  0  0  0  0  0  0  0  0
   38.3538   24.6275   16.2734 O   0  0  0  0  0  0  0  0  0  0  0  0
   38.3687   22.6421   17.6135 C   0  0  1  0  0  0  0  0  0  0  0  0
   39.6342   23.2102   17.8583 O   0  0  0  0  0  0  0  0  0  0  0  0
   37.5376   22.6487   18.8851 C   0  0  2  0  0  0  0  0  0  0  0  0
   30.9215   19.7904   17.4960 O   0  0  0  0  0  0  0  0  0  0  0  0
   38.6369   17.5679   18.1476 N   0  0  0  0  0  0  0  0  0  0  0  0
   39.0979   18.6514   17.4272 C   0  0  0  0  0  0  0  0  0  0  0  0
   38.7010   19.9302   17.7649 N   0  0  0  0  0  0  0  0  0  0  0  0
   37.8551   20.1317   18.8046 C   0  0  0  0  0  0  0  0  0  0  0  0
   37.3802   19.0548   19.5406 C   0  0  0  0  0  0  0  0  0  0  0  0
   37.7755   17.7647   19.2079 C   0  0  0  0  0  0  0  0  0  0  0  0
   37.3263   16.7255   19.9053 N   0  0  0  0  0  0  0  0  0  0  0  0
   36.5665   19.5366   20.5049 N   0  0  0  0  0  0  0  0  0  0  0  0
   36.5149   20.8843   20.3975 C   0  0  0  0  0  0  0  0  0  0  0  0
   37.3089   21.2680   19.3477 N   0  0  0  0  0  0  0  0  0  0  0  0
  2  1  1  6  0  0  0
  2  3  1  0  0  0  0
  2  5  1  0  0  0  0
  3  4  1  0  0  0  0
  3 16  1  0  0  0  0
  5  6  1  0  0  0  0
  6  7  1  0  0  0  0
  7  8  1  0  0  0  0
  9  8  1  6  0  0  0
  9 10  1  0  0  0  0
  9 11  1  0  0  0  0
 10 15  1  0  0  0  0
 11 12  1  1  0  0  0
 11 13  1  0  0  0  0
 13 14  1  1  0  0  0
 13 15  1  0  0  0  0
 15 26  1  6  0  0  0
 17 18  2  0  0  0  0
 17 22  1  0  0  0  0
 18 19  1  0  0  0  0
 19 20  2  0  0  0  0
 20 21  1  0  0  0  0
 20 26  1  0  0  0  0
 21 22  2  0  0  0  0
 21 24  1  0  0  0  0
 22 23  1  0  0  0  0
 24 25  2  0  0  0  0
 25 26  1  0  0  0  0
M  END
>  <CHROM.1>
113.41018086,-174.63841801,-170.58202367,-172.16499443,94.36041956,-64.11836355
124.22479426,35.97980583,20.90455508,18.17322227,-2.78265048,-0.02296623
-0.40591184

>  <Name>
ligand

>  <RI>
0

>  <Rbt.Current_Directory>
/home/itssahil/PROJECTS/Mol_Feturizer/New_Systems/rnas/3NPQ

>  <Rbt.Executable>
rbdock ($Id: //depot/dev/client3/rdock/2013.1/src/exe/rbdock.cxx#4 $)

>  <Rbt.Library>
libRbt.so (2013.1, Build901 2013/11/27)

>  <Rbt.Parameter_File>
/export/apps/rDock/src/rDock_2013.1_src/data/scripts/dock_solv.prm

>  <Rbt.Receptor>
prm/blind_docking_80.prm

>  <SCORE>
-13.2453

>  <SCORE.INTER>
-10.1081

>  <SCORE.INTER.CONST>
1

>  <SCORE.INTER.POLAR>
0

>  <SCORE.INTER.ROT>
7

>  <SCORE.INTER.SOLV>
4.43075

>  <SCORE.INTER.VDW>
-16.4823

>  <SCORE.INTER.norm>
-0.388773

>  <SCORE.INTRA>
-3.13717

>  <SCORE.INTRA.DIHEDRAL>
-2.2424

>  <SCORE.INTRA.DIHEDRAL.0>
6.97628

>  <SCORE.INTRA.POLAR>
0

>  <SCORE.INTRA.POLAR.0>
0

>  <SCORE.INTRA.REPUL>
0

>  <SCORE.INTRA.REPUL.0>
0

>  <SCORE.INTRA.SOLV>
-0.480613

>  <SCORE.INTRA.SOLV.lig_0>
-49.8243

>  <SCORE.INTRA.VDW>
-1.77567

>  <SCORE.INTRA.VDW.0>
-1.35881

>  <SCORE.INTRA.norm>
-0.12066

>  <SCORE.RESTR>
0

>  <SCORE.RESTR.CAVITY>
0

>  <SCORE.RESTR.norm>
0

>  <SCORE.SYSTEM>
0

>  <SCORE.SYSTEM.CONST>
0

>  <SCORE.SYSTEM.DIHEDRAL>
0

>  <SCORE.SYSTEM.SOLV>
0

>  <SCORE.SYSTEM.norm>
0

>  <SCORE.heavy>
26

>  <SCORE.norm>
-0.509433

>  <RMSD>
14.291

$$$$
ligand
 OpenBabel11021811483D
libRbt.so/2013.1/901 2013/11/27
 26 28  0  0  0  0  0  0  0  0999 V2000
   37.1123   25.6554   17.0062 N   0  0  0  0  0  0  0  0  0  0  0  0
   37.6926   24.4614   16.4045 C   0  0  2  0  0  0  0  0  0  0  0  0
   36.6080   23.5392   15.8593 C   0  0  0  0  0  0  0  0  0  0  0  0
   35.7702   23.0357   16.6067 O   0  0  0  0  0  0  0  0  0  0  0  0
   38.5509   23.7159   17.4187 C   0  0  0  0  0  0  0  0  0  0  0  0
   39.4425   22.6417   16.8098 C   0  0  0  0  0  0  0  0  0  0  0  0
   40.0131   21.4365   18.0347 S   0  0  0  0  0  0  0  0  0  0  0  0
   38.3340   20.7725   18.1681 C   0  0  0  0  0  0  0  0  0  0  0  0
   38.2486   19.5719   19.1032 C   0  0  1  0  0  0  0  0  0  0  0  0
   37.0027   19.5712   19.7762 O   0  0  0  0  0  0  0  0  0  0  0  0
   38.3661   18.2615   18.3421 C   0  0  1  0  0  0  0  0  0  0  0  0
   39.5240   17.5714   18.7487 O   0  0  0  0  0  0  0  0  0  0  0  0
   37.1315   17.4616   18.7026 C   0  0  1  0  0  0  0  0  0  0  0  0
   37.5033   16.2323   19.2812 O   0  0  0  0  0  0  0  0  0  0  0  0
   36.3717   18.3059   19.7112 C   0  0  2  0  0  0  0  0  0  0  0  0
   36.5439   23.2765   14.6578 O   0  0  0  0  0  0  0  0  0  0  0  0
   33.0826   20.5397   16.2821 N   0  0  0  0  0  0  0  0  0  0  0  0
   34.4563   20.6597   16.3455 C   0  0  0  0  0  0  0  0  0  0  0  0
   35.1677   19.9940   17.3240 N   0  0  0  0  0  0  0  0  0  0  0  0
   34.5236   19.2193   18.2305 C   0  0  0  0  0  0  0  0  0  0  0  0
   33.1425   19.0865   18.1836 C   0  0  0  0  0  0  0  0  0  0  0  0
   32.4192   19.7523   17.2014 C   0  0  0  0  0  0  0  0  0  0  0  0
   31.0959   19.6333   17.1473 N   0  0  0  0  0  0  0  0  0  0  0  0
   32.7691   18.2672   19.1902 N   0  0  0  0  0  0  0  0  0  0  0  0
   33.8736   17.8806   19.8693 C   0  0  0  0  0  0  0  0  0  0  0  0
   34.9692   18.4629   19.2858 N   0  0  0  0  0  0  0  0  0  0  0  0
  2  1  1  1  0  0  0
  2  3  1  0  0  0  0
  2  5  1  0  0  0  0
  3  4  1  0  0  0  0
  3 16  1  0  0  0  0
  5  6  1  0  0  0  0
  6  7  1  0  0  0  0
  7  8  1  0  0  0  0
  9  8  1  6  0  0  0
  9 10  1  0  0  0  0
  9 11  1  0  0  0  0
 10 15  1  0  0  0  0
 11 12  1  1  0  0  0
 11 13  1  0  0  0  0
 13 14  1  1  0  0  0
 13 15  1  0  0  0  0
 15 26  1  6  0  0  0
 17 18  2  0  0  0  0
 17 22  1  0  0  0  0
 18 19  1  0  0  0  0
 19 20  2  0  0  0  0
 20 21  1  0  0  0  0
 20 26  1  0  0  0  0
 21 22  2  0  0  0  0
 21 24  1  0  0  0  0
 22 23  1  0  0  0  0
 24 25  2  0  0  0  0
 25 26  1  0  0  0  0
M  END
>  <CHROM.1>
-62.29506827,-166.94070307,-160.97752550,70.10057022,176.78799503,146.06584421
47.34680664,36.40359917,20.40826299,17.84215835,0.92731659,-0.15033353,-0.46252904

>  <Name>
ligand

>  <RI>
0

>  <Rbt.Current_Directory>
/home/itssahil/PROJECTS/Mol_Feturizer/New_Systems/rnas/3NPQ

>  <Rbt.Executable>
rbdock ($Id: //depot/dev/client3/rdock/2013.1/src/exe/rbdock.cxx#4 $)

>  <Rbt.Library>
libRbt.so (2013.1, Build901 2013/11/27)

>  <Rbt.Parameter_File>
/export/apps/rDock/src/rDock_2013.1_src/data/scripts/dock_solv.prm

>  <Rbt.Receptor>
prm/blind_docking_60.prm

>  <SCORE>
-11.0442

>  <SCORE.INTER>
-9.68033

>  <SCORE.INTER.CONST>
1

>  <SCORE.INTER.POLAR>
0

>  <SCORE.INTER.ROT>
7

>  <SCORE.INTER.SOLV>
7.74618

>  <SCORE.INTER.VDW>
-17.3023

>  <SCORE.INTER.norm>
-0.37232

>  <SCORE.INTRA>
-1.44073

>  <SCORE.INTRA.DIHEDRAL>
0.943189

>  <SCORE.INTRA.DIHEDRAL.0>
6.97628

>  <SCORE.INTRA.POLAR>
0

>  <SCORE.INTRA.POLAR.0>
0

>  <SCORE.INTRA.REPUL>
0

>  <SCORE.INTRA.REPUL.0>
0

>  <SCORE.INTRA.SOLV>
-0.87549

>  <SCORE.INTRA.SOLV.lig_0>
-49.8243

>  <SCORE.INTRA.VDW>
-1.47458

>  <SCORE.INTRA.VDW.0>
-1.35881

>  <SCORE.INTRA.norm>
-0.0554125

>  <SCORE.RESTR>
0.0768199

>  <SCORE.RESTR.CAVITY>
0.0768199

>  <SCORE.RESTR.norm>
0.00295461

>  <SCORE.SYSTEM>
0

>  <SCORE.SYSTEM.CONST>
0

>  <SCORE.SYSTEM.DIHEDRAL>
0

>  <SCORE.SYSTEM.SOLV>
0

>  <SCORE.SYSTEM.norm>
0

>  <SCORE.heavy>
26

>  <SCORE.norm>
-0.424778

>  <RMSD>
14.337

$$$$
ligand
 OpenBabel11021811483D
libRbt.so/2013.1/901 2013/11/27
 26 28  0  0  0  0  0  0  0  0999 V2000
   37.7318    0.3112    6.3044 N   0  0  0  0  0  0  0  0  0  0  0  0
   36.8697    1.0466    7.2213 C   0  0  2  0  0  0  0  0  0  0  0  0
   37.0006    0.5138    8.6436 C   0  0  0  0  0  0  0  0  0  0  0  0
   36.1273    0.7289    9.4833 O   0  0  0  0  0  0  0  0  0  0  0  0
   35.4178    0.9699    6.7662 C   0  0  0  0  0  0  0  0  0  0  0  0
   35.1182    1.7671    5.5035 C   0  0  0  0  0  0  0  0  0  0  0  0
   33.4142    1.5480    4.9321 S   0  0  0  0  0  0  0  0  0  0  0  0
   33.1182    3.3239    5.1237 C   0  0  0  0  0  0  0  0  0  0  0  0
   32.5106    3.6765    6.4765 C   0  0  1  0  0  0  0  0  0  0  0  0
   32.7839    5.0299    6.7909 O   0  0  0  0  0  0  0  0  0  0  0  0
   31.0015    3.4955    6.4752 C   0  0  1  0  0  0  0  0  0  0  0  0
   30.6368    2.4924    7.3935 O   0  0  0  0  0  0  0  0  0  0  0  0
   30.4247    4.8281    6.9059 C   0  0  1  0  0  0  0  0  0  0  0  0
   29.6390    4.6639    8.0634 O   0  0  0  0  0  0  0  0  0  0  0  0
   31.6187    5.7179    7.2061 C   0  0  2  0  0  0  0  0  0  0  0  0
   37.9832   -0.1449    8.9862 O   0  0  0  0  0  0  0  0  0  0  0  0
   28.3914    9.0087    4.6918 N   0  0  0  0  0  0  0  0  0  0  0  0
   28.0812    7.8040    5.2900 C   0  0  0  0  0  0  0  0  0  0  0  0
   29.0663    7.0629    5.9123 N   0  0  0  0  0  0  0  0  0  0  0  0
   30.3451    7.5111    5.9395 C   0  0  0  0  0  0  0  0  0  0  0  0
   30.6769    8.7199    5.3430 C   0  0  0  0  0  0  0  0  0  0  0  0
   29.6912    9.4722    4.7155 C   0  0  0  0  0  0  0  0  0  0  0  0
   29.9976   10.6312    4.1400 N   0  0  0  0  0  0  0  0  0  0  0  0
   32.0010    8.9202    5.5177 N   0  0  0  0  0  0  0  0  0  0  0  0
   32.5124    7.8737    6.2059 C   0  0  0  0  0  0  0  0  0  0  0  0
   31.4975    6.9918    6.4746 N   0  0  0  0  0  0  0  0  0  0  0  0
  2  1  1  6  0  0  0
  2  3  1  0  0  0  0
  2  5  1  0  0  0  0
  3  4  1  0  0  0  0
  3 16  1  0  0  0  0
  5  6  1  0  0  0  0
  6  7  1  0  0  0  0
  7  8  1  0  0  0  0
  9  8  1  6  0  0  0
  9 10  1  0  0  0  0
  9 11  1  0  0  0  0
 10 15  1  0  0  0  0
 11 12  1  1  0  0  0
 11 13  1  0  0  0  0
 13 14  1  1  0  0  0
 13 15  1  0  0  0  0
 15 26  1  6  0  0  0
 17 18  2  0  0  0  0
 17 22  1  0  0  0  0
 18 19  1  0  0  0  0
 19 20  2  0  0  0  0
 20 21  1  0  0  0  0
 20 26  1  0  0  0  0
 21 22  2  0  0  0  0
 21 24  1  0  0  0  0
 22 23  1  0  0  0  0
 24 25  2  0  0  0  0
 25 26  1  0  0  0  0
M  END
>  <CHROM.1>
-160.06405142,-70.57251351,175.73735778,119.66691182,-94.12647214,156.91634731
137.42551848,32.55475046,4.49647262,6.38556668,-0.88813269,0.06272036,-0.30774810

>  <Name>
ligand

>  <RI>
0

>  <Rbt.Current_Directory>
/home/itssahil/PROJECTS/Mol_Feturizer/New_Systems/rnas/3NPQ

>  <Rbt.Executable>
rbdock ($Id: //depot/dev/client3/rdock/2013.1/src/exe/rbdock.cxx#4 $)

>  <Rbt.Library>
libRbt.so (2013.1, Build901 2013/11/27)

>  <Rbt.Parameter_File>
/export/apps/rDock/src/rDock_2013.1_src/data/scripts/dock_solv.prm

>  <Rbt.Receptor>
prm/blind_docking_40.prm

>  <SCORE>
-12.0322

>  <SCORE.INTER>
-12.8158

>  <SCORE.INTER.CONST>
1

>  <SCORE.INTER.POLAR>
0

>  <SCORE.INTER.ROT>
7

>  <SCORE.INTER.SOLV>
12.2311

>  <SCORE.INTER.VDW>
-20.8875

>  <SCORE.INTER.norm>
-0.492913

>  <SCORE.INTRA>
0.783525

>  <SCORE.INTRA.DIHEDRAL>
1.76753

>  <SCORE.INTRA.DIHEDRAL.0>
6.97628

>  <SCORE.INTRA.POLAR>
0

>  <SCORE.INTRA.POLAR.0>
0

>  <SCORE.INTRA.REPUL>
0

>  <SCORE.INTRA.REPUL.0>
0

>  <SCORE.INTRA.SOLV>
-0.164794

>  <SCORE.INTRA.SOLV.lig_0>
-49.8243

>  <SCORE.INTRA.VDW>
-0.0178422

>  <SCORE.INTRA.VDW.0>
-1.35881

>  <SCORE.INTRA.norm>
0.0301356

>  <SCORE.RESTR>
0

>  <SCORE.RESTR.CAVITY>
0

>  <SCORE.RESTR.norm>
0

>  <SCORE.SYSTEM>
0

>  <SCORE.SYSTEM.CONST>
0

>  <SCORE.SYSTEM.DIHEDRAL>
0

>  <SCORE.SYSTEM.SOLV>
0

>  <SCORE.SYSTEM.norm>
0

>  <SCORE.heavy>
26

>  <SCORE.norm>
-0.462778

>  <RMSD>
14.344

$$$$
ligand
 OpenBabel11021811483D
libRbt.so/2013.1/901 2013/11/27
 26 28  0  0  0  0  0  0  0  0999 V2000
   40.3792   23.8891   15.9079 N   0  0  0  0  0  0  0  0  0  0  0  0
   39.8005   24.3365   17.1686 C   0  0  2  0  0  0  0  0  0  0  0  0
   39.6980   23.1864   18.1640 C   0  0  0  0  0  0  0  0  0  0  0  0
   40.2706   22.1171   17.9574 O   0  0  0  0  0  0  0  0  0  0  0  0
   38.4256   24.9505   16.9366 C   0  0  0  0  0  0  0  0  0  0  0  0
   37.4580   24.0450   16.1859 C   0  0  0  0  0  0  0  0  0  0  0  0
   36.6066   22.8802   17.2798 S   0  0  0  0  0  0  0  0  0  0  0  0
   35.4354   22.4881   15.9559 C   0  0  0  0  0  0  0  0  0  0  0  0
   34.1535   21.8473   16.4751 C   0  0  1  0  0  0  0  0  0  0  0  0
   34.2600   20.4366   16.4156 O   0  0  0  0  0  0  0  0  0  0  0  0
   33.8822   22.2322   17.9203 C   0  0  1  0  0  0  0  0  0  0  0  0
   32.6839   22.9664   18.0056 O   0  0  0  0  0  0  0  0  0  0  0  0
   33.7466   20.9273   18.6773 C   0  0  1  0  0  0  0  0  0  0  0  0
   32.4845   20.8576   19.2991 O   0  0  0  0  0  0  0  0  0  0  0  0
   33.8779   19.8294   17.6357 C   0  0  2  0  0  0  0  0  0  0  0  0
   39.0402   23.3001   19.1990 O   0  0  0  0  0  0  0  0  0  0  0  0
   38.9855   18.9625   18.4887 N   0  0  0  0  0  0  0  0  0  0  0  0
   38.3804   20.1256   18.0568 C   0  0  0  0  0  0  0  0  0  0  0  0
   37.0110   20.1745   17.8856 N   0  0  0  0  0  0  0  0  0  0  0  0
   36.2506   19.0814   18.1385 C   0  0  0  0  0  0  0  0  0  0  0  0
   36.8408   17.9024   18.5730 C   0  0  0  0  0  0  0  0  0  0  0  0
   38.2181   17.8451   18.7487 C   0  0  0  0  0  0  0  0  0  0  0  0
   38.7943   16.7208   19.1636 N   0  0  0  0  0  0  0  0  0  0  0  0
   35.8628   16.9872   18.7463 N   0  0  0  0  0  0  0  0  0  0  0  0
   34.6752   17.5548   18.4337 C   0  0  0  0  0  0  0  0  0  0  0  0
   34.8996   18.8533   18.0551 N   0  0  0  0  0  0  0  0  0  0  0  0
  2  1  1  6  0  0  0
  2  3  1  0  0  0  0
  2  5  1  0  0  0  0
  3  4  1  0  0  0  0
  3 16  1  0  0  0  0
  5  6  1  0  0  0  0
  6  7  1  0  0  0  0
  7  8  1  0  0  0  0
  9  8  1  1  0  0  0
  9 10  1  0  0  0  0
  9 11  1  0  0  0  0
 10 15  1  0  0  0  0
 11 12  1  6  0  0  0
 11 13  1  0  0  0  0
 13 14  1  6  0  0  0
 13 15  1  0  0  0  0
 15 26  1  1  0  0  0
 17 18  2  0  0  0  0
 17 22  1  0  0  0  0
 18 19  1  0  0  0  0
 19 20  2  0  0  0  0
 20 21  1  0  0  0  0
 20 26  1  0  0  0  0
 21 22  2  0  0  0  0
 21 24  1  0  0  0  0
 22 23  1  0  0  0  0
 24 25  2  0  0  0  0
 25 26  1  0  0  0  0
M  END
>  <CHROM.1>
12.14687969,54.22521597,84.30316157,166.87452137,-160.76701327,-94.37138324
50.15459083,36.59333340,21.10345205,17.79519501,-0.82774147,0.03162128,2.87607375

>  <Name>
ligand

>  <RI>
0

>  <Rbt.Current_Directory>
/home/itssahil/PROJECTS/Mol_Feturizer/New_Systems/rnas/3NPQ

>  <Rbt.Executable>
rbdock ($Id: //depot/dev/client3/rdock/2013.1/src/exe/rbdock.cxx#4 $)

>  <Rbt.Library>
libRbt.so (2013.1, Build901 2013/11/27)

>  <Rbt.Parameter_File>
/export/apps/rDock/src/rDock_2013.1_src/data/scripts/dock_solv.prm

>  <Rbt.Receptor>
prm/blind_docking_80.prm

>  <SCORE>
-8.31622

>  <SCORE.INTER>
-8.76724

>  <SCORE.INTER.CONST>
1

>  <SCORE.INTER.POLAR>
0

>  <SCORE.INTER.ROT>
7

>  <SCORE.INTER.SOLV>
9.66572

>  <SCORE.INTER.VDW>
-17.3334

>  <SCORE.INTER.norm>
-0.337202

>  <SCORE.INTRA>
0.45102

>  <SCORE.INTRA.DIHEDRAL>
1.84566

>  <SCORE.INTRA.DIHEDRAL.0>
6.97628

>  <SCORE.INTRA.POLAR>
0

>  <SCORE.INTRA.POLAR.0>
0

>  <SCORE.INTRA.REPUL>
0

>  <SCORE.INTRA.REPUL.0>
0

>  <SCORE.INTRA.SOLV>
0.672703

>  <SCORE.INTRA.SOLV.lig_0>
-49.8243

>  <SCORE.INTRA.VDW>
-0.808162

>  <SCORE.INTRA.VDW.0>
-1.35881

>  <SCORE.INTRA.norm>
0.0173469

>  <SCORE.RESTR>
0

>  <SCORE.RESTR.CAVITY>
0

>  <SCORE.RESTR.norm>
0

>  <SCORE.SYSTEM>
0

>  <SCORE.SYSTEM.CONST>
0

>  <SCORE.SYSTEM.DIHEDRAL>
0

>  <SCORE.SYSTEM.SOLV>
0

>  <SCORE.SYSTEM.norm>
0

>  <SCORE.heavy>
26

>  <SCORE.norm>
-0.319855

>  <RMSD>
14.348

$$$$
ligand
 OpenBabel11021811483D
libRbt.so/2013.1/901 2013/11/27
 26 28  0  0  0  0  0  0  0  0999 V2000
   24.3113   20.4370   10.0875 N   0  0  0  0  0  0  0  0  0  0  0  0
   23.8310   19.1392   10.5455 C   0  0  2  0  0  0  0  0  0  0  0  0
   23.3997   19.1983   12.0065 C   0  0  0  0  0  0  0  0  0  0  0  0
   23.1911   20.2760   12.5622 O   0  0  0  0  0  0  0  0  0  0  0  0
   24.9070   18.0765   10.3610 C   0  0  0  0  0  0  0  0  0  0  0  0
   25.4885   18.0171    8.9546 C   0  0  0  0  0  0  0  0  0  0  0  0
   24.2686   17.5009    7.7202 S   0  0  0  0  0  0  0  0  0  0  0  0
   24.4180   15.7871    8.2846 C   0  0  0  0  0  0  0  0  0  0  0  0
   23.3174   14.8880    7.7335 C   0  0  1  0  0  0  0  0  0  0  0  0
   23.5688   14.5961    6.3709 O   0  0  0  0  0  0  0  0  0  0  0  0
   23.2448   13.5690    8.4853 C   0  0  1  0  0  0  0  0  0  0  0  0
   22.0024   13.4552    9.1380 O   0  0  0  0  0  0  0  0  0  0  0  0
   23.3805   12.4862    7.4350 C   0  0  1  0  0  0  0  0  0  0  0  0
   22.2526   11.6427    7.4611 O   0  0  0  0  0  0  0  0  0  0  0  0
   23.4610   13.2107    6.1022 C   0  0  2  0  0  0  0  0  0  0  0  0
   23.2492   18.1687   12.6654 O   0  0  0  0  0  0  0  0  0  0  0  0
   28.7030   12.9700    5.9253 N   0  0  0  0  0  0  0  0  0  0  0  0
   27.9099   13.5453    6.8977 C   0  0  0  0  0  0  0  0  0  0  0  0
   26.5344   13.5149    6.7806 N   0  0  0  0  0  0  0  0  0  0  0  0
   25.9520   12.9220    5.7099 C   0  0  0  0  0  0  0  0  0  0  0  0
   26.7326   12.3386    4.7213 C   0  0  0  0  0  0  0  0  0  0  0  0
   28.1176   12.3640    4.8321 C   0  0  0  0  0  0  0  0  0  0  0  0
   28.8753   11.8091    3.8907 N   0  0  0  0  0  0  0  0  0  0  0  0
   25.9041   11.8279    3.7848 N   0  0  0  0  0  0  0  0  0  0  0  0
   24.6259   12.0726    4.1543 C   0  0  0  0  0  0  0  0  0  0  0  0
   24.6396   12.7503    5.3461 N   0  0  0  0  0  0  0  0  0  0  0  0
  2  1  1  1  0  0  0
  2  3  1  0  0  0  0
  2  5  1  0  0  0  0
  3  4  1  0  0  0  0
  3 16  1  0  0  0  0
  5  6  1  0  0  0  0
  6  7  1  0  0  0  0
  7  8  1  0  0  0  0
  9  8  1  1  0  0  0
  9 10  1  0  0  0  0
  9 11  1  0  0  0  0
 10 15  1  0  0  0  0
 11 12  1  6  0  0  0
 11 13  1  0  0  0  0
 13 14  1  6  0  0  0
 13 15  1  0  0  0  0
 15 26  1  1  0  0  0
 17 18  2  0  0  0  0
 17 22  1  0  0  0  0
 18 19  1  0  0  0  0
 19 20  2  0  0  0  0
 20 21  1  0  0  0  0
 20 26  1  0  0  0  0
 21 22  2  0  0  0  0
 21 24  1  0  0  0  0
 22 23  1  0  0  0  0
 24 25  2  0  0  0  0
 25 26  1  0  0  0  0
M  END
>  <CHROM.1>
16.40424781,-52.16346806,-65.38226796,-76.21658415,167.45632579,75.16993103
53.89792185,24.75382998,15.05376180,7.70612270,-1.87807114,-0.40629236,-2.54026995

>  <Name>
ligand

>  <RI>
0

>  <Rbt.Current_Directory>
/home/itssahil/PROJECTS/Mol_Feturizer/New_Systems/rnas/3NPQ

>  <Rbt.Executable>
rbdock ($Id: //depot/dev/client3/rdock/2013.1/src/exe/rbdock.cxx#4 $)

>  <Rbt.Library>
libRbt.so (2013.1, Build901 2013/11/27)

>  <Rbt.Parameter_File>
/export/apps/rDock/src/rDock_2013.1_src/data/scripts/dock_solv.prm

>  <Rbt.Receptor>
prm/blind_docking_100.prm

>  <SCORE>
-11.2348

>  <SCORE.INTER>
-9.54348

>  <SCORE.INTER.CONST>
1

>  <SCORE.INTER.POLAR>
0

>  <SCORE.INTER.ROT>
7

>  <SCORE.INTER.SOLV>
21.1

>  <SCORE.INTER.VDW>
-21.6623

>  <SCORE.INTER.norm>
-0.367057

>  <SCORE.INTRA>
-1.69132

>  <SCORE.INTRA.DIHEDRAL>
-2.52248

>  <SCORE.INTRA.DIHEDRAL.0>
6.97628

>  <SCORE.INTRA.POLAR>
0

>  <SCORE.INTRA.POLAR.0>
0

>  <SCORE.INTRA.REPUL>
0

>  <SCORE.INTRA.REPUL.0>
0

>  <SCORE.INTRA.SOLV>
0.515165

>  <SCORE.INTRA.SOLV.lig_0>
-49.8243

>  <SCORE.INTRA.VDW>
-0.68766

>  <SCORE.INTRA.VDW.0>
-1.35881

>  <SCORE.INTRA.norm>
-0.0650506

>  <SCORE.RESTR>
0

>  <SCORE.RESTR.CAVITY>
0

>  <SCORE.RESTR.norm>
0

>  <SCORE.SYSTEM>
0

>  <SCORE.SYSTEM.CONST>
0

>  <SCORE.SYSTEM.DIHEDRAL>
0

>  <SCORE.SYSTEM.SOLV>
0

>  <SCORE.SYSTEM.norm>
0

>  <SCORE.heavy>
26

>  <SCORE.norm>
-0.432108

>  <RMSD>
14.380

$$$$
ligand
 OpenBabel11021811483D
libRbt.so/2013.1/901 2013/11/27
 26 28  0  0  0  0  0  0  0  0999 V2000
   38.2391   22.7912   19.3232 N   0  0  0  0  0  0  0  0  0  0  0  0
   38.4677   22.8391   17.8844 C   0  0  2  0  0  0  0  0  0  0  0  0
   39.9056   22.4637   17.5446 C   0  0  0  0  0  0  0  0  0  0  0  0
   40.8370   23.2249   17.8034 O   0  0  0  0  0  0  0  0  0  0  0  0
   38.1467   24.2249   17.3388 C   0  0  0  0  0  0  0  0  0  0  0  0
   36.6854   24.6286   17.4856 C   0  0  0  0  0  0  0  0  0  0  0  0
   35.7202   24.2974   15.9899 S   0  0  0  0  0  0  0  0  0  0  0  0
   35.7400   22.5263   16.3656 C   0  0  0  0  0  0  0  0  0  0  0  0
   34.3410   21.9445   16.5322 C   0  0  1  0  0  0  0  0  0  0  0  0
   34.3840   20.5359   16.3944 O   0  0  0  0  0  0  0  0  0  0  0  0
   33.7646   22.2597   17.9029 C   0  0  1  0  0  0  0  0  0  0  0  0
   32.6192   23.0674   17.7687 O   0  0  0  0  0  0  0  0  0  0  0  0
   33.3897   20.9242   18.5110 C   0  0  1  0  0  0  0  0  0  0  0  0
   32.0164   20.9035   18.8241 O   0  0  0  0  0  0  0  0  0  0  0  0
   33.6995   19.8842   17.4480 C   0  0  2  0  0  0  0  0  0  0  0  0
   40.1695   21.3894   17.0033 O   0  0  0  0  0  0  0  0  0  0  0  0
   38.5442   18.4679   18.8940 N   0  0  0  0  0  0  0  0  0  0  0  0
   38.1347   19.6706   18.3542 C   0  0  0  0  0  0  0  0  0  0  0  0
   36.8074   19.8712   18.0306 N   0  0  0  0  0  0  0  0  0  0  0  0
   35.8966   18.8892   18.2386 C   0  0  0  0  0  0  0  0  0  0  0  0
   36.2891   17.6726   18.7799 C   0  0  0  0  0  0  0  0  0  0  0  0
   37.6228   17.4630   19.1092 C   0  0  0  0  0  0  0  0  0  0  0  0
   38.0103   16.3014   19.6275 N   0  0  0  0  0  0  0  0  0  0  0  0
   35.1938   16.8886   18.8781 N   0  0  0  0  0  0  0  0  0  0  0  0
   34.1241   17.5751   18.4146 C   0  0  0  0  0  0  0  0  0  0  0  0
   34.5443   18.8174   18.0145 N   0  0  0  0  0  0  0  0  0  0  0  0
  2  1  1  1  0  0  0
  2  3  1  0  0  0  0
  2  5  1  0  0  0  0
  3  4  1  0  0  0  0
  3 16  1  0  0  0  0
  5  6  1  0  0  0  0
  6  7  1  0  0  0  0
  7  8  1  0  0  0  0
  9  8  1  1  0  0  0
  9 10  1  0  0  0  0
  9 11  1  0  0  0  0
 10 15  1  0  0  0  0
 11 12  1  6  0  0  0
 11 13  1  0  0  0  0
 13 14  1  6  0  0  0
 13 15  1  0  0  0  0
 15 26  1  1  0  0  0
 17 18  2  0  0  0  0
 17 22  1  0  0  0  0
 18 19  1  0  0  0  0
 19 20  2  0  0  0  0
 20 21  1  0  0  0  0
 20 26  1  0  0  0  0
 21 22  2  0  0  0  0
 21 24  1  0  0  0  0
 22 23  1  0  0  0  0
 24 25  2  0  0  0  0
 25 26  1  0  0  0  0
M  END
>  <CHROM.1>
-71.49615237,-63.60452096,-95.78966419,74.26739301,120.49438594,161.33139552
40.08377991,36.24388326,20.99688974,17.82557923,-1.18213123,0.06644024,2.85063761

>  <Name>
ligand

>  <RI>
0

>  <Rbt.Current_Directory>
/home/itssahil/PROJECTS/Mol_Feturizer/New_Systems/rnas/3NPQ

>  <Rbt.Executable>
rbdock ($Id: //depot/dev/client3/rdock/2013.1/src/exe/rbdock.cxx#4 $)

>  <Rbt.Library>
libRbt.so (2013.1, Build901 2013/11/27)

>  <Rbt.Parameter_File>
/export/apps/rDock/src/rDock_2013.1_src/data/scripts/dock_solv.prm

>  <Rbt.Receptor>
prm/blind_docking_80.prm

>  <SCORE>
-7.95308

>  <SCORE.INTER>
-8.10437

>  <SCORE.INTER.CONST>
1

>  <SCORE.INTER.POLAR>
0

>  <SCORE.INTER.ROT>
7

>  <SCORE.INTER.SOLV>
7.42569

>  <SCORE.INTER.VDW>
-16.1448

>  <SCORE.INTER.norm>
-0.311707

>  <SCORE.INTRA>
0.151289

>  <SCORE.INTRA.DIHEDRAL>
3.20998

>  <SCORE.INTRA.DIHEDRAL.0>
6.97628

>  <SCORE.INTRA.POLAR>
0

>  <SCORE.INTRA.POLAR.0>
0

>  <SCORE.INTRA.REPUL>
0

>  <SCORE.INTRA.REPUL.0>
0

>  <SCORE.INTRA.SOLV>
1.35062

>  <SCORE.INTRA.SOLV.lig_0>
-49.8243

>  <SCORE.INTRA.VDW>
-2.12901

>  <SCORE.INTRA.VDW.0>
-1.35881

>  <SCORE.INTRA.norm>
0.00581879

>  <SCORE.RESTR>
0

>  <SCORE.RESTR.CAVITY>
0

>  <SCORE.RESTR.norm>
0

>  <SCORE.SYSTEM>
0

>  <SCORE.SYSTEM.CONST>
0

>  <SCORE.SYSTEM.DIHEDRAL>
0

>  <SCORE.SYSTEM.SOLV>
0

>  <SCORE.SYSTEM.norm>
0

>  <SCORE.heavy>
26

>  <SCORE.norm>
-0.305888

>  <RMSD>
14.394

$$$$
ligand
 OpenBabel11021811483D
libRbt.so/2013.1/901 2013/11/27
 26 28  0  0  0  0  0  0  0  0999 V2000
   31.5285   19.8573   19.0631 N   0  0  0  0  0  0  0  0  0  0  0  0
   32.6162   18.9598   19.4319 C   0  0  2  0  0  0  0  0  0  0  0  0
   32.5212   18.5564   20.8989 C   0  0  0  0  0  0  0  0  0  0  0  0
   32.4467   19.4060   21.7858 O   0  0  0  0  0  0  0  0  0  0  0  0
   33.9644   19.6135   19.1560 C   0  0  0  0  0  0  0  0  0  0  0  0
   34.2177   19.9217   17.6862 C   0  0  0  0  0  0  0  0  0  0  0  0
   33.1762   21.2684   17.0697 S   0  0  0  0  0  0  0  0  0  0  0  0
   34.5811   21.9345   16.1420 C   0  0  0  0  0  0  0  0  0  0  0  0
   35.4665   22.8431   16.9868 C   0  0  1  0  0  0  0  0  0  0  0  0
   36.0769   22.0956   18.0229 O   0  0  0  0  0  0  0  0  0  0  0  0
   36.5720   23.4749   16.1566 C   0  0  1  0  0  0  0  0  0  0  0  0
   36.4145   24.8737   16.1310 O   0  0  0  0  0  0  0  0  0  0  0  0
   37.8688   23.1111   16.8493 C   0  0  1  0  0  0  0  0  0  0  0  0
   38.5697   24.2790   17.2087 O   0  0  0  0  0  0  0  0  0  0  0  0
   37.4698   22.3367   18.0938 C   0  0  2  0  0  0  0  0  0  0  0  0
   32.5162   17.3706   21.2316 O   0  0  0  0  0  0  0  0  0  0  0  0
   37.6392   17.5011   20.1324 N   0  0  0  0  0  0  0  0  0  0  0  0
   36.6989   18.4866   20.3565 C   0  0  0  0  0  0  0  0  0  0  0  0
   36.8126   19.7114   19.7291 N   0  0  0  0  0  0  0  0  0  0  0  0
   37.8485   19.9566   18.8902 C   0  0  0  0  0  0  0  0  0  0  0  0
   38.8045   18.9785   18.6525 C   0  0  0  0  0  0  0  0  0  0  0  0
   38.6968   17.7429   19.2791 C   0  0  0  0  0  0  0  0  0  0  0  0
   39.6072   16.7988   19.0597 N   0  0  0  0  0  0  0  0  0  0  0  0
   39.7106   19.4842   17.7879 N   0  0  0  0  0  0  0  0  0  0  0  0
   39.3536   20.7509   17.4747 C   0  0  0  0  0  0  0  0  0  0  0  0
   38.2008   21.0580   18.1505 N   0  0  0  0  0  0  0  0  0  0  0  0
  2  1  1  1  0  0  0
  2  3  1  0  0  0  0
  2  5  1  0  0  0  0
  3  4  1  0  0  0  0
  3 16  1  0  0  0  0
  5  6  1  0  0  0  0
  6  7  1  0  0  0  0
  7  8  1  0  0  0  0
  9  8  1  6  0  0  0
  9 10  1  0  0  0  0
  9 11  1  0  0  0  0
 10 15  1  0  0  0  0
 11 12  1  1  0  0  0
 11 13  1  0  0  0  0
 13 14  1  1  0  0  0
 13 15  1  0  0  0  0
 15 26  1  6  0  0  0
 17 18  2  0  0  0  0
 17 22  1  0  0  0  0
 18 19  1  0  0  0  0
 19 20  2  0  0  0  0
 20 21  1  0  0  0  0
 20 26  1  0  0  0  0
 21 22  2  0  0  0  0
 21 24  1  0  0  0  0
 22 23  1  0  0  0  0
 24 25  2  0  0  0  0
 25 26  1  0  0  0  0
M  END
>  <CHROM.1>
-53.72731596,-63.01945625,70.24338717,139.02948042,-85.01614407,65.00251254
-42.00106994,35.92677722,20.49190063,18.44589894,2.36751515,-0.11160667,2.56787175

>  <Name>
ligand

>  <RI>
0

>  <Rbt.Current_Directory>
/home/itssahil/PROJECTS/Mol_Feturizer/New_Systems/rnas/3NPQ

>  <Rbt.Executable>
rbdock ($Id: //depot/dev/client3/rdock/2013.1/src/exe/rbdock.cxx#4 $)

>  <Rbt.Library>
libRbt.so (2013.1, Build901 2013/11/27)

>  <Rbt.Parameter_File>
/export/apps/rDock/src/rDock_2013.1_src/data/scripts/dock_solv.prm

>  <Rbt.Receptor>
prm/blind_docking_60.prm

>  <SCORE>
-10.8814

>  <SCORE.INTER>
-9.85487

>  <SCORE.INTER.CONST>
1

>  <SCORE.INTER.POLAR>
0

>  <SCORE.INTER.ROT>
7

>  <SCORE.INTER.SOLV>
5.48009

>  <SCORE.INTER.VDW>
-16.6633

>  <SCORE.INTER.norm>
-0.379034

>  <SCORE.INTRA>
-1.03723

>  <SCORE.INTRA.DIHEDRAL>
-1.04501

>  <SCORE.INTRA.DIHEDRAL.0>
6.97628

>  <SCORE.INTRA.POLAR>
0

>  <SCORE.INTRA.POLAR.0>
0

>  <SCORE.INTRA.REPUL>
0

>  <SCORE.INTRA.REPUL.0>
0

>  <SCORE.INTRA.SOLV>
1.26023

>  <SCORE.INTRA.SOLV.lig_0>
-49.8243

>  <SCORE.INTRA.VDW>
-1.14484

>  <SCORE.INTRA.VDW.0>
-1.35881

>  <SCORE.INTRA.norm>
-0.0398935

>  <SCORE.RESTR>
0.0106817

>  <SCORE.RESTR.CAVITY>
0.0106817

>  <SCORE.RESTR.norm>
0.000410833

>  <SCORE.SYSTEM>
0

>  <SCORE.SYSTEM.CONST>
0

>  <SCORE.SYSTEM.DIHEDRAL>
0

>  <SCORE.SYSTEM.SOLV>
0

>  <SCORE.SYSTEM.norm>
0

>  <SCORE.heavy>
26

>  <SCORE.norm>
-0.418516

>  <RMSD>
14.408

$$$$
ligand
 OpenBabel11021811483D
libRbt.so/2013.1/901 2013/11/27
 26 28  0  0  0  0  0  0  0  0999 V2000
   34.4716   17.0203   19.4389 N   0  0  0  0  0  0  0  0  0  0  0  0
   34.1183   18.4300   19.3269 C   0  0  2  0  0  0  0  0  0  0  0  0
   32.6088   18.6256   19.4103 C   0  0  0  0  0  0  0  0  0  0  0  0
   32.1162   19.4186   20.2117 O   0  0  0  0  0  0  0  0  0  0  0  0
   34.6491   19.0112   18.0224 C   0  0  0  0  0  0  0  0  0  0  0  0
   34.3555   20.4940   17.8365 C   0  0  0  0  0  0  0  0  0  0  0  0
   34.9272   21.1197   16.2365 S   0  0  0  0  0  0  0  0  0  0  0  0
   34.5064   22.8065   16.7423 C   0  0  0  0  0  0  0  0  0  0  0  0
   35.7083   23.5784   17.2743 C   0  0  1  0  0  0  0  0  0  0  0  0
   36.3680   22.8186   18.2706 O   0  0  0  0  0  0  0  0  0  0  0  0
   36.7140   23.8741   16.1737 C   0  0  1  0  0  0  0  0  0  0  0  0
   36.8271   25.2650   15.9867 O   0  0  0  0  0  0  0  0  0  0  0  0
   38.0330   23.3061   16.6552 C   0  0  1  0  0  0  0  0  0  0  0  0
   39.0054   24.3236   16.7140 O   0  0  0  0  0  0  0  0  0  0  0  0
   37.7642   22.7585   18.0463 C   0  0  2  0  0  0  0  0  0  0  0  0
   31.8461   17.9949   18.6772 O   0  0  0  0  0  0  0  0  0  0  0  0
   37.3515   18.1884   20.5982 N   0  0  0  0  0  0  0  0  0  0  0  0
   36.6767   19.3664   20.8479 C   0  0  0  0  0  0  0  0  0  0  0  0
   36.9124   20.4814   20.0681 N   0  0  0  0  0  0  0  0  0  0  0  0
   37.8088   20.4288   19.0528 C   0  0  0  0  0  0  0  0  0  0  0  0
   38.4978   19.2535   18.7864 C   0  0  0  0  0  0  0  0  0  0  0  0
   38.2657   18.1267   19.5659 C   0  0  0  0  0  0  0  0  0  0  0  0
   38.9205   16.9957   19.3204 N   0  0  0  0  0  0  0  0  0  0  0  0
   39.3151   19.4798   17.7353 N   0  0  0  0  0  0  0  0  0  0  0  0
   39.1614   20.7622   17.3326 C   0  0  0  0  0  0  0  0  0  0  0  0
   38.2304   21.3633   18.1400 N   0  0  0  0  0  0  0  0  0  0  0  0
  2  1  1  6  0  0  0
  2  3  1  0  0  0  0
  2  5  1  0  0  0  0
  3  4  1  0  0  0  0
  3 16  1  0  0  0  0
  5  6  1  0  0  0  0
  6  7  1  0  0  0  0
  7  8  1  0  0  0  0
  9  8  1  6  0  0  0
  9 10  1  0  0  0  0
  9 11  1  0  0  0  0
 10 15  1  0  0  0  0
 11 12  1  1  0  0  0
 11 13  1  0  0  0  0
 13 14  1  1  0  0  0
 13 15  1  0  0  0  0
 15 26  1  6  0  0  0
 17 18  2  0  0  0  0
 17 22  1  0  0  0  0
 18 19  1  0  0  0  0
 19 20  2  0  0  0  0
 20 21  1  0  0  0  0
 20 26  1  0  0  0  0
 21 22  2  0  0  0  0
 21 24  1  0  0  0  0
 22 23  1  0  0  0  0
 24 25  2  0  0  0  0
 25 26  1  0  0  0  0
M  END
>  <CHROM.1>
127.33006753,-178.54348373,-176.97641098,-173.22427087,97.15002850,-51.19729244
-40.03174073,36.22611646,20.66359585,18.19992531,-2.05269290,-0.06095981
-0.50363577

>  <Name>
ligand

>  <RI>
0

>  <Rbt.Current_Directory>
/home/itssahil/PROJECTS/Mol_Feturizer/New_Systems/rnas/3NPQ

>  <Rbt.Executable>
rbdock ($Id: //depot/dev/client3/rdock/2013.1/src/exe/rbdock.cxx#4 $)

>  <Rbt.Library>
libRbt.so (2013.1, Build901 2013/11/27)

>  <Rbt.Parameter_File>
/export/apps/rDock/src/rDock_2013.1_src/data/scripts/dock_solv.prm

>  <Rbt.Receptor>
prm/blind_docking_60.prm

>  <SCORE>
-14.3965

>  <SCORE.INTER>
-10.19

>  <SCORE.INTER.CONST>
1

>  <SCORE.INTER.POLAR>
0

>  <SCORE.INTER.ROT>
7

>  <SCORE.INTER.SOLV>
6.35104

>  <SCORE.INTER.VDW>
-17.177

>  <SCORE.INTER.norm>
-0.391922

>  <SCORE.INTRA>
-4.2065

>  <SCORE.INTRA.DIHEDRAL>
-2.27607

>  <SCORE.INTRA.DIHEDRAL.0>
6.97628

>  <SCORE.INTRA.POLAR>
0

>  <SCORE.INTRA.POLAR.0>
0

>  <SCORE.INTRA.REPUL>
0

>  <SCORE.INTRA.REPUL.0>
0

>  <SCORE.INTRA.SOLV>
0.240975

>  <SCORE.INTRA.SOLV.lig_0>
-49.8243

>  <SCORE.INTRA.VDW>
-3.18895

>  <SCORE.INTRA.VDW.0>
-1.35881

>  <SCORE.INTRA.norm>
-0.161788

>  <SCORE.RESTR>
0

>  <SCORE.RESTR.CAVITY>
0

>  <SCORE.RESTR.norm>
0

>  <SCORE.SYSTEM>
0

>  <SCORE.SYSTEM.CONST>
0

>  <SCORE.SYSTEM.DIHEDRAL>
0

>  <SCORE.SYSTEM.SOLV>
0

>  <SCORE.SYSTEM.norm>
0

>  <SCORE.heavy>
26

>  <SCORE.norm>
-0.55371

>  <RMSD>
14.408

$$$$
ligand
 OpenBabel11021811483D
libRbt.so/2013.1/901 2013/11/27
 26 28  0  0  0  0  0  0  0  0999 V2000
   30.6454   19.9912   19.2591 N   0  0  0  0  0  0  0  0  0  0  0  0
   31.6927   19.9104   18.2485 C   0  0  2  0  0  0  0  0  0  0  0  0
   31.6578   18.5670   17.5286 C   0  0  0  0  0  0  0  0  0  0  0  0
   31.1317   18.4549   16.4220 O   0  0  0  0  0  0  0  0  0  0  0  0
   33.0618   20.1293   18.8799 C   0  0  0  0  0  0  0  0  0  0  0  0
   33.3154   21.5602   19.3359 C   0  0  0  0  0  0  0  0  0  0  0  0
   34.9304   21.7599   20.1297 S   0  0  0  0  0  0  0  0  0  0  0  0
   34.8085   23.5556   19.9331 C   0  0  0  0  0  0  0  0  0  0  0  0
   35.6119   24.0734   18.7457 C   0  0  1  0  0  0  0  0  0  0  0  0
   36.9620   23.6620   18.8594 O   0  0  0  0  0  0  0  0  0  0  0  0
   35.0722   23.5374   17.4298 C   0  0  1  0  0  0  0  0  0  0  0  0
   34.5971   24.5993   16.6366 O   0  0  0  0  0  0  0  0  0  0  0  0
   36.2435   22.8627   16.7464 C   0  0  1  0  0  0  0  0  0  0  0  0
   36.4752   23.4527   15.4885 O   0  0  0  0  0  0  0  0  0  0  0  0
   37.4385   23.0866   17.6572 C   0  0  2  0  0  0  0  0  0  0  0  0
   32.1558   17.5619   18.0371 O   0  0  0  0  0  0  0  0  0  0  0  0
   36.8202   17.9277   18.4127 N   0  0  0  0  0  0  0  0  0  0  0  0
   35.8481   18.8716   18.1488 C   0  0  0  0  0  0  0  0  0  0  0  0
   36.1948   20.1970   17.9762 N   0  0  0  0  0  0  0  0  0  0  0  0
   37.4912   20.5821   18.0660 C   0  0  0  0  0  0  0  0  0  0  0  0
   38.4831   19.6479   18.3313 C   0  0  0  0  0  0  0  0  0  0  0  0
   38.1426   18.3118   18.5054 C   0  0  0  0  0  0  0  0  0  0  0  0
   39.0842   17.4083   18.7609 N   0  0  0  0  0  0  0  0  0  0  0  0
   39.6671   20.2967   18.3651 N   0  0  0  0  0  0  0  0  0  0  0  0
   39.4500   21.6111   18.1293 C   0  0  0  0  0  0  0  0  0  0  0  0
   38.1055   21.8034   17.9419 N   0  0  0  0  0  0  0  0  0  0  0  0
  2  1  1  1  0  0  0
  2  3  1  0  0  0  0
  2  5  1  0  0  0  0
  3  4  1  0  0  0  0
  3 16  1  0  0  0  0
  5  6  1  0  0  0  0
  6  7  1  0  0  0  0
  7  8  1  0  0  0  0
  9  8  1  1  0  0  0
  9 10  1  0  0  0  0
  9 11  1  0  0  0  0
 10 15  1  0  0  0  0
 11 12  1  6  0  0  0
 11 13  1  0  0  0  0
 13 14  1  6  0  0  0
 13 15  1  0  0  0  0
 15 26  1  1  0  0  0
 17 18  2  0  0  0  0
 17 22  1  0  0  0  0
 18 19  1  0  0  0  0
 19 20  2  0  0  0  0
 20 21  1  0  0  0  0
 20 26  1  0  0  0  0
 21 22  2  0  0  0  0
 21 24  1  0  0  0  0
 22 23  1  0  0  0  0
 24 25  2  0  0  0  0
 25 26  1  0  0  0  0
M  END
>  <CHROM.1>
99.79968556,-70.65012061,178.05359586,163.91080770,-100.32846016,-55.36268678
84.89871163,35.47825615,20.97739033,18.22610998,2.78361923,0.00435929,3.08096885

>  <Name>
ligand

>  <RI>
0

>  <Rbt.Current_Directory>
/home/itssahil/PROJECTS/Mol_Feturizer/New_Systems/rnas/3NPQ

>  <Rbt.Executable>
rbdock ($Id: //depot/dev/client3/rdock/2013.1/src/exe/rbdock.cxx#4 $)

>  <Rbt.Library>
libRbt.so (2013.1, Build901 2013/11/27)

>  <Rbt.Parameter_File>
/export/apps/rDock/src/rDock_2013.1_src/data/scripts/dock_solv.prm

>  <Rbt.Receptor>
prm/blind_docking_100.prm

>  <SCORE>
-6.84738

>  <SCORE.INTER>
-3.83588

>  <SCORE.INTER.CONST>
1

>  <SCORE.INTER.POLAR>
0

>  <SCORE.INTER.ROT>
7

>  <SCORE.INTER.SOLV>
8.97002

>  <SCORE.INTER.VDW>
-13.8139

>  <SCORE.INTER.norm>
-0.147534

>  <SCORE.INTRA>
-3.01151

>  <SCORE.INTRA.DIHEDRAL>
-1.53766

>  <SCORE.INTRA.DIHEDRAL.0>
6.97628

>  <SCORE.INTRA.POLAR>
0

>  <SCORE.INTRA.POLAR.0>
0

>  <SCORE.INTRA.REPUL>
0

>  <SCORE.INTRA.REPUL.0>
0

>  <SCORE.INTRA.SOLV>
0.0944138

>  <SCORE.INTRA.SOLV.lig_0>
-49.8243

>  <SCORE.INTRA.VDW>
-2.28989

>  <SCORE.INTRA.VDW.0>
-1.35881

>  <SCORE.INTRA.norm>
-0.115827

>  <SCORE.RESTR>
0

>  <SCORE.RESTR.CAVITY>
0

>  <SCORE.RESTR.norm>
0

>  <SCORE.SYSTEM>
0

>  <SCORE.SYSTEM.CONST>
0

>  <SCORE.SYSTEM.DIHEDRAL>
0

>  <SCORE.SYSTEM.SOLV>
0

>  <SCORE.SYSTEM.norm>
0

>  <SCORE.heavy>
26

>  <SCORE.norm>
-0.263361

>  <RMSD>
14.417

$$$$
ligand
 OpenBabel11021811483D
libRbt.so/2013.1/901 2013/11/27
 26 28  0  0  0  0  0  0  0  0999 V2000
   35.8444    1.3603    6.9349 N   0  0  0  0  0  0  0  0  0  0  0  0
   35.5782    1.6075    8.3464 C   0  0  2  0  0  0  0  0  0  0  0  0
   36.4525    0.7269    9.2320 C   0  0  0  0  0  0  0  0  0  0  0  0
   37.1257   -0.1841    8.7518 O   0  0  0  0  0  0  0  0  0  0  0  0
   34.1070    1.3685    8.6619 C   0  0  0  0  0  0  0  0  0  0  0  0
   33.1691    2.4266    8.0958 C   0  0  0  0  0  0  0  0  0  0  0  0
   33.2097    3.9689    9.0434 S   0  0  0  0  0  0  0  0  0  0  0  0
   32.3283    4.8163    7.7079 C   0  0  0  0  0  0  0  0  0  0  0  0
   30.9598    4.2068    7.4266 C   0  0  1  0  0  0  0  0  0  0  0  0
   29.9587    5.2040    7.5177 O   0  0  0  0  0  0  0  0  0  0  0  0
   30.8918    3.6064    6.0319 C   0  0  1  0  0  0  0  0  0  0  0  0
   30.6823    2.2167    6.1162 O   0  0  0  0  0  0  0  0  0  0  0  0
   29.7109    4.2691    5.3534 C   0  0  1  0  0  0  0  0  0  0  0  0
   28.7772    3.2957    4.9475 O   0  0  0  0  0  0  0  0  0  0  0  0
   29.0933    5.1829    6.3980 C   0  0  2  0  0  0  0  0  0  0  0  0
   36.5063    0.9066   10.4493 O   0  0  0  0  0  0  0  0  0  0  0  0
   30.9664   10.0875    6.3349 N   0  0  0  0  0  0  0  0  0  0  0  0
   31.4408    9.0046    7.0475 C   0  0  0  0  0  0  0  0  0  0  0  0
   30.8182    7.7765    6.9421 N   0  0  0  0  0  0  0  0  0  0  0  0
   29.7362    7.6247    6.1401 C   0  0  0  0  0  0  0  0  0  0  0  0
   29.2439    8.7020    5.4160 C   0  0  0  0  0  0  0  0  0  0  0  0
   29.8652    9.9410    5.5157 C   0  0  0  0  0  0  0  0  0  0  0  0
   29.4019   10.9801    4.8274 N   0  0  0  0  0  0  0  0  0  0  0  0
   28.1750    8.2745    4.7098 N   0  0  0  0  0  0  0  0  0  0  0  0
   27.9797    6.9609    4.9679 C   0  0  0  0  0  0  0  0  0  0  0  0
   28.9401    6.5439    5.8531 N   0  0  0  0  0  0  0  0  0  0  0  0
  2  1  1  6  0  0  0
  2  3  1  0  0  0  0
  2  5  1  0  0  0  0
  3  4  1  0  0  0  0
  3 16  1  0  0  0  0
  5  6  1  0  0  0  0
  6  7  1  0  0  0  0
  7  8  1  0  0  0  0
  9  8  1  6  0  0  0
  9 10  1  0  0  0  0
  9 11  1  0  0  0  0
 10 15  1  0  0  0  0
 11 12  1  1  0  0  0
 11 13  1  0  0  0  0
 13 14  1  1  0  0  0
 13 15  1  0  0  0  0
 15 26  1  6  0  0  0
 17 18  2  0  0  0  0
 17 22  1  0  0  0  0
 18 19  1  0  0  0  0
 19 20  2  0  0  0  0
 20 21  1  0  0  0  0
 20 26  1  0  0  0  0
 21 22  2  0  0  0  0
 21 24  1  0  0  0  0
 22 23  1  0  0  0  0
 24 25  2  0  0  0  0
 25 26  1  0  0  0  0
M  END
>  <CHROM.1>
-9.57403429,-71.38454533,-76.02112674,166.58803656,60.23145999,124.77363501
14.90408821,31.71131306,4.85791668,7.01603871,-0.78592544,-0.51223443,0.03304062

>  <Name>
ligand

>  <RI>
0

>  <Rbt.Current_Directory>
/home/itssahil/PROJECTS/Mol_Feturizer/New_Systems/rnas/3NPQ

>  <Rbt.Executable>
rbdock ($Id: //depot/dev/client3/rdock/2013.1/src/exe/rbdock.cxx#4 $)

>  <Rbt.Library>
libRbt.so (2013.1, Build901 2013/11/27)

>  <Rbt.Parameter_File>
/export/apps/rDock/src/rDock_2013.1_src/data/scripts/dock_solv.prm

>  <Rbt.Receptor>
prm/blind_docking_40.prm

>  <SCORE>
-12.0614

>  <SCORE.INTER>
-12.9874

>  <SCORE.INTER.CONST>
1

>  <SCORE.INTER.POLAR>
0

>  <SCORE.INTER.ROT>
7

>  <SCORE.INTER.SOLV>
10.2278

>  <SCORE.INTER.VDW>
-20.3342

>  <SCORE.INTER.norm>
-0.499514

>  <SCORE.INTRA>
0.925929

>  <SCORE.INTRA.DIHEDRAL>
2.60423

>  <SCORE.INTRA.DIHEDRAL.0>
6.97628

>  <SCORE.INTRA.POLAR>
0

>  <SCORE.INTRA.POLAR.0>
0

>  <SCORE.INTRA.REPUL>
0

>  <SCORE.INTRA.REPUL.0>
0

>  <SCORE.INTRA.SOLV>
0.275167

>  <SCORE.INTRA.SOLV.lig_0>
-49.8243

>  <SCORE.INTRA.VDW>
-0.51377

>  <SCORE.INTRA.VDW.0>
-1.35881

>  <SCORE.INTRA.norm>
0.0356126

>  <SCORE.RESTR>
0

>  <SCORE.RESTR.CAVITY>
0

>  <SCORE.RESTR.norm>
0

>  <SCORE.SYSTEM>
0

>  <SCORE.SYSTEM.CONST>
0

>  <SCORE.SYSTEM.DIHEDRAL>
0

>  <SCORE.SYSTEM.SOLV>
0

>  <SCORE.SYSTEM.norm>
0

>  <SCORE.heavy>
26

>  <SCORE.norm>
-0.463901

>  <RMSD>
14.425

$$$$
ligand
 OpenBabel11021811483D
libRbt.so/2013.1/901 2013/11/27
 26 28  0  0  0  0  0  0  0  0999 V2000
   33.4215    0.8939    9.3217 N   0  0  0  0  0  0  0  0  0  0  0  0
   34.4743    1.6212    8.6237 C   0  0  2  0  0  0  0  0  0  0  0  0
   35.8499    1.0643    8.9724 C   0  0  0  0  0  0  0  0  0  0  0  0
   36.6637    0.7893    8.0915 O   0  0  0  0  0  0  0  0  0  0  0  0
   34.4110    3.1057    8.9606 C   0  0  0  0  0  0  0  0  0  0  0  0
   33.0812    3.7653    8.6195 C   0  0  0  0  0  0  0  0  0  0  0  0
   31.7389    3.2250    9.7080 S   0  0  0  0  0  0  0  0  0  0  0  0
   30.6437    4.4697    8.9805 C   0  0  0  0  0  0  0  0  0  0  0  0
   29.6900    3.8823    7.9467 C   0  0  1  0  0  0  0  0  0  0  0  0
   28.7567    4.8651    7.5367 O   0  0  0  0  0  0  0  0  0  0  0  0
   30.4328    3.4027    6.7104 C   0  0  1  0  0  0  0  0  0  0  0  0
   30.2809    2.0102    6.5681 O   0  0  0  0  0  0  0  0  0  0  0  0
   29.7912    4.1173    5.5392 C   0  0  1  0  0  0  0  0  0  0  0  0
   29.2862    3.1791    4.6177 O   0  0  0  0  0  0  0  0  0  0  0  0
   28.6551    4.9368    6.1268 C   0  0  2  0  0  0  0  0  0  0  0  0
   36.1797    0.8767   10.1441 O   0  0  0  0  0  0  0  0  0  0  0  0
   31.4739    9.3628    6.3075 N   0  0  0  0  0  0  0  0  0  0  0  0
   31.7445    8.1560    6.9206 C   0  0  0  0  0  0  0  0  0  0  0  0
   30.8843    7.0875    6.7621 N   0  0  0  0  0  0  0  0  0  0  0  0
   29.7673    7.2151    6.0052 C   0  0  0  0  0  0  0  0  0  0  0  0
   29.4775    8.4208    5.3811 C   0  0  0  0  0  0  0  0  0  0  0  0
   30.3386    9.5008    5.5348 C   0  0  0  0  0  0  0  0  0  0  0  0
   30.0707   10.6607    4.9424 N   0  0  0  0  0  0  0  0  0  0  0  0
   28.3211    8.2692    4.7002 N   0  0  0  0  0  0  0  0  0  0  0  0
   27.8743    7.0045    4.8773 C   0  0  0  0  0  0  0  0  0  0  0  0
   28.7606    6.3388    5.6842 N   0  0  0  0  0  0  0  0  0  0  0  0
  2  1  1  1  0  0  0
  2  3  1  0  0  0  0
  2  5  1  0  0  0  0
  3  4  1  0  0  0  0
  3 16  1  0  0  0  0
  5  6  1  0  0  0  0
  6  7  1  0  0  0  0
  7  8  1  0  0  0  0
  9  8  1  1  0  0  0
  9 10  1  0  0  0  0
  9 11  1  0  0  0  0
 10 15  1  0  0  0  0
 11 12  1  6  0  0  0
 11 13  1  0  0  0  0
 13 14  1  6  0  0  0
 13 15  1  0  0  0  0
 15 26  1  6  0  0  0
 17 18  2  0  0  0  0
 17 22  1  0  0  0  0
 18 19  1  0  0  0  0
 19 20  2  0  0  0  0
 20 21  1  0  0  0  0
 20 26  1  0  0  0  0
 21 22  2  0  0  0  0
 21 24  1  0  0  0  0
 22 23  1  0  0  0  0
 24 25  2  0  0  0  0
 25 26  1  0  0  0  0
M  END
>  <CHROM.1>
130.90789655,-58.20232798,70.33024298,172.26922769,100.64728577,172.90695170
53.17601055,31.30525083,4.73564215,7.22307203,0.89652263,0.39668962,2.93376065

>  <Name>
ligand

>  <RI>
0

>  <Rbt.Current_Directory>
/home/itssahil/PROJECTS/Mol_Feturizer/New_Systems/rnas/3NPQ

>  <Rbt.Executable>
rbdock ($Id: //depot/dev/client3/rdock/2013.1/src/exe/rbdock.cxx#4 $)

>  <Rbt.Library>
libRbt.so (2013.1, Build901 2013/11/27)

>  <Rbt.Parameter_File>
/export/apps/rDock/src/rDock_2013.1_src/data/scripts/dock_solv.prm

>  <Rbt.Receptor>
prm/blind_docking_40.prm

>  <SCORE>
-12.5364

>  <SCORE.INTER>
-10.6246

>  <SCORE.INTER.CONST>
1

>  <SCORE.INTER.POLAR>
0

>  <SCORE.INTER.ROT>
7

>  <SCORE.INTER.SOLV>
10.3584

>  <SCORE.INTER.VDW>
-18.8026

>  <SCORE.INTER.norm>
-0.40864

>  <SCORE.INTRA>
-1.91198

>  <SCORE.INTRA.DIHEDRAL>
-1.79531

>  <SCORE.INTRA.DIHEDRAL.0>
6.97628

>  <SCORE.INTRA.POLAR>
0

>  <SCORE.INTRA.POLAR.0>
0

>  <SCORE.INTRA.REPUL>
0

>  <SCORE.INTRA.REPUL.0>
0

>  <SCORE.INTRA.SOLV>
1.46459

>  <SCORE.INTRA.SOLV.lig_0>
-49.8243

>  <SCORE.INTRA.VDW>
-1.74662

>  <SCORE.INTRA.VDW.0>
-1.35881

>  <SCORE.INTRA.norm>
-0.0735378

>  <SCORE.RESTR>
0.000203882

>  <SCORE.RESTR.CAVITY>
0.000203882

>  <SCORE.RESTR.norm>
7.84161e-06

>  <SCORE.SYSTEM>
0

>  <SCORE.SYSTEM.CONST>
0

>  <SCORE.SYSTEM.DIHEDRAL>
0

>  <SCORE.SYSTEM.SOLV>
0

>  <SCORE.SYSTEM.norm>
0

>  <SCORE.heavy>
26

>  <SCORE.norm>
-0.48217

>  <RMSD>
14.426

$$$$
ligand
 OpenBabel11021811483D
libRbt.so/2013.1/901 2013/11/27
 26 28  0  0  0  0  0  0  0  0999 V2000
   31.1477   18.7258   17.8248 N   0  0  0  0  0  0  0  0  0  0  0  0
   32.1834   18.8978   18.8358 C   0  0  2  0  0  0  0  0  0  0  0  0
   31.8359   20.0354   19.7892 C   0  0  0  0  0  0  0  0  0  0  0  0
   30.7604   20.6269   19.7042 O   0  0  0  0  0  0  0  0  0  0  0  0
   33.5325   19.1607   18.1785 C   0  0  0  0  0  0  0  0  0  0  0  0
   33.5864   20.4435   17.3593 C   0  0  0  0  0  0  0  0  0  0  0  0
   35.1271   20.6044   16.4219 S   0  0  0  0  0  0  0  0  0  0  0  0
   34.8653   22.3913   16.2923 C   0  0  0  0  0  0  0  0  0  0  0  0
   35.7080   23.1830   17.2855 C   0  0  1  0  0  0  0  0  0  0  0  0
   35.6238   22.5921   18.5696 O   0  0  0  0  0  0  0  0  0  0  0  0
   37.1728   23.2074   16.8805 C   0  0  1  0  0  0  0  0  0  0  0  0
   37.5736   24.5286   16.6049 O   0  0  0  0  0  0  0  0  0  0  0  0
   37.9400   22.6698   18.0707 C   0  0  1  0  0  0  0  0  0  0  0  0
   38.8757   23.6246   18.5146 O   0  0  0  0  0  0  0  0  0  0  0  0
   36.9023   22.4133   19.1500 C   0  0  2  0  0  0  0  0  0  0  0  0
   32.6232   20.3895   20.6677 O   0  0  0  0  0  0  0  0  0  0  0  0
   38.6743   17.5619   18.2065 N   0  0  0  0  0  0  0  0  0  0  0  0
   38.7552   18.6713   17.3891 C   0  0  0  0  0  0  0  0  0  0  0  0
   38.2300   19.8794   17.8030 N   0  0  0  0  0  0  0  0  0  0  0  0
   37.6298   19.9855   19.0136 C   0  0  0  0  0  0  0  0  0  0  0  0
   37.5381   18.8811   19.8496 C   0  0  0  0  0  0  0  0  0  0  0  0
   38.0649   17.6618   19.4409 C   0  0  0  0  0  0  0  0  0  0  0  0
   37.9820   16.5969   20.2330 N   0  0  0  0  0  0  0  0  0  0  0  0
   36.9016   19.2649   20.9772 N   0  0  0  0  0  0  0  0  0  0  0  0
   36.5899   20.5775   20.8759 C   0  0  0  0  0  0  0  0  0  0  0  0
   37.0352   21.0381   19.6637 N   0  0  0  0  0  0  0  0  0  0  0  0
  2  1  1  6  0  0  0
  2  3  1  0  0  0  0
  2  5  1  0  0  0  0
  3  4  1  0  0  0  0
  3 16  1  0  0  0  0
  5  6  1  0  0  0  0
  6  7  1  0  0  0  0
  7  8  1  0  0  0  0
  9  8  1  6  0  0  0
  9 10  1  0  0  0  0
  9 11  1  0  0  0  0
 10 15  1  0  0  0  0
 11 12  1  1  0  0  0
 11 13  1  0  0  0  0
 13 14  1  1  0  0  0
 13 15  1  0  0  0  0
 15 26  1  6  0  0  0
 17 18  2  0  0  0  0
 17 22  1  0  0  0  0
 18 19  1  0  0  0  0
 19 20  2  0  0  0  0
 20 21  1  0  0  0  0
 20 26  1  0  0  0  0
 21 22  2  0  0  0  0
 21 24  1  0  0  0  0
 22 23  1  0  0  0  0
 24 25  2  0  0  0  0
 25 26  1  0  0  0  0
M  END
>  <CHROM.1>
4.29290551,62.72333904,-172.38318487,-159.30318377,101.16340498,-46.22550829
96.97821166,35.79313089,20.59458598,18.48274597,-2.86209829,0.00270826,-0.42570549

>  <Name>
ligand

>  <RI>
0

>  <Rbt.Current_Directory>
/home/itssahil/PROJECTS/Mol_Feturizer/New_Systems/rnas/3NPQ

>  <Rbt.Executable>
rbdock ($Id: //depot/dev/client3/rdock/2013.1/src/exe/rbdock.cxx#4 $)

>  <Rbt.Library>
libRbt.so (2013.1, Build901 2013/11/27)

>  <Rbt.Parameter_File>
/export/apps/rDock/src/rDock_2013.1_src/data/scripts/dock_solv.prm

>  <Rbt.Receptor>
prm/blind_docking_80.prm

>  <SCORE>
-12.6608

>  <SCORE.INTER>
-10.32

>  <SCORE.INTER.CONST>
1

>  <SCORE.INTER.POLAR>
0

>  <SCORE.INTER.ROT>
7

>  <SCORE.INTER.SOLV>
6.28332

>  <SCORE.INTER.VDW>
-17.2411

>  <SCORE.INTER.norm>
-0.396925

>  <SCORE.INTRA>
-2.34305

>  <SCORE.INTRA.DIHEDRAL>
-0.905114

>  <SCORE.INTRA.DIHEDRAL.0>
6.97628

>  <SCORE.INTRA.POLAR>
0

>  <SCORE.INTRA.POLAR.0>
0

>  <SCORE.INTRA.REPUL>
0

>  <SCORE.INTRA.REPUL.0>
0

>  <SCORE.INTRA.SOLV>
0.158627

>  <SCORE.INTRA.SOLV.lig_0>
-49.8243

>  <SCORE.INTRA.VDW>
-1.9698

>  <SCORE.INTRA.VDW.0>
-1.35881

>  <SCORE.INTRA.norm>
-0.0901171

>  <SCORE.RESTR>
0.00230031

>  <SCORE.RESTR.CAVITY>
0.00230031

>  <SCORE.RESTR.norm>
8.84734e-05

>  <SCORE.SYSTEM>
0

>  <SCORE.SYSTEM.CONST>
0

>  <SCORE.SYSTEM.DIHEDRAL>
0

>  <SCORE.SYSTEM.SOLV>
0

>  <SCORE.SYSTEM.norm>
0

>  <SCORE.heavy>
26

>  <SCORE.norm>
-0.486953

>  <RMSD>
14.441

$$$$
ligand
 OpenBabel11021811483D
libRbt.so/2013.1/901 2013/11/27
 26 28  0  0  0  0  0  0  0  0999 V2000
   31.3941    1.5742    6.9502 N   0  0  0  0  0  0  0  0  0  0  0  0
   31.0750    2.6155    5.9815 C   0  0  2  0  0  0  0  0  0  0  0  0
   32.0872    3.7535    6.0459 C   0  0  0  0  0  0  0  0  0  0  0  0
   32.0567    4.5774    6.9592 O   0  0  0  0  0  0  0  0  0  0  0  0
   29.6692    3.1527    6.2191 C   0  0  0  0  0  0  0  0  0  0  0  0
   29.1941    4.1419    5.1630 C   0  0  0  0  0  0  0  0  0  0  0  0
   27.6608    4.9803    5.6369 S   0  0  0  0  0  0  0  0  0  0  0  0
   28.5884    6.0401    6.7747 C   0  0  0  0  0  0  0  0  0  0  0  0
   29.5630    6.9651    6.0550 C   0  0  1  0  0  0  0  0  0  0  0  0
   28.8574    7.8178    5.1719 O   0  0  0  0  0  0  0  0  0  0  0  0
   30.3283    7.8407    7.0338 C   0  0  1  0  0  0  0  0  0  0  0  0
   31.7031    7.5435    6.9714 O   0  0  0  0  0  0  0  0  0  0  0  0
   30.0851    9.2680    6.5894 C   0  0  1  0  0  0  0  0  0  0  0  0
   31.3105    9.9017    6.3047 O   0  0  0  0  0  0  0  0  0  0  0  0
   29.2415    9.1709    5.3298 C   0  0  2  0  0  0  0  0  0  0  0  0
   32.9602    3.8753    5.1857 O   0  0  0  0  0  0  0  0  0  0  0  0
   24.4607    9.6902    7.4373 N   0  0  0  0  0  0  0  0  0  0  0  0
   25.3431    8.6380    7.5783 C   0  0  0  0  0  0  0  0  0  0  0  0
   26.5702    8.6704    6.9459 N   0  0  0  0  0  0  0  0  0  0  0  0
   26.9175    9.7339    6.1807 C   0  0  0  0  0  0  0  0  0  0  0  0
   26.0435   10.8013    6.0262 C   0  0  0  0  0  0  0  0  0  0  0  0
   24.8070   10.7769    6.6601 C   0  0  0  0  0  0  0  0  0  0  0  0
   23.9615   11.7934    6.5185 N   0  0  0  0  0  0  0  0  0  0  0  0
   26.6366   11.7115    5.2238 N   0  0  0  0  0  0  0  0  0  0  0  0
   27.8572   11.2488    4.8685 C   0  0  0  0  0  0  0  0  0  0  0  0
   28.0456   10.0235    5.4543 N   0  0  0  0  0  0  0  0  0  0  0  0
  2  1  1  1  0  0  0
  2  3  1  0  0  0  0
  2  5  1  0  0  0  0
  3  4  1  0  0  0  0
  3 16  1  0  0  0  0
  5  6  1  0  0  0  0
  6  7  1  0  0  0  0
  7  8  1  0  0  0  0
  9  8  1  1  0  0  0
  9 10  1  0  0  0  0
  9 11  1  0  0  0  0
 10 15  1  0  0  0  0
 11 12  1  6  0  0  0
 11 13  1  0  0  0  0
 13 14  1  6  0  0  0
 13 15  1  0  0  0  0
 15 26  1  1  0  0  0
 17 18  2  0  0  0  0
 17 22  1  0  0  0  0
 18 19  1  0  0  0  0
 19 20  2  0  0  0  0
 20 21  1  0  0  0  0
 20 26  1  0  0  0  0
 21 22  2  0  0  0  0
 21 24  1  0  0  0  0
 22 23  1  0  0  0  0
 24 25  2  0  0  0  0
 25 26  1  0  0  0  0
M  END
>  <CHROM.1>
-75.91284307,-173.89173504,-169.46903598,76.47208652,65.34948292,60.53959008
41.61690351,28.76004569,7.35837345,6.17236773,0.92494958,-0.07124258,3.10484521

>  <Name>
ligand

>  <RI>
0

>  <Rbt.Current_Directory>
/home/itssahil/PROJECTS/Mol_Feturizer/New_Systems/rnas/3NPQ

>  <Rbt.Executable>
rbdock ($Id: //depot/dev/client3/rdock/2013.1/src/exe/rbdock.cxx#4 $)

>  <Rbt.Library>
libRbt.so (2013.1, Build901 2013/11/27)

>  <Rbt.Parameter_File>
/export/apps/rDock/src/rDock_2013.1_src/data/scripts/dock_solv.prm

>  <Rbt.Receptor>
prm/blind_docking_40.prm

>  <SCORE>
-12.2802

>  <SCORE.INTER>
-8.98058

>  <SCORE.INTER.CONST>
1

>  <SCORE.INTER.POLAR>
0

>  <SCORE.INTER.ROT>
7

>  <SCORE.INTER.SOLV>
11.5877

>  <SCORE.INTER.VDW>
-18.1163

>  <SCORE.INTER.norm>
-0.345407

>  <SCORE.INTRA>
-3.2996

>  <SCORE.INTRA.DIHEDRAL>
-3.29664

>  <SCORE.INTRA.DIHEDRAL.0>
6.97628

>  <SCORE.INTRA.POLAR>
0

>  <SCORE.INTRA.POLAR.0>
0

>  <SCORE.INTRA.REPUL>
0

>  <SCORE.INTRA.REPUL.0>
0

>  <SCORE.INTRA.SOLV>
-0.694551

>  <SCORE.INTRA.SOLV.lig_0>
-49.8243

>  <SCORE.INTRA.VDW>
-1.30401

>  <SCORE.INTRA.VDW.0>
-1.35881

>  <SCORE.INTRA.norm>
-0.126908

>  <SCORE.RESTR>
0

>  <SCORE.RESTR.CAVITY>
0

>  <SCORE.RESTR.norm>
0

>  <SCORE.SYSTEM>
0

>  <SCORE.SYSTEM.CONST>
0

>  <SCORE.SYSTEM.DIHEDRAL>
0

>  <SCORE.SYSTEM.SOLV>
0

>  <SCORE.SYSTEM.norm>
0

>  <SCORE.heavy>
26

>  <SCORE.norm>
-0.472315

>  <RMSD>
14.442

$$$$
ligand
 OpenBabel11021811483D
libRbt.so/2013.1/901 2013/11/27
 26 28  0  0  0  0  0  0  0  0999 V2000
   31.9973   17.9245   19.0846 N   0  0  0  0  0  0  0  0  0  0  0  0
   32.9388   19.0290   19.2193 C   0  0  2  0  0  0  0  0  0  0  0  0
   32.3569   20.1439   20.0809 C   0  0  0  0  0  0  0  0  0  0  0  0
   31.1721   20.4627   19.9887 O   0  0  0  0  0  0  0  0  0  0  0  0
   33.3222   19.5736   17.8491 C   0  0  0  0  0  0  0  0  0  0  0  0
   34.5414   20.4864   17.8610 C   0  0  0  0  0  0  0  0  0  0  0  0
   34.9303   21.1466   16.2204 S   0  0  0  0  0  0  0  0  0  0  0  0
   34.6200   22.8268   16.8195 C   0  0  0  0  0  0  0  0  0  0  0  0
   35.8073   23.4101   17.5768 C   0  0  1  0  0  0  0  0  0  0  0  0
   35.9119   22.8041   18.8523 O   0  0  0  0  0  0  0  0  0  0  0  0
   37.1140   23.1679   16.8389 C   0  0  1  0  0  0  0  0  0  0  0  0
   37.6869   24.3968   16.4597 O   0  0  0  0  0  0  0  0  0  0  0  0
   38.0185   22.4550   17.8227 C   0  0  1  0  0  0  0  0  0  0  0  0
   39.1981   23.1987   18.0220 O   0  0  0  0  0  0  0  0  0  0  0  0
   37.2311   22.3658   19.1187 C   0  0  2  0  0  0  0  0  0  0  0  0
   33.0585   20.7519   20.8902 O   0  0  0  0  0  0  0  0  0  0  0  0
   38.7378   17.4165   18.2234 N   0  0  0  0  0  0  0  0  0  0  0  0
   38.9813   18.5333   17.4494 C   0  0  0  0  0  0  0  0  0  0  0  0
   38.5045   19.7684   17.8419 N   0  0  0  0  0  0  0  0  0  0  0  0
   37.7928   19.8940   18.9885 C   0  0  0  0  0  0  0  0  0  0  0  0
   37.5371   18.7825   19.7800 C   0  0  0  0  0  0  0  0  0  0  0  0
   38.0142   17.5361   19.3926 C   0  0  0  0  0  0  0  0  0  0  0  0
   37.7745   16.4644   20.1424 N   0  0  0  0  0  0  0  0  0  0  0  0
   36.8178   19.1894   20.8482 N   0  0  0  0  0  0  0  0  0  0  0  0
   36.6130   20.5233   20.7526 C   0  0  0  0  0  0  0  0  0  0  0  0
   37.2118   20.9743   19.6046 N   0  0  0  0  0  0  0  0  0  0  0  0
  2  1  1  6  0  0  0
  2  3  1  0  0  0  0
  2  5  1  0  0  0  0
  3  4  1  0  0  0  0
  3 16  1  0  0  0  0
  5  6  1  0  0  0  0
  6  7  1  0  0  0  0
  7  8  1  0  0  0  0
  9  8  1  6  0  0  0
  9 10  1  0  0  0  0
  9 11  1  0  0  0  0
 10 15  1  0  0  0  0
 11 12  1  1  0  0  0
 11 13  1  0  0  0  0
 13 14  1  1  0  0  0
 13 15  1  0  0  0  0
 15 26  1  6  0  0  0
 17 18  2  0  0  0  0
 17 22  1  0  0  0  0
 18 19  1  0  0  0  0
 19 20  2  0  0  0  0
 20 21  1  0  0  0  0
 20 26  1  0  0  0  0
 21 22  2  0  0  0  0
 21 24  1  0  0  0  0
 22 23  1  0  0  0  0
 24 25  2  0  0  0  0
 25 26  1  0  0  0  0
M  END
>  <CHROM.1>
-39.43303363,-165.80753907,-178.35567521,117.10953605,81.02226869,-73.69406253
117.63272334,35.97192884,20.60748289,18.55186539,-2.63197441,0.11247685,-0.43716899

>  <Name>
ligand

>  <RI>
0

>  <Rbt.Current_Directory>
/home/itssahil/PROJECTS/Mol_Feturizer/New_Systems/rnas/3NPQ

>  <Rbt.Executable>
rbdock ($Id: //depot/dev/client3/rdock/2013.1/src/exe/rbdock.cxx#4 $)

>  <Rbt.Library>
libRbt.so (2013.1, Build901 2013/11/27)

>  <Rbt.Parameter_File>
/export/apps/rDock/src/rDock_2013.1_src/data/scripts/dock_solv.prm

>  <Rbt.Receptor>
prm/blind_docking_80.prm

>  <SCORE>
-11.8828

>  <SCORE.INTER>
-10.1938

>  <SCORE.INTER.CONST>
1

>  <SCORE.INTER.POLAR>
0

>  <SCORE.INTER.ROT>
7

>  <SCORE.INTER.SOLV>
4.61909

>  <SCORE.INTER.VDW>
-16.6022

>  <SCORE.INTER.norm>
-0.392069

>  <SCORE.INTRA>
-1.6986

>  <SCORE.INTRA.DIHEDRAL>
0.141913

>  <SCORE.INTRA.DIHEDRAL.0>
6.97628

>  <SCORE.INTRA.POLAR>
0

>  <SCORE.INTRA.POLAR.0>
0

>  <SCORE.INTRA.REPUL>
0

>  <SCORE.INTRA.REPUL.0>
0

>  <SCORE.INTRA.SOLV>
-0.43298

>  <SCORE.INTRA.SOLV.lig_0>
-49.8243

>  <SCORE.INTRA.VDW>
-1.55307

>  <SCORE.INTRA.VDW.0>
-1.35881

>  <SCORE.INTRA.norm>
-0.0653308

>  <SCORE.RESTR>
0.00960404

>  <SCORE.RESTR.CAVITY>
0.00960404

>  <SCORE.RESTR.norm>
0.000369386

>  <SCORE.SYSTEM>
0

>  <SCORE.SYSTEM.CONST>
0

>  <SCORE.SYSTEM.DIHEDRAL>
0

>  <SCORE.SYSTEM.SOLV>
0

>  <SCORE.SYSTEM.norm>
0

>  <SCORE.heavy>
26

>  <SCORE.norm>
-0.45703

>  <RMSD>
14.443

$$$$
ligand
 OpenBabel11021811483D
libRbt.so/2013.1/901 2013/11/27
 26 28  0  0  0  0  0  0  0  0999 V2000
   39.8810   24.5915   15.8673 N   0  0  0  0  0  0  0  0  0  0  0  0
   38.6572   24.4583   16.6478 C   0  0  2  0  0  0  0  0  0  0  0  0
   38.9114   23.6901   17.9398 C   0  0  0  0  0  0  0  0  0  0  0  0
   38.4519   24.0832   19.0113 O   0  0  0  0  0  0  0  0  0  0  0  0
   37.5760   23.7626   15.8305 C   0  0  0  0  0  0  0  0  0  0  0  0
   36.1965   23.7853   16.4756 C   0  0  0  0  0  0  0  0  0  0  0  0
   35.1053   22.4942   15.8269 S   0  0  0  0  0  0  0  0  0  0  0  0
   34.3013   22.3572   17.4434 C   0  0  0  0  0  0  0  0  0  0  0  0
   33.2524   21.2520   17.4870 C   0  0  1  0  0  0  0  0  0  0  0  0
   33.8196   20.0300   17.0512 O   0  0  0  0  0  0  0  0  0  0  0  0
   32.7213   21.0414   18.8955 C   0  0  1  0  0  0  0  0  0  0  0  0
   31.3469   21.3432   18.9413 O   0  0  0  0  0  0  0  0  0  0  0  0
   32.9414   19.5753   19.2056 C   0  0  1  0  0  0  0  0  0  0  0  0
   31.7139   18.9559   19.5121 O   0  0  0  0  0  0  0  0  0  0  0  0
   33.5320   18.9699   17.9438 C   0  0  2  0  0  0  0  0  0  0  0  0
   39.5824   22.6573   17.9420 O   0  0  0  0  0  0  0  0  0  0  0  0
   38.7370   19.2526   18.5724 N   0  0  0  0  0  0  0  0  0  0  0  0
   37.8642   20.2677   18.2360 C   0  0  0  0  0  0  0  0  0  0  0  0
   36.5131   20.0105   18.1131 N   0  0  0  0  0  0  0  0  0  0  0  0
   36.0334   18.7598   18.3199 C   0  0  0  0  0  0  0  0  0  0  0  0
   36.8954   17.7256   18.6584 C   0  0  0  0  0  0  0  0  0  0  0  0
   38.2564   17.9764   18.7850 C   0  0  0  0  0  0  0  0  0  0  0  0
   39.0915   16.9933   19.1078 N   0  0  0  0  0  0  0  0  0  0  0  0
   36.1599   16.6023   18.8043 N   0  0  0  0  0  0  0  0  0  0  0  0
   34.8612   16.8985   18.5677 C   0  0  0  0  0  0  0  0  0  0  0  0
   34.7671   18.2327   18.2661 N   0  0  0  0  0  0  0  0  0  0  0  0
  2  1  1  6  0  0  0
  2  3  1  0  0  0  0
  2  5  1  0  0  0  0
  3  4  1  0  0  0  0
  3 16  1  0  0  0  0
  5  6  1  0  0  0  0
  6  7  1  0  0  0  0
  7  8  1  0  0  0  0
  9  8  1  1  0  0  0
  9 10  1  0  0  0  0
  9 11  1  0  0  0  0
 10 15  1  0  0  0  0
 11 12  1  6  0  0  0
 11 13  1  0  0  0  0
 13 14  1  6  0  0  0
 13 15  1  0  0  0  0
 15 26  1  1  0  0  0
 17 18  2  0  0  0  0
 17 22  1  0  0  0  0
 18 19  1  0  0  0  0
 19 20  2  0  0  0  0
 20 21  1  0  0  0  0
 20 26  1  0  0  0  0
 21 22  2  0  0  0  0
 21 24  1  0  0  0  0
 22 23  1  0  0  0  0
 24 25  2  0  0  0  0
 25 26  1  0  0  0  0
M  END
>  <CHROM.1>
134.98379098,-170.34472615,-159.35964901,147.46016411,-176.48935781,53.22583270
30.78253019,35.96075576,20.75736100,17.87404351,-0.83200517,-0.00955691,2.81498699

>  <Name>
ligand

>  <RI>
0

>  <Rbt.Current_Directory>
/home/itssahil/PROJECTS/Mol_Feturizer/New_Systems/rnas/3NPQ

>  <Rbt.Executable>
rbdock ($Id: //depot/dev/client3/rdock/2013.1/src/exe/rbdock.cxx#4 $)

>  <Rbt.Library>
libRbt.so (2013.1, Build901 2013/11/27)

>  <Rbt.Parameter_File>
/export/apps/rDock/src/rDock_2013.1_src/data/scripts/dock_solv.prm

>  <Rbt.Receptor>
prm/blind_docking_80.prm

>  <SCORE>
-11.52

>  <SCORE.INTER>
-8.12775

>  <SCORE.INTER.CONST>
1

>  <SCORE.INTER.POLAR>
0

>  <SCORE.INTER.ROT>
7

>  <SCORE.INTER.SOLV>
8.47334

>  <SCORE.INTER.VDW>
-16.5096

>  <SCORE.INTER.norm>
-0.312606

>  <SCORE.INTRA>
-3.39223

>  <SCORE.INTRA.DIHEDRAL>
-0.957952

>  <SCORE.INTRA.DIHEDRAL.0>
6.97628

>  <SCORE.INTRA.POLAR>
0

>  <SCORE.INTRA.POLAR.0>
0

>  <SCORE.INTRA.REPUL>
0

>  <SCORE.INTRA.REPUL.0>
0

>  <SCORE.INTRA.SOLV>
-0.852644

>  <SCORE.INTRA.SOLV.lig_0>
-49.8243

>  <SCORE.INTRA.VDW>
-2.48694

>  <SCORE.INTRA.VDW.0>
-1.35881

>  <SCORE.INTRA.norm>
-0.130471

>  <SCORE.RESTR>
0

>  <SCORE.RESTR.CAVITY>
0

>  <SCORE.RESTR.norm>
0

>  <SCORE.SYSTEM>
0

>  <SCORE.SYSTEM.CONST>
0

>  <SCORE.SYSTEM.DIHEDRAL>
0

>  <SCORE.SYSTEM.SOLV>
0

>  <SCORE.SYSTEM.norm>
0

>  <SCORE.heavy>
26

>  <SCORE.norm>
-0.443076

>  <RMSD>
14.444

$$$$
ligand
 OpenBabel11021811483D
libRbt.so/2013.1/901 2013/11/27
 26 28  0  0  0  0  0  0  0  0999 V2000
   32.9226    1.6055    4.2088 N   0  0  0  0  0  0  0  0  0  0  0  0
   33.7519    2.4467    5.0628 C   0  0  2  0  0  0  0  0  0  0  0  0
   35.0567    1.7455    5.4227 C   0  0  0  0  0  0  0  0  0  0  0  0
   36.0907    1.9705    4.7949 O   0  0  0  0  0  0  0  0  0  0  0  0
   32.9974    2.8289    6.3300 C   0  0  0  0  0  0  0  0  0  0  0  0
   31.7173    3.6151    6.0792 C   0  0  0  0  0  0  0  0  0  0  0  0
   30.9306    4.1684    7.6132 S   0  0  0  0  0  0  0  0  0  0  0  0
   29.4785    4.7097    6.6770 C   0  0  0  0  0  0  0  0  0  0  0  0
   28.5505    5.6013    7.4939 C   0  0  1  0  0  0  0  0  0  0  0  0
   29.1204    6.8896    7.6368 O   0  0  0  0  0  0  0  0  0  0  0  0
   27.1972    5.7641    6.8211 C   0  0  1  0  0  0  0  0  0  0  0  0
   26.1873    5.2138    7.6332 O   0  0  0  0  0  0  0  0  0  0  0  0
   26.9869    7.2564    6.6708 C   0  0  1  0  0  0  0  0  0  0  0  0
   25.8073    7.6481    7.3337 O   0  0  0  0  0  0  0  0  0  0  0  0
   28.1939    7.9116    7.3200 C   0  0  2  0  0  0  0  0  0  0  0  0
   35.1074    0.9373    6.3507 O   0  0  0  0  0  0  0  0  0  0  0  0
   28.8394   12.9776    6.1006 N   0  0  0  0  0  0  0  0  0  0  0  0
   28.1218   12.4397    7.1500 C   0  0  0  0  0  0  0  0  0  0  0  0
   28.0599   11.0708    7.3204 N   0  0  0  0  0  0  0  0  0  0  0  0
   28.7014   10.2446    6.4585 C   0  0  0  0  0  0  0  0  0  0  0  0
   29.4277   10.7664    5.3968 C   0  0  0  0  0  0  0  0  0  0  0  0
   29.4957   12.1429    5.2188 C   0  0  0  0  0  0  0  0  0  0  0  0
   30.1877   12.6539    4.2048 N   0  0  0  0  0  0  0  0  0  0  0  0
   29.9571    9.7327    4.7073 N   0  0  0  0  0  0  0  0  0  0  0  0
   29.5856    8.5763    5.3031 C   0  0  0  0  0  0  0  0  0  0  0  0
   28.8067    8.8776    6.3905 N   0  0  0  0  0  0  0  0  0  0  0  0
  2  1  1  6  0  0  0
  2  3  1  0  0  0  0
  2  5  1  0  0  0  0
  3  4  1  0  0  0  0
  3 16  1  0  0  0  0
  5  6  1  0  0  0  0
  6  7  1  0  0  0  0
  7  8  1  0  0  0  0
  9  8  1  6  0  0  0
  9 10  1  0  0  0  0
  9 11  1  0  0  0  0
 10 15  1  0  0  0  0
 11 12  1  1  0  0  0
 11 13  1  0  0  0  0
 13 14  1  1  0  0  0
 13 15  1  0  0  0  0
 15 26  1  6  0  0  0
 17 18  2  0  0  0  0
 17 22  1  0  0  0  0
 18 19  1  0  0  0  0
 19 20  2  0  0  0  0
 20 21  1  0  0  0  0
 20 26  1  0  0  0  0
 21 22  2  0  0  0  0
 21 24  1  0  0  0  0
 22 23  1  0  0  0  0
 24 25  2  0  0  0  0
 25 26  1  0  0  0  0
M  END
>  <CHROM.1>
97.14939873,-60.57356248,-175.09849145,-171.28140720,-166.41029331,74.29155750
-137.15064948,30.11695376,6.65733020,6.30697131,-0.95467465,0.39310524,-0.20662189

>  <Name>
ligand

>  <RI>
0

>  <Rbt.Current_Directory>
/home/itssahil/PROJECTS/Mol_Feturizer/New_Systems/rnas/3NPQ

>  <Rbt.Executable>
rbdock ($Id: //depot/dev/client3/rdock/2013.1/src/exe/rbdock.cxx#4 $)

>  <Rbt.Library>
libRbt.so (2013.1, Build901 2013/11/27)

>  <Rbt.Parameter_File>
/export/apps/rDock/src/rDock_2013.1_src/data/scripts/dock_solv.prm

>  <Rbt.Receptor>
prm/blind_docking_40.prm

>  <SCORE>
-6.74211

>  <SCORE.INTER>
-4.45047

>  <SCORE.INTER.CONST>
1

>  <SCORE.INTER.POLAR>
0

>  <SCORE.INTER.ROT>
7

>  <SCORE.INTER.SOLV>
12.2978

>  <SCORE.INTER.VDW>
-15.3329

>  <SCORE.INTER.norm>
-0.171172

>  <SCORE.INTRA>
-2.29164

>  <SCORE.INTRA.DIHEDRAL>
-3.09223

>  <SCORE.INTRA.DIHEDRAL.0>
6.97628

>  <SCORE.INTRA.POLAR>
0

>  <SCORE.INTRA.POLAR.0>
0

>  <SCORE.INTRA.REPUL>
0

>  <SCORE.INTRA.REPUL.0>
0

>  <SCORE.INTRA.SOLV>
-0.343549

>  <SCORE.INTRA.SOLV.lig_0>
-49.8243

>  <SCORE.INTRA.VDW>
-0.573752

>  <SCORE.INTRA.VDW.0>
-1.35881

>  <SCORE.INTRA.norm>
-0.08814

>  <SCORE.RESTR>
0

>  <SCORE.RESTR.CAVITY>
0

>  <SCORE.RESTR.norm>
0

>  <SCORE.SYSTEM>
0

>  <SCORE.SYSTEM.CONST>
0

>  <SCORE.SYSTEM.DIHEDRAL>
0

>  <SCORE.SYSTEM.SOLV>
0

>  <SCORE.SYSTEM.norm>
0

>  <SCORE.heavy>
26

>  <SCORE.norm>
-0.259312

>  <RMSD>
14.467

$$$$
ligand
 OpenBabel11021811483D
libRbt.so/2013.1/901 2013/11/27
 26 28  0  0  0  0  0  0  0  0999 V2000
   37.2379   25.5009   17.0809 N   0  0  0  0  0  0  0  0  0  0  0  0
   37.5420   24.4523   16.1153 C   0  0  2  0  0  0  0  0  0  0  0  0
   36.4012   23.4455   16.0212 C   0  0  0  0  0  0  0  0  0  0  0  0
   35.8173   23.0538   17.0309 O   0  0  0  0  0  0  0  0  0  0  0  0
   38.8366   23.7415   16.4893 C   0  0  0  0  0  0  0  0  0  0  0  0
   38.8868   23.2580   17.9327 C   0  0  0  0  0  0  0  0  0  0  0  0
   39.3623   21.5160   18.0651 S   0  0  0  0  0  0  0  0  0  0  0  0
   37.7215   21.1143   18.7166 C   0  0  0  0  0  0  0  0  0  0  0  0
   37.6791   19.7564   19.4079 C   0  0  1  0  0  0  0  0  0  0  0  0
   36.4086   19.5550   19.9997 O   0  0  0  0  0  0  0  0  0  0  0  0
   37.9190   18.6218   18.4254 C   0  0  1  0  0  0  0  0  0  0  0  0
   39.1032   17.9379   18.7604 O   0  0  0  0  0  0  0  0  0  0  0  0
   36.7281   17.6962   18.5637 C   0  0  1  0  0  0  0  0  0  0  0  0
   37.1586   16.4044   18.9248 O   0  0  0  0  0  0  0  0  0  0  0  0
   35.8695   18.2891   19.6677 C   0  0  2  0  0  0  0  0  0  0  0  0
   36.0364   23.0003   14.9324 O   0  0  0  0  0  0  0  0  0  0  0  0
   32.6487   20.6318   16.2464 N   0  0  0  0  0  0  0  0  0  0  0  0
   34.0165   20.7766   16.3638 C   0  0  0  0  0  0  0  0  0  0  0  0
   34.7093   20.0753   17.3307 N   0  0  0  0  0  0  0  0  0  0  0  0
   34.0524   19.2408   18.1728 C   0  0  0  0  0  0  0  0  0  0  0  0
   32.6771   19.0821   18.0709 C   0  0  0  0  0  0  0  0  0  0  0  0
   31.9725   19.7836   17.0999 C   0  0  0  0  0  0  0  0  0  0  0  0
   30.6549   19.6403   16.9936 N   0  0  0  0  0  0  0  0  0  0  0  0
   32.2884   18.2034   19.0200 N   0  0  0  0  0  0  0  0  0  0  0  0
   33.3777   17.8046   19.7162 C   0  0  0  0  0  0  0  0  0  0  0  0
   34.4790   18.4393   19.2023 N   0  0  0  0  0  0  0  0  0  0  0  0
  2  1  1  1  0  0  0
  2  3  1  0  0  0  0
  2  5  1  0  0  0  0
  3  4  1  0  0  0  0
  3 16  1  0  0  0  0
  5  6  1  0  0  0  0
  6  7  1  0  0  0  0
  7  8  1  0  0  0  0
  9  8  1  6  0  0  0
  9 10  1  0  0  0  0
  9 11  1  0  0  0  0
 10 15  1  0  0  0  0
 11 12  1  1  0  0  0
 11 13  1  0  0  0  0
 13 14  1  1  0  0  0
 13 15  1  0  0  0  0
 15 26  1  6  0  0  0
 17 18  2  0  0  0  0
 17 22  1  0  0  0  0
 18 19  1  0  0  0  0
 19 20  2  0  0  0  0
 20 21  1  0  0  0  0
 20 26  1  0  0  0  0
 21 22  2  0  0  0  0
 21 24  1  0  0  0  0
 22 23  1  0  0  0  0
 24 25  2  0  0  0  0
 25 26  1  0  0  0  0
M  END
>  <CHROM.1>
-41.51272226,51.18711543,129.25004720,-114.36117221,-163.01993823,174.67474865
55.52676194,36.00342419,20.48677284,17.87288791,0.80224689,-0.19909601,-0.47112557

>  <Name>
ligand

>  <RI>
0

>  <Rbt.Current_Directory>
/home/itssahil/PROJECTS/Mol_Feturizer/New_Systems/rnas/3NPQ

>  <Rbt.Executable>
rbdock ($Id: //depot/dev/client3/rdock/2013.1/src/exe/rbdock.cxx#4 $)

>  <Rbt.Library>
libRbt.so (2013.1, Build901 2013/11/27)

>  <Rbt.Parameter_File>
/export/apps/rDock/src/rDock_2013.1_src/data/scripts/dock_solv.prm

>  <Rbt.Receptor>
prm/blind_docking_60.prm

>  <SCORE>
-9.45528

>  <SCORE.INTER>
-9.02945

>  <SCORE.INTER.CONST>
1

>  <SCORE.INTER.POLAR>
0

>  <SCORE.INTER.ROT>
7

>  <SCORE.INTER.SOLV>
7.6151

>  <SCORE.INTER.VDW>
-16.8247

>  <SCORE.INTER.norm>
-0.347286

>  <SCORE.INTRA>
-0.425838

>  <SCORE.INTRA.DIHEDRAL>
4.10453

>  <SCORE.INTRA.DIHEDRAL.0>
6.97628

>  <SCORE.INTRA.POLAR>
0

>  <SCORE.INTRA.POLAR.0>
0

>  <SCORE.INTRA.REPUL>
0

>  <SCORE.INTRA.REPUL.0>
0

>  <SCORE.INTRA.SOLV>
-0.0317139

>  <SCORE.INTRA.SOLV.lig_0>
-49.8243

>  <SCORE.INTRA.VDW>
-2.46224

>  <SCORE.INTRA.VDW.0>
-1.35881

>  <SCORE.INTRA.norm>
-0.0163784

>  <SCORE.RESTR>
0

>  <SCORE.RESTR.CAVITY>
0

>  <SCORE.RESTR.norm>
0

>  <SCORE.SYSTEM>
0

>  <SCORE.SYSTEM.CONST>
0

>  <SCORE.SYSTEM.DIHEDRAL>
0

>  <SCORE.SYSTEM.SOLV>
0

>  <SCORE.SYSTEM.norm>
0

>  <SCORE.heavy>
26

>  <SCORE.norm>
-0.363665

>  <RMSD>
14.469

$$$$
ligand
 OpenBabel11021811483D
libRbt.so/2013.1/901 2013/11/27
 26 28  0  0  0  0  0  0  0  0999 V2000
   35.3224    0.3359    7.5494 N   0  0  0  0  0  0  0  0  0  0  0  0
   34.2705    1.3443    7.5145 C   0  0  2  0  0  0  0  0  0  0  0  0
   34.1572    1.9712    6.1295 C   0  0  0  0  0  0  0  0  0  0  0  0
   33.0797    2.3937    5.7118 O   0  0  0  0  0  0  0  0  0  0  0  0
   34.5318    2.4242    8.5569 C   0  0  0  0  0  0  0  0  0  0  0  0
   33.3724    3.3920    8.7547 C   0  0  0  0  0  0  0  0  0  0  0  0
   31.9050    2.5858    9.4439 S   0  0  0  0  0  0  0  0  0  0  0  0
   30.8698    3.9389    8.8309 C   0  0  0  0  0  0  0  0  0  0  0  0
   29.7636    3.4579    7.8991 C   0  0  1  0  0  0  0  0  0  0  0  0
   28.8646    4.5179    7.6287 O   0  0  0  0  0  0  0  0  0  0  0  0
   30.3230    2.9732    6.5715 C   0  0  1  0  0  0  0  0  0  0  0  0
   30.0537    1.6009    6.4084 O   0  0  0  0  0  0  0  0  0  0  0  0
   29.6062    3.7733    5.5038 C   0  0  1  0  0  0  0  0  0  0  0  0
   28.9315    2.9072    4.6212 O   0  0  0  0  0  0  0  0  0  0  0  0
   28.6082    4.6482    6.2429 C   0  0  2  0  0  0  0  0  0  0  0  0
   35.1414    2.0702    5.3958 O   0  0  0  0  0  0  0  0  0  0  0  0
   31.7989    8.8154    6.0977 N   0  0  0  0  0  0  0  0  0  0  0  0
   32.0558    7.5650    6.6230 C   0  0  0  0  0  0  0  0  0  0  0  0
   31.0905    6.5787    6.5737 N   0  0  0  0  0  0  0  0  0  0  0  0
   29.8834    6.8305    6.0112 C   0  0  0  0  0  0  0  0  0  0  0  0
   29.6060    8.0819    5.4781 C   0  0  0  0  0  0  0  0  0  0  0  0
   30.5722    9.0797    5.5228 C   0  0  0  0  0  0  0  0  0  0  0  0
   30.3172   10.2824    5.0162 N   0  0  0  0  0  0  0  0  0  0  0  0
   28.3475    8.0556    4.9885 N   0  0  0  0  0  0  0  0  0  0  0  0
   27.8247    6.8255    5.1977 C   0  0  0  0  0  0  0  0  0  0  0  0
   28.7654    6.0547    5.8309 N   0  0  0  0  0  0  0  0  0  0  0  0
  2  1  1  6  0  0  0
  2  3  1  0  0  0  0
  2  5  1  0  0  0  0
  3  4  1  0  0  0  0
  3 16  1  0  0  0  0
  5  6  1  0  0  0  0
  6  7  1  0  0  0  0
  7  8  1  0  0  0  0
  9  8  1  1  0  0  0
  9 10  1  0  0  0  0
  9 11  1  0  0  0  0
 10 15  1  0  0  0  0
 11 12  1  6  0  0  0
 11 13  1  0  0  0  0
 13 14  1  6  0  0  0
 13 15  1  0  0  0  0
 15 26  1  6  0  0  0
 17 18  2  0  0  0  0
 17 22  1  0  0  0  0
 18 19  1  0  0  0  0
 19 20  2  0  0  0  0
 20 21  1  0  0  0  0
 20 26  1  0  0  0  0
 21 22  2  0  0  0  0
 21 24  1  0  0  0  0
 22 23  1  0  0  0  0
 24 25  2  0  0  0  0
 25 26  1  0  0  0  0
M  END
>  <CHROM.1>
149.94894487,-170.30845879,65.40121564,-159.55999741,122.47872310,170.56177364
55.87871794,31.18032327,4.51085892,6.68680485,-0.99643288,-0.14033818,-0.22487071

>  <Name>
ligand

>  <RI>
0

>  <Rbt.Current_Directory>
/home/itssahil/PROJECTS/Mol_Feturizer/New_Systems/rnas/3NPQ

>  <Rbt.Executable>
rbdock ($Id: //depot/dev/client3/rdock/2013.1/src/exe/rbdock.cxx#4 $)

>  <Rbt.Library>
libRbt.so (2013.1, Build901 2013/11/27)

>  <Rbt.Parameter_File>
/export/apps/rDock/src/rDock_2013.1_src/data/scripts/dock_solv.prm

>  <Rbt.Receptor>
prm/blind_docking_40.prm

>  <SCORE>
-13.589

>  <SCORE.INTER>
-10.4458

>  <SCORE.INTER.CONST>
1

>  <SCORE.INTER.POLAR>
0

>  <SCORE.INTER.ROT>
7

>  <SCORE.INTER.SOLV>
10.2632

>  <SCORE.INTER.VDW>
-18.6516

>  <SCORE.INTER.norm>
-0.401761

>  <SCORE.INTRA>
-3.14321

>  <SCORE.INTRA.DIHEDRAL>
-0.519215

>  <SCORE.INTRA.DIHEDRAL.0>
6.97628

>  <SCORE.INTRA.POLAR>
0

>  <SCORE.INTRA.POLAR.0>
0

>  <SCORE.INTRA.REPUL>
0

>  <SCORE.INTRA.REPUL.0>
0

>  <SCORE.INTRA.SOLV>
-0.452576

>  <SCORE.INTRA.SOLV.lig_0>
-49.8243

>  <SCORE.INTRA.VDW>
-2.65732

>  <SCORE.INTRA.VDW.0>
-1.35881

>  <SCORE.INTRA.norm>
-0.120893

>  <SCORE.RESTR>
0

>  <SCORE.RESTR.CAVITY>
0

>  <SCORE.RESTR.norm>
0

>  <SCORE.SYSTEM>
0

>  <SCORE.SYSTEM.CONST>
0

>  <SCORE.SYSTEM.DIHEDRAL>
0

>  <SCORE.SYSTEM.SOLV>
0

>  <SCORE.SYSTEM.norm>
0

>  <SCORE.heavy>
26

>  <SCORE.norm>
-0.522654

>  <RMSD>
14.475

$$$$
ligand
 OpenBabel11021811483D
libRbt.so/2013.1/901 2013/11/27
 26 28  0  0  0  0  0  0  0  0999 V2000
   32.1474   18.4284   18.1698 N   0  0  0  0  0  0  0  0  0  0  0  0
   33.2054   19.0484   18.9578 C   0  0  2  0  0  0  0  0  0  0  0  0
   32.6365   20.0827   19.9225 C   0  0  0  0  0  0  0  0  0  0  0  0
   33.3253   20.5498   20.8287 O   0  0  0  0  0  0  0  0  0  0  0  0
   34.2393   19.6974   18.0463 C   0  0  0  0  0  0  0  0  0  0  0  0
   33.6798   20.7982   17.1548 C   0  0  0  0  0  0  0  0  0  0  0  0
   34.9567   21.5885   16.1432 S   0  0  0  0  0  0  0  0  0  0  0  0
   34.6032   23.1786   16.9336 C   0  0  0  0  0  0  0  0  0  0  0  0
   35.8624   23.8872   17.4192 C   0  0  1  0  0  0  0  0  0  0  0  0
   36.5244   23.0892   18.3836 O   0  0  0  0  0  0  0  0  0  0  0  0
   36.8353   24.1410   16.2793 C   0  0  1  0  0  0  0  0  0  0  0  0
   37.0087   25.5259   16.0946 O   0  0  0  0  0  0  0  0  0  0  0  0
   38.1434   23.5059   16.7030 C   0  0  1  0  0  0  0  0  0  0  0  0
   39.1662   24.4743   16.7264 O   0  0  0  0  0  0  0  0  0  0  0  0
   37.9055   22.9625   18.1014 C   0  0  2  0  0  0  0  0  0  0  0  0
   31.4741   20.4759   19.8177 O   0  0  0  0  0  0  0  0  0  0  0  0
   37.0847   18.3063   20.3846 N   0  0  0  0  0  0  0  0  0  0  0  0
   36.4369   19.5003   20.6300 C   0  0  0  0  0  0  0  0  0  0  0  0
   36.7858   20.6373   19.9284 N   0  0  0  0  0  0  0  0  0  0  0  0
   37.7674   20.5908   18.9950 C   0  0  0  0  0  0  0  0  0  0  0  0
   38.4309   19.3996   18.7344 C   0  0  0  0  0  0  0  0  0  0  0  0
   38.0852   18.2506   19.4354 C   0  0  0  0  0  0  0  0  0  0  0  0
   38.7146   17.1042   19.1948 N   0  0  0  0  0  0  0  0  0  0  0  0
   39.3481   19.6365   17.7718 N   0  0  0  0  0  0  0  0  0  0  0  0
   39.2818   20.9409   17.4190 C   0  0  0  0  0  0  0  0  0  0  0  0
   38.3062   21.5456   18.1689 N   0  0  0  0  0  0  0  0  0  0  0  0
  2  1  1  6  0  0  0
  2  3  1  0  0  0  0
  2  5  1  0  0  0  0
  3  4  1  0  0  0  0
  3 16  1  0  0  0  0
  5  6  1  0  0  0  0
  6  7  1  0  0  0  0
  7  8  1  0  0  0  0
  9  8  1  6  0  0  0
  9 10  1  0  0  0  0
  9 11  1  0  0  0  0
 10 15  1  0  0  0  0
 11 12  1  1  0  0  0
 11 13  1  0  0  0  0
 13 14  1  1  0  0  0
 13 15  1  0  0  0  0
 15 26  1  6  0  0  0
 17 18  2  0  0  0  0
 17 22  1  0  0  0  0
 18 19  1  0  0  0  0
 19 20  2  0  0  0  0
 20 21  1  0  0  0  0
 20 26  1  0  0  0  0
 21 22  2  0  0  0  0
 21 24  1  0  0  0  0
 22 23  1  0  0  0  0
 24 25  2  0  0  0  0
 25 26  1  0  0  0  0
M  END
>  <CHROM.1>
167.43847343,60.66372238,177.48638487,-119.18316227,131.13092212,-60.98396694
-32.17760961,36.11803656,21.14295898,18.20054482,2.27644593,-0.04005238,2.63523674

>  <Name>
ligand

>  <RI>
0

>  <Rbt.Current_Directory>
/home/itssahil/PROJECTS/Mol_Feturizer/New_Systems/rnas/3NPQ

>  <Rbt.Executable>
rbdock ($Id: //depot/dev/client3/rdock/2013.1/src/exe/rbdock.cxx#4 $)

>  <Rbt.Library>
libRbt.so (2013.1, Build901 2013/11/27)

>  <Rbt.Parameter_File>
/export/apps/rDock/src/rDock_2013.1_src/data/scripts/dock_solv.prm

>  <Rbt.Receptor>
prm/blind_docking_100.prm

>  <SCORE>
-13.1339

>  <SCORE.INTER>
-10.8528

>  <SCORE.INTER.CONST>
1

>  <SCORE.INTER.POLAR>
0

>  <SCORE.INTER.ROT>
7

>  <SCORE.INTER.SOLV>
6.73246

>  <SCORE.INTER.VDW>
-17.746

>  <SCORE.INTER.norm>
-0.417415

>  <SCORE.INTRA>
-2.28114

>  <SCORE.INTRA.DIHEDRAL>
0.321662

>  <SCORE.INTRA.DIHEDRAL.0>
6.97628

>  <SCORE.INTRA.POLAR>
0

>  <SCORE.INTRA.POLAR.0>
0

>  <SCORE.INTRA.REPUL>
0

>  <SCORE.INTRA.REPUL.0>
0

>  <SCORE.INTRA.SOLV>
0.110066

>  <SCORE.INTRA.SOLV.lig_0>
-49.8243

>  <SCORE.INTRA.VDW>
-2.49701

>  <SCORE.INTRA.VDW.0>
-1.35881

>  <SCORE.INTRA.norm>
-0.0877362

>  <SCORE.RESTR>
0

>  <SCORE.RESTR.CAVITY>
0

>  <SCORE.RESTR.norm>
0

>  <SCORE.SYSTEM>
0

>  <SCORE.SYSTEM.CONST>
0

>  <SCORE.SYSTEM.DIHEDRAL>
0

>  <SCORE.SYSTEM.SOLV>
0

>  <SCORE.SYSTEM.norm>
0

>  <SCORE.heavy>
26

>  <SCORE.norm>
-0.505151

>  <RMSD>
14.488

$$$$
ligand
 OpenBabel11021811483D
libRbt.so/2013.1/901 2013/11/27
 26 28  0  0  0  0  0  0  0  0999 V2000
   30.9500   17.4482   19.5089 N   0  0  0  0  0  0  0  0  0  0  0  0
   31.6920   18.1565   18.4734 C   0  0  2  0  0  0  0  0  0  0  0  0
   33.1224   18.4383   18.9189 C   0  0  0  0  0  0  0  0  0  0  0  0
   34.0798   18.1143   18.2172 O   0  0  0  0  0  0  0  0  0  0  0  0
   30.9912   19.4600   18.1116 C   0  0  0  0  0  0  0  0  0  0  0  0
   31.4439   20.0637   16.7886 C   0  0  0  0  0  0  0  0  0  0  0  0
   33.1490   20.6699   16.8495 S   0  0  0  0  0  0  0  0  0  0  0  0
   32.5841   22.1864   17.6615 C   0  0  0  0  0  0  0  0  0  0  0  0
   33.7344   23.1026   18.0625 C   0  0  1  0  0  0  0  0  0  0  0  0
   34.5010   22.4958   19.0868 O   0  0  0  0  0  0  0  0  0  0  0  0
   34.6618   23.3803   16.8908 C   0  0  1  0  0  0  0  0  0  0  0  0
   34.6429   24.7528   16.5773 O   0  0  0  0  0  0  0  0  0  0  0  0
   36.0454   22.9725   17.3527 C   0  0  1  0  0  0  0  0  0  0  0  0
   36.9252   24.0697   17.2730 O   0  0  0  0  0  0  0  0  0  0  0  0
   35.8861   22.5337   18.7983 C   0  0  2  0  0  0  0  0  0  0  0  0
   33.3541   18.9974   19.9916 O   0  0  0  0  0  0  0  0  0  0  0  0
   40.0661   19.4621   17.9855 N   0  0  0  0  0  0  0  0  0  0  0  0
   39.8927   20.7796   17.6117 C   0  0  0  0  0  0  0  0  0  0  0  0
   38.7165   21.4380   17.9112 N   0  0  0  0  0  0  0  0  0  0  0  0
   37.7227   20.7963   18.5727 C   0  0  0  0  0  0  0  0  0  0  0  0
   37.8779   19.4713   18.9566 C   0  0  0  0  0  0  0  0  0  0  0  0
   39.0590   18.8017   18.6598 C   0  0  0  0  0  0  0  0  0  0  0  0
   39.2184   17.5322   19.0217 N   0  0  0  0  0  0  0  0  0  0  0  0
   36.7492   19.0872   19.5909 N   0  0  0  0  0  0  0  0  0  0  0  0
   35.8883   20.1305   19.6175 C   0  0  0  0  0  0  0  0  0  0  0  0
   36.4780   21.1974   18.9900 N   0  0  0  0  0  0  0  0  0  0  0  0
  2  1  1  1  0  0  0
  2  3  1  0  0  0  0
  2  5  1  0  0  0  0
  3  4  1  0  0  0  0
  3 16  1  0  0  0  0
  5  6  1  0  0  0  0
  6  7  1  0  0  0  0
  7  8  1  0  0  0  0
  9  8  1  6  0  0  0
  9 10  1  0  0  0  0
  9 11  1  0  0  0  0
 10 15  1  0  0  0  0
 11 12  1  1  0  0  0
 11 13  1  0  0  0  0
 13 14  1  1  0  0  0
 13 15  1  0  0  0  0
 15 26  1  6  0  0  0
 17 18  2  0  0  0  0
 17 22  1  0  0  0  0
 18 19  1  0  0  0  0
 19 20  2  0  0  0  0
 20 21  1  0  0  0  0
 20 26  1  0  0  0  0
 21 22  2  0  0  0  0
 21 24  1  0  0  0  0
 22 23  1  0  0  0  0
 24 25  2  0  0  0  0
 25 26  1  0  0  0  0
M  END
>  <CHROM.1>
127.60061745,-163.08968630,-68.31757738,-80.59165561,175.84413663,-67.26337451
167.08370352,35.19018318,20.63864326,18.20786448,-3.03596181,-0.06076029
-0.31025904

>  <Name>
ligand

>  <RI>
0

>  <Rbt.Current_Directory>
/home/itssahil/PROJECTS/Mol_Feturizer/New_Systems/rnas/3NPQ

>  <Rbt.Executable>
rbdock ($Id: //depot/dev/client3/rdock/2013.1/src/exe/rbdock.cxx#4 $)

>  <Rbt.Library>
libRbt.so (2013.1, Build901 2013/11/27)

>  <Rbt.Parameter_File>
/export/apps/rDock/src/rDock_2013.1_src/data/scripts/dock_solv.prm

>  <Rbt.Receptor>
prm/blind_docking_60.prm

>  <SCORE>
-8.40463

>  <SCORE.INTER>
-4.9502

>  <SCORE.INTER.CONST>
1

>  <SCORE.INTER.POLAR>
0

>  <SCORE.INTER.ROT>
7

>  <SCORE.INTER.SOLV>
7.8124

>  <SCORE.INTER.VDW>
-14.1709

>  <SCORE.INTER.norm>
-0.190392

>  <SCORE.INTRA>
-3.46839

>  <SCORE.INTRA.DIHEDRAL>
-2.15784

>  <SCORE.INTRA.DIHEDRAL.0>
6.97628

>  <SCORE.INTRA.POLAR>
0

>  <SCORE.INTRA.POLAR.0>
0

>  <SCORE.INTRA.REPUL>
0

>  <SCORE.INTRA.REPUL.0>
0

>  <SCORE.INTRA.SOLV>
-0.372488

>  <SCORE.INTRA.SOLV.lig_0>
-49.8243

>  <SCORE.INTRA.VDW>
-2.20322

>  <SCORE.INTRA.VDW.0>
-1.35881

>  <SCORE.INTRA.norm>
-0.1334

>  <SCORE.RESTR>
0.0139524

>  <SCORE.RESTR.CAVITY>
0.0139524

>  <SCORE.RESTR.norm>
0.000536632

>  <SCORE.SYSTEM>
0

>  <SCORE.SYSTEM.CONST>
0

>  <SCORE.SYSTEM.DIHEDRAL>
0

>  <SCORE.SYSTEM.SOLV>
0

>  <SCORE.SYSTEM.norm>
0

>  <SCORE.heavy>
26

>  <SCORE.norm>
-0.323255

>  <RMSD>
14.489

$$$$
ligand
 OpenBabel11021811483D
libRbt.so/2013.1/901 2013/11/27
 26 28  0  0  0  0  0  0  0  0999 V2000
   33.1879   17.8407   19.3192 N   0  0  0  0  0  0  0  0  0  0  0  0
   33.4160   19.2500   19.0251 C   0  0  2  0  0  0  0  0  0  0  0  0
   32.8738   20.1377   20.1395 C   0  0  0  0  0  0  0  0  0  0  0  0
   33.5939   20.9647   20.6976 O   0  0  0  0  0  0  0  0  0  0  0  0
   32.7740   19.6287   17.6964 C   0  0  0  0  0  0  0  0  0  0  0  0
   32.9943   21.0799   17.2898 C   0  0  0  0  0  0  0  0  0  0  0  0
   34.7335   21.4480   16.9459 S   0  0  0  0  0  0  0  0  0  0  0  0
   34.4600   23.1793   17.4002 C   0  0  0  0  0  0  0  0  0  0  0  0
   35.7599   23.9620   17.5448 C   0  0  1  0  0  0  0  0  0  0  0  0
   36.6467   23.2712   18.4059 O   0  0  0  0  0  0  0  0  0  0  0  0
   36.4569   24.1397   16.2058 C   0  0  1  0  0  0  0  0  0  0  0  0
   36.5242   25.5069   15.8764 O   0  0  0  0  0  0  0  0  0  0  0  0
   37.8526   23.5805   16.3885 C   0  0  1  0  0  0  0  0  0  0  0  0
   38.8120   24.5744   16.1131 O   0  0  0  0  0  0  0  0  0  0  0  0
   37.9411   23.1573   17.8448 C   0  0  2  0  0  0  0  0  0  0  0  0
   31.7018   20.0488   20.5076 O   0  0  0  0  0  0  0  0  0  0  0  0
   37.1561   18.4306   19.9917 N   0  0  0  0  0  0  0  0  0  0  0  0
   36.4219   19.5840   20.1817 C   0  0  0  0  0  0  0  0  0  0  0  0
   36.7754   20.7484   19.5290 N   0  0  0  0  0  0  0  0  0  0  0  0
   37.8463   20.7689   18.6984 C   0  0  0  0  0  0  0  0  0  0  0  0
   38.5975   19.6193   18.4949 C   0  0  0  0  0  0  0  0  0  0  0  0
   38.2478   18.4431   19.1472 C   0  0  0  0  0  0  0  0  0  0  0  0
   38.9606   17.3362   18.9606 N   0  0  0  0  0  0  0  0  0  0  0  0
   39.5915   19.9197   17.6314 N   0  0  0  0  0  0  0  0  0  0  0  0
   39.4886   21.2236   17.2856 C   0  0  0  0  0  0  0  0  0  0  0  0
   38.4110   21.7634   17.9393 N   0  0  0  0  0  0  0  0  0  0  0  0
  2  1  1  1  0  0  0
  2  3  1  0  0  0  0
  2  5  1  0  0  0  0
  3  4  1  0  0  0  0
  3 16  1  0  0  0  0
  5  6  1  0  0  0  0
  6  7  1  0  0  0  0
  7  8  1  0  0  0  0
  9  8  1  6  0  0  0
  9 10  1  0  0  0  0
  9 11  1  0  0  0  0
 10 15  1  0  0  0  0
 11 12  1  1  0  0  0
 11 13  1  0  0  0  0
 13 14  1  1  0  0  0
 13 15  1  0  0  0  0
 15 26  1  6  0  0  0
 17 18  2  0  0  0  0
 17 22  1  0  0  0  0
 18 19  1  0  0  0  0
 19 20  2  0  0  0  0
 20 21  1  0  0  0  0
 20 26  1  0  0  0  0
 21 22  2  0  0  0  0
 21 24  1  0  0  0  0
 22 23  1  0  0  0  0
 24 25  2  0  0  0  0
 25 26  1  0  0  0  0
M  END
>  <CHROM.1>
125.51493811,-178.46797809,65.81579909,-152.80977502,168.78546753,-51.46423554
-13.22747448,36.07570443,21.21511399,18.20489576,-2.30046062,0.12238017,-0.48076950

>  <Name>
ligand

>  <RI>
0

>  <Rbt.Current_Directory>
/home/itssahil/PROJECTS/Mol_Feturizer/New_Systems/rnas/3NPQ

>  <Rbt.Executable>
rbdock ($Id: //depot/dev/client3/rdock/2013.1/src/exe/rbdock.cxx#4 $)

>  <Rbt.Library>
libRbt.so (2013.1, Build901 2013/11/27)

>  <Rbt.Parameter_File>
/export/apps/rDock/src/rDock_2013.1_src/data/scripts/dock_solv.prm

>  <Rbt.Receptor>
prm/blind_docking_80.prm

>  <SCORE>
-13.3934

>  <SCORE.INTER>
-8.80479

>  <SCORE.INTER.CONST>
1

>  <SCORE.INTER.POLAR>
0

>  <SCORE.INTER.ROT>
7

>  <SCORE.INTER.SOLV>
6.37754

>  <SCORE.INTER.VDW>
-16.2624

>  <SCORE.INTER.norm>
-0.338646

>  <SCORE.INTRA>
-4.5886

>  <SCORE.INTRA.DIHEDRAL>
-2.68794

>  <SCORE.INTRA.DIHEDRAL.0>
6.97628

>  <SCORE.INTRA.POLAR>
0

>  <SCORE.INTRA.POLAR.0>
0

>  <SCORE.INTRA.REPUL>
0

>  <SCORE.INTRA.REPUL.0>
0

>  <SCORE.INTRA.SOLV>
-0.290513

>  <SCORE.INTRA.SOLV.lig_0>
-49.8243

>  <SCORE.INTRA.VDW>
-3.09937

>  <SCORE.INTRA.VDW.0>
-1.35881

>  <SCORE.INTRA.norm>
-0.176484

>  <SCORE.RESTR>
0

>  <SCORE.RESTR.CAVITY>
0

>  <SCORE.RESTR.norm>
0

>  <SCORE.SYSTEM>
0

>  <SCORE.SYSTEM.CONST>
0

>  <SCORE.SYSTEM.DIHEDRAL>
0

>  <SCORE.SYSTEM.SOLV>
0

>  <SCORE.SYSTEM.norm>
0

>  <SCORE.heavy>
26

>  <SCORE.norm>
-0.51513

>  <RMSD>
14.491

$$$$
ligand
 OpenBabel11021811483D
libRbt.so/2013.1/901 2013/11/27
 26 28  0  0  0  0  0  0  0  0999 V2000
   37.2658   -0.8880    7.8414 N   0  0  0  0  0  0  0  0  0  0  0  0
   36.4658    0.3304    7.8228 C   0  0  2  0  0  0  0  0  0  0  0  0
   35.6759    0.4879    9.1171 C   0  0  0  0  0  0  0  0  0  0  0  0
   36.1736    1.0351   10.1002 O   0  0  0  0  0  0  0  0  0  0  0  0
   35.5185    0.3286    6.6295 C   0  0  0  0  0  0  0  0  0  0  0  0
   34.7387    1.6248    6.4520 C   0  0  0  0  0  0  0  0  0  0  0  0
   33.6755    1.6000    4.9865 S   0  0  0  0  0  0  0  0  0  0  0  0
   33.2494    3.3380    5.2625 C   0  0  0  0  0  0  0  0  0  0  0  0
   32.2972    3.5311    6.4369 C   0  0  1  0  0  0  0  0  0  0  0  0
   32.4412    4.8365    6.9662 O   0  0  0  0  0  0  0  0  0  0  0  0
   30.8473    3.3583    6.0147 C   0  0  1  0  0  0  0  0  0  0  0  0
   30.2804    2.2555    6.6815 O   0  0  0  0  0  0  0  0  0  0  0  0
   30.1416    4.6333    6.4275 C   0  0  1  0  0  0  0  0  0  0  0  0
   29.0830    4.3371    7.3083 O   0  0  0  0  0  0  0  0  0  0  0  0
   31.1896    5.4759    7.1340 C   0  0  2  0  0  0  0  0  0  0  0  0
   34.5204    0.0716    9.2095 O   0  0  0  0  0  0  0  0  0  0  0  0
   28.4336    9.3362    4.8824 N   0  0  0  0  0  0  0  0  0  0  0  0
   27.9767    8.1115    5.3261 C   0  0  0  0  0  0  0  0  0  0  0  0
   28.8512    7.2095    5.8993 N   0  0  0  0  0  0  0  0  0  0  0  0
   30.1644    7.5183    6.0295 C   0  0  0  0  0  0  0  0  0  0  0  0
   30.6431    8.7446    5.5888 C   0  0  0  0  0  0  0  0  0  0  0  0
   29.7695    9.6583    5.0116 C   0  0  0  0  0  0  0  0  0  0  0  0
   30.2169   10.8356    4.5850 N   0  0  0  0  0  0  0  0  0  0  0  0
   31.9696    8.7874    5.8389 N   0  0  0  0  0  0  0  0  0  0  0  0
   32.3401    7.6249    6.4234 C   0  0  0  0  0  0  0  0  0  0  0  0
   31.2314    6.8279    6.5483 N   0  0  0  0  0  0  0  0  0  0  0  0
  2  1  1  1  0  0  0
  2  3  1  0  0  0  0
  2  5  1  0  0  0  0
  3  4  1  0  0  0  0
  3 16  1  0  0  0  0
  5  6  1  0  0  0  0
  6  7  1  0  0  0  0
  7  8  1  0  0  0  0
  9  8  1  6  0  0  0
  9 10  1  0  0  0  0
  9 11  1  0  0  0  0
 10 15  1  0  0  0  0
 11 12  1  1  0  0  0
 11 13  1  0  0  0  0
 13 14  1  1  0  0  0
 13 15  1  0  0  0  0
 15 26  1  6  0  0  0
 17 18  2  0  0  0  0
 17 22  1  0  0  0  0
 18 19  1  0  0  0  0
 19 20  2  0  0  0  0
 20 21  1  0  0  0  0
 20 26  1  0  0  0  0
 21 22  2  0  0  0  0
 21 24  1  0  0  0  0
 22 23  1  0  0  0  0
 24 25  2  0  0  0  0
 25 26  1  0  0  0  0
M  END
>  <CHROM.1>
86.72081496,-174.33006393,177.77040371,-174.25697673,-73.68194928,155.05992647
151.65256788,32.23859555,4.38990455,6.52971967,-0.96026799,-0.18016401,-0.14969955

>  <Name>
ligand

>  <RI>
0

>  <Rbt.Current_Directory>
/home/itssahil/PROJECTS/Mol_Feturizer/New_Systems/rnas/3NPQ

>  <Rbt.Executable>
rbdock ($Id: //depot/dev/client3/rdock/2013.1/src/exe/rbdock.cxx#4 $)

>  <Rbt.Library>
libRbt.so (2013.1, Build901 2013/11/27)

>  <Rbt.Parameter_File>
/export/apps/rDock/src/rDock_2013.1_src/data/scripts/dock_solv.prm

>  <Rbt.Receptor>
prm/blind_docking_40.prm

>  <SCORE>
-13.8225

>  <SCORE.INTER>
-12.6661

>  <SCORE.INTER.CONST>
1

>  <SCORE.INTER.POLAR>
0

>  <SCORE.INTER.ROT>
7

>  <SCORE.INTER.SOLV>
9.07014

>  <SCORE.INTER.VDW>
-19.7341

>  <SCORE.INTER.norm>
-0.487159

>  <SCORE.INTRA>
-1.15638

>  <SCORE.INTRA.DIHEDRAL>
-1.87803

>  <SCORE.INTRA.DIHEDRAL.0>
6.97628

>  <SCORE.INTRA.POLAR>
0

>  <SCORE.INTRA.POLAR.0>
0

>  <SCORE.INTRA.REPUL>
0

>  <SCORE.INTRA.REPUL.0>
0

>  <SCORE.INTRA.SOLV>
-0.748001

>  <SCORE.INTRA.SOLV.lig_0>
-49.8243

>  <SCORE.INTRA.VDW>
0.156636

>  <SCORE.INTRA.VDW.0>
-1.35881

>  <SCORE.INTRA.norm>
-0.0444761

>  <SCORE.RESTR>
0

>  <SCORE.RESTR.CAVITY>
0

>  <SCORE.RESTR.norm>
0

>  <SCORE.SYSTEM>
0

>  <SCORE.SYSTEM.CONST>
0

>  <SCORE.SYSTEM.DIHEDRAL>
0

>  <SCORE.SYSTEM.SOLV>
0

>  <SCORE.SYSTEM.norm>
0

>  <SCORE.heavy>
26

>  <SCORE.norm>
-0.531635

>  <RMSD>
14.519

$$$$
ligand
 OpenBabel11021811483D
libRbt.so/2013.1/901 2013/11/27
 26 28  0  0  0  0  0  0  0  0999 V2000
   39.4874   26.0464   17.4551 N   0  0  0  0  0  0  0  0  0  0  0  0
   39.3299   24.6007   17.3565 C   0  0  2  0  0  0  0  0  0  0  0  0
   40.1477   24.0373   16.1999 C   0  0  0  0  0  0  0  0  0  0  0  0
   40.9875   23.1578   16.3873 O   0  0  0  0  0  0  0  0  0  0  0  0
   37.8611   24.2343   17.1850 C   0  0  0  0  0  0  0  0  0  0  0  0
   37.5799   22.7392   17.2578 C   0  0  0  0  0  0  0  0  0  0  0  0
   38.1173   22.0072   18.8242 S   0  0  0  0  0  0  0  0  0  0  0  0
   38.3591   20.4133   18.0000 C   0  0  0  0  0  0  0  0  0  0  0  0
   38.2474   19.2327   18.9577 C   0  0  1  0  0  0  0  0  0  0  0  0
   37.0152   19.2895   19.6530 O   0  0  0  0  0  0  0  0  0  0  0  0
   38.3025   17.9062   18.2178 C   0  0  1  0  0  0  0  0  0  0  0  0
   39.4418   17.1807   18.6155 O   0  0  0  0  0  0  0  0  0  0  0  0
   37.0465   17.1587   18.6147 C   0  0  1  0  0  0  0  0  0  0  0  0
   37.3838   15.9264   19.2082 O   0  0  0  0  0  0  0  0  0  0  0  0
   36.3372   18.0475   19.6219 C   0  0  2  0  0  0  0  0  0  0  0  0
   39.9872   24.4486   15.0502 O   0  0  0  0  0  0  0  0  0  0  0  0
   33.0473   20.5732   16.4025 N   0  0  0  0  0  0  0  0  0  0  0  0
   34.4223   20.6770   16.4665 C   0  0  0  0  0  0  0  0  0  0  0  0
   35.1337   19.9299   17.3844 N   0  0  0  0  0  0  0  0  0  0  0  0
   34.4883   19.0905   18.2304 C   0  0  0  0  0  0  0  0  0  0  0  0
   33.1059   18.9727   18.1818 C   0  0  0  0  0  0  0  0  0  0  0  0
   32.3826   19.7204   17.2604 C   0  0  0  0  0  0  0  0  0  0  0  0
   31.0581   19.6164   17.2054 N   0  0  0  0  0  0  0  0  0  0  0  0
   32.7315   18.0788   19.1224 N   0  0  0  0  0  0  0  0  0  0  0  0
   33.8365   17.6306   19.7614 C   0  0  0  0  0  0  0  0  0  0  0  0
   34.9336   18.2489   19.2193 N   0  0  0  0  0  0  0  0  0  0  0  0
  2  1  1  6  0  0  0
  2  3  1  0  0  0  0
  2  5  1  0  0  0  0
  3  4  1  0  0  0  0
  3 16  1  0  0  0  0
  5  6  1  0  0  0  0
  6  7  1  0  0  0  0
  7  8  1  0  0  0  0
  9  8  1  6  0  0  0
  9 10  1  0  0  0  0
  9 11  1  0  0  0  0
 10 15  1  0  0  0  0
 11 12  1  1  0  0  0
 11 13  1  0  0  0  0
 13 14  1  1  0  0  0
 13 15  1  0  0  0  0
 15 26  1  6  0  0  0
 17 18  2  0  0  0  0
 17 22  1  0  0  0  0
 18 19  1  0  0  0  0
 19 20  2  0  0  0  0
 20 21  1  0  0  0  0
 20 26  1  0  0  0  0
 21 22  2  0  0  0  0
 21 24  1  0  0  0  0
 22 23  1  0  0  0  0
 24 25  2  0  0  0  0
 25 26  1  0  0  0  0
M  END
>  <CHROM.1>
123.34773029,-172.32825713,58.29085786,-152.21143616,-154.73695372,54.23515396
41.50341162,36.74815942,20.43885876,17.95597265,0.83809296,-0.10472750,-0.37579400

>  <Name>
ligand

>  <RI>
0

>  <Rbt.Current_Directory>
/home/itssahil/PROJECTS/Mol_Feturizer/New_Systems/rnas/3NPQ

>  <Rbt.Executable>
rbdock ($Id: //depot/dev/client3/rdock/2013.1/src/exe/rbdock.cxx#4 $)

>  <Rbt.Library>
libRbt.so (2013.1, Build901 2013/11/27)

>  <Rbt.Parameter_File>
/export/apps/rDock/src/rDock_2013.1_src/data/scripts/dock_solv.prm

>  <Rbt.Receptor>
prm/blind_docking_80.prm

>  <SCORE>
-9.33702

>  <SCORE.INTER>
-5.75685

>  <SCORE.INTER.CONST>
1

>  <SCORE.INTER.POLAR>
0

>  <SCORE.INTER.ROT>
7

>  <SCORE.INTER.SOLV>
8.96516

>  <SCORE.INTER.VDW>
-15.093

>  <SCORE.INTER.norm>
-0.221417

>  <SCORE.INTRA>
-3.58017

>  <SCORE.INTRA.DIHEDRAL>
-1.99405

>  <SCORE.INTRA.DIHEDRAL.0>
6.97628

>  <SCORE.INTRA.POLAR>
0

>  <SCORE.INTRA.POLAR.0>
0

>  <SCORE.INTRA.REPUL>
0

>  <SCORE.INTRA.REPUL.0>
0

>  <SCORE.INTRA.SOLV>
-0.651008

>  <SCORE.INTRA.SOLV.lig_0>
-49.8243

>  <SCORE.INTRA.VDW>
-2.25764

>  <SCORE.INTRA.VDW.0>
-1.35881

>  <SCORE.INTRA.norm>
-0.137699

>  <SCORE.RESTR>
0

>  <SCORE.RESTR.CAVITY>
0

>  <SCORE.RESTR.norm>
0

>  <SCORE.SYSTEM>
0

>  <SCORE.SYSTEM.CONST>
0

>  <SCORE.SYSTEM.DIHEDRAL>
0

>  <SCORE.SYSTEM.SOLV>
0

>  <SCORE.SYSTEM.norm>
0

>  <SCORE.heavy>
26

>  <SCORE.norm>
-0.359116

>  <RMSD>
14.523

$$$$
ligand
 OpenBabel11021811483D
libRbt.so/2013.1/901 2013/11/27
 26 28  0  0  0  0  0  0  0  0999 V2000
   35.6609   24.4765   17.3623 N   0  0  0  0  0  0  0  0  0  0  0  0
   36.2858   23.7586   16.2584 C   0  0  2  0  0  0  0  0  0  0  0  0
   35.5563   22.4511   15.9714 C   0  0  0  0  0  0  0  0  0  0  0  0
   35.1503   22.1875   14.8402 O   0  0  0  0  0  0  0  0  0  0  0  0
   37.7526   23.4823   16.5637 C   0  0  0  0  0  0  0  0  0  0  0  0
   37.9960   22.8487   17.9272 C   0  0  0  0  0  0  0  0  0  0  0  0
   39.7221   22.3564   18.1657 S   0  0  0  0  0  0  0  0  0  0  0  0
   39.3435   20.7064   17.5235 C   0  0  0  0  0  0  0  0  0  0  0  0
   39.0286   19.7034   18.6272 C   0  0  1  0  0  0  0  0  0  0  0  0
   37.9801   20.1950   19.4421 O   0  0  0  0  0  0  0  0  0  0  0  0
   38.5855   18.3660   18.0567 C   0  0  1  0  0  0  0  0  0  0  0  0
   39.5064   17.3624   18.4131 O   0  0  0  0  0  0  0  0  0  0  0  0
   37.2358   18.0772   18.6802 C   0  0  1  0  0  0  0  0  0  0  0  0
   37.2780   16.8562   19.3815 O   0  0  0  0  0  0  0  0  0  0  0  0
   36.9703   19.2234   19.6411 C   0  0  2  0  0  0  0  0  0  0  0  0
   35.3562   21.6272   16.8647 O   0  0  0  0  0  0  0  0  0  0  0  0
   32.0939   18.3640   17.8950 N   0  0  0  0  0  0  0  0  0  0  0  0
   33.1346   17.4622   17.9909 C   0  0  0  0  0  0  0  0  0  0  0  0
   34.3617   17.8663   18.4785 N   0  0  0  0  0  0  0  0  0  0  0  0
   34.5548   19.1509   18.8651 C   0  0  0  0  0  0  0  0  0  0  0  0
   33.5206   20.0727   18.7758 C   0  0  0  0  0  0  0  0  0  0  0  0
   32.2823   19.6739   18.2870 C   0  0  0  0  0  0  0  0  0  0  0  0
   31.2847   20.5484   18.1961 N   0  0  0  0  0  0  0  0  0  0  0  0
   33.9826   21.2605   19.2227 N   0  0  0  0  0  0  0  0  0  0  0  0
   35.2763   21.1139   19.5903 C   0  0  0  0  0  0  0  0  0  0  0  0
   35.6452   19.8112   19.3744 N   0  0  0  0  0  0  0  0  0  0  0  0
  2  1  1  1  0  0  0
  2  3  1  0  0  0  0
  2  5  1  0  0  0  0
  3  4  1  0  0  0  0
  3 16  1  0  0  0  0
  5  6  1  0  0  0  0
  6  7  1  0  0  0  0
  7  8  1  0  0  0  0
  9  8  1  6  0  0  0
  9 10  1  0  0  0  0
  9 11  1  0  0  0  0
 10 15  1  0  0  0  0
 11 12  1  1  0  0  0
 11 13  1  0  0  0  0
 13 14  1  1  0  0  0
 13 15  1  0  0  0  0
 15 26  1  6  0  0  0
 17 18  2  0  0  0  0
 17 22  1  0  0  0  0
 18 19  1  0  0  0  0
 19 20  2  0  0  0  0
 20 21  1  0  0  0  0
 20 26  1  0  0  0  0
 21 22  2  0  0  0  0
 21 24  1  0  0  0  0
 22 23  1  0  0  0  0
 24 25  2  0  0  0  0
 25 26  1  0  0  0  0
M  END
>  <CHROM.1>
126.44115774,50.14883505,173.09351139,-91.70537667,-94.76732397,54.99377768
147.90441836,36.23115822,20.44295009,18.08040893,0.39875559,-0.06744125,-0.37377731

>  <Name>
ligand

>  <RI>
0

>  <Rbt.Current_Directory>
/home/itssahil/PROJECTS/Mol_Feturizer/New_Systems/rnas/3NPQ

>  <Rbt.Executable>
rbdock ($Id: //depot/dev/client3/rdock/2013.1/src/exe/rbdock.cxx#4 $)

>  <Rbt.Library>
libRbt.so (2013.1, Build901 2013/11/27)

>  <Rbt.Parameter_File>
/export/apps/rDock/src/rDock_2013.1_src/data/scripts/dock_solv.prm

>  <Rbt.Receptor>
prm/blind_docking_80.prm

>  <SCORE>
-9.09536

>  <SCORE.INTER>
-6.8822

>  <SCORE.INTER.CONST>
1

>  <SCORE.INTER.POLAR>
0

>  <SCORE.INTER.ROT>
7

>  <SCORE.INTER.SOLV>
8.62684

>  <SCORE.INTER.VDW>
-15.7304

>  <SCORE.INTER.norm>
-0.2647

>  <SCORE.INTRA>
-2.22365

>  <SCORE.INTRA.DIHEDRAL>
-0.847019

>  <SCORE.INTRA.DIHEDRAL.0>
6.97628

>  <SCORE.INTRA.POLAR>
0

>  <SCORE.INTRA.POLAR.0>
0

>  <SCORE.INTRA.REPUL>
0

>  <SCORE.INTRA.REPUL.0>
0

>  <SCORE.INTRA.SOLV>
0.0455052

>  <SCORE.INTRA.SOLV.lig_0>
-49.8243

>  <SCORE.INTRA.VDW>
-1.82289

>  <SCORE.INTRA.VDW.0>
-1.35881

>  <SCORE.INTRA.norm>
-0.0855249

>  <SCORE.RESTR>
0.0104846

>  <SCORE.RESTR.CAVITY>
0.0104846

>  <SCORE.RESTR.norm>
0.000403253

>  <SCORE.SYSTEM>
0

>  <SCORE.SYSTEM.CONST>
0

>  <SCORE.SYSTEM.DIHEDRAL>
0

>  <SCORE.SYSTEM.SOLV>
0

>  <SCORE.SYSTEM.norm>
0

>  <SCORE.heavy>
26

>  <SCORE.norm>
-0.349822

>  <RMSD>
14.556

$$$$
ligand
 OpenBabel11021811483D
libRbt.so/2013.1/901 2013/11/27
 26 28  0  0  0  0  0  0  0  0999 V2000
   39.0032   26.5134   16.0585 N   0  0  0  0  0  0  0  0  0  0  0  0
   38.3481   25.4442   16.8017 C   0  0  2  0  0  0  0  0  0  0  0  0
   38.9352   24.0848   16.4395 C   0  0  0  0  0  0  0  0  0  0  0  0
   38.7898   23.6119   15.3130 O   0  0  0  0  0  0  0  0  0  0  0  0
   36.8477   25.4524   16.5377 C   0  0  0  0  0  0  0  0  0  0  0  0
   36.0340   24.6499   17.5444 C   0  0  0  0  0  0  0  0  0  0  0  0
   36.2563   22.8634   17.3503 S   0  0  0  0  0  0  0  0  0  0  0  0
   37.2834   22.8261   18.8408 C   0  0  0  0  0  0  0  0  0  0  0  0
   37.8208   21.4337   19.1504 C   0  0  1  0  0  0  0  0  0  0  0  0
   36.8332   20.6728   19.8219 O   0  0  0  0  0  0  0  0  0  0  0  0
   38.2000   20.6866   17.8822 C   0  0  1  0  0  0  0  0  0  0  0  0
   39.5828   20.4215   17.8755 O   0  0  0  0  0  0  0  0  0  0  0  0
   37.4226   19.3873   17.9194 C   0  0  1  0  0  0  0  0  0  0  0  0
   38.3075   18.2923   17.8716 O   0  0  0  0  0  0  0  0  0  0  0  0
   36.6692   19.3938   19.2385 C   0  0  2  0  0  0  0  0  0  0  0  0
   39.5695   23.4275   17.2656 O   0  0  0  0  0  0  0  0  0  0  0  0
   32.4747   20.4105   16.2485 N   0  0  0  0  0  0  0  0  0  0  0  0
   33.7531   20.9156   16.1211 C   0  0  0  0  0  0  0  0  0  0  0  0
   34.7424   20.5345   17.0059 N   0  0  0  0  0  0  0  0  0  0  0  0
   34.4663   19.6635   18.0069 C   0  0  0  0  0  0  0  0  0  0  0  0
   33.1867   19.1451   18.1518 C   0  0  0  0  0  0  0  0  0  0  0  0
   32.1856   19.5228   17.2650 C   0  0  0  0  0  0  0  0  0  0  0  0
   30.9560   19.0333   17.3948 N   0  0  0  0  0  0  0  0  0  0  0  0
   33.1931   18.3132   19.2158 N   0  0  0  0  0  0  0  0  0  0  0  0
   34.4381   18.2928   19.7448 C   0  0  0  0  0  0  0  0  0  0  0  0
   35.2387   19.1251   19.0058 N   0  0  0  0  0  0  0  0  0  0  0  0
  2  1  1  6  0  0  0
  2  3  1  0  0  0  0
  2  5  1  0  0  0  0
  3  4  1  0  0  0  0
  3 16  1  0  0  0  0
  5  6  1  0  0  0  0
  6  7  1  0  0  0  0
  7  8  1  0  0  0  0
  9  8  1  6  0  0  0
  9 10  1  0  0  0  0
  9 11  1  0  0  0  0
 10 15  1  0  0  0  0
 11 12  1  1  0  0  0
 11 13  1  0  0  0  0
 13 14  1  1  0  0  0
 13 15  1  0  0  0  0
 15 26  1  6  0  0  0
 17 18  2  0  0  0  0
 17 22  1  0  0  0  0
 18 19  1  0  0  0  0
 19 20  2  0  0  0  0
 20 21  1  0  0  0  0
 20 26  1  0  0  0  0
 21 22  2  0  0  0  0
 21 24  1  0  0  0  0
 22 23  1  0  0  0  0
 24 25  2  0  0  0  0
 25 26  1  0  0  0  0
M  END
>  <CHROM.1>
-66.64609109,-163.70094401,-71.72551726,105.79354932,-178.38143611,-81.65129099
75.42938552,36.27703140,21.42039357,17.67244628,0.81394123,-0.17665634,-0.41272677

>  <Name>
ligand

>  <RI>
0

>  <Rbt.Current_Directory>
/home/itssahil/PROJECTS/Mol_Feturizer/New_Systems/rnas/3NPQ

>  <Rbt.Executable>
rbdock ($Id: //depot/dev/client3/rdock/2013.1/src/exe/rbdock.cxx#4 $)

>  <Rbt.Library>
libRbt.so (2013.1, Build901 2013/11/27)

>  <Rbt.Parameter_File>
/export/apps/rDock/src/rDock_2013.1_src/data/scripts/dock_solv.prm

>  <Rbt.Receptor>
prm/blind_docking_100.prm

>  <SCORE>
-7.18301

>  <SCORE.INTER>
-5.79021

>  <SCORE.INTER.CONST>
1

>  <SCORE.INTER.POLAR>
0

>  <SCORE.INTER.ROT>
7

>  <SCORE.INTER.SOLV>
6.32609

>  <SCORE.INTER.VDW>
-14.2355

>  <SCORE.INTER.norm>
-0.2227

>  <SCORE.INTRA>
-1.3928

>  <SCORE.INTRA.DIHEDRAL>
0.779667

>  <SCORE.INTRA.DIHEDRAL.0>
6.97628

>  <SCORE.INTRA.POLAR>
0

>  <SCORE.INTRA.POLAR.0>
0

>  <SCORE.INTRA.REPUL>
0

>  <SCORE.INTRA.REPUL.0>
0

>  <SCORE.INTRA.SOLV>
-0.222424

>  <SCORE.INTRA.SOLV.lig_0>
-49.8243

>  <SCORE.INTRA.VDW>
-1.67142

>  <SCORE.INTRA.VDW.0>
-1.35881

>  <SCORE.INTRA.norm>
-0.0535693

>  <SCORE.RESTR>
0

>  <SCORE.RESTR.CAVITY>
0

>  <SCORE.RESTR.norm>
0

>  <SCORE.SYSTEM>
0

>  <SCORE.SYSTEM.CONST>
0

>  <SCORE.SYSTEM.DIHEDRAL>
0

>  <SCORE.SYSTEM.SOLV>
0

>  <SCORE.SYSTEM.norm>
0

>  <SCORE.heavy>
26

>  <SCORE.norm>
-0.27627

>  <RMSD>
14.565

$$$$
ligand
 OpenBabel11021811483D
libRbt.so/2013.1/901 2013/11/27
 26 28  0  0  0  0  0  0  0  0999 V2000
   36.7249   24.6124   17.8520 N   0  0  0  0  0  0  0  0  0  0  0  0
   37.4174   23.3347   17.7411 C   0  0  2  0  0  0  0  0  0  0  0  0
   38.4069   23.3459   16.5814 C   0  0  0  0  0  0  0  0  0  0  0  0
   38.0894   23.7987   15.4823 O   0  0  0  0  0  0  0  0  0  0  0  0
   36.4173   22.1991   17.5634 C   0  0  0  0  0  0  0  0  0  0  0  0
   35.4250   22.4154   16.4284 C   0  0  0  0  0  0  0  0  0  0  0  0
   34.3376   20.9899   16.1759 S   0  0  0  0  0  0  0  0  0  0  0  0
   33.5761   21.2804   17.7927 C   0  0  0  0  0  0  0  0  0  0  0  0
   32.6810   20.1295   18.2369 C   0  0  1  0  0  0  0  0  0  0  0  0
   33.3263   18.8931   17.9919 O   0  0  0  0  0  0  0  0  0  0  0  0
   32.3704   20.2049   19.7229 C   0  0  1  0  0  0  0  0  0  0  0  0
   30.9882   20.3901   19.9165 O   0  0  0  0  0  0  0  0  0  0  0  0
   32.8022   18.8743   20.3037 C   0  0  1  0  0  0  0  0  0  0  0  0
   31.7085   18.2395   20.9244 O   0  0  0  0  0  0  0  0  0  0  0  0
   33.2876   18.0470   19.1259 C   0  0  2  0  0  0  0  0  0  0  0  0
   39.5479   22.9025   16.7170 O   0  0  0  0  0  0  0  0  0  0  0  0
   38.4397   18.5458   18.2461 N   0  0  0  0  0  0  0  0  0  0  0  0
   37.4126   19.3233   17.7501 C   0  0  0  0  0  0  0  0  0  0  0  0
   36.1035   19.0449   18.0901 N   0  0  0  0  0  0  0  0  0  0  0  0
   35.8164   18.0058   18.9115 C   0  0  0  0  0  0  0  0  0  0  0  0
   36.8354   17.2120   19.4200 C   0  0  0  0  0  0  0  0  0  0  0  0
   38.1556   17.4860   19.0835 C   0  0  0  0  0  0  0  0  0  0  0  0
   39.1398   16.7319   19.5638 N   0  0  0  0  0  0  0  0  0  0  0  0
   36.2736   16.2632   20.1998 N   0  0  0  0  0  0  0  0  0  0  0  0
   34.9318   16.4359   20.1971 C   0  0  0  0  0  0  0  0  0  0  0  0
   34.6332   17.5127   19.4027 N   0  0  0  0  0  0  0  0  0  0  0  0
  2  1  1  6  0  0  0
  2  3  1  0  0  0  0
  2  5  1  0  0  0  0
  3  4  1  0  0  0  0
  3 16  1  0  0  0  0
  5  6  1  0  0  0  0
  6  7  1  0  0  0  0
  7  8  1  0  0  0  0
  9  8  1  1  0  0  0
  9 10  1  0  0  0  0
  9 11  1  0  0  0  0
 10 15  1  0  0  0  0
 11 12  1  6  0  0  0
 11 13  1  0  0  0  0
 13 14  1  6  0  0  0
 13 15  1  0  0  0  0
 15 26  1  1  0  0  0
 17 18  2  0  0  0  0
 17 22  1  0  0  0  0
 18 19  1  0  0  0  0
 19 20  2  0  0  0  0
 20 21  1  0  0  0  0
 20 26  1  0  0  0  0
 21 22  2  0  0  0  0
 21 24  1  0  0  0  0
 22 23  1  0  0  0  0
 24 25  2  0  0  0  0
 25 26  1  0  0  0  0
M  END
>  <CHROM.1>
-45.31953112,52.49197154,175.74584423,66.42746766,-169.12052083,44.53884399
16.78799634,35.47065896,19.97125379,18.30936948,0.96062847,0.16270326,-0.44763025

>  <Name>
ligand

>  <RI>
0

>  <Rbt.Current_Directory>
/home/itssahil/PROJECTS/Mol_Feturizer/New_Systems/rnas/3NPQ

>  <Rbt.Executable>
rbdock ($Id: //depot/dev/client3/rdock/2013.1/src/exe/rbdock.cxx#4 $)

>  <Rbt.Library>
libRbt.so (2013.1, Build901 2013/11/27)

>  <Rbt.Parameter_File>
/export/apps/rDock/src/rDock_2013.1_src/data/scripts/dock_solv.prm

>  <Rbt.Receptor>
prm/blind_docking_80.prm

>  <SCORE>
-9.9173

>  <SCORE.INTER>
-7.61969

>  <SCORE.INTER.CONST>
1

>  <SCORE.INTER.POLAR>
0

>  <SCORE.INTER.ROT>
7

>  <SCORE.INTER.SOLV>
5.79522

>  <SCORE.INTER.VDW>
-15.2782

>  <SCORE.INTER.norm>
-0.293065

>  <SCORE.INTRA>
-2.29761

>  <SCORE.INTRA.DIHEDRAL>
-2.93517

>  <SCORE.INTRA.DIHEDRAL.0>
6.97628

>  <SCORE.INTRA.POLAR>
0

>  <SCORE.INTRA.POLAR.0>
0

>  <SCORE.INTRA.REPUL>
0

>  <SCORE.INTRA.REPUL.0>
0

>  <SCORE.INTRA.SOLV>
0.032109

>  <SCORE.INTRA.SOLV.lig_0>
-49.8243

>  <SCORE.INTRA.VDW>
-0.846075

>  <SCORE.INTRA.VDW.0>
-1.35881

>  <SCORE.INTRA.norm>
-0.0883695

>  <SCORE.RESTR>
0

>  <SCORE.RESTR.CAVITY>
0

>  <SCORE.RESTR.norm>
0

>  <SCORE.SYSTEM>
0

>  <SCORE.SYSTEM.CONST>
0

>  <SCORE.SYSTEM.DIHEDRAL>
0

>  <SCORE.SYSTEM.SOLV>
0

>  <SCORE.SYSTEM.norm>
0

>  <SCORE.heavy>
26

>  <SCORE.norm>
-0.381435

>  <RMSD>
14.569

$$$$
ligand
 OpenBabel11021811483D
libRbt.so/2013.1/901 2013/11/27
 26 28  0  0  0  0  0  0  0  0999 V2000
   38.1588   24.2487   17.6774 N   0  0  0  0  0  0  0  0  0  0  0  0
   36.8174   23.8120   18.0443 C   0  0  2  0  0  0  0  0  0  0  0  0
   36.8529   22.8935   19.2605 C   0  0  0  0  0  0  0  0  0  0  0  0
   37.8362   22.8586   19.9992 O   0  0  0  0  0  0  0  0  0  0  0  0
   36.1481   23.1030   16.8736 C   0  0  0  0  0  0  0  0  0  0  0  0
   34.6924   23.4956   16.6579 C   0  0  0  0  0  0  0  0  0  0  0  0
   33.5978   22.8345   17.9398 S   0  0  0  0  0  0  0  0  0  0  0  0
   33.8595   21.1596   17.3039 C   0  0  0  0  0  0  0  0  0  0  0  0
   33.1169   20.1011   18.1110 C   0  0  1  0  0  0  0  0  0  0  0  0
   33.6010   18.8125   17.7791 O   0  0  0  0  0  0  0  0  0  0  0  0
   33.3113   20.2997   19.6053 C   0  0  1  0  0  0  0  0  0  0  0  0
   32.0757   20.5846   20.2173 O   0  0  0  0  0  0  0  0  0  0  0  0
   33.8598   18.9886   20.1289 C   0  0  1  0  0  0  0  0  0  0  0  0
   33.0062   18.4688   21.1215 O   0  0  0  0  0  0  0  0  0  0  0  0
   33.9036   18.0520   18.9338 C   0  0  2  0  0  0  0  0  0  0  0  0
   35.8981   22.1649   19.5331 O   0  0  0  0  0  0  0  0  0  0  0  0
   39.0706   18.9553   18.7026 N   0  0  0  0  0  0  0  0  0  0  0  0
   38.0508   19.8763   18.8339 C   0  0  0  0  0  0  0  0  0  0  0  0
   36.7361   19.4561   18.8782 N   0  0  0  0  0  0  0  0  0  0  0  0
   36.4363   18.1372   18.7914 C   0  0  0  0  0  0  0  0  0  0  0  0
   37.4479   17.1958   18.6584 C   0  0  0  0  0  0  0  0  0  0  0  0
   38.7736   17.6103   18.6140 C   0  0  0  0  0  0  0  0  0  0  0  0
   39.7506   16.7175   18.4858 N   0  0  0  0  0  0  0  0  0  0  0  0
   36.8739   15.9748   18.5960 N   0  0  0  0  0  0  0  0  0  0  0  0
   35.5318   16.1197   18.6855 C   0  0  0  0  0  0  0  0  0  0  0  0
   35.2453   17.4550   18.8072 N   0  0  0  0  0  0  0  0  0  0  0  0
  2  1  1  6  0  0  0
  2  3  1  0  0  0  0
  2  5  1  0  0  0  0
  3  4  1  0  0  0  0
  3 16  1  0  0  0  0
  5  6  1  0  0  0  0
  6  7  1  0  0  0  0
  7  8  1  0  0  0  0
  9  8  1  6  0  0  0
  9 10  1  0  0  0  0
  9 11  1  0  0  0  0
 10 15  1  0  0  0  0
 11 12  1  1  0  0  0
 11 13  1  0  0  0  0
 13 14  1  1  0  0  0
 13 15  1  0  0  0  0
 15 26  1  6  0  0  0
 17 18  2  0  0  0  0
 17 22  1  0  0  0  0
 18 19  1  0  0  0  0
 19 20  2  0  0  0  0
 20 21  1  0  0  0  0
 20 26  1  0  0  0  0
 21 22  2  0  0  0  0
 21 24  1  0  0  0  0
 22 23  1  0  0  0  0
 24 25  2  0  0  0  0
 25 26  1  0  0  0  0
M  END
>  <CHROM.1>
17.92520193,-136.83521258,-71.65906051,-69.22812962,178.83008811,-166.13438485
67.31674550,35.63041361,20.16893319,18.68507229,-1.84754087,-0.10400981,2.98306072

>  <Name>
ligand

>  <RI>
0

>  <Rbt.Current_Directory>
/home/itssahil/PROJECTS/Mol_Feturizer/New_Systems/rnas/3NPQ

>  <Rbt.Executable>
rbdock ($Id: //depot/dev/client3/rdock/2013.1/src/exe/rbdock.cxx#4 $)

>  <Rbt.Library>
libRbt.so (2013.1, Build901 2013/11/27)

>  <Rbt.Parameter_File>
/export/apps/rDock/src/rDock_2013.1_src/data/scripts/dock_solv.prm

>  <Rbt.Receptor>
prm/blind_docking_80.prm

>  <SCORE>
-4.69973

>  <SCORE.INTER>
-3.652

>  <SCORE.INTER.CONST>
1

>  <SCORE.INTER.POLAR>
0

>  <SCORE.INTER.ROT>
7

>  <SCORE.INTER.SOLV>
5.21919

>  <SCORE.INTER.VDW>
-12.4411

>  <SCORE.INTER.norm>
-0.140461

>  <SCORE.INTRA>
-1.04773

>  <SCORE.INTRA.DIHEDRAL>
1.74051

>  <SCORE.INTRA.DIHEDRAL.0>
6.97628

>  <SCORE.INTRA.POLAR>
0

>  <SCORE.INTRA.POLAR.0>
0

>  <SCORE.INTRA.REPUL>
0

>  <SCORE.INTRA.REPUL.0>
0

>  <SCORE.INTRA.SOLV>
-0.439482

>  <SCORE.INTRA.SOLV.lig_0>
-49.8243

>  <SCORE.INTRA.VDW>
-1.69824

>  <SCORE.INTRA.VDW.0>
-1.35881

>  <SCORE.INTRA.norm>
-0.0402972

>  <SCORE.RESTR>
0

>  <SCORE.RESTR.CAVITY>
0

>  <SCORE.RESTR.norm>
0

>  <SCORE.SYSTEM>
0

>  <SCORE.SYSTEM.CONST>
0

>  <SCORE.SYSTEM.DIHEDRAL>
0

>  <SCORE.SYSTEM.SOLV>
0

>  <SCORE.SYSTEM.norm>
0

>  <SCORE.heavy>
26

>  <SCORE.norm>
-0.180759

>  <RMSD>
14.590

$$$$
ligand
 OpenBabel11021811483D
libRbt.so/2013.1/901 2013/11/27
 26 28  0  0  0  0  0  0  0  0999 V2000
   32.0534   18.6929   18.1685 N   0  0  0  0  0  0  0  0  0  0  0  0
   33.5021   18.5397   18.1221 C   0  0  2  0  0  0  0  0  0  0  0  0
   33.9307   17.1970   18.7028 C   0  0  0  0  0  0  0  0  0  0  0  0
   33.3672   16.7247   19.6894 O   0  0  0  0  0  0  0  0  0  0  0  0
   34.1833   19.6758   18.8748 C   0  0  0  0  0  0  0  0  0  0  0  0
   34.1172   21.0212   18.1641 C   0  0  0  0  0  0  0  0  0  0  0  0
   35.1240   21.0618   16.6597 S   0  0  0  0  0  0  0  0  0  0  0  0
   35.0197   22.8692   16.6349 C   0  0  0  0  0  0  0  0  0  0  0  0
   36.0867   23.5321   17.4982 C   0  0  1  0  0  0  0  0  0  0  0  0
   36.0006   23.0511   18.8272 O   0  0  0  0  0  0  0  0  0  0  0  0
   37.4858   23.2323   16.9853 C   0  0  1  0  0  0  0  0  0  0  0  0
   38.1146   24.4245   16.5784 O   0  0  0  0  0  0  0  0  0  0  0  0
   38.2331   22.6240   18.1539 C   0  0  1  0  0  0  0  0  0  0  0  0
   39.3749   23.3935   18.4515 O   0  0  0  0  0  0  0  0  0  0  0  0
   37.2644   22.6515   19.3237 C   0  0  2  0  0  0  0  0  0  0  0  0
   34.8509   16.5524   18.1981 O   0  0  0  0  0  0  0  0  0  0  0  0
   38.0743   17.5040   18.6803 N   0  0  0  0  0  0  0  0  0  0  0  0
   38.3193   18.5228   17.7816 C   0  0  0  0  0  0  0  0  0  0  0  0
   38.0434   19.8320   18.1230 N   0  0  0  0  0  0  0  0  0  0  0  0
   37.5287   20.1272   19.3415 C   0  0  0  0  0  0  0  0  0  0  0  0
   37.2749   19.1165   20.2587 C   0  0  0  0  0  0  0  0  0  0  0  0
   37.5506   17.7964   19.9233 C   0  0  0  0  0  0  0  0  0  0  0  0
   37.3107   16.8200   20.7935 N   0  0  0  0  0  0  0  0  0  0  0  0
   36.7716   19.6853   21.3755 N   0  0  0  0  0  0  0  0  0  0  0  0
   36.7008   21.0233   21.1886 C   0  0  0  0  0  0  0  0  0  0  0  0
   37.1669   21.3124   19.9320 N   0  0  0  0  0  0  0  0  0  0  0  0
  2  1  1  1  0  0  0
  2  3  1  0  0  0  0
  2  5  1  0  0  0  0
  3  4  1  0  0  0  0
  3 16  1  0  0  0  0
  5  6  1  0  0  0  0
  6  7  1  0  0  0  0
  7  8  1  0  0  0  0
  9  8  1  6  0  0  0
  9 10  1  0  0  0  0
  9 11  1  0  0  0  0
 10 15  1  0  0  0  0
 11 12  1  1  0  0  0
 11 13  1  0  0  0  0
 13 14  1  1  0  0  0
 13 15  1  0  0  0  0
 15 26  1  6  0  0  0
 17 18  2  0  0  0  0
 17 22  1  0  0  0  0
 18 19  1  0  0  0  0
 19 20  2  0  0  0  0
 20 21  1  0  0  0  0
 20 26  1  0  0  0  0
 21 22  2  0  0  0  0
 21 24  1  0  0  0  0
 22 23  1  0  0  0  0
 24 25  2  0  0  0  0
 25 26  1  0  0  0  0
M  END
>  <CHROM.1>
-38.54057013,-71.99287110,-69.01417140,-164.51732833,85.50947851,-56.36885442
99.58932459,36.20972250,20.33909562,18.58345507,2.02195751,0.37846922,2.71947046

>  <Name>
ligand

>  <RI>
0

>  <Rbt.Current_Directory>
/home/itssahil/PROJECTS/Mol_Feturizer/New_Systems/rnas/3NPQ

>  <Rbt.Executable>
rbdock ($Id: //depot/dev/client3/rdock/2013.1/src/exe/rbdock.cxx#4 $)

>  <Rbt.Library>
libRbt.so (2013.1, Build901 2013/11/27)

>  <Rbt.Parameter_File>
/export/apps/rDock/src/rDock_2013.1_src/data/scripts/dock_solv.prm

>  <Rbt.Receptor>
prm/blind_docking_60.prm

>  <SCORE>
-13.087

>  <SCORE.INTER>
-8.80057

>  <SCORE.INTER.CONST>
1

>  <SCORE.INTER.POLAR>
0

>  <SCORE.INTER.ROT>
7

>  <SCORE.INTER.SOLV>
7.95021

>  <SCORE.INTER.VDW>
-16.7838

>  <SCORE.INTER.norm>
-0.338483

>  <SCORE.INTRA>
-4.28644

>  <SCORE.INTRA.DIHEDRAL>
-2.08973

>  <SCORE.INTRA.DIHEDRAL.0>
6.97628

>  <SCORE.INTRA.POLAR>
0

>  <SCORE.INTRA.POLAR.0>
0

>  <SCORE.INTRA.REPUL>
0

>  <SCORE.INTRA.REPUL.0>
0

>  <SCORE.INTRA.SOLV>
0.971313

>  <SCORE.INTRA.SOLV.lig_0>
-49.8243

>  <SCORE.INTRA.VDW>
-3.72723

>  <SCORE.INTRA.VDW.0>
-1.35881

>  <SCORE.INTRA.norm>
-0.164863

>  <SCORE.RESTR>
0

>  <SCORE.RESTR.CAVITY>
0

>  <SCORE.RESTR.norm>
0

>  <SCORE.SYSTEM>
0

>  <SCORE.SYSTEM.CONST>
0

>  <SCORE.SYSTEM.DIHEDRAL>
0

>  <SCORE.SYSTEM.SOLV>
0

>  <SCORE.SYSTEM.norm>
0

>  <SCORE.heavy>
26

>  <SCORE.norm>
-0.503346

>  <RMSD>
14.607

$$$$
ligand
 OpenBabel11021811483D
libRbt.so/2013.1/901 2013/11/27
 26 28  0  0  0  0  0  0  0  0999 V2000
   29.5521   13.5448    3.3600 N   0  0  0  0  0  0  0  0  0  0  0  0
   28.8747   14.2326    4.4520 C   0  0  2  0  0  0  0  0  0  0  0  0
   29.0117   15.7449    4.3167 C   0  0  0  0  0  0  0  0  0  0  0  0
   30.1135   16.2695    4.1594 O   0  0  0  0  0  0  0  0  0  0  0  0
   29.4289   13.7761    5.7957 C   0  0  0  0  0  0  0  0  0  0  0  0
   28.8734   12.4423    6.2775 C   0  0  0  0  0  0  0  0  0  0  0  0
   27.2377   12.6052    7.0368 S   0  0  0  0  0  0  0  0  0  0  0  0
   26.5285   11.5581    5.7411 C   0  0  0  0  0  0  0  0  0  0  0  0
   25.1659   12.0499    5.2671 C   0  0  1  0  0  0  0  0  0  0  0  0
   24.2315   11.9819    6.3289 O   0  0  0  0  0  0  0  0  0  0  0  0
   25.2266   13.4929    4.7935 C   0  0  1  0  0  0  0  0  0  0  0  0
   24.9140   13.5626    3.4225 O   0  0  0  0  0  0  0  0  0  0  0  0
   24.1847   14.2378    5.6020 C   0  0  1  0  0  0  0  0  0  0  0  0
   23.2428   14.8368    4.7428 O   0  0  0  0  0  0  0  0  0  0  0  0
   23.5088   13.1906    6.4704 C   0  0  2  0  0  0  0  0  0  0  0  0
   28.0228   16.4777    4.3610 O   0  0  0  0  0  0  0  0  0  0  0  0
   25.8455   16.1749   10.1037 N   0  0  0  0  0  0  0  0  0  0  0  0
   26.1781   16.0403    8.7708 C   0  0  0  0  0  0  0  0  0  0  0  0
   25.4460   15.2025    7.9529 N   0  0  0  0  0  0  0  0  0  0  0  0
   24.3967   14.5048    8.4520 C   0  0  0  0  0  0  0  0  0  0  0  0
   24.0470   14.6264    9.7900 C   0  0  0  0  0  0  0  0  0  0  0  0
   24.7781   15.4681   10.6196 C   0  0  0  0  0  0  0  0  0  0  0  0
   24.4529   15.5916   11.9030 N   0  0  0  0  0  0  0  0  0  0  0  0
   22.9787   13.8312   10.0144 N   0  0  0  0  0  0  0  0  0  0  0  0
   22.6458   13.2128    8.8581 C   0  0  0  0  0  0  0  0  0  0  0  0
   23.5161   13.6206    7.8803 N   0  0  0  0  0  0  0  0  0  0  0  0
  2  1  1  6  0  0  0
  2  3  1  0  0  0  0
  2  5  1  0  0  0  0
  3  4  1  0  0  0  0
  3 16  1  0  0  0  0
  5  6  1  0  0  0  0
  6  7  1  0  0  0  0
  7  8  1  0  0  0  0
  9  8  1  1  0  0  0
  9 10  1  0  0  0  0
  9 11  1  0  0  0  0
 10 15  1  0  0  0  0
 11 12  1  6  0  0  0
 11 13  1  0  0  0  0
 13 14  1  6  0  0  0
 13 15  1  0  0  0  0
 15 26  1  1  0  0  0
 17 18  2  0  0  0  0
 17 22  1  0  0  0  0
 18 19  1  0  0  0  0
 19 20  2  0  0  0  0
 20 21  1  0  0  0  0
 20 26  1  0  0  0  0
 21 22  2  0  0  0  0
 21 24  1  0  0  0  0
 22 23  1  0  0  0  0
 24 25  2  0  0  0  0
 25 26  1  0  0  0  0
M  END
>  <CHROM.1>
-51.68152657,-79.90020885,-80.26975517,117.20860551,-139.89729650,-63.85073739
94.71730071,25.96270551,14.08649844,6.70698857,-0.73798276,0.41086623,1.12496592

>  <Name>
ligand

>  <RI>
0

>  <Rbt.Current_Directory>
/home/itssahil/PROJECTS/Mol_Feturizer/New_Systems/rnas/3NPQ

>  <Rbt.Executable>
rbdock ($Id: //depot/dev/client3/rdock/2013.1/src/exe/rbdock.cxx#4 $)

>  <Rbt.Library>
libRbt.so (2013.1, Build901 2013/11/27)

>  <Rbt.Parameter_File>
/export/apps/rDock/src/rDock_2013.1_src/data/scripts/dock_solv.prm

>  <Rbt.Receptor>
prm/blind_docking_100.prm

>  <SCORE>
-9.98968

>  <SCORE.INTER>
-9.33954

>  <SCORE.INTER.CONST>
1

>  <SCORE.INTER.POLAR>
0

>  <SCORE.INTER.ROT>
7

>  <SCORE.INTER.SOLV>
10.7459

>  <SCORE.INTER.VDW>
-18.075

>  <SCORE.INTER.norm>
-0.359213

>  <SCORE.INTRA>
-0.995522

>  <SCORE.INTRA.DIHEDRAL>
2.82165

>  <SCORE.INTRA.DIHEDRAL.0>
6.97628

>  <SCORE.INTRA.POLAR>
0

>  <SCORE.INTRA.POLAR.0>
0

>  <SCORE.INTRA.REPUL>
0

>  <SCORE.INTRA.REPUL.0>
0

>  <SCORE.INTRA.SOLV>
0.511935

>  <SCORE.INTRA.SOLV.lig_0>
-49.8243

>  <SCORE.INTRA.VDW>
-2.66232

>  <SCORE.INTRA.VDW.0>
-1.35881

>  <SCORE.INTRA.norm>
-0.0382893

>  <SCORE.RESTR>
0.345378

>  <SCORE.RESTR.CAVITY>
0.345378

>  <SCORE.RESTR.norm>
0.0132838

>  <SCORE.SYSTEM>
0

>  <SCORE.SYSTEM.CONST>
0

>  <SCORE.SYSTEM.DIHEDRAL>
0

>  <SCORE.SYSTEM.SOLV>
0

>  <SCORE.SYSTEM.norm>
0

>  <SCORE.heavy>
26

>  <SCORE.norm>
-0.384219

>  <RMSD>
14.609

$$$$
ligand
 OpenBabel11021811483D
libRbt.so/2013.1/901 2013/11/27
 26 28  0  0  0  0  0  0  0  0999 V2000
   37.2798    0.2415    6.3331 N   0  0  0  0  0  0  0  0  0  0  0  0
   36.3852    0.9353    7.2512 C   0  0  2  0  0  0  0  0  0  0  0  0
   36.2866    0.1991    8.5824 C   0  0  0  0  0  0  0  0  0  0  0  0
   35.9755   -0.9905    8.6268 O   0  0  0  0  0  0  0  0  0  0  0  0
   35.0004    1.0871    6.6343 C   0  0  0  0  0  0  0  0  0  0  0  0
   34.9844    1.8625    5.3235 C   0  0  0  0  0  0  0  0  0  0  0  0
   33.3294    1.9619    4.5959 S   0  0  0  0  0  0  0  0  0  0  0  0
   33.1532    3.6525    5.2198 C   0  0  0  0  0  0  0  0  0  0  0  0
   32.1820    3.7494    6.3906 C   0  0  1  0  0  0  0  0  0  0  0  0
   32.2359    5.0460    6.9571 O   0  0  0  0  0  0  0  0  0  0  0  0
   30.7497    3.4938    5.9508 C   0  0  1  0  0  0  0  0  0  0  0  0
   30.2520    2.3377    6.5817 O   0  0  0  0  0  0  0  0  0  0  0  0
   29.9586    4.7076    6.3925 C   0  0  1  0  0  0  0  0  0  0  0  0
   28.9156    4.3177    7.2553 O   0  0  0  0  0  0  0  0  0  0  0  0
   30.9439    5.5969    7.1314 C   0  0  2  0  0  0  0  0  0  0  0  0
   36.5164    0.7771    9.6454 O   0  0  0  0  0  0  0  0  0  0  0  0
   27.8884    9.5430    5.5006 N   0  0  0  0  0  0  0  0  0  0  0  0
   27.4998    8.3100    5.9845 C   0  0  0  0  0  0  0  0  0  0  0  0
   28.4489    7.3847    6.3716 N   0  0  0  0  0  0  0  0  0  0  0  0
   29.7687    7.6785    6.2782 C   0  0  0  0  0  0  0  0  0  0  0  0
   30.1793    8.9129    5.7936 C   0  0  0  0  0  0  0  0  0  0  0  0
   29.2305    9.8501    5.4027 C   0  0  0  0  0  0  0  0  0  0  0  0
   29.6122   11.0353    4.9361 N   0  0  0  0  0  0  0  0  0  0  0  0
   31.5296    8.9374    5.8089 N   0  0  0  0  0  0  0  0  0  0  0  0
   31.9809    7.7556    6.2883 C   0  0  0  0  0  0  0  0  0  0  0  0
   30.9006    6.9647    6.5838 N   0  0  0  0  0  0  0  0  0  0  0  0
  2  1  1  6  0  0  0
  2  3  1  0  0  0  0
  2  5  1  0  0  0  0
  3  4  1  0  0  0  0
  3 16  1  0  0  0  0
  5  6  1  0  0  0  0
  6  7  1  0  0  0  0
  7  8  1  0  0  0  0
  9  8  1  6  0  0  0
  9 10  1  0  0  0  0
  9 11  1  0  0  0  0
 10 15  1  0  0  0  0
 11 12  1  1  0  0  0
 11 13  1  0  0  0  0
 13 14  1  1  0  0  0
 13 15  1  0  0  0  0
 15 26  1  6  0  0  0
 17 18  2  0  0  0  0
 17 22  1  0  0  0  0
 18 19  1  0  0  0  0
 19 20  2  0  0  0  0
 20 21  1  0  0  0  0
 20 26  1  0  0  0  0
 21 22  2  0  0  0  0
 21 24  1  0  0  0  0
 22 23  1  0  0  0  0
 24 25  2  0  0  0  0
 25 26  1  0  0  0  0
M  END
>  <CHROM.1>
-54.23310462,-59.29671365,177.76955288,101.18663152,-107.44466656,171.41676094
163.05609922,32.09161888,4.55764991,6.40106782,-0.90633668,-0.03413956,-0.14761951

>  <Name>
ligand

>  <RI>
0

>  <Rbt.Current_Directory>
/home/itssahil/PROJECTS/Mol_Feturizer/New_Systems/rnas/3NPQ

>  <Rbt.Executable>
rbdock ($Id: //depot/dev/client3/rdock/2013.1/src/exe/rbdock.cxx#4 $)

>  <Rbt.Library>
libRbt.so (2013.1, Build901 2013/11/27)

>  <Rbt.Parameter_File>
/export/apps/rDock/src/rDock_2013.1_src/data/scripts/dock_solv.prm

>  <Rbt.Receptor>
prm/blind_docking_40.prm

>  <SCORE>
-12.6449

>  <SCORE.INTER>
-11.7494

>  <SCORE.INTER.CONST>
1

>  <SCORE.INTER.POLAR>
0

>  <SCORE.INTER.ROT>
7

>  <SCORE.INTER.SOLV>
8.27232

>  <SCORE.INTER.VDW>
-18.8571

>  <SCORE.INTER.norm>
-0.451902

>  <SCORE.INTRA>
-0.895457

>  <SCORE.INTRA.DIHEDRAL>
-0.0165925

>  <SCORE.INTRA.DIHEDRAL.0>
6.97628

>  <SCORE.INTRA.POLAR>
0

>  <SCORE.INTRA.POLAR.0>
0

>  <SCORE.INTRA.REPUL>
0

>  <SCORE.INTRA.REPUL.0>
0

>  <SCORE.INTRA.SOLV>
-0.0588988

>  <SCORE.INTRA.SOLV.lig_0>
-49.8243

>  <SCORE.INTRA.VDW>
-0.857711

>  <SCORE.INTRA.VDW.0>
-1.35881

>  <SCORE.INTRA.norm>
-0.0344406

>  <SCORE.RESTR>
0

>  <SCORE.RESTR.CAVITY>
0

>  <SCORE.RESTR.norm>
0

>  <SCORE.SYSTEM>
0

>  <SCORE.SYSTEM.CONST>
0

>  <SCORE.SYSTEM.DIHEDRAL>
0

>  <SCORE.SYSTEM.SOLV>
0

>  <SCORE.SYSTEM.norm>
0

>  <SCORE.heavy>
26

>  <SCORE.norm>
-0.486342

>  <RMSD>
14.612

$$$$
ligand
 OpenBabel11021811483D
libRbt.so/2013.1/901 2013/11/27
 26 28  0  0  0  0  0  0  0  0999 V2000
   30.0494    4.9854    5.5829 N   0  0  0  0  0  0  0  0  0  0  0  0
   29.0318    5.6075    6.4208 C   0  0  2  0  0  0  0  0  0  0  0  0
   27.8406    6.0668    5.5876 C   0  0  0  0  0  0  0  0  0  0  0  0
   26.7415    5.5257    5.7018 O   0  0  0  0  0  0  0  0  0  0  0  0
   29.6188    6.7862    7.1871 C   0  0  0  0  0  0  0  0  0  0  0  0
   30.2415    7.8569    6.3007 C   0  0  0  0  0  0  0  0  0  0  0  0
   30.9511    9.2220    7.2554 S   0  0  0  0  0  0  0  0  0  0  0  0
   29.2867    9.7963    7.6773 C   0  0  0  0  0  0  0  0  0  0  0  0
   28.5897   10.4881    6.5115 C   0  0  1  0  0  0  0  0  0  0  0  0
   27.2462   10.7757    6.8536 O   0  0  0  0  0  0  0  0  0  0  0  0
   29.2690   11.7999    6.1536 C   0  0  1  0  0  0  0  0  0  0  0  0
   29.7913   11.7304    4.8480 O   0  0  0  0  0  0  0  0  0  0  0  0
   28.1878   12.8582    6.2246 C   0  0  1  0  0  0  0  0  0  0  0  0
   28.0646   13.5083    4.9809 O   0  0  0  0  0  0  0  0  0  0  0  0
   26.9043   12.1167    6.5566 C   0  0  2  0  0  0  0  0  0  0  0  0
   27.9497    6.9907    4.7806 O   0  0  0  0  0  0  0  0  0  0  0  0
   22.3511   13.0843    8.9854 N   0  0  0  0  0  0  0  0  0  0  0  0
   22.5564   12.4048    7.8014 C   0  0  0  0  0  0  0  0  0  0  0  0
   23.8349   12.2430    7.3056 N   0  0  0  0  0  0  0  0  0  0  0  0
   24.8979   12.7509    7.9757 C   0  0  0  0  0  0  0  0  0  0  0  0
   24.7118   13.4378    9.1677 C   0  0  0  0  0  0  0  0  0  0  0  0
   23.4284   13.6043    9.6740 C   0  0  0  0  0  0  0  0  0  0  0  0
   23.2381   14.2613   10.8143 N   0  0  0  0  0  0  0  0  0  0  0  0
   25.9243   13.8290    9.6158 N   0  0  0  0  0  0  0  0  0  0  0  0
   26.8677   13.4091    8.7417 C   0  0  0  0  0  0  0  0  0  0  0  0
   26.2464   12.7390    7.7195 N   0  0  0  0  0  0  0  0  0  0  0  0
  2  1  1  6  0  0  0
  2  3  1  0  0  0  0
  2  5  1  0  0  0  0
  3  4  1  0  0  0  0
  3 16  1  0  0  0  0
  5  6  1  0  0  0  0
  6  7  1  0  0  0  0
  7  8  1  0  0  0  0
  9  8  1  1  0  0  0
  9 10  1  0  0  0  0
  9 11  1  0  0  0  0
 10 15  1  0  0  0  0
 11 12  1  6  0  0  0
 11 13  1  0  0  0  0
 13 14  1  6  0  0  0
 13 15  1  0  0  0  0
 15 26  1  1  0  0  0
 17 18  2  0  0  0  0
 17 22  1  0  0  0  0
 18 19  1  0  0  0  0
 19 20  2  0  0  0  0
 20 21  1  0  0  0  0
 20 26  1  0  0  0  0
 21 22  2  0  0  0  0
 21 24  1  0  0  0  0
 22 23  1  0  0  0  0
 24 25  2  0  0  0  0
 25 26  1  0  0  0  0
M  END
>  <CHROM.1>
112.34172366,57.19445362,-178.98850103,-71.75318752,-74.86106214,173.35819951
-90.34457262,27.32770246,10.55202777,7.10708336,0.89304829,-0.32285240,-2.98975290

>  <Name>
ligand

>  <RI>
0

>  <Rbt.Current_Directory>
/home/itssahil/PROJECTS/Mol_Feturizer/New_Systems/rnas/3NPQ

>  <Rbt.Executable>
rbdock ($Id: //depot/dev/client3/rdock/2013.1/src/exe/rbdock.cxx#4 $)

>  <Rbt.Library>
libRbt.so (2013.1, Build901 2013/11/27)

>  <Rbt.Parameter_File>
/export/apps/rDock/src/rDock_2013.1_src/data/scripts/dock_solv.prm

>  <Rbt.Receptor>
prm/blind_docking_40.prm

>  <SCORE>
-8.248

>  <SCORE.INTER>
-6.97902

>  <SCORE.INTER.CONST>
1

>  <SCORE.INTER.POLAR>
0

>  <SCORE.INTER.ROT>
7

>  <SCORE.INTER.SOLV>
14.1749

>  <SCORE.INTER.VDW>
-17.6443

>  <SCORE.INTER.norm>
-0.268424

>  <SCORE.INTRA>
-1.26898

>  <SCORE.INTRA.DIHEDRAL>
-3.54888

>  <SCORE.INTRA.DIHEDRAL.0>
6.97628

>  <SCORE.INTRA.POLAR>
0

>  <SCORE.INTRA.POLAR.0>
0

>  <SCORE.INTRA.REPUL>
0

>  <SCORE.INTRA.REPUL.0>
0

>  <SCORE.INTRA.SOLV>
-0.0704794

>  <SCORE.INTRA.SOLV.lig_0>
-49.8243

>  <SCORE.INTRA.VDW>
0.540703

>  <SCORE.INTRA.VDW.0>
-1.35881

>  <SCORE.INTRA.norm>
-0.0488068

>  <SCORE.RESTR>
0

>  <SCORE.RESTR.CAVITY>
0

>  <SCORE.RESTR.norm>
0

>  <SCORE.SYSTEM>
0

>  <SCORE.SYSTEM.CONST>
0

>  <SCORE.SYSTEM.DIHEDRAL>
0

>  <SCORE.SYSTEM.SOLV>
0

>  <SCORE.SYSTEM.norm>
0

>  <SCORE.heavy>
26

>  <SCORE.norm>
-0.317231

>  <RMSD>
14.624

$$$$
ligand
 OpenBabel11021811483D
libRbt.so/2013.1/901 2013/11/27
 26 28  0  0  0  0  0  0  0  0999 V2000
   37.5534    0.5595    6.2246 N   0  0  0  0  0  0  0  0  0  0  0  0
   36.6611    1.2758    7.1274 C   0  0  2  0  0  0  0  0  0  0  0  0
   36.6989    0.6744    8.5277 C   0  0  0  0  0  0  0  0  0  0  0  0
   37.6428   -0.0265    8.8907 O   0  0  0  0  0  0  0  0  0  0  0  0
   35.2351    1.2615    6.5911 C   0  0  0  0  0  0  0  0  0  0  0  0
   35.0670    1.9656    5.2511 C   0  0  0  0  0  0  0  0  0  0  0  0
   33.3743    1.8572    4.6175 S   0  0  0  0  0  0  0  0  0  0  0  0
   33.0198    3.5072    5.2734 C   0  0  0  0  0  0  0  0  0  0  0  0
   32.0766    3.4744    6.4704 C   0  0  1  0  0  0  0  0  0  0  0  0
   31.7014    4.7926    6.8262 O   0  0  0  0  0  0  0  0  0  0  0  0
   30.8073    2.6980    6.1602 C   0  0  1  0  0  0  0  0  0  0  0  0
   30.7227    1.5636    6.9899 O   0  0  0  0  0  0  0  0  0  0  0  0
   29.6615    3.6435    6.4554 C   0  0  1  0  0  0  0  0  0  0  0  0
   28.8100    3.0834    7.4278 O   0  0  0  0  0  0  0  0  0  0  0  0
   30.3007    4.9139    6.9892 C   0  0  2  0  0  0  0  0  0  0  0  0
   35.7859    0.8759    9.3294 O   0  0  0  0  0  0  0  0  0  0  0  0
   30.7339   10.0870    6.2025 N   0  0  0  0  0  0  0  0  0  0  0  0
   31.4505    9.2966    7.0784 C   0  0  0  0  0  0  0  0  0  0  0  0
   31.2016    7.9404    7.1536 N   0  0  0  0  0  0  0  0  0  0  0  0
   30.2513    7.3749    6.3700 C   0  0  0  0  0  0  0  0  0  0  0  0
   29.5197    8.1532    5.4833 C   0  0  0  0  0  0  0  0  0  0  0  0
   29.7647    9.5186    5.4008 C   0  0  0  0  0  0  0  0  0  0  0  0
   29.0694   10.2741    4.5559 N   0  0  0  0  0  0  0  0  0  0  0  0
   28.6534    7.3437    4.8366 N   0  0  0  0  0  0  0  0  0  0  0  0
   28.8177    6.0796    5.2897 C   0  0  0  0  0  0  0  0  0  0  0  0
   29.8052    6.0832    6.2409 N   0  0  0  0  0  0  0  0  0  0  0  0
  2  1  1  6  0  0  0
  2  3  1  0  0  0  0
  2  5  1  0  0  0  0
  3  4  1  0  0  0  0
  3 16  1  0  0  0  0
  5  6  1  0  0  0  0
  6  7  1  0  0  0  0
  7  8  1  0  0  0  0
  9  8  1  6  0  0  0
  9 10  1  0  0  0  0
  9 11  1  0  0  0  0
 10 15  1  0  0  0  0
 11 12  1  1  0  0  0
 11 13  1  0  0  0  0
 13 14  1  1  0  0  0
 13 15  1  0  0  0  0
 15 26  1  6  0  0  0
 17 18  2  0  0  0  0
 17 22  1  0  0  0  0
 18 19  1  0  0  0  0
 19 20  2  0  0  0  0
 20 21  1  0  0  0  0
 20 26  1  0  0  0  0
 21 22  2  0  0  0  0
 21 24  1  0  0  0  0
 22 23  1  0  0  0  0
 24 25  2  0  0  0  0
 25 26  1  0  0  0  0
M  END
>  <CHROM.1>
19.90836152,-62.60487716,177.35747505,97.68878253,-109.26142353,-172.41666522
-55.31861837,32.21081155,4.29726737,6.40284435,-0.85656698,-0.19683701,-0.02702305

>  <Name>
ligand

>  <RI>
0

>  <Rbt.Current_Directory>
/home/itssahil/PROJECTS/Mol_Feturizer/New_Systems/rnas/3NPQ

>  <Rbt.Executable>
rbdock ($Id: //depot/dev/client3/rdock/2013.1/src/exe/rbdock.cxx#4 $)

>  <Rbt.Library>
libRbt.so (2013.1, Build901 2013/11/27)

>  <Rbt.Parameter_File>
/export/apps/rDock/src/rDock_2013.1_src/data/scripts/dock_solv.prm

>  <Rbt.Receptor>
prm/blind_docking_40.prm

>  <SCORE>
-14.7904

>  <SCORE.INTER>
-14.883

>  <SCORE.INTER.CONST>
1

>  <SCORE.INTER.POLAR>
0

>  <SCORE.INTER.ROT>
7

>  <SCORE.INTER.SOLV>
10.6488

>  <SCORE.INTER.VDW>
-21.7382

>  <SCORE.INTER.norm>
-0.572421

>  <SCORE.INTRA>
0.0925468

>  <SCORE.INTRA.DIHEDRAL>
-0.159949

>  <SCORE.INTRA.DIHEDRAL.0>
6.97628

>  <SCORE.INTRA.POLAR>
0

>  <SCORE.INTRA.POLAR.0>
0

>  <SCORE.INTRA.REPUL>
0

>  <SCORE.INTRA.REPUL.0>
0

>  <SCORE.INTRA.SOLV>
-0.0744428

>  <SCORE.INTRA.SOLV.lig_0>
-49.8243

>  <SCORE.INTRA.VDW>
0.209743

>  <SCORE.INTRA.VDW.0>
-1.35881

>  <SCORE.INTRA.norm>
0.00355949

>  <SCORE.RESTR>
0

>  <SCORE.RESTR.CAVITY>
0

>  <SCORE.RESTR.norm>
0

>  <SCORE.SYSTEM>
0

>  <SCORE.SYSTEM.CONST>
0

>  <SCORE.SYSTEM.DIHEDRAL>
0

>  <SCORE.SYSTEM.SOLV>
0

>  <SCORE.SYSTEM.norm>
0

>  <SCORE.heavy>
26

>  <SCORE.norm>
-0.568862

>  <RMSD>
14.626

$$$$
ligand
 OpenBabel11021811483D
libRbt.so/2013.1/901 2013/11/27
 26 28  0  0  0  0  0  0  0  0999 V2000
   37.7258    0.4832    6.0869 N   0  0  0  0  0  0  0  0  0  0  0  0
   36.8688    1.1603    7.0521 C   0  0  2  0  0  0  0  0  0  0  0  0
   36.9731    0.5119    8.4279 C   0  0  0  0  0  0  0  0  0  0  0  0
   37.8608   -0.3022    8.6787 O   0  0  0  0  0  0  0  0  0  0  0  0
   35.4207    1.1512    6.5787 C   0  0  0  0  0  0  0  0  0  0  0  0
   35.1743    1.9623    5.3134 C   0  0  0  0  0  0  0  0  0  0  0  0
   33.4899    1.7649    4.6793 S   0  0  0  0  0  0  0  0  0  0  0  0
   33.0794    3.4368    5.2403 C   0  0  0  0  0  0  0  0  0  0  0  0
   32.1434    3.4406    6.4433 C   0  0  1  0  0  0  0  0  0  0  0  0
   31.8020    4.7714    6.7858 O   0  0  0  0  0  0  0  0  0  0  0  0
   30.8541    2.6910    6.1502 C   0  0  1  0  0  0  0  0  0  0  0  0
   30.7478    1.5687    6.9937 O   0  0  0  0  0  0  0  0  0  0  0  0
   29.7330    3.6670    6.4410 C   0  0  1  0  0  0  0  0  0  0  0  0
   28.8746    3.1387    7.4252 O   0  0  0  0  0  0  0  0  0  0  0  0
   30.4056    4.9279    6.9559 C   0  0  2  0  0  0  0  0  0  0  0  0
   36.1716    0.7879    9.3214 O   0  0  0  0  0  0  0  0  0  0  0  0
   30.8381   10.1092    6.2245 N   0  0  0  0  0  0  0  0  0  0  0  0
   31.5239    9.3165    7.1226 C   0  0  0  0  0  0  0  0  0  0  0  0
   31.2806    7.9583    7.1780 N   0  0  0  0  0  0  0  0  0  0  0  0
   30.3659    7.3931    6.3529 C   0  0  0  0  0  0  0  0  0  0  0  0
   29.6656    8.1737    5.4433 C   0  0  0  0  0  0  0  0  0  0  0  0
   29.9053    9.5412    5.3805 C   0  0  0  0  0  0  0  0  0  0  0  0
   29.2397   10.2988    4.5138 N   0  0  0  0  0  0  0  0  0  0  0  0
   28.8308    7.3640    4.7565 N   0  0  0  0  0  0  0  0  0  0  0  0
   28.9846    6.0976    5.2068 C   0  0  0  0  0  0  0  0  0  0  0  0
   29.9332    6.0998    6.1967 N   0  0  0  0  0  0  0  0  0  0  0  0
  2  1  1  6  0  0  0
  2  3  1  0  0  0  0
  2  5  1  0  0  0  0
  3  4  1  0  0  0  0
  3 16  1  0  0  0  0
  5  6  1  0  0  0  0
  6  7  1  0  0  0  0
  7  8  1  0  0  0  0
  9  8  1  6  0  0  0
  9 10  1  0  0  0  0
  9 11  1  0  0  0  0
 10 15  1  0  0  0  0
 11 12  1  1  0  0  0
 11 13  1  0  0  0  0
 13 14  1  1  0  0  0
 13 15  1  0  0  0  0
 15 26  1  6  0  0  0
 17 18  2  0  0  0  0
 17 22  1  0  0  0  0
 18 19  1  0  0  0  0
 19 20  2  0  0  0  0
 20 21  1  0  0  0  0
 20 26  1  0  0  0  0
 21 22  2  0  0  0  0
 21 24  1  0  0  0  0
 22 23  1  0  0  0  0
 24 25  2  0  0  0  0
 25 26  1  0  0  0  0
M  END
>  <CHROM.1>
12.20427619,-65.76433947,173.20954106,107.01646070,-108.58200023,-176.74401277
-58.65806856,32.34529136,4.26347201,6.37562231,-0.85873552,-0.18304360,-0.03056499

>  <Name>
ligand

>  <RI>
0

>  <Rbt.Current_Directory>
/home/itssahil/PROJECTS/Mol_Feturizer/New_Systems/rnas/3NPQ

>  <Rbt.Executable>
rbdock ($Id: //depot/dev/client3/rdock/2013.1/src/exe/rbdock.cxx#4 $)

>  <Rbt.Library>
libRbt.so (2013.1, Build901 2013/11/27)

>  <Rbt.Parameter_File>
/export/apps/rDock/src/rDock_2013.1_src/data/scripts/dock_solv.prm

>  <Rbt.Receptor>
prm/blind_docking_40.prm

>  <SCORE>
-14.7453

>  <SCORE.INTER>
-14.8491

>  <SCORE.INTER.CONST>
1

>  <SCORE.INTER.POLAR>
0

>  <SCORE.INTER.ROT>
7

>  <SCORE.INTER.SOLV>
10.9982

>  <SCORE.INTER.VDW>
-21.8321

>  <SCORE.INTER.norm>
-0.571121

>  <SCORE.INTRA>
0.10386

>  <SCORE.INTRA.DIHEDRAL>
0.367391

>  <SCORE.INTRA.DIHEDRAL.0>
6.97628

>  <SCORE.INTRA.POLAR>
0

>  <SCORE.INTRA.POLAR.0>
0

>  <SCORE.INTRA.REPUL>
0

>  <SCORE.INTRA.REPUL.0>
0

>  <SCORE.INTRA.SOLV>
-0.131366

>  <SCORE.INTRA.SOLV.lig_0>
-49.8243

>  <SCORE.INTRA.VDW>
-0.0141527

>  <SCORE.INTRA.VDW.0>
-1.35881

>  <SCORE.INTRA.norm>
0.00399461

>  <SCORE.RESTR>
0

>  <SCORE.RESTR.CAVITY>
0

>  <SCORE.RESTR.norm>
0

>  <SCORE.SYSTEM>
0

>  <SCORE.SYSTEM.CONST>
0

>  <SCORE.SYSTEM.DIHEDRAL>
0

>  <SCORE.SYSTEM.SOLV>
0

>  <SCORE.SYSTEM.norm>
0

>  <SCORE.heavy>
26

>  <SCORE.norm>
-0.567126

>  <RMSD>
14.626

$$$$
ligand
 OpenBabel11021811483D
libRbt.so/2013.1/901 2013/11/27
 26 28  0  0  0  0  0  0  0  0999 V2000
   38.5714   24.0284   18.2400 N   0  0  0  0  0  0  0  0  0  0  0  0
   38.6425   23.6070   16.8465 C   0  0  2  0  0  0  0  0  0  0  0  0
   39.5756   24.5097   16.0474 C   0  0  0  0  0  0  0  0  0  0  0  0
   39.9335   24.2032   14.9108 O   0  0  0  0  0  0  0  0  0  0  0  0
   37.2545   23.6036   16.2184 C   0  0  0  0  0  0  0  0  0  0  0  0
   36.3026   22.5768   16.8177 C   0  0  0  0  0  0  0  0  0  0  0  0
   34.7559   22.4376   15.8868 S   0  0  0  0  0  0  0  0  0  0  0  0
   34.5394   20.7454   16.4932 C   0  0  0  0  0  0  0  0  0  0  0  0
   33.8290   20.6896   17.8406 C   0  0  1  0  0  0  0  0  0  0  0  0
   34.1293   19.4703   18.4951 O   0  0  0  0  0  0  0  0  0  0  0  0
   34.2672   21.8254   18.7506 C   0  0  1  0  0  0  0  0  0  0  0  0
   33.1730   22.6654   19.0323 O   0  0  0  0  0  0  0  0  0  0  0  0
   34.7590   21.1690   20.0239 C   0  0  1  0  0  0  0  0  0  0  0  0
   34.0200   21.6391   21.1273 O   0  0  0  0  0  0  0  0  0  0  0  0
   34.5288   19.6792   19.8367 C   0  0  2  0  0  0  0  0  0  0  0  0
   39.9932   25.5675   16.5201 O   0  0  0  0  0  0  0  0  0  0  0  0
   37.4955   15.5300   18.5915 N   0  0  0  0  0  0  0  0  0  0  0  0
   36.2852   15.9057   18.0441 C   0  0  0  0  0  0  0  0  0  0  0  0
   35.6387   17.0383   18.4981 N   0  0  0  0  0  0  0  0  0  0  0  0
   36.1857   17.7889   19.4852 C   0  0  0  0  0  0  0  0  0  0  0  0
   37.4017   17.4271   20.0487 C   0  0  0  0  0  0  0  0  0  0  0  0
   38.0593   16.2893   19.5969 C   0  0  0  0  0  0  0  0  0  0  0  0
   39.2241   15.9326   20.1299 N   0  0  0  0  0  0  0  0  0  0  0  0
   37.7088   18.3394   20.9961 N   0  0  0  0  0  0  0  0  0  0  0  0
   36.7225   19.2641   21.0458 C   0  0  0  0  0  0  0  0  0  0  0  0
   35.7711   18.9361   20.1146 N   0  0  0  0  0  0  0  0  0  0  0  0
  2  1  1  1  0  0  0
  2  3  1  0  0  0  0
  2  5  1  0  0  0  0
  3  4  1  0  0  0  0
  3 16  1  0  0  0  0
  5  6  1  0  0  0  0
  6  7  1  0  0  0  0
  7  8  1  0  0  0  0
  9  8  1  6  0  0  0
  9 10  1  0  0  0  0
  9 11  1  0  0  0  0
 10 15  1  0  0  0  0
 11 12  1  1  0  0  0
 11 13  1  0  0  0  0
 13 14  1  1  0  0  0
 13 15  1  0  0  0  0
 15 26  1  6  0  0  0
 17 18  2  0  0  0  0
 17 22  1  0  0  0  0
 18 19  1  0  0  0  0
 19 20  2  0  0  0  0
 20 21  1  0  0  0  0
 20 26  1  0  0  0  0
 21 22  2  0  0  0  0
 21 24  1  0  0  0  0
 22 23  1  0  0  0  0
 24 25  2  0  0  0  0
 25 26  1  0  0  0  0
M  END
>  <CHROM.1>
168.60948826,-65.46035571,-171.52277626,154.83869398,86.63143224,-157.73909021
-27.30270833,36.38995156,20.62367007,18.29087681,-1.39619867,-0.20295768
2.72550710

>  <Name>
ligand

>  <RI>
0

>  <Rbt.Current_Directory>
/home/itssahil/PROJECTS/Mol_Feturizer/New_Systems/rnas/3NPQ

>  <Rbt.Executable>
rbdock ($Id: //depot/dev/client3/rdock/2013.1/src/exe/rbdock.cxx#4 $)

>  <Rbt.Library>
libRbt.so (2013.1, Build901 2013/11/27)

>  <Rbt.Parameter_File>
/export/apps/rDock/src/rDock_2013.1_src/data/scripts/dock_solv.prm

>  <Rbt.Receptor>
prm/blind_docking_80.prm

>  <SCORE>
-5.95038

>  <SCORE.INTER>
-6.63687

>  <SCORE.INTER.CONST>
1

>  <SCORE.INTER.POLAR>
0

>  <SCORE.INTER.ROT>
7

>  <SCORE.INTER.SOLV>
7.80003

>  <SCORE.INTER.VDW>
-15.2913

>  <SCORE.INTER.norm>
-0.255264

>  <SCORE.INTRA>
0.686489

>  <SCORE.INTRA.DIHEDRAL>
-0.42302

>  <SCORE.INTRA.DIHEDRAL.0>
6.97628

>  <SCORE.INTRA.POLAR>
0

>  <SCORE.INTRA.POLAR.0>
0

>  <SCORE.INTRA.REPUL>
0

>  <SCORE.INTRA.REPUL.0>
0

>  <SCORE.INTRA.SOLV>
0.12453

>  <SCORE.INTRA.SOLV.lig_0>
-49.8243

>  <SCORE.INTRA.VDW>
0.835734

>  <SCORE.INTRA.VDW.0>
-1.35881

>  <SCORE.INTRA.norm>
0.0264034

>  <SCORE.RESTR>
0

>  <SCORE.RESTR.CAVITY>
0

>  <SCORE.RESTR.norm>
0

>  <SCORE.SYSTEM>
0

>  <SCORE.SYSTEM.CONST>
0

>  <SCORE.SYSTEM.DIHEDRAL>
0

>  <SCORE.SYSTEM.SOLV>
0

>  <SCORE.SYSTEM.norm>
0

>  <SCORE.heavy>
26

>  <SCORE.norm>
-0.228861

>  <RMSD>
14.645

$$$$
ligand
 OpenBabel11021811483D
libRbt.so/2013.1/901 2013/11/27
 26 28  0  0  0  0  0  0  0  0999 V2000
   32.7083    2.5381    7.3092 N   0  0  0  0  0  0  0  0  0  0  0  0
   32.0468    2.0142    6.1207 C   0  0  2  0  0  0  0  0  0  0  0  0
   33.0637    1.6226    5.0546 C   0  0  0  0  0  0  0  0  0  0  0  0
   33.2850    0.4406    4.7943 O   0  0  0  0  0  0  0  0  0  0  0  0
   31.0690    3.0386    5.5589 C   0  0  0  0  0  0  0  0  0  0  0  0
   29.7195    3.0632    6.2644 C   0  0  0  0  0  0  0  0  0  0  0  0
   28.5819    4.2742    5.5448 S   0  0  0  0  0  0  0  0  0  0  0  0
   29.1509    5.5182    6.7310 C   0  0  0  0  0  0  0  0  0  0  0  0
   30.0333    6.5827    6.0895 C   0  0  1  0  0  0  0  0  0  0  0  0
   29.2411    7.4647    5.3151 O   0  0  0  0  0  0  0  0  0  0  0  0
   30.7613    7.4100    7.1364 C   0  0  1  0  0  0  0  0  0  0  0  0
   32.1517    7.2259    7.0132 O   0  0  0  0  0  0  0  0  0  0  0  0
   30.4010    8.8525    6.8475 C   0  0  1  0  0  0  0  0  0  0  0  0
   31.5677    9.6030    6.6029 O   0  0  0  0  0  0  0  0  0  0  0  0
   29.5297    8.8200    5.6036 C   0  0  2  0  0  0  0  0  0  0  0  0
   33.6875    2.4798    4.4279 O   0  0  0  0  0  0  0  0  0  0  0  0
   24.7375    8.7083    7.7460 N   0  0  0  0  0  0  0  0  0  0  0  0
   25.6910    7.7101    7.7414 C   0  0  0  0  0  0  0  0  0  0  0  0
   26.9090    7.9153    7.1241 N   0  0  0  0  0  0  0  0  0  0  0  0
   27.1777    9.0968    6.5168 C   0  0  0  0  0  0  0  0  0  0  0  0
   26.2315   10.1125    6.5103 C   0  0  0  0  0  0  0  0  0  0  0  0
   25.0035    9.9145    7.1301 C   0  0  0  0  0  0  0  0  0  0  0  0
   24.0893   10.8800    7.1293 N   0  0  0  0  0  0  0  0  0  0  0  0
   26.7557   11.1648    5.8454 N   0  0  0  0  0  0  0  0  0  0  0  0
   28.0030   10.8416    5.4332 C   0  0  0  0  0  0  0  0  0  0  0  0
   28.2788    9.5623    5.8422 N   0  0  0  0  0  0  0  0  0  0  0  0
  2  1  1  1  0  0  0
  2  3  1  0  0  0  0
  2  5  1  0  0  0  0
  3  4  1  0  0  0  0
  3 16  1  0  0  0  0
  5  6  1  0  0  0  0
  6  7  1  0  0  0  0
  7  8  1  0  0  0  0
  9  8  1  1  0  0  0
  9 10  1  0  0  0  0
  9 11  1  0  0  0  0
 10 15  1  0  0  0  0
 11 12  1  6  0  0  0
 11 13  1  0  0  0  0
 13 14  1  6  0  0  0
 13 15  1  0  0  0  0
 15 26  1  1  0  0  0
 17 18  2  0  0  0  0
 17 22  1  0  0  0  0
 18 19  1  0  0  0  0
 19 20  2  0  0  0  0
 20 21  1  0  0  0  0
 20 26  1  0  0  0  0
 21 22  2  0  0  0  0
 21 24  1  0  0  0  0
 22 23  1  0  0  0  0
 24 25  2  0  0  0  0
 25 26  1  0  0  0  0
M  END
>  <CHROM.1>
108.27959280,-81.61847127,-179.00230027,-92.20375350,107.01807722,74.07912397
39.00648525,29.30508917,6.59971424,6.22828852,-0.90340368,0.12686027,0.05191433

>  <Name>
ligand

>  <RI>
0

>  <Rbt.Current_Directory>
/home/itssahil/PROJECTS/Mol_Feturizer/New_Systems/rnas/3NPQ

>  <Rbt.Executable>
rbdock ($Id: //depot/dev/client3/rdock/2013.1/src/exe/rbdock.cxx#4 $)

>  <Rbt.Library>
libRbt.so (2013.1, Build901 2013/11/27)

>  <Rbt.Parameter_File>
/export/apps/rDock/src/rDock_2013.1_src/data/scripts/dock_solv.prm

>  <Rbt.Receptor>
prm/blind_docking_40.prm

>  <SCORE>
-9.91837

>  <SCORE.INTER>
-8.7308

>  <SCORE.INTER.CONST>
1

>  <SCORE.INTER.POLAR>
0

>  <SCORE.INTER.ROT>
7

>  <SCORE.INTER.SOLV>
13.001

>  <SCORE.INTER.VDW>
-18.4209

>  <SCORE.INTER.norm>
-0.3358

>  <SCORE.INTRA>
-1.18757

>  <SCORE.INTRA.DIHEDRAL>
1.55339

>  <SCORE.INTRA.DIHEDRAL.0>
6.97628

>  <SCORE.INTRA.POLAR>
0

>  <SCORE.INTRA.POLAR.0>
0

>  <SCORE.INTRA.REPUL>
0

>  <SCORE.INTRA.REPUL.0>
0

>  <SCORE.INTRA.SOLV>
-0.396116

>  <SCORE.INTRA.SOLV.lig_0>
-49.8243

>  <SCORE.INTRA.VDW>
-1.76621

>  <SCORE.INTRA.VDW.0>
-1.35881

>  <SCORE.INTRA.norm>
-0.0456758

>  <SCORE.RESTR>
0

>  <SCORE.RESTR.CAVITY>
0

>  <SCORE.RESTR.norm>
0

>  <SCORE.SYSTEM>
0

>  <SCORE.SYSTEM.CONST>
0

>  <SCORE.SYSTEM.DIHEDRAL>
0

>  <SCORE.SYSTEM.SOLV>
0

>  <SCORE.SYSTEM.norm>
0

>  <SCORE.heavy>
26

>  <SCORE.norm>
-0.381476

>  <RMSD>
14.708

$$$$
ligand
 OpenBabel11021811483D
libRbt.so/2013.1/901 2013/11/27
 26 28  0  0  0  0  0  0  0  0999 V2000
   35.8441   25.6661   16.8491 N   0  0  0  0  0  0  0  0  0  0  0  0
   36.4723   24.3702   17.0740 C   0  0  2  0  0  0  0  0  0  0  0  0
   37.2125   23.8959   15.8286 C   0  0  0  0  0  0  0  0  0  0  0  0
   38.4383   23.9712   15.7532 O   0  0  0  0  0  0  0  0  0  0  0  0
   35.4318   23.3374   17.4885 C   0  0  0  0  0  0  0  0  0  0  0  0
   34.7887   23.6101   18.8419 C   0  0  0  0  0  0  0  0  0  0  0  0
   33.7679   22.2294   19.4162 S   0  0  0  0  0  0  0  0  0  0  0  0
   32.5783   22.5531   18.0902 C   0  0  0  0  0  0  0  0  0  0  0  0
   31.7350   21.3313   17.7450 C   0  0  1  0  0  0  0  0  0  0  0  0
   32.5536   20.3229   17.1810 O   0  0  0  0  0  0  0  0  0  0  0  0
   31.0640   20.7491   18.9783 C   0  0  1  0  0  0  0  0  0  0  0  0
   29.6647   20.8417   18.8534 O   0  0  0  0  0  0  0  0  0  0  0  0
   31.4854   19.2952   19.0309 C   0  0  1  0  0  0  0  0  0  0  0  0
   30.3504   18.4612   19.0042 O   0  0  0  0  0  0  0  0  0  0  0  0
   32.3328   19.0651   17.7914 C   0  0  2  0  0  0  0  0  0  0  0  0
   36.6014   23.4254   14.8684 O   0  0  0  0  0  0  0  0  0  0  0  0
   37.5444   19.6657   18.0041 N   0  0  0  0  0  0  0  0  0  0  0  0
   36.6029   20.5619   17.5395 C   0  0  0  0  0  0  0  0  0  0  0  0
   35.2618   20.2335   17.5588 N   0  0  0  0  0  0  0  0  0  0  0  0
   34.8592   19.0290   18.0321 C   0  0  0  0  0  0  0  0  0  0  0  0
   35.7910   18.1141   18.5032 C   0  0  0  0  0  0  0  0  0  0  0  0
   37.1426   18.4372   18.4881 C   0  0  0  0  0  0  0  0  0  0  0  0
   38.0441   17.5683   18.9360 N   0  0  0  0  0  0  0  0  0  0  0  0
   35.1235   17.0127   18.9098 N   0  0  0  0  0  0  0  0  0  0  0  0
   33.7998   17.2069   18.7086 C   0  0  0  0  0  0  0  0  0  0  0  0
   33.6205   18.4527   18.1649 N   0  0  0  0  0  0  0  0  0  0  0  0
  2  1  1  6  0  0  0
  2  3  1  0  0  0  0
  2  5  1  0  0  0  0
  3  4  1  0  0  0  0
  3 16  1  0  0  0  0
  5  6  1  0  0  0  0
  6  7  1  0  0  0  0
  7  8  1  0  0  0  0
  9  8  1  1  0  0  0
  9 10  1  0  0  0  0
  9 11  1  0  0  0  0
 10 15  1  0  0  0  0
 11 12  1  6  0  0  0
 11 13  1  0  0  0  0
 13 14  1  6  0  0  0
 13 15  1  0  0  0  0
 15 26  1  1  0  0  0
 17 18  2  0  0  0  0
 17 22  1  0  0  0  0
 18 19  1  0  0  0  0
 19 20  2  0  0  0  0
 20 21  1  0  0  0  0
 20 26  1  0  0  0  0
 21 22  2  0  0  0  0
 21 24  1  0  0  0  0
 22 23  1  0  0  0  0
 24 25  2  0  0  0  0
 25 26  1  0  0  0  0
M  END
>  <CHROM.1>
103.01977341,-66.03144162,-170.59653526,-68.26515517,157.24707383,-66.39599194
3.91961407,34.46029109,20.87124164,17.96015726,0.80008357,0.20106289,-0.24174146

>  <Name>
ligand

>  <RI>
0

>  <Rbt.Current_Directory>
/home/itssahil/PROJECTS/Mol_Feturizer/New_Systems/rnas/3NPQ

>  <Rbt.Executable>
rbdock ($Id: //depot/dev/client3/rdock/2013.1/src/exe/rbdock.cxx#4 $)

>  <Rbt.Library>
libRbt.so (2013.1, Build901 2013/11/27)

>  <Rbt.Parameter_File>
/export/apps/rDock/src/rDock_2013.1_src/data/scripts/dock_solv.prm

>  <Rbt.Receptor>
prm/blind_docking_100.prm

>  <SCORE>
-8.46854

>  <SCORE.INTER>
-5.83792

>  <SCORE.INTER.CONST>
1

>  <SCORE.INTER.POLAR>
0

>  <SCORE.INTER.ROT>
7

>  <SCORE.INTER.SOLV>
8.94042

>  <SCORE.INTER.VDW>
-15.1388

>  <SCORE.INTER.norm>
-0.224536

>  <SCORE.INTRA>
-2.7118

>  <SCORE.INTRA.DIHEDRAL>
-2.81587

>  <SCORE.INTRA.DIHEDRAL.0>
6.97628

>  <SCORE.INTRA.POLAR>
0

>  <SCORE.INTRA.POLAR.0>
0

>  <SCORE.INTRA.REPUL>
0

>  <SCORE.INTRA.REPUL.0>
0

>  <SCORE.INTRA.SOLV>
0.128493

>  <SCORE.INTRA.SOLV.lig_0>
-49.8243

>  <SCORE.INTRA.VDW>
-1.36812

>  <SCORE.INTRA.VDW.0>
-1.35881

>  <SCORE.INTRA.norm>
-0.1043

>  <SCORE.RESTR>
0.0811888

>  <SCORE.RESTR.CAVITY>
0.0811888

>  <SCORE.RESTR.norm>
0.00312264

>  <SCORE.SYSTEM>
0

>  <SCORE.SYSTEM.CONST>
0

>  <SCORE.SYSTEM.DIHEDRAL>
0

>  <SCORE.SYSTEM.SOLV>
0

>  <SCORE.SYSTEM.norm>
0

>  <SCORE.heavy>
26

>  <SCORE.norm>
-0.325713

>  <RMSD>
14.723

$$$$
ligand
 OpenBabel11021811483D
libRbt.so/2013.1/901 2013/11/27
 26 28  0  0  0  0  0  0  0  0999 V2000
   32.9501   20.2449   19.0191 N   0  0  0  0  0  0  0  0  0  0  0  0
   33.9039   21.2646   19.4373 C   0  0  2  0  0  0  0  0  0  0  0  0
   33.9356   21.3965   20.9557 C   0  0  0  0  0  0  0  0  0  0  0  0
   34.6389   22.2447   21.5032 O   0  0  0  0  0  0  0  0  0  0  0  0
   33.5622   22.6072   18.8033 C   0  0  0  0  0  0  0  0  0  0  0  0
   33.7468   22.6469   17.2920 C   0  0  0  0  0  0  0  0  0  0  0  0
   35.4720   22.4086   16.7969 S   0  0  0  0  0  0  0  0  0  0  0  0
   35.8659   24.0870   17.3501 C   0  0  0  0  0  0  0  0  0  0  0  0
   37.3461   24.2709   17.6641 C   0  0  1  0  0  0  0  0  0  0  0  0
   37.7728   23.2785   18.5796 O   0  0  0  0  0  0  0  0  0  0  0  0
   38.2018   24.1483   16.4139 C   0  0  1  0  0  0  0  0  0  0  0  0
   38.8547   25.3689   16.1565 O   0  0  0  0  0  0  0  0  0  0  0  0
   39.2202   23.0681   16.7141 C   0  0  1  0  0  0  0  0  0  0  0  0
   40.5247   23.5837   16.5853 O   0  0  0  0  0  0  0  0  0  0  0  0
   38.9641   22.6460   18.1506 C   0  0  2  0  0  0  0  0  0  0  0  0
   33.2577   20.6576   21.6707 O   0  0  0  0  0  0  0  0  0  0  0  0
   36.6805   18.6268   20.6404 N   0  0  0  0  0  0  0  0  0  0  0  0
   36.5473   19.9757   20.9014 C   0  0  0  0  0  0  0  0  0  0  0  0
   37.2292   20.9022   20.1375 N   0  0  0  0  0  0  0  0  0  0  0  0
   38.0355   20.4950   19.1270 C   0  0  0  0  0  0  0  0  0  0  0  0
   38.1829   19.1428   18.8495 C   0  0  0  0  0  0  0  0  0  0  0  0
   37.4994   18.2041   19.6129 C   0  0  0  0  0  0  0  0  0  0  0  0
   37.6337   16.9062   19.3567 N   0  0  0  0  0  0  0  0  0  0  0  0
   39.0323   19.0227   17.8063 N   0  0  0  0  0  0  0  0  0  0  0  0
   39.4240   20.2584   17.4194 C   0  0  0  0  0  0  0  0  0  0  0  0
   38.8141   21.1817   18.2290 N   0  0  0  0  0  0  0  0  0  0  0  0
  2  1  1  1  0  0  0
  2  3  1  0  0  0  0
  2  5  1  0  0  0  0
  3  4  1  0  0  0  0
  3 16  1  0  0  0  0
  5  6  1  0  0  0  0
  6  7  1  0  0  0  0
  7  8  1  0  0  0  0
  9  8  1  6  0  0  0
  9 10  1  0  0  0  0
  9 11  1  0  0  0  0
 10 15  1  0  0  0  0
 11 12  1  1  0  0  0
 11 13  1  0  0  0  0
 13 14  1  1  0  0  0
 13 15  1  0  0  0  0
 15 26  1  6  0  0  0
 17 18  2  0  0  0  0
 17 22  1  0  0  0  0
 18 19  1  0  0  0  0
 19 20  2  0  0  0  0
 20 21  1  0  0  0  0
 20 26  1  0  0  0  0
 21 22  2  0  0  0  0
 21 24  1  0  0  0  0
 22 23  1  0  0  0  0
 24 25  2  0  0  0  0
 25 26  1  0  0  0  0
M  END
>  <CHROM.1>
-176.95974769,-67.27131376,-63.76500851,-74.08471527,157.51942725,-53.28468129
-30.52768141,36.73524511,21.60086092,18.56393844,2.32009671,-0.34228731,2.63855554

>  <Name>
ligand

>  <RI>
0

>  <Rbt.Current_Directory>
/home/itssahil/PROJECTS/Mol_Feturizer/New_Systems/rnas/3NPQ

>  <Rbt.Executable>
rbdock ($Id: //depot/dev/client3/rdock/2013.1/src/exe/rbdock.cxx#4 $)

>  <Rbt.Library>
libRbt.so (2013.1, Build901 2013/11/27)

>  <Rbt.Parameter_File>
/export/apps/rDock/src/rDock_2013.1_src/data/scripts/dock_solv.prm

>  <Rbt.Receptor>
prm/blind_docking_100.prm

>  <SCORE>
-12.7358

>  <SCORE.INTER>
-9.54403

>  <SCORE.INTER.CONST>
1

>  <SCORE.INTER.POLAR>
0

>  <SCORE.INTER.ROT>
7

>  <SCORE.INTER.SOLV>
7.00014

>  <SCORE.INTER.VDW>
-16.9627

>  <SCORE.INTER.norm>
-0.367078

>  <SCORE.INTRA>
-3.19179

>  <SCORE.INTRA.DIHEDRAL>
-2.81966

>  <SCORE.INTRA.DIHEDRAL.0>
6.97628

>  <SCORE.INTRA.POLAR>
0

>  <SCORE.INTRA.POLAR.0>
0

>  <SCORE.INTRA.REPUL>
0

>  <SCORE.INTRA.REPUL.0>
0

>  <SCORE.INTRA.SOLV>
0.614128

>  <SCORE.INTRA.SOLV.lig_0>
-49.8243

>  <SCORE.INTRA.VDW>
-2.08902

>  <SCORE.INTRA.VDW.0>
-1.35881

>  <SCORE.INTRA.norm>
-0.122761

>  <SCORE.RESTR>
0

>  <SCORE.RESTR.CAVITY>
0

>  <SCORE.RESTR.norm>
0

>  <SCORE.SYSTEM>
0

>  <SCORE.SYSTEM.CONST>
0

>  <SCORE.SYSTEM.DIHEDRAL>
0

>  <SCORE.SYSTEM.SOLV>
0

>  <SCORE.SYSTEM.norm>
0

>  <SCORE.heavy>
26

>  <SCORE.norm>
-0.489839

>  <RMSD>
14.758

$$$$
ligand
 OpenBabel11021811483D
libRbt.so/2013.1/901 2013/11/27
 26 28  0  0  0  0  0  0  0  0999 V2000
   24.2847   17.3043   13.1945 N   0  0  0  0  0  0  0  0  0  0  0  0
   24.4268   18.7521   13.1022 C   0  0  2  0  0  0  0  0  0  0  0  0
   23.5902   19.4543   14.1656 C   0  0  0  0  0  0  0  0  0  0  0  0
   23.9152   20.5586   14.6001 O   0  0  0  0  0  0  0  0  0  0  0  0
   24.0262   19.2403   11.7157 C   0  0  0  0  0  0  0  0  0  0  0  0
   24.9247   18.7356   10.5943 C   0  0  0  0  0  0  0  0  0  0  0  0
   24.2565   19.1010    8.9516 S   0  0  0  0  0  0  0  0  0  0  0  0
   24.8515   17.5003    8.3501 C   0  0  0  0  0  0  0  0  0  0  0  0
   24.6894   17.3409    6.8429 C   0  0  1  0  0  0  0  0  0  0  0  0
   25.3146   16.1453    6.4134 O   0  0  0  0  0  0  0  0  0  0  0  0
   23.2247   17.2686    6.4432 C   0  0  1  0  0  0  0  0  0  0  0  0
   22.8944   18.3666    5.6261 O   0  0  0  0  0  0  0  0  0  0  0  0
   23.0714   15.9781    5.6654 C   0  0  1  0  0  0  0  0  0  0  0  0
   22.5821   16.2477    4.3722 O   0  0  0  0  0  0  0  0  0  0  0  0
   24.4641   15.3771    5.5828 C   0  0  2  0  0  0  0  0  0  0  0  0
   22.5686   18.9334   14.6151 O   0  0  0  0  0  0  0  0  0  0  0  0
   27.0309   11.5934    8.1639 N   0  0  0  0  0  0  0  0  0  0  0  0
   27.4387   12.8913    7.9301 C   0  0  0  0  0  0  0  0  0  0  0  0
   26.6272   13.7587    7.2259 N   0  0  0  0  0  0  0  0  0  0  0  0
   25.4253   13.3428    6.7574 C   0  0  0  0  0  0  0  0  0  0  0  0
   24.9979   12.0412    6.9818 C   0  0  0  0  0  0  0  0  0  0  0  0
   25.8082   11.1623    7.6904 C   0  0  0  0  0  0  0  0  0  0  0  0
   25.4094    9.9130    7.9105 N   0  0  0  0  0  0  0  0  0  0  0  0
   23.7809   11.8994    6.4135 N   0  0  0  0  0  0  0  0  0  0  0  0
   23.4299   13.0724    5.8381 C   0  0  0  0  0  0  0  0  0  0  0  0
   24.4396   13.9771    6.0431 N   0  0  0  0  0  0  0  0  0  0  0  0
  2  1  1  6  0  0  0
  2  3  1  0  0  0  0
  2  5  1  0  0  0  0
  3  4  1  0  0  0  0
  3 16  1  0  0  0  0
  5  6  1  0  0  0  0
  6  7  1  0  0  0  0
  7  8  1  0  0  0  0
  9  8  1  1  0  0  0
  9 10  1  0  0  0  0
  9 11  1  0  0  0  0
 10 15  1  0  0  0  0
 11 12  1  6  0  0  0
 11 13  1  0  0  0  0
 13 14  1  6  0  0  0
 13 15  1  0  0  0  0
 15 26  1  1  0  0  0
 17 18  2  0  0  0  0
 17 22  1  0  0  0  0
 18 19  1  0  0  0  0
 19 20  2  0  0  0  0
 20 21  1  0  0  0  0
 20 26  1  0  0  0  0
 21 22  2  0  0  0  0
 21 24  1  0  0  0  0
 22 23  1  0  0  0  0
 24 25  2  0  0  0  0
 25 26  1  0  0  0  0
M  END
>  <CHROM.1>
152.50992691,-64.48702034,170.20268824,-142.30454843,-172.48867583,173.01777473
-25.01383806,24.46550075,16.04064969,8.56719377,-1.93848784,1.20778268,-2.01212718

>  <Name>
ligand

>  <RI>
0

>  <Rbt.Current_Directory>
/home/itssahil/PROJECTS/Mol_Feturizer/New_Systems/rnas/3NPQ

>  <Rbt.Executable>
rbdock ($Id: //depot/dev/client3/rdock/2013.1/src/exe/rbdock.cxx#4 $)

>  <Rbt.Library>
libRbt.so (2013.1, Build901 2013/11/27)

>  <Rbt.Parameter_File>
/export/apps/rDock/src/rDock_2013.1_src/data/scripts/dock_solv.prm

>  <Rbt.Receptor>
prm/blind_docking_60.prm

>  <SCORE>
-13.7064

>  <SCORE.INTER>
-12.2609

>  <SCORE.INTER.CONST>
1

>  <SCORE.INTER.POLAR>
0

>  <SCORE.INTER.ROT>
7

>  <SCORE.INTER.SOLV>
13.4234

>  <SCORE.INTER.VDW>
-20.9151

>  <SCORE.INTER.norm>
-0.471575

>  <SCORE.INTRA>
-1.69535

>  <SCORE.INTRA.DIHEDRAL>
-1.93004

>  <SCORE.INTRA.DIHEDRAL.0>
6.97628

>  <SCORE.INTRA.POLAR>
0

>  <SCORE.INTRA.POLAR.0>
0

>  <SCORE.INTRA.REPUL>
0

>  <SCORE.INTRA.REPUL.0>
0

>  <SCORE.INTRA.SOLV>
-0.146597

>  <SCORE.INTRA.SOLV.lig_0>
-49.8243

>  <SCORE.INTRA.VDW>
-0.657035

>  <SCORE.INTRA.VDW.0>
-1.35881

>  <SCORE.INTRA.norm>
-0.0652059

>  <SCORE.RESTR>
0.249846

>  <SCORE.RESTR.CAVITY>
0.249846

>  <SCORE.RESTR.norm>
0.00960948

>  <SCORE.SYSTEM>
0

>  <SCORE.SYSTEM.CONST>
0

>  <SCORE.SYSTEM.DIHEDRAL>
0

>  <SCORE.SYSTEM.SOLV>
0

>  <SCORE.SYSTEM.norm>
0

>  <SCORE.heavy>
26

>  <SCORE.norm>
-0.527171

>  <RMSD>
14.766

$$$$
ligand
 OpenBabel11021811483D
libRbt.so/2013.1/901 2013/11/27
 26 28  0  0  0  0  0  0  0  0999 V2000
   32.6150   17.9558   21.3041 N   0  0  0  0  0  0  0  0  0  0  0  0
   32.1939   19.3274   21.0477 C   0  0  2  0  0  0  0  0  0  0  0  0
   32.0304   19.5808   19.5534 C   0  0  0  0  0  0  0  0  0  0  0  0
   32.4952   18.7998   18.7240 O   0  0  0  0  0  0  0  0  0  0  0  0
   33.1952   20.3123   21.6381 C   0  0  0  0  0  0  0  0  0  0  0  0
   34.6084   20.1677   21.0889 C   0  0  0  0  0  0  0  0  0  0  0  0
   34.7966   20.9159   19.4509 S   0  0  0  0  0  0  0  0  0  0  0  0
   35.3115   22.4731   20.2179 C   0  0  0  0  0  0  0  0  0  0  0  0
   36.5567   23.0655   19.5683 C   0  0  1  0  0  0  0  0  0  0  0  0
   37.6504   22.1797   19.7231 O   0  0  0  0  0  0  0  0  0  0  0  0
   36.3537   23.2973   18.0799 C   0  0  1  0  0  0  0  0  0  0  0  0
   36.4402   24.6726   17.7912 O   0  0  0  0  0  0  0  0  0  0  0  0
   37.4750   22.5502   17.3882 C   0  0  1  0  0  0  0  0  0  0  0  0
   38.2389   23.4391   16.6067 O   0  0  0  0  0  0  0  0  0  0  0  0
   38.3290   21.9647   18.4997 C   0  0  2  0  0  0  0  0  0  0  0  0
   31.4288   20.5730   19.1405 O   0  0  0  0  0  0  0  0  0  0  0  0
   37.6054   17.1269   20.4075 N   0  0  0  0  0  0  0  0  0  0  0  0
   37.2409   18.3299   20.9780 C   0  0  0  0  0  0  0  0  0  0  0  0
   37.5126   19.5178   20.3285 N   0  0  0  0  0  0  0  0  0  0  0  0
   38.1403   19.5126   19.1273 C   0  0  0  0  0  0  0  0  0  0  0  0
   38.5152   18.3130   18.5377 C   0  0  0  0  0  0  0  0  0  0  0  0
   38.2446   17.1130   19.1843 C   0  0  0  0  0  0  0  0  0  0  0  0
   38.5999   15.9581   18.6294 N   0  0  0  0  0  0  0  0  0  0  0  0
   39.1133   18.5973   17.3606 N   0  0  0  0  0  0  0  0  0  0  0  0
   39.1263   19.9396   17.1920 C   0  0  0  0  0  0  0  0  0  0  0  0
   38.5263   20.5206   18.2794 N   0  0  0  0  0  0  0  0  0  0  0  0
  2  1  1  6  0  0  0
  2  3  1  0  0  0  0
  2  5  1  0  0  0  0
  3  4  1  0  0  0  0
  3 16  1  0  0  0  0
  5  6  1  0  0  0  0
  6  7  1  0  0  0  0
  7  8  1  0  0  0  0
  9  8  1  6  0  0  0
  9 10  1  0  0  0  0
  9 11  1  0  0  0  0
 10 15  1  0  0  0  0
 11 12  1  1  0  0  0
 11 13  1  0  0  0  0
 13 14  1  1  0  0  0
 13 15  1  0  0  0  0
 15 26  1  6  0  0  0
 17 18  2  0  0  0  0
 17 22  1  0  0  0  0
 18 19  1  0  0  0  0
 19 20  2  0  0  0  0
 20 21  1  0  0  0  0
 20 26  1  0  0  0  0
 21 22  2  0  0  0  0
 21 24  1  0  0  0  0
 22 23  1  0  0  0  0
 24 25  2  0  0  0  0
 25 26  1  0  0  0  0
M  END
>  <CHROM.1>
-14.87152900,59.24419334,78.23813408,91.78768945,133.10707995,-62.24299289
-1.01854006,36.11750020,20.33852675,19.22224997,-2.85088205,0.31741668,-0.25990052

>  <Name>
ligand

>  <RI>
0

>  <Rbt.Current_Directory>
/home/itssahil/PROJECTS/Mol_Feturizer/New_Systems/rnas/3NPQ

>  <Rbt.Executable>
rbdock ($Id: //depot/dev/client3/rdock/2013.1/src/exe/rbdock.cxx#4 $)

>  <Rbt.Library>
libRbt.so (2013.1, Build901 2013/11/27)

>  <Rbt.Parameter_File>
/export/apps/rDock/src/rDock_2013.1_src/data/scripts/dock_solv.prm

>  <Rbt.Receptor>
prm/blind_docking_80.prm

>  <SCORE>
-7.56216

>  <SCORE.INTER>
-5.83596

>  <SCORE.INTER.CONST>
1

>  <SCORE.INTER.POLAR>
0

>  <SCORE.INTER.ROT>
7

>  <SCORE.INTER.SOLV>
7.01408

>  <SCORE.INTER.VDW>
-14.4953

>  <SCORE.INTER.norm>
-0.22446

>  <SCORE.INTRA>
-1.74864

>  <SCORE.INTRA.DIHEDRAL>
0.319463

>  <SCORE.INTRA.DIHEDRAL.0>
6.97628

>  <SCORE.INTRA.POLAR>
0

>  <SCORE.INTRA.POLAR.0>
0

>  <SCORE.INTRA.REPUL>
0

>  <SCORE.INTRA.REPUL.0>
0

>  <SCORE.INTRA.SOLV>
0.691479

>  <SCORE.INTRA.SOLV.lig_0>
-49.8243

>  <SCORE.INTRA.VDW>
-2.25411

>  <SCORE.INTRA.VDW.0>
-1.35881

>  <SCORE.INTRA.norm>
-0.0672555

>  <SCORE.RESTR>
0.0224408

>  <SCORE.RESTR.CAVITY>
0.0224408

>  <SCORE.RESTR.norm>
0.000863108

>  <SCORE.SYSTEM>
0

>  <SCORE.SYSTEM.CONST>
0

>  <SCORE.SYSTEM.DIHEDRAL>
0

>  <SCORE.SYSTEM.SOLV>
0

>  <SCORE.SYSTEM.norm>
0

>  <SCORE.heavy>
26

>  <SCORE.norm>
-0.290852

>  <RMSD>
14.766

$$$$
ligand
 OpenBabel11021811483D
libRbt.so/2013.1/901 2013/11/27
 26 28  0  0  0  0  0  0  0  0999 V2000
   31.5604   15.0457    5.3604 N   0  0  0  0  0  0  0  0  0  0  0  0
   30.2751   14.6586    4.7923 C   0  0  2  0  0  0  0  0  0  0  0  0
   30.4402   13.5311    3.7795 C   0  0  0  0  0  0  0  0  0  0  0  0
   29.5139   12.7593    3.5344 O   0  0  0  0  0  0  0  0  0  0  0  0
   29.5995   15.8558    4.1356 C   0  0  0  0  0  0  0  0  0  0  0  0
   28.1981   15.5700    3.6121 C   0  0  0  0  0  0  0  0  0  0  0  0
   26.9506   15.5835    4.9244 S   0  0  0  0  0  0  0  0  0  0  0  0
   27.3285   13.8543    5.3056 C   0  0  0  0  0  0  0  0  0  0  0  0
   26.3695   13.2538    6.3269 C   0  0  1  0  0  0  0  0  0  0  0  0
   26.2957   14.0876    7.4690 O   0  0  0  0  0  0  0  0  0  0  0  0
   24.9656   13.1157    5.7611 C   0  0  1  0  0  0  0  0  0  0  0  0
   24.6006   11.7570    5.7063 O   0  0  0  0  0  0  0  0  0  0  0  0
   24.0584   13.8587    6.7197 C   0  0  1  0  0  0  0  0  0  0  0  0
   23.0744   12.9881    7.2278 O   0  0  0  0  0  0  0  0  0  0  0  0
   24.9557   14.3468    7.8440 C   0  0  2  0  0  0  0  0  0  0  0  0
   31.5045   13.3661    3.1821 O   0  0  0  0  0  0  0  0  0  0  0  0
   24.8598   18.2662   11.3364 N   0  0  0  0  0  0  0  0  0  0  0  0
   25.1000   16.9266   11.5671 C   0  0  0  0  0  0  0  0  0  0  0  0
   25.0864   16.0274   10.5192 N   0  0  0  0  0  0  0  0  0  0  0  0
   24.8356   16.4520    9.2568 C   0  0  0  0  0  0  0  0  0  0  0  0
   24.5912   17.7951    9.0047 C   0  0  0  0  0  0  0  0  0  0  0  0
   24.6040   18.7066   10.0536 C   0  0  0  0  0  0  0  0  0  0  0  0
   24.3703   19.9954    9.8241 N   0  0  0  0  0  0  0  0  0  0  0  0
   24.3756   17.9368    7.6790 N   0  0  0  0  0  0  0  0  0  0  0  0
   24.4767   16.7233    7.0894 C   0  0  0  0  0  0  0  0  0  0  0  0
   24.7618   15.7927    8.0551 N   0  0  0  0  0  0  0  0  0  0  0  0
  2  1  1  6  0  0  0
  2  3  1  0  0  0  0
  2  5  1  0  0  0  0
  3  4  1  0  0  0  0
  3 16  1  0  0  0  0
  5  6  1  0  0  0  0
  6  7  1  0  0  0  0
  7  8  1  0  0  0  0
  9  8  1  6  0  0  0
  9 10  1  0  0  0  0
  9 11  1  0  0  0  0
 10 15  1  0  0  0  0
 11 12  1  1  0  0  0
 11 13  1  0  0  0  0
 13 14  1  1  0  0  0
 13 15  1  0  0  0  0
 15 26  1  6  0  0  0
 17 18  2  0  0  0  0
 17 22  1  0  0  0  0
 18 19  1  0  0  0  0
 19 20  2  0  0  0  0
 20 21  1  0  0  0  0
 20 26  1  0  0  0  0
 21 22  2  0  0  0  0
 21 24  1  0  0  0  0
 22 23  1  0  0  0  0
 24 25  2  0  0  0  0
 25 26  1  0  0  0  0
M  END
>  <CHROM.1>
154.64918545,-175.33000088,79.21653874,-84.66581320,-172.94052335,-51.89160340
-95.08481958,26.48257007,15.24407507,6.74857726,-0.79426073,0.47683818,0.60725591

>  <Name>
ligand

>  <RI>
0

>  <Rbt.Current_Directory>
/home/itssahil/PROJECTS/Mol_Feturizer/New_Systems/rnas/3NPQ

>  <Rbt.Executable>
rbdock ($Id: //depot/dev/client3/rdock/2013.1/src/exe/rbdock.cxx#4 $)

>  <Rbt.Library>
libRbt.so (2013.1, Build901 2013/11/27)

>  <Rbt.Parameter_File>
/export/apps/rDock/src/rDock_2013.1_src/data/scripts/dock_solv.prm

>  <Rbt.Receptor>
prm/blind_docking_100.prm

>  <SCORE>
-11.0817

>  <SCORE.INTER>
-8.99074

>  <SCORE.INTER.CONST>
1

>  <SCORE.INTER.POLAR>
0

>  <SCORE.INTER.ROT>
7

>  <SCORE.INTER.SOLV>
23.9848

>  <SCORE.INTER.VDW>
-22.2554

>  <SCORE.INTER.norm>
-0.345798

>  <SCORE.INTRA>
-2.09096

>  <SCORE.INTRA.DIHEDRAL>
-1.7636

>  <SCORE.INTRA.DIHEDRAL.0>
6.97628

>  <SCORE.INTRA.POLAR>
0

>  <SCORE.INTRA.POLAR.0>
0

>  <SCORE.INTRA.REPUL>
0

>  <SCORE.INTRA.REPUL.0>
0

>  <SCORE.INTRA.SOLV>
-0.356581

>  <SCORE.INTRA.SOLV.lig_0>
-49.8243

>  <SCORE.INTRA.VDW>
-1.03087

>  <SCORE.INTRA.VDW.0>
-1.35881

>  <SCORE.INTRA.norm>
-0.0804215

>  <SCORE.RESTR>
0

>  <SCORE.RESTR.CAVITY>
0

>  <SCORE.RESTR.norm>
0

>  <SCORE.SYSTEM>
0

>  <SCORE.SYSTEM.CONST>
0

>  <SCORE.SYSTEM.DIHEDRAL>
0

>  <SCORE.SYSTEM.SOLV>
0

>  <SCORE.SYSTEM.norm>
0

>  <SCORE.heavy>
26

>  <SCORE.norm>
-0.426219

>  <RMSD>
14.774

$$$$
ligand
 OpenBabel11021811483D
libRbt.so/2013.1/901 2013/11/27
 26 28  0  0  0  0  0  0  0  0999 V2000
   31.6565   14.6764    4.8244 N   0  0  0  0  0  0  0  0  0  0  0  0
   30.3714   13.9960    4.7224 C   0  0  2  0  0  0  0  0  0  0  0  0
   30.2836   13.1791    3.4383 C   0  0  0  0  0  0  0  0  0  0  0  0
   30.1155   13.7269    2.3494 O   0  0  0  0  0  0  0  0  0  0  0  0
   29.2288   15.0021    4.7807 C   0  0  0  0  0  0  0  0  0  0  0  0
   27.8449   14.3693    4.8439 C   0  0  0  0  0  0  0  0  0  0  0  0
   26.5422   15.5810    5.1805 S   0  0  0  0  0  0  0  0  0  0  0  0
   25.3192   14.2483    5.2615 C   0  0  0  0  0  0  0  0  0  0  0  0
   25.5522   13.3065    6.4371 C   0  0  1  0  0  0  0  0  0  0  0  0
   26.2391   13.9863    7.4721 O   0  0  0  0  0  0  0  0  0  0  0  0
   24.2412   12.7925    7.0093 C   0  0  1  0  0  0  0  0  0  0  0  0
   24.1620   11.3958    6.8503 O   0  0  0  0  0  0  0  0  0  0  0  0
   24.2655   13.1467    8.4817 C   0  0  1  0  0  0  0  0  0  0  0  0
   24.1370   11.9810    9.2621 O   0  0  0  0  0  0  0  0  0  0  0  0
   25.6167   13.7953    8.7288 C   0  0  2  0  0  0  0  0  0  0  0  0
   30.3793   11.9515    3.4598 O   0  0  0  0  0  0  0  0  0  0  0  0
   24.0597   18.7863    8.2459 N   0  0  0  0  0  0  0  0  0  0  0  0
   24.0689   17.8005    7.2796 C   0  0  0  0  0  0  0  0  0  0  0  0
   24.5164   16.5307    7.5863 N   0  0  0  0  0  0  0  0  0  0  0  0
   24.9515   16.2424    8.8371 C   0  0  0  0  0  0  0  0  0  0  0  0
   24.9504   17.2204    9.8224 C   0  0  0  0  0  0  0  0  0  0  0  0
   24.5007   18.5006    9.5221 C   0  0  0  0  0  0  0  0  0  0  0  0
   24.4961   19.4455   10.4576 N   0  0  0  0  0  0  0  0  0  0  0  0
   25.4278   16.6669   10.9581 N   0  0  0  0  0  0  0  0  0  0  0  0
   25.7295   15.3703   10.7171 C   0  0  0  0  0  0  0  0  0  0  0  0
   25.4394   15.0924    9.4061 N   0  0  0  0  0  0  0  0  0  0  0  0
  2  1  1  6  0  0  0
  2  3  1  0  0  0  0
  2  5  1  0  0  0  0
  3  4  1  0  0  0  0
  3 16  1  0  0  0  0
  5  6  1  0  0  0  0
  6  7  1  0  0  0  0
  7  8  1  0  0  0  0
  9  8  1  6  0  0  0
  9 10  1  0  0  0  0
  9 11  1  0  0  0  0
 10 15  1  0  0  0  0
 11 12  1  1  0  0  0
 11 13  1  0  0  0  0
 13 14  1  1  0  0  0
 13 15  1  0  0  0  0
 15 26  1  6  0  0  0
 17 18  2  0  0  0  0
 17 22  1  0  0  0  0
 18 19  1  0  0  0  0
 19 20  2  0  0  0  0
 20 21  1  0  0  0  0
 20 26  1  0  0  0  0
 21 22  2  0  0  0  0
 21 24  1  0  0  0  0
 22 23  1  0  0  0  0
 24 25  2  0  0  0  0
 25 26  1  0  0  0  0
M  END
>  <CHROM.1>
-74.73205406,-173.26159871,170.72730712,-175.52961995,65.61987634,25.89672097
46.07985804,26.36308069,14.89599471,6.98770896,-0.58319625,0.71087633,0.27874588

>  <Name>
ligand

>  <RI>
0

>  <Rbt.Current_Directory>
/home/itssahil/PROJECTS/Mol_Feturizer/New_Systems/rnas/3NPQ

>  <Rbt.Executable>
rbdock ($Id: //depot/dev/client3/rdock/2013.1/src/exe/rbdock.cxx#4 $)

>  <Rbt.Library>
libRbt.so (2013.1, Build901 2013/11/27)

>  <Rbt.Parameter_File>
/export/apps/rDock/src/rDock_2013.1_src/data/scripts/dock_solv.prm

>  <Rbt.Receptor>
prm/blind_docking_100.prm

>  <SCORE>
-9.04538

>  <SCORE.INTER>
-7.56826

>  <SCORE.INTER.CONST>
1

>  <SCORE.INTER.POLAR>
0

>  <SCORE.INTER.ROT>
7

>  <SCORE.INTER.SOLV>
19.5031

>  <SCORE.INTER.VDW>
-19.8132

>  <SCORE.INTER.norm>
-0.291087

>  <SCORE.INTRA>
-1.47711

>  <SCORE.INTRA.DIHEDRAL>
-0.539033

>  <SCORE.INTRA.DIHEDRAL.0>
6.97628

>  <SCORE.INTRA.POLAR>
0

>  <SCORE.INTRA.POLAR.0>
0

>  <SCORE.INTRA.REPUL>
0

>  <SCORE.INTRA.REPUL.0>
0

>  <SCORE.INTRA.SOLV>
-0.626714

>  <SCORE.INTRA.SOLV.lig_0>
-49.8243

>  <SCORE.INTRA.VDW>
-0.894237

>  <SCORE.INTRA.VDW.0>
-1.35881

>  <SCORE.INTRA.norm>
-0.0568119

>  <SCORE.RESTR>
0

>  <SCORE.RESTR.CAVITY>
0

>  <SCORE.RESTR.norm>
0

>  <SCORE.SYSTEM>
0

>  <SCORE.SYSTEM.CONST>
0

>  <SCORE.SYSTEM.DIHEDRAL>
0

>  <SCORE.SYSTEM.SOLV>
0

>  <SCORE.SYSTEM.norm>
0

>  <SCORE.heavy>
26

>  <SCORE.norm>
-0.347899

>  <RMSD>
14.802

$$$$
ligand
 OpenBabel11021811483D
libRbt.so/2013.1/901 2013/11/27
 26 28  0  0  0  0  0  0  0  0999 V2000
   31.8770    1.1917    6.9770 N   0  0  0  0  0  0  0  0  0  0  0  0
   31.0092    2.3585    7.0778 C   0  0  2  0  0  0  0  0  0  0  0  0
   29.5445    1.9464    7.1715 C   0  0  0  0  0  0  0  0  0  0  0  0
   28.7939    2.4596    8.0004 O   0  0  0  0  0  0  0  0  0  0  0  0
   31.2166    3.2826    5.8844 C   0  0  0  0  0  0  0  0  0  0  0  0
   30.8276    4.7320    6.1444 C   0  0  0  0  0  0  0  0  0  0  0  0
   29.0337    4.9682    6.2107 S   0  0  0  0  0  0  0  0  0  0  0  0
   29.2759    6.7054    6.6598 C   0  0  0  0  0  0  0  0  0  0  0  0
   29.6390    7.5773    5.4635 C   0  0  1  0  0  0  0  0  0  0  0  0
   28.4668    8.1372    4.9001 O   0  0  0  0  0  0  0  0  0  0  0  0
   30.5545    8.7226    5.8644 C   0  0  1  0  0  0  0  0  0  0  0  0
   31.7990    8.5919    5.2192 O   0  0  0  0  0  0  0  0  0  0  0  0
   29.8608    9.9875    5.4031 C   0  0  1  0  0  0  0  0  0  0  0  0
   30.6900   10.6967    4.5122 O   0  0  0  0  0  0  0  0  0  0  0  0
   28.5985    9.5310    4.6918 C   0  0  2  0  0  0  0  0  0  0  0  0
   29.0772    1.0902    6.4195 O   0  0  0  0  0  0  0  0  0  0  0  0
   24.4864    9.2712    7.9461 N   0  0  0  0  0  0  0  0  0  0  0  0
   25.4356    8.3009    7.6952 C   0  0  0  0  0  0  0  0  0  0  0  0
   26.4582    8.5439    6.7996 N   0  0  0  0  0  0  0  0  0  0  0  0
   26.5374    9.7356    6.1589 C   0  0  0  0  0  0  0  0  0  0  0  0
   25.5921   10.7238    6.3974 C   0  0  0  0  0  0  0  0  0  0  0  0
   24.5603   10.4876    7.2979 C   0  0  0  0  0  0  0  0  0  0  0  0
   23.6487   11.4264    7.5335 N   0  0  0  0  0  0  0  0  0  0  0  0
   25.9081   11.7939    5.6365 N   0  0  0  0  0  0  0  0  0  0  0  0
   27.0237   11.5087    4.9262 C   0  0  0  0  0  0  0  0  0  0  0  0
   27.4256   10.2359    5.2396 N   0  0  0  0  0  0  0  0  0  0  0  0
  2  1  1  6  0  0  0
  2  3  1  0  0  0  0
  2  5  1  0  0  0  0
  3  4  1  0  0  0  0
  3 16  1  0  0  0  0
  5  6  1  0  0  0  0
  6  7  1  0  0  0  0
  7  8  1  0  0  0  0
  9  8  1  1  0  0  0
  9 10  1  0  0  0  0
  9 11  1  0  0  0  0
 10 15  1  0  0  0  0
 11 12  1  6  0  0  0
 11 13  1  0  0  0  0
 13 14  1  6  0  0  0
 13 15  1  0  0  0  0
 15 26  1  1  0  0  0
 17 18  2  0  0  0  0
 17 22  1  0  0  0  0
 18 19  1  0  0  0  0
 19 20  2  0  0  0  0
 20 21  1  0  0  0  0
 20 26  1  0  0  0  0
 21 22  2  0  0  0  0
 21 24  1  0  0  0  0
 22 23  1  0  0  0  0
 24 25  2  0  0  0  0
 25 26  1  0  0  0  0
M  END
>  <CHROM.1>
134.27693086,-156.24970487,-73.37866986,175.40473780,78.06030651,92.52563343
18.60672576,28.46960222,7.26335822,6.22219791,-1.05995545,0.38169595,-0.26947828

>  <Name>
ligand

>  <RI>
0

>  <Rbt.Current_Directory>
/home/itssahil/PROJECTS/Mol_Feturizer/New_Systems/rnas/3NPQ

>  <Rbt.Executable>
rbdock ($Id: //depot/dev/client3/rdock/2013.1/src/exe/rbdock.cxx#4 $)

>  <Rbt.Library>
libRbt.so (2013.1, Build901 2013/11/27)

>  <Rbt.Parameter_File>
/export/apps/rDock/src/rDock_2013.1_src/data/scripts/dock_solv.prm

>  <Rbt.Receptor>
prm/blind_docking_40.prm

>  <SCORE>
-4.66307

>  <SCORE.INTER>
-3.3819

>  <SCORE.INTER.CONST>
1

>  <SCORE.INTER.POLAR>
0

>  <SCORE.INTER.ROT>
7

>  <SCORE.INTER.SOLV>
12.6835

>  <SCORE.INTER.VDW>
-14.7491

>  <SCORE.INTER.norm>
-0.130073

>  <SCORE.INTRA>
-1.29596

>  <SCORE.INTRA.DIHEDRAL>
1.81063

>  <SCORE.INTRA.DIHEDRAL.0>
6.97628

>  <SCORE.INTRA.POLAR>
0

>  <SCORE.INTRA.POLAR.0>
0

>  <SCORE.INTRA.REPUL>
0

>  <SCORE.INTRA.REPUL.0>
0

>  <SCORE.INTRA.SOLV>
-0.626439

>  <SCORE.INTRA.SOLV.lig_0>
-49.8243

>  <SCORE.INTRA.VDW>
-1.88805

>  <SCORE.INTRA.VDW.0>
-1.35881

>  <SCORE.INTRA.norm>
-0.0498446

>  <SCORE.RESTR>
0.0147826

>  <SCORE.RESTR.CAVITY>
0.0147826

>  <SCORE.RESTR.norm>
0.00056856

>  <SCORE.SYSTEM>
0

>  <SCORE.SYSTEM.CONST>
0

>  <SCORE.SYSTEM.DIHEDRAL>
0

>  <SCORE.SYSTEM.SOLV>
0

>  <SCORE.SYSTEM.norm>
0

>  <SCORE.heavy>
26

>  <SCORE.norm>
-0.179349

>  <RMSD>
14.803

$$$$
ligand
 OpenBabel11021811483D
libRbt.so/2013.1/901 2013/11/27
 26 28  0  0  0  0  0  0  0  0999 V2000
   31.6317   18.9550   20.5331 N   0  0  0  0  0  0  0  0  0  0  0  0
   31.4328   19.9284   19.4666 C   0  0  2  0  0  0  0  0  0  0  0  0
   29.9491   20.1838   19.2267 C   0  0  0  0  0  0  0  0  0  0  0  0
   29.0927   19.6513   19.9315 O   0  0  0  0  0  0  0  0  0  0  0  0
   32.0959   19.4533   18.1799 C   0  0  0  0  0  0  0  0  0  0  0  0
   32.1587   20.5102   17.0850 C   0  0  0  0  0  0  0  0  0  0  0  0
   33.0825   21.9821   17.5931 S   0  0  0  0  0  0  0  0  0  0  0  0
   34.6153   21.2335   16.9860 C   0  0  0  0  0  0  0  0  0  0  0  0
   35.2243   20.2514   17.9799 C   0  0  1  0  0  0  0  0  0  0  0  0
   36.5184   19.8693   17.5505 O   0  0  0  0  0  0  0  0  0  0  0  0
   35.3568   20.8667   19.3634 C   0  0  1  0  0  0  0  0  0  0  0  0
   34.5513   20.1654   20.2808 O   0  0  0  0  0  0  0  0  0  0  0  0
   36.8169   20.7255   19.7408 C   0  0  1  0  0  0  0  0  0  0  0  0
   36.9390   19.9880   20.9347 O   0  0  0  0  0  0  0  0  0  0  0  0
   37.4699   19.9746   18.5931 C   0  0  2  0  0  0  0  0  0  0  0  0
   29.5722   20.9297   18.3220 O   0  0  0  0  0  0  0  0  0  0  0  0
   39.2538   24.2432   16.1104 N   0  0  0  0  0  0  0  0  0  0  0  0
   37.9435   23.8965   16.3722 C   0  0  0  0  0  0  0  0  0  0  0  0
   37.6555   22.7247   17.0436 N   0  0  0  0  0  0  0  0  0  0  0  0
   38.6559   21.9052   17.4493 C   0  0  0  0  0  0  0  0  0  0  0  0
   39.9799   22.2364   17.1949 C   0  0  0  0  0  0  0  0  0  0  0  0
   40.2783   23.4143   16.5206 C   0  0  0  0  0  0  0  0  0  0  0  0
   41.5427   23.7412   16.2705 N   0  0  0  0  0  0  0  0  0  0  0  0
   40.7585   21.2566   17.7026 N   0  0  0  0  0  0  0  0  0  0  0  0
   39.9644   20.3189   18.2687 C   0  0  0  0  0  0  0  0  0  0  0  0
   38.6580   20.7073   18.1195 N   0  0  0  0  0  0  0  0  0  0  0  0
  2  1  1  1  0  0  0
  2  3  1  0  0  0  0
  2  5  1  0  0  0  0
  3  4  1  0  0  0  0
  3 16  1  0  0  0  0
  5  6  1  0  0  0  0
  6  7  1  0  0  0  0
  7  8  1  0  0  0  0
  9  8  1  6  0  0  0
  9 10  1  0  0  0  0
  9 11  1  0  0  0  0
 10 15  1  0  0  0  0
 11 12  1  1  0  0  0
 11 13  1  0  0  0  0
 13 14  1  1  0  0  0
 13 15  1  0  0  0  0
 15 26  1  6  0  0  0
 17 18  2  0  0  0  0
 17 22  1  0  0  0  0
 18 19  1  0  0  0  0
 19 20  2  0  0  0  0
 20 21  1  0  0  0  0
 20 26  1  0  0  0  0
 21 22  2  0  0  0  0
 21 24  1  0  0  0  0
 22 23  1  0  0  0  0
 24 25  2  0  0  0  0
 25 26  1  0  0  0  0
M  END
>  <CHROM.1>
3.45102739,-169.53489596,59.70821750,89.27880867,-81.42078276,-170.47874358
49.05496938,35.56168100,21.11683977,18.19970442,-2.82133428,-0.03727681,-0.80335847

>  <Name>
ligand

>  <RI>
0

>  <Rbt.Current_Directory>
/home/itssahil/PROJECTS/Mol_Feturizer/New_Systems/rnas/3NPQ

>  <Rbt.Executable>
rbdock ($Id: //depot/dev/client3/rdock/2013.1/src/exe/rbdock.cxx#4 $)

>  <Rbt.Library>
libRbt.so (2013.1, Build901 2013/11/27)

>  <Rbt.Parameter_File>
/export/apps/rDock/src/rDock_2013.1_src/data/scripts/dock_solv.prm

>  <Rbt.Receptor>
prm/blind_docking_100.prm

>  <SCORE>
-11.8217

>  <SCORE.INTER>
-10.124

>  <SCORE.INTER.CONST>
1

>  <SCORE.INTER.POLAR>
0

>  <SCORE.INTER.ROT>
7

>  <SCORE.INTER.SOLV>
9.16542

>  <SCORE.INTER.VDW>
-18.0712

>  <SCORE.INTER.norm>
-0.389386

>  <SCORE.INTRA>
-1.69765

>  <SCORE.INTRA.DIHEDRAL>
-1.74223

>  <SCORE.INTRA.DIHEDRAL.0>
6.97628

>  <SCORE.INTRA.POLAR>
0

>  <SCORE.INTRA.POLAR.0>
0

>  <SCORE.INTRA.REPUL>
0

>  <SCORE.INTRA.REPUL.0>
0

>  <SCORE.INTRA.SOLV>
1.08868

>  <SCORE.INTRA.SOLV.lig_0>
-49.8243

>  <SCORE.INTRA.VDW>
-1.37088

>  <SCORE.INTRA.VDW.0>
-1.35881

>  <SCORE.INTRA.norm>
-0.0652943

>  <SCORE.RESTR>
0

>  <SCORE.RESTR.CAVITY>
0

>  <SCORE.RESTR.norm>
0

>  <SCORE.SYSTEM>
0

>  <SCORE.SYSTEM.CONST>
0

>  <SCORE.SYSTEM.DIHEDRAL>
0

>  <SCORE.SYSTEM.SOLV>
0

>  <SCORE.SYSTEM.norm>
0

>  <SCORE.heavy>
26

>  <SCORE.norm>
-0.454681

>  <RMSD>
14.815

$$$$
ligand
 OpenBabel11021811483D
libRbt.so/2013.1/901 2013/11/27
 26 28  0  0  0  0  0  0  0  0999 V2000
   33.0574   20.7526   18.2405 N   0  0  0  0  0  0  0  0  0  0  0  0
   32.5915   19.4303   18.6390 C   0  0  2  0  0  0  0  0  0  0  0  0
   31.5791   18.8813   17.6401 C   0  0  0  0  0  0  0  0  0  0  0  0
   31.5303   17.6789   17.3838 O   0  0  0  0  0  0  0  0  0  0  0  0
   31.9773   19.4783   20.0324 C   0  0  0  0  0  0  0  0  0  0  0  0
   32.9913   19.6636   21.1536 C   0  0  0  0  0  0  0  0  0  0  0  0
   33.8304   21.2660   21.0728 S   0  0  0  0  0  0  0  0  0  0  0  0
   35.4052   20.4648   21.4682 C   0  0  0  0  0  0  0  0  0  0  0  0
   35.8389   19.4627   20.4047 C   0  0  1  0  0  0  0  0  0  0  0  0
   35.7861   20.0642   19.1238 O   0  0  0  0  0  0  0  0  0  0  0  0
   37.2634   18.9850   20.6351 C   0  0  1  0  0  0  0  0  0  0  0  0
   37.2701   17.6018   20.8975 O   0  0  0  0  0  0  0  0  0  0  0  0
   38.0094   19.2731   19.3488 C   0  0  1  0  0  0  0  0  0  0  0  0
   38.5471   18.0815   18.8241 O   0  0  0  0  0  0  0  0  0  0  0  0
   36.9783   19.8473   18.3925 C   0  0  2  0  0  0  0  0  0  0  0  0
   30.7855   19.6280   17.0661 O   0  0  0  0  0  0  0  0  0  0  0  0
   41.1773   22.6941   17.0391 N   0  0  0  0  0  0  0  0  0  0  0  0
   41.1487   21.4277   17.5876 C   0  0  0  0  0  0  0  0  0  0  0  0
   39.9418   20.8252   17.8830 N   0  0  0  0  0  0  0  0  0  0  0  0
   38.7764   21.4724   17.6386 C   0  0  0  0  0  0  0  0  0  0  0  0
   38.7845   22.7467   17.0879 C   0  0  0  0  0  0  0  0  0  0  0  0
   39.9948   23.3597   16.7869 C   0  0  0  0  0  0  0  0  0  0  0  0
   40.0147   24.5804   16.2600 N   0  0  0  0  0  0  0  0  0  0  0  0
   37.5024   23.1491   16.9520 N   0  0  0  0  0  0  0  0  0  0  0  0
   36.6879   22.1665   17.4007 C   0  0  0  0  0  0  0  0  0  0  0  0
   37.4634   21.1203   17.8296 N   0  0  0  0  0  0  0  0  0  0  0  0
  2  1  1  6  0  0  0
  2  3  1  0  0  0  0
  2  5  1  0  0  0  0
  3  4  1  0  0  0  0
  3 16  1  0  0  0  0
  5  6  1  0  0  0  0
  6  7  1  0  0  0  0
  7  8  1  0  0  0  0
  9  8  1  1  0  0  0
  9 10  1  0  0  0  0
  9 11  1  0  0  0  0
 10 15  1  0  0  0  0
 11 12  1  6  0  0  0
 11 13  1  0  0  0  0
 13 14  1  6  0  0  0
 13 15  1  0  0  0  0
 15 26  1  1  0  0  0
 17 18  2  0  0  0  0
 17 22  1  0  0  0  0
 18 19  1  0  0  0  0
 19 20  2  0  0  0  0
 20 21  1  0  0  0  0
 20 26  1  0  0  0  0
 21 22  2  0  0  0  0
 21 24  1  0  0  0  0
 22 23  1  0  0  0  0
 24 25  2  0  0  0  0
 25 26  1  0  0  0  0
M  END
>  <CHROM.1>
145.23373973,-71.92918928,64.97955452,-137.90288014,62.95552232,50.65867276
146.99795148,36.13618936,20.50466403,18.71860680,2.72606239,0.10985278,2.32386908

>  <Name>
ligand

>  <RI>
0

>  <Rbt.Current_Directory>
/home/itssahil/PROJECTS/Mol_Feturizer/New_Systems/rnas/3NPQ

>  <Rbt.Executable>
rbdock ($Id: //depot/dev/client3/rdock/2013.1/src/exe/rbdock.cxx#4 $)

>  <Rbt.Library>
libRbt.so (2013.1, Build901 2013/11/27)

>  <Rbt.Parameter_File>
/export/apps/rDock/src/rDock_2013.1_src/data/scripts/dock_solv.prm

>  <Rbt.Receptor>
prm/blind_docking_60.prm

>  <SCORE>
-9.11577

>  <SCORE.INTER>
-9.39455

>  <SCORE.INTER.CONST>
1

>  <SCORE.INTER.POLAR>
0

>  <SCORE.INTER.ROT>
7

>  <SCORE.INTER.SOLV>
9.01304

>  <SCORE.INTER.VDW>
-17.534

>  <SCORE.INTER.norm>
-0.361329

>  <SCORE.INTRA>
0.278771

>  <SCORE.INTRA.DIHEDRAL>
-1.4194

>  <SCORE.INTRA.DIHEDRAL.0>
6.97628

>  <SCORE.INTRA.POLAR>
0

>  <SCORE.INTRA.POLAR.0>
0

>  <SCORE.INTRA.REPUL>
0

>  <SCORE.INTRA.REPUL.0>
0

>  <SCORE.INTRA.SOLV>
3.56175

>  <SCORE.INTRA.SOLV.lig_0>
-49.8243

>  <SCORE.INTRA.VDW>
-0.792401

>  <SCORE.INTRA.VDW.0>
-1.35881

>  <SCORE.INTRA.norm>
0.010722

>  <SCORE.RESTR>
0

>  <SCORE.RESTR.CAVITY>
0

>  <SCORE.RESTR.norm>
0

>  <SCORE.SYSTEM>
0

>  <SCORE.SYSTEM.CONST>
0

>  <SCORE.SYSTEM.DIHEDRAL>
0

>  <SCORE.SYSTEM.SOLV>
0

>  <SCORE.SYSTEM.norm>
0

>  <SCORE.heavy>
26

>  <SCORE.norm>
-0.350607

>  <RMSD>
14.830

$$$$
ligand
 OpenBabel11021811483D
libRbt.so/2013.1/901 2013/11/27
 26 28  0  0  0  0  0  0  0  0999 V2000
   33.2713   17.7344   19.7702 N   0  0  0  0  0  0  0  0  0  0  0  0
   33.4747   19.1776   19.7878 C   0  0  2  0  0  0  0  0  0  0  0  0
   33.1318   19.7634   21.1529 C   0  0  0  0  0  0  0  0  0  0  0  0
   33.7021   20.7701   21.5715 O   0  0  0  0  0  0  0  0  0  0  0  0
   32.6367   19.8480   18.7063 C   0  0  0  0  0  0  0  0  0  0  0  0
   32.9585   21.3213   18.4933 C   0  0  0  0  0  0  0  0  0  0  0  0
   34.5759   21.5738   17.7195 S   0  0  0  0  0  0  0  0  0  0  0  0
   34.5528   23.3106   18.2306 C   0  0  0  0  0  0  0  0  0  0  0  0
   35.9180   23.9776   18.1099 C   0  0  1  0  0  0  0  0  0  0  0  0
   36.8859   23.2302   18.8236 O   0  0  0  0  0  0  0  0  0  0  0  0
   36.3720   24.0627   16.6618 C   0  0  1  0  0  0  0  0  0  0  0  0
   36.4920   25.4108   16.2739 O   0  0  0  0  0  0  0  0  0  0  0  0
   37.7261   23.3858   16.6124 C   0  0  1  0  0  0  0  0  0  0  0  0
   38.6989   24.2841   16.1317 O   0  0  0  0  0  0  0  0  0  0  0  0
   38.0425   22.9891   18.0442 C   0  0  2  0  0  0  0  0  0  0  0  0
   32.2756   19.2433   21.8692 O   0  0  0  0  0  0  0  0  0  0  0  0
   37.1820   18.3744   20.3961 N   0  0  0  0  0  0  0  0  0  0  0  0
   36.5805   19.5887   20.6591 C   0  0  0  0  0  0  0  0  0  0  0  0
   36.9328   20.7102   19.9346 N   0  0  0  0  0  0  0  0  0  0  0  0
   37.8724   20.6285   18.9613 C   0  0  0  0  0  0  0  0  0  0  0  0
   38.4890   19.4164   18.6824 C   0  0  0  0  0  0  0  0  0  0  0  0
   38.1395   18.2828   19.4062 C   0  0  0  0  0  0  0  0  0  0  0  0
   38.7242   17.1167   19.1484 N   0  0  0  0  0  0  0  0  0  0  0  0
   39.3714   19.6196   17.6803 N   0  0  0  0  0  0  0  0  0  0  0  0
   39.3288   20.9231   17.3205 C   0  0  0  0  0  0  0  0  0  0  0  0
   38.4038   21.5614   18.1059 N   0  0  0  0  0  0  0  0  0  0  0  0
  2  1  1  1  0  0  0
  2  3  1  0  0  0  0
  2  5  1  0  0  0  0
  3  4  1  0  0  0  0
  3 16  1  0  0  0  0
  5  6  1  0  0  0  0
  6  7  1  0  0  0  0
  7  8  1  0  0  0  0
  9  8  1  6  0  0  0
  9 10  1  0  0  0  0
  9 11  1  0  0  0  0
 10 15  1  0  0  0  0
 11 12  1  1  0  0  0
 11 13  1  0  0  0  0
 13 14  1  1  0  0  0
 13 15  1  0  0  0  0
 15 26  1  6  0  0  0
 17 18  2  0  0  0  0
 17 22  1  0  0  0  0
 18 19  1  0  0  0  0
 19 20  2  0  0  0  0
 20 21  1  0  0  0  0
 20 26  1  0  0  0  0
 21 22  2  0  0  0  0
 21 24  1  0  0  0  0
 22 23  1  0  0  0  0
 24 25  2  0  0  0  0
 25 26  1  0  0  0  0
M  END
>  <CHROM.1>
150.13607001,-170.23299215,70.36083300,-163.39823449,165.79157343,-54.41935260
-10.85708499,36.09079936,21.09791636,18.72574568,-2.21775946,0.26158025,-0.48351535

>  <Name>
ligand

>  <RI>
0

>  <Rbt.Current_Directory>
/home/itssahil/PROJECTS/Mol_Feturizer/New_Systems/rnas/3NPQ

>  <Rbt.Executable>
rbdock ($Id: //depot/dev/client3/rdock/2013.1/src/exe/rbdock.cxx#4 $)

>  <Rbt.Library>
libRbt.so (2013.1, Build901 2013/11/27)

>  <Rbt.Parameter_File>
/export/apps/rDock/src/rDock_2013.1_src/data/scripts/dock_solv.prm

>  <Rbt.Receptor>
prm/blind_docking_80.prm

>  <SCORE>
-12.5965

>  <SCORE.INTER>
-8.01729

>  <SCORE.INTER.CONST>
1

>  <SCORE.INTER.POLAR>
0

>  <SCORE.INTER.ROT>
7

>  <SCORE.INTER.SOLV>
5.45848

>  <SCORE.INTER.VDW>
-15.431

>  <SCORE.INTER.norm>
-0.308357

>  <SCORE.INTRA>
-4.58109

>  <SCORE.INTRA.DIHEDRAL>
-2.6984

>  <SCORE.INTRA.DIHEDRAL.0>
6.97628

>  <SCORE.INTRA.POLAR>
0

>  <SCORE.INTRA.POLAR.0>
0

>  <SCORE.INTRA.REPUL>
0

>  <SCORE.INTRA.REPUL.0>
0

>  <SCORE.INTRA.SOLV>
-0.332576

>  <SCORE.INTRA.SOLV.lig_0>
-49.8243

>  <SCORE.INTRA.VDW>
-3.0656

>  <SCORE.INTRA.VDW.0>
-1.35881

>  <SCORE.INTRA.norm>
-0.176196

>  <SCORE.RESTR>
0.00188314

>  <SCORE.RESTR.CAVITY>
0.00188314

>  <SCORE.RESTR.norm>
7.24285e-05

>  <SCORE.SYSTEM>
0

>  <SCORE.SYSTEM.CONST>
0

>  <SCORE.SYSTEM.DIHEDRAL>
0

>  <SCORE.SYSTEM.SOLV>
0

>  <SCORE.SYSTEM.norm>
0

>  <SCORE.heavy>
26

>  <SCORE.norm>
-0.484481

>  <RMSD>
14.833

$$$$
ligand
 OpenBabel11021811483D
libRbt.so/2013.1/901 2013/11/27
 26 28  0  0  0  0  0  0  0  0999 V2000
   28.9180   19.7841   19.2947 N   0  0  0  0  0  0  0  0  0  0  0  0
   30.3671   19.9044   19.3959 C   0  0  2  0  0  0  0  0  0  0  0  0
   30.9855   20.2397   18.0435 C   0  0  0  0  0  0  0  0  0  0  0  0
   30.7513   19.5504   17.0515 O   0  0  0  0  0  0  0  0  0  0  0  0
   30.9726   18.6177   19.9426 C   0  0  0  0  0  0  0  0  0  0  0  0
   32.4749   18.6896   20.1826 C   0  0  0  0  0  0  0  0  0  0  0  0
   33.4339   18.3771   18.6790 S   0  0  0  0  0  0  0  0  0  0  0  0
   34.9699   18.4954   19.6302 C   0  0  0  0  0  0  0  0  0  0  0  0
   36.2068   18.2012   18.7894 C   0  0  1  0  0  0  0  0  0  0  0  0
   36.3292   19.1624   17.7569 O   0  0  0  0  0  0  0  0  0  0  0  0
   37.4755   18.2531   19.6250 C   0  0  1  0  0  0  0  0  0  0  0  0
   38.0876   16.9854   19.6491 O   0  0  0  0  0  0  0  0  0  0  0  0
   38.3817   19.2543   18.9393 C   0  0  1  0  0  0  0  0  0  0  0  0
   39.5986   18.6407   18.5829 O   0  0  0  0  0  0  0  0  0  0  0  0
   37.6365   19.7009   17.6932 C   0  0  2  0  0  0  0  0  0  0  0  0
   31.7340   21.2088   17.9111 O   0  0  0  0  0  0  0  0  0  0  0  0
   34.7311   23.8975   16.4627 N   0  0  0  0  0  0  0  0  0  0  0  0
   34.3909   22.5644   16.3501 C   0  0  0  0  0  0  0  0  0  0  0  0
   35.2882   21.5840   16.7250 N   0  0  0  0  0  0  0  0  0  0  0  0
   36.5099   21.9222   17.2046 C   0  0  0  0  0  0  0  0  0  0  0  0
   36.8707   23.2574   17.3246 C   0  0  0  0  0  0  0  0  0  0  0  0
   35.9731   24.2501   16.9505 C   0  0  0  0  0  0  0  0  0  0  0  0
   36.3082   25.5322   17.0602 N   0  0  0  0  0  0  0  0  0  0  0  0
   38.1250   23.3059   17.8230 N   0  0  0  0  0  0  0  0  0  0  0  0
   38.5644   22.0416   18.0198 C   0  0  0  0  0  0  0  0  0  0  0  0
   37.5738   21.1726   17.6410 N   0  0  0  0  0  0  0  0  0  0  0  0
  2  1  1  6  0  0  0
  2  3  1  0  0  0  0
  2  5  1  0  0  0  0
  3  4  1  0  0  0  0
  3 16  1  0  0  0  0
  5  6  1  0  0  0  0
  6  7  1  0  0  0  0
  7  8  1  0  0  0  0
  9  8  1  1  0  0  0
  9 10  1  0  0  0  0
  9 11  1  0  0  0  0
 10 15  1  0  0  0  0
 11 12  1  6  0  0  0
 11 13  1  0  0  0  0
 13 14  1  6  0  0  0
 13 15  1  0  0  0  0
 15 26  1  1  0  0  0
 17 18  2  0  0  0  0
 17 22  1  0  0  0  0
 18 19  1  0  0  0  0
 19 20  2  0  0  0  0
 20 21  1  0  0  0  0
 20 26  1  0  0  0  0
 21 22  2  0  0  0  0
 21 24  1  0  0  0  0
 22 23  1  0  0  0  0
 24 25  2  0  0  0  0
 25 26  1  0  0  0  0
M  END
>  <CHROM.1>
-53.41439031,-175.57650169,-83.29330587,-176.66076275,176.25418830,62.73662852
-23.59756347,35.00065928,20.37908336,18.22461376,2.86224349,-0.02341525,2.74830660

>  <Name>
ligand

>  <RI>
0

>  <Rbt.Current_Directory>
/home/itssahil/PROJECTS/Mol_Feturizer/New_Systems/rnas/3NPQ

>  <Rbt.Executable>
rbdock ($Id: //depot/dev/client3/rdock/2013.1/src/exe/rbdock.cxx#4 $)

>  <Rbt.Library>
libRbt.so (2013.1, Build901 2013/11/27)

>  <Rbt.Parameter_File>
/export/apps/rDock/src/rDock_2013.1_src/data/scripts/dock_solv.prm

>  <Rbt.Receptor>
prm/blind_docking_100.prm

>  <SCORE>
-7.96248

>  <SCORE.INTER>
-4.92466

>  <SCORE.INTER.CONST>
1

>  <SCORE.INTER.POLAR>
0

>  <SCORE.INTER.ROT>
7

>  <SCORE.INTER.SOLV>
7.23284

>  <SCORE.INTER.VDW>
-13.9607

>  <SCORE.INTER.norm>
-0.18941

>  <SCORE.INTRA>
-3.09893

>  <SCORE.INTRA.DIHEDRAL>
-2.3557

>  <SCORE.INTRA.DIHEDRAL.0>
6.97628

>  <SCORE.INTRA.POLAR>
0

>  <SCORE.INTRA.POLAR.0>
0

>  <SCORE.INTRA.REPUL>
0

>  <SCORE.INTRA.REPUL.0>
0

>  <SCORE.INTRA.SOLV>
-0.711943

>  <SCORE.INTRA.SOLV.lig_0>
-49.8243

>  <SCORE.INTRA.VDW>
-1.5651

>  <SCORE.INTRA.VDW.0>
-1.35881

>  <SCORE.INTRA.norm>
-0.119189

>  <SCORE.RESTR>
0.0611044

>  <SCORE.RESTR.CAVITY>
0.0611044

>  <SCORE.RESTR.norm>
0.00235017

>  <SCORE.SYSTEM>
0

>  <SCORE.SYSTEM.CONST>
0

>  <SCORE.SYSTEM.DIHEDRAL>
0

>  <SCORE.SYSTEM.SOLV>
0

>  <SCORE.SYSTEM.norm>
0

>  <SCORE.heavy>
26

>  <SCORE.norm>
-0.306249

>  <RMSD>
14.864

$$$$
ligand
 OpenBabel11021811483D
libRbt.so/2013.1/901 2013/11/27
 26 28  0  0  0  0  0  0  0  0999 V2000
   30.9995   19.5069   16.9742 N   0  0  0  0  0  0  0  0  0  0  0  0
   32.2161   20.0848   17.5316 C   0  0  2  0  0  0  0  0  0  0  0  0
   31.9023   20.9735   18.7298 C   0  0  0  0  0  0  0  0  0  0  0  0
   32.1336   22.1816   18.7001 O   0  0  0  0  0  0  0  0  0  0  0  0
   32.9626   20.8832   16.4702 C   0  0  0  0  0  0  0  0  0  0  0  0
   34.2567   21.5169   16.9636 C   0  0  0  0  0  0  0  0  0  0  0  0
   35.1742   22.3428   15.6390 S   0  0  0  0  0  0  0  0  0  0  0  0
   35.3696   23.8085   16.6840 C   0  0  0  0  0  0  0  0  0  0  0  0
   36.4761   23.6490   17.7202 C   0  0  1  0  0  0  0  0  0  0  0  0
   36.0686   22.7397   18.7262 O   0  0  0  0  0  0  0  0  0  0  0  0
   37.7526   23.1096   17.0958 C   0  0  1  0  0  0  0  0  0  0  0  0
   38.7840   24.0608   17.2119 O   0  0  0  0  0  0  0  0  0  0  0  0
   38.1039   21.8642   17.8830 C   0  0  1  0  0  0  0  0  0  0  0  0
   39.3872   21.9953   18.4488 O   0  0  0  0  0  0  0  0  0  0  0  0
   37.0573   21.7589   18.9790 C   0  0  2  0  0  0  0  0  0  0  0  0
   31.4094   20.5037   19.7560 O   0  0  0  0  0  0  0  0  0  0  0  0
   33.4225   18.6092   21.0849 N   0  0  0  0  0  0  0  0  0  0  0  0
   33.6972   19.9238   21.4039 C   0  0  0  0  0  0  0  0  0  0  0  0
   34.6985   20.6053   20.7407 N   0  0  0  0  0  0  0  0  0  0  0  0
   35.4203   19.9892   19.7731 C   0  0  0  0  0  0  0  0  0  0  0  0
   35.1594   18.6674   19.4384 C   0  0  0  0  0  0  0  0  0  0  0  0
   34.1528   17.9747   20.1004 C   0  0  0  0  0  0  0  0  0  0  0  0
   33.8947   16.7080   19.7889 N   0  0  0  0  0  0  0  0  0  0  0  0
   36.0148   18.3105   18.4561 N   0  0  0  0  0  0  0  0  0  0  0  0
   36.8062   19.3678   18.1627 C   0  0  0  0  0  0  0  0  0  0  0  0
   36.4494   20.4161   18.9712 N   0  0  0  0  0  0  0  0  0  0  0  0
  2  1  1  6  0  0  0
  2  3  1  0  0  0  0
  2  5  1  0  0  0  0
  3  4  1  0  0  0  0
  3 16  1  0  0  0  0
  5  6  1  0  0  0  0
  6  7  1  0  0  0  0
  7  8  1  0  0  0  0
  9  8  1  6  0  0  0
  9 10  1  0  0  0  0
  9 11  1  0  0  0  0
 10 15  1  0  0  0  0
 11 12  1  1  0  0  0
 11 13  1  0  0  0  0
 13 14  1  1  0  0  0
 13 15  1  0  0  0  0
 15 26  1  6  0  0  0
 17 18  2  0  0  0  0
 17 22  1  0  0  0  0
 18 19  1  0  0  0  0
 19 20  2  0  0  0  0
 20 21  1  0  0  0  0
 20 26  1  0  0  0  0
 21 22  2  0  0  0  0
 21 24  1  0  0  0  0
 22 23  1  0  0  0  0
 24 25  2  0  0  0  0
 25 26  1  0  0  0  0
M  END
>  <CHROM.1>
-116.07823367,-179.58251804,175.43305403,131.73794356,78.88421713,-71.67570107
-57.70707227,35.01225463,20.96718415,18.35363181,2.43521930,0.17858095,2.43193828

>  <Name>
ligand

>  <RI>
0

>  <Rbt.Current_Directory>
/home/itssahil/PROJECTS/Mol_Feturizer/New_Systems/rnas/3NPQ

>  <Rbt.Executable>
rbdock ($Id: //depot/dev/client3/rdock/2013.1/src/exe/rbdock.cxx#4 $)

>  <Rbt.Library>
libRbt.so (2013.1, Build901 2013/11/27)

>  <Rbt.Parameter_File>
/export/apps/rDock/src/rDock_2013.1_src/data/scripts/dock_solv.prm

>  <Rbt.Receptor>
prm/blind_docking_60.prm

>  <SCORE>
-9.88265

>  <SCORE.INTER>
-7.77831

>  <SCORE.INTER.CONST>
1

>  <SCORE.INTER.POLAR>
0

>  <SCORE.INTER.ROT>
7

>  <SCORE.INTER.SOLV>
5.87048

>  <SCORE.INTER.VDW>
-15.409

>  <SCORE.INTER.norm>
-0.299166

>  <SCORE.INTRA>
-2.10435

>  <SCORE.INTRA.DIHEDRAL>
-1.033

>  <SCORE.INTRA.DIHEDRAL.0>
6.97628

>  <SCORE.INTRA.POLAR>
0

>  <SCORE.INTRA.POLAR.0>
0

>  <SCORE.INTRA.REPUL>
0

>  <SCORE.INTRA.REPUL.0>
0

>  <SCORE.INTRA.SOLV>
-0.236905

>  <SCORE.INTRA.SOLV.lig_0>
-49.8243

>  <SCORE.INTRA.VDW>
-1.46939

>  <SCORE.INTRA.VDW.0>
-1.35881

>  <SCORE.INTRA.norm>
-0.0809363

>  <SCORE.RESTR>
0

>  <SCORE.RESTR.CAVITY>
0

>  <SCORE.RESTR.norm>
0

>  <SCORE.SYSTEM>
0

>  <SCORE.SYSTEM.CONST>
0

>  <SCORE.SYSTEM.DIHEDRAL>
0

>  <SCORE.SYSTEM.SOLV>
0

>  <SCORE.SYSTEM.norm>
0

>  <SCORE.heavy>
26

>  <SCORE.norm>
-0.380102

>  <RMSD>
14.888

$$$$
ligand
 OpenBabel11021811483D
libRbt.so/2013.1/901 2013/11/27
 26 28  0  0  0  0  0  0  0  0999 V2000
   33.6262   17.8189   19.9798 N   0  0  0  0  0  0  0  0  0  0  0  0
   33.9357   19.1586   19.4961 C   0  0  2  0  0  0  0  0  0  0  0  0
   33.6734   20.2050   20.5732 C   0  0  0  0  0  0  0  0  0  0  0  0
   33.1423   19.8969   21.6395 O   0  0  0  0  0  0  0  0  0  0  0  0
   33.1209   19.4771   18.2488 C   0  0  0  0  0  0  0  0  0  0  0  0
   33.5219   20.7737   17.5576 C   0  0  0  0  0  0  0  0  0  0  0  0
   35.1805   20.6914   16.8359 S   0  0  0  0  0  0  0  0  0  0  0  0
   35.1206   22.4673   16.4880 C   0  0  0  0  0  0  0  0  0  0  0  0
   35.9925   23.2823   17.4360 C   0  0  1  0  0  0  0  0  0  0  0  0
   35.8183   22.8264   18.7652 O   0  0  0  0  0  0  0  0  0  0  0  0
   37.4668   23.1523   17.0899 C   0  0  1  0  0  0  0  0  0  0  0  0
   37.9835   24.4052   16.7084 O   0  0  0  0  0  0  0  0  0  0  0  0
   38.1480   22.6733   18.3550 C   0  0  1  0  0  0  0  0  0  0  0  0
   39.1440   23.5899   18.7452 O   0  0  0  0  0  0  0  0  0  0  0  0
   37.0581   22.6044   19.4109 C   0  0  2  0  0  0  0  0  0  0  0  0
   33.9871   21.3836   20.4022 O   0  0  0  0  0  0  0  0  0  0  0  0
   38.0554   17.4816   18.8368 N   0  0  0  0  0  0  0  0  0  0  0  0
   38.1952   18.4859   17.9001 C   0  0  0  0  0  0  0  0  0  0  0  0
   37.8834   19.7906   18.2280 N   0  0  0  0  0  0  0  0  0  0  0  0
   37.4364   20.0953   19.4707 C   0  0  0  0  0  0  0  0  0  0  0  0
   37.2886   19.0992   20.4262 C   0  0  0  0  0  0  0  0  0  0  0  0
   37.6011   17.7839   20.1046 C   0  0  0  0  0  0  0  0  0  0  0  0
   37.4626   16.8214   21.0115 N   0  0  0  0  0  0  0  0  0  0  0  0
   36.8340   19.6750   21.5602 N   0  0  0  0  0  0  0  0  0  0  0  0
   36.6911   21.0033   21.3469 C   0  0  0  0  0  0  0  0  0  0  0  0
   37.0608   21.2790   20.0557 N   0  0  0  0  0  0  0  0  0  0  0  0
  2  1  1  1  0  0  0
  2  3  1  0  0  0  0
  2  5  1  0  0  0  0
  3  4  1  0  0  0  0
  3 16  1  0  0  0  0
  5  6  1  0  0  0  0
  6  7  1  0  0  0  0
  7  8  1  0  0  0  0
  9  8  1  6  0  0  0
  9 10  1  0  0  0  0
  9 11  1  0  0  0  0
 10 15  1  0  0  0  0
 11 12  1  1  0  0  0
 11 13  1  0  0  0  0
 13 14  1  1  0  0  0
 13 15  1  0  0  0  0
 15 26  1  6  0  0  0
 17 18  2  0  0  0  0
 17 22  1  0  0  0  0
 18 19  1  0  0  0  0
 19 20  2  0  0  0  0
 20 21  1  0  0  0  0
 20 26  1  0  0  0  0
 21 22  2  0  0  0  0
 21 24  1  0  0  0  0
 22 23  1  0  0  0  0
 24 25  2  0  0  0  0
 25 26  1  0  0  0  0
M  END
>  <CHROM.1>
-6.60310686,-171.65725160,66.96736442,-171.23321948,105.79505828,-43.98880462
88.39511999,36.13039311,20.68089650,18.97957625,1.92821671,0.03385461,2.58710020

>  <Name>
ligand

>  <RI>
0

>  <Rbt.Current_Directory>
/home/itssahil/PROJECTS/Mol_Feturizer/New_Systems/rnas/3NPQ

>  <Rbt.Executable>
rbdock ($Id: //depot/dev/client3/rdock/2013.1/src/exe/rbdock.cxx#4 $)

>  <Rbt.Library>
libRbt.so (2013.1, Build901 2013/11/27)

>  <Rbt.Parameter_File>
/export/apps/rDock/src/rDock_2013.1_src/data/scripts/dock_solv.prm

>  <Rbt.Receptor>
prm/blind_docking_60.prm

>  <SCORE>
-14.9587

>  <SCORE.INTER>
-10.1344

>  <SCORE.INTER.CONST>
1

>  <SCORE.INTER.POLAR>
0

>  <SCORE.INTER.ROT>
7

>  <SCORE.INTER.SOLV>
8.45426

>  <SCORE.INTER.VDW>
-17.841

>  <SCORE.INTER.norm>
-0.389785

>  <SCORE.INTRA>
-4.82425

>  <SCORE.INTRA.DIHEDRAL>
-0.779112

>  <SCORE.INTRA.DIHEDRAL.0>
6.97628

>  <SCORE.INTRA.POLAR>
0

>  <SCORE.INTRA.POLAR.0>
0

>  <SCORE.INTRA.REPUL>
0

>  <SCORE.INTRA.REPUL.0>
0

>  <SCORE.INTRA.SOLV>
0.538089

>  <SCORE.INTRA.SOLV.lig_0>
-49.8243

>  <SCORE.INTRA.VDW>
-4.70373

>  <SCORE.INTRA.VDW.0>
-1.35881

>  <SCORE.INTRA.norm>
-0.185548

>  <SCORE.RESTR>
0

>  <SCORE.RESTR.CAVITY>
0

>  <SCORE.RESTR.norm>
0

>  <SCORE.SYSTEM>
0

>  <SCORE.SYSTEM.CONST>
0

>  <SCORE.SYSTEM.DIHEDRAL>
0

>  <SCORE.SYSTEM.SOLV>
0

>  <SCORE.SYSTEM.norm>
0

>  <SCORE.heavy>
26

>  <SCORE.norm>
-0.575333

>  <RMSD>
14.892

$$$$
ligand
 OpenBabel11021811483D
libRbt.so/2013.1/901 2013/11/27
 26 28  0  0  0  0  0  0  0  0999 V2000
   32.1702   19.1826   19.3228 N   0  0  0  0  0  0  0  0  0  0  0  0
   31.5967   20.5052   19.1076 C   0  0  2  0  0  0  0  0  0  0  0  0
   30.2713   20.4133   18.3600 C   0  0  0  0  0  0  0  0  0  0  0  0
   30.2233   19.9908   17.2055 O   0  0  0  0  0  0  0  0  0  0  0  0
   32.5697   21.3903   18.3390 C   0  0  0  0  0  0  0  0  0  0  0  0
   33.0429   20.7955   17.0191 C   0  0  0  0  0  0  0  0  0  0  0  0
   34.8390   20.5737   16.9619 S   0  0  0  0  0  0  0  0  0  0  0  0
   34.6741   18.9902   17.8241 C   0  0  0  0  0  0  0  0  0  0  0  0
   35.4894   18.9330   19.1106 C   0  0  1  0  0  0  0  0  0  0  0  0
   36.8720   18.9074   18.8058 O   0  0  0  0  0  0  0  0  0  0  0  0
   35.2302   20.1450   19.9906 C   0  0  1  0  0  0  0  0  0  0  0  0
   34.6456   19.7407   21.2059 O   0  0  0  0  0  0  0  0  0  0  0  0
   36.5871   20.7665   20.2487 C   0  0  1  0  0  0  0  0  0  0  0  0
   36.8406   20.8172   21.6334 O   0  0  0  0  0  0  0  0  0  0  0  0
   37.5948   19.8581   19.5654 C   0  0  2  0  0  0  0  0  0  0  0  0
   29.2167   20.7594   18.8939 O   0  0  0  0  0  0  0  0  0  0  0  0
   37.9590   24.0017   16.3614 N   0  0  0  0  0  0  0  0  0  0  0  0
   36.8529   23.5607   17.0597 C   0  0  0  0  0  0  0  0  0  0  0  0
   36.9394   22.4413   17.8637 N   0  0  0  0  0  0  0  0  0  0  0  0
   38.1095   21.7661   17.9725 C   0  0  0  0  0  0  0  0  0  0  0  0
   39.2327   22.1937   17.2778 C   0  0  0  0  0  0  0  0  0  0  0  0
   39.1543   23.3198   16.4672 C   0  0  0  0  0  0  0  0  0  0  0  0
   40.2235   23.7380   15.7964 N   0  0  0  0  0  0  0  0  0  0  0  0
   40.2464   21.3490   17.5659 N   0  0  0  0  0  0  0  0  0  0  0  0
   39.7948   20.4027   18.4208 C   0  0  0  0  0  0  0  0  0  0  0  0
   38.4714   20.6482   18.6822 N   0  0  0  0  0  0  0  0  0  0  0  0
  2  1  1  6  0  0  0
  2  3  1  0  0  0  0
  2  5  1  0  0  0  0
  3  4  1  0  0  0  0
  3 16  1  0  0  0  0
  5  6  1  0  0  0  0
  6  7  1  0  0  0  0
  7  8  1  0  0  0  0
  9  8  1  6  0  0  0
  9 10  1  0  0  0  0
  9 11  1  0  0  0  0
 10 15  1  0  0  0  0
 11 12  1  1  0  0  0
 11 13  1  0  0  0  0
 13 14  1  1  0  0  0
 13 15  1  0  0  0  0
 15 26  1  6  0  0  0
 17 18  2  0  0  0  0
 17 22  1  0  0  0  0
 18 19  1  0  0  0  0
 19 20  2  0  0  0  0
 20 21  1  0  0  0  0
 20 26  1  0  0  0  0
 21 22  2  0  0  0  0
 21 24  1  0  0  0  0
 22 23  1  0  0  0  0
 24 25  2  0  0  0  0
 25 26  1  0  0  0  0
M  END
>  <CHROM.1>
-64.60770217,54.87514320,-120.01623607,83.77679226,-123.40478317,-69.23948721
84.95160936,35.58182220,20.90631345,18.32118578,-2.88625353,-0.11370857,-0.90309787

>  <Name>
ligand

>  <RI>
0

>  <Rbt.Current_Directory>
/home/itssahil/PROJECTS/Mol_Feturizer/New_Systems/rnas/3NPQ

>  <Rbt.Executable>
rbdock ($Id: //depot/dev/client3/rdock/2013.1/src/exe/rbdock.cxx#4 $)

>  <Rbt.Library>
libRbt.so (2013.1, Build901 2013/11/27)

>  <Rbt.Parameter_File>
/export/apps/rDock/src/rDock_2013.1_src/data/scripts/dock_solv.prm

>  <Rbt.Receptor>
prm/blind_docking_80.prm

>  <SCORE>
-6.03192

>  <SCORE.INTER>
-8.77663

>  <SCORE.INTER.CONST>
1

>  <SCORE.INTER.POLAR>
0

>  <SCORE.INTER.ROT>
7

>  <SCORE.INTER.SOLV>
9.5949

>  <SCORE.INTER.VDW>
-17.3161

>  <SCORE.INTER.norm>
-0.337563

>  <SCORE.INTRA>
2.73859

>  <SCORE.INTRA.DIHEDRAL>
4.82346

>  <SCORE.INTRA.DIHEDRAL.0>
6.97628

>  <SCORE.INTRA.POLAR>
0

>  <SCORE.INTRA.POLAR.0>
0

>  <SCORE.INTRA.REPUL>
0

>  <SCORE.INTRA.REPUL.0>
0

>  <SCORE.INTRA.SOLV>
4.59328

>  <SCORE.INTRA.SOLV.lig_0>
-49.8243

>  <SCORE.INTRA.VDW>
-1.96978

>  <SCORE.INTRA.VDW.0>
-1.35881

>  <SCORE.INTRA.norm>
0.10533

>  <SCORE.RESTR>
0.00612135

>  <SCORE.RESTR.CAVITY>
0.00612135

>  <SCORE.RESTR.norm>
0.000235437

>  <SCORE.SYSTEM>
0

>  <SCORE.SYSTEM.CONST>
0

>  <SCORE.SYSTEM.DIHEDRAL>
0

>  <SCORE.SYSTEM.SOLV>
0

>  <SCORE.SYSTEM.norm>
0

>  <SCORE.heavy>
26

>  <SCORE.norm>
-0.231997

>  <RMSD>
14.900

$$$$
ligand
 OpenBabel11021811483D
libRbt.so/2013.1/901 2013/11/27
 26 28  0  0  0  0  0  0  0  0999 V2000
   32.9645    1.1212    6.8403 N   0  0  0  0  0  0  0  0  0  0  0  0
   32.5817    1.7181    5.5668 C   0  0  2  0  0  0  0  0  0  0  0  0
   33.8080    2.0286    4.7159 C   0  0  0  0  0  0  0  0  0  0  0  0
   34.9216    2.1404    5.2269 O   0  0  0  0  0  0  0  0  0  0  0  0
   31.7691    2.9865    5.7946 C   0  0  0  0  0  0  0  0  0  0  0  0
   30.3360    2.7353    6.2449 C   0  0  0  0  0  0  0  0  0  0  0  0
   29.1167    3.4049    5.0860 S   0  0  0  0  0  0  0  0  0  0  0  0
   29.5333    5.0859    5.6140 C   0  0  0  0  0  0  0  0  0  0  0  0
   28.6626    5.5736    6.7661 C   0  0  1  0  0  0  0  0  0  0  0  0
   29.1694    6.7954    7.2713 O   0  0  0  0  0  0  0  0  0  0  0  0
   27.2295    5.8141    6.3202 C   0  0  1  0  0  0  0  0  0  0  0  0
   26.3613    4.9376    6.9985 O   0  0  0  0  0  0  0  0  0  0  0  0
   26.9153    7.2480    6.6935 C   0  0  1  0  0  0  0  0  0  0  0  0
   25.8056    7.2904    7.5600 O   0  0  0  0  0  0  0  0  0  0  0  0
   28.1527    7.7714    7.4024 C   0  0  2  0  0  0  0  0  0  0  0  0
   33.7134    2.1746    3.4967 O   0  0  0  0  0  0  0  0  0  0  0  0
   26.6468   12.3622    5.3471 N   0  0  0  0  0  0  0  0  0  0  0  0
   25.8508   11.3551    5.8545 C   0  0  0  0  0  0  0  0  0  0  0  0
   26.4232   10.2046    6.3601 N   0  0  0  0  0  0  0  0  0  0  0  0
   27.7702   10.0541    6.3608 C   0  0  0  0  0  0  0  0  0  0  0  0
   28.5875   11.0554    5.8543 C   0  0  0  0  0  0  0  0  0  0  0  0
   28.0194   12.2168    5.3446 C   0  0  0  0  0  0  0  0  0  0  0  0
   28.7924   13.1821    4.8560 N   0  0  0  0  0  0  0  0  0  0  0  0
   29.8693   10.6483    5.9782 N   0  0  0  0  0  0  0  0  0  0  0  0
   29.8830    9.4209    6.5471 C   0  0  0  0  0  0  0  0  0  0  0  0
   28.5887    9.0393    6.7901 N   0  0  0  0  0  0  0  0  0  0  0  0
  2  1  1  1  0  0  0
  2  3  1  0  0  0  0
  2  5  1  0  0  0  0
  3  4  1  0  0  0  0
  3 16  1  0  0  0  0
  5  6  1  0  0  0  0
  6  7  1  0  0  0  0
  7  8  1  0  0  0  0
  9  8  1  6  0  0  0
  9 10  1  0  0  0  0
  9 11  1  0  0  0  0
 10 15  1  0  0  0  0
 11 12  1  1  0  0  0
 11 13  1  0  0  0  0
 13 14  1  1  0  0  0
 13 15  1  0  0  0  0
 15 26  1  6  0  0  0
 17 18  2  0  0  0  0
 17 22  1  0  0  0  0
 18 19  1  0  0  0  0
 19 20  2  0  0  0  0
 20 21  1  0  0  0  0
 20 26  1  0  0  0  0
 21 22  2  0  0  0  0
 21 24  1  0  0  0  0
 22 23  1  0  0  0  0
 24 25  2  0  0  0  0
 25 26  1  0  0  0  0
M  END
>  <CHROM.1>
-20.63677070,-74.94690186,-119.46960632,-72.08367267,-91.15357334,170.74453681
158.75375969,29.31536417,6.57191267,5.99199406,1.01805393,-0.31280894,3.03428469

>  <Name>
ligand

>  <RI>
0

>  <Rbt.Current_Directory>
/home/itssahil/PROJECTS/Mol_Feturizer/New_Systems/rnas/3NPQ

>  <Rbt.Executable>
rbdock ($Id: //depot/dev/client3/rdock/2013.1/src/exe/rbdock.cxx#4 $)

>  <Rbt.Library>
libRbt.so (2013.1, Build901 2013/11/27)

>  <Rbt.Parameter_File>
/export/apps/rDock/src/rDock_2013.1_src/data/scripts/dock_solv.prm

>  <Rbt.Receptor>
prm/blind_docking_40.prm

>  <SCORE>
-10.6881

>  <SCORE.INTER>
-12.3457

>  <SCORE.INTER.CONST>
1

>  <SCORE.INTER.POLAR>
0

>  <SCORE.INTER.ROT>
7

>  <SCORE.INTER.SOLV>
5.24418

>  <SCORE.INTER.VDW>
-18.2452

>  <SCORE.INTER.norm>
-0.474833

>  <SCORE.INTRA>
1.65757

>  <SCORE.INTRA.DIHEDRAL>
3.88392

>  <SCORE.INTRA.DIHEDRAL.0>
6.97628

>  <SCORE.INTRA.POLAR>
0

>  <SCORE.INTRA.POLAR.0>
0

>  <SCORE.INTRA.REPUL>
0

>  <SCORE.INTRA.REPUL.0>
0

>  <SCORE.INTRA.SOLV>
-0.131525

>  <SCORE.INTRA.SOLV.lig_0>
-49.8243

>  <SCORE.INTRA.VDW>
-0.218631

>  <SCORE.INTRA.VDW.0>
-1.35881

>  <SCORE.INTRA.norm>
0.0637526

>  <SCORE.RESTR>
0

>  <SCORE.RESTR.CAVITY>
0

>  <SCORE.RESTR.norm>
0

>  <SCORE.SYSTEM>
0

>  <SCORE.SYSTEM.CONST>
0

>  <SCORE.SYSTEM.DIHEDRAL>
0

>  <SCORE.SYSTEM.SOLV>
0

>  <SCORE.SYSTEM.norm>
0

>  <SCORE.heavy>
26

>  <SCORE.norm>
-0.41108

>  <RMSD>
14.917

$$$$
ligand
 OpenBabel11021811483D
libRbt.so/2013.1/901 2013/11/27
 26 28  0  0  0  0  0  0  0  0999 V2000
   30.4399   19.4803   16.9494 N   0  0  0  0  0  0  0  0  0  0  0  0
   31.5895   19.9263   17.7267 C   0  0  2  0  0  0  0  0  0  0  0  0
   31.1731   20.3400   19.1336 C   0  0  0  0  0  0  0  0  0  0  0  0
   31.9529   20.2399   20.0801 O   0  0  0  0  0  0  0  0  0  0  0  0
   32.2898   21.0845   17.0273 C   0  0  0  0  0  0  0  0  0  0  0  0
   33.6542   21.4299   17.6094 C   0  0  0  0  0  0  0  0  0  0  0  0
   34.9891   20.4485   16.8793 S   0  0  0  0  0  0  0  0  0  0  0  0
   34.5267   19.0401   17.9190 C   0  0  0  0  0  0  0  0  0  0  0  0
   35.3599   18.9500   19.1921 C   0  0  1  0  0  0  0  0  0  0  0  0
   36.7369   18.8999   18.8660 O   0  0  0  0  0  0  0  0  0  0  0  0
   35.1390   20.1558   20.0908 C   0  0  1  0  0  0  0  0  0  0  0  0
   34.5643   19.7483   21.3098 O   0  0  0  0  0  0  0  0  0  0  0  0
   36.5121   20.7461   20.3359 C   0  0  1  0  0  0  0  0  0  0  0  0
   36.7874   20.7740   21.7171 O   0  0  0  0  0  0  0  0  0  0  0  0
   37.4905   19.8259   19.6262 C   0  0  2  0  0  0  0  0  0  0  0  0
   30.0465   20.7849   19.3566 O   0  0  0  0  0  0  0  0  0  0  0  0
   37.9238   24.0591   16.5506 N   0  0  0  0  0  0  0  0  0  0  0  0
   36.8239   23.6405   17.2720 C   0  0  0  0  0  0  0  0  0  0  0  0
   36.8893   22.4914   18.0350 N   0  0  0  0  0  0  0  0  0  0  0  0
   38.0325   21.7647   18.0804 C   0  0  0  0  0  0  0  0  0  0  0  0
   39.1491   22.1691   17.3614 C   0  0  0  0  0  0  0  0  0  0  0  0
   39.0918   23.3248   16.5919 C   0  0  0  0  0  0  0  0  0  0  0  0
   40.1548   23.7212   15.8983 N   0  0  0  0  0  0  0  0  0  0  0  0
   40.1348   21.2735   17.5857 N   0  0  0  0  0  0  0  0  0  0  0  0
   39.6721   20.3178   18.4241 C   0  0  0  0  0  0  0  0  0  0  0  0
   38.3699   20.6089   18.7396 N   0  0  0  0  0  0  0  0  0  0  0  0
  2  1  1  6  0  0  0
  2  3  1  0  0  0  0
  2  5  1  0  0  0  0
  3  4  1  0  0  0  0
  3 16  1  0  0  0  0
  5  6  1  0  0  0  0
  6  7  1  0  0  0  0
  7  8  1  0  0  0  0
  9  8  1  6  0  0  0
  9 10  1  0  0  0  0
  9 11  1  0  0  0  0
 10 15  1  0  0  0  0
 11 12  1  1  0  0  0
 11 13  1  0  0  0  0
 13 14  1  1  0  0  0
 13 15  1  0  0  0  0
 15 26  1  6  0  0  0
 17 18  2  0  0  0  0
 17 22  1  0  0  0  0
 18 19  1  0  0  0  0
 19 20  2  0  0  0  0
 20 21  1  0  0  0  0
 20 26  1  0  0  0  0
 21 22  2  0  0  0  0
 21 24  1  0  0  0  0
 22 23  1  0  0  0  0
 24 25  2  0  0  0  0
 25 26  1  0  0  0  0
M  END
>  <CHROM.1>
151.04380700,-168.12396643,86.95987791,-78.35875505,-96.07066214,-56.00316028
87.01034134,35.62360610,20.90571188,18.38040475,2.86076084,0.14703568,2.16586571

>  <Name>
ligand

>  <RI>
0

>  <Rbt.Current_Directory>
/home/itssahil/PROJECTS/Mol_Feturizer/New_Systems/rnas/3NPQ

>  <Rbt.Executable>
rbdock ($Id: //depot/dev/client3/rdock/2013.1/src/exe/rbdock.cxx#4 $)

>  <Rbt.Library>
libRbt.so (2013.1, Build901 2013/11/27)

>  <Rbt.Parameter_File>
/export/apps/rDock/src/rDock_2013.1_src/data/scripts/dock_solv.prm

>  <Rbt.Receptor>
prm/blind_docking_100.prm

>  <SCORE>
-10.6121

>  <SCORE.INTER>
-8.60717

>  <SCORE.INTER.CONST>
1

>  <SCORE.INTER.POLAR>
0

>  <SCORE.INTER.ROT>
7

>  <SCORE.INTER.SOLV>
11.1547

>  <SCORE.INTER.VDW>
-17.723

>  <SCORE.INTER.norm>
-0.331045

>  <SCORE.INTRA>
-2.00492

>  <SCORE.INTRA.DIHEDRAL>
0.689789

>  <SCORE.INTRA.DIHEDRAL.0>
6.97628

>  <SCORE.INTRA.POLAR>
0

>  <SCORE.INTRA.POLAR.0>
0

>  <SCORE.INTRA.REPUL>
0

>  <SCORE.INTRA.REPUL.0>
0

>  <SCORE.INTRA.SOLV>
0.160573

>  <SCORE.INTRA.SOLV.lig_0>
-49.8243

>  <SCORE.INTRA.VDW>
-2.4301

>  <SCORE.INTRA.VDW.0>
-1.35881

>  <SCORE.INTRA.norm>
-0.0771121

>  <SCORE.RESTR>
0

>  <SCORE.RESTR.CAVITY>
0

>  <SCORE.RESTR.norm>
0

>  <SCORE.SYSTEM>
0

>  <SCORE.SYSTEM.CONST>
0

>  <SCORE.SYSTEM.DIHEDRAL>
0

>  <SCORE.SYSTEM.SOLV>
0

>  <SCORE.SYSTEM.norm>
0

>  <SCORE.heavy>
26

>  <SCORE.norm>
-0.408157

>  <RMSD>
14.926

$$$$
ligand
 OpenBabel11021811483D
libRbt.so/2013.1/901 2013/11/27
 26 28  0  0  0  0  0  0  0  0999 V2000
   28.1629   14.3756    2.5686 N   0  0  0  0  0  0  0  0  0  0  0  0
   29.6158   14.2833    2.6400 C   0  0  2  0  0  0  0  0  0  0  0  0
   30.1774   13.5316    1.4386 C   0  0  0  0  0  0  0  0  0  0  0  0
   29.4418   13.1530    0.5279 O   0  0  0  0  0  0  0  0  0  0  0  0
   30.0442   13.5985    3.9317 C   0  0  0  0  0  0  0  0  0  0  0  0
   29.7532   14.4054    5.1903 C   0  0  0  0  0  0  0  0  0  0  0  0
   27.9796   14.5664    5.5170 S   0  0  0  0  0  0  0  0  0  0  0  0
   27.8866   12.7992    5.8999 C   0  0  0  0  0  0  0  0  0  0  0  0
   26.4980   12.3687    6.3582 C   0  0  1  0  0  0  0  0  0  0  0  0
   26.1742   13.0043    7.5814 O   0  0  0  0  0  0  0  0  0  0  0  0
   25.4325   12.7463    5.3422 C   0  0  1  0  0  0  0  0  0  0  0  0
   24.8239   11.5848    4.8295 O   0  0  0  0  0  0  0  0  0  0  0  0
   24.4149   13.5748    6.0986 C   0  0  1  0  0  0  0  0  0  0  0  0
   23.1432   12.9746    6.0142 O   0  0  0  0  0  0  0  0  0  0  0  0
   24.8888   13.5954    7.5417 C   0  0  2  0  0  0  0  0  0  0  0  0
   31.3810   13.2855    1.3506 O   0  0  0  0  0  0  0  0  0  0  0  0
   22.5611   18.3006    7.6405 N   0  0  0  0  0  0  0  0  0  0  0  0
   22.1332   17.1528    7.0042 C   0  0  0  0  0  0  0  0  0  0  0  0
   22.8789   15.9935    7.0861 N   0  0  0  0  0  0  0  0  0  0  0  0
   24.0370   15.9734    7.7898 C   0  0  0  0  0  0  0  0  0  0  0  0
   24.4843   17.1178    8.4361 C   0  0  0  0  0  0  0  0  0  0  0  0
   23.7393   18.2883    8.3594 C   0  0  0  0  0  0  0  0  0  0  0  0
   24.1584   19.3907    8.9737 N   0  0  0  0  0  0  0  0  0  0  0  0
   25.6478   16.8188    9.0533 N   0  0  0  0  0  0  0  0  0  0  0  0
   25.9462   15.5210    8.8147 C   0  0  0  0  0  0  0  0  0  0  0  0
   24.9565   14.9836    8.0326 N   0  0  0  0  0  0  0  0  0  0  0  0
  2  1  1  6  0  0  0
  2  3  1  0  0  0  0
  2  5  1  0  0  0  0
  3  4  1  0  0  0  0
  3 16  1  0  0  0  0
  5  6  1  0  0  0  0
  6  7  1  0  0  0  0
  7  8  1  0  0  0  0
  9  8  1  6  0  0  0
  9 10  1  0  0  0  0
  9 11  1  0  0  0  0
 10 15  1  0  0  0  0
 11 12  1  1  0  0  0
 11 13  1  0  0  0  0
 13 14  1  1  0  0  0
 13 15  1  0  0  0  0
 15 26  1  6  0  0  0
 17 18  2  0  0  0  0
 17 22  1  0  0  0  0
 18 19  1  0  0  0  0
 19 20  2  0  0  0  0
 20 21  1  0  0  0  0
 20 26  1  0  0  0  0
 21 22  2  0  0  0  0
 21 24  1  0  0  0  0
 22 23  1  0  0  0  0
 24 25  2  0  0  0  0
 25 26  1  0  0  0  0
M  END
>  <CHROM.1>
3.95013511,-67.53041644,67.75196013,68.85301600,176.55765486,-64.34182044
159.88562121,26.31173497,14.65563928,5.82551535,-0.63638702,0.57490369,0.39126357

>  <Name>
ligand

>  <RI>
0

>  <Rbt.Current_Directory>
/home/itssahil/PROJECTS/Mol_Feturizer/New_Systems/rnas/3NPQ

>  <Rbt.Executable>
rbdock ($Id: //depot/dev/client3/rdock/2013.1/src/exe/rbdock.cxx#4 $)

>  <Rbt.Library>
libRbt.so (2013.1, Build901 2013/11/27)

>  <Rbt.Parameter_File>
/export/apps/rDock/src/rDock_2013.1_src/data/scripts/dock_solv.prm

>  <Rbt.Receptor>
prm/blind_docking_100.prm

>  <SCORE>
-12.0667

>  <SCORE.INTER>
-11.1074

>  <SCORE.INTER.CONST>
1

>  <SCORE.INTER.POLAR>
0

>  <SCORE.INTER.ROT>
7

>  <SCORE.INTER.SOLV>
16.1965

>  <SCORE.INTER.VDW>
-21.0704

>  <SCORE.INTER.norm>
-0.427206

>  <SCORE.INTRA>
-0.959312

>  <SCORE.INTRA.DIHEDRAL>
-3.63899

>  <SCORE.INTRA.DIHEDRAL.0>
6.97628

>  <SCORE.INTRA.POLAR>
0

>  <SCORE.INTRA.POLAR.0>
0

>  <SCORE.INTRA.REPUL>
0

>  <SCORE.INTRA.REPUL.0>
0

>  <SCORE.INTRA.SOLV>
2.26119

>  <SCORE.INTRA.SOLV.lig_0>
-49.8243

>  <SCORE.INTRA.VDW>
-0.270414

>  <SCORE.INTRA.VDW.0>
-1.35881

>  <SCORE.INTRA.norm>
-0.0368966

>  <SCORE.RESTR>
0

>  <SCORE.RESTR.CAVITY>
0

>  <SCORE.RESTR.norm>
0

>  <SCORE.SYSTEM>
0

>  <SCORE.SYSTEM.CONST>
0

>  <SCORE.SYSTEM.DIHEDRAL>
0

>  <SCORE.SYSTEM.SOLV>
0

>  <SCORE.SYSTEM.norm>
0

>  <SCORE.heavy>
26

>  <SCORE.norm>
-0.464103

>  <RMSD>
14.939

$$$$
ligand
 OpenBabel11021811483D
libRbt.so/2013.1/901 2013/11/27
 26 28  0  0  0  0  0  0  0  0999 V2000
   29.6224   19.4244   17.9689 N   0  0  0  0  0  0  0  0  0  0  0  0
   30.6497   19.4516   19.0026 C   0  0  2  0  0  0  0  0  0  0  0  0
   30.0371   19.2901   20.3892 C   0  0  0  0  0  0  0  0  0  0  0  0
   28.9389   19.7762   20.6569 O   0  0  0  0  0  0  0  0  0  0  0  0
   31.4450   20.7490   18.9307 C   0  0  0  0  0  0  0  0  0  0  0  0
   32.2732   20.9020   17.6616 C   0  0  0  0  0  0  0  0  0  0  0  0
   33.2523   22.4250   17.6510 S   0  0  0  0  0  0  0  0  0  0  0  0
   34.6843   21.5038   17.0354 C   0  0  0  0  0  0  0  0  0  0  0  0
   35.2456   20.5311   18.0659 C   0  0  1  0  0  0  0  0  0  0  0  0
   36.5163   20.0655   17.6492 O   0  0  0  0  0  0  0  0  0  0  0  0
   35.4157   21.1926   19.4238 C   0  0  1  0  0  0  0  0  0  0  0  0
   34.5787   20.5708   20.3699 O   0  0  0  0  0  0  0  0  0  0  0  0
   36.8680   20.9904   19.8033 C   0  0  1  0  0  0  0  0  0  0  0  0
   36.9566   20.2949   21.0252 O   0  0  0  0  0  0  0  0  0  0  0  0
   37.4763   20.1619   18.6847 C   0  0  2  0  0  0  0  0  0  0  0  0
   30.6264   18.6690   21.2744 O   0  0  0  0  0  0  0  0  0  0  0  0
   39.4656   24.2031   15.9868 N   0  0  0  0  0  0  0  0  0  0  0  0
   38.1396   23.9316   16.2583 C   0  0  0  0  0  0  0  0  0  0  0  0
   37.7951   22.8124   16.9902 N   0  0  0  0  0  0  0  0  0  0  0  0
   38.7549   21.9712   17.4462 C   0  0  0  0  0  0  0  0  0  0  0  0
   40.0938   22.2269   17.1829 C   0  0  0  0  0  0  0  0  0  0  0  0
   40.4490   23.3515   16.4479 C   0  0  0  0  0  0  0  0  0  0  0  0
   41.7282   23.6060   16.1889 N   0  0  0  0  0  0  0  0  0  0  0  0
   40.8242   21.2414   17.7480 N   0  0  0  0  0  0  0  0  0  0  0  0
   39.9854   20.3732   18.3587 C   0  0  0  0  0  0  0  0  0  0  0  0
   38.6989   20.8125   18.1801 N   0  0  0  0  0  0  0  0  0  0  0  0
  2  1  1  6  0  0  0
  2  3  1  0  0  0  0
  2  5  1  0  0  0  0
  3  4  1  0  0  0  0
  3 16  1  0  0  0  0
  5  6  1  0  0  0  0
  6  7  1  0  0  0  0
  7  8  1  0  0  0  0
  9  8  1  6  0  0  0
  9 10  1  0  0  0  0
  9 11  1  0  0  0  0
 10 15  1  0  0  0  0
 11 12  1  1  0  0  0
 11 13  1  0  0  0  0
 13 14  1  1  0  0  0
 13 15  1  0  0  0  0
 15 26  1  6  0  0  0
 17 18  2  0  0  0  0
 17 22  1  0  0  0  0
 18 19  1  0  0  0  0
 19 20  2  0  0  0  0
 20 21  1  0  0  0  0
 20 26  1  0  0  0  0
 21 22  2  0  0  0  0
 21 24  1  0  0  0  0
 22 23  1  0  0  0  0
 24 25  2  0  0  0  0
 25 26  1  0  0  0  0
M  END
>  <CHROM.1>
-35.32849044,-65.90658462,-177.65677563,135.75452341,-68.21953121,-167.13830843
48.01683182,35.54761401,21.18734182,18.35130918,2.77134440,0.04088517,2.27673524

>  <Name>
ligand

>  <RI>
0

>  <Rbt.Current_Directory>
/home/itssahil/PROJECTS/Mol_Feturizer/New_Systems/rnas/3NPQ

>  <Rbt.Executable>
rbdock ($Id: //depot/dev/client3/rdock/2013.1/src/exe/rbdock.cxx#4 $)

>  <Rbt.Library>
libRbt.so (2013.1, Build901 2013/11/27)

>  <Rbt.Parameter_File>
/export/apps/rDock/src/rDock_2013.1_src/data/scripts/dock_solv.prm

>  <Rbt.Receptor>
prm/blind_docking_100.prm

>  <SCORE>
-11.6

>  <SCORE.INTER>
-9.72135

>  <SCORE.INTER.CONST>
1

>  <SCORE.INTER.POLAR>
0

>  <SCORE.INTER.ROT>
7

>  <SCORE.INTER.SOLV>
8.41218

>  <SCORE.INTER.VDW>
-17.5516

>  <SCORE.INTER.norm>
-0.373898

>  <SCORE.INTRA>
-1.87866

>  <SCORE.INTRA.DIHEDRAL>
-1.43974

>  <SCORE.INTRA.DIHEDRAL.0>
6.97628

>  <SCORE.INTRA.POLAR>
0

>  <SCORE.INTRA.POLAR.0>
0

>  <SCORE.INTRA.REPUL>
0

>  <SCORE.INTRA.REPUL.0>
0

>  <SCORE.INTRA.SOLV>
0.236042

>  <SCORE.INTRA.SOLV.lig_0>
-49.8243

>  <SCORE.INTRA.VDW>
-1.27681

>  <SCORE.INTRA.VDW.0>
-1.35881

>  <SCORE.INTRA.norm>
-0.0722563

>  <SCORE.RESTR>
0

>  <SCORE.RESTR.CAVITY>
0

>  <SCORE.RESTR.norm>
0

>  <SCORE.SYSTEM>
0

>  <SCORE.SYSTEM.CONST>
0

>  <SCORE.SYSTEM.DIHEDRAL>
0

>  <SCORE.SYSTEM.SOLV>
0

>  <SCORE.SYSTEM.norm>
0

>  <SCORE.heavy>
26

>  <SCORE.norm>
-0.446154

>  <RMSD>
14.963

$$$$
ligand
 OpenBabel11021811483D
libRbt.so/2013.1/901 2013/11/27
 26 28  0  0  0  0  0  0  0  0999 V2000
   33.9365    0.8156    8.6037 N   0  0  0  0  0  0  0  0  0  0  0  0
   33.7072    0.5282    7.1932 C   0  0  2  0  0  0  0  0  0  0  0  0
   34.7693   -0.4191    6.6467 C   0  0  0  0  0  0  0  0  0  0  0  0
   35.8483   -0.5600    7.2210 O   0  0  0  0  0  0  0  0  0  0  0  0
   33.6898    1.8175    6.3818 C   0  0  0  0  0  0  0  0  0  0  0  0
   32.6139    2.8073    6.8089 C   0  0  0  0  0  0  0  0  0  0  0  0
   32.4897    4.2241    5.6882 S   0  0  0  0  0  0  0  0  0  0  0  0
   31.4805    5.1038    6.9071 C   0  0  0  0  0  0  0  0  0  0  0  0
   30.0325    4.6282    6.9255 C   0  0  1  0  0  0  0  0  0  0  0  0
   29.2438    5.5108    7.7027 O   0  0  0  0  0  0  0  0  0  0  0  0
   29.4406    4.5863    5.5261 C   0  0  1  0  0  0  0  0  0  0  0  0
   29.1046    3.2621    5.1856 O   0  0  0  0  0  0  0  0  0  0  0  0
   28.1915    5.4413    5.5796 C   0  0  1  0  0  0  0  0  0  0  0  0
   27.0665    4.6781    5.2107 O   0  0  0  0  0  0  0  0  0  0  0  0
   28.0639    5.8972    7.0230 C   0  0  2  0  0  0  0  0  0  0  0  0
   34.5726   -1.0664    5.6176 O   0  0  0  0  0  0  0  0  0  0  0  0
   30.4762   10.5533    6.7617 N   0  0  0  0  0  0  0  0  0  0  0  0
   31.0373    9.2969    6.6512 C   0  0  0  0  0  0  0  0  0  0  0  0
   30.2439    8.1707    6.7455 N   0  0  0  0  0  0  0  0  0  0  0  0
   28.9092    8.2893    6.9487 C   0  0  0  0  0  0  0  0  0  0  0  0
   28.3265    9.5441    7.0631 C   0  0  0  0  0  0  0  0  0  0  0  0
   29.1177   10.6826    6.9684 C   0  0  0  0  0  0  0  0  0  0  0  0
   28.5706   11.8896    7.0773 N   0  0  0  0  0  0  0  0  0  0  0  0
   27.0013    9.3709    7.2580 N   0  0  0  0  0  0  0  0  0  0  0  0
   26.7327    8.0450    7.2700 C   0  0  0  0  0  0  0  0  0  0  0  0
   27.9059    7.3616    7.0794 N   0  0  0  0  0  0  0  0  0  0  0  0
  2  1  1  1  0  0  0
  2  3  1  0  0  0  0
  2  5  1  0  0  0  0
  3  4  1  0  0  0  0
  3 16  1  0  0  0  0
  5  6  1  0  0  0  0
  6  7  1  0  0  0  0
  7  8  1  0  0  0  0
  9  8  1  6  0  0  0
  9 10  1  0  0  0  0
  9 11  1  0  0  0  0
 10 15  1  0  0  0  0
 11 12  1  1  0  0  0
 11 13  1  0  0  0  0
 13 14  1  1  0  0  0
 13 15  1  0  0  0  0
 15 26  1  6  0  0  0
 17 18  2  0  0  0  0
 17 22  1  0  0  0  0
 18 19  1  0  0  0  0
 19 20  2  0  0  0  0
 20 21  1  0  0  0  0
 20 26  1  0  0  0  0
 21 22  2  0  0  0  0
 21 24  1  0  0  0  0
 22 23  1  0  0  0  0
 24 25  2  0  0  0  0
 25 26  1  0  0  0  0
M  END
>  <CHROM.1>
-19.87488362,-59.68095707,-172.60316383,-166.38475694,-78.29732512,-168.96873049
40.08013274,30.62770633,5.21096268,6.62806097,-0.97955386,-0.17787799,0.14109903

>  <Name>
ligand

>  <RI>
0

>  <Rbt.Current_Directory>
/home/itssahil/PROJECTS/Mol_Feturizer/New_Systems/rnas/3NPQ

>  <Rbt.Executable>
rbdock ($Id: //depot/dev/client3/rdock/2013.1/src/exe/rbdock.cxx#4 $)

>  <Rbt.Library>
libRbt.so (2013.1, Build901 2013/11/27)

>  <Rbt.Parameter_File>
/export/apps/rDock/src/rDock_2013.1_src/data/scripts/dock_solv.prm

>  <Rbt.Receptor>
prm/blind_docking_40.prm

>  <SCORE>
-7.78976

>  <SCORE.INTER>
-5.30918

>  <SCORE.INTER.CONST>
1

>  <SCORE.INTER.POLAR>
0

>  <SCORE.INTER.ROT>
7

>  <SCORE.INTER.SOLV>
8.48436

>  <SCORE.INTER.VDW>
-14.6342

>  <SCORE.INTER.norm>
-0.204199

>  <SCORE.INTRA>
-2.48058

>  <SCORE.INTRA.DIHEDRAL>
-2.87381

>  <SCORE.INTRA.DIHEDRAL.0>
6.97628

>  <SCORE.INTRA.POLAR>
0

>  <SCORE.INTRA.POLAR.0>
0

>  <SCORE.INTRA.REPUL>
0

>  <SCORE.INTRA.REPUL.0>
0

>  <SCORE.INTRA.SOLV>
0.0563154

>  <SCORE.INTRA.SOLV.lig_0>
-49.8243

>  <SCORE.INTRA.VDW>
-1.07183

>  <SCORE.INTRA.VDW.0>
-1.35881

>  <SCORE.INTRA.norm>
-0.0954069

>  <SCORE.RESTR>
0

>  <SCORE.RESTR.CAVITY>
0

>  <SCORE.RESTR.norm>
0

>  <SCORE.SYSTEM>
0

>  <SCORE.SYSTEM.CONST>
0

>  <SCORE.SYSTEM.DIHEDRAL>
0

>  <SCORE.SYSTEM.SOLV>
0

>  <SCORE.SYSTEM.norm>
0

>  <SCORE.heavy>
26

>  <SCORE.norm>
-0.299606

>  <RMSD>
14.964

$$$$
ligand
 OpenBabel11021811483D
libRbt.so/2013.1/901 2013/11/27
 26 28  0  0  0  0  0  0  0  0999 V2000
   34.3143   18.3581   20.1487 N   0  0  0  0  0  0  0  0  0  0  0  0
   32.9770   18.9113   20.3224 C   0  0  2  0  0  0  0  0  0  0  0  0
   32.3139   19.1767   18.9756 C   0  0  0  0  0  0  0  0  0  0  0  0
   31.1574   19.5915   18.9098 O   0  0  0  0  0  0  0  0  0  0  0  0
   33.0328   20.1960   21.1394 C   0  0  0  0  0  0  0  0  0  0  0  0
   34.0021   21.2376   20.5961 C   0  0  0  0  0  0  0  0  0  0  0  0
   33.4718   21.9151   19.0029 S   0  0  0  0  0  0  0  0  0  0  0  0
   34.0739   23.5504   19.4944 C   0  0  0  0  0  0  0  0  0  0  0  0
   35.5532   23.7500   19.1858 C   0  0  1  0  0  0  0  0  0  0  0  0
   36.3419   23.0213   20.1088 O   0  0  0  0  0  0  0  0  0  0  0  0
   35.9032   23.2627   17.7893 C   0  0  1  0  0  0  0  0  0  0  0  0
   36.3431   24.3420   16.9995 O   0  0  0  0  0  0  0  0  0  0  0  0
   37.0245   22.2606   17.9699 C   0  0  1  0  0  0  0  0  0  0  0  0
   38.1598   22.6686   17.2426 O   0  0  0  0  0  0  0  0  0  0  0  0
   37.3326   22.2484   19.4573 C   0  0  2  0  0  0  0  0  0  0  0  0
   32.9200   18.9829   17.9211 O   0  0  0  0  0  0  0  0  0  0  0  0
   38.4410   17.2151   18.4548 N   0  0  0  0  0  0  0  0  0  0  0  0
   38.6303   18.3081   17.6331 C   0  0  0  0  0  0  0  0  0  0  0  0
   38.2779   19.5715   18.0648 N   0  0  0  0  0  0  0  0  0  0  0  0
   37.7421   19.7486   19.2971 C   0  0  0  0  0  0  0  0  0  0  0  0
   37.5435   18.6618   20.1377 C   0  0  0  0  0  0  0  0  0  0  0  0
   37.8963   17.3871   19.7113 C   0  0  0  0  0  0  0  0  0  0  0  0
   37.7097   16.3387   20.5076 N   0  0  0  0  0  0  0  0  0  0  0  0
   37.0037   19.1193   21.2881 N   0  0  0  0  0  0  0  0  0  0  0  0
   36.8566   20.4610   21.1966 C   0  0  0  0  0  0  0  0  0  0  0  0
   37.3102   20.8658   19.9676 N   0  0  0  0  0  0  0  0  0  0  0  0
  2  1  1  6  0  0  0
  2  3  1  0  0  0  0
  2  5  1  0  0  0  0
  3  4  1  0  0  0  0
  3 16  1  0  0  0  0
  5  6  1  0  0  0  0
  6  7  1  0  0  0  0
  7  8  1  0  0  0  0
  9  8  1  1  0  0  0
  9 10  1  0  0  0  0
  9 11  1  0  0  0  0
 10 15  1  0  0  0  0
 11 12  1  6  0  0  0
 11 13  1  0  0  0  0
 13 14  1  6  0  0  0
 13 15  1  0  0  0  0
 15 26  1  1  0  0  0
 17 18  2  0  0  0  0
 17 22  1  0  0  0  0
 18 19  1  0  0  0  0
 19 20  2  0  0  0  0
 20 21  1  0  0  0  0
 20 26  1  0  0  0  0
 21 22  2  0  0  0  0
 21 24  1  0  0  0  0
 22 23  1  0  0  0  0
 24 25  2  0  0  0  0
 25 26  1  0  0  0  0
M  END
>  <CHROM.1>
176.87183387,53.37046727,67.40890625,142.40942850,86.40944349,-74.31445410
154.98408382,35.69090767,20.55997777,19.24584464,0.78744947,-0.13820424,2.89118407

>  <Name>
ligand

>  <RI>
0

>  <Rbt.Current_Directory>
/home/itssahil/PROJECTS/Mol_Feturizer/New_Systems/rnas/3NPQ

>  <Rbt.Executable>
rbdock ($Id: //depot/dev/client3/rdock/2013.1/src/exe/rbdock.cxx#4 $)

>  <Rbt.Library>
libRbt.so (2013.1, Build901 2013/11/27)

>  <Rbt.Parameter_File>
/export/apps/rDock/src/rDock_2013.1_src/data/scripts/dock_solv.prm

>  <Rbt.Receptor>
prm/blind_docking_60.prm

>  <SCORE>
-5.98931

>  <SCORE.INTER>
-5.77554

>  <SCORE.INTER.CONST>
1

>  <SCORE.INTER.POLAR>
0

>  <SCORE.INTER.ROT>
7

>  <SCORE.INTER.SOLV>
6.09051

>  <SCORE.INTER.VDW>
-14.1472

>  <SCORE.INTER.norm>
-0.222136

>  <SCORE.INTRA>
-0.220981

>  <SCORE.INTRA.DIHEDRAL>
-0.577226

>  <SCORE.INTRA.DIHEDRAL.0>
6.97628

>  <SCORE.INTRA.POLAR>
0

>  <SCORE.INTRA.POLAR.0>
0

>  <SCORE.INTRA.REPUL>
0

>  <SCORE.INTRA.REPUL.0>
0

>  <SCORE.INTRA.SOLV>
3.26773

>  <SCORE.INTRA.SOLV.lig_0>
-49.8243

>  <SCORE.INTRA.VDW>
-1.56623

>  <SCORE.INTRA.VDW.0>
-1.35881

>  <SCORE.INTRA.norm>
-0.00849927

>  <SCORE.RESTR>
0.00720965

>  <SCORE.RESTR.CAVITY>
0.00720965

>  <SCORE.RESTR.norm>
0.000277294

>  <SCORE.SYSTEM>
0

>  <SCORE.SYSTEM.CONST>
0

>  <SCORE.SYSTEM.DIHEDRAL>
0

>  <SCORE.SYSTEM.SOLV>
0

>  <SCORE.SYSTEM.norm>
0

>  <SCORE.heavy>
26

>  <SCORE.norm>
-0.230358

>  <RMSD>
14.985

$$$$
ligand
 OpenBabel11021811483D
libRbt.so/2013.1/901 2013/11/27
 26 28  0  0  0  0  0  0  0  0999 V2000
   33.0232   18.6962   19.2170 N   0  0  0  0  0  0  0  0  0  0  0  0
   34.2389   19.2353   19.8138 C   0  0  2  0  0  0  0  0  0  0  0  0
   35.2433   18.1270   20.1086 C   0  0  0  0  0  0  0  0  0  0  0  0
   34.8830   16.9543   20.2028 O   0  0  0  0  0  0  0  0  0  0  0  0
   33.9131   19.9985   21.0915 C   0  0  0  0  0  0  0  0  0  0  0  0
   35.0825   20.7939   21.6568 C   0  0  0  0  0  0  0  0  0  0  0  0
   35.9656   21.7300   20.3832 S   0  0  0  0  0  0  0  0  0  0  0  0
   34.5093   22.7777   20.1390 C   0  0  0  0  0  0  0  0  0  0  0  0
   34.3049   23.1705   18.6805 C   0  0  1  0  0  0  0  0  0  0  0  0
   35.4343   23.8826   18.2089 O   0  0  0  0  0  0  0  0  0  0  0  0
   34.1220   21.9497   17.7936 C   0  0  1  0  0  0  0  0  0  0  0  0
   32.8380   21.9629   17.2161 O   0  0  0  0  0  0  0  0  0  0  0  0
   35.1780   22.0611   16.7137 C   0  0  1  0  0  0  0  0  0  0  0  0
   34.5705   22.0807   15.4429 O   0  0  0  0  0  0  0  0  0  0  0  0
   35.8955   23.3751   16.9708 C   0  0  2  0  0  0  0  0  0  0  0  0
   36.4395   18.3788   20.2590 O   0  0  0  0  0  0  0  0  0  0  0  0
   39.7567   20.1194   18.4056 N   0  0  0  0  0  0  0  0  0  0  0  0
   38.3952   19.9372   18.5424 C   0  0  0  0  0  0  0  0  0  0  0  0
   37.5165   20.9083   18.1044 N   0  0  0  0  0  0  0  0  0  0  0  0
   37.9832   22.0480   17.5385 C   0  0  0  0  0  0  0  0  0  0  0  0
   39.3489   22.2498   17.3927 C   0  0  0  0  0  0  0  0  0  0  0  0
   40.2399   21.2771   17.8301 C   0  0  0  0  0  0  0  0  0  0  0  0
   41.5502   21.4600   17.6964 N   0  0  0  0  0  0  0  0  0  0  0  0
   39.5312   23.4525   16.8058 N   0  0  0  0  0  0  0  0  0  0  0  0
   38.3213   24.0135   16.5782 C   0  0  0  0  0  0  0  0  0  0  0  0
   37.3518   23.1543   17.0271 N   0  0  0  0  0  0  0  0  0  0  0  0
  2  1  1  1  0  0  0
  2  3  1  0  0  0  0
  2  5  1  0  0  0  0
  3  4  1  0  0  0  0
  3 16  1  0  0  0  0
  5  6  1  0  0  0  0
  6  7  1  0  0  0  0
  7  8  1  0  0  0  0
  9  8  1  1  0  0  0
  9 10  1  0  0  0  0
  9 11  1  0  0  0  0
 10 15  1  0  0  0  0
 11 12  1  6  0  0  0
 11 13  1  0  0  0  0
 13 14  1  6  0  0  0
 13 15  1  0  0  0  0
 15 26  1  1  0  0  0
 17 18  2  0  0  0  0
 17 22  1  0  0  0  0
 18 19  1  0  0  0  0
 19 20  2  0  0  0  0
 20 21  1  0  0  0  0
 20 26  1  0  0  0  0
 21 22  2  0  0  0  0
 21 24  1  0  0  0  0
 22 23  1  0  0  0  0
 24 25  2  0  0  0  0
 25 26  1  0  0  0  0
M  END
>  <CHROM.1>
-20.23048457,-170.16871259,45.39345868,66.64875343,-143.36407252,-59.70758463
83.28667747,36.27126471,21.29537383,18.56336191,2.46499875,-0.11713390,2.52455104

>  <Name>
ligand

>  <RI>
0

>  <Rbt.Current_Directory>
/home/itssahil/PROJECTS/Mol_Feturizer/New_Systems/rnas/3NPQ

>  <Rbt.Executable>
rbdock ($Id: //depot/dev/client3/rdock/2013.1/src/exe/rbdock.cxx#4 $)

>  <Rbt.Library>
libRbt.so (2013.1, Build901 2013/11/27)

>  <Rbt.Parameter_File>
/export/apps/rDock/src/rDock_2013.1_src/data/scripts/dock_solv.prm

>  <Rbt.Receptor>
prm/blind_docking_60.prm

>  <SCORE>
-10.5009

>  <SCORE.INTER>
-8.28756

>  <SCORE.INTER.CONST>
1

>  <SCORE.INTER.POLAR>
0

>  <SCORE.INTER.ROT>
7

>  <SCORE.INTER.SOLV>
6.98035

>  <SCORE.INTER.VDW>
-16.1185

>  <SCORE.INTER.norm>
-0.318752

>  <SCORE.INTRA>
-2.2133

>  <SCORE.INTRA.DIHEDRAL>
-1.49276

>  <SCORE.INTRA.DIHEDRAL.0>
6.97628

>  <SCORE.INTRA.POLAR>
0

>  <SCORE.INTRA.POLAR.0>
0

>  <SCORE.INTRA.REPUL>
0

>  <SCORE.INTRA.REPUL.0>
0

>  <SCORE.INTRA.SOLV>
1.18947

>  <SCORE.INTRA.SOLV.lig_0>
-49.8243

>  <SCORE.INTRA.VDW>
-2.06166

>  <SCORE.INTRA.VDW.0>
-1.35881

>  <SCORE.INTRA.norm>
-0.0851271

>  <SCORE.RESTR>
0

>  <SCORE.RESTR.CAVITY>
0

>  <SCORE.RESTR.norm>
0

>  <SCORE.SYSTEM>
0

>  <SCORE.SYSTEM.CONST>
0

>  <SCORE.SYSTEM.DIHEDRAL>
0

>  <SCORE.SYSTEM.SOLV>
0

>  <SCORE.SYSTEM.norm>
0

>  <SCORE.heavy>
26

>  <SCORE.norm>
-0.403879

>  <RMSD>
15.001

$$$$
ligand
 OpenBabel11021811483D
libRbt.so/2013.1/901 2013/11/27
 26 28  0  0  0  0  0  0  0  0999 V2000
   33.2547    1.6653    7.3691 N   0  0  0  0  0  0  0  0  0  0  0  0
   32.1705    1.9460    6.4362 C   0  0  2  0  0  0  0  0  0  0  0  0
   32.7026    2.5544    5.1437 C   0  0  0  0  0  0  0  0  0  0  0  0
   32.8089    1.8775    4.1218 O   0  0  0  0  0  0  0  0  0  0  0  0
   31.1483    2.8803    7.0713 C   0  0  0  0  0  0  0  0  0  0  0  0
   29.7054    2.5753    6.6910 C   0  0  0  0  0  0  0  0  0  0  0  0
   29.3552    2.9345    4.9512 S   0  0  0  0  0  0  0  0  0  0  0  0
   28.4662    4.4352    5.4368 C   0  0  0  0  0  0  0  0  0  0  0  0
   29.3172    5.6926    5.3028 C   0  0  1  0  0  0  0  0  0  0  0  0
   28.4949    6.8012    4.9866 O   0  0  0  0  0  0  0  0  0  0  0  0
   30.0499    6.0115    6.5958 C   0  0  1  0  0  0  0  0  0  0  0  0
   31.4408    5.9313    6.3926 O   0  0  0  0  0  0  0  0  0  0  0  0
   29.6586    7.4303    6.9538 C   0  0  1  0  0  0  0  0  0  0  0  0
   30.8069    8.2414    7.0420 O   0  0  0  0  0  0  0  0  0  0  0  0
   28.7646    7.9104    5.8234 C   0  0  2  0  0  0  0  0  0  0  0  0
   33.0384    3.7382    5.0912 O   0  0  0  0  0  0  0  0  0  0  0  0
   25.4132   11.9519    5.8670 N   0  0  0  0  0  0  0  0  0  0  0  0
   26.5898   11.8298    5.1555 C   0  0  0  0  0  0  0  0  0  0  0  0
   27.3532   10.6845    5.2659 N   0  0  0  0  0  0  0  0  0  0  0  0
   26.9548    9.6722    6.0743 C   0  0  0  0  0  0  0  0  0  0  0  0
   25.7750    9.7765    6.7984 C   0  0  0  0  0  0  0  0  0  0  0  0
   25.0005   10.9254    6.6922 C   0  0  0  0  0  0  0  0  0  0  0  0
   23.8690   11.0367    7.3818 N   0  0  0  0  0  0  0  0  0  0  0  0
   25.6224    8.6392    7.5107 N   0  0  0  0  0  0  0  0  0  0  0  0
   26.6708    7.8226    7.2568 C   0  0  0  0  0  0  0  0  0  0  0  0
   27.5054    8.4495    6.3678 N   0  0  0  0  0  0  0  0  0  0  0  0
  2  1  1  1  0  0  0
  2  3  1  0  0  0  0
  2  5  1  0  0  0  0
  3  4  1  0  0  0  0
  3 16  1  0  0  0  0
  5  6  1  0  0  0  0
  6  7  1  0  0  0  0
  7  8  1  0  0  0  0
  9  8  1  1  0  0  0
  9 10  1  0  0  0  0
  9 11  1  0  0  0  0
 10 15  1  0  0  0  0
 11 12  1  6  0  0  0
 11 13  1  0  0  0  0
 13 14  1  6  0  0  0
 13 15  1  0  0  0  0
 15 26  1  1  0  0  0
 17 18  2  0  0  0  0
 17 22  1  0  0  0  0
 18 19  1  0  0  0  0
 19 20  2  0  0  0  0
 20 21  1  0  0  0  0
 20 26  1  0  0  0  0
 21 22  2  0  0  0  0
 21 24  1  0  0  0  0
 22 23  1  0  0  0  0
 24 25  2  0  0  0  0
 25 26  1  0  0  0  0
M  END
>  <CHROM.1>
102.72126740,-143.00876883,-68.72555054,-104.52153618,98.69774350,148.89321253
-112.74824349,29.04352488,6.39833900,6.06921357,-0.92412813,0.08079868,0.02282666

>  <Name>
ligand

>  <RI>
0

>  <Rbt.Current_Directory>
/home/itssahil/PROJECTS/Mol_Feturizer/New_Systems/rnas/3NPQ

>  <Rbt.Executable>
rbdock ($Id: //depot/dev/client3/rdock/2013.1/src/exe/rbdock.cxx#4 $)

>  <Rbt.Library>
libRbt.so (2013.1, Build901 2013/11/27)

>  <Rbt.Parameter_File>
/export/apps/rDock/src/rDock_2013.1_src/data/scripts/dock_solv.prm

>  <Rbt.Receptor>
prm/blind_docking_40.prm

>  <SCORE>
-8.71182

>  <SCORE.INTER>
-9.65966

>  <SCORE.INTER.CONST>
1

>  <SCORE.INTER.POLAR>
0

>  <SCORE.INTER.ROT>
7

>  <SCORE.INTER.SOLV>
12.9018

>  <SCORE.INTER.VDW>
-19.007

>  <SCORE.INTER.norm>
-0.371525

>  <SCORE.INTRA>
0.947837

>  <SCORE.INTRA.DIHEDRAL>
6.44743

>  <SCORE.INTRA.DIHEDRAL.0>
6.97628

>  <SCORE.INTRA.POLAR>
0

>  <SCORE.INTRA.POLAR.0>
0

>  <SCORE.INTRA.REPUL>
0

>  <SCORE.INTRA.REPUL.0>
0

>  <SCORE.INTRA.SOLV>
-0.212554

>  <SCORE.INTRA.SOLV.lig_0>
-49.8243

>  <SCORE.INTRA.VDW>
-2.1696

>  <SCORE.INTRA.VDW.0>
-1.35881

>  <SCORE.INTRA.norm>
0.0364553

>  <SCORE.RESTR>
0

>  <SCORE.RESTR.CAVITY>
0

>  <SCORE.RESTR.norm>
0

>  <SCORE.SYSTEM>
0

>  <SCORE.SYSTEM.CONST>
0

>  <SCORE.SYSTEM.DIHEDRAL>
0

>  <SCORE.SYSTEM.SOLV>
0

>  <SCORE.SYSTEM.norm>
0

>  <SCORE.heavy>
26

>  <SCORE.norm>
-0.33507

>  <RMSD>
15.005

$$$$
ligand
 OpenBabel11021811483D
libRbt.so/2013.1/901 2013/11/27
 26 28  0  0  0  0  0  0  0  0999 V2000
   32.2403   20.6382   17.1107 N   0  0  0  0  0  0  0  0  0  0  0  0
   32.7553   20.0342   18.3331 C   0  0  2  0  0  0  0  0  0  0  0  0
   32.3556   18.5663   18.4304 C   0  0  0  0  0  0  0  0  0  0  0  0
   31.8962   18.1028   19.4735 O   0  0  0  0  0  0  0  0  0  0  0  0
   32.2554   20.7939   19.5555 C   0  0  0  0  0  0  0  0  0  0  0  0
   32.8551   20.3182   20.8722 C   0  0  0  0  0  0  0  0  0  0  0  0
   34.6650   20.3691   20.8693 S   0  0  0  0  0  0  0  0  0  0  0  0
   34.7157   18.6435   20.3234 C   0  0  0  0  0  0  0  0  0  0  0  0
   35.9067   18.3470   19.4196 C   0  0  1  0  0  0  0  0  0  0  0  0
   35.7434   19.0016   18.1746 O   0  0  0  0  0  0  0  0  0  0  0  0
   37.2089   18.8347   20.0334 C   0  0  1  0  0  0  0  0  0  0  0  0
   38.0604   17.7423   20.2858 O   0  0  0  0  0  0  0  0  0  0  0  0
   37.8335   19.7526   19.0032 C   0  0  1  0  0  0  0  0  0  0  0  0
   39.1115   19.2801   18.6457 O   0  0  0  0  0  0  0  0  0  0  0  0
   36.9067   19.7155   17.8002 C   0  0  2  0  0  0  0  0  0  0  0  0
   32.4824   17.8093   17.4673 O   0  0  0  0  0  0  0  0  0  0  0  0
   38.4748   24.7164   17.4845 N   0  0  0  0  0  0  0  0  0  0  0  0
   39.1763   23.6341   17.9765 C   0  0  0  0  0  0  0  0  0  0  0  0
   38.6024   22.3782   17.9822 N   0  0  0  0  0  0  0  0  0  0  0  0
   37.3460   22.1981   17.5067 C   0  0  0  0  0  0  0  0  0  0  0  0
   36.6243   23.2742   17.0083 C   0  0  0  0  0  0  0  0  0  0  0  0
   37.1950   24.5412   16.9981 C   0  0  0  0  0  0  0  0  0  0  0  0
   36.5127   25.5794   16.5240 N   0  0  0  0  0  0  0  0  0  0  0  0
   35.4193   22.8160   16.6059 N   0  0  0  0  0  0  0  0  0  0  0  0
   35.3609   21.4841   16.8364 C   0  0  0  0  0  0  0  0  0  0  0  0
   36.5484   21.0866   17.3947 N   0  0  0  0  0  0  0  0  0  0  0  0
  2  1  1  6  0  0  0
  2  3  1  0  0  0  0
  2  5  1  0  0  0  0
  3  4  1  0  0  0  0
  3 16  1  0  0  0  0
  5  6  1  0  0  0  0
  6  7  1  0  0  0  0
  7  8  1  0  0  0  0
  9  8  1  1  0  0  0
  9 10  1  0  0  0  0
  9 11  1  0  0  0  0
 10 15  1  0  0  0  0
 11 12  1  6  0  0  0
 11 13  1  0  0  0  0
 13 14  1  6  0  0  0
 13 15  1  0  0  0  0
 15 26  1  1  0  0  0
 17 18  2  0  0  0  0
 17 22  1  0  0  0  0
 18 19  1  0  0  0  0
 19 20  2  0  0  0  0
 20 21  1  0  0  0  0
 20 26  1  0  0  0  0
 21 22  2  0  0  0  0
 21 24  1  0  0  0  0
 22 23  1  0  0  0  0
 24 25  2  0  0  0  0
 25 26  1  0  0  0  0
M  END
>  <CHROM.1>
-133.43003128,-174.20615836,55.94551639,-92.93886738,147.25637828,-69.01763707
150.83036128,35.61931295,20.64438345,18.54250598,2.32288960,0.07804001,2.66218666

>  <Name>
ligand

>  <RI>
0

>  <Rbt.Current_Directory>
/home/itssahil/PROJECTS/Mol_Feturizer/New_Systems/rnas/3NPQ

>  <Rbt.Executable>
rbdock ($Id: //depot/dev/client3/rdock/2013.1/src/exe/rbdock.cxx#4 $)

>  <Rbt.Library>
libRbt.so (2013.1, Build901 2013/11/27)

>  <Rbt.Parameter_File>
/export/apps/rDock/src/rDock_2013.1_src/data/scripts/dock_solv.prm

>  <Rbt.Receptor>
prm/blind_docking_80.prm

>  <SCORE>
-3.69046

>  <SCORE.INTER>
-3.20652

>  <SCORE.INTER.CONST>
1

>  <SCORE.INTER.POLAR>
0

>  <SCORE.INTER.ROT>
7

>  <SCORE.INTER.SOLV>
8.08381

>  <SCORE.INTER.VDW>
-13.0989

>  <SCORE.INTER.norm>
-0.123328

>  <SCORE.INTRA>
-0.636894

>  <SCORE.INTRA.DIHEDRAL>
-1.08095

>  <SCORE.INTRA.DIHEDRAL.0>
6.97628

>  <SCORE.INTRA.POLAR>
0

>  <SCORE.INTRA.POLAR.0>
0

>  <SCORE.INTRA.REPUL>
0

>  <SCORE.INTRA.REPUL.0>
0

>  <SCORE.INTRA.SOLV>
0.812383

>  <SCORE.INTRA.SOLV.lig_0>
-49.8243

>  <SCORE.INTRA.VDW>
-0.50261

>  <SCORE.INTRA.VDW.0>
-1.35881

>  <SCORE.INTRA.norm>
-0.0244959

>  <SCORE.RESTR>
0.152948

>  <SCORE.RESTR.CAVITY>
0.152948

>  <SCORE.RESTR.norm>
0.00588262

>  <SCORE.SYSTEM>
0

>  <SCORE.SYSTEM.CONST>
0

>  <SCORE.SYSTEM.DIHEDRAL>
0

>  <SCORE.SYSTEM.SOLV>
0

>  <SCORE.SYSTEM.norm>
0

>  <SCORE.heavy>
26

>  <SCORE.norm>
-0.141941

>  <RMSD>
15.006

$$$$
ligand
 OpenBabel11021811483D
libRbt.so/2013.1/901 2013/11/27
 26 28  0  0  0  0  0  0  0  0999 V2000
   27.7757   14.5519    6.2254 N   0  0  0  0  0  0  0  0  0  0  0  0
   28.9136   13.6753    5.9777 C   0  0  2  0  0  0  0  0  0  0  0  0
   30.0698   14.4424    5.3463 C   0  0  0  0  0  0  0  0  0  0  0  0
   31.2017   13.9617    5.3058 O   0  0  0  0  0  0  0  0  0  0  0  0
   28.5065   12.5127    5.0812 C   0  0  0  0  0  0  0  0  0  0  0  0
   27.3878   11.6499    5.6502 C   0  0  0  0  0  0  0  0  0  0  0  0
   27.9393   10.6232    7.0359 S   0  0  0  0  0  0  0  0  0  0  0  0
   26.9942   11.6577    8.1825 C   0  0  0  0  0  0  0  0  0  0  0  0
   25.5153   11.2908    8.2237 C   0  0  1  0  0  0  0  0  0  0  0  0
   24.9830   11.5727    9.5052 O   0  0  0  0  0  0  0  0  0  0  0  0
   24.7146   12.0835    7.2035 C   0  0  1  0  0  0  0  0  0  0  0  0
   24.1536   11.2122    6.2503 O   0  0  0  0  0  0  0  0  0  0  0  0
   23.6164   12.7738    7.9856 C   0  0  1  0  0  0  0  0  0  0  0  0
   22.3549   12.3917    7.4887 O   0  0  0  0  0  0  0  0  0  0  0  0
   23.7759   12.3071    9.4223 C   0  0  2  0  0  0  0  0  0  0  0  0
   29.8986   15.5614    4.8611 O   0  0  0  0  0  0  0  0  0  0  0  0
   25.3673   17.2700   10.0585 N   0  0  0  0  0  0  0  0  0  0  0  0
   25.5316   16.4587    8.9538 C   0  0  0  0  0  0  0  0  0  0  0  0
   25.0437   15.1669    8.9613 N   0  0  0  0  0  0  0  0  0  0  0  0
   24.4013   14.6848   10.0531 C   0  0  0  0  0  0  0  0  0  0  0  0
   24.2267   15.4851   11.1739 C   0  0  0  0  0  0  0  0  0  0  0  0
   24.7140   16.7866   11.1740 C   0  0  0  0  0  0  0  0  0  0  0  0
   24.5533   17.5619   12.2423 N   0  0  0  0  0  0  0  0  0  0  0  0
   23.5629   14.7622   12.1016 N   0  0  0  0  0  0  0  0  0  0  0  0
   23.3147   13.5311   11.5985 C   0  0  0  0  0  0  0  0  0  0  0  0
   23.8287   13.4681   10.3289 N   0  0  0  0  0  0  0  0  0  0  0  0
  2  1  1  6  0  0  0
  2  3  1  0  0  0  0
  2  5  1  0  0  0  0
  3  4  1  0  0  0  0
  3 16  1  0  0  0  0
  5  6  1  0  0  0  0
  6  7  1  0  0  0  0
  7  8  1  0  0  0  0
  9  8  1  1  0  0  0
  9 10  1  0  0  0  0
  9 11  1  0  0  0  0
 10 15  1  0  0  0  0
 11 12  1  6  0  0  0
 11 13  1  0  0  0  0
 13 14  1  6  0  0  0
 13 15  1  0  0  0  0
 15 26  1  1  0  0  0
 17 18  2  0  0  0  0
 17 22  1  0  0  0  0
 18 19  1  0  0  0  0
 19 20  2  0  0  0  0
 20 21  1  0  0  0  0
 20 26  1  0  0  0  0
 21 22  2  0  0  0  0
 21 24  1  0  0  0  0
 22 23  1  0  0  0  0
 24 25  2  0  0  0  0
 25 26  1  0  0  0  0
M  END
>  <CHROM.1>
165.23269966,-59.06939781,-72.33726979,108.67124448,81.33047191,150.05773118
83.50713016,25.99992955,13.54585842,8.17986312,-0.59676782,0.61193257,0.49765606

>  <Name>
ligand

>  <RI>
0

>  <Rbt.Current_Directory>
/home/itssahil/PROJECTS/Mol_Feturizer/New_Systems/rnas/3NPQ

>  <Rbt.Executable>
rbdock ($Id: //depot/dev/client3/rdock/2013.1/src/exe/rbdock.cxx#4 $)

>  <Rbt.Library>
libRbt.so (2013.1, Build901 2013/11/27)

>  <Rbt.Parameter_File>
/export/apps/rDock/src/rDock_2013.1_src/data/scripts/dock_solv.prm

>  <Rbt.Receptor>
prm/blind_docking_60.prm

>  <SCORE>
-6.40144

>  <SCORE.INTER>
-6.87825

>  <SCORE.INTER.CONST>
1

>  <SCORE.INTER.POLAR>
0

>  <SCORE.INTER.ROT>
7

>  <SCORE.INTER.SOLV>
13.5063

>  <SCORE.INTER.VDW>
-17.3543

>  <SCORE.INTER.norm>
-0.264548

>  <SCORE.INTRA>
0.476812

>  <SCORE.INTRA.DIHEDRAL>
1.74824

>  <SCORE.INTRA.DIHEDRAL.0>
6.97628

>  <SCORE.INTRA.POLAR>
0

>  <SCORE.INTRA.POLAR.0>
0

>  <SCORE.INTRA.REPUL>
0

>  <SCORE.INTRA.REPUL.0>
0

>  <SCORE.INTRA.SOLV>
1.83266

>  <SCORE.INTRA.SOLV.lig_0>
-49.8243

>  <SCORE.INTRA.VDW>
-1.31364

>  <SCORE.INTRA.VDW.0>
-1.35881

>  <SCORE.INTRA.norm>
0.0183389

>  <SCORE.RESTR>
0

>  <SCORE.RESTR.CAVITY>
0

>  <SCORE.RESTR.norm>
0

>  <SCORE.SYSTEM>
0

>  <SCORE.SYSTEM.CONST>
0

>  <SCORE.SYSTEM.DIHEDRAL>
0

>  <SCORE.SYSTEM.SOLV>
0

>  <SCORE.SYSTEM.norm>
0

>  <SCORE.heavy>
26

>  <SCORE.norm>
-0.246209

>  <RMSD>
15.010

$$$$
ligand
 OpenBabel11021811483D
libRbt.so/2013.1/901 2013/11/27
 26 28  0  0  0  0  0  0  0  0999 V2000
   23.9628   17.0080   13.4315 N   0  0  0  0  0  0  0  0  0  0  0  0
   24.4856   18.3513   13.6478 C   0  0  2  0  0  0  0  0  0  0  0  0
   23.4364   19.2515   14.2902 C   0  0  0  0  0  0  0  0  0  0  0  0
   22.3023   18.8355   14.5239 O   0  0  0  0  0  0  0  0  0  0  0  0
   24.9598   18.9576   12.3330 C   0  0  0  0  0  0  0  0  0  0  0  0
   23.9361   18.8824   11.2078 C   0  0  0  0  0  0  0  0  0  0  0  0
   24.4640   19.7820    9.7278 S   0  0  0  0  0  0  0  0  0  0  0  0
   23.4814   18.6657    8.6950 C   0  0  0  0  0  0  0  0  0  0  0  0
   24.1692   18.3241    7.3784 C   0  0  1  0  0  0  0  0  0  0  0  0
   25.0327   17.2163    7.5574 O   0  0  0  0  0  0  0  0  0  0  0  0
   23.1618   17.9584    6.3004 C   0  0  1  0  0  0  0  0  0  0  0  0
   23.2239   18.8913    5.2478 O   0  0  0  0  0  0  0  0  0  0  0  0
   23.5681   16.5867    5.8030 C   0  0  1  0  0  0  0  0  0  0  0  0
   23.8275   16.6310    4.4192 O   0  0  0  0  0  0  0  0  0  0  0  0
   24.8350   16.2302    6.5615 C   0  0  2  0  0  0  0  0  0  0  0  0
   23.6988   20.4166   14.5913 O   0  0  0  0  0  0  0  0  0  0  0  0
   25.4198   11.0470    5.9618 N   0  0  0  0  0  0  0  0  0  0  0  0
   25.6890   12.0452    5.0471 C   0  0  0  0  0  0  0  0  0  0  0  0
   25.4739   13.3683    5.3786 N   0  0  0  0  0  0  0  0  0  0  0  0
   24.9955   13.6975    6.6032 C   0  0  0  0  0  0  0  0  0  0  0  0
   24.7181   12.7080    7.5365 C   0  0  0  0  0  0  0  0  0  0  0  0
   24.9327   11.3741    7.2111 C   0  0  0  0  0  0  0  0  0  0  0  0
   24.6697   10.4178    8.0968 N   0  0  0  0  0  0  0  0  0  0  0  0
   24.2604   13.3089    8.6561 N   0  0  0  0  0  0  0  0  0  0  0  0
   24.2412   14.6467    8.4552 C   0  0  0  0  0  0  0  0  0  0  0  0
   24.6943   14.9029    7.1868 N   0  0  0  0  0  0  0  0  0  0  0  0
  2  1  1  6  0  0  0
  2  3  1  0  0  0  0
  2  5  1  0  0  0  0
  3  4  1  0  0  0  0
  3 16  1  0  0  0  0
  5  6  1  0  0  0  0
  6  7  1  0  0  0  0
  7  8  1  0  0  0  0
  9  8  1  1  0  0  0
  9 10  1  0  0  0  0
  9 11  1  0  0  0  0
 10 15  1  0  0  0  0
 11 12  1  6  0  0  0
 11 13  1  0  0  0  0
 13 14  1  6  0  0  0
 13 15  1  0  0  0  0
 15 26  1  1  0  0  0
 17 18  2  0  0  0  0
 17 22  1  0  0  0  0
 18 19  1  0  0  0  0
 19 20  2  0  0  0  0
 20 21  1  0  0  0  0
 20 26  1  0  0  0  0
 21 22  2  0  0  0  0
 21 24  1  0  0  0  0
 22 23  1  0  0  0  0
 24 25  2  0  0  0  0
 25 26  1  0  0  0  0
M  END
>  <CHROM.1>
-2.21331148,50.87393571,173.30624203,152.06552205,-141.86619196,86.52746417
-153.38304652,24.27535717,16.42249448,8.77803468,-2.44004101,1.41664713,-1.44365762

>  <Name>
ligand

>  <RI>
0

>  <Rbt.Current_Directory>
/home/itssahil/PROJECTS/Mol_Feturizer/New_Systems/rnas/3NPQ

>  <Rbt.Executable>
rbdock ($Id: //depot/dev/client3/rdock/2013.1/src/exe/rbdock.cxx#4 $)

>  <Rbt.Library>
libRbt.so (2013.1, Build901 2013/11/27)

>  <Rbt.Parameter_File>
/export/apps/rDock/src/rDock_2013.1_src/data/scripts/dock_solv.prm

>  <Rbt.Receptor>
prm/blind_docking_80.prm

>  <SCORE>
-6.62042

>  <SCORE.INTER>
-7.0345

>  <SCORE.INTER.CONST>
1

>  <SCORE.INTER.POLAR>
0

>  <SCORE.INTER.ROT>
7

>  <SCORE.INTER.SOLV>
15.3132

>  <SCORE.INTER.VDW>
-18.0607

>  <SCORE.INTER.norm>
-0.270558

>  <SCORE.INTRA>
-0.239979

>  <SCORE.INTRA.DIHEDRAL>
1.13222

>  <SCORE.INTRA.DIHEDRAL.0>
6.97628

>  <SCORE.INTRA.POLAR>
0

>  <SCORE.INTRA.POLAR.0>
0

>  <SCORE.INTRA.REPUL>
0

>  <SCORE.INTRA.REPUL.0>
0

>  <SCORE.INTRA.SOLV>
-0.226364

>  <SCORE.INTRA.SOLV.lig_0>
-49.8243

>  <SCORE.INTRA.VDW>
-0.692908

>  <SCORE.INTRA.VDW.0>
-1.35881

>  <SCORE.INTRA.norm>
-0.00922994

>  <SCORE.RESTR>
0.654055

>  <SCORE.RESTR.CAVITY>
0.654055

>  <SCORE.RESTR.norm>
0.025156

>  <SCORE.SYSTEM>
0

>  <SCORE.SYSTEM.CONST>
0

>  <SCORE.SYSTEM.DIHEDRAL>
0

>  <SCORE.SYSTEM.SOLV>
0

>  <SCORE.SYSTEM.norm>
0

>  <SCORE.heavy>
26

>  <SCORE.norm>
-0.254632

>  <RMSD>
15.012

$$$$
ligand
 OpenBabel11021811483D
libRbt.so/2013.1/901 2013/11/27
 26 28  0  0  0  0  0  0  0  0999 V2000
   38.9178   23.9967   16.8957 N   0  0  0  0  0  0  0  0  0  0  0  0
   38.4192   23.1317   17.9577 C   0  0  2  0  0  0  0  0  0  0  0  0
   39.4989   22.1647   18.4298 C   0  0  0  0  0  0  0  0  0  0  0  0
   39.3958   20.9546   18.2321 O   0  0  0  0  0  0  0  0  0  0  0  0
   37.1950   22.3577   17.4850 C   0  0  0  0  0  0  0  0  0  0  0  0
   36.1157   23.2260   16.8518 C   0  0  0  0  0  0  0  0  0  0  0  0
   34.7906   22.2480   16.0995 S   0  0  0  0  0  0  0  0  0  0  0  0
   33.9959   22.0746   17.7171 C   0  0  0  0  0  0  0  0  0  0  0  0
   32.8702   21.0470   17.7126 C   0  0  1  0  0  0  0  0  0  0  0  0
   33.3695   19.7851   17.3086 O   0  0  0  0  0  0  0  0  0  0  0  0
   32.2576   20.8836   19.0940 C   0  0  1  0  0  0  0  0  0  0  0  0
   30.9075   21.2825   19.0716 O   0  0  0  0  0  0  0  0  0  0  0  0
   32.3574   19.4075   19.4187 C   0  0  1  0  0  0  0  0  0  0  0  0
   31.0754   18.8788   19.6666 O   0  0  0  0  0  0  0  0  0  0  0  0
   32.9640   18.7537   18.1891 C   0  0  2  0  0  0  0  0  0  0  0  0
   40.5004   22.5713   19.0201 O   0  0  0  0  0  0  0  0  0  0  0  0
   37.4964   18.5860   20.8342 N   0  0  0  0  0  0  0  0  0  0  0  0
   36.6224   19.6472   20.7102 C   0  0  0  0  0  0  0  0  0  0  0  0
   35.4655   19.5118   19.9685 N   0  0  0  0  0  0  0  0  0  0  0  0
   35.1796   18.3374   19.3553 C   0  0  0  0  0  0  0  0  0  0  0  0
   36.0464   17.2588   19.4678 C   0  0  0  0  0  0  0  0  0  0  0  0
   37.2123   17.3866   20.2132 C   0  0  0  0  0  0  0  0  0  0  0  0
   38.0504   16.3605   20.3271 N   0  0  0  0  0  0  0  0  0  0  0  0
   35.5225   16.2296   18.7678 N   0  0  0  0  0  0  0  0  0  0  0  0
   34.3523   16.6280   18.2180 C   0  0  0  0  0  0  0  0  0  0  0  0
   34.1264   17.9328   18.5736 N   0  0  0  0  0  0  0  0  0  0  0  0
  2  1  1  6  0  0  0
  2  3  1  0  0  0  0
  2  5  1  0  0  0  0
  3  4  1  0  0  0  0
  3 16  1  0  0  0  0
  5  6  1  0  0  0  0
  6  7  1  0  0  0  0
  7  8  1  0  0  0  0
  9  8  1  1  0  0  0
  9 10  1  0  0  0  0
  9 11  1  0  0  0  0
 10 15  1  0  0  0  0
 11 12  1  6  0  0  0
 11 13  1  0  0  0  0
 13 14  1  6  0  0  0
 13 15  1  0  0  0  0
 15 26  1  1  0  0  0
 17 18  2  0  0  0  0
 17 22  1  0  0  0  0
 18 19  1  0  0  0  0
 19 20  2  0  0  0  0
 20 21  1  0  0  0  0
 20 26  1  0  0  0  0
 21 22  2  0  0  0  0
 21 24  1  0  0  0  0
 22 23  1  0  0  0  0
 24 25  2  0  0  0  0
 25 26  1  0  0  0  0
M  END
>  <CHROM.1>
-112.79720888,-50.65060930,171.98229436,82.80710992,-168.90821851,58.26417077
68.19157290,35.50888320,20.18805548,18.53138401,0.53988773,-0.11078710,-0.44132329

>  <Name>
ligand

>  <RI>
0

>  <Rbt.Current_Directory>
/home/itssahil/PROJECTS/Mol_Feturizer/New_Systems/rnas/3NPQ

>  <Rbt.Executable>
rbdock ($Id: //depot/dev/client3/rdock/2013.1/src/exe/rbdock.cxx#4 $)

>  <Rbt.Library>
libRbt.so (2013.1, Build901 2013/11/27)

>  <Rbt.Parameter_File>
/export/apps/rDock/src/rDock_2013.1_src/data/scripts/dock_solv.prm

>  <Rbt.Receptor>
prm/blind_docking_80.prm

>  <SCORE>
-10.1545

>  <SCORE.INTER>
-8.1622

>  <SCORE.INTER.CONST>
1

>  <SCORE.INTER.POLAR>
0

>  <SCORE.INTER.ROT>
7

>  <SCORE.INTER.SOLV>
8.51441

>  <SCORE.INTER.VDW>
-16.5463

>  <SCORE.INTER.norm>
-0.313931

>  <SCORE.INTRA>
-2.00136

>  <SCORE.INTRA.DIHEDRAL>
-2.77389

>  <SCORE.INTRA.DIHEDRAL.0>
6.97628

>  <SCORE.INTRA.POLAR>
0

>  <SCORE.INTRA.POLAR.0>
0

>  <SCORE.INTRA.REPUL>
0

>  <SCORE.INTRA.REPUL.0>
0

>  <SCORE.INTRA.SOLV>
-0.128159

>  <SCORE.INTRA.SOLV.lig_0>
-49.8243

>  <SCORE.INTRA.VDW>
-0.55034

>  <SCORE.INTRA.VDW.0>
-1.35881

>  <SCORE.INTRA.norm>
-0.0769755

>  <SCORE.RESTR>
0.00901085

>  <SCORE.RESTR.CAVITY>
0.00901085

>  <SCORE.RESTR.norm>
0.000346571

>  <SCORE.SYSTEM>
0

>  <SCORE.SYSTEM.CONST>
0

>  <SCORE.SYSTEM.DIHEDRAL>
0

>  <SCORE.SYSTEM.SOLV>
0

>  <SCORE.SYSTEM.norm>
0

>  <SCORE.heavy>
26

>  <SCORE.norm>
-0.39056

>  <RMSD>
15.015

$$$$
ligand
 OpenBabel11021811483D
libRbt.so/2013.1/901 2013/11/27
 26 28  0  0  0  0  0  0  0  0999 V2000
   28.4272    9.4056    6.2721 N   0  0  0  0  0  0  0  0  0  0  0  0
   27.4353   10.4733    6.2446 C   0  0  2  0  0  0  0  0  0  0  0  0
   27.7800   11.5151    5.1864 C   0  0  0  0  0  0  0  0  0  0  0  0
   26.9071   12.0014    4.4684 O   0  0  0  0  0  0  0  0  0  0  0  0
   27.3251   11.1348    7.6126 C   0  0  0  0  0  0  0  0  0  0  0  0
   26.2400   12.1998    7.7034 C   0  0  0  0  0  0  0  0  0  0  0  0
   26.8775   13.8676    7.4030 S   0  0  0  0  0  0  0  0  0  0  0  0
   27.6986   13.8479    9.0165 C   0  0  0  0  0  0  0  0  0  0  0  0
   26.9014   14.5774   10.0915 C   0  0  1  0  0  0  0  0  0  0  0  0
   26.6531   15.9115    9.6871 O   0  0  0  0  0  0  0  0  0  0  0  0
   25.5587   13.9100   10.3406 C   0  0  1  0  0  0  0  0  0  0  0  0
   25.5010   13.4236   11.6606 O   0  0  0  0  0  0  0  0  0  0  0  0
   24.5162   14.9903   10.1395 C   0  0  1  0  0  0  0  0  0  0  0  0
   23.7509   15.1484   11.3114 O   0  0  0  0  0  0  0  0  0  0  0  0
   25.2913   16.2632    9.8452 C   0  0  2  0  0  0  0  0  0  0  0  0
   28.9402   11.8955    5.0252 O   0  0  0  0  0  0  0  0  0  0  0  0
   23.3470   15.4648    5.0338 N   0  0  0  0  0  0  0  0  0  0  0  0
   23.7339   14.5199    5.9628 C   0  0  0  0  0  0  0  0  0  0  0  0
   24.2278   14.9139    7.1907 N   0  0  0  0  0  0  0  0  0  0  0  0
   24.3383   16.2305    7.4930 C   0  0  0  0  0  0  0  0  0  0  0  0
   23.9550   17.1957    6.5718 C   0  0  0  0  0  0  0  0  0  0  0  0
   23.4561   16.8075    5.3342 C   0  0  0  0  0  0  0  0  0  0  0  0
   23.0868   17.7232    4.4436 N   0  0  0  0  0  0  0  0  0  0  0  0
   24.1684   18.4082    7.1269 N   0  0  0  0  0  0  0  0  0  0  0  0
   24.6746   18.2351    8.3695 C   0  0  0  0  0  0  0  0  0  0  0  0
   24.7855   16.8900    8.6107 N   0  0  0  0  0  0  0  0  0  0  0  0
  2  1  1  1  0  0  0
  2  3  1  0  0  0  0
  2  5  1  0  0  0  0
  3  4  1  0  0  0  0
  3 16  1  0  0  0  0
  5  6  1  0  0  0  0
  6  7  1  0  0  0  0
  7  8  1  0  0  0  0
  9  8  1  6  0  0  0
  9 10  1  0  0  0  0
  9 11  1  0  0  0  0
 10 15  1  0  0  0  0
 11 12  1  1  0  0  0
 11 13  1  0  0  0  0
 13 14  1  1  0  0  0
 13 15  1  0  0  0  0
 15 26  1  6  0  0  0
 17 18  2  0  0  0  0
 17 22  1  0  0  0  0
 18 19  1  0  0  0  0
 19 20  2  0  0  0  0
 20 21  1  0  0  0  0
 20 26  1  0  0  0  0
 21 22  2  0  0  0  0
 21 24  1  0  0  0  0
 22 23  1  0  0  0  0
 24 25  2  0  0  0  0
 25 26  1  0  0  0  0
M  END
>  <CHROM.1>
138.38468021,-175.93108249,-94.68023146,-72.46679666,-98.67051232,-56.70107596
82.54097859,25.70637145,14.41177451,7.64573232,-0.33988795,-0.97557898,1.45474440

>  <Name>
ligand

>  <RI>
0

>  <Rbt.Current_Directory>
/home/itssahil/PROJECTS/Mol_Feturizer/New_Systems/rnas/3NPQ

>  <Rbt.Executable>
rbdock ($Id: //depot/dev/client3/rdock/2013.1/src/exe/rbdock.cxx#4 $)

>  <Rbt.Library>
libRbt.so (2013.1, Build901 2013/11/27)

>  <Rbt.Parameter_File>
/export/apps/rDock/src/rDock_2013.1_src/data/scripts/dock_solv.prm

>  <Rbt.Receptor>
prm/blind_docking_60.prm

>  <SCORE>
-3.88567

>  <SCORE.INTER>
-2.41939

>  <SCORE.INTER.CONST>
1

>  <SCORE.INTER.POLAR>
0

>  <SCORE.INTER.ROT>
7

>  <SCORE.INTER.SOLV>
11.7808

>  <SCORE.INTER.VDW>
-13.8065

>  <SCORE.INTER.norm>
-0.0930535

>  <SCORE.INTRA>
-1.58961

>  <SCORE.INTRA.DIHEDRAL>
1.19466

>  <SCORE.INTRA.DIHEDRAL.0>
6.97628

>  <SCORE.INTRA.POLAR>
0

>  <SCORE.INTRA.POLAR.0>
0

>  <SCORE.INTRA.REPUL>
0

>  <SCORE.INTRA.REPUL.0>
0

>  <SCORE.INTRA.SOLV>
-0.321096

>  <SCORE.INTRA.SOLV.lig_0>
-49.8243

>  <SCORE.INTRA.VDW>
-2.02639

>  <SCORE.INTRA.VDW.0>
-1.35881

>  <SCORE.INTRA.norm>
-0.0611387

>  <SCORE.RESTR>
0.123329

>  <SCORE.RESTR.CAVITY>
0.123329

>  <SCORE.RESTR.norm>
0.00474341

>  <SCORE.SYSTEM>
0

>  <SCORE.SYSTEM.CONST>
0

>  <SCORE.SYSTEM.DIHEDRAL>
0

>  <SCORE.SYSTEM.SOLV>
0

>  <SCORE.SYSTEM.norm>
0

>  <SCORE.heavy>
26

>  <SCORE.norm>
-0.149449

>  <RMSD>
15.021

$$$$
ligand
 OpenBabel11021811483D
libRbt.so/2013.1/901 2013/11/27
 26 28  0  0  0  0  0  0  0  0999 V2000
   28.4004    4.8210    7.2082 N   0  0  0  0  0  0  0  0  0  0  0  0
   28.5016    4.8034    5.7542 C   0  0  2  0  0  0  0  0  0  0  0  0
   29.3601    3.6371    5.2781 C   0  0  0  0  0  0  0  0  0  0  0  0
   30.5041    3.4782    5.7021 O   0  0  0  0  0  0  0  0  0  0  0  0
   29.0771    6.1183    5.2434 C   0  0  0  0  0  0  0  0  0  0  0  0
   28.2353    7.3408    5.5849 C   0  0  0  0  0  0  0  0  0  0  0  0
   28.9923    8.8851    5.0191 S   0  0  0  0  0  0  0  0  0  0  0  0
   27.6693    9.8295    5.8165 C   0  0  0  0  0  0  0  0  0  0  0  0
   27.5900   11.2677    5.3178 C   0  0  1  0  0  0  0  0  0  0  0  0
   26.4858   11.9252    5.9123 O   0  0  0  0  0  0  0  0  0  0  0  0
   28.8431   12.0516    5.6720 C   0  0  1  0  0  0  0  0  0  0  0  0
   29.5076   12.4526    4.4972 O   0  0  0  0  0  0  0  0  0  0  0  0
   28.3673   13.2672    6.4400 C   0  0  1  0  0  0  0  0  0  0  0  0
   28.7837   14.4447    5.7886 O   0  0  0  0  0  0  0  0  0  0  0  0
   26.8506   13.1830    6.4492 C   0  0  2  0  0  0  0  0  0  0  0  0
   28.9289    2.8256    4.4580 O   0  0  0  0  0  0  0  0  0  0  0  0
   22.6404   12.9918    9.5805 N   0  0  0  0  0  0  0  0  0  0  0  0
   22.6944   12.7997    8.2146 C   0  0  0  0  0  0  0  0  0  0  0  0
   23.9001   12.8879    7.5473 N   0  0  0  0  0  0  0  0  0  0  0  0
   25.0394   13.1651    8.2272 C   0  0  0  0  0  0  0  0  0  0  0  0
   25.0054   13.3619    9.6010 C   0  0  0  0  0  0  0  0  0  0  0  0
   23.7962   13.2740   10.2801 C   0  0  0  0  0  0  0  0  0  0  0  0
   23.7515   13.4617   11.5958 N   0  0  0  0  0  0  0  0  0  0  0  0
   26.2650   13.6181   10.0156 N   0  0  0  0  0  0  0  0  0  0  0  0
   27.0904   13.5885    8.9441 C   0  0  0  0  0  0  0  0  0  0  0  0
   26.3448   13.3087    7.8280 N   0  0  0  0  0  0  0  0  0  0  0  0
  2  1  1  1  0  0  0
  2  3  1  0  0  0  0
  2  5  1  0  0  0  0
  3  4  1  0  0  0  0
  3 16  1  0  0  0  0
  5  6  1  0  0  0  0
  6  7  1  0  0  0  0
  7  8  1  0  0  0  0
  9  8  1  1  0  0  0
  9 10  1  0  0  0  0
  9 11  1  0  0  0  0
 10 15  1  0  0  0  0
 11 12  1  6  0  0  0
 11 13  1  0  0  0  0
 13 14  1  6  0  0  0
 13 15  1  0  0  0  0
 15 26  1  1  0  0  0
 17 18  2  0  0  0  0
 17 22  1  0  0  0  0
 18 19  1  0  0  0  0
 19 20  2  0  0  0  0
 20 21  1  0  0  0  0
 20 26  1  0  0  0  0
 21 22  2  0  0  0  0
 21 24  1  0  0  0  0
 22 23  1  0  0  0  0
 24 25  2  0  0  0  0
 25 26  1  0  0  0  0
M  END
>  <CHROM.1>
-54.64417390,-60.96389203,177.58794978,-175.43093223,-163.52548317,176.20871632
-55.53742922,27.20263174,10.33308914,6.82639024,0.98118620,-0.73960893,3.09956704

>  <Name>
ligand

>  <RI>
0

>  <Rbt.Current_Directory>
/home/itssahil/PROJECTS/Mol_Feturizer/New_Systems/rnas/3NPQ

>  <Rbt.Executable>
rbdock ($Id: //depot/dev/client3/rdock/2013.1/src/exe/rbdock.cxx#4 $)

>  <Rbt.Library>
libRbt.so (2013.1, Build901 2013/11/27)

>  <Rbt.Parameter_File>
/export/apps/rDock/src/rDock_2013.1_src/data/scripts/dock_solv.prm

>  <Rbt.Receptor>
prm/blind_docking_40.prm

>  <SCORE>
-11.5816

>  <SCORE.INTER>
-9.35766

>  <SCORE.INTER.CONST>
1

>  <SCORE.INTER.POLAR>
0

>  <SCORE.INTER.ROT>
7

>  <SCORE.INTER.SOLV>
9.45253

>  <SCORE.INTER.VDW>
-17.6559

>  <SCORE.INTER.norm>
-0.35991

>  <SCORE.INTRA>
-2.22393

>  <SCORE.INTRA.DIHEDRAL>
-3.776

>  <SCORE.INTRA.DIHEDRAL.0>
6.97628

>  <SCORE.INTRA.POLAR>
0

>  <SCORE.INTRA.POLAR.0>
0

>  <SCORE.INTRA.REPUL>
0

>  <SCORE.INTRA.REPUL.0>
0

>  <SCORE.INTRA.SOLV>
-0.149604

>  <SCORE.INTRA.SOLV.lig_0>
-49.8243

>  <SCORE.INTRA.VDW>
-0.261127

>  <SCORE.INTRA.VDW.0>
-1.35881

>  <SCORE.INTRA.norm>
-0.0855358

>  <SCORE.RESTR>
0

>  <SCORE.RESTR.CAVITY>
0

>  <SCORE.RESTR.norm>
0

>  <SCORE.SYSTEM>
0

>  <SCORE.SYSTEM.CONST>
0

>  <SCORE.SYSTEM.DIHEDRAL>
0

>  <SCORE.SYSTEM.SOLV>
0

>  <SCORE.SYSTEM.norm>
0

>  <SCORE.heavy>
26

>  <SCORE.norm>
-0.445446

>  <RMSD>
15.031

$$$$
ligand
 OpenBabel11021811483D
libRbt.so/2013.1/901 2013/11/27
 26 28  0  0  0  0  0  0  0  0999 V2000
   35.6453   23.5132   17.9903 N   0  0  0  0  0  0  0  0  0  0  0  0
   35.9445   23.9985   16.6489 C   0  0  2  0  0  0  0  0  0  0  0  0
   35.6799   22.9207   15.6038 C   0  0  0  0  0  0  0  0  0  0  0  0
   35.0937   21.8806   15.9011 O   0  0  0  0  0  0  0  0  0  0  0  0
   37.3916   24.4670   16.5613 C   0  0  0  0  0  0  0  0  0  0  0  0
   38.4175   23.3685   16.8071 C   0  0  0  0  0  0  0  0  0  0  0  0
   38.3850   22.7569   18.5110 S   0  0  0  0  0  0  0  0  0  0  0  0
   38.1501   21.0675   17.9034 C   0  0  0  0  0  0  0  0  0  0  0  0
   38.3394   20.0187   18.9931 C   0  0  1  0  0  0  0  0  0  0  0  0
   37.4326   20.2555   20.0546 O   0  0  0  0  0  0  0  0  0  0  0  0
   38.0837   18.6154   18.4682 C   0  0  1  0  0  0  0  0  0  0  0  0
   39.2633   17.8506   18.5457 O   0  0  0  0  0  0  0  0  0  0  0  0
   37.0210   18.0235   19.3705 C   0  0  1  0  0  0  0  0  0  0  0  0
   37.5007   16.8449   19.9747 O   0  0  0  0  0  0  0  0  0  0  0  0
   36.7427   19.0776   20.4284 C   0  0  2  0  0  0  0  0  0  0  0  0
   36.0459   23.0654   14.4368 O   0  0  0  0  0  0  0  0  0  0  0  0
   31.9905   17.9511   18.5009 N   0  0  0  0  0  0  0  0  0  0  0  0
   33.2106   17.4354   18.1122 C   0  0  0  0  0  0  0  0  0  0  0  0
   34.3708   17.8496   18.7360 N   0  0  0  0  0  0  0  0  0  0  0  0
   34.3216   18.7663   19.7330 C   0  0  0  0  0  0  0  0  0  0  0  0
   33.1043   19.2970   20.1377 C   0  0  0  0  0  0  0  0  0  0  0  0
   31.9319   18.8848   19.5157 C   0  0  0  0  0  0  0  0  0  0  0  0
   30.7604   19.3870   19.8944 N   0  0  0  0  0  0  0  0  0  0  0  0
   33.3446   20.1750   21.1354 N   0  0  0  0  0  0  0  0  0  0  0  0
   34.6764   20.2130   21.3705 C   0  0  0  0  0  0  0  0  0  0  0  0
   35.2954   19.3446   20.5086 N   0  0  0  0  0  0  0  0  0  0  0  0
  2  1  1  1  0  0  0
  2  3  1  0  0  0  0
  2  5  1  0  0  0  0
  3  4  1  0  0  0  0
  3 16  1  0  0  0  0
  5  6  1  0  0  0  0
  6  7  1  0  0  0  0
  7  8  1  0  0  0  0
  9  8  1  6  0  0  0
  9 10  1  0  0  0  0
  9 11  1  0  0  0  0
 10 15  1  0  0  0  0
 11 12  1  1  0  0  0
 11 13  1  0  0  0  0
 13 14  1  1  0  0  0
 13 15  1  0  0  0  0
 15 26  1  6  0  0  0
 17 18  2  0  0  0  0
 17 22  1  0  0  0  0
 18 19  1  0  0  0  0
 19 20  2  0  0  0  0
 20 21  1  0  0  0  0
 20 26  1  0  0  0  0
 21 22  2  0  0  0  0
 21 24  1  0  0  0  0
 22 23  1  0  0  0  0
 24 25  2  0  0  0  0
 25 26  1  0  0  0  0
M  END
>  <CHROM.1>
10.33805049,62.58778456,-66.82439665,125.07851633,167.99224181,58.25172498
117.07502403,35.90357414,20.40871610,18.56517452,0.97933140,-0.01311245,-0.57804975

>  <Name>
ligand

>  <RI>
0

>  <Rbt.Current_Directory>
/home/itssahil/PROJECTS/Mol_Feturizer/New_Systems/rnas/3NPQ

>  <Rbt.Executable>
rbdock ($Id: //depot/dev/client3/rdock/2013.1/src/exe/rbdock.cxx#4 $)

>  <Rbt.Library>
libRbt.so (2013.1, Build901 2013/11/27)

>  <Rbt.Parameter_File>
/export/apps/rDock/src/rDock_2013.1_src/data/scripts/dock_solv.prm

>  <Rbt.Receptor>
prm/blind_docking_80.prm

>  <SCORE>
-8.38643

>  <SCORE.INTER>
-8.75576

>  <SCORE.INTER.CONST>
1

>  <SCORE.INTER.POLAR>
0

>  <SCORE.INTER.ROT>
7

>  <SCORE.INTER.SOLV>
6.8386

>  <SCORE.INTER.VDW>
-16.3834

>  <SCORE.INTER.norm>
-0.33676

>  <SCORE.INTRA>
0.369125

>  <SCORE.INTRA.DIHEDRAL>
-1.51377

>  <SCORE.INTRA.DIHEDRAL.0>
6.97628

>  <SCORE.INTRA.POLAR>
0

>  <SCORE.INTRA.POLAR.0>
0

>  <SCORE.INTRA.REPUL>
0.00418052

>  <SCORE.INTRA.REPUL.0>
0

>  <SCORE.INTRA.SOLV>
2.05793

>  <SCORE.INTRA.SOLV.lig_0>
-49.8243

>  <SCORE.INTRA.VDW>
0.076141

>  <SCORE.INTRA.VDW.0>
-1.35881

>  <SCORE.INTRA.norm>
0.0141971

>  <SCORE.RESTR>
0.000202202

>  <SCORE.RESTR.CAVITY>
0.000202202

>  <SCORE.RESTR.norm>
7.777e-06

>  <SCORE.SYSTEM>
0

>  <SCORE.SYSTEM.CONST>
0

>  <SCORE.SYSTEM.DIHEDRAL>
0

>  <SCORE.SYSTEM.SOLV>
0

>  <SCORE.SYSTEM.norm>
0

>  <SCORE.heavy>
26

>  <SCORE.norm>
-0.322555

>  <RMSD>
15.031

$$$$
ligand
 OpenBabel11021811483D
libRbt.so/2013.1/901 2013/11/27
 26 28  0  0  0  0  0  0  0  0999 V2000
   37.8009   24.1921   21.6758 N   0  0  0  0  0  0  0  0  0  0  0  0
   36.7855   23.5859   20.8237 C   0  0  2  0  0  0  0  0  0  0  0  0
   35.9207   22.6084   21.6114 C   0  0  0  0  0  0  0  0  0  0  0  0
   36.4086   21.8938   22.4861 O   0  0  0  0  0  0  0  0  0  0  0  0
   37.4346   22.8750   19.6429 C   0  0  0  0  0  0  0  0  0  0  0  0
   38.1076   23.8100   18.6467 C   0  0  0  0  0  0  0  0  0  0  0  0
   38.6121   22.9608   17.1292 S   0  0  0  0  0  0  0  0  0  0  0  0
   37.8003   24.2410   16.1392 C   0  0  0  0  0  0  0  0  0  0  0  0
   36.3232   23.9511   15.8993 C   0  0  1  0  0  0  0  0  0  0  0  0
   36.1263   22.5600   15.7227 O   0  0  0  0  0  0  0  0  0  0  0  0
   35.4686   24.3956   17.0751 C   0  0  1  0  0  0  0  0  0  0  0  0
   34.5835   25.4124   16.6690 O   0  0  0  0  0  0  0  0  0  0  0  0
   34.6893   23.1706   17.5064 C   0  0  1  0  0  0  0  0  0  0  0  0
   33.3060   23.4277   17.4365 O   0  0  0  0  0  0  0  0  0  0  0  0
   35.0675   22.0735   16.5262 C   0  0  2  0  0  0  0  0  0  0  0  0
   34.7128   22.5107   21.3914 O   0  0  0  0  0  0  0  0  0  0  0  0
   33.5925   17.5234   18.6914 N   0  0  0  0  0  0  0  0  0  0  0  0
   32.8038   18.4525   18.0433 C   0  0  0  0  0  0  0  0  0  0  0  0
   33.3660   19.6047   17.5304 N   0  0  0  0  0  0  0  0  0  0  0  0
   34.6956   19.8335   17.6604 C   0  0  0  0  0  0  0  0  0  0  0  0
   35.5053   18.9113   18.3094 C   0  0  0  0  0  0  0  0  0  0  0  0
   34.9474   17.7488   18.8276 C   0  0  0  0  0  0  0  0  0  0  0  0
   35.7131   16.8589   19.4520 N   0  0  0  0  0  0  0  0  0  0  0  0
   36.7698   19.3853   18.2946 N   0  0  0  0  0  0  0  0  0  0  0  0
   36.7802   20.5780   17.6561 C   0  0  0  0  0  0  0  0  0  0  0  0
   35.5012   20.8691   17.2570 N   0  0  0  0  0  0  0  0  0  0  0  0
  2  1  1  1  0  0  0
  2  3  1  0  0  0  0
  2  5  1  0  0  0  0
  3  4  1  0  0  0  0
  3 16  1  0  0  0  0
  5  6  1  0  0  0  0
  6  7  1  0  0  0  0
  7  8  1  0  0  0  0
  9  8  1  1  0  0  0
  9 10  1  0  0  0  0
  9 11  1  0  0  0  0
 10 15  1  0  0  0  0
 11 12  1  6  0  0  0
 11 13  1  0  0  0  0
 13 14  1  6  0  0  0
 13 15  1  0  0  0  0
 15 26  1  1  0  0  0
 17 18  2  0  0  0  0
 17 22  1  0  0  0  0
 18 19  1  0  0  0  0
 19 20  2  0  0  0  0
 20 21  1  0  0  0  0
 20 26  1  0  0  0  0
 21 22  2  0  0  0  0
 21 24  1  0  0  0  0
 22 23  1  0  0  0  0
 24 25  2  0  0  0  0
 25 26  1  0  0  0  0
M  END
>  <CHROM.1>
-37.37948644,-67.73138225,-170.13102793,129.94451879,-86.91717676,-36.63499027
-150.93832343,35.86507480,21.81248610,18.33872660,-0.62020255,1.08153797
2.10858248

>  <Name>
ligand

>  <RI>
0

>  <Rbt.Current_Directory>
/home/itssahil/PROJECTS/Mol_Feturizer/New_Systems/rnas/3NPQ

>  <Rbt.Executable>
rbdock ($Id: //depot/dev/client3/rdock/2013.1/src/exe/rbdock.cxx#4 $)

>  <Rbt.Library>
libRbt.so (2013.1, Build901 2013/11/27)

>  <Rbt.Parameter_File>
/export/apps/rDock/src/rDock_2013.1_src/data/scripts/dock_solv.prm

>  <Rbt.Receptor>
prm/blind_docking_60.prm

>  <SCORE>
-7.76294

>  <SCORE.INTER>
-6.32492

>  <SCORE.INTER.CONST>
1

>  <SCORE.INTER.POLAR>
0

>  <SCORE.INTER.ROT>
7

>  <SCORE.INTER.SOLV>
10.7835

>  <SCORE.INTER.VDW>
-16.0778

>  <SCORE.INTER.norm>
-0.243266

>  <SCORE.INTRA>
-1.91485

>  <SCORE.INTRA.DIHEDRAL>
1.29329

>  <SCORE.INTRA.DIHEDRAL.0>
6.97628

>  <SCORE.INTRA.POLAR>
0

>  <SCORE.INTRA.POLAR.0>
0

>  <SCORE.INTRA.REPUL>
0

>  <SCORE.INTRA.REPUL.0>
0

>  <SCORE.INTRA.SOLV>
0.255697

>  <SCORE.INTRA.SOLV.lig_0>
-49.8243

>  <SCORE.INTRA.VDW>
-2.68934

>  <SCORE.INTRA.VDW.0>
-1.35881

>  <SCORE.INTRA.norm>
-0.0736479

>  <SCORE.RESTR>
0.476825

>  <SCORE.RESTR.CAVITY>
0.476825

>  <SCORE.RESTR.norm>
0.0183394

>  <SCORE.SYSTEM>
0

>  <SCORE.SYSTEM.CONST>
0

>  <SCORE.SYSTEM.DIHEDRAL>
0

>  <SCORE.SYSTEM.SOLV>
0

>  <SCORE.SYSTEM.norm>
0

>  <SCORE.heavy>
26

>  <SCORE.norm>
-0.298575

>  <RMSD>
15.054

$$$$
ligand
 OpenBabel11021811483D
libRbt.so/2013.1/901 2013/11/27
 26 28  0  0  0  0  0  0  0  0999 V2000
   30.9010   17.4772   18.5641 N   0  0  0  0  0  0  0  0  0  0  0  0
   31.4723   18.8180   18.5466 C   0  0  2  0  0  0  0  0  0  0  0  0
   31.1538   19.5668   19.8357 C   0  0  0  0  0  0  0  0  0  0  0  0
   30.0220   19.9965   20.0555 O   0  0  0  0  0  0  0  0  0  0  0  0
   30.9572   19.6021   17.3461 C   0  0  0  0  0  0  0  0  0  0  0  0
   31.9357   20.6413   16.8149 C   0  0  0  0  0  0  0  0  0  0  0  0
   32.4529   21.8218   18.0866 S   0  0  0  0  0  0  0  0  0  0  0  0
   34.1701   21.2808   17.8950 C   0  0  0  0  0  0  0  0  0  0  0  0
   34.6498   20.4216   19.0590 C   0  0  1  0  0  0  0  0  0  0  0  0
   35.7643   19.6450   18.6593 O   0  0  0  0  0  0  0  0  0  0  0  0
   35.0778   21.2735   20.2428 C   0  0  1  0  0  0  0  0  0  0  0  0
   34.2450   21.0140   21.3480 O   0  0  0  0  0  0  0  0  0  0  0  0
   36.5007   20.8602   20.5567 C   0  0  1  0  0  0  0  0  0  0  0  0
   36.5885   20.3969   21.8841 O   0  0  0  0  0  0  0  0  0  0  0  0
   36.8285   19.7371   19.5879 C   0  0  2  0  0  0  0  0  0  0  0  0
   32.0216   19.7593   20.6883 O   0  0  0  0  0  0  0  0  0  0  0  0
   39.7633   23.4072   17.2460 N   0  0  0  0  0  0  0  0  0  0  0  0
   38.5237   23.5567   17.8346 C   0  0  0  0  0  0  0  0  0  0  0  0
   37.8914   22.4717   18.4088 N   0  0  0  0  0  0  0  0  0  0  0  0
   38.4814   21.2516   18.3978 C   0  0  0  0  0  0  0  0  0  0  0  0
   39.7275   21.0809   17.8101 C   0  0  0  0  0  0  0  0  0  0  0  0
   40.3709   22.1680   17.2309 C   0  0  0  0  0  0  0  0  0  0  0  0
   41.5643   22.0161   16.6643 N   0  0  0  0  0  0  0  0  0  0  0  0
   40.0744   19.7822   17.9408 N   0  0  0  0  0  0  0  0  0  0  0  0
   39.0841   19.1306   18.5926 C   0  0  0  0  0  0  0  0  0  0  0  0
   38.0895   20.0286   18.8826 N   0  0  0  0  0  0  0  0  0  0  0  0
  2  1  1  1  0  0  0
  2  3  1  0  0  0  0
  2  5  1  0  0  0  0
  3  4  1  0  0  0  0
  3 16  1  0  0  0  0
  5  6  1  0  0  0  0
  6  7  1  0  0  0  0
  7  8  1  0  0  0  0
  9  8  1  6  0  0  0
  9 10  1  0  0  0  0
  9 11  1  0  0  0  0
 10 15  1  0  0  0  0
 11 12  1  1  0  0  0
 11 13  1  0  0  0  0
 13 14  1  1  0  0  0
 13 15  1  0  0  0  0
 15 26  1  6  0  0  0
 17 18  2  0  0  0  0
 17 22  1  0  0  0  0
 18 19  1  0  0  0  0
 19 20  2  0  0  0  0
 20 21  1  0  0  0  0
 20 26  1  0  0  0  0
 21 22  2  0  0  0  0
 21 24  1  0  0  0  0
 22 23  1  0  0  0  0
 24 25  2  0  0  0  0
 25 26  1  0  0  0  0
M  END
>  <CHROM.1>
-73.53797626,-150.02368060,-56.01511634,118.57426611,-106.24583306,158.81672093
77.76899451,35.43568439,20.69524697,18.79411321,-2.92874897,-0.12219626,-1.07027763

>  <Name>
ligand

>  <RI>
0

>  <Rbt.Current_Directory>
/home/itssahil/PROJECTS/Mol_Feturizer/New_Systems/rnas/3NPQ

>  <Rbt.Executable>
rbdock ($Id: //depot/dev/client3/rdock/2013.1/src/exe/rbdock.cxx#4 $)

>  <Rbt.Library>
libRbt.so (2013.1, Build901 2013/11/27)

>  <Rbt.Parameter_File>
/export/apps/rDock/src/rDock_2013.1_src/data/scripts/dock_solv.prm

>  <Rbt.Receptor>
prm/blind_docking_60.prm

>  <SCORE>
-9.39062

>  <SCORE.INTER>
-9.03656

>  <SCORE.INTER.CONST>
1

>  <SCORE.INTER.POLAR>
0

>  <SCORE.INTER.ROT>
7

>  <SCORE.INTER.SOLV>
8.21872

>  <SCORE.INTER.VDW>
-17.0306

>  <SCORE.INTER.norm>
-0.34756

>  <SCORE.INTRA>
-0.354057

>  <SCORE.INTRA.DIHEDRAL>
4.5929

>  <SCORE.INTRA.DIHEDRAL.0>
6.97628

>  <SCORE.INTRA.POLAR>
0

>  <SCORE.INTRA.POLAR.0>
0

>  <SCORE.INTRA.REPUL>
0

>  <SCORE.INTRA.REPUL.0>
0

>  <SCORE.INTRA.SOLV>
-0.329647

>  <SCORE.INTRA.SOLV.lig_0>
-49.8243

>  <SCORE.INTRA.VDW>
-2.48568

>  <SCORE.INTRA.VDW.0>
-1.35881

>  <SCORE.INTRA.norm>
-0.0136176

>  <SCORE.RESTR>
0

>  <SCORE.RESTR.CAVITY>
0

>  <SCORE.RESTR.norm>
0

>  <SCORE.SYSTEM>
0

>  <SCORE.SYSTEM.CONST>
0

>  <SCORE.SYSTEM.DIHEDRAL>
0

>  <SCORE.SYSTEM.SOLV>
0

>  <SCORE.SYSTEM.norm>
0

>  <SCORE.heavy>
26

>  <SCORE.norm>
-0.361178

>  <RMSD>
15.063

$$$$
ligand
 OpenBabel11021811483D
libRbt.so/2013.1/901 2013/11/27
 26 28  0  0  0  0  0  0  0  0999 V2000
   32.9762    1.3451    7.6579 N   0  0  0  0  0  0  0  0  0  0  0  0
   33.1796    2.7582    7.9518 C   0  0  2  0  0  0  0  0  0  0  0  0
   34.4049    2.9639    8.8351 C   0  0  0  0  0  0  0  0  0  0  0  0
   35.1918    2.0430    9.0512 O   0  0  0  0  0  0  0  0  0  0  0  0
   31.9457    3.3463    8.6248 C   0  0  0  0  0  0  0  0  0  0  0  0
   31.9271    4.8686    8.6697 C   0  0  0  0  0  0  0  0  0  0  0  0
   31.7998    5.6101    7.0228 S   0  0  0  0  0  0  0  0  0  0  0  0
   30.2524    6.4183    7.5029 C   0  0  0  0  0  0  0  0  0  0  0  0
   29.0341    5.5255    7.2982 C   0  0  1  0  0  0  0  0  0  0  0  0
   27.9209    6.0610    7.9903 O   0  0  0  0  0  0  0  0  0  0  0  0
   28.6602    5.4190    5.8288 C   0  0  1  0  0  0  0  0  0  0  0  0
   28.7982    4.0874    5.3928 O   0  0  0  0  0  0  0  0  0  0  0  0
   27.2101    5.8470    5.7390 C   0  0  1  0  0  0  0  0  0  0  0  0
   26.4330    4.8105    5.1856 O   0  0  0  0  0  0  0  0  0  0  0  0
   26.7716    6.1243    7.1667 C   0  0  2  0  0  0  0  0  0  0  0  0
   34.6369    4.0569    9.3533 O   0  0  0  0  0  0  0  0  0  0  0  0
   27.2003   11.2067    5.9205 N   0  0  0  0  0  0  0  0  0  0  0  0
   28.0735   10.1804    5.6206 C   0  0  0  0  0  0  0  0  0  0  0  0
   27.7984    8.8913    6.0320 N   0  0  0  0  0  0  0  0  0  0  0  0
   26.6707    8.6234    6.7344 C   0  0  0  0  0  0  0  0  0  0  0  0
   25.7806    9.6420    7.0462 C   0  0  0  0  0  0  0  0  0  0  0  0
   26.0495   10.9420    6.6351 C   0  0  0  0  0  0  0  0  0  0  0  0
   25.2046   11.9258    6.9289 N   0  0  0  0  0  0  0  0  0  0  0  0
   24.7569    9.1013    7.7417 N   0  0  0  0  0  0  0  0  0  0  0  0
   24.9762    7.7731    7.8770 C   0  0  0  0  0  0  0  0  0  0  0  0
   26.1591    7.4620    7.2575 N   0  0  0  0  0  0  0  0  0  0  0  0
  2  1  1  1  0  0  0
  2  3  1  0  0  0  0
  2  5  1  0  0  0  0
  3  4  1  0  0  0  0
  3 16  1  0  0  0  0
  5  6  1  0  0  0  0
  6  7  1  0  0  0  0
  7  8  1  0  0  0  0
  9  8  1  6  0  0  0
  9 10  1  0  0  0  0
  9 11  1  0  0  0  0
 10 15  1  0  0  0  0
 11 12  1  1  0  0  0
 11 13  1  0  0  0  0
 13 14  1  1  0  0  0
 13 15  1  0  0  0  0
 15 26  1  6  0  0  0
 17 18  2  0  0  0  0
 17 22  1  0  0  0  0
 18 19  1  0  0  0  0
 19 20  2  0  0  0  0
 20 21  1  0  0  0  0
 20 26  1  0  0  0  0
 21 22  2  0  0  0  0
 21 24  1  0  0  0  0
 22 23  1  0  0  0  0
 24 25  2  0  0  0  0
 25 26  1  0  0  0  0
M  END
>  <CHROM.1>
10.62705114,-166.16459141,65.95384977,120.14126373,-86.13082782,165.26432646
71.18794819,29.21357154,6.28159563,7.19947536,0.65963340,0.31708578,-3.01806477

>  <Name>
ligand

>  <RI>
0

>  <Rbt.Current_Directory>
/home/itssahil/PROJECTS/Mol_Feturizer/New_Systems/rnas/3NPQ

>  <Rbt.Executable>
rbdock ($Id: //depot/dev/client3/rdock/2013.1/src/exe/rbdock.cxx#4 $)

>  <Rbt.Library>
libRbt.so (2013.1, Build901 2013/11/27)

>  <Rbt.Parameter_File>
/export/apps/rDock/src/rDock_2013.1_src/data/scripts/dock_solv.prm

>  <Rbt.Receptor>
prm/blind_docking_40.prm

>  <SCORE>
-12.1766

>  <SCORE.INTER>
-11.1805

>  <SCORE.INTER.CONST>
1

>  <SCORE.INTER.POLAR>
0

>  <SCORE.INTER.ROT>
7

>  <SCORE.INTER.SOLV>
6.89931

>  <SCORE.INTER.VDW>
-18.0201

>  <SCORE.INTER.norm>
-0.43002

>  <SCORE.INTRA>
-0.996116

>  <SCORE.INTRA.DIHEDRAL>
0.641401

>  <SCORE.INTRA.DIHEDRAL.0>
6.97628

>  <SCORE.INTRA.POLAR>
0

>  <SCORE.INTRA.POLAR.0>
0

>  <SCORE.INTRA.REPUL>
0

>  <SCORE.INTRA.REPUL.0>
0

>  <SCORE.INTRA.SOLV>
-0.573011

>  <SCORE.INTRA.SOLV.lig_0>
-49.8243

>  <SCORE.INTRA.VDW>
-1.03031

>  <SCORE.INTRA.VDW.0>
-1.35881

>  <SCORE.INTRA.norm>
-0.0383122

>  <SCORE.RESTR>
0

>  <SCORE.RESTR.CAVITY>
0

>  <SCORE.RESTR.norm>
0

>  <SCORE.SYSTEM>
0

>  <SCORE.SYSTEM.CONST>
0

>  <SCORE.SYSTEM.DIHEDRAL>
0

>  <SCORE.SYSTEM.SOLV>
0

>  <SCORE.SYSTEM.norm>
0

>  <SCORE.heavy>
26

>  <SCORE.norm>
-0.468332

>  <RMSD>
15.073

$$$$
ligand
 OpenBabel11021811483D
libRbt.so/2013.1/901 2013/11/27
 26 28  0  0  0  0  0  0  0  0999 V2000
   35.5750   18.7384   19.6989 N   0  0  0  0  0  0  0  0  0  0  0  0
   34.2704   18.2965   20.1758 C   0  0  2  0  0  0  0  0  0  0  0  0
   33.5770   17.4175   19.1411 C   0  0  0  0  0  0  0  0  0  0  0  0
   33.1151   16.3197   19.4501 O   0  0  0  0  0  0  0  0  0  0  0  0
   33.3926   19.4944   20.5159 C   0  0  0  0  0  0  0  0  0  0  0  0
   33.9510   20.3815   21.6209 C   0  0  0  0  0  0  0  0  0  0  0  0
   35.3498   21.3871   21.0635 S   0  0  0  0  0  0  0  0  0  0  0  0
   34.2271   22.7668   20.7252 C   0  0  0  0  0  0  0  0  0  0  0  0
   34.1273   23.0935   19.2397 C   0  0  1  0  0  0  0  0  0  0  0  0
   35.3948   23.4853   18.7448 O   0  0  0  0  0  0  0  0  0  0  0  0
   33.6651   21.8910   18.4332 C   0  0  1  0  0  0  0  0  0  0  0  0
   32.4229   22.1652   17.8298 O   0  0  0  0  0  0  0  0  0  0  0  0
   34.7222   21.6750   17.3701 C   0  0  1  0  0  0  0  0  0  0  0  0
   34.1417   21.7479   16.0887 O   0  0  0  0  0  0  0  0  0  0  0  0
   35.7284   22.7982   17.5532 C   0  0  2  0  0  0  0  0  0  0  0  0
   33.4622   17.7851   17.9713 O   0  0  0  0  0  0  0  0  0  0  0  0
   40.8024   23.4757   16.3861 N   0  0  0  0  0  0  0  0  0  0  0  0
   39.7410   24.3038   16.0804 C   0  0  0  0  0  0  0  0  0  0  0  0
   38.4604   23.9650   16.4704 N   0  0  0  0  0  0  0  0  0  0  0  0
   38.2349   22.8169   17.1545 C   0  0  0  0  0  0  0  0  0  0  0  0
   39.2892   21.9709   17.4707 C   0  0  0  0  0  0  0  0  0  0  0  0
   40.5811   22.3049   17.0827 C   0  0  0  0  0  0  0  0  0  0  0  0
   41.5985   21.5017   17.3793 N   0  0  0  0  0  0  0  0  0  0  0  0
   38.7866   20.9148   18.1461 N   0  0  0  0  0  0  0  0  0  0  0  0
   37.4479   21.0707   18.2642 C   0  0  0  0  0  0  0  0  0  0  0  0
   37.0911   22.2457   17.6542 N   0  0  0  0  0  0  0  0  0  0  0  0
  2  1  1  6  0  0  0
  2  3  1  0  0  0  0
  2  5  1  0  0  0  0
  3  4  1  0  0  0  0
  3 16  1  0  0  0  0
  5  6  1  0  0  0  0
  6  7  1  0  0  0  0
  7  8  1  0  0  0  0
  9  8  1  1  0  0  0
  9 10  1  0  0  0  0
  9 11  1  0  0  0  0
 10 15  1  0  0  0  0
 11 12  1  6  0  0  0
 11 13  1  0  0  0  0
 13 14  1  6  0  0  0
 13 15  1  0  0  0  0
 15 26  1  1  0  0  0
 17 18  2  0  0  0  0
 17 22  1  0  0  0  0
 18 19  1  0  0  0  0
 19 20  2  0  0  0  0
 20 21  1  0  0  0  0
 20 26  1  0  0  0  0
 21 22  2  0  0  0  0
 21 24  1  0  0  0  0
 22 23  1  0  0  0  0
 24 25  2  0  0  0  0
 25 26  1  0  0  0  0
M  END
>  <CHROM.1>
129.00358322,-61.29229122,73.89437161,94.98866458,-113.49585389,-61.73283483
-97.50575517,35.97654475,21.27116916,18.51827602,-2.54610280,0.28512299,-0.24084434

>  <Name>
ligand

>  <RI>
0

>  <Rbt.Current_Directory>
/home/itssahil/PROJECTS/Mol_Feturizer/New_Systems/rnas/3NPQ

>  <Rbt.Executable>
rbdock ($Id: //depot/dev/client3/rdock/2013.1/src/exe/rbdock.cxx#4 $)

>  <Rbt.Library>
libRbt.so (2013.1, Build901 2013/11/27)

>  <Rbt.Parameter_File>
/export/apps/rDock/src/rDock_2013.1_src/data/scripts/dock_solv.prm

>  <Rbt.Receptor>
prm/blind_docking_60.prm

>  <SCORE>
-8.15506

>  <SCORE.INTER>
-7.47533

>  <SCORE.INTER.CONST>
1

>  <SCORE.INTER.POLAR>
0

>  <SCORE.INTER.ROT>
7

>  <SCORE.INTER.SOLV>
7.55889

>  <SCORE.INTER.VDW>
-15.7699

>  <SCORE.INTER.norm>
-0.287513

>  <SCORE.INTRA>
-0.679728

>  <SCORE.INTRA.DIHEDRAL>
0.247399

>  <SCORE.INTRA.DIHEDRAL.0>
6.97628

>  <SCORE.INTRA.POLAR>
0

>  <SCORE.INTRA.POLAR.0>
0

>  <SCORE.INTRA.REPUL>
0

>  <SCORE.INTRA.REPUL.0>
0

>  <SCORE.INTRA.SOLV>
2.97068

>  <SCORE.INTRA.SOLV.lig_0>
-49.8243

>  <SCORE.INTRA.VDW>
-2.28877

>  <SCORE.INTRA.VDW.0>
-1.35881

>  <SCORE.INTRA.norm>
-0.0261434

>  <SCORE.RESTR>
0

>  <SCORE.RESTR.CAVITY>
0

>  <SCORE.RESTR.norm>
0

>  <SCORE.SYSTEM>
0

>  <SCORE.SYSTEM.CONST>
0

>  <SCORE.SYSTEM.DIHEDRAL>
0

>  <SCORE.SYSTEM.SOLV>
0

>  <SCORE.SYSTEM.norm>
0

>  <SCORE.heavy>
26

>  <SCORE.norm>
-0.313656

>  <RMSD>
15.085

$$$$
ligand
 OpenBabel11021811483D
libRbt.so/2013.1/901 2013/11/27
 26 28  0  0  0  0  0  0  0  0999 V2000
   37.3841   17.5800   19.5049 N   0  0  0  0  0  0  0  0  0  0  0  0
   36.4284   18.3540   20.2872 C   0  0  2  0  0  0  0  0  0  0  0  0
   35.0611   18.3795   19.6136 C   0  0  0  0  0  0  0  0  0  0  0  0
   34.9594   18.4277   18.3884 O   0  0  0  0  0  0  0  0  0  0  0  0
   36.9353   19.7757   20.4942 C   0  0  0  0  0  0  0  0  0  0  0  0
   36.3444   20.4764   21.7106 C   0  0  0  0  0  0  0  0  0  0  0  0
   34.6342   21.0075   21.4430 S   0  0  0  0  0  0  0  0  0  0  0  0
   35.2250   22.4877   20.5838 C   0  0  0  0  0  0  0  0  0  0  0  0
   34.5602   22.6848   19.2264 C   0  0  1  0  0  0  0  0  0  0  0  0
   35.2787   23.6431   18.4711 O   0  0  0  0  0  0  0  0  0  0  0  0
   34.5284   21.3924   18.4271 C   0  0  1  0  0  0  0  0  0  0  0  0
   33.1955   20.9972   18.2047 O   0  0  0  0  0  0  0  0  0  0  0  0
   35.2041   21.7051   17.1081 C   0  0  1  0  0  0  0  0  0  0  0  0
   34.3225   21.4480   16.0399 O   0  0  0  0  0  0  0  0  0  0  0  0
   35.5465   23.1842   17.1593 C   0  0  2  0  0  0  0  0  0  0  0  0
   34.0254   18.3520   20.2796 O   0  0  0  0  0  0  0  0  0  0  0  0
   40.4496   21.4110   17.7776 N   0  0  0  0  0  0  0  0  0  0  0  0
   39.2833   20.8871   18.2980 C   0  0  0  0  0  0  0  0  0  0  0  0
   38.0701   21.4894   18.0293 N   0  0  0  0  0  0  0  0  0  0  0  0
   38.0146   22.5999   17.2543 C   0  0  0  0  0  0  0  0  0  0  0  0
   39.1766   23.1421   16.7223 C   0  0  0  0  0  0  0  0  0  0  0  0
   40.4015   22.5415   16.9872 C   0  0  0  0  0  0  0  0  0  0  0  0
   41.5210   23.0526   16.4837 N   0  0  0  0  0  0  0  0  0  0  0  0
   38.8345   24.2303   15.9992 N   0  0  0  0  0  0  0  0  0  0  0  0
   37.4924   24.3893   16.0605 C   0  0  0  0  0  0  0  0  0  0  0  0
   36.9702   23.3858   16.8352 N   0  0  0  0  0  0  0  0  0  0  0  0
  2  1  1  6  0  0  0
  2  3  1  0  0  0  0
  2  5  1  0  0  0  0
  3  4  1  0  0  0  0
  3 16  1  0  0  0  0
  5  6  1  0  0  0  0
  6  7  1  0  0  0  0
  7  8  1  0  0  0  0
  9  8  1  1  0  0  0
  9 10  1  0  0  0  0
  9 11  1  0  0  0  0
 10 15  1  0  0  0  0
 11 12  1  6  0  0  0
 11 13  1  0  0  0  0
 13 14  1  6  0  0  0
 13 15  1  0  0  0  0
 15 26  1  1  0  0  0
 17 18  2  0  0  0  0
 17 22  1  0  0  0  0
 18 19  1  0  0  0  0
 19 20  2  0  0  0  0
 20 21  1  0  0  0  0
 20 26  1  0  0  0  0
 21 22  2  0  0  0  0
 21 24  1  0  0  0  0
 22 23  1  0  0  0  0
 24 25  2  0  0  0  0
 25 26  1  0  0  0  0
M  END
>  <CHROM.1>
-36.29134857,-156.53954327,-75.05762636,-81.89714914,129.02041194,-165.69785715
78.20609274,36.49511675,21.36274310,18.53428997,-2.31775853,0.16136838,-0.64172964

>  <Name>
ligand

>  <RI>
0

>  <Rbt.Current_Directory>
/home/itssahil/PROJECTS/Mol_Feturizer/New_Systems/rnas/3NPQ

>  <Rbt.Executable>
rbdock ($Id: //depot/dev/client3/rdock/2013.1/src/exe/rbdock.cxx#4 $)

>  <Rbt.Library>
libRbt.so (2013.1, Build901 2013/11/27)

>  <Rbt.Parameter_File>
/export/apps/rDock/src/rDock_2013.1_src/data/scripts/dock_solv.prm

>  <Rbt.Receptor>
prm/blind_docking_60.prm

>  <SCORE>
-11.3003

>  <SCORE.INTER>
-9.04945

>  <SCORE.INTER.CONST>
1

>  <SCORE.INTER.POLAR>
0

>  <SCORE.INTER.ROT>
7

>  <SCORE.INTER.SOLV>
8.99641

>  <SCORE.INTER.VDW>
-17.2984

>  <SCORE.INTER.norm>
-0.348056

>  <SCORE.INTRA>
-2.25083

>  <SCORE.INTRA.DIHEDRAL>
2.09907

>  <SCORE.INTRA.DIHEDRAL.0>
6.97628

>  <SCORE.INTRA.POLAR>
0

>  <SCORE.INTRA.POLAR.0>
0

>  <SCORE.INTRA.REPUL>
0

>  <SCORE.INTRA.REPUL.0>
0

>  <SCORE.INTRA.SOLV>
-0.247147

>  <SCORE.INTRA.SOLV.lig_0>
-49.8243

>  <SCORE.INTRA.VDW>
-3.17679

>  <SCORE.INTRA.VDW.0>
-1.35881

>  <SCORE.INTRA.norm>
-0.0865704

>  <SCORE.RESTR>
0

>  <SCORE.RESTR.CAVITY>
0

>  <SCORE.RESTR.norm>
0

>  <SCORE.SYSTEM>
0

>  <SCORE.SYSTEM.CONST>
0

>  <SCORE.SYSTEM.DIHEDRAL>
0

>  <SCORE.SYSTEM.SOLV>
0

>  <SCORE.SYSTEM.norm>
0

>  <SCORE.heavy>
26

>  <SCORE.norm>
-0.434626

>  <RMSD>
15.109

$$$$
ligand
 OpenBabel11021811483D
libRbt.so/2013.1/901 2013/11/27
 26 28  0  0  0  0  0  0  0  0999 V2000
   31.9772   17.0312   20.9537 N   0  0  0  0  0  0  0  0  0  0  0  0
   31.4500   18.3288   21.3571 C   0  0  2  0  0  0  0  0  0  0  0  0
   30.8631   19.0770   20.1655 C   0  0  0  0  0  0  0  0  0  0  0  0
   31.2102   18.8089   19.0160 O   0  0  0  0  0  0  0  0  0  0  0  0
   32.5394   19.1665   22.0148 C   0  0  0  0  0  0  0  0  0  0  0  0
   33.6919   19.5282   21.0871 C   0  0  0  0  0  0  0  0  0  0  0  0
   34.8955   20.6299   21.8721 S   0  0  0  0  0  0  0  0  0  0  0  0
   35.8103   20.7459   20.3139 C   0  0  0  0  0  0  0  0  0  0  0  0
   35.0084   21.4254   19.2100 C   0  0  1  0  0  0  0  0  0  0  0  0
   35.6754   22.5982   18.7801 O   0  0  0  0  0  0  0  0  0  0  0  0
   34.8399   20.5178   18.0025 C   0  0  1  0  0  0  0  0  0  0  0  0
   33.4766   20.2253   17.8072 O   0  0  0  0  0  0  0  0  0  0  0  0
   35.3780   21.2975   16.8207 C   0  0  1  0  0  0  0  0  0  0  0  0
   34.3753   21.4471   15.8427 O   0  0  0  0  0  0  0  0  0  0  0  0
   35.7798   22.6557   17.3698 C   0  0  2  0  0  0  0  0  0  0  0  0
   30.0271   19.9672   20.3249 O   0  0  0  0  0  0  0  0  0  0  0  0
   40.8483   21.3899   17.8947 N   0  0  0  0  0  0  0  0  0  0  0  0
   39.7558   20.7914   18.4894 C   0  0  0  0  0  0  0  0  0  0  0  0
   38.4821   21.2601   18.2348 N   0  0  0  0  0  0  0  0  0  0  0  0
   38.2944   22.3119   17.4008 C   0  0  0  0  0  0  0  0  0  0  0  0
   39.3805   22.9275   16.7936 C   0  0  0  0  0  0  0  0  0  0  0  0
   40.6655   22.4613   17.0439 C   0  0  0  0  0  0  0  0  0  0  0  0
   41.7133   23.0437   16.4686 N   0  0  0  0  0  0  0  0  0  0  0  0
   38.9115   23.9333   16.0240 N   0  0  0  0  0  0  0  0  0  0  0  0
   37.5632   23.9694   16.1287 C   0  0  0  0  0  0  0  0  0  0  0  0
   37.1659   22.9699   16.9790 N   0  0  0  0  0  0  0  0  0  0  0  0
  2  1  1  6  0  0  0
  2  3  1  0  0  0  0
  2  5  1  0  0  0  0
  3  4  1  0  0  0  0
  3 16  1  0  0  0  0
  5  6  1  0  0  0  0
  6  7  1  0  0  0  0
  7  8  1  0  0  0  0
  9  8  1  1  0  0  0
  9 10  1  0  0  0  0
  9 11  1  0  0  0  0
 10 15  1  0  0  0  0
 11 12  1  6  0  0  0
 11 13  1  0  0  0  0
 13 14  1  6  0  0  0
 13 15  1  0  0  0  0
 15 26  1  1  0  0  0
 17 18  2  0  0  0  0
 17 22  1  0  0  0  0
 18 19  1  0  0  0  0
 19 20  2  0  0  0  0
 20 21  1  0  0  0  0
 20 26  1  0  0  0  0
 21 22  2  0  0  0  0
 21 24  1  0  0  0  0
 22 23  1  0  0  0  0
 24 25  2  0  0  0  0
 25 26  1  0  0  0  0
M  END
>  <CHROM.1>
-22.35011401,64.05033262,175.49145461,-175.77070566,64.77810566,119.01496811
52.05953050,35.59738480,21.03785453,18.73660773,-2.57598397,-0.20209157,-1.10927305

>  <Name>
ligand

>  <RI>
0

>  <Rbt.Current_Directory>
/home/itssahil/PROJECTS/Mol_Feturizer/New_Systems/rnas/3NPQ

>  <Rbt.Executable>
rbdock ($Id: //depot/dev/client3/rdock/2013.1/src/exe/rbdock.cxx#4 $)

>  <Rbt.Library>
libRbt.so (2013.1, Build901 2013/11/27)

>  <Rbt.Parameter_File>
/export/apps/rDock/src/rDock_2013.1_src/data/scripts/dock_solv.prm

>  <Rbt.Receptor>
prm/blind_docking_60.prm

>  <SCORE>
-10.7735

>  <SCORE.INTER>
-10.309

>  <SCORE.INTER.CONST>
1

>  <SCORE.INTER.POLAR>
0

>  <SCORE.INTER.ROT>
7

>  <SCORE.INTER.SOLV>
8.05521

>  <SCORE.INTER.VDW>
-17.8244

>  <SCORE.INTER.norm>
-0.396498

>  <SCORE.INTRA>
-0.636164

>  <SCORE.INTRA.DIHEDRAL>
1.16917

>  <SCORE.INTRA.DIHEDRAL.0>
6.97628

>  <SCORE.INTRA.POLAR>
0

>  <SCORE.INTRA.POLAR.0>
0

>  <SCORE.INTRA.REPUL>
0

>  <SCORE.INTRA.REPUL.0>
0

>  <SCORE.INTRA.SOLV>
0.0440199

>  <SCORE.INTRA.SOLV.lig_0>
-49.8243

>  <SCORE.INTRA.VDW>
-1.24276

>  <SCORE.INTRA.VDW.0>
-1.35881

>  <SCORE.INTRA.norm>
-0.0244679

>  <SCORE.RESTR>
0.17164

>  <SCORE.RESTR.CAVITY>
0.17164

>  <SCORE.RESTR.norm>
0.00660152

>  <SCORE.SYSTEM>
0

>  <SCORE.SYSTEM.CONST>
0

>  <SCORE.SYSTEM.DIHEDRAL>
0

>  <SCORE.SYSTEM.SOLV>
0

>  <SCORE.SYSTEM.norm>
0

>  <SCORE.heavy>
26

>  <SCORE.norm>
-0.414365

>  <RMSD>
15.111

$$$$
ligand
 OpenBabel11021811483D
libRbt.so/2013.1/901 2013/11/27
 26 28  0  0  0  0  0  0  0  0999 V2000
   29.8220   18.9616   18.9971 N   0  0  0  0  0  0  0  0  0  0  0  0
   30.7296   19.9755   18.4748 C   0  0  2  0  0  0  0  0  0  0  0  0
   31.5628   19.4251   17.3229 C   0  0  0  0  0  0  0  0  0  0  0  0
   31.4692   18.2472   16.9799 O   0  0  0  0  0  0  0  0  0  0  0  0
   31.6426   20.4942   19.5787 C   0  0  0  0  0  0  0  0  0  0  0  0
   32.5308   19.4270   20.2047 C   0  0  0  0  0  0  0  0  0  0  0  0
   33.6267   20.0969   21.4808 S   0  0  0  0  0  0  0  0  0  0  0  0
   34.6324   20.8936   20.2034 C   0  0  0  0  0  0  0  0  0  0  0  0
   35.4476   19.8959   19.3889 C   0  0  1  0  0  0  0  0  0  0  0  0
   35.9584   20.5235   18.2269 O   0  0  0  0  0  0  0  0  0  0  0  0
   36.6269   19.3580   20.1828 C   0  0  1  0  0  0  0  0  0  0  0  0
   36.4838   17.9707   20.3761 O   0  0  0  0  0  0  0  0  0  0  0  0
   37.8548   19.6411   19.3424 C   0  0  1  0  0  0  0  0  0  0  0  0
   38.5309   18.4395   19.0534 O   0  0  0  0  0  0  0  0  0  0  0  0
   37.3416   20.2739   18.0603 C   0  0  2  0  0  0  0  0  0  0  0  0
   32.3491   20.1463   16.7078 O   0  0  0  0  0  0  0  0  0  0  0  0
   37.0201   25.1312   16.0932 N   0  0  0  0  0  0  0  0  0  0  0  0
   36.0319   24.1691   16.1500 C   0  0  0  0  0  0  0  0  0  0  0  0
   36.2957   22.9339   16.7081 N   0  0  0  0  0  0  0  0  0  0  0  0
   37.5264   22.6556   17.2029 C   0  0  0  0  0  0  0  0  0  0  0  0
   38.5335   23.6099   17.1544 C   0  0  0  0  0  0  0  0  0  0  0  0
   38.2759   24.8558   16.5952 C   0  0  0  0  0  0  0  0  0  0  0  0
   39.2332   25.7773   16.5425 N   0  0  0  0  0  0  0  0  0  0  0  0
   39.6415   23.0737   17.7101 N   0  0  0  0  0  0  0  0  0  0  0  0
   39.3620   21.8108   18.1066 C   0  0  0  0  0  0  0  0  0  0  0  0
   38.0542   21.5373   17.7988 N   0  0  0  0  0  0  0  0  0  0  0  0
  2  1  1  1  0  0  0
  2  3  1  0  0  0  0
  2  5  1  0  0  0  0
  3  4  1  0  0  0  0
  3 16  1  0  0  0  0
  5  6  1  0  0  0  0
  6  7  1  0  0  0  0
  7  8  1  0  0  0  0
  9  8  1  1  0  0  0
  9 10  1  0  0  0  0
  9 11  1  0  0  0  0
 10 15  1  0  0  0  0
 11 12  1  6  0  0  0
 11 13  1  0  0  0  0
 13 14  1  6  0  0  0
 13 15  1  0  0  0  0
 15 26  1  1  0  0  0
 17 18  2  0  0  0  0
 17 22  1  0  0  0  0
 18 19  1  0  0  0  0
 19 20  2  0  0  0  0
 20 21  1  0  0  0  0
 20 26  1  0  0  0  0
 21 22  2  0  0  0  0
 21 24  1  0  0  0  0
 22 23  1  0  0  0  0
 24 25  2  0  0  0  0
 25 26  1  0  0  0  0
M  END
>  <CHROM.1>
-3.18430670,60.97286374,178.55026321,-72.67484888,-71.29968620,166.36489821
-28.01769816,35.48342263,20.98858700,18.43749376,2.53710597,0.15031653,2.47396593

>  <Name>
ligand

>  <RI>
0

>  <Rbt.Current_Directory>
/home/itssahil/PROJECTS/Mol_Feturizer/New_Systems/rnas/3NPQ

>  <Rbt.Executable>
rbdock ($Id: //depot/dev/client3/rdock/2013.1/src/exe/rbdock.cxx#4 $)

>  <Rbt.Library>
libRbt.so (2013.1, Build901 2013/11/27)

>  <Rbt.Parameter_File>
/export/apps/rDock/src/rDock_2013.1_src/data/scripts/dock_solv.prm

>  <Rbt.Receptor>
prm/blind_docking_100.prm

>  <SCORE>
-10.1528

>  <SCORE.INTER>
-8.69072

>  <SCORE.INTER.CONST>
1

>  <SCORE.INTER.POLAR>
0

>  <SCORE.INTER.ROT>
7

>  <SCORE.INTER.SOLV>
6.04824

>  <SCORE.INTER.VDW>
-16.0766

>  <SCORE.INTER.norm>
-0.334259

>  <SCORE.INTRA>
-1.46207

>  <SCORE.INTRA.DIHEDRAL>
-3.19463

>  <SCORE.INTRA.DIHEDRAL.0>
6.97628

>  <SCORE.INTRA.POLAR>
0

>  <SCORE.INTRA.POLAR.0>
0

>  <SCORE.INTRA.REPUL>
0

>  <SCORE.INTRA.REPUL.0>
0

>  <SCORE.INTRA.SOLV>
-0.0163127

>  <SCORE.INTRA.SOLV.lig_0>
-49.8243

>  <SCORE.INTRA.VDW>
0.1434

>  <SCORE.INTRA.VDW.0>
-1.35881

>  <SCORE.INTRA.norm>
-0.0562336

>  <SCORE.RESTR>
0

>  <SCORE.RESTR.CAVITY>
0

>  <SCORE.RESTR.norm>
0

>  <SCORE.SYSTEM>
0

>  <SCORE.SYSTEM.CONST>
0

>  <SCORE.SYSTEM.DIHEDRAL>
0

>  <SCORE.SYSTEM.SOLV>
0

>  <SCORE.SYSTEM.norm>
0

>  <SCORE.heavy>
26

>  <SCORE.norm>
-0.390492

>  <RMSD>
15.113

$$$$
ligand
 OpenBabel11021811483D
libRbt.so/2013.1/901 2013/11/27
 26 28  0  0  0  0  0  0  0  0999 V2000
   29.9564   19.3521   17.4382 N   0  0  0  0  0  0  0  0  0  0  0  0
   31.1850   19.8602   18.0355 C   0  0  2  0  0  0  0  0  0  0  0  0
   30.9823   20.1913   19.5097 C   0  0  0  0  0  0  0  0  0  0  0  0
   29.9376   20.7073   19.9051 O   0  0  0  0  0  0  0  0  0  0  0  0
   31.6729   21.0934   17.2855 C   0  0  0  0  0  0  0  0  0  0  0  0
   33.0759   21.5425   17.6720 C   0  0  0  0  0  0  0  0  0  0  0  0
   34.3652   20.6363   16.7804 S   0  0  0  0  0  0  0  0  0  0  0  0
   34.2855   19.3083   18.0085 C   0  0  0  0  0  0  0  0  0  0  0  0
   35.2793   19.5004   19.1481 C   0  0  1  0  0  0  0  0  0  0  0  0
   36.5486   19.8521   18.6283 O   0  0  0  0  0  0  0  0  0  0  0  0
   34.8403   20.6085   20.0913 C   0  0  1  0  0  0  0  0  0  0  0  0
   34.5909   20.0792   21.3720 O   0  0  0  0  0  0  0  0  0  0  0  0
   35.9969   21.5847   20.1493 C   0  0  1  0  0  0  0  0  0  0  0  0
   36.4440   21.7269   21.4775 O   0  0  0  0  0  0  0  0  0  0  0  0
   37.0933   20.9782   19.2905 C   0  0  2  0  0  0  0  0  0  0  0  0
   31.8589   19.9496   20.3404 O   0  0  0  0  0  0  0  0  0  0  0  0
   41.2660   23.2319   17.0372 N   0  0  0  0  0  0  0  0  0  0  0  0
   41.2495   22.2588   18.0161 C   0  0  0  0  0  0  0  0  0  0  0  0
   40.0481   21.7766   18.4967 N   0  0  0  0  0  0  0  0  0  0  0  0
   38.8762   22.2557   18.0130 C   0  0  0  0  0  0  0  0  0  0  0  0
   38.8721   23.2348   17.0289 C   0  0  0  0  0  0  0  0  0  0  0  0
   40.0768   23.7247   16.5392 C   0  0  0  0  0  0  0  0  0  0  0  0
   40.0850   24.6633   15.5973 N   0  0  0  0  0  0  0  0  0  0  0  0
   37.5859   23.5237   16.7352 N   0  0  0  0  0  0  0  0  0  0  0  0
   36.7806   22.7560   17.5049 C   0  0  0  0  0  0  0  0  0  0  0  0
   37.5663   21.9644   18.3024 N   0  0  0  0  0  0  0  0  0  0  0  0
  2  1  1  6  0  0  0
  2  3  1  0  0  0  0
  2  5  1  0  0  0  0
  3  4  1  0  0  0  0
  3 16  1  0  0  0  0
  5  6  1  0  0  0  0
  6  7  1  0  0  0  0
  7  8  1  0  0  0  0
  9  8  1  6  0  0  0
  9 10  1  0  0  0  0
  9 11  1  0  0  0  0
 10 15  1  0  0  0  0
 11 12  1  1  0  0  0
 11 13  1  0  0  0  0
 13 14  1  1  0  0  0
 13 15  1  0  0  0  0
 15 26  1  6  0  0  0
 17 18  2  0  0  0  0
 17 22  1  0  0  0  0
 18 19  1  0  0  0  0
 19 20  2  0  0  0  0
 20 21  1  0  0  0  0
 20 26  1  0  0  0  0
 21 22  2  0  0  0  0
 21 24  1  0  0  0  0
 22 23  1  0  0  0  0
 24 25  2  0  0  0  0
 25 26  1  0  0  0  0
M  END
>  <CHROM.1>
-38.84436239,-169.36512619,83.77710622,-84.69640024,-92.01073798,-45.99166587
-108.09127498,35.61710343,21.31656038,18.38147200,2.86162130,0.25749510,1.92217809

>  <Name>
ligand

>  <RI>
0

>  <Rbt.Current_Directory>
/home/itssahil/PROJECTS/Mol_Feturizer/New_Systems/rnas/3NPQ

>  <Rbt.Executable>
rbdock ($Id: //depot/dev/client3/rdock/2013.1/src/exe/rbdock.cxx#4 $)

>  <Rbt.Library>
libRbt.so (2013.1, Build901 2013/11/27)

>  <Rbt.Parameter_File>
/export/apps/rDock/src/rDock_2013.1_src/data/scripts/dock_solv.prm

>  <Rbt.Receptor>
prm/blind_docking_80.prm

>  <SCORE>
-11.2049

>  <SCORE.INTER>
-9.37059

>  <SCORE.INTER.CONST>
1

>  <SCORE.INTER.POLAR>
0

>  <SCORE.INTER.ROT>
7

>  <SCORE.INTER.SOLV>
8.49029

>  <SCORE.INTER.VDW>
-17.3438

>  <SCORE.INTER.norm>
-0.360407

>  <SCORE.INTRA>
-1.83429

>  <SCORE.INTRA.DIHEDRAL>
0.869922

>  <SCORE.INTRA.DIHEDRAL.0>
6.97628

>  <SCORE.INTRA.POLAR>
0

>  <SCORE.INTRA.POLAR.0>
0

>  <SCORE.INTRA.REPUL>
0

>  <SCORE.INTRA.REPUL.0>
0

>  <SCORE.INTRA.SOLV>
-0.0330764

>  <SCORE.INTRA.SOLV.lig_0>
-49.8243

>  <SCORE.INTRA.VDW>
-2.25271

>  <SCORE.INTRA.VDW.0>
-1.35881

>  <SCORE.INTRA.norm>
-0.0705494

>  <SCORE.RESTR>
0

>  <SCORE.RESTR.CAVITY>
0

>  <SCORE.RESTR.norm>
0

>  <SCORE.SYSTEM>
0

>  <SCORE.SYSTEM.CONST>
0

>  <SCORE.SYSTEM.DIHEDRAL>
0

>  <SCORE.SYSTEM.SOLV>
0

>  <SCORE.SYSTEM.norm>
0

>  <SCORE.heavy>
26

>  <SCORE.norm>
-0.430957

>  <RMSD>
15.119

$$$$
ligand
 OpenBabel11021811483D
libRbt.so/2013.1/901 2013/11/27
 26 28  0  0  0  0  0  0  0  0999 V2000
   30.6597   20.4465   19.2467 N   0  0  0  0  0  0  0  0  0  0  0  0
   31.5035   20.7983   18.1113 C   0  0  2  0  0  0  0  0  0  0  0  0
   31.8747   19.5623   17.2999 C   0  0  0  0  0  0  0  0  0  0  0  0
   31.4548   19.4075   16.1538 O   0  0  0  0  0  0  0  0  0  0  0  0
   32.7643   21.5110   18.5840 C   0  0  0  0  0  0  0  0  0  0  0  0
   33.6507   22.0219   17.4557 C   0  0  0  0  0  0  0  0  0  0  0  0
   34.8156   20.7675   16.8657 S   0  0  0  0  0  0  0  0  0  0  0  0
   36.2000   21.7599   17.4796 C   0  0  0  0  0  0  0  0  0  0  0  0
   37.1193   20.9760   18.4090 C   0  0  1  0  0  0  0  0  0  0  0  0
   36.3735   20.4385   19.4860 O   0  0  0  0  0  0  0  0  0  0  0  0
   37.7904   19.8197   17.6859 C   0  0  1  0  0  0  0  0  0  0  0  0
   39.1850   20.0116   17.6625 O   0  0  0  0  0  0  0  0  0  0  0  0
   37.4504   18.5789   18.4852 C   0  0  1  0  0  0  0  0  0  0  0  0
   38.6309   17.9434   18.9178 O   0  0  0  0  0  0  0  0  0  0  0  0
   36.6492   19.0640   19.6811 C   0  0  2  0  0  0  0  0  0  0  0  0
   32.6041   18.6893   17.7718 O   0  0  0  0  0  0  0  0  0  0  0  0
   31.8653   18.8448   21.8338 N   0  0  0  0  0  0  0  0  0  0  0  0
   32.8340   19.8125   22.0095 C   0  0  0  0  0  0  0  0  0  0  0  0
   34.0468   19.7084   21.3576 N   0  0  0  0  0  0  0  0  0  0  0  0
   34.2966   18.6553   20.5418 C   0  0  0  0  0  0  0  0  0  0  0  0
   33.3354   17.6717   20.3527 C   0  0  0  0  0  0  0  0  0  0  0  0
   32.1119   17.7695   21.0044 C   0  0  0  0  0  0  0  0  0  0  0  0
   31.1840   16.8328   20.8315 N   0  0  0  0  0  0  0  0  0  0  0  0
   33.8420   16.7533   19.5019 N   0  0  0  0  0  0  0  0  0  0  0  0
   35.0931   17.1293   19.1501 C   0  0  0  0  0  0  0  0  0  0  0  0
   35.3889   18.3069   19.7870 N   0  0  0  0  0  0  0  0  0  0  0  0
  2  1  1  1  0  0  0
  2  3  1  0  0  0  0
  2  5  1  0  0  0  0
  3  4  1  0  0  0  0
  3 16  1  0  0  0  0
  5  6  1  0  0  0  0
  6  7  1  0  0  0  0
  7  8  1  0  0  0  0
  9  8  1  6  0  0  0
  9 10  1  0  0  0  0
  9 11  1  0  0  0  0
 10 15  1  0  0  0  0
 11 12  1  1  0  0  0
 11 13  1  0  0  0  0
 13 14  1  1  0  0  0
 13 15  1  0  0  0  0
 15 26  1  6  0  0  0
 17 18  2  0  0  0  0
 17 22  1  0  0  0  0
 18 19  1  0  0  0  0
 19 20  2  0  0  0  0
 20 21  1  0  0  0  0
 20 26  1  0  0  0  0
 21 22  2  0  0  0  0
 21 24  1  0  0  0  0
 22 23  1  0  0  0  0
 24 25  2  0  0  0  0
 25 26  1  0  0  0  0
M  END
>  <CHROM.1>
112.98887581,-175.06829084,-86.63785828,-114.08969258,126.21053962,-56.01932179
-45.98694363,34.40463038,19.44663041,18.90585439,2.86064525,-0.06571382,2.29548018

>  <Name>
ligand

>  <RI>
0

>  <Rbt.Current_Directory>
/home/itssahil/PROJECTS/Mol_Feturizer/New_Systems/rnas/3NPQ

>  <Rbt.Executable>
rbdock ($Id: //depot/dev/client3/rdock/2013.1/src/exe/rbdock.cxx#4 $)

>  <Rbt.Library>
libRbt.so (2013.1, Build901 2013/11/27)

>  <Rbt.Parameter_File>
/export/apps/rDock/src/rDock_2013.1_src/data/scripts/dock_solv.prm

>  <Rbt.Receptor>
prm/blind_docking_60.prm

>  <SCORE>
-10.4496

>  <SCORE.INTER>
-8.27857

>  <SCORE.INTER.CONST>
1

>  <SCORE.INTER.POLAR>
0

>  <SCORE.INTER.ROT>
7

>  <SCORE.INTER.SOLV>
8.4132

>  <SCORE.INTER.VDW>
-16.5901

>  <SCORE.INTER.norm>
-0.318406

>  <SCORE.INTRA>
-2.17106

>  <SCORE.INTRA.DIHEDRAL>
2.79686

>  <SCORE.INTRA.DIHEDRAL.0>
6.97628

>  <SCORE.INTRA.POLAR>
0

>  <SCORE.INTRA.POLAR.0>
0

>  <SCORE.INTRA.REPUL>
0

>  <SCORE.INTRA.REPUL.0>
0

>  <SCORE.INTRA.SOLV>
1.39393

>  <SCORE.INTRA.SOLV.lig_0>
-49.8243

>  <SCORE.INTRA.VDW>
-4.26645

>  <SCORE.INTRA.VDW.0>
-1.35881

>  <SCORE.INTRA.norm>
-0.0835021

>  <SCORE.RESTR>
0

>  <SCORE.RESTR.CAVITY>
0

>  <SCORE.RESTR.norm>
0

>  <SCORE.SYSTEM>
0

>  <SCORE.SYSTEM.CONST>
0

>  <SCORE.SYSTEM.DIHEDRAL>
0

>  <SCORE.SYSTEM.SOLV>
0

>  <SCORE.SYSTEM.norm>
0

>  <SCORE.heavy>
26

>  <SCORE.norm>
-0.401909

>  <RMSD>
15.133

$$$$
ligand
 OpenBabel11021811483D
libRbt.so/2013.1/901 2013/11/27
 26 28  0  0  0  0  0  0  0  0999 V2000
   37.8225   25.0147   21.8416 N   0  0  0  0  0  0  0  0  0  0  0  0
   36.8421   24.0628   21.3346 C   0  0  2  0  0  0  0  0  0  0  0  0
   37.5199   22.7952   20.8267 C   0  0  0  0  0  0  0  0  0  0  0  0
   38.3680   22.8437   19.9366 O   0  0  0  0  0  0  0  0  0  0  0  0
   36.0120   24.6925   20.2231 C   0  0  0  0  0  0  0  0  0  0  0  0
   35.4101   23.6874   19.2498 C   0  0  0  0  0  0  0  0  0  0  0  0
   36.3534   23.5624   17.7094 S   0  0  0  0  0  0  0  0  0  0  0  0
   35.9446   21.8020   17.5982 C   0  0  0  0  0  0  0  0  0  0  0  0
   36.8233   20.9362   18.4935 C   0  0  1  0  0  0  0  0  0  0  0  0
   36.0235   20.2562   19.4437 O   0  0  0  0  0  0  0  0  0  0  0  0
   37.5803   19.8910   17.6905 C   0  0  1  0  0  0  0  0  0  0  0  0
   38.9661   20.1187   17.7903 O   0  0  0  0  0  0  0  0  0  0  0  0
   37.2275   18.5559   18.3128 C   0  0  1  0  0  0  0  0  0  0  0  0
   38.3958   17.9029   18.7521 O   0  0  0  0  0  0  0  0  0  0  0  0
   36.3304   18.8755   19.4963 C   0  0  2  0  0  0  0  0  0  0  0  0
   37.2352   21.6925   21.2954 O   0  0  0  0  0  0  0  0  0  0  0  0
   31.4887   18.5287   17.4951 N   0  0  0  0  0  0  0  0  0  0  0  0
   32.4190   19.5303   17.3032 C   0  0  0  0  0  0  0  0  0  0  0  0
   33.6554   19.4569   17.9138 N   0  0  0  0  0  0  0  0  0  0  0  0
   33.9649   18.4025   18.7071 C   0  0  0  0  0  0  0  0  0  0  0  0
   33.0425   17.3856   18.9128 C   0  0  0  0  0  0  0  0  0  0  0  0
   31.7963   17.4515   18.3013 C   0  0  0  0  0  0  0  0  0  0  0  0
   30.9046   16.4837   18.4919 N   0  0  0  0  0  0  0  0  0  0  0  0
   33.6058   16.4731   19.7339 N   0  0  0  0  0  0  0  0  0  0  0  0
   34.8547   16.8854   20.0512 C   0  0  0  0  0  0  0  0  0  0  0  0
   35.0916   18.0803   19.4219 N   0  0  0  0  0  0  0  0  0  0  0  0
  2  1  1  6  0  0  0
  2  3  1  0  0  0  0
  2  5  1  0  0  0  0
  3  4  1  0  0  0  0
  3 16  1  0  0  0  0
  5  6  1  0  0  0  0
  6  7  1  0  0  0  0
  7  8  1  0  0  0  0
  9  8  1  6  0  0  0
  9 10  1  0  0  0  0
  9 11  1  0  0  0  0
 10 15  1  0  0  0  0
 11 12  1  1  0  0  0
 11 13  1  0  0  0  0
 13 14  1  1  0  0  0
 13 15  1  0  0  0  0
 15 26  1  6  0  0  0
 17 18  2  0  0  0  0
 17 22  1  0  0  0  0
 18 19  1  0  0  0  0
 19 20  2  0  0  0  0
 20 21  1  0  0  0  0
 20 26  1  0  0  0  0
 21 22  2  0  0  0  0
 21 24  1  0  0  0  0
 22 23  1  0  0  0  0
 24 25  2  0  0  0  0
 25 26  1  0  0  0  0
M  END
>  <CHROM.1>
-58.08006103,155.18666255,-100.35942090,146.41313132,-79.96467332,119.08589663
34.16199482,35.65818632,20.42117019,19.03512852,0.94921166,-0.15027246,0.11590500

>  <Name>
ligand

>  <RI>
0

>  <Rbt.Current_Directory>
/home/itssahil/PROJECTS/Mol_Feturizer/New_Systems/rnas/3NPQ

>  <Rbt.Executable>
rbdock ($Id: //depot/dev/client3/rdock/2013.1/src/exe/rbdock.cxx#4 $)

>  <Rbt.Library>
libRbt.so (2013.1, Build901 2013/11/27)

>  <Rbt.Parameter_File>
/export/apps/rDock/src/rDock_2013.1_src/data/scripts/dock_solv.prm

>  <Rbt.Receptor>
prm/blind_docking_60.prm

>  <SCORE>
1.19395

>  <SCORE.INTER>
-1.83829

>  <SCORE.INTER.CONST>
1

>  <SCORE.INTER.POLAR>
0

>  <SCORE.INTER.ROT>
7

>  <SCORE.INTER.SOLV>
6.54087

>  <SCORE.INTER.VDW>
-11.6725

>  <SCORE.INTER.norm>
-0.0707036

>  <SCORE.INTRA>
2.82852

>  <SCORE.INTRA.DIHEDRAL>
9.33115

>  <SCORE.INTRA.DIHEDRAL.0>
6.97628

>  <SCORE.INTRA.POLAR>
0

>  <SCORE.INTRA.POLAR.0>
0

>  <SCORE.INTRA.REPUL>
0

>  <SCORE.INTRA.REPUL.0>
0

>  <SCORE.INTRA.SOLV>
-0.43097

>  <SCORE.INTRA.SOLV.lig_0>
-49.8243

>  <SCORE.INTRA.VDW>
-1.62157

>  <SCORE.INTRA.VDW.0>
-1.35881

>  <SCORE.INTRA.norm>
0.108789

>  <SCORE.RESTR>
0.203726

>  <SCORE.RESTR.CAVITY>
0.203726

>  <SCORE.RESTR.norm>
0.00783563

>  <SCORE.SYSTEM>
0

>  <SCORE.SYSTEM.CONST>
0

>  <SCORE.SYSTEM.DIHEDRAL>
0

>  <SCORE.SYSTEM.SOLV>
0

>  <SCORE.SYSTEM.norm>
0

>  <SCORE.heavy>
26

>  <SCORE.norm>
0.0459211

>  <RMSD>
15.144

$$$$
ligand
 OpenBabel11021811483D
libRbt.so/2013.1/901 2013/11/27
 26 28  0  0  0  0  0  0  0  0999 V2000
   33.9105    2.1129    7.4428 N   0  0  0  0  0  0  0  0  0  0  0  0
   32.6502    2.2965    6.7340 C   0  0  2  0  0  0  0  0  0  0  0  0
   32.8875    2.7945    5.3129 C   0  0  0  0  0  0  0  0  0  0  0  0
   33.1947    3.9659    5.0953 O   0  0  0  0  0  0  0  0  0  0  0  0
   31.7520    3.2707    7.4858 C   0  0  0  0  0  0  0  0  0  0  0  0
   32.4098    4.6079    7.8004 C   0  0  0  0  0  0  0  0  0  0  0  0
   31.3112    5.7258    8.7069 S   0  0  0  0  0  0  0  0  0  0  0  0
   30.4190    6.0960    7.1755 C   0  0  0  0  0  0  0  0  0  0  0  0
   29.1599    5.2531    7.0095 C   0  0  1  0  0  0  0  0  0  0  0  0
   28.1168    5.7800    7.8091 O   0  0  0  0  0  0  0  0  0  0  0  0
   28.6802    5.2437    5.5673 C   0  0  1  0  0  0  0  0  0  0  0  0
   28.7423    3.9363    5.0484 O   0  0  0  0  0  0  0  0  0  0  0  0
   27.2426    5.7190    5.6065 C   0  0  1  0  0  0  0  0  0  0  0  0
   26.3941    4.7401    5.0533 O   0  0  0  0  0  0  0  0  0  0  0  0
   26.9152    5.9253    7.0754 C   0  0  2  0  0  0  0  0  0  0  0  0
   32.7778    2.0363    4.3485 O   0  0  0  0  0  0  0  0  0  0  0  0
   27.2233   11.0143    5.8207 N   0  0  0  0  0  0  0  0  0  0  0  0
   28.0087    9.9759    5.3622 C   0  0  0  0  0  0  0  0  0  0  0  0
   27.7836    8.6869    5.8035 N   0  0  0  0  0  0  0  0  0  0  0  0
   26.7917    8.4311    6.6909 C   0  0  0  0  0  0  0  0  0  0  0  0
   25.9915    9.4622    7.1641 C   0  0  0  0  0  0  0  0  0  0  0  0
   26.2108   10.7621    6.7242 C   0  0  0  0  0  0  0  0  0  0  0  0
   25.4513   11.7577    7.1714 N   0  0  0  0  0  0  0  0  0  0  0  0
   25.0951    8.9318    8.0238 N   0  0  0  0  0  0  0  0  0  0  0  0
   25.3072    7.5982    8.1061 C   0  0  0  0  0  0  0  0  0  0  0  0
   26.3560    7.2729    7.2851 N   0  0  0  0  0  0  0  0  0  0  0  0
  2  1  1  1  0  0  0
  2  3  1  0  0  0  0
  2  5  1  0  0  0  0
  3  4  1  0  0  0  0
  3 16  1  0  0  0  0
  5  6  1  0  0  0  0
  6  7  1  0  0  0  0
  7  8  1  0  0  0  0
  9  8  1  6  0  0  0
  9 10  1  0  0  0  0
  9 11  1  0  0  0  0
 10 15  1  0  0  0  0
 11 12  1  1  0  0  0
 11 13  1  0  0  0  0
 13 14  1  1  0  0  0
 13 15  1  0  0  0  0
 15 26  1  6  0  0  0
 17 18  2  0  0  0  0
 17 22  1  0  0  0  0
 18 19  1  0  0  0  0
 19 20  2  0  0  0  0
 20 21  1  0  0  0  0
 20 26  1  0  0  0  0
 21 22  2  0  0  0  0
 21 24  1  0  0  0  0
 22 23  1  0  0  0  0
 24 25  2  0  0  0  0
 25 26  1  0  0  0  0
M  END
>  <CHROM.1>
-75.86671821,53.66341106,-179.45965537,-76.94786585,96.51097132,78.67483020
77.82019859,29.06169111,6.15735748,6.66884880,-0.70501122,-0.37390295,0.47543875

>  <Name>
ligand

>  <RI>
0

>  <Rbt.Current_Directory>
/home/itssahil/PROJECTS/Mol_Feturizer/New_Systems/rnas/3NPQ

>  <Rbt.Executable>
rbdock ($Id: //depot/dev/client3/rdock/2013.1/src/exe/rbdock.cxx#4 $)

>  <Rbt.Library>
libRbt.so (2013.1, Build901 2013/11/27)

>  <Rbt.Parameter_File>
/export/apps/rDock/src/rDock_2013.1_src/data/scripts/dock_solv.prm

>  <Rbt.Receptor>
prm/blind_docking_40.prm

>  <SCORE>
-11.7092

>  <SCORE.INTER>
-10.6087

>  <SCORE.INTER.CONST>
1

>  <SCORE.INTER.POLAR>
0

>  <SCORE.INTER.ROT>
7

>  <SCORE.INTER.SOLV>
7.74776

>  <SCORE.INTER.VDW>
-17.9217

>  <SCORE.INTER.norm>
-0.408028

>  <SCORE.INTRA>
-1.10051

>  <SCORE.INTRA.DIHEDRAL>
-0.92806

>  <SCORE.INTRA.DIHEDRAL.0>
6.97628

>  <SCORE.INTRA.POLAR>
0

>  <SCORE.INTRA.POLAR.0>
0

>  <SCORE.INTRA.REPUL>
0

>  <SCORE.INTRA.REPUL.0>
0

>  <SCORE.INTRA.SOLV>
-0.0963301

>  <SCORE.INTRA.SOLV.lig_0>
-49.8243

>  <SCORE.INTRA.VDW>
-0.588312

>  <SCORE.INTRA.VDW.0>
-1.35881

>  <SCORE.INTRA.norm>
-0.0423272

>  <SCORE.RESTR>
0

>  <SCORE.RESTR.CAVITY>
0

>  <SCORE.RESTR.norm>
0

>  <SCORE.SYSTEM>
0

>  <SCORE.SYSTEM.CONST>
0

>  <SCORE.SYSTEM.DIHEDRAL>
0

>  <SCORE.SYSTEM.SOLV>
0

>  <SCORE.SYSTEM.norm>
0

>  <SCORE.heavy>
26

>  <SCORE.norm>
-0.450355

>  <RMSD>
15.150

$$$$
ligand
 OpenBabel11021811483D
libRbt.so/2013.1/901 2013/11/27
 26 28  0  0  0  0  0  0  0  0999 V2000
   36.4787   25.0598   16.1651 N   0  0  0  0  0  0  0  0  0  0  0  0
   36.4928   23.6052   16.0723 C   0  0  2  0  0  0  0  0  0  0  0  0
   35.0760   23.0428   16.0546 C   0  0  0  0  0  0  0  0  0  0  0  0
   34.7686   22.1241   15.2961 O   0  0  0  0  0  0  0  0  0  0  0  0
   37.2790   23.0042   17.2307 C   0  0  0  0  0  0  0  0  0  0  0  0
   38.7828   22.9434   16.9972 C   0  0  0  0  0  0  0  0  0  0  0  0
   39.6573   22.0789   18.3263 S   0  0  0  0  0  0  0  0  0  0  0  0
   38.8638   20.5252   17.8421 C   0  0  0  0  0  0  0  0  0  0  0  0
   38.3282   19.7414   19.0346 C   0  0  1  0  0  0  0  0  0  0  0  0
   37.1010   20.2993   19.4679 O   0  0  0  0  0  0  0  0  0  0  0  0
   38.0765   18.2853   18.6784 C   0  0  1  0  0  0  0  0  0  0  0  0
   38.9182   17.4517   19.4393 O   0  0  0  0  0  0  0  0  0  0  0  0
   36.6273   18.0184   19.0287 C   0  0  1  0  0  0  0  0  0  0  0  0
   36.5411   16.9702   19.9658 O   0  0  0  0  0  0  0  0  0  0  0  0
   36.1046   19.3084   19.6372 C   0  0  2  0  0  0  0  0  0  0  0  0
   34.2052   23.4942   16.7995 O   0  0  0  0  0  0  0  0  0  0  0  0
   30.8973   19.8502   20.0341 N   0  0  0  0  0  0  0  0  0  0  0  0
   31.7792   19.3817   20.9872 C   0  0  0  0  0  0  0  0  0  0  0  0
   33.1294   19.3067   20.7078 N   0  0  0  0  0  0  0  0  0  0  0  0
   33.5994   19.6906   19.4959 C   0  0  0  0  0  0  0  0  0  0  0  0
   32.7283   20.1639   18.5241 C   0  0  0  0  0  0  0  0  0  0  0  0
   31.3681   20.2434   18.7977 C   0  0  0  0  0  0  0  0  0  0  0  0
   30.5243   20.6943   17.8742 N   0  0  0  0  0  0  0  0  0  0  0  0
   33.4553   20.4716   17.4283 N   0  0  0  0  0  0  0  0  0  0  0  0
   34.7575   20.2060   17.6812 C   0  0  0  0  0  0  0  0  0  0  0  0
   34.8625   19.7211   18.9594 N   0  0  0  0  0  0  0  0  0  0  0  0
  2  1  1  1  0  0  0
  2  3  1  0  0  0  0
  2  5  1  0  0  0  0
  3  4  1  0  0  0  0
  3 16  1  0  0  0  0
  5  6  1  0  0  0  0
  6  7  1  0  0  0  0
  7  8  1  0  0  0  0
  9  8  1  6  0  0  0
  9 10  1  0  0  0  0
  9 11  1  0  0  0  0
 10 15  1  0  0  0  0
 11 12  1  1  0  0  0
 11 13  1  0  0  0  0
 13 14  1  1  0  0  0
 13 15  1  0  0  0  0
 15 26  1  6  0  0  0
 17 18  2  0  0  0  0
 17 22  1  0  0  0  0
 18 19  1  0  0  0  0
 19 20  2  0  0  0  0
 20 21  1  0  0  0  0
 20 26  1  0  0  0  0
 21 22  2  0  0  0  0
 21 24  1  0  0  0  0
 22 23  1  0  0  0  0
 24 25  2  0  0  0  0
 25 26  1  0  0  0  0
M  END
>  <CHROM.1>
138.23953082,-84.35741483,-174.45119907,67.18205484,-134.75124517,78.56909538
-132.05404162,35.67629161,20.67559208,18.31360820,0.34606896,0.03534892,-0.58420129

>  <Name>
ligand

>  <RI>
0

>  <Rbt.Current_Directory>
/home/itssahil/PROJECTS/Mol_Feturizer/New_Systems/rnas/3NPQ

>  <Rbt.Executable>
rbdock ($Id: //depot/dev/client3/rdock/2013.1/src/exe/rbdock.cxx#4 $)

>  <Rbt.Library>
libRbt.so (2013.1, Build901 2013/11/27)

>  <Rbt.Parameter_File>
/export/apps/rDock/src/rDock_2013.1_src/data/scripts/dock_solv.prm

>  <Rbt.Receptor>
prm/blind_docking_100.prm

>  <SCORE>
-8.12349

>  <SCORE.INTER>
-6.76025

>  <SCORE.INTER.CONST>
1

>  <SCORE.INTER.POLAR>
0

>  <SCORE.INTER.ROT>
7

>  <SCORE.INTER.SOLV>
11.3661

>  <SCORE.INTER.VDW>
-16.5622

>  <SCORE.INTER.norm>
-0.260009

>  <SCORE.INTRA>
-1.36325

>  <SCORE.INTRA.DIHEDRAL>
1.19787

>  <SCORE.INTRA.DIHEDRAL.0>
6.97628

>  <SCORE.INTRA.POLAR>
0

>  <SCORE.INTRA.POLAR.0>
0

>  <SCORE.INTRA.REPUL>
0

>  <SCORE.INTRA.REPUL.0>
0

>  <SCORE.INTRA.SOLV>
-0.410285

>  <SCORE.INTRA.SOLV.lig_0>
-49.8243

>  <SCORE.INTRA.VDW>
-1.75704

>  <SCORE.INTRA.VDW.0>
-1.35881

>  <SCORE.INTRA.norm>
-0.0524326

>  <SCORE.RESTR>
0

>  <SCORE.RESTR.CAVITY>
0

>  <SCORE.RESTR.norm>
0

>  <SCORE.SYSTEM>
0

>  <SCORE.SYSTEM.CONST>
0

>  <SCORE.SYSTEM.DIHEDRAL>
0

>  <SCORE.SYSTEM.SOLV>
0

>  <SCORE.SYSTEM.norm>
0

>  <SCORE.heavy>
26

>  <SCORE.norm>
-0.312442

>  <RMSD>
15.162

$$$$
ligand
 OpenBabel11021811483D
libRbt.so/2013.1/901 2013/11/27
 26 28  0  0  0  0  0  0  0  0999 V2000
   30.3146   13.5866    2.7646 N   0  0  0  0  0  0  0  0  0  0  0  0
   30.5423   13.5356    4.2034 C   0  0  2  0  0  0  0  0  0  0  0  0
   29.6562   12.4844    4.8621 C   0  0  0  0  0  0  0  0  0  0  0  0
   28.7778   11.9062    4.2235 O   0  0  0  0  0  0  0  0  0  0  0  0
   30.2900   14.9000    4.8324 C   0  0  0  0  0  0  0  0  0  0  0  0
   28.9113   15.4762    4.5374 C   0  0  0  0  0  0  0  0  0  0  0  0
   27.5963   14.6338    5.4537 S   0  0  0  0  0  0  0  0  0  0  0  0
   26.4304   15.9373    4.9851 C   0  0  0  0  0  0  0  0  0  0  0  0
   24.9875   15.5884    5.3310 C   0  0  1  0  0  0  0  0  0  0  0  0
   24.9154   15.0861    6.6529 O   0  0  0  0  0  0  0  0  0  0  0  0
   24.0827   16.8069    5.2470 C   0  0  1  0  0  0  0  0  0  0  0  0
   23.1170   16.6202    4.2395 O   0  0  0  0  0  0  0  0  0  0  0  0
   23.4082   16.9151    6.5988 C   0  0  1  0  0  0  0  0  0  0  0  0
   22.0088   16.8619    6.4471 O   0  0  0  0  0  0  0  0  0  0  0  0
   23.8933   15.7191    7.4000 C   0  0  2  0  0  0  0  0  0  0  0  0
   29.7987   12.1883    6.0491 O   0  0  0  0  0  0  0  0  0  0  0  0
   24.7551   19.7978   10.5919 N   0  0  0  0  0  0  0  0  0  0  0  0
   24.1844   19.8067    9.3350 C   0  0  0  0  0  0  0  0  0  0  0  0
   24.0343   18.6280    8.6315 N   0  0  0  0  0  0  0  0  0  0  0  0
   24.4471   17.4538    9.1681 C   0  0  0  0  0  0  0  0  0  0  0  0
   25.0238   17.4245   10.4305 C   0  0  0  0  0  0  0  0  0  0  0  0
   25.1777   18.6062   11.1455 C   0  0  0  0  0  0  0  0  0  0  0  0
   25.7297   18.5902   12.3551 N   0  0  0  0  0  0  0  0  0  0  0  0
   25.3371   16.1419   10.7148 N   0  0  0  0  0  0  0  0  0  0  0  0
   24.9751   15.3634    9.6693 C   0  0  0  0  0  0  0  0  0  0  0  0
   24.4217   16.1627    8.7025 N   0  0  0  0  0  0  0  0  0  0  0  0
  2  1  1  6  0  0  0
  2  3  1  0  0  0  0
  2  5  1  0  0  0  0
  3  4  1  0  0  0  0
  3 16  1  0  0  0  0
  5  6  1  0  0  0  0
  6  7  1  0  0  0  0
  7  8  1  0  0  0  0
  9  8  1  1  0  0  0
  9 10  1  0  0  0  0
  9 11  1  0  0  0  0
 10 15  1  0  0  0  0
 11 12  1  6  0  0  0
 11 13  1  0  0  0  0
 13 14  1  6  0  0  0
 13 15  1  0  0  0  0
 15 26  1  1  0  0  0
 17 18  2  0  0  0  0
 17 22  1  0  0  0  0
 18 19  1  0  0  0  0
 19 20  2  0  0  0  0
 20 21  1  0  0  0  0
 20 26  1  0  0  0  0
 21 22  2  0  0  0  0
 21 24  1  0  0  0  0
 22 23  1  0  0  0  0
 24 25  2  0  0  0  0
 25 26  1  0  0  0  0
M  END
>  <CHROM.1>
-7.71258256,55.10421712,73.16354975,168.39865870,169.89160688,46.58056313
120.44058416,26.12192130,15.87993933,6.93133694,-0.86772593,-0.41992896,1.18535332

>  <Name>
ligand

>  <RI>
0

>  <Rbt.Current_Directory>
/home/itssahil/PROJECTS/Mol_Feturizer/New_Systems/rnas/3NPQ

>  <Rbt.Executable>
rbdock ($Id: //depot/dev/client3/rdock/2013.1/src/exe/rbdock.cxx#4 $)

>  <Rbt.Library>
libRbt.so (2013.1, Build901 2013/11/27)

>  <Rbt.Parameter_File>
/export/apps/rDock/src/rDock_2013.1_src/data/scripts/dock_solv.prm

>  <Rbt.Receptor>
prm/blind_docking_100.prm

>  <SCORE>
-13.1762

>  <SCORE.INTER>
-12.2011

>  <SCORE.INTER.CONST>
1

>  <SCORE.INTER.POLAR>
0

>  <SCORE.INTER.ROT>
7

>  <SCORE.INTER.SOLV>
17.5498

>  <SCORE.INTER.VDW>
-22.2507

>  <SCORE.INTER.norm>
-0.469272

>  <SCORE.INTRA>
-0.984068

>  <SCORE.INTRA.DIHEDRAL>
-2.57378

>  <SCORE.INTRA.DIHEDRAL.0>
6.97628

>  <SCORE.INTRA.POLAR>
0

>  <SCORE.INTRA.POLAR.0>
0

>  <SCORE.INTRA.REPUL>
0

>  <SCORE.INTRA.REPUL.0>
0

>  <SCORE.INTRA.SOLV>
0.553959

>  <SCORE.INTRA.SOLV.lig_0>
-49.8243

>  <SCORE.INTRA.VDW>
0.0258427

>  <SCORE.INTRA.VDW.0>
-1.35881

>  <SCORE.INTRA.norm>
-0.0378488

>  <SCORE.RESTR>
0.00893902

>  <SCORE.RESTR.CAVITY>
0.00893902

>  <SCORE.RESTR.norm>
0.000343809

>  <SCORE.SYSTEM>
0

>  <SCORE.SYSTEM.CONST>
0

>  <SCORE.SYSTEM.DIHEDRAL>
0

>  <SCORE.SYSTEM.SOLV>
0

>  <SCORE.SYSTEM.norm>
0

>  <SCORE.heavy>
26

>  <SCORE.norm>
-0.506777

>  <RMSD>
15.163

$$$$
ligand
 OpenBabel11021811483D
libRbt.so/2013.1/901 2013/11/27
 26 28  0  0  0  0  0  0  0  0999 V2000
   29.6125   10.0620    7.8465 N   0  0  0  0  0  0  0  0  0  0  0  0
   29.6931   10.1423    6.3934 C   0  0  2  0  0  0  0  0  0  0  0  0
   30.9138    9.3943    5.8695 C   0  0  0  0  0  0  0  0  0  0  0  0
   30.9482    8.9676    4.7159 O   0  0  0  0  0  0  0  0  0  0  0  0
   29.7374   11.5963    5.9408 C   0  0  0  0  0  0  0  0  0  0  0  0
   28.3893   12.3037    5.9859 C   0  0  0  0  0  0  0  0  0  0  0  0
   27.8109   12.5883    7.6779 S   0  0  0  0  0  0  0  0  0  0  0  0
   26.7588   11.1189    7.5687 C   0  0  0  0  0  0  0  0  0  0  0  0
   25.3520   11.4377    7.0761 C   0  0  1  0  0  0  0  0  0  0  0  0
   24.7028   12.2999    7.9928 O   0  0  0  0  0  0  0  0  0  0  0  0
   25.3775   12.1316    5.7240 C   0  0  1  0  0  0  0  0  0  0  0  0
   24.7442   11.3264    4.7582 O   0  0  0  0  0  0  0  0  0  0  0  0
   24.6088   13.4237    5.9076 C   0  0  1  0  0  0  0  0  0  0  0  0
   23.5214   13.4710    5.0134 O   0  0  0  0  0  0  0  0  0  0  0  0
   24.1067   13.4060    7.3412 C   0  0  2  0  0  0  0  0  0  0  0  0
   31.8949    9.1997    6.5880 O   0  0  0  0  0  0  0  0  0  0  0  0
   23.0932   18.5239    7.9304 N   0  0  0  0  0  0  0  0  0  0  0  0
   22.4500   17.6179    7.1113 C   0  0  0  0  0  0  0  0  0  0  0  0
   22.8537   16.2976    7.0832 N   0  0  0  0  0  0  0  0  0  0  0  0
   23.8849   15.8811    7.8578 C   0  0  0  0  0  0  0  0  0  0  0  0
   24.5447   16.7773    8.6877 C   0  0  0  0  0  0  0  0  0  0  0  0
   24.1440   18.1075    8.7225 C   0  0  0  0  0  0  0  0  0  0  0  0
   24.7692   18.9750    9.5129 N   0  0  0  0  0  0  0  0  0  0  0  0
   25.5173   16.1029    9.3383 N   0  0  0  0  0  0  0  0  0  0  0  0
   25.4896   14.8095    8.9425 C   0  0  0  0  0  0  0  0  0  0  0  0
   24.4825   14.6567    8.0247 N   0  0  0  0  0  0  0  0  0  0  0  0
  2  1  1  1  0  0  0
  2  3  1  0  0  0  0
  2  5  1  0  0  0  0
  3  4  1  0  0  0  0
  3 16  1  0  0  0  0
  5  6  1  0  0  0  0
  6  7  1  0  0  0  0
  7  8  1  0  0  0  0
  9  8  1  1  0  0  0
  9 10  1  0  0  0  0
  9 11  1  0  0  0  0
 10 15  1  0  0  0  0
 11 12  1  6  0  0  0
 11 13  1  0  0  0  0
 13 14  1  6  0  0  0
 13 15  1  0  0  0  0
 15 26  1  1  0  0  0
 17 18  2  0  0  0  0
 17 22  1  0  0  0  0
 18 19  1  0  0  0  0
 19 20  2  0  0  0  0
 20 21  1  0  0  0  0
 20 26  1  0  0  0  0
 21 22  2  0  0  0  0
 21 24  1  0  0  0  0
 22 23  1  0  0  0  0
 24 25  2  0  0  0  0
 25 26  1  0  0  0  0
M  END
>  <CHROM.1>
156.20117080,-76.74112474,69.61760362,-98.40523915,-91.55293172,-62.63910064
-165.45412467,26.27184536,13.33336489,7.11491764,-0.80008788,-0.34661819
0.58373999

>  <Name>
ligand

>  <RI>
0

>  <Rbt.Current_Directory>
/home/itssahil/PROJECTS/Mol_Feturizer/New_Systems/rnas/3NPQ

>  <Rbt.Executable>
rbdock ($Id: //depot/dev/client3/rdock/2013.1/src/exe/rbdock.cxx#4 $)

>  <Rbt.Library>
libRbt.so (2013.1, Build901 2013/11/27)

>  <Rbt.Parameter_File>
/export/apps/rDock/src/rDock_2013.1_src/data/scripts/dock_solv.prm

>  <Rbt.Receptor>
prm/blind_docking_60.prm

>  <SCORE>
-6.46158

>  <SCORE.INTER>
-6.38833

>  <SCORE.INTER.CONST>
1

>  <SCORE.INTER.POLAR>
0

>  <SCORE.INTER.ROT>
7

>  <SCORE.INTER.SOLV>
16.362

>  <SCORE.INTER.VDW>
-17.9796

>  <SCORE.INTER.norm>
-0.245705

>  <SCORE.INTRA>
-0.0732469

>  <SCORE.INTRA.DIHEDRAL>
0.139266

>  <SCORE.INTRA.DIHEDRAL.0>
6.97628

>  <SCORE.INTRA.POLAR>
0

>  <SCORE.INTRA.POLAR.0>
0

>  <SCORE.INTRA.REPUL>
0

>  <SCORE.INTRA.REPUL.0>
0

>  <SCORE.INTRA.SOLV>
2.468

>  <SCORE.INTRA.SOLV.lig_0>
-49.8243

>  <SCORE.INTRA.VDW>
-1.37688

>  <SCORE.INTRA.VDW.0>
-1.35881

>  <SCORE.INTRA.norm>
-0.00281719

>  <SCORE.RESTR>
0

>  <SCORE.RESTR.CAVITY>
0

>  <SCORE.RESTR.norm>
0

>  <SCORE.SYSTEM>
0

>  <SCORE.SYSTEM.CONST>
0

>  <SCORE.SYSTEM.DIHEDRAL>
0

>  <SCORE.SYSTEM.SOLV>
0

>  <SCORE.SYSTEM.norm>
0

>  <SCORE.heavy>
26

>  <SCORE.norm>
-0.248522

>  <RMSD>
15.165

$$$$
ligand
 OpenBabel11021811483D
libRbt.so/2013.1/901 2013/11/27
 26 28  0  0  0  0  0  0  0  0999 V2000
   29.6851   11.4472    4.7825 N   0  0  0  0  0  0  0  0  0  0  0  0
   28.5495   11.6650    5.6699 C   0  0  2  0  0  0  0  0  0  0  0  0
   27.9173   10.3419    6.0868 C   0  0  0  0  0  0  0  0  0  0  0  0
   27.2234   10.2629    7.0998 O   0  0  0  0  0  0  0  0  0  0  0  0
   27.5092   12.5521    4.9976 C   0  0  0  0  0  0  0  0  0  0  0  0
   26.4000   13.0256    5.9277 C   0  0  0  0  0  0  0  0  0  0  0  0
   26.9204   14.4000    6.9854 S   0  0  0  0  0  0  0  0  0  0  0  0
   27.6021   13.2250    8.1823 C   0  0  0  0  0  0  0  0  0  0  0  0
   26.5987   12.8359    9.2618 C   0  0  1  0  0  0  0  0  0  0  0  0
   26.5196   13.8577   10.2389 O   0  0  0  0  0  0  0  0  0  0  0  0
   25.2068   12.6361    8.6848 C   0  0  1  0  0  0  0  0  0  0  0  0
   24.8030   11.2981    8.8554 O   0  0  0  0  0  0  0  0  0  0  0  0
   24.2971   13.5572    9.4709 C   0  0  1  0  0  0  0  0  0  0  0  0
   23.2744   12.8133   10.0914 O   0  0  0  0  0  0  0  0  0  0  0  0
   25.1785   14.2116   10.5209 C   0  0  2  0  0  0  0  0  0  0  0  0
   28.0855    9.3206    5.4194 O   0  0  0  0  0  0  0  0  0  0  0  0
   24.3332   18.4032    7.4742 N   0  0  0  0  0  0  0  0  0  0  0  0
   24.4184   17.0788    7.0947 C   0  0  0  0  0  0  0  0  0  0  0  0
   24.6473   16.0983    8.0397 N   0  0  0  0  0  0  0  0  0  0  0  0
   24.7918   16.4281    9.3463 C   0  0  0  0  0  0  0  0  0  0  0  0
   24.7099   17.7546    9.7475 C   0  0  0  0  0  0  0  0  0  0  0  0
   24.4788   18.7473    8.8029 C   0  0  0  0  0  0  0  0  0  0  0  0
   24.3994   20.0212    9.1755 N   0  0  0  0  0  0  0  0  0  0  0  0
   24.8877   17.7960   11.0857 N   0  0  0  0  0  0  0  0  0  0  0  0
   25.0792   16.5356   11.5386 C   0  0  0  0  0  0  0  0  0  0  0  0
   25.0223   15.6764   10.4715 N   0  0  0  0  0  0  0  0  0  0  0  0
  2  1  1  6  0  0  0
  2  3  1  0  0  0  0
  2  5  1  0  0  0  0
  3  4  1  0  0  0  0
  3 16  1  0  0  0  0
  5  6  1  0  0  0  0
  6  7  1  0  0  0  0
  7  8  1  0  0  0  0
  9  8  1  6  0  0  0
  9 10  1  0  0  0  0
  9 11  1  0  0  0  0
 10 15  1  0  0  0  0
 11 12  1  1  0  0  0
 11 13  1  0  0  0  0
 13 14  1  1  0  0  0
 13 15  1  0  0  0  0
 15 26  1  6  0  0  0
 17 18  2  0  0  0  0
 17 22  1  0  0  0  0
 18 19  1  0  0  0  0
 19 20  2  0  0  0  0
 20 21  1  0  0  0  0
 20 26  1  0  0  0  0
 21 22  2  0  0  0  0
 21 24  1  0  0  0  0
 22 23  1  0  0  0  0
 24 25  2  0  0  0  0
 25 26  1  0  0  0  0
M  END
>  <CHROM.1>
158.80206552,-170.25862541,78.45451652,-85.47684916,-91.86741897,-79.03451673
84.78723248,25.93970432,14.19601674,8.18911438,-0.68885793,1.02206845,-0.31285549

>  <Name>
ligand

>  <RI>
0

>  <Rbt.Current_Directory>
/home/itssahil/PROJECTS/Mol_Feturizer/New_Systems/rnas/3NPQ

>  <Rbt.Executable>
rbdock ($Id: //depot/dev/client3/rdock/2013.1/src/exe/rbdock.cxx#4 $)

>  <Rbt.Library>
libRbt.so (2013.1, Build901 2013/11/27)

>  <Rbt.Parameter_File>
/export/apps/rDock/src/rDock_2013.1_src/data/scripts/dock_solv.prm

>  <Rbt.Receptor>
prm/blind_docking_80.prm

>  <SCORE>
-1.36483

>  <SCORE.INTER>
-0.816511

>  <SCORE.INTER.CONST>
1

>  <SCORE.INTER.POLAR>
0

>  <SCORE.INTER.ROT>
7

>  <SCORE.INTER.SOLV>
17.0951

>  <SCORE.INTER.VDW>
-14.5094

>  <SCORE.INTER.norm>
-0.0314043

>  <SCORE.INTRA>
-0.965598

>  <SCORE.INTRA.DIHEDRAL>
0.679673

>  <SCORE.INTRA.DIHEDRAL.0>
6.97628

>  <SCORE.INTRA.POLAR>
0

>  <SCORE.INTRA.POLAR.0>
0

>  <SCORE.INTRA.REPUL>
0

>  <SCORE.INTRA.REPUL.0>
0

>  <SCORE.INTRA.SOLV>
0.0677262

>  <SCORE.INTRA.SOLV.lig_0>
-49.8243

>  <SCORE.INTRA.VDW>
-1.3393

>  <SCORE.INTRA.VDW.0>
-1.35881

>  <SCORE.INTRA.norm>
-0.0371384

>  <SCORE.RESTR>
0.417276

>  <SCORE.RESTR.CAVITY>
0.417276

>  <SCORE.RESTR.norm>
0.0160491

>  <SCORE.SYSTEM>
0

>  <SCORE.SYSTEM.CONST>
0

>  <SCORE.SYSTEM.DIHEDRAL>
0

>  <SCORE.SYSTEM.SOLV>
0

>  <SCORE.SYSTEM.norm>
0

>  <SCORE.heavy>
26

>  <SCORE.norm>
-0.0524936

>  <RMSD>
15.193

$$$$
ligand
 OpenBabel11021811483D
libRbt.so/2013.1/901 2013/11/27
 26 28  0  0  0  0  0  0  0  0999 V2000
   30.0787   20.2723   18.8697 N   0  0  0  0  0  0  0  0  0  0  0  0
   31.2550   20.5742   18.0636 C   0  0  2  0  0  0  0  0  0  0  0  0
   31.6101   19.4052   17.1519 C   0  0  0  0  0  0  0  0  0  0  0  0
   32.1852   18.4106   17.5923 O   0  0  0  0  0  0  0  0  0  0  0  0
   32.4401   20.9187   18.9570 C   0  0  0  0  0  0  0  0  0  0  0  0
   33.5518   21.6825   18.2495 C   0  0  0  0  0  0  0  0  0  0  0  0
   34.3969   20.6799   17.0008 S   0  0  0  0  0  0  0  0  0  0  0  0
   35.8966   21.6714   17.2153 C   0  0  0  0  0  0  0  0  0  0  0  0
   36.8869   21.0382   18.1857 C   0  0  1  0  0  0  0  0  0  0  0  0
   36.2027   20.5535   19.3268 O   0  0  0  0  0  0  0  0  0  0  0  0
   37.6195   19.8673   17.5513 C   0  0  1  0  0  0  0  0  0  0  0  0
   38.9970   20.1477   17.4724 O   0  0  0  0  0  0  0  0  0  0  0  0
   37.3821   18.6851   18.4679 C   0  0  1  0  0  0  0  0  0  0  0  0
   38.6120   18.1711   18.9232 O   0  0  0  0  0  0  0  0  0  0  0  0
   36.5754   19.2238   19.6370 C   0  0  2  0  0  0  0  0  0  0  0  0
   31.3294   19.4280   15.9530 O   0  0  0  0  0  0  0  0  0  0  0  0
   31.9303   18.8228   22.0514 N   0  0  0  0  0  0  0  0  0  0  0  0
   32.8440   19.8546   22.1301 C   0  0  0  0  0  0  0  0  0  0  0  0
   34.0263   19.7918   21.4195 N   0  0  0  0  0  0  0  0  0  0  0  0
   34.3000   18.7168   20.6407 C   0  0  0  0  0  0  0  0  0  0  0  0
   33.3941   17.6690   20.5490 C   0  0  0  0  0  0  0  0  0  0  0  0
   32.2015   17.7248   21.2602 C   0  0  0  0  0  0  0  0  0  0  0  0
   31.3267   16.7265   21.1807 N   0  0  0  0  0  0  0  0  0  0  0  0
   33.9135   16.7420   19.7153 N   0  0  0  0  0  0  0  0  0  0  0  0
   35.1190   17.1750   19.2799 C   0  0  0  0  0  0  0  0  0  0  0  0
   35.3723   18.3982   19.8452 N   0  0  0  0  0  0  0  0  0  0  0  0
  2  1  1  1  0  0  0
  2  3  1  0  0  0  0
  2  5  1  0  0  0  0
  3  4  1  0  0  0  0
  3 16  1  0  0  0  0
  5  6  1  0  0  0  0
  6  7  1  0  0  0  0
  7  8  1  0  0  0  0
  9  8  1  6  0  0  0
  9 10  1  0  0  0  0
  9 11  1  0  0  0  0
 10 15  1  0  0  0  0
 11 12  1  1  0  0  0
 11 13  1  0  0  0  0
 13 14  1  1  0  0  0
 13 15  1  0  0  0  0
 15 26  1  6  0  0  0
 17 18  2  0  0  0  0
 17 22  1  0  0  0  0
 18 19  1  0  0  0  0
 19 20  2  0  0  0  0
 20 21  1  0  0  0  0
 20 26  1  0  0  0  0
 21 22  2  0  0  0  0
 21 24  1  0  0  0  0
 22 23  1  0  0  0  0
 24 25  2  0  0  0  0
 25 26  1  0  0  0  0
M  END
>  <CHROM.1>
-77.48519260,-160.66589039,-67.45393621,-153.07728259,95.82358315,-43.97892534
-48.94699362,34.25977191,19.40872777,18.94449399,2.85370491,-0.02421687,2.18552113

>  <Name>
ligand

>  <RI>
0

>  <Rbt.Current_Directory>
/home/itssahil/PROJECTS/Mol_Feturizer/New_Systems/rnas/3NPQ

>  <Rbt.Executable>
rbdock ($Id: //depot/dev/client3/rdock/2013.1/src/exe/rbdock.cxx#4 $)

>  <Rbt.Library>
libRbt.so (2013.1, Build901 2013/11/27)

>  <Rbt.Parameter_File>
/export/apps/rDock/src/rDock_2013.1_src/data/scripts/dock_solv.prm

>  <Rbt.Receptor>
prm/blind_docking_60.prm

>  <SCORE>
-10.3446

>  <SCORE.INTER>
-6.71858

>  <SCORE.INTER.CONST>
1

>  <SCORE.INTER.POLAR>
0

>  <SCORE.INTER.ROT>
7

>  <SCORE.INTER.SOLV>
9.37505

>  <SCORE.INTER.VDW>
-15.8707

>  <SCORE.INTER.norm>
-0.258407

>  <SCORE.INTRA>
-3.62604

>  <SCORE.INTRA.DIHEDRAL>
0.689678

>  <SCORE.INTRA.DIHEDRAL.0>
6.97628

>  <SCORE.INTRA.POLAR>
0

>  <SCORE.INTRA.POLAR.0>
0

>  <SCORE.INTRA.REPUL>
0

>  <SCORE.INTRA.REPUL.0>
0

>  <SCORE.INTRA.SOLV>
-0.29563

>  <SCORE.INTRA.SOLV.lig_0>
-49.8243

>  <SCORE.INTRA.VDW>
-3.82307

>  <SCORE.INTRA.VDW.0>
-1.35881

>  <SCORE.INTRA.norm>
-0.139463

>  <SCORE.RESTR>
0

>  <SCORE.RESTR.CAVITY>
0

>  <SCORE.RESTR.norm>
0

>  <SCORE.SYSTEM>
0

>  <SCORE.SYSTEM.CONST>
0

>  <SCORE.SYSTEM.DIHEDRAL>
0

>  <SCORE.SYSTEM.SOLV>
0

>  <SCORE.SYSTEM.norm>
0

>  <SCORE.heavy>
26

>  <SCORE.norm>
-0.39787

>  <RMSD>
15.195

$$$$
ligand
 OpenBabel11021811483D
libRbt.so/2013.1/901 2013/11/27
 26 28  0  0  0  0  0  0  0  0999 V2000
   31.2554   13.0654    2.3649 N   0  0  0  0  0  0  0  0  0  0  0  0
   29.8653   12.8432    2.7428 C   0  0  2  0  0  0  0  0  0  0  0  0
   28.9146   13.4011    1.6898 C   0  0  0  0  0  0  0  0  0  0  0  0
   29.1033   14.5093    1.1896 O   0  0  0  0  0  0  0  0  0  0  0  0
   29.5730   13.4754    4.0978 C   0  0  0  0  0  0  0  0  0  0  0  0
   28.2004   13.1324    4.6617 C   0  0  0  0  0  0  0  0  0  0  0  0
   27.9601   13.7696    6.3394 S   0  0  0  0  0  0  0  0  0  0  0  0
   27.0591   15.1919    5.6735 C   0  0  0  0  0  0  0  0  0  0  0  0
   25.5494   15.0618    5.8384 C   0  0  1  0  0  0  0  0  0  0  0  0
   25.2371   14.7196    7.1765 O   0  0  0  0  0  0  0  0  0  0  0  0
   24.8377   16.3651    5.5141 C   0  0  1  0  0  0  0  0  0  0  0  0
   23.9959   16.1889    4.3993 O   0  0  0  0  0  0  0  0  0  0  0  0
   24.0132   16.7021    6.7391 C   0  0  1  0  0  0  0  0  0  0  0  0
   22.6515   16.8040    6.3928 O   0  0  0  0  0  0  0  0  0  0  0  0
   24.2218   15.5505    7.7076 C   0  0  2  0  0  0  0  0  0  0  0  0
   27.9352   12.7558    1.3140 O   0  0  0  0  0  0  0  0  0  0  0  0
   24.6688   19.7811   10.7848 N   0  0  0  0  0  0  0  0  0  0  0  0
   24.1958   19.7172    9.4896 C   0  0  0  0  0  0  0  0  0  0  0  0
   24.1484   18.5073    8.8258 N   0  0  0  0  0  0  0  0  0  0  0  0
   24.5671   17.3737    9.4394 C   0  0  0  0  0  0  0  0  0  0  0  0
   25.0466   17.4176   10.7414 C   0  0  0  0  0  0  0  0  0  0  0  0
   25.0967   18.6311   11.4168 C   0  0  0  0  0  0  0  0  0  0  0  0
   25.5549   18.6853   12.6639 N   0  0  0  0  0  0  0  0  0  0  0  0
   25.3899   16.1618   11.1007 N   0  0  0  0  0  0  0  0  0  0  0  0
   25.1410   15.3290   10.0639 C   0  0  0  0  0  0  0  0  0  0  0  0
   24.6305   16.0661    9.0266 N   0  0  0  0  0  0  0  0  0  0  0  0
  2  1  1  6  0  0  0
  2  3  1  0  0  0  0
  2  5  1  0  0  0  0
  3  4  1  0  0  0  0
  3 16  1  0  0  0  0
  5  6  1  0  0  0  0
  6  7  1  0  0  0  0
  7  8  1  0  0  0  0
  9  8  1  1  0  0  0
  9 10  1  0  0  0  0
  9 11  1  0  0  0  0
 10 15  1  0  0  0  0
 11 12  1  6  0  0  0
 11 13  1  0  0  0  0
 13 14  1  6  0  0  0
 13 15  1  0  0  0  0
 15 26  1  1  0  0  0
 17 18  2  0  0  0  0
 17 22  1  0  0  0  0
 18 19  1  0  0  0  0
 19 20  2  0  0  0  0
 20 21  1  0  0  0  0
 20 26  1  0  0  0  0
 21 22  2  0  0  0  0
 21 24  1  0  0  0  0
 22 23  1  0  0  0  0
 24 25  2  0  0  0  0
 25 26  1  0  0  0  0
M  END
>  <CHROM.1>
-44.12486942,-172.06612422,174.38476335,98.38932366,102.58357910,49.82693531
131.55520426,26.21403219,15.66478060,6.67820995,-1.03559813,-0.48825501,1.29875269

>  <Name>
ligand

>  <RI>
0

>  <Rbt.Current_Directory>
/home/itssahil/PROJECTS/Mol_Feturizer/New_Systems/rnas/3NPQ

>  <Rbt.Executable>
rbdock ($Id: //depot/dev/client3/rdock/2013.1/src/exe/rbdock.cxx#4 $)

>  <Rbt.Library>
libRbt.so (2013.1, Build901 2013/11/27)

>  <Rbt.Parameter_File>
/export/apps/rDock/src/rDock_2013.1_src/data/scripts/dock_solv.prm

>  <Rbt.Receptor>
prm/blind_docking_100.prm

>  <SCORE>
-7.47325

>  <SCORE.INTER>
-6.94377

>  <SCORE.INTER.CONST>
1

>  <SCORE.INTER.POLAR>
0

>  <SCORE.INTER.ROT>
7

>  <SCORE.INTER.SOLV>
17.4326

>  <SCORE.INTER.VDW>
-18.7067

>  <SCORE.INTER.norm>
-0.267068

>  <SCORE.INTRA>
-0.530157

>  <SCORE.INTRA.DIHEDRAL>
0.0543609

>  <SCORE.INTRA.DIHEDRAL.0>
6.97628

>  <SCORE.INTRA.POLAR>
0

>  <SCORE.INTRA.POLAR.0>
0

>  <SCORE.INTRA.REPUL>
0

>  <SCORE.INTRA.REPUL.0>
0

>  <SCORE.INTRA.SOLV>
-0.800517

>  <SCORE.INTRA.SOLV.lig_0>
-49.8243

>  <SCORE.INTRA.VDW>
-0.157079

>  <SCORE.INTRA.VDW.0>
-1.35881

>  <SCORE.INTRA.norm>
-0.0203906

>  <SCORE.RESTR>
0.000681261

>  <SCORE.RESTR.CAVITY>
0.000681261

>  <SCORE.RESTR.norm>
2.62023e-05

>  <SCORE.SYSTEM>
0

>  <SCORE.SYSTEM.CONST>
0

>  <SCORE.SYSTEM.DIHEDRAL>
0

>  <SCORE.SYSTEM.SOLV>
0

>  <SCORE.SYSTEM.norm>
0

>  <SCORE.heavy>
26

>  <SCORE.norm>
-0.287433

>  <RMSD>
15.199

$$$$
ligand
 OpenBabel11021811483D
libRbt.so/2013.1/901 2013/11/27
 26 28  0  0  0  0  0  0  0  0999 V2000
   29.9327   11.6361    4.5394 N   0  0  0  0  0  0  0  0  0  0  0  0
   29.0727   12.8127    4.5648 C   0  0  2  0  0  0  0  0  0  0  0  0
   27.7835   12.5668    3.7892 C   0  0  0  0  0  0  0  0  0  0  0  0
   27.7899   12.4773    2.5621 O   0  0  0  0  0  0  0  0  0  0  0  0
   29.8040   14.0208    3.9931 C   0  0  0  0  0  0  0  0  0  0  0  0
   29.2547   15.3611    4.4636 C   0  0  0  0  0  0  0  0  0  0  0  0
   27.5212   15.6023    3.9999 S   0  0  0  0  0  0  0  0  0  0  0  0
   27.0069   15.1545    5.6771 C   0  0  0  0  0  0  0  0  0  0  0  0
   25.4917   15.0956    5.8320 C   0  0  1  0  0  0  0  0  0  0  0  0
   25.1549   14.7642    7.1668 O   0  0  0  0  0  0  0  0  0  0  0  0
   24.8447   16.4323    5.5079 C   0  0  1  0  0  0  0  0  0  0  0  0
   24.0028   16.2999    4.3872 O   0  0  0  0  0  0  0  0  0  0  0  0
   24.0292   16.8039    6.7289 C   0  0  1  0  0  0  0  0  0  0  0  0
   22.6762   16.9714    6.3745 O   0  0  0  0  0  0  0  0  0  0  0  0
   24.1767   15.6406    7.6945 C   0  0  2  0  0  0  0  0  0  0  0  0
   26.7048   12.4514    4.3723 O   0  0  0  0  0  0  0  0  0  0  0  0
   24.7072   19.8216   10.8258 N   0  0  0  0  0  0  0  0  0  0  0  0
   24.2260   19.7827    9.5326 C   0  0  0  0  0  0  0  0  0  0  0  0
   24.1559   18.5827    8.8528 N   0  0  0  0  0  0  0  0  0  0  0  0
   24.5603   17.4345    9.4487 C   0  0  0  0  0  0  0  0  0  0  0  0
   25.0477   17.4533   10.7484 C   0  0  0  0  0  0  0  0  0  0  0  0
   25.1206   18.6566   11.4397 C   0  0  0  0  0  0  0  0  0  0  0  0
   25.5866   18.6868   12.6847 N   0  0  0  0  0  0  0  0  0  0  0  0
   25.3733   16.1875   11.0887 N   0  0  0  0  0  0  0  0  0  0  0  0
   25.1056   15.3729   10.0423 C   0  0  0  0  0  0  0  0  0  0  0  0
   24.6009   16.1318    9.0179 N   0  0  0  0  0  0  0  0  0  0  0  0
  2  1  1  6  0  0  0
  2  3  1  0  0  0  0
  2  5  1  0  0  0  0
  3  4  1  0  0  0  0
  3 16  1  0  0  0  0
  5  6  1  0  0  0  0
  6  7  1  0  0  0  0
  7  8  1  0  0  0  0
  9  8  1  1  0  0  0
  9 10  1  0  0  0  0
  9 11  1  0  0  0  0
 10 15  1  0  0  0  0
 11 12  1  6  0  0  0
 11 13  1  0  0  0  0
 13 14  1  6  0  0  0
 13 15  1  0  0  0  0
 15 26  1  1  0  0  0
 17 18  2  0  0  0  0
 17 22  1  0  0  0  0
 18 19  1  0  0  0  0
 19 20  2  0  0  0  0
 20 21  1  0  0  0  0
 20 26  1  0  0  0  0
 21 22  2  0  0  0  0
 21 24  1  0  0  0  0
 22 23  1  0  0  0  0
 24 25  2  0  0  0  0
 25 26  1  0  0  0  0
M  END
>  <CHROM.1>
-70.69525458,-156.74466040,-60.54246589,100.62827604,-175.71795347,-178.99645131
133.59005821,25.99780597,15.78202842,6.86913034,-1.06394160,-0.54993212,1.22306236

>  <Name>
ligand

>  <RI>
0

>  <Rbt.Current_Directory>
/home/itssahil/PROJECTS/Mol_Feturizer/New_Systems/rnas/3NPQ

>  <Rbt.Executable>
rbdock ($Id: //depot/dev/client3/rdock/2013.1/src/exe/rbdock.cxx#4 $)

>  <Rbt.Library>
libRbt.so (2013.1, Build901 2013/11/27)

>  <Rbt.Parameter_File>
/export/apps/rDock/src/rDock_2013.1_src/data/scripts/dock_solv.prm

>  <Rbt.Receptor>
prm/blind_docking_100.prm

>  <SCORE>
-10.3937

>  <SCORE.INTER>
-9.26294

>  <SCORE.INTER.CONST>
1

>  <SCORE.INTER.POLAR>
0

>  <SCORE.INTER.ROT>
7

>  <SCORE.INTER.SOLV>
12.8219

>  <SCORE.INTER.VDW>
-18.7159

>  <SCORE.INTER.norm>
-0.356267

>  <SCORE.INTRA>
-1.14589

>  <SCORE.INTRA.DIHEDRAL>
-0.563561

>  <SCORE.INTRA.DIHEDRAL.0>
6.97628

>  <SCORE.INTRA.POLAR>
0

>  <SCORE.INTRA.POLAR.0>
0

>  <SCORE.INTRA.REPUL>
0

>  <SCORE.INTRA.REPUL.0>
0

>  <SCORE.INTRA.SOLV>
-0.450486

>  <SCORE.INTRA.SOLV.lig_0>
-49.8243

>  <SCORE.INTRA.VDW>
-0.638863

>  <SCORE.INTRA.VDW.0>
-1.35881

>  <SCORE.INTRA.norm>
-0.0440726

>  <SCORE.RESTR>
0.0151681

>  <SCORE.RESTR.CAVITY>
0.0151681

>  <SCORE.RESTR.norm>
0.000583389

>  <SCORE.SYSTEM>
0

>  <SCORE.SYSTEM.CONST>
0

>  <SCORE.SYSTEM.DIHEDRAL>
0

>  <SCORE.SYSTEM.SOLV>
0

>  <SCORE.SYSTEM.norm>
0

>  <SCORE.heavy>
26

>  <SCORE.norm>
-0.399756

>  <RMSD>
15.203

$$$$
ligand
 OpenBabel11021811483D
libRbt.so/2013.1/901 2013/11/27
 26 28  0  0  0  0  0  0  0  0999 V2000
   36.5193   20.1636   21.8395 N   0  0  0  0  0  0  0  0  0  0  0  0
   35.3835   21.0628   22.0004 C   0  0  2  0  0  0  0  0  0  0  0  0
   34.0737   20.3572   21.6684 C   0  0  0  0  0  0  0  0  0  0  0  0
   33.5982   20.4050   20.5346 O   0  0  0  0  0  0  0  0  0  0  0  0
   35.5502   22.2958   21.1211 C   0  0  0  0  0  0  0  0  0  0  0  0
   36.8134   23.0976   21.4061 C   0  0  0  0  0  0  0  0  0  0  0  0
   37.4055   24.0002   19.9525 S   0  0  0  0  0  0  0  0  0  0  0  0
   37.8732   22.4368   19.1683 C   0  0  0  0  0  0  0  0  0  0  0  0
   37.1653   22.2111   17.8374 C   0  0  1  0  0  0  0  0  0  0  0  0
   37.0814   20.8244   17.5637 O   0  0  0  0  0  0  0  0  0  0  0  0
   35.7509   22.7674   17.8558 C   0  0  1  0  0  0  0  0  0  0  0  0
   35.6294   23.8038   16.9106 O   0  0  0  0  0  0  0  0  0  0  0  0
   34.8471   21.6120   17.4782 C   0  0  1  0  0  0  0  0  0  0  0  0
   34.1015   21.9367   16.3281 O   0  0  0  0  0  0  0  0  0  0  0  0
   35.7712   20.4415   17.1893 C   0  0  2  0  0  0  0  0  0  0  0  0
   33.4602   19.7218   22.5268 O   0  0  0  0  0  0  0  0  0  0  0  0
   31.7382   17.4567   18.7362 N   0  0  0  0  0  0  0  0  0  0  0  0
   31.7064   18.5834   17.9393 C   0  0  0  0  0  0  0  0  0  0  0  0
   32.8759   19.2496   17.6306 N   0  0  0  0  0  0  0  0  0  0  0  0
   34.0634   18.8041   18.1084 C   0  0  0  0  0  0  0  0  0  0  0  0
   34.1158   17.6732   18.9118 C   0  0  0  0  0  0  0  0  0  0  0  0
   32.9435   16.9964   19.2264 C   0  0  0  0  0  0  0  0  0  0  0  0
   32.9816   15.9126   19.9958 N   0  0  0  0  0  0  0  0  0  0  0  0
   35.4075   17.4570   19.2417 N   0  0  0  0  0  0  0  0  0  0  0  0
   36.1694   18.4180   18.6703 C   0  0  0  0  0  0  0  0  0  0  0  0
   35.3499   19.2606   17.9643 N   0  0  0  0  0  0  0  0  0  0  0  0
  2  1  1  6  0  0  0
  2  3  1  0  0  0  0
  2  5  1  0  0  0  0
  3  4  1  0  0  0  0
  3 16  1  0  0  0  0
  5  6  1  0  0  0  0
  6  7  1  0  0  0  0
  7  8  1  0  0  0  0
  9  8  1  1  0  0  0
  9 10  1  0  0  0  0
  9 11  1  0  0  0  0
 10 15  1  0  0  0  0
 11 12  1  6  0  0  0
 11 13  1  0  0  0  0
 13 14  1  6  0  0  0
 13 15  1  0  0  0  0
 15 26  1  1  0  0  0
 17 18  2  0  0  0  0
 17 22  1  0  0  0  0
 18 19  1  0  0  0  0
 19 20  2  0  0  0  0
 20 21  1  0  0  0  0
 20 26  1  0  0  0  0
 21 22  2  0  0  0  0
 21 24  1  0  0  0  0
 22 23  1  0  0  0  0
 24 25  2  0  0  0  0
 25 26  1  0  0  0  0
M  END
>  <CHROM.1>
-92.73258342,-58.71066268,152.23796575,-69.59288844,120.96326133,-154.45542492
163.56622369,35.07588336,20.51513507,19.18619745,-0.11683946,0.96711044,1.71764140

>  <Name>
ligand

>  <RI>
0

>  <Rbt.Current_Directory>
/home/itssahil/PROJECTS/Mol_Feturizer/New_Systems/rnas/3NPQ

>  <Rbt.Executable>
rbdock ($Id: //depot/dev/client3/rdock/2013.1/src/exe/rbdock.cxx#4 $)

>  <Rbt.Library>
libRbt.so (2013.1, Build901 2013/11/27)

>  <Rbt.Parameter_File>
/export/apps/rDock/src/rDock_2013.1_src/data/scripts/dock_solv.prm

>  <Rbt.Receptor>
prm/blind_docking_60.prm

>  <SCORE>
-7.52051

>  <SCORE.INTER>
-7.80305

>  <SCORE.INTER.CONST>
1

>  <SCORE.INTER.POLAR>
0

>  <SCORE.INTER.ROT>
7

>  <SCORE.INTER.SOLV>
7.86523

>  <SCORE.INTER.VDW>
-16.0904

>  <SCORE.INTER.norm>
-0.300117

>  <SCORE.INTRA>
0.282544

>  <SCORE.INTRA.DIHEDRAL>
2.70911

>  <SCORE.INTRA.DIHEDRAL.0>
6.97628

>  <SCORE.INTRA.POLAR>
0

>  <SCORE.INTRA.POLAR.0>
0

>  <SCORE.INTRA.REPUL>
0

>  <SCORE.INTRA.REPUL.0>
0

>  <SCORE.INTRA.SOLV>
1.33235

>  <SCORE.INTRA.SOLV.lig_0>
-49.8243

>  <SCORE.INTRA.VDW>
-1.73819

>  <SCORE.INTRA.VDW.0>
-1.35881

>  <SCORE.INTRA.norm>
0.0108671

>  <SCORE.RESTR>
0

>  <SCORE.RESTR.CAVITY>
0

>  <SCORE.RESTR.norm>
0

>  <SCORE.SYSTEM>
0

>  <SCORE.SYSTEM.CONST>
0

>  <SCORE.SYSTEM.DIHEDRAL>
0

>  <SCORE.SYSTEM.SOLV>
0

>  <SCORE.SYSTEM.norm>
0

>  <SCORE.heavy>
26

>  <SCORE.norm>
-0.28925

>  <RMSD>
15.206

$$$$
ligand
 OpenBabel11021811483D
libRbt.so/2013.1/901 2013/11/27
 26 28  0  0  0  0  0  0  0  0999 V2000
   32.1490    2.2976    6.4981 N   0  0  0  0  0  0  0  0  0  0  0  0
   33.4221    1.6138    6.3079 C   0  0  2  0  0  0  0  0  0  0  0  0
   34.0956    2.0580    5.0145 C   0  0  0  0  0  0  0  0  0  0  0  0
   33.4389    2.2484    3.9915 O   0  0  0  0  0  0  0  0  0  0  0  0
   33.2209    0.1036    6.3002 C   0  0  0  0  0  0  0  0  0  0  0  0
   32.9226   -0.4917    7.6700 C   0  0  0  0  0  0  0  0  0  0  0  0
   34.2124   -0.1187    8.8848 S   0  0  0  0  0  0  0  0  0  0  0  0
   35.2932   -1.3546    8.1213 C   0  0  0  0  0  0  0  0  0  0  0  0
   35.9699   -0.8426    6.8551 C   0  0  1  0  0  0  0  0  0  0  0  0
   37.0079    0.0594    7.1928 O   0  0  0  0  0  0  0  0  0  0  0  0
   36.5839   -1.9776    6.0519 C   0  0  1  0  0  0  0  0  0  0  0  0
   35.9518   -2.0759    4.7977 O   0  0  0  0  0  0  0  0  0  0  0  0
   38.0430   -1.6139    5.8708 C   0  0  1  0  0  0  0  0  0  0  0  0
   38.3575   -1.5432    4.4995 O   0  0  0  0  0  0  0  0  0  0  0  0
   38.2126   -0.2499    6.5173 C   0  0  2  0  0  0  0  0  0  0  0  0
   35.3129    2.2374    4.9625 O   0  0  0  0  0  0  0  0  0  0  0  0
   43.3624    0.4962    7.2173 N   0  0  0  0  0  0  0  0  0  0  0  0
   42.6319    0.6410    6.0550 C   0  0  0  0  0  0  0  0  0  0  0  0
   41.2721    0.4009    6.0543 N   0  0  0  0  0  0  0  0  0  0  0  0
   40.6442    0.0197    7.1933 C   0  0  0  0  0  0  0  0  0  0  0  0
   41.3617   -0.1319    8.3720 C   0  0  0  0  0  0  0  0  0  0  0  0
   42.7304    0.1087    8.3815 C   0  0  0  0  0  0  0  0  0  0  0  0
   43.4280   -0.0342    9.5045 N   0  0  0  0  0  0  0  0  0  0  0  0
   40.4985   -0.5132    9.3382 N   0  0  0  0  0  0  0  0  0  0  0  0
   39.2595   -0.6062    8.8029 C   0  0  0  0  0  0  0  0  0  0  0  0
   39.3340   -0.2787    7.4736 N   0  0  0  0  0  0  0  0  0  0  0  0
  2  1  1  6  0  0  0
  2  3  1  0  0  0  0
  2  5  1  0  0  0  0
  3  4  1  0  0  0  0
  3 16  1  0  0  0  0
  5  6  1  0  0  0  0
  6  7  1  0  0  0  0
  7  8  1  0  0  0  0
  9  8  1  1  0  0  0
  9 10  1  0  0  0  0
  9 11  1  0  0  0  0
 10 15  1  0  0  0  0
 11 12  1  6  0  0  0
 11 13  1  0  0  0  0
 13 14  1  6  0  0  0
 13 15  1  0  0  0  0
 15 26  1  1  0  0  0
 17 18  2  0  0  0  0
 17 22  1  0  0  0  0
 18 19  1  0  0  0  0
 19 20  2  0  0  0  0
 20 21  1  0  0  0  0
 20 26  1  0  0  0  0
 21 22  2  0  0  0  0
 21 24  1  0  0  0  0
 22 23  1  0  0  0  0
 24 25  2  0  0  0  0
 25 26  1  0  0  0  0
M  END
>  <CHROM.1>
-39.69089475,-73.12192330,-57.05853988,-75.57792599,79.22108998,74.64937756
-150.50207729,37.37079742,0.01296906,6.88729760,-2.95059708,-0.03994757,1.88503263

>  <Name>
ligand

>  <RI>
0

>  <Rbt.Current_Directory>
/home/itssahil/PROJECTS/Mol_Feturizer/New_Systems/rnas/3NPQ

>  <Rbt.Executable>
rbdock ($Id: //depot/dev/client3/rdock/2013.1/src/exe/rbdock.cxx#4 $)

>  <Rbt.Library>
libRbt.so (2013.1, Build901 2013/11/27)

>  <Rbt.Parameter_File>
/export/apps/rDock/src/rDock_2013.1_src/data/scripts/dock_solv.prm

>  <Rbt.Receptor>
prm/blind_docking_80.prm

>  <SCORE>
-9.17889

>  <SCORE.INTER>
-7.60715

>  <SCORE.INTER.CONST>
1

>  <SCORE.INTER.POLAR>
0

>  <SCORE.INTER.ROT>
7

>  <SCORE.INTER.SOLV>
12.5111

>  <SCORE.INTER.VDW>
-17.5085

>  <SCORE.INTER.norm>
-0.292583

>  <SCORE.INTRA>
-1.67669

>  <SCORE.INTRA.DIHEDRAL>
-1.91691

>  <SCORE.INTRA.DIHEDRAL.0>
6.97628

>  <SCORE.INTRA.POLAR>
0

>  <SCORE.INTRA.POLAR.0>
0

>  <SCORE.INTRA.REPUL>
0

>  <SCORE.INTRA.REPUL.0>
0

>  <SCORE.INTRA.SOLV>
0.530765

>  <SCORE.INTRA.SOLV.lig_0>
-49.8243

>  <SCORE.INTRA.VDW>
-0.983612

>  <SCORE.INTRA.VDW.0>
-1.35881

>  <SCORE.INTRA.norm>
-0.0644879

>  <SCORE.RESTR>
0.10495

>  <SCORE.RESTR.CAVITY>
0.10495

>  <SCORE.RESTR.norm>
0.00403652

>  <SCORE.SYSTEM>
0

>  <SCORE.SYSTEM.CONST>
0

>  <SCORE.SYSTEM.DIHEDRAL>
0

>  <SCORE.SYSTEM.SOLV>
0

>  <SCORE.SYSTEM.norm>
0

>  <SCORE.heavy>
26

>  <SCORE.norm>
-0.353034

>  <RMSD>
15.211

$$$$
ligand
 OpenBabel11021811483D
libRbt.so/2013.1/901 2013/11/27
 26 28  0  0  0  0  0  0  0  0999 V2000
   33.7970    2.5875    7.3567 N   0  0  0  0  0  0  0  0  0  0  0  0
   33.3052    2.7850    8.7145 C   0  0  2  0  0  0  0  0  0  0  0  0
   32.0804    1.9189    8.9857 C   0  0  0  0  0  0  0  0  0  0  0  0
   31.4821    1.9862   10.0588 O   0  0  0  0  0  0  0  0  0  0  0  0
   32.9708    4.2521    8.9529 C   0  0  0  0  0  0  0  0  0  0  0  0
   31.9461    4.8228    7.9813 C   0  0  0  0  0  0  0  0  0  0  0  0
   31.2827    6.4162    8.5286 S   0  0  0  0  0  0  0  0  0  0  0  0
   30.3275    6.5485    6.9962 C   0  0  0  0  0  0  0  0  0  0  0  0
   29.1294    5.6067    6.9665 C   0  0  1  0  0  0  0  0  0  0  0  0
   28.0916    6.1191    7.7823 O   0  0  0  0  0  0  0  0  0  0  0  0
   28.5783    5.4482    5.5588 C   0  0  1  0  0  0  0  0  0  0  0  0
   28.7130    4.1116    5.1374 O   0  0  0  0  0  0  0  0  0  0  0  0
   27.1127    5.8204    5.6441 C   0  0  1  0  0  0  0  0  0  0  0  0
   26.3138    4.7422    5.2157 O   0  0  0  0  0  0  0  0  0  0  0  0
   26.8463    6.1189    7.1095 C   0  0  2  0  0  0  0  0  0  0  0  0
   31.6599    1.1314    8.1372 O   0  0  0  0  0  0  0  0  0  0  0  0
   27.0749   11.2336    5.9458 N   0  0  0  0  0  0  0  0  0  0  0  0
   27.9666   10.2403    5.5942 C   0  0  0  0  0  0  0  0  0  0  0  0
   27.7462    8.9361    5.9907 N   0  0  0  0  0  0  0  0  0  0  0  0
   26.6542    8.6210    6.7291 C   0  0  0  0  0  0  0  0  0  0  0  0
   25.7462    9.6060    7.0931 C   0  0  0  0  0  0  0  0  0  0  0  0
   25.9602   10.9208    6.6973 C   0  0  0  0  0  0  0  0  0  0  0  0
   25.0977   11.8727    7.0409 N   0  0  0  0  0  0  0  0  0  0  0  0
   24.7661    9.0215    7.8155 N   0  0  0  0  0  0  0  0  0  0  0  0
   25.0301    7.6986    7.9172 C   0  0  0  0  0  0  0  0  0  0  0  0
   26.1977    7.4351    7.2485 N   0  0  0  0  0  0  0  0  0  0  0  0
  2  1  1  6  0  0  0
  2  3  1  0  0  0  0
  2  5  1  0  0  0  0
  3  4  1  0  0  0  0
  3 16  1  0  0  0  0
  5  6  1  0  0  0  0
  6  7  1  0  0  0  0
  7  8  1  0  0  0  0
  9  8  1  6  0  0  0
  9 10  1  0  0  0  0
  9 11  1  0  0  0  0
 10 15  1  0  0  0  0
 11 12  1  1  0  0  0
 11 13  1  0  0  0  0
 13 14  1  1  0  0  0
 13 15  1  0  0  0  0
 15 26  1  6  0  0  0
 17 18  2  0  0  0  0
 17 22  1  0  0  0  0
 18 19  1  0  0  0  0
 19 20  2  0  0  0  0
 20 21  1  0  0  0  0
 20 26  1  0  0  0  0
 21 22  2  0  0  0  0
 21 24  1  0  0  0  0
 22 23  1  0  0  0  0
 24 25  2  0  0  0  0
 25 26  1  0  0  0  0
M  END
>  <CHROM.1>
-176.80571259,57.46899017,166.15690597,176.21981550,73.48378707,76.23610687
65.51477318,28.87002340,6.27182687,7.27198447,-0.76829962,-0.37805792,0.10854083

>  <Name>
ligand

>  <RI>
0

>  <Rbt.Current_Directory>
/home/itssahil/PROJECTS/Mol_Feturizer/New_Systems/rnas/3NPQ

>  <Rbt.Executable>
rbdock ($Id: //depot/dev/client3/rdock/2013.1/src/exe/rbdock.cxx#4 $)

>  <Rbt.Library>
libRbt.so (2013.1, Build901 2013/11/27)

>  <Rbt.Parameter_File>
/export/apps/rDock/src/rDock_2013.1_src/data/scripts/dock_solv.prm

>  <Rbt.Receptor>
prm/blind_docking_40.prm

>  <SCORE>
-10.0587

>  <SCORE.INTER>
-7.93838

>  <SCORE.INTER.CONST>
1

>  <SCORE.INTER.POLAR>
0

>  <SCORE.INTER.ROT>
7

>  <SCORE.INTER.SOLV>
9.55507

>  <SCORE.INTER.VDW>
-16.7439

>  <SCORE.INTER.norm>
-0.305322

>  <SCORE.INTRA>
-2.12028

>  <SCORE.INTRA.DIHEDRAL>
-2.37471

>  <SCORE.INTRA.DIHEDRAL.0>
6.97628

>  <SCORE.INTRA.POLAR>
0

>  <SCORE.INTRA.POLAR.0>
0

>  <SCORE.INTRA.REPUL>
0

>  <SCORE.INTRA.REPUL.0>
0

>  <SCORE.INTRA.SOLV>
-0.162452

>  <SCORE.INTRA.SOLV.lig_0>
-49.8243

>  <SCORE.INTRA.VDW>
-0.851703

>  <SCORE.INTRA.VDW.0>
-1.35881

>  <SCORE.INTRA.norm>
-0.0815494

>  <SCORE.RESTR>
0

>  <SCORE.RESTR.CAVITY>
0

>  <SCORE.RESTR.norm>
0

>  <SCORE.SYSTEM>
0

>  <SCORE.SYSTEM.CONST>
0

>  <SCORE.SYSTEM.DIHEDRAL>
0

>  <SCORE.SYSTEM.SOLV>
0

>  <SCORE.SYSTEM.norm>
0

>  <SCORE.heavy>
26

>  <SCORE.norm>
-0.386872

>  <RMSD>
15.215

$$$$
ligand
 OpenBabel11021811483D
libRbt.so/2013.1/901 2013/11/27
 26 28  0  0  0  0  0  0  0  0999 V2000
   39.3910   23.2615   19.3994 N   0  0  0  0  0  0  0  0  0  0  0  0
   39.3290   23.1405   17.9481 C   0  0  2  0  0  0  0  0  0  0  0  0
   37.9212   23.4191   17.4340 C   0  0  0  0  0  0  0  0  0  0  0  0
   37.6900   23.4898   16.2276 O   0  0  0  0  0  0  0  0  0  0  0  0
   39.7807   21.7534   17.5085 C   0  0  0  0  0  0  0  0  0  0  0  0
   39.0744   20.6117   18.2276 C   0  0  0  0  0  0  0  0  0  0  0  0
   38.9277   19.1287   17.1993 S   0  0  0  0  0  0  0  0  0  0  0  0
   39.4981   18.1092   18.5826 C   0  0  0  0  0  0  0  0  0  0  0  0
   38.3537   17.4199   19.3166 C   0  0  1  0  0  0  0  0  0  0  0  0
   37.5645   18.3816   19.9928 O   0  0  0  0  0  0  0  0  0  0  0  0
   37.4473   16.6672   18.3564 C   0  0  1  0  0  0  0  0  0  0  0  0
   37.4882   15.2882   18.6376 O   0  0  0  0  0  0  0  0  0  0  0  0
   36.0520   17.2048   18.5974 C   0  0  1  0  0  0  0  0  0  0  0  0
   35.1874   16.1572   18.9705 O   0  0  0  0  0  0  0  0  0  0  0  0
   36.1843   18.2037   19.7343 C   0  0  2  0  0  0  0  0  0  0  0  0
   36.9815   23.5796   18.2138 O   0  0  0  0  0  0  0  0  0  0  0  0
   31.7163   20.8928   19.1241 N   0  0  0  0  0  0  0  0  0  0  0  0
   31.8727   19.5852   19.5377 C   0  0  0  0  0  0  0  0  0  0  0  0
   33.1351   19.0355   19.6424 N   0  0  0  0  0  0  0  0  0  0  0  0
   34.2301   19.7743   19.3387 C   0  0  0  0  0  0  0  0  0  0  0  0
   34.0933   21.0909   18.9205 C   0  0  0  0  0  0  0  0  0  0  0  0
   32.8264   21.6519   18.8133 C   0  0  0  0  0  0  0  0  0  0  0  0
   32.6833   22.9117   18.4129 N   0  0  0  0  0  0  0  0  0  0  0  0
   35.3291   21.5841   18.6888 N   0  0  0  0  0  0  0  0  0  0  0  0
   36.2393   20.6173   18.9483 C   0  0  0  0  0  0  0  0  0  0  0  0
   35.5728   19.4893   19.3524 N   0  0  0  0  0  0  0  0  0  0  0  0
  2  1  1  1  0  0  0
  2  3  1  0  0  0  0
  2  5  1  0  0  0  0
  3  4  1  0  0  0  0
  3 16  1  0  0  0  0
  5  6  1  0  0  0  0
  6  7  1  0  0  0  0
  7  8  1  0  0  0  0
  9  8  1  6  0  0  0
  9 10  1  0  0  0  0
  9 11  1  0  0  0  0
 10 15  1  0  0  0  0
 11 12  1  1  0  0  0
 11 13  1  0  0  0  0
 13 14  1  1  0  0  0
 13 15  1  0  0  0  0
 15 26  1  6  0  0  0
 17 18  2  0  0  0  0
 17 22  1  0  0  0  0
 18 19  1  0  0  0  0
 19 20  2  0  0  0  0
 20 21  1  0  0  0  0
 20 26  1  0  0  0  0
 21 22  2  0  0  0  0
 21 24  1  0  0  0  0
 22 23  1  0  0  0  0
 24 25  2  0  0  0  0
 25 26  1  0  0  0  0
M  END
>  <CHROM.1>
173.15282298,51.56852047,149.84464098,133.52999416,99.80195642,-67.99255257
-163.51698716,36.51473079,20.01977165,18.57447827,0.50131657,0.18619458,-0.14988503

>  <Name>
ligand

>  <RI>
0

>  <Rbt.Current_Directory>
/home/itssahil/PROJECTS/Mol_Feturizer/New_Systems/rnas/3NPQ

>  <Rbt.Executable>
rbdock ($Id: //depot/dev/client3/rdock/2013.1/src/exe/rbdock.cxx#4 $)

>  <Rbt.Library>
libRbt.so (2013.1, Build901 2013/11/27)

>  <Rbt.Parameter_File>
/export/apps/rDock/src/rDock_2013.1_src/data/scripts/dock_solv.prm

>  <Rbt.Receptor>
prm/blind_docking_80.prm

>  <SCORE>
0.663356

>  <SCORE.INTER>
0.503471

>  <SCORE.INTER.CONST>
1

>  <SCORE.INTER.POLAR>
0

>  <SCORE.INTER.ROT>
7

>  <SCORE.INTER.SOLV>
16.7069

>  <SCORE.INTER.VDW>
-13.5

>  <SCORE.INTER.norm>
0.0193643

>  <SCORE.INTRA>
-0.071319

>  <SCORE.INTRA.DIHEDRAL>
2.89366

>  <SCORE.INTRA.DIHEDRAL.0>
6.97628

>  <SCORE.INTRA.POLAR>
0

>  <SCORE.INTRA.POLAR.0>
0

>  <SCORE.INTRA.REPUL>
0

>  <SCORE.INTRA.REPUL.0>
0

>  <SCORE.INTRA.SOLV>
0.225409

>  <SCORE.INTRA.SOLV.lig_0>
-49.8243

>  <SCORE.INTRA.VDW>
-1.63085

>  <SCORE.INTRA.VDW.0>
-1.35881

>  <SCORE.INTRA.norm>
-0.00274304

>  <SCORE.RESTR>
0.231204

>  <SCORE.RESTR.CAVITY>
0.231204

>  <SCORE.RESTR.norm>
0.00889247

>  <SCORE.SYSTEM>
0

>  <SCORE.SYSTEM.CONST>
0

>  <SCORE.SYSTEM.DIHEDRAL>
0

>  <SCORE.SYSTEM.SOLV>
0

>  <SCORE.SYSTEM.norm>
0

>  <SCORE.heavy>
26

>  <SCORE.norm>
0.0255137

>  <RMSD>
15.241

$$$$
ligand
 OpenBabel11021811483D
libRbt.so/2013.1/901 2013/11/27
 26 28  0  0  0  0  0  0  0  0999 V2000
   30.4449   18.0040   18.4556 N   0  0  0  0  0  0  0  0  0  0  0  0
   31.3320   17.8968   19.6071 C   0  0  2  0  0  0  0  0  0  0  0  0
   31.1260   19.0618   20.5686 C   0  0  0  0  0  0  0  0  0  0  0  0
   31.5241   19.0013   21.7313 O   0  0  0  0  0  0  0  0  0  0  0  0
   32.7865   17.8419   19.1571 C   0  0  0  0  0  0  0  0  0  0  0  0
   33.2227   19.0330   18.3141 C   0  0  0  0  0  0  0  0  0  0  0  0
   34.9776   18.9660   17.8732 S   0  0  0  0  0  0  0  0  0  0  0  0
   34.8552   20.6096   17.1236 C   0  0  0  0  0  0  0  0  0  0  0  0
   34.8459   21.7289   18.1582 C   0  0  1  0  0  0  0  0  0  0  0  0
   36.1719   22.1394   18.4380 O   0  0  0  0  0  0  0  0  0  0  0  0
   34.0791   22.9432   17.6605 C   0  0  1  0  0  0  0  0  0  0  0  0
   32.9552   23.1703   18.4775 O   0  0  0  0  0  0  0  0  0  0  0  0
   35.0397   24.1097   17.7632 C   0  0  1  0  0  0  0  0  0  0  0  0
   34.4995   25.1096   18.5954 O   0  0  0  0  0  0  0  0  0  0  0  0
   36.3095   23.5468   18.3783 C   0  0  2  0  0  0  0  0  0  0  0  0
   30.5567   20.0914   20.2047 O   0  0  0  0  0  0  0  0  0  0  0  0
   41.3332   22.5196   17.2494 N   0  0  0  0  0  0  0  0  0  0  0  0
   40.5260   21.8978   18.1807 C   0  0  0  0  0  0  0  0  0  0  0  0
   39.2158   22.3017   18.3451 N   0  0  0  0  0  0  0  0  0  0  0  0
   38.7124   23.3122   17.5952 C   0  0  0  0  0  0  0  0  0  0  0  0
   39.5086   23.9503   16.6539 C   0  0  0  0  0  0  0  0  0  0  0  0
   40.8279   23.5492   16.4816 C   0  0  0  0  0  0  0  0  0  0  0  0
   41.6001   24.1538   15.5836 N   0  0  0  0  0  0  0  0  0  0  0  0
   38.7629   24.9054   16.0574 N   0  0  0  0  0  0  0  0  0  0  0  0
   37.5216   24.8877   16.5953 C   0  0  0  0  0  0  0  0  0  0  0  0
   37.4751   23.9049   17.5502 N   0  0  0  0  0  0  0  0  0  0  0  0
  2  1  1  6  0  0  0
  2  3  1  0  0  0  0
  2  5  1  0  0  0  0
  3  4  1  0  0  0  0
  3 16  1  0  0  0  0
  5  6  1  0  0  0  0
  6  7  1  0  0  0  0
  7  8  1  0  0  0  0
  9  8  1  6  0  0  0
  9 10  1  0  0  0  0
  9 11  1  0  0  0  0
 10 15  1  0  0  0  0
 11 12  1  1  0  0  0
 11 13  1  0  0  0  0
 13 14  1  1  0  0  0
 13 15  1  0  0  0  0
 15 26  1  6  0  0  0
 17 18  2  0  0  0  0
 17 22  1  0  0  0  0
 18 19  1  0  0  0  0
 19 20  2  0  0  0  0
 20 21  1  0  0  0  0
 20 26  1  0  0  0  0
 21 22  2  0  0  0  0
 21 24  1  0  0  0  0
 22 23  1  0  0  0  0
 24 25  2  0  0  0  0
 25 26  1  0  0  0  0
M  END
>  <CHROM.1>
162.24888694,57.15221142,177.11064757,-174.33093888,77.53800946,89.09612931
-44.12378860,35.61558363,21.70013388,18.14402463,-2.59616615,0.26215332,-0.10788615

>  <Name>
ligand

>  <RI>
0

>  <Rbt.Current_Directory>
/home/itssahil/PROJECTS/Mol_Feturizer/New_Systems/rnas/3NPQ

>  <Rbt.Executable>
rbdock ($Id: //depot/dev/client3/rdock/2013.1/src/exe/rbdock.cxx#4 $)

>  <Rbt.Library>
libRbt.so (2013.1, Build901 2013/11/27)

>  <Rbt.Parameter_File>
/export/apps/rDock/src/rDock_2013.1_src/data/scripts/dock_solv.prm

>  <Rbt.Receptor>
prm/blind_docking_100.prm

>  <SCORE>
-6.30065

>  <SCORE.INTER>
-5.3871

>  <SCORE.INTER.CONST>
1

>  <SCORE.INTER.POLAR>
0

>  <SCORE.INTER.ROT>
7

>  <SCORE.INTER.SOLV>
5.19619

>  <SCORE.INTER.VDW>
-13.5901

>  <SCORE.INTER.norm>
-0.207196

>  <SCORE.INTRA>
-0.926368

>  <SCORE.INTRA.DIHEDRAL>
-1.19846

>  <SCORE.INTRA.DIHEDRAL.0>
6.97628

>  <SCORE.INTRA.POLAR>
0

>  <SCORE.INTRA.POLAR.0>
0

>  <SCORE.INTRA.REPUL>
0

>  <SCORE.INTRA.REPUL.0>
0

>  <SCORE.INTRA.SOLV>
-0.159972

>  <SCORE.INTRA.SOLV.lig_0>
-49.8243

>  <SCORE.INTRA.VDW>
-0.247151

>  <SCORE.INTRA.VDW.0>
-1.35881

>  <SCORE.INTRA.norm>
-0.0356296

>  <SCORE.RESTR>
0.0128144

>  <SCORE.RESTR.CAVITY>
0.0128144

>  <SCORE.RESTR.norm>
0.000492862

>  <SCORE.SYSTEM>
0

>  <SCORE.SYSTEM.CONST>
0

>  <SCORE.SYSTEM.DIHEDRAL>
0

>  <SCORE.SYSTEM.SOLV>
0

>  <SCORE.SYSTEM.norm>
0

>  <SCORE.heavy>
26

>  <SCORE.norm>
-0.242333

>  <RMSD>
15.248

$$$$
ligand
 OpenBabel11021811483D
libRbt.so/2013.1/901 2013/11/27
 26 28  0  0  0  0  0  0  0  0999 V2000
   36.7084   20.8368   21.4060 N   0  0  0  0  0  0  0  0  0  0  0  0
   35.6551   21.5997   20.7479 C   0  0  2  0  0  0  0  0  0  0  0  0
   35.8776   23.0986   20.9143 C   0  0  0  0  0  0  0  0  0  0  0  0
   36.5591   23.5389   21.8393 O   0  0  0  0  0  0  0  0  0  0  0  0
   34.2895   21.2099   21.2996 C   0  0  0  0  0  0  0  0  0  0  0  0
   33.8585   19.7915   20.9499 C   0  0  0  0  0  0  0  0  0  0  0  0
   33.3405   19.6294   19.2225 S   0  0  0  0  0  0  0  0  0  0  0  0
   33.5718   17.8363   19.3181 C   0  0  0  0  0  0  0  0  0  0  0  0
   34.9955   17.4079   18.9820 C   0  0  1  0  0  0  0  0  0  0  0  0
   35.5054   18.2079   17.9308 O   0  0  0  0  0  0  0  0  0  0  0  0
   35.9226   17.5642   20.1764 C   0  0  1  0  0  0  0  0  0  0  0  0
   36.4164   16.3057   20.5696 O   0  0  0  0  0  0  0  0  0  0  0  0
   37.0612   18.4441   19.7038 C   0  0  1  0  0  0  0  0  0  0  0  0
   38.2888   17.7701   19.8557 O   0  0  0  0  0  0  0  0  0  0  0  0
   36.7917   18.7150   18.2336 C   0  0  2  0  0  0  0  0  0  0  0  0
   35.3811   23.9047   20.1266 O   0  0  0  0  0  0  0  0  0  0  0  0
   39.8052   23.0082   17.9986 N   0  0  0  0  0  0  0  0  0  0  0  0
   40.1837   21.7192   18.3159 C   0  0  0  0  0  0  0  0  0  0  0  0
   39.2486   20.7033   18.3286 N   0  0  0  0  0  0  0  0  0  0  0  0
   37.9520   20.9634   18.0313 C   0  0  0  0  0  0  0  0  0  0  0  0
   37.5518   22.2533   17.7102 C   0  0  0  0  0  0  0  0  0  0  0  0
   38.4869   23.2812   17.6943 C   0  0  0  0  0  0  0  0  0  0  0  0
   38.1147   24.5207   17.3892 N   0  0  0  0  0  0  0  0  0  0  0  0
   36.2247   22.2268   17.4608 N   0  0  0  0  0  0  0  0  0  0  0  0
   35.7779   20.9593   17.6154 C   0  0  0  0  0  0  0  0  0  0  0  0
   36.8376   20.1644   17.9691 N   0  0  0  0  0  0  0  0  0  0  0  0
  2  1  1  1  0  0  0
  2  3  1  0  0  0  0
  2  5  1  0  0  0  0
  3  4  1  0  0  0  0
  3 16  1  0  0  0  0
  5  6  1  0  0  0  0
  6  7  1  0  0  0  0
  7  8  1  0  0  0  0
  9  8  1  1  0  0  0
  9 10  1  0  0  0  0
  9 11  1  0  0  0  0
 10 15  1  0  0  0  0
 11 12  1  6  0  0  0
 11 13  1  0  0  0  0
 13 14  1  6  0  0  0
 13 15  1  0  0  0  0
 15 26  1  1  0  0  0
 17 18  2  0  0  0  0
 17 22  1  0  0  0  0
 18 19  1  0  0  0  0
 19 20  2  0  0  0  0
 20 21  1  0  0  0  0
 20 26  1  0  0  0  0
 21 22  2  0  0  0  0
 21 24  1  0  0  0  0
 22 23  1  0  0  0  0
 24 25  2  0  0  0  0
 25 26  1  0  0  0  0
M  END
>  <CHROM.1>
-22.76027390,-67.84037284,-74.67213337,161.01630270,-87.98974462,-37.86782508
-173.63206658,36.36738113,20.51630526,19.26755118,0.94740725,0.49201960,0.10233470

>  <Name>
ligand

>  <RI>
0

>  <Rbt.Current_Directory>
/home/itssahil/PROJECTS/Mol_Feturizer/New_Systems/rnas/3NPQ

>  <Rbt.Executable>
rbdock ($Id: //depot/dev/client3/rdock/2013.1/src/exe/rbdock.cxx#4 $)

>  <Rbt.Library>
libRbt.so (2013.1, Build901 2013/11/27)

>  <Rbt.Parameter_File>
/export/apps/rDock/src/rDock_2013.1_src/data/scripts/dock_solv.prm

>  <Rbt.Receptor>
prm/blind_docking_80.prm

>  <SCORE>
-9.39075

>  <SCORE.INTER>
-6.82647

>  <SCORE.INTER.CONST>
1

>  <SCORE.INTER.POLAR>
0

>  <SCORE.INTER.ROT>
7

>  <SCORE.INTER.SOLV>
7.63147

>  <SCORE.INTER.VDW>
-15.3615

>  <SCORE.INTER.norm>
-0.262556

>  <SCORE.INTRA>
-2.56748

>  <SCORE.INTRA.DIHEDRAL>
-0.0736469

>  <SCORE.INTRA.DIHEDRAL.0>
6.97628

>  <SCORE.INTRA.POLAR>
0

>  <SCORE.INTRA.POLAR.0>
0

>  <SCORE.INTRA.REPUL>
0

>  <SCORE.INTRA.REPUL.0>
0

>  <SCORE.INTRA.SOLV>
4.01722

>  <SCORE.INTRA.SOLV.lig_0>
-49.8243

>  <SCORE.INTRA.VDW>
-4.53927

>  <SCORE.INTRA.VDW.0>
-1.35881

>  <SCORE.INTRA.norm>
-0.0987492

>  <SCORE.RESTR>
0.0031924

>  <SCORE.RESTR.CAVITY>
0.0031924

>  <SCORE.RESTR.norm>
0.000122785

>  <SCORE.SYSTEM>
0

>  <SCORE.SYSTEM.CONST>
0

>  <SCORE.SYSTEM.DIHEDRAL>
0

>  <SCORE.SYSTEM.SOLV>
0

>  <SCORE.SYSTEM.norm>
0

>  <SCORE.heavy>
26

>  <SCORE.norm>
-0.361183

>  <RMSD>
15.255

$$$$
ligand
 OpenBabel11021811483D
libRbt.so/2013.1/901 2013/11/27
 26 28  0  0  0  0  0  0  0  0999 V2000
   32.6613   20.1994   17.3990 N   0  0  0  0  0  0  0  0  0  0  0  0
   31.7165   19.3402   18.1015 C   0  0  2  0  0  0  0  0  0  0  0  0
   30.3438   19.9965   18.1964 C   0  0  0  0  0  0  0  0  0  0  0  0
   30.1460   20.9442   18.9558 O   0  0  0  0  0  0  0  0  0  0  0  0
   32.2332   19.0061   19.4952 C   0  0  0  0  0  0  0  0  0  0  0  0
   32.5504   20.2258   20.3505 C   0  0  0  0  0  0  0  0  0  0  0  0
   33.2694   19.7826   21.9521 S   0  0  0  0  0  0  0  0  0  0  0  0
   34.8955   20.3347   21.3783 C   0  0  0  0  0  0  0  0  0  0  0  0
   35.5001   19.4007   20.3364 C   0  0  1  0  0  0  0  0  0  0  0  0
   35.0353   19.7511   19.0456 O   0  0  0  0  0  0  0  0  0  0  0  0
   37.0176   19.4867   20.3229 C   0  0  1  0  0  0  0  0  0  0  0  0
   37.5728   18.2464   20.6915 O   0  0  0  0  0  0  0  0  0  0  0  0
   37.4001   19.8233   18.8965 C   0  0  1  0  0  0  0  0  0  0  0  0
   38.2518   18.8291   18.3764 O   0  0  0  0  0  0  0  0  0  0  0  0
   36.0973   19.8566   18.1159 C   0  0  2  0  0  0  0  0  0  0  0  0
   29.4001   19.5943   17.5149 O   0  0  0  0  0  0  0  0  0  0  0  0
   37.8116   24.7955   17.6308 N   0  0  0  0  0  0  0  0  0  0  0  0
   38.2044   23.8451   18.5516 C   0  0  0  0  0  0  0  0  0  0  0  0
   37.6418   22.5841   18.5320 N   0  0  0  0  0  0  0  0  0  0  0  0
   36.6990   22.2700   17.6104 C   0  0  0  0  0  0  0  0  0  0  0  0
   36.2904   23.2124   16.6765 C   0  0  0  0  0  0  0  0  0  0  0  0
   36.8523   24.4834   16.6888 C   0  0  0  0  0  0  0  0  0  0  0  0
   36.4679   25.3944   15.7997 N   0  0  0  0  0  0  0  0  0  0  0  0
   35.3541   22.6393   15.8898 N   0  0  0  0  0  0  0  0  0  0  0  0
   35.1612   21.3648   16.3006 C   0  0  0  0  0  0  0  0  0  0  0  0
   35.9882   21.1213   17.3668 N   0  0  0  0  0  0  0  0  0  0  0  0
  2  1  1  1  0  0  0
  2  3  1  0  0  0  0
  2  5  1  0  0  0  0
  3  4  1  0  0  0  0
  3 16  1  0  0  0  0
  5  6  1  0  0  0  0
  6  7  1  0  0  0  0
  7  8  1  0  0  0  0
  9  8  1  1  0  0  0
  9 10  1  0  0  0  0
  9 11  1  0  0  0  0
 10 15  1  0  0  0  0
 11 12  1  6  0  0  0
 11 13  1  0  0  0  0
 13 14  1  6  0  0  0
 13 15  1  0  0  0  0
 15 26  1  1  0  0  0
 17 18  2  0  0  0  0
 17 22  1  0  0  0  0
 18 19  1  0  0  0  0
 19 20  2  0  0  0  0
 20 21  1  0  0  0  0
 20 26  1  0  0  0  0
 21 22  2  0  0  0  0
 21 24  1  0  0  0  0
 22 23  1  0  0  0  0
 24 25  2  0  0  0  0
 25 26  1  0  0  0  0
M  END
>  <CHROM.1>
-72.71901593,55.87156926,-175.97523447,105.87199608,-71.16588938,85.88318982
100.06092787,34.88699023,20.89030817,18.67513408,2.55968911,0.14701965,2.37786458

>  <Name>
ligand

>  <RI>
0

>  <Rbt.Current_Directory>
/home/itssahil/PROJECTS/Mol_Feturizer/New_Systems/rnas/3NPQ

>  <Rbt.Executable>
rbdock ($Id: //depot/dev/client3/rdock/2013.1/src/exe/rbdock.cxx#4 $)

>  <Rbt.Library>
libRbt.so (2013.1, Build901 2013/11/27)

>  <Rbt.Parameter_File>
/export/apps/rDock/src/rDock_2013.1_src/data/scripts/dock_solv.prm

>  <Rbt.Receptor>
prm/blind_docking_100.prm

>  <SCORE>
-7.13073

>  <SCORE.INTER>
-8.76032

>  <SCORE.INTER.CONST>
1

>  <SCORE.INTER.POLAR>
0

>  <SCORE.INTER.ROT>
7

>  <SCORE.INTER.SOLV>
9.404

>  <SCORE.INTER.VDW>
-17.2415

>  <SCORE.INTER.norm>
-0.336935

>  <SCORE.INTRA>
1.6296

>  <SCORE.INTRA.DIHEDRAL>
0.191

>  <SCORE.INTRA.DIHEDRAL.0>
6.97628

>  <SCORE.INTRA.POLAR>
0

>  <SCORE.INTRA.POLAR.0>
0

>  <SCORE.INTRA.REPUL>
0

>  <SCORE.INTRA.REPUL.0>
0

>  <SCORE.INTRA.SOLV>
2.95464

>  <SCORE.INTRA.SOLV.lig_0>
-49.8243

>  <SCORE.INTRA.VDW>
0.0567736

>  <SCORE.INTRA.VDW.0>
-1.35881

>  <SCORE.INTRA.norm>
0.0626767

>  <SCORE.RESTR>
0

>  <SCORE.RESTR.CAVITY>
0

>  <SCORE.RESTR.norm>
0

>  <SCORE.SYSTEM>
0

>  <SCORE.SYSTEM.CONST>
0

>  <SCORE.SYSTEM.DIHEDRAL>
0

>  <SCORE.SYSTEM.SOLV>
0

>  <SCORE.SYSTEM.norm>
0

>  <SCORE.heavy>
26

>  <SCORE.norm>
-0.274259

>  <RMSD>
15.261

$$$$
ligand
 OpenBabel11021811483D
libRbt.so/2013.1/901 2013/11/27
 26 28  0  0  0  0  0  0  0  0999 V2000
   37.3514   24.8732   18.5821 N   0  0  0  0  0  0  0  0  0  0  0  0
   37.2571   24.3015   19.9196 C   0  0  2  0  0  0  0  0  0  0  0  0
   38.6061   23.7628   20.3822 C   0  0  0  0  0  0  0  0  0  0  0  0
   38.9253   23.7903   21.5702 O   0  0  0  0  0  0  0  0  0  0  0  0
   36.2124   23.1931   19.9538 C   0  0  0  0  0  0  0  0  0  0  0  0
   35.8935   22.6813   21.3524 C   0  0  0  0  0  0  0  0  0  0  0  0
   35.0835   21.0621   21.3311 S   0  0  0  0  0  0  0  0  0  0  0  0
   36.6614   20.2642   21.7209 C   0  0  0  0  0  0  0  0  0  0  0  0
   37.2136   19.4517   20.5555 C   0  0  1  0  0  0  0  0  0  0  0  0
   36.3034   18.4240   20.2087 O   0  0  0  0  0  0  0  0  0  0  0  0
   37.4291   20.3164   19.3242 C   0  0  1  0  0  0  0  0  0  0  0  0
   38.7976   20.3523   18.9952 O   0  0  0  0  0  0  0  0  0  0  0  0
   36.6448   19.6535   18.2109 C   0  0  1  0  0  0  0  0  0  0  0  0
   37.5033   19.3241   17.1438 O   0  0  0  0  0  0  0  0  0  0  0  0
   36.0543   18.3913   18.8158 C   0  0  2  0  0  0  0  0  0  0  0  0
   39.4085   23.2868   19.5782 O   0  0  0  0  0  0  0  0  0  0  0  0
   31.9661   20.6489   16.4165 N   0  0  0  0  0  0  0  0  0  0  0  0
   33.2877   21.0470   16.4010 C   0  0  0  0  0  0  0  0  0  0  0  0
   34.2389   20.3264   17.0959 N   0  0  0  0  0  0  0  0  0  0  0  0
   33.8827   19.2242   17.7997 C   0  0  0  0  0  0  0  0  0  0  0  0
   32.5585   18.8083   17.8279 C   0  0  0  0  0  0  0  0  0  0  0  0
   31.5953   19.5274   17.1304 C   0  0  0  0  0  0  0  0  0  0  0  0
   30.3238   19.1389   17.1510 N   0  0  0  0  0  0  0  0  0  0  0  0
   32.4876   17.6979   18.5934 N   0  0  0  0  0  0  0  0  0  0  0  0
   33.7272   17.4027   19.0479 C   0  0  0  0  0  0  0  0  0  0  0  0
   34.6029   18.3403   18.5640 N   0  0  0  0  0  0  0  0  0  0  0  0
  2  1  1  6  0  0  0
  2  3  1  0  0  0  0
  2  5  1  0  0  0  0
  3  4  1  0  0  0  0
  3 16  1  0  0  0  0
  5  6  1  0  0  0  0
  6  7  1  0  0  0  0
  7  8  1  0  0  0  0
  9  8  1  1  0  0  0
  9 10  1  0  0  0  0
  9 11  1  0  0  0  0
 10 15  1  0  0  0  0
 11 12  1  6  0  0  0
 11 13  1  0  0  0  0
 13 14  1  6  0  0  0
 13 15  1  0  0  0  0
 15 26  1  1  0  0  0
 17 18  2  0  0  0  0
 17 22  1  0  0  0  0
 18 19  1  0  0  0  0
 19 20  2  0  0  0  0
 20 21  1  0  0  0  0
 20 26  1  0  0  0  0
 21 22  2  0  0  0  0
 21 24  1  0  0  0  0
 22 23  1  0  0  0  0
 24 25  2  0  0  0  0
 25 26  1  0  0  0  0
M  END
>  <CHROM.1>
147.57252728,-171.20264895,-161.72175696,100.14348386,-110.49378444,-60.66337246
123.93850088,35.62035292,20.64515859,19.13743443,0.54116138,-0.51085214,-0.09040389

>  <Name>
ligand

>  <RI>
0

>  <Rbt.Current_Directory>
/home/itssahil/PROJECTS/Mol_Feturizer/New_Systems/rnas/3NPQ

>  <Rbt.Executable>
rbdock ($Id: //depot/dev/client3/rdock/2013.1/src/exe/rbdock.cxx#4 $)

>  <Rbt.Library>
libRbt.so (2013.1, Build901 2013/11/27)

>  <Rbt.Parameter_File>
/export/apps/rDock/src/rDock_2013.1_src/data/scripts/dock_solv.prm

>  <Rbt.Receptor>
prm/blind_docking_100.prm

>  <SCORE>
-12.1649

>  <SCORE.INTER>
-10.6625

>  <SCORE.INTER.CONST>
1

>  <SCORE.INTER.POLAR>
0

>  <SCORE.INTER.ROT>
7

>  <SCORE.INTER.SOLV>
8.55371

>  <SCORE.INTER.VDW>
-18.2262

>  <SCORE.INTER.norm>
-0.410095

>  <SCORE.INTRA>
-1.50241

>  <SCORE.INTRA.DIHEDRAL>
1.21457

>  <SCORE.INTRA.DIHEDRAL.0>
6.97628

>  <SCORE.INTRA.POLAR>
0

>  <SCORE.INTRA.POLAR.0>
0

>  <SCORE.INTRA.REPUL>
0

>  <SCORE.INTRA.REPUL.0>
0

>  <SCORE.INTRA.SOLV>
-0.232696

>  <SCORE.INTRA.SOLV.lig_0>
-49.8243

>  <SCORE.INTRA.VDW>
-1.99334

>  <SCORE.INTRA.VDW.0>
-1.35881

>  <SCORE.INTRA.norm>
-0.0577849

>  <SCORE.RESTR>
0

>  <SCORE.RESTR.CAVITY>
0

>  <SCORE.RESTR.norm>
0

>  <SCORE.SYSTEM>
0

>  <SCORE.SYSTEM.CONST>
0

>  <SCORE.SYSTEM.DIHEDRAL>
0

>  <SCORE.SYSTEM.SOLV>
0

>  <SCORE.SYSTEM.norm>
0

>  <SCORE.heavy>
26

>  <SCORE.norm>
-0.46788

>  <RMSD>
15.269

$$$$
ligand
 OpenBabel11021811483D
libRbt.so/2013.1/901 2013/11/27
 26 28  0  0  0  0  0  0  0  0999 V2000
   30.7262   19.6456   18.8011 N   0  0  0  0  0  0  0  0  0  0  0  0
   31.8974   19.3468   17.9866 C   0  0  2  0  0  0  0  0  0  0  0  0
   31.7878   19.9930   16.6103 C   0  0  0  0  0  0  0  0  0  0  0  0
   30.7835   19.8390   15.9164 O   0  0  0  0  0  0  0  0  0  0  0  0
   32.0781   17.8408   17.8437 C   0  0  0  0  0  0  0  0  0  0  0  0
   32.9505   17.2133   18.9229 C   0  0  0  0  0  0  0  0  0  0  0  0
   34.6128   16.8137   18.3265 S   0  0  0  0  0  0  0  0  0  0  0  0
   35.0462   18.5716   18.3474 C   0  0  0  0  0  0  0  0  0  0  0  0
   35.4831   19.0535   19.7259 C   0  0  1  0  0  0  0  0  0  0  0  0
   36.7206   19.7348   19.6298 O   0  0  0  0  0  0  0  0  0  0  0  0
   34.4702   20.0131   20.3290 C   0  0  1  0  0  0  0  0  0  0  0  0
   33.9221   19.4592   21.5016 O   0  0  0  0  0  0  0  0  0  0  0  0
   35.2416   21.2734   20.6616 C   0  0  1  0  0  0  0  0  0  0  0  0
   35.1322   21.5590   22.0367 O   0  0  0  0  0  0  0  0  0  0  0  0
   36.6880   20.9801   20.3018 C   0  0  2  0  0  0  0  0  0  0  0  0
   32.7016   20.6852   16.1600 O   0  0  0  0  0  0  0  0  0  0  0  0
   36.2512   23.4334   15.6804 N   0  0  0  0  0  0  0  0  0  0  0  0
   35.4901   22.3883   16.1642 C   0  0  0  0  0  0  0  0  0  0  0  0
   35.7478   21.8614   17.4143 N   0  0  0  0  0  0  0  0  0  0  0  0
   36.7502   22.3644   18.1753 C   0  0  0  0  0  0  0  0  0  0  0  0
   37.5270   23.4148   17.7059 C   0  0  0  0  0  0  0  0  0  0  0  0
   37.2736   23.9514   16.4493 C   0  0  0  0  0  0  0  0  0  0  0  0
   38.0118   24.9571   15.9890 N   0  0  0  0  0  0  0  0  0  0  0  0
   38.4397   23.7137   18.6555 N   0  0  0  0  0  0  0  0  0  0  0  0
   38.2608   22.8828   19.7080 C   0  0  0  0  0  0  0  0  0  0  0  0
   37.2166   22.0404   19.4250 N   0  0  0  0  0  0  0  0  0  0  0  0
  2  1  1  1  0  0  0
  2  3  1  0  0  0  0
  2  5  1  0  0  0  0
  3  4  1  0  0  0  0
  3 16  1  0  0  0  0
  5  6  1  0  0  0  0
  6  7  1  0  0  0  0
  7  8  1  0  0  0  0
  9  8  1  6  0  0  0
  9 10  1  0  0  0  0
  9 11  1  0  0  0  0
 10 15  1  0  0  0  0
 11 12  1  1  0  0  0
 11 13  1  0  0  0  0
 13 14  1  1  0  0  0
 13 15  1  0  0  0  0
 15 26  1  6  0  0  0
 17 18  2  0  0  0  0
 17 22  1  0  0  0  0
 18 19  1  0  0  0  0
 19 20  2  0  0  0  0
 20 21  1  0  0  0  0
 20 26  1  0  0  0  0
 21 22  2  0  0  0  0
 21 24  1  0  0  0  0
 22 23  1  0  0  0  0
 24 25  2  0  0  0  0
 25 26  1  0  0  0  0
M  END
>  <CHROM.1>
-51.27937182,-90.37482457,-103.80639699,73.94925114,83.45207212,128.83981846
56.53845785,34.96131916,20.63110712,18.42751150,2.64737939,0.64940961,2.22137695

>  <Name>
ligand

>  <RI>
0

>  <Rbt.Current_Directory>
/home/itssahil/PROJECTS/Mol_Feturizer/New_Systems/rnas/3NPQ

>  <Rbt.Executable>
rbdock ($Id: //depot/dev/client3/rdock/2013.1/src/exe/rbdock.cxx#4 $)

>  <Rbt.Library>
libRbt.so (2013.1, Build901 2013/11/27)

>  <Rbt.Parameter_File>
/export/apps/rDock/src/rDock_2013.1_src/data/scripts/dock_solv.prm

>  <Rbt.Receptor>
prm/blind_docking_60.prm

>  <SCORE>
-2.84204

>  <SCORE.INTER>
-5.38866

>  <SCORE.INTER.CONST>
1

>  <SCORE.INTER.POLAR>
0

>  <SCORE.INTER.ROT>
7

>  <SCORE.INTER.SOLV>
7.44115

>  <SCORE.INTER.VDW>
-14.3395

>  <SCORE.INTER.norm>
-0.207256

>  <SCORE.INTRA>
2.54662

>  <SCORE.INTRA.DIHEDRAL>
9.37868

>  <SCORE.INTRA.DIHEDRAL.0>
6.97628

>  <SCORE.INTRA.POLAR>
0

>  <SCORE.INTRA.POLAR.0>
0

>  <SCORE.INTRA.REPUL>
0

>  <SCORE.INTRA.REPUL.0>
0

>  <SCORE.INTRA.SOLV>
0.563985

>  <SCORE.INTRA.SOLV.lig_0>
-49.8243

>  <SCORE.INTRA.VDW>
-2.42471

>  <SCORE.INTRA.VDW.0>
-1.35881

>  <SCORE.INTRA.norm>
0.097947

>  <SCORE.RESTR>
0

>  <SCORE.RESTR.CAVITY>
0

>  <SCORE.RESTR.norm>
0

>  <SCORE.SYSTEM>
0

>  <SCORE.SYSTEM.CONST>
0

>  <SCORE.SYSTEM.DIHEDRAL>
0

>  <SCORE.SYSTEM.SOLV>
0

>  <SCORE.SYSTEM.norm>
0

>  <SCORE.heavy>
26

>  <SCORE.norm>
-0.109309

>  <RMSD>
15.272

$$$$
ligand
 OpenBabel11021811483D
libRbt.so/2013.1/901 2013/11/27
 26 28  0  0  0  0  0  0  0  0999 V2000
   29.5747   19.6858   17.3280 N   0  0  0  0  0  0  0  0  0  0  0  0
   30.9264   19.7331   17.8713 C   0  0  2  0  0  0  0  0  0  0  0  0
   30.9361   20.3504   19.2651 C   0  0  0  0  0  0  0  0  0  0  0  0
   29.9608   20.9676   19.6913 O   0  0  0  0  0  0  0  0  0  0  0  0
   31.8465   20.5190   16.9455 C   0  0  0  0  0  0  0  0  0  0  0  0
   33.3300   20.3257   17.2313 C   0  0  0  0  0  0  0  0  0  0  0  0
   34.3819   21.3183   16.1420 S   0  0  0  0  0  0  0  0  0  0  0  0
   34.5990   22.5404   17.4602 C   0  0  0  0  0  0  0  0  0  0  0  0
   35.2884   21.9625   18.6907 C   0  0  1  0  0  0  0  0  0  0  0  0
   36.5135   21.3577   18.3189 O   0  0  0  0  0  0  0  0  0  0  0  0
   35.5954   23.0408   19.7170 C   0  0  1  0  0  0  0  0  0  0  0  0
   34.8795   22.7929   20.9038 O   0  0  0  0  0  0  0  0  0  0  0  0
   37.0841   22.9494   19.9802 C   0  0  1  0  0  0  0  0  0  0  0  0
   37.3198   22.7067   21.3477 O   0  0  0  0  0  0  0  0  0  0  0  0
   37.5801   21.7792   19.1483 C   0  0  2  0  0  0  0  0  0  0  0  0
   31.9202   20.2455   19.9983 O   0  0  0  0  0  0  0  0  0  0  0  0
   39.5103   25.4140   15.8879 N   0  0  0  0  0  0  0  0  0  0  0  0
   38.2746   25.3926   16.5028 C   0  0  0  0  0  0  0  0  0  0  0  0
   37.9316   24.3475   17.3375 N   0  0  0  0  0  0  0  0  0  0  0  0
   38.8039   23.3340   17.5585 C   0  0  0  0  0  0  0  0  0  0  0  0
   40.0511   23.3372   16.9488 C   0  0  0  0  0  0  0  0  0  0  0  0
   40.4044   24.3859   16.1081 C   0  0  0  0  0  0  0  0  0  0  0  0
   41.5959   24.3990   15.5180 N   0  0  0  0  0  0  0  0  0  0  0  0
   40.7078   22.2236   17.3395 N   0  0  0  0  0  0  0  0  0  0  0  0
   39.9114   21.5197   18.1764 C   0  0  0  0  0  0  0  0  0  0  0  0
   38.7274   22.1957   18.3219 N   0  0  0  0  0  0  0  0  0  0  0  0
  2  1  1  6  0  0  0
  2  3  1  0  0  0  0
  2  5  1  0  0  0  0
  3  4  1  0  0  0  0
  3 16  1  0  0  0  0
  5  6  1  0  0  0  0
  6  7  1  0  0  0  0
  7  8  1  0  0  0  0
  9  8  1  6  0  0  0
  9 10  1  0  0  0  0
  9 11  1  0  0  0  0
 10 15  1  0  0  0  0
 11 12  1  1  0  0  0
 11 13  1  0  0  0  0
 13 14  1  1  0  0  0
 13 15  1  0  0  0  0
 15 26  1  6  0  0  0
 17 18  2  0  0  0  0
 17 22  1  0  0  0  0
 18 19  1  0  0  0  0
 19 20  2  0  0  0  0
 20 21  1  0  0  0  0
 20 26  1  0  0  0  0
 21 22  2  0  0  0  0
 21 24  1  0  0  0  0
 22 23  1  0  0  0  0
 24 25  2  0  0  0  0
 25 26  1  0  0  0  0
M  END
>  <CHROM.1>
-14.34339179,-165.05324732,-178.17887004,100.42487720,62.11527756,54.17869562
71.67273929,35.87697396,22.17929805,18.03394689,2.98337581,0.36518840,1.59476272

>  <Name>
ligand

>  <RI>
0

>  <Rbt.Current_Directory>
/home/itssahil/PROJECTS/Mol_Feturizer/New_Systems/rnas/3NPQ

>  <Rbt.Executable>
rbdock ($Id: //depot/dev/client3/rdock/2013.1/src/exe/rbdock.cxx#4 $)

>  <Rbt.Library>
libRbt.so (2013.1, Build901 2013/11/27)

>  <Rbt.Parameter_File>
/export/apps/rDock/src/rDock_2013.1_src/data/scripts/dock_solv.prm

>  <Rbt.Receptor>
prm/blind_docking_100.prm

>  <SCORE>
-11.6381

>  <SCORE.INTER>
-9.68995

>  <SCORE.INTER.CONST>
1

>  <SCORE.INTER.POLAR>
0

>  <SCORE.INTER.ROT>
7

>  <SCORE.INTER.SOLV>
7.18383

>  <SCORE.INTER.VDW>
-17.1212

>  <SCORE.INTER.norm>
-0.37269

>  <SCORE.INTRA>
-1.94818

>  <SCORE.INTRA.DIHEDRAL>
-1.51585

>  <SCORE.INTRA.DIHEDRAL.0>
6.97628

>  <SCORE.INTRA.POLAR>
0

>  <SCORE.INTRA.POLAR.0>
0

>  <SCORE.INTRA.REPUL>
0

>  <SCORE.INTRA.REPUL.0>
0

>  <SCORE.INTRA.SOLV>
-0.784285

>  <SCORE.INTRA.SOLV.lig_0>
-49.8243

>  <SCORE.INTRA.VDW>
-0.798116

>  <SCORE.INTRA.VDW.0>
-1.35881

>  <SCORE.INTRA.norm>
-0.0749302

>  <SCORE.RESTR>
0

>  <SCORE.RESTR.CAVITY>
0

>  <SCORE.RESTR.norm>
0

>  <SCORE.SYSTEM>
0

>  <SCORE.SYSTEM.CONST>
0

>  <SCORE.SYSTEM.DIHEDRAL>
0

>  <SCORE.SYSTEM.SOLV>
0

>  <SCORE.SYSTEM.norm>
0

>  <SCORE.heavy>
26

>  <SCORE.norm>
-0.447621

>  <RMSD>
15.274

$$$$
ligand
 OpenBabel11021811483D
libRbt.so/2013.1/901 2013/11/27
 26 28  0  0  0  0  0  0  0  0999 V2000
   29.6123   18.3666   20.7142 N   0  0  0  0  0  0  0  0  0  0  0  0
   30.8836   18.7610   20.1203 C   0  0  2  0  0  0  0  0  0  0  0  0
   32.0333   18.5590   21.1008 C   0  0  0  0  0  0  0  0  0  0  0  0
   33.0325   17.9159   20.7813 O   0  0  0  0  0  0  0  0  0  0  0  0
   30.8329   20.2147   19.6672 C   0  0  0  0  0  0  0  0  0  0  0  0
   32.1181   20.7092   19.0164 C   0  0  0  0  0  0  0  0  0  0  0  0
   32.5492   19.7701   17.5296 S   0  0  0  0  0  0  0  0  0  0  0  0
   34.2229   20.4591   17.5760 C   0  0  0  0  0  0  0  0  0  0  0  0
   35.0826   19.8433   18.6737 C   0  0  1  0  0  0  0  0  0  0  0  0
   36.4027   19.6469   18.2006 O   0  0  0  0  0  0  0  0  0  0  0  0
   35.1564   20.7432   19.8964 C   0  0  1  0  0  0  0  0  0  0  0  0
   34.5722   20.0989   21.0036 O   0  0  0  0  0  0  0  0  0  0  0  0
   36.6313   20.9762   20.1500 C   0  0  1  0  0  0  0  0  0  0  0  0
   36.9748   20.5388   21.4443 O   0  0  0  0  0  0  0  0  0  0  0  0
   37.3657   20.1513   19.1071 C   0  0  2  0  0  0  0  0  0  0  0  0
   31.9899   19.0350   22.2358 O   0  0  0  0  0  0  0  0  0  0  0  0
   38.0581   24.2594   15.9115 N   0  0  0  0  0  0  0  0  0  0  0  0
   36.8702   23.7449   16.3908 C   0  0  0  0  0  0  0  0  0  0  0  0
   36.8760   22.6485   17.2303 N   0  0  0  0  0  0  0  0  0  0  0  0
   38.0470   22.0680   17.5890 C   0  0  0  0  0  0  0  0  0  0  0  0
   39.2520   22.5704   17.1170 C   0  0  0  0  0  0  0  0  0  0  0  0
   39.2549   23.6741   16.2725 C   0  0  0  0  0  0  0  0  0  0  0  0
   40.4029   24.1634   15.8135 N   0  0  0  0  0  0  0  0  0  0  0  0
   40.2467   21.8117   17.6258 N   0  0  0  0  0  0  0  0  0  0  0  0
   39.7040   20.8468   18.4035 C   0  0  0  0  0  0  0  0  0  0  0  0
   38.3408   20.9930   18.3905 N   0  0  0  0  0  0  0  0  0  0  0  0
  2  1  1  1  0  0  0
  2  3  1  0  0  0  0
  2  5  1  0  0  0  0
  3  4  1  0  0  0  0
  3 16  1  0  0  0  0
  5  6  1  0  0  0  0
  6  7  1  0  0  0  0
  7  8  1  0  0  0  0
  9  8  1  6  0  0  0
  9 10  1  0  0  0  0
  9 11  1  0  0  0  0
 10 15  1  0  0  0  0
 11 12  1  1  0  0  0
 11 13  1  0  0  0  0
 13 14  1  1  0  0  0
 13 15  1  0  0  0  0
 15 26  1  6  0  0  0
 17 18  2  0  0  0  0
 17 22  1  0  0  0  0
 18 19  1  0  0  0  0
 19 20  2  0  0  0  0
 20 21  1  0  0  0  0
 20 26  1  0  0  0  0
 21 22  2  0  0  0  0
 21 24  1  0  0  0  0
 22 23  1  0  0  0  0
 24 25  2  0  0  0  0
 25 26  1  0  0  0  0
M  END
>  <CHROM.1>
127.53909824,-179.28691625,60.48086785,-164.97246079,74.39491995,140.46490752
54.37189825,35.40623585,20.75436599,18.78005206,2.57547823,0.18290125,2.13841752

>  <Name>
ligand

>  <RI>
0

>  <Rbt.Current_Directory>
/home/itssahil/PROJECTS/Mol_Feturizer/New_Systems/rnas/3NPQ

>  <Rbt.Executable>
rbdock ($Id: //depot/dev/client3/rdock/2013.1/src/exe/rbdock.cxx#4 $)

>  <Rbt.Library>
libRbt.so (2013.1, Build901 2013/11/27)

>  <Rbt.Parameter_File>
/export/apps/rDock/src/rDock_2013.1_src/data/scripts/dock_solv.prm

>  <Rbt.Receptor>
prm/blind_docking_100.prm

>  <SCORE>
-10.6443

>  <SCORE.INTER>
-8.52063

>  <SCORE.INTER.CONST>
1

>  <SCORE.INTER.POLAR>
0

>  <SCORE.INTER.ROT>
7

>  <SCORE.INTER.SOLV>
7.82552

>  <SCORE.INTER.VDW>
-16.5556

>  <SCORE.INTER.norm>
-0.327717

>  <SCORE.INTRA>
-2.12421

>  <SCORE.INTRA.DIHEDRAL>
0.27027

>  <SCORE.INTRA.DIHEDRAL.0>
6.97628

>  <SCORE.INTRA.POLAR>
0

>  <SCORE.INTRA.POLAR.0>
0

>  <SCORE.INTRA.REPUL>
0

>  <SCORE.INTRA.REPUL.0>
0

>  <SCORE.INTRA.SOLV>
-0.0662435

>  <SCORE.INTRA.SOLV.lig_0>
-49.8243

>  <SCORE.INTRA.VDW>
-2.22622

>  <SCORE.INTRA.VDW.0>
-1.35881

>  <SCORE.INTRA.norm>
-0.0817003

>  <SCORE.RESTR>
0.000584244

>  <SCORE.RESTR.CAVITY>
0.000584244

>  <SCORE.RESTR.norm>
2.24709e-05

>  <SCORE.SYSTEM>
0

>  <SCORE.SYSTEM.CONST>
0

>  <SCORE.SYSTEM.DIHEDRAL>
0

>  <SCORE.SYSTEM.SOLV>
0

>  <SCORE.SYSTEM.norm>
0

>  <SCORE.heavy>
26

>  <SCORE.norm>
-0.409394

>  <RMSD>
15.281

$$$$
ligand
 OpenBabel11021811483D
libRbt.so/2013.1/901 2013/11/27
 26 28  0  0  0  0  0  0  0  0999 V2000
   33.1450    2.2554    7.4348 N   0  0  0  0  0  0  0  0  0  0  0  0
   32.5824    2.0622    6.1041 C   0  0  2  0  0  0  0  0  0  0  0  0
   33.6711    2.0981    5.0377 C   0  0  0  0  0  0  0  0  0  0  0  0
   33.3899    2.0175    3.8425 O   0  0  0  0  0  0  0  0  0  0  0  0
   31.5288    3.1229    5.8110 C   0  0  0  0  0  0  0  0  0  0  0  0
   32.0088    4.5526    6.0236 C   0  0  0  0  0  0  0  0  0  0  0  0
   31.7763    5.1166    7.7284 S   0  0  0  0  0  0  0  0  0  0  0  0
   30.3453    6.0981    7.2119 C   0  0  0  0  0  0  0  0  0  0  0  0
   29.0856    5.2571    7.0411 C   0  0  1  0  0  0  0  0  0  0  0  0
   28.0319    5.8025    7.8139 O   0  0  0  0  0  0  0  0  0  0  0  0
   28.6290    5.2231    5.5917 C   0  0  1  0  0  0  0  0  0  0  0  0
   28.6940    3.9062    5.0979 O   0  0  0  0  0  0  0  0  0  0  0  0
   27.1929    5.7044    5.5990 C   0  0  1  0  0  0  0  0  0  0  0  0
   26.3494    4.7187    5.0502 O   0  0  0  0  0  0  0  0  0  0  0  0
   26.8428    5.9389    7.0584 C   0  0  2  0  0  0  0  0  0  0  0  0
   34.8581    2.2091    5.3466 O   0  0  0  0  0  0  0  0  0  0  0  0
   27.3883   11.0490    5.9830 N   0  0  0  0  0  0  0  0  0  0  0  0
   28.2052   10.0060    5.5954 C   0  0  0  0  0  0  0  0  0  0  0  0
   27.9062    8.7117    5.9726 N   0  0  0  0  0  0  0  0  0  0  0  0
   26.8101    8.4552    6.7273 C   0  0  0  0  0  0  0  0  0  0  0  0
   25.9766    9.4908    7.1275 C   0  0  0  0  0  0  0  0  0  0  0  0
   26.2699   10.7960    6.7513 C   0  0  0  0  0  0  0  0  0  0  0  0
   25.4793   11.7960    7.1296 N   0  0  0  0  0  0  0  0  0  0  0  0
   24.9739    8.9584    7.8590 N   0  0  0  0  0  0  0  0  0  0  0  0
   25.1514    7.6192    7.9314 C   0  0  0  0  0  0  0  0  0  0  0  0
   26.2859    7.2922    7.2344 N   0  0  0  0  0  0  0  0  0  0  0  0
  2  1  1  1  0  0  0
  2  3  1  0  0  0  0
  2  5  1  0  0  0  0
  3  4  1  0  0  0  0
  3 16  1  0  0  0  0
  5  6  1  0  0  0  0
  6  7  1  0  0  0  0
  7  8  1  0  0  0  0
  9  8  1  6  0  0  0
  9 10  1  0  0  0  0
  9 11  1  0  0  0  0
 10 15  1  0  0  0  0
 11 12  1  1  0  0  0
 11 13  1  0  0  0  0
 13 14  1  1  0  0  0
 13 15  1  0  0  0  0
 15 26  1  6  0  0  0
 17 18  2  0  0  0  0
 17 22  1  0  0  0  0
 18 19  1  0  0  0  0
 19 20  2  0  0  0  0
 20 21  1  0  0  0  0
 20 26  1  0  0  0  0
 21 22  2  0  0  0  0
 21 24  1  0  0  0  0
 22 23  1  0  0  0  0
 24 25  2  0  0  0  0
 25 26  1  0  0  0  0
M  END
>  <CHROM.1>
-176.49864532,52.80591961,-87.80789668,-103.73755381,79.25695314,125.98570097
71.26992155,29.15826250,6.00494386,6.42460044,-0.78333916,-0.01543809,0.17766847

>  <Name>
ligand

>  <RI>
0

>  <Rbt.Current_Directory>
/home/itssahil/PROJECTS/Mol_Feturizer/New_Systems/rnas/3NPQ

>  <Rbt.Executable>
rbdock ($Id: //depot/dev/client3/rdock/2013.1/src/exe/rbdock.cxx#4 $)

>  <Rbt.Library>
libRbt.so (2013.1, Build901 2013/11/27)

>  <Rbt.Parameter_File>
/export/apps/rDock/src/rDock_2013.1_src/data/scripts/dock_solv.prm

>  <Rbt.Receptor>
prm/blind_docking_40.prm

>  <SCORE>
-10.6069

>  <SCORE.INTER>
-12.9833

>  <SCORE.INTER.CONST>
1

>  <SCORE.INTER.POLAR>
0

>  <SCORE.INTER.ROT>
7

>  <SCORE.INTER.SOLV>
7.09375

>  <SCORE.INTER.VDW>
-19.2868

>  <SCORE.INTER.norm>
-0.499357

>  <SCORE.INTRA>
2.37636

>  <SCORE.INTRA.DIHEDRAL>
6.05151

>  <SCORE.INTRA.DIHEDRAL.0>
6.97628

>  <SCORE.INTRA.POLAR>
0

>  <SCORE.INTRA.POLAR.0>
0

>  <SCORE.INTRA.REPUL>
0

>  <SCORE.INTRA.REPUL.0>
0

>  <SCORE.INTRA.SOLV>
1.32325

>  <SCORE.INTRA.SOLV.lig_0>
-49.8243

>  <SCORE.INTRA.VDW>
-1.31102

>  <SCORE.INTRA.VDW.0>
-1.35881

>  <SCORE.INTRA.norm>
0.0913985

>  <SCORE.RESTR>
0

>  <SCORE.RESTR.CAVITY>
0

>  <SCORE.RESTR.norm>
0

>  <SCORE.SYSTEM>
0

>  <SCORE.SYSTEM.CONST>
0

>  <SCORE.SYSTEM.DIHEDRAL>
0

>  <SCORE.SYSTEM.SOLV>
0

>  <SCORE.SYSTEM.norm>
0

>  <SCORE.heavy>
26

>  <SCORE.norm>
-0.407959

>  <RMSD>
15.287

$$$$
ligand
 OpenBabel11021811483D
libRbt.so/2013.1/901 2013/11/27
 26 28  0  0  0  0  0  0  0  0999 V2000
   31.8954   17.9953   18.8447 N   0  0  0  0  0  0  0  0  0  0  0  0
   32.0275   18.6418   20.1444 C   0  0  2  0  0  0  0  0  0  0  0  0
   30.6860   19.1812   20.6276 C   0  0  0  0  0  0  0  0  0  0  0  0
   30.0889   20.0520   19.9960 O   0  0  0  0  0  0  0  0  0  0  0  0
   33.0505   19.7688   20.0783 C   0  0  0  0  0  0  0  0  0  0  0  0
   33.5080   20.2748   21.4401 C   0  0  0  0  0  0  0  0  0  0  0  0
   34.7142   21.6191   21.3118 S   0  0  0  0  0  0  0  0  0  0  0  0
   36.0647   20.4314   21.5206 C   0  0  0  0  0  0  0  0  0  0  0  0
   36.1493   19.4291   20.3754 C   0  0  1  0  0  0  0  0  0  0  0  0
   36.3010   20.1130   19.1449 O   0  0  0  0  0  0  0  0  0  0  0  0
   37.3373   18.4950   20.5372 C   0  0  1  0  0  0  0  0  0  0  0  0
   36.8890   17.1696   20.6948 O   0  0  0  0  0  0  0  0  0  0  0  0
   38.1409   18.6227   19.2597 C   0  0  1  0  0  0  0  0  0  0  0  0
   38.2596   17.3657   18.6350 O   0  0  0  0  0  0  0  0  0  0  0  0
   37.3586   19.5758   18.3726 C   0  0  2  0  0  0  0  0  0  0  0  0
   30.1676   18.7579   21.6615 O   0  0  0  0  0  0  0  0  0  0  0  0
   37.6159   24.5021   16.5747 N   0  0  0  0  0  0  0  0  0  0  0  0
   36.4930   23.7873   16.9401 C   0  0  0  0  0  0  0  0  0  0  0  0
   36.6131   22.4894   17.3960 N   0  0  0  0  0  0  0  0  0  0  0  0
   37.8334   21.9065   17.4868 C   0  0  0  0  0  0  0  0  0  0  0  0
   38.9744   22.6089   17.1235 C   0  0  0  0  0  0  0  0  0  0  0  0
   38.8622   23.9158   16.6646 C   0  0  0  0  0  0  0  0  0  0  0  0
   39.9481   24.5979   16.3129 N   0  0  0  0  0  0  0  0  0  0  0  0
   40.0387   21.7991   17.3118 N   0  0  0  0  0  0  0  0  0  0  0  0
   39.6018   20.6083   17.7823 C   0  0  0  0  0  0  0  0  0  0  0  0
   38.2364   20.6598   17.8962 N   0  0  0  0  0  0  0  0  0  0  0  0
  2  1  1  6  0  0  0
  2  3  1  0  0  0  0
  2  5  1  0  0  0  0
  3  4  1  0  0  0  0
  3 16  1  0  0  0  0
  5  6  1  0  0  0  0
  6  7  1  0  0  0  0
  7  8  1  0  0  0  0
  9  8  1  1  0  0  0
  9 10  1  0  0  0  0
  9 11  1  0  0  0  0
 10 15  1  0  0  0  0
 11 12  1  6  0  0  0
 11 13  1  0  0  0  0
 13 14  1  6  0  0  0
 13 15  1  0  0  0  0
 15 26  1  1  0  0  0
 17 18  2  0  0  0  0
 17 22  1  0  0  0  0
 18 19  1  0  0  0  0
 19 20  2  0  0  0  0
 20 21  1  0  0  0  0
 20 26  1  0  0  0  0
 21 22  2  0  0  0  0
 21 24  1  0  0  0  0
 22 23  1  0  0  0  0
 24 25  2  0  0  0  0
 25 26  1  0  0  0  0
M  END
>  <CHROM.1>
-62.20608325,-165.77562816,-179.64277919,-96.75236186,64.39478605,57.26554228
-37.38769164,35.88878600,20.52928134,19.17325432,2.58450168,-0.25965764,2.71681157

>  <Name>
ligand

>  <RI>
0

>  <Rbt.Current_Directory>
/home/itssahil/PROJECTS/Mol_Feturizer/New_Systems/rnas/3NPQ

>  <Rbt.Executable>
rbdock ($Id: //depot/dev/client3/rdock/2013.1/src/exe/rbdock.cxx#4 $)

>  <Rbt.Library>
libRbt.so (2013.1, Build901 2013/11/27)

>  <Rbt.Parameter_File>
/export/apps/rDock/src/rDock_2013.1_src/data/scripts/dock_solv.prm

>  <Rbt.Receptor>
prm/blind_docking_60.prm

>  <SCORE>
-12.2834

>  <SCORE.INTER>
-10.8805

>  <SCORE.INTER.CONST>
1

>  <SCORE.INTER.POLAR>
0

>  <SCORE.INTER.ROT>
7

>  <SCORE.INTER.SOLV>
8.11492

>  <SCORE.INTER.VDW>
-18.2253

>  <SCORE.INTER.norm>
-0.418481

>  <SCORE.INTRA>
-1.40289

>  <SCORE.INTRA.DIHEDRAL>
-1.88076

>  <SCORE.INTRA.DIHEDRAL.0>
6.97628

>  <SCORE.INTRA.POLAR>
0

>  <SCORE.INTRA.POLAR.0>
0

>  <SCORE.INTRA.REPUL>
0

>  <SCORE.INTRA.REPUL.0>
0

>  <SCORE.INTRA.SOLV>
-0.681627

>  <SCORE.INTRA.SOLV.lig_0>
-49.8243

>  <SCORE.INTRA.VDW>
-0.121691

>  <SCORE.INTRA.VDW.0>
-1.35881

>  <SCORE.INTRA.norm>
-0.0539572

>  <SCORE.RESTR>
0

>  <SCORE.RESTR.CAVITY>
0

>  <SCORE.RESTR.norm>
0

>  <SCORE.SYSTEM>
0

>  <SCORE.SYSTEM.CONST>
0

>  <SCORE.SYSTEM.DIHEDRAL>
0

>  <SCORE.SYSTEM.SOLV>
0

>  <SCORE.SYSTEM.norm>
0

>  <SCORE.heavy>
26

>  <SCORE.norm>
-0.472439

>  <RMSD>
15.307

$$$$
ligand
 OpenBabel11021811483D
libRbt.so/2013.1/901 2013/11/27
 26 28  0  0  0  0  0  0  0  0999 V2000
   29.5650   10.8079    4.6732 N   0  0  0  0  0  0  0  0  0  0  0  0
   28.6291   10.4422    5.7291 C   0  0  2  0  0  0  0  0  0  0  0  0
   28.4010    8.9353    5.7623 C   0  0  0  0  0  0  0  0  0  0  0  0
   28.7696    8.2183    4.8328 O   0  0  0  0  0  0  0  0  0  0  0  0
   27.3025   11.1674    5.5413 C   0  0  0  0  0  0  0  0  0  0  0  0
   27.4098   12.6857    5.5961 C   0  0  0  0  0  0  0  0  0  0  0  0
   28.0435   13.2800    7.1846 S   0  0  0  0  0  0  0  0  0  0  0  0
   26.4317   12.9678    7.9480 C   0  0  0  0  0  0  0  0  0  0  0  0
   26.2779   13.6549    9.2999 C   0  0  1  0  0  0  0  0  0  0  0  0
   26.4744   15.0500    9.1580 O   0  0  0  0  0  0  0  0  0  0  0  0
   24.8906   13.4381    9.8820 C   0  0  1  0  0  0  0  0  0  0  0  0
   24.9817   12.7099   11.0835 O   0  0  0  0  0  0  0  0  0  0  0  0
   24.3354   14.8208   10.1538 C   0  0  1  0  0  0  0  0  0  0  0  0
   24.0122   14.9528   11.5185 O   0  0  0  0  0  0  0  0  0  0  0  0
   25.4432   15.7916    9.7824 C   0  0  2  0  0  0  0  0  0  0  0  0
   27.8428    8.3993    6.7204 O   0  0  0  0  0  0  0  0  0  0  0  0
   23.2323   16.7338    5.1142 N   0  0  0  0  0  0  0  0  0  0  0  0
   23.5921   15.5158    5.6550 C   0  0  0  0  0  0  0  0  0  0  0  0
   24.1676   15.4547    6.9088 N   0  0  0  0  0  0  0  0  0  0  0  0
   24.3854   16.5893    7.6174 C   0  0  0  0  0  0  0  0  0  0  0  0
   24.0310   17.8237    7.0904 C   0  0  0  0  0  0  0  0  0  0  0  0
   23.4504   17.8938    5.8297 C   0  0  0  0  0  0  0  0  0  0  0  0
   23.1077   19.0707    5.3145 N   0  0  0  0  0  0  0  0  0  0  0  0
   24.3552   18.7713    7.9965 N   0  0  0  0  0  0  0  0  0  0  0  0
   24.9031   18.1703    9.0777 C   0  0  0  0  0  0  0  0  0  0  0  0
   24.9285   16.8173    8.8573 N   0  0  0  0  0  0  0  0  0  0  0  0
  2  1  1  6  0  0  0
  2  3  1  0  0  0  0
  2  5  1  0  0  0  0
  3  4  1  0  0  0  0
  3 16  1  0  0  0  0
  5  6  1  0  0  0  0
  6  7  1  0  0  0  0
  7  8  1  0  0  0  0
  9  8  1  6  0  0  0
  9 10  1  0  0  0  0
  9 11  1  0  0  0  0
 10 15  1  0  0  0  0
 11 12  1  1  0  0  0
 11 13  1  0  0  0  0
 13 14  1  1  0  0  0
 13 15  1  0  0  0  0
 15 26  1  6  0  0  0
 17 18  2  0  0  0  0
 17 22  1  0  0  0  0
 18 19  1  0  0  0  0
 19 20  2  0  0  0  0
 20 21  1  0  0  0  0
 20 26  1  0  0  0  0
 21 22  2  0  0  0  0
 21 24  1  0  0  0  0
 22 23  1  0  0  0  0
 24 25  2  0  0  0  0
 25 26  1  0  0  0  0
M  END
>  <CHROM.1>
-13.23524135,-61.14788669,-60.63072038,-76.21255376,-164.77779423,57.37724748
58.29411353,25.88653366,14.08516867,7.49217232,-0.00062767,1.05333633,-1.30535017

>  <Name>
ligand

>  <RI>
0

>  <Rbt.Current_Directory>
/home/itssahil/PROJECTS/Mol_Feturizer/New_Systems/rnas/3NPQ

>  <Rbt.Executable>
rbdock ($Id: //depot/dev/client3/rdock/2013.1/src/exe/rbdock.cxx#4 $)

>  <Rbt.Library>
libRbt.so (2013.1, Build901 2013/11/27)

>  <Rbt.Parameter_File>
/export/apps/rDock/src/rDock_2013.1_src/data/scripts/dock_solv.prm

>  <Rbt.Receptor>
prm/blind_docking_60.prm

>  <SCORE>
-7.37964

>  <SCORE.INTER>
-4.60373

>  <SCORE.INTER.CONST>
1

>  <SCORE.INTER.POLAR>
0

>  <SCORE.INTER.ROT>
7

>  <SCORE.INTER.SOLV>
14.8986

>  <SCORE.INTER.VDW>
-16.302

>  <SCORE.INTER.norm>
-0.177066

>  <SCORE.INTRA>
-2.77662

>  <SCORE.INTRA.DIHEDRAL>
-3.50702

>  <SCORE.INTRA.DIHEDRAL.0>
6.97628

>  <SCORE.INTRA.POLAR>
0

>  <SCORE.INTRA.POLAR.0>
0

>  <SCORE.INTRA.REPUL>
0

>  <SCORE.INTRA.REPUL.0>
0

>  <SCORE.INTRA.SOLV>
0.453298

>  <SCORE.INTRA.SOLV.lig_0>
-49.8243

>  <SCORE.INTRA.VDW>
-1.24976

>  <SCORE.INTRA.VDW.0>
-1.35881

>  <SCORE.INTRA.norm>
-0.106793

>  <SCORE.RESTR>
0.000714497

>  <SCORE.RESTR.CAVITY>
0.000714497

>  <SCORE.RESTR.norm>
2.74807e-05

>  <SCORE.SYSTEM>
0

>  <SCORE.SYSTEM.CONST>
0

>  <SCORE.SYSTEM.DIHEDRAL>
0

>  <SCORE.SYSTEM.SOLV>
0

>  <SCORE.SYSTEM.norm>
0

>  <SCORE.heavy>
26

>  <SCORE.norm>
-0.283832

>  <RMSD>
15.330

$$$$
ligand
 OpenBabel11021811483D
libRbt.so/2013.1/901 2013/11/27
 26 28  0  0  0  0  0  0  0  0999 V2000
   39.4716   24.7951   16.3748 N   0  0  0  0  0  0  0  0  0  0  0  0
   38.3265   24.2346   17.0813 C   0  0  2  0  0  0  0  0  0  0  0  0
   38.7620   23.1449   18.0544 C   0  0  0  0  0  0  0  0  0  0  0  0
   38.4573   23.2004   19.2452 O   0  0  0  0  0  0  0  0  0  0  0  0
   37.3103   23.6767   16.0928 C   0  0  0  0  0  0  0  0  0  0  0  0
   35.9189   23.4743   16.6781 C   0  0  0  0  0  0  0  0  0  0  0  0
   35.8724   22.1559   17.9183 S   0  0  0  0  0  0  0  0  0  0  0  0
   34.6112   23.0670   18.8442 C   0  0  0  0  0  0  0  0  0  0  0  0
   34.4224   22.5359   20.2604 C   0  0  1  0  0  0  0  0  0  0  0  0
   34.0299   21.1761   20.2182 O   0  0  0  0  0  0  0  0  0  0  0  0
   35.7086   22.6234   21.0657 C   0  0  1  0  0  0  0  0  0  0  0  0
   35.5354   23.4989   22.1547 O   0  0  0  0  0  0  0  0  0  0  0  0
   35.9795   21.2197   21.5661 C   0  0  1  0  0  0  0  0  0  0  0  0
   36.0429   21.2114   22.9733 O   0  0  0  0  0  0  0  0  0  0  0  0
   34.8080   20.3778   21.0903 C   0  0  2  0  0  0  0  0  0  0  0  0
   39.4287   22.1826   17.6719 O   0  0  0  0  0  0  0  0  0  0  0  0
   38.6921   18.2957   18.2362 N   0  0  0  0  0  0  0  0  0  0  0  0
   38.6094   19.5707   18.7589 C   0  0  0  0  0  0  0  0  0  0  0  0
   37.5028   19.9508   19.4923 N   0  0  0  0  0  0  0  0  0  0  0  0
   36.4889   19.0765   19.7035 C   0  0  0  0  0  0  0  0  0  0  0  0
   36.5534   17.7901   19.1856 C   0  0  0  0  0  0  0  0  0  0  0  0
   37.6639   17.3994   18.4472 C   0  0  0  0  0  0  0  0  0  0  0  0
   37.7361   16.1701   17.9454 N   0  0  0  0  0  0  0  0  0  0  0  0
   35.4245   17.1408   19.5434 N   0  0  0  0  0  0  0  0  0  0  0  0
   34.6517   17.9799   20.2707 C   0  0  0  0  0  0  0  0  0  0  0  0
   35.2985   19.1840   20.3785 N   0  0  0  0  0  0  0  0  0  0  0  0
  2  1  1  6  0  0  0
  2  3  1  0  0  0  0
  2  5  1  0  0  0  0
  3  4  1  0  0  0  0
  3 16  1  0  0  0  0
  5  6  1  0  0  0  0
  6  7  1  0  0  0  0
  7  8  1  0  0  0  0
  9  8  1  6  0  0  0
  9 10  1  0  0  0  0
  9 11  1  0  0  0  0
 10 15  1  0  0  0  0
 11 12  1  1  0  0  0
 11 13  1  0  0  0  0
 13 14  1  1  0  0  0
 13 15  1  0  0  0  0
 15 26  1  6  0  0  0
 17 18  2  0  0  0  0
 17 22  1  0  0  0  0
 18 19  1  0  0  0  0
 19 20  2  0  0  0  0
 20 21  1  0  0  0  0
 20 26  1  0  0  0  0
 21 22  2  0  0  0  0
 21 24  1  0  0  0  0
 22 23  1  0  0  0  0
 24 25  2  0  0  0  0
 25 26  1  0  0  0  0
M  END
>  <CHROM.1>
125.19571847,-161.77063903,-67.88173882,145.96751095,-165.38171479,-59.72716478
91.22406647,36.62446977,21.09983438,19.16402537,-1.16645455,-0.84210417,3.04646134

>  <Name>
ligand

>  <RI>
0

>  <Rbt.Current_Directory>
/home/itssahil/PROJECTS/Mol_Feturizer/New_Systems/rnas/3NPQ

>  <Rbt.Executable>
rbdock ($Id: //depot/dev/client3/rdock/2013.1/src/exe/rbdock.cxx#4 $)

>  <Rbt.Library>
libRbt.so (2013.1, Build901 2013/11/27)

>  <Rbt.Parameter_File>
/export/apps/rDock/src/rDock_2013.1_src/data/scripts/dock_solv.prm

>  <Rbt.Receptor>
prm/blind_docking_80.prm

>  <SCORE>
-11.8053

>  <SCORE.INTER>
-7.79716

>  <SCORE.INTER.CONST>
1

>  <SCORE.INTER.POLAR>
0

>  <SCORE.INTER.ROT>
7

>  <SCORE.INTER.SOLV>
10.675

>  <SCORE.INTER.VDW>
-17.0231

>  <SCORE.INTER.norm>
-0.299891

>  <SCORE.INTRA>
-4.00812

>  <SCORE.INTRA.DIHEDRAL>
-1.08271

>  <SCORE.INTRA.DIHEDRAL.0>
6.97628

>  <SCORE.INTRA.POLAR>
0

>  <SCORE.INTRA.POLAR.0>
0

>  <SCORE.INTRA.REPUL>
0

>  <SCORE.INTRA.REPUL.0>
0

>  <SCORE.INTRA.SOLV>
-0.390845

>  <SCORE.INTRA.SOLV.lig_0>
-49.8243

>  <SCORE.INTRA.VDW>
-3.27134

>  <SCORE.INTRA.VDW.0>
-1.35881

>  <SCORE.INTRA.norm>
-0.154158

>  <SCORE.RESTR>
0

>  <SCORE.RESTR.CAVITY>
0

>  <SCORE.RESTR.norm>
0

>  <SCORE.SYSTEM>
0

>  <SCORE.SYSTEM.CONST>
0

>  <SCORE.SYSTEM.DIHEDRAL>
0

>  <SCORE.SYSTEM.SOLV>
0

>  <SCORE.SYSTEM.norm>
0

>  <SCORE.heavy>
26

>  <SCORE.norm>
-0.454049

>  <RMSD>
15.338

$$$$
ligand
 OpenBabel11021811483D
libRbt.so/2013.1/901 2013/11/27
 26 28  0  0  0  0  0  0  0  0999 V2000
   38.1612   23.0198   19.6617 N   0  0  0  0  0  0  0  0  0  0  0  0
   38.2281   22.0094   18.6133 C   0  0  2  0  0  0  0  0  0  0  0  0
   39.5996   21.9995   17.9477 C   0  0  0  0  0  0  0  0  0  0  0  0
   40.0096   21.0012   17.3568 O   0  0  0  0  0  0  0  0  0  0  0  0
   37.1433   22.2492   17.5709 C   0  0  0  0  0  0  0  0  0  0  0  0
   35.7243   22.0962   18.1026 C   0  0  0  0  0  0  0  0  0  0  0  0
   34.4708   22.5393   16.8734 S   0  0  0  0  0  0  0  0  0  0  0  0
   33.1757   22.3650   18.1267 C   0  0  0  0  0  0  0  0  0  0  0  0
   32.3139   21.1259   17.9138 C   0  0  1  0  0  0  0  0  0  0  0  0
   33.1137   20.0557   17.4449 O   0  0  0  0  0  0  0  0  0  0  0  0
   31.6503   20.6784   19.2060 C   0  0  1  0  0  0  0  0  0  0  0  0
   30.2508   20.7764   19.0869 O   0  0  0  0  0  0  0  0  0  0  0  0
   32.0548   19.2316   19.3991 C   0  0  1  0  0  0  0  0  0  0  0  0
   30.9097   18.4140   19.4675 O   0  0  0  0  0  0  0  0  0  0  0  0
   32.8850   18.8680   18.1801 C   0  0  2  0  0  0  0  0  0  0  0  0
   40.3298   22.9905   17.9850 O   0  0  0  0  0  0  0  0  0  0  0  0
   37.0986   19.3565   21.2742 N   0  0  0  0  0  0  0  0  0  0  0  0
   36.0166   20.2072   21.1695 C   0  0  0  0  0  0  0  0  0  0  0  0
   34.9877   19.9189   20.2949 N   0  0  0  0  0  0  0  0  0  0  0  0
   35.0324   18.7999   19.5313 C   0  0  0  0  0  0  0  0  0  0  0  0
   36.1124   17.9324   19.6219 C   0  0  0  0  0  0  0  0  0  0  0  0
   37.1515   18.2148   20.5003 C   0  0  0  0  0  0  0  0  0  0  0  0
   38.1914   17.3915   20.5948 N   0  0  0  0  0  0  0  0  0  0  0  0
   35.9000   16.9129   18.7619 N   0  0  0  0  0  0  0  0  0  0  0  0
   34.7191   17.1130   18.1328 C   0  0  0  0  0  0  0  0  0  0  0  0
   34.1694   18.2792   18.5995 N   0  0  0  0  0  0  0  0  0  0  0  0
  2  1  1  1  0  0  0
  2  3  1  0  0  0  0
  2  5  1  0  0  0  0
  3  4  1  0  0  0  0
  3 16  1  0  0  0  0
  5  6  1  0  0  0  0
  6  7  1  0  0  0  0
  7  8  1  0  0  0  0
  9  8  1  1  0  0  0
  9 10  1  0  0  0  0
  9 11  1  0  0  0  0
 10 15  1  0  0  0  0
 11 12  1  6  0  0  0
 11 13  1  0  0  0  0
 13 14  1  6  0  0  0
 13 15  1  0  0  0  0
 15 26  1  1  0  0  0
 17 18  2  0  0  0  0
 17 22  1  0  0  0  0
 18 19  1  0  0  0  0
 19 20  2  0  0  0  0
 20 21  1  0  0  0  0
 20 26  1  0  0  0  0
 21 22  2  0  0  0  0
 21 24  1  0  0  0  0
 22 23  1  0  0  0  0
 24 25  2  0  0  0  0
 25 26  1  0  0  0  0
M  END
>  <CHROM.1>
157.29798420,-64.54496632,174.67109829,-173.19026841,-108.10048555,37.03092858
69.23411142,35.29814553,20.29748966,18.77075092,0.25473002,-0.08402967,-0.44007996

>  <Name>
ligand

>  <RI>
0

>  <Rbt.Current_Directory>
/home/itssahil/PROJECTS/Mol_Feturizer/New_Systems/rnas/3NPQ

>  <Rbt.Executable>
rbdock ($Id: //depot/dev/client3/rdock/2013.1/src/exe/rbdock.cxx#4 $)

>  <Rbt.Library>
libRbt.so (2013.1, Build901 2013/11/27)

>  <Rbt.Parameter_File>
/export/apps/rDock/src/rDock_2013.1_src/data/scripts/dock_solv.prm

>  <Rbt.Receptor>
prm/blind_docking_60.prm

>  <SCORE>
-8.52891

>  <SCORE.INTER>
-5.797

>  <SCORE.INTER.CONST>
1

>  <SCORE.INTER.POLAR>
0

>  <SCORE.INTER.ROT>
7

>  <SCORE.INTER.SOLV>
12.4732

>  <SCORE.INTER.VDW>
-16.2891

>  <SCORE.INTER.norm>
-0.222962

>  <SCORE.INTRA>
-2.73191

>  <SCORE.INTRA.DIHEDRAL>
-0.176226

>  <SCORE.INTRA.DIHEDRAL.0>
6.97628

>  <SCORE.INTRA.POLAR>
0

>  <SCORE.INTRA.POLAR.0>
0

>  <SCORE.INTRA.REPUL>
0

>  <SCORE.INTRA.REPUL.0>
0

>  <SCORE.INTRA.SOLV>
-0.0230814

>  <SCORE.INTRA.SOLV.lig_0>
-49.8243

>  <SCORE.INTRA.VDW>
-2.63225

>  <SCORE.INTRA.VDW.0>
-1.35881

>  <SCORE.INTRA.norm>
-0.105073

>  <SCORE.RESTR>
0

>  <SCORE.RESTR.CAVITY>
0

>  <SCORE.RESTR.norm>
0

>  <SCORE.SYSTEM>
0

>  <SCORE.SYSTEM.CONST>
0

>  <SCORE.SYSTEM.DIHEDRAL>
0

>  <SCORE.SYSTEM.SOLV>
0

>  <SCORE.SYSTEM.norm>
0

>  <SCORE.heavy>
26

>  <SCORE.norm>
-0.328035

>  <RMSD>
15.342

$$$$
ligand
 OpenBabel11021811483D
libRbt.so/2013.1/901 2013/11/27
 26 28  0  0  0  0  0  0  0  0999 V2000
   36.4185   19.8394   21.7085 N   0  0  0  0  0  0  0  0  0  0  0  0
   35.2654   20.6683   22.0369 C   0  0  2  0  0  0  0  0  0  0  0  0
   33.9644   19.9819   21.6366 C   0  0  0  0  0  0  0  0  0  0  0  0
   32.8954   20.2975   22.1576 O   0  0  0  0  0  0  0  0  0  0  0  0
   35.3717   22.0257   21.3533 C   0  0  0  0  0  0  0  0  0  0  0  0
   36.6413   22.7957   21.6923 C   0  0  0  0  0  0  0  0  0  0  0  0
   36.8327   24.2933   20.6928 S   0  0  0  0  0  0  0  0  0  0  0  0
   38.6220   24.0242   20.6266 C   0  0  0  0  0  0  0  0  0  0  0  0
   39.0979   23.5674   19.2525 C   0  0  1  0  0  0  0  0  0  0  0  0
   38.8269   22.1882   19.0811 O   0  0  0  0  0  0  0  0  0  0  0  0
   38.3917   24.3216   18.1377 C   0  0  1  0  0  0  0  0  0  0  0  0
   39.3248   25.0769   17.4020 O   0  0  0  0  0  0  0  0  0  0  0  0
   37.7678   23.2627   17.2526 C   0  0  1  0  0  0  0  0  0  0  0  0
   38.2552   23.3834   15.9365 O   0  0  0  0  0  0  0  0  0  0  0  0
   38.1874   21.9285   17.8454 C   0  0  2  0  0  0  0  0  0  0  0  0
   33.9522   19.0954   20.7817 O   0  0  0  0  0  0  0  0  0  0  0  0
   33.3206   20.7514   16.2656 N   0  0  0  0  0  0  0  0  0  0  0  0
   34.1729   21.7092   15.7541 C   0  0  0  0  0  0  0  0  0  0  0  0
   35.4301   21.8829   16.2984 N   0  0  0  0  0  0  0  0  0  0  0  0
   35.8365   21.1162   17.3396 C   0  0  0  0  0  0  0  0  0  0  0  0
   34.9936   20.1482   17.8682 C   0  0  0  0  0  0  0  0  0  0  0  0
   33.7272   19.9663   17.3255 C   0  0  0  0  0  0  0  0  0  0  0  0
   32.9109   19.0428   17.8244 N   0  0  0  0  0  0  0  0  0  0  0  0
   35.6441   19.5398   18.8834 N   0  0  0  0  0  0  0  0  0  0  0  0
   36.8709   20.0960   19.0096 C   0  0  0  0  0  0  0  0  0  0  0  0
   37.0048   21.0750   18.0591 N   0  0  0  0  0  0  0  0  0  0  0  0
  2  1  1  6  0  0  0
  2  3  1  0  0  0  0
  2  5  1  0  0  0  0
  3  4  1  0  0  0  0
  3 16  1  0  0  0  0
  5  6  1  0  0  0  0
  6  7  1  0  0  0  0
  7  8  1  0  0  0  0
  9  8  1  1  0  0  0
  9 10  1  0  0  0  0
  9 11  1  0  0  0  0
 10 15  1  0  0  0  0
 11 12  1  6  0  0  0
 11 13  1  0  0  0  0
 13 14  1  6  0  0  0
 13 15  1  0  0  0  0
 15 26  1  1  0  0  0
 17 18  2  0  0  0  0
 17 22  1  0  0  0  0
 18 19  1  0  0  0  0
 19 20  2  0  0  0  0
 20 21  1  0  0  0  0
 20 26  1  0  0  0  0
 21 22  2  0  0  0  0
 21 24  1  0  0  0  0
 22 23  1  0  0  0  0
 24 25  2  0  0  0  0
 25 26  1  0  0  0  0
M  END
>  <CHROM.1>
158.33307437,-57.04961359,172.28051227,-143.22730173,107.81023855,-78.58126158
146.77470969,36.20784696,21.77830025,19.04552206,-2.89920889,-0.72859731
-1.57884180

>  <Name>
ligand

>  <RI>
0

>  <Rbt.Current_Directory>
/home/itssahil/PROJECTS/Mol_Feturizer/New_Systems/rnas/3NPQ

>  <Rbt.Executable>
rbdock ($Id: //depot/dev/client3/rdock/2013.1/src/exe/rbdock.cxx#4 $)

>  <Rbt.Library>
libRbt.so (2013.1, Build901 2013/11/27)

>  <Rbt.Parameter_File>
/export/apps/rDock/src/rDock_2013.1_src/data/scripts/dock_solv.prm

>  <Rbt.Receptor>
prm/blind_docking_80.prm

>  <SCORE>
-7.47121

>  <SCORE.INTER>
-6.69447

>  <SCORE.INTER.CONST>
1

>  <SCORE.INTER.POLAR>
0

>  <SCORE.INTER.ROT>
7

>  <SCORE.INTER.SOLV>
14.0566

>  <SCORE.INTER.VDW>
-17.4152

>  <SCORE.INTER.norm>
-0.25748

>  <SCORE.INTRA>
-0.776739

>  <SCORE.INTRA.DIHEDRAL>
0.872279

>  <SCORE.INTRA.DIHEDRAL.0>
6.97628

>  <SCORE.INTRA.POLAR>
0

>  <SCORE.INTRA.POLAR.0>
0

>  <SCORE.INTRA.REPUL>
0

>  <SCORE.INTRA.REPUL.0>
0

>  <SCORE.INTRA.SOLV>
2.42831

>  <SCORE.INTRA.SOLV.lig_0>
-49.8243

>  <SCORE.INTRA.VDW>
-2.42704

>  <SCORE.INTRA.VDW.0>
-1.35881

>  <SCORE.INTRA.norm>
-0.0298746

>  <SCORE.RESTR>
0

>  <SCORE.RESTR.CAVITY>
0

>  <SCORE.RESTR.norm>
0

>  <SCORE.SYSTEM>
0

>  <SCORE.SYSTEM.CONST>
0

>  <SCORE.SYSTEM.DIHEDRAL>
0

>  <SCORE.SYSTEM.SOLV>
0

>  <SCORE.SYSTEM.norm>
0

>  <SCORE.heavy>
26

>  <SCORE.norm>
-0.287354

>  <RMSD>
15.342

$$$$
ligand
 OpenBabel11021811483D
libRbt.so/2013.1/901 2013/11/27
 26 28  0  0  0  0  0  0  0  0999 V2000
   28.6196   11.5730    4.0959 N   0  0  0  0  0  0  0  0  0  0  0  0
   28.1032   12.4175    5.1658 C   0  0  2  0  0  0  0  0  0  0  0  0
   29.2251   13.2052    5.8329 C   0  0  0  0  0  0  0  0  0  0  0  0
   28.9790   14.1744    6.5498 O   0  0  0  0  0  0  0  0  0  0  0  0
   27.3679   11.5766    6.2018 C   0  0  0  0  0  0  0  0  0  0  0  0
   26.0638   10.9708    5.6998 C   0  0  0  0  0  0  0  0  0  0  0  0
   25.3067    9.8544    6.9076 S   0  0  0  0  0  0  0  0  0  0  0  0
   24.0744   11.1189    7.3086 C   0  0  0  0  0  0  0  0  0  0  0  0
   24.5175   12.0328    8.4452 C   0  0  1  0  0  0  0  0  0  0  0  0
   25.4170   13.0109    7.9560 O   0  0  0  0  0  0  0  0  0  0  0  0
   23.3375   12.7584    9.0708 C   0  0  1  0  0  0  0  0  0  0  0  0
   23.1927   12.3700   10.4163 O   0  0  0  0  0  0  0  0  0  0  0  0
   23.6690   14.2341    8.9893 C   0  0  1  0  0  0  0  0  0  0  0  0
   23.6725   14.8012   10.2788 O   0  0  0  0  0  0  0  0  0  0  0  0
   25.0581   14.3128    8.3796 C   0  0  2  0  0  0  0  0  0  0  0  0
   30.4046   12.8901    5.6706 O   0  0  0  0  0  0  0  0  0  0  0  0
   22.6619   18.3602    6.0462 N   0  0  0  0  0  0  0  0  0  0  0  0
   22.3158   17.7311    7.2252 C   0  0  0  0  0  0  0  0  0  0  0  0
   23.0674   16.6721    7.6946 N   0  0  0  0  0  0  0  0  0  0  0  0
   24.1493   16.2409    7.0015 C   0  0  0  0  0  0  0  0  0  0  0  0
   24.5131   16.8602    5.8136 C   0  0  0  0  0  0  0  0  0  0  0  0
   23.7625   17.9273    5.3347 C   0  0  0  0  0  0  0  0  0  0  0  0
   24.1011   18.5275    4.1975 N   0  0  0  0  0  0  0  0  0  0  0  0
   25.6138   16.2372    5.3400 N   0  0  0  0  0  0  0  0  0  0  0  0
   25.9535   15.2445    6.1940 C   0  0  0  0  0  0  0  0  0  0  0  0
   25.0546   15.2344    7.2292 N   0  0  0  0  0  0  0  0  0  0  0  0
  2  1  1  6  0  0  0
  2  3  1  0  0  0  0
  2  5  1  0  0  0  0
  3  4  1  0  0  0  0
  3 16  1  0  0  0  0
  5  6  1  0  0  0  0
  6  7  1  0  0  0  0
  7  8  1  0  0  0  0
  9  8  1  6  0  0  0
  9 10  1  0  0  0  0
  9 11  1  0  0  0  0
 10 15  1  0  0  0  0
 11 12  1  1  0  0  0
 11 13  1  0  0  0  0
 13 14  1  1  0  0  0
 13 15  1  0  0  0  0
 15 26  1  6  0  0  0
 17 18  2  0  0  0  0
 17 22  1  0  0  0  0
 18 19  1  0  0  0  0
 19 20  2  0  0  0  0
 20 21  1  0  0  0  0
 20 26  1  0  0  0  0
 21 22  2  0  0  0  0
 21 24  1  0  0  0  0
 22 23  1  0  0  0  0
 24 25  2  0  0  0  0
 25 26  1  0  0  0  0
M  END
>  <CHROM.1>
164.21251311,-68.57339505,174.50472246,104.50199933,-90.34013949,79.48755937
141.05257424,25.35759936,13.96293587,6.92753619,-0.78766367,0.61289914,-0.40825267

>  <Name>
ligand

>  <RI>
0

>  <Rbt.Current_Directory>
/home/itssahil/PROJECTS/Mol_Feturizer/New_Systems/rnas/3NPQ

>  <Rbt.Executable>
rbdock ($Id: //depot/dev/client3/rdock/2013.1/src/exe/rbdock.cxx#4 $)

>  <Rbt.Library>
libRbt.so (2013.1, Build901 2013/11/27)

>  <Rbt.Parameter_File>
/export/apps/rDock/src/rDock_2013.1_src/data/scripts/dock_solv.prm

>  <Rbt.Receptor>
prm/blind_docking_80.prm

>  <SCORE>
-8.55129

>  <SCORE.INTER>
-7.87213

>  <SCORE.INTER.CONST>
1

>  <SCORE.INTER.POLAR>
0

>  <SCORE.INTER.ROT>
7

>  <SCORE.INTER.SOLV>
11.5825

>  <SCORE.INTER.VDW>
-17.3756

>  <SCORE.INTER.norm>
-0.302774

>  <SCORE.INTRA>
-1.08225

>  <SCORE.INTRA.DIHEDRAL>
0.611606

>  <SCORE.INTRA.DIHEDRAL.0>
6.97628

>  <SCORE.INTRA.POLAR>
0

>  <SCORE.INTRA.POLAR.0>
0

>  <SCORE.INTRA.REPUL>
0

>  <SCORE.INTRA.REPUL.0>
0

>  <SCORE.INTRA.SOLV>
0.0160507

>  <SCORE.INTRA.SOLV.lig_0>
-49.8243

>  <SCORE.INTRA.VDW>
-1.39608

>  <SCORE.INTRA.VDW.0>
-1.35881

>  <SCORE.INTRA.norm>
-0.0416252

>  <SCORE.RESTR>
0.403094

>  <SCORE.RESTR.CAVITY>
0.403094

>  <SCORE.RESTR.norm>
0.0155036

>  <SCORE.SYSTEM>
0

>  <SCORE.SYSTEM.CONST>
0

>  <SCORE.SYSTEM.DIHEDRAL>
0

>  <SCORE.SYSTEM.SOLV>
0

>  <SCORE.SYSTEM.norm>
0

>  <SCORE.heavy>
26

>  <SCORE.norm>
-0.328896

>  <RMSD>
15.344

$$$$
ligand
 OpenBabel11021811483D
libRbt.so/2013.1/901 2013/11/27
 26 28  0  0  0  0  0  0  0  0999 V2000
   30.0527   18.7564   20.9455 N   0  0  0  0  0  0  0  0  0  0  0  0
   31.3867   18.7059   20.3603 C   0  0  2  0  0  0  0  0  0  0  0  0
   32.4512   18.5232   21.4362 C   0  0  0  0  0  0  0  0  0  0  0  0
   33.0582   17.4593   21.5524 O   0  0  0  0  0  0  0  0  0  0  0  0
   31.6661   19.9709   19.5585 C   0  0  0  0  0  0  0  0  0  0  0  0
   32.7292   19.8028   18.4809 C   0  0  0  0  0  0  0  0  0  0  0  0
   34.3867   19.5697   19.1714 S   0  0  0  0  0  0  0  0  0  0  0  0
   34.3369   17.8200   18.7085 C   0  0  0  0  0  0  0  0  0  0  0  0
   35.6512   17.1000   18.9872 C   0  0  1  0  0  0  0  0  0  0  0  0
   36.6586   17.5779   18.1144 O   0  0  0  0  0  0  0  0  0  0  0  0
   36.1237   17.3320   20.4131 C   0  0  1  0  0  0  0  0  0  0  0  0
   36.1509   16.1119   21.1152 O   0  0  0  0  0  0  0  0  0  0  0  0
   37.5246   17.8960   20.2980 C   0  0  1  0  0  0  0  0  0  0  0  0
   38.4370   17.0688   20.9818 O   0  0  0  0  0  0  0  0  0  0  0  0
   37.8436   17.9111   18.8129 C   0  0  2  0  0  0  0  0  0  0  0  0
   32.7294   19.4362   22.2146 O   0  0  0  0  0  0  0  0  0  0  0  0
   37.5540   23.0771   19.7048 N   0  0  0  0  0  0  0  0  0  0  0  0
   36.8962   22.0609   20.3682 C   0  0  0  0  0  0  0  0  0  0  0  0
   37.0939   20.7458   19.9961 N   0  0  0  0  0  0  0  0  0  0  0  0
   37.9334   20.4424   18.9763 C   0  0  0  0  0  0  0  0  0  0  0  0
   38.6035   21.4504   18.2965 C   0  0  0  0  0  0  0  0  0  0  0  0
   38.4108   22.7763   18.6653 C   0  0  0  0  0  0  0  0  0  0  0  0
   39.0466   23.7501   18.0207 N   0  0  0  0  0  0  0  0  0  0  0  0
   39.3639   20.8732   17.3412 N   0  0  0  0  0  0  0  0  0  0  0  0
   39.1923   19.5325   17.3993 C   0  0  0  0  0  0  0  0  0  0  0  0
   38.3080   19.2502   18.4083 N   0  0  0  0  0  0  0  0  0  0  0  0
  2  1  1  1  0  0  0
  2  3  1  0  0  0  0
  2  5  1  0  0  0  0
  3  4  1  0  0  0  0
  3 16  1  0  0  0  0
  5  6  1  0  0  0  0
  6  7  1  0  0  0  0
  7  8  1  0  0  0  0
  9  8  1  6  0  0  0
  9 10  1  0  0  0  0
  9 11  1  0  0  0  0
 10 15  1  0  0  0  0
 11 12  1  1  0  0  0
 11 13  1  0  0  0  0
 13 14  1  1  0  0  0
 13 15  1  0  0  0  0
 15 26  1  6  0  0  0
 17 18  2  0  0  0  0
 17 22  1  0  0  0  0
 18 19  1  0  0  0  0
 19 20  2  0  0  0  0
 20 21  1  0  0  0  0
 20 26  1  0  0  0  0
 21 22  2  0  0  0  0
 21 24  1  0  0  0  0
 22 23  1  0  0  0  0
 24 25  2  0  0  0  0
 25 26  1  0  0  0  0
M  END
>  <CHROM.1>
108.84702443,-156.43320455,-69.41388916,106.84725874,175.14538830,-68.35314857
88.36761087,35.78025703,19.35753115,19.57432533,2.71323718,-0.23920711,2.93516833

>  <Name>
ligand

>  <RI>
0

>  <Rbt.Current_Directory>
/home/itssahil/PROJECTS/Mol_Feturizer/New_Systems/rnas/3NPQ

>  <Rbt.Executable>
rbdock ($Id: //depot/dev/client3/rdock/2013.1/src/exe/rbdock.cxx#4 $)

>  <Rbt.Library>
libRbt.so (2013.1, Build901 2013/11/27)

>  <Rbt.Parameter_File>
/export/apps/rDock/src/rDock_2013.1_src/data/scripts/dock_solv.prm

>  <Rbt.Receptor>
prm/blind_docking_60.prm

>  <SCORE>
-8.51114

>  <SCORE.INTER>
-6.50237

>  <SCORE.INTER.CONST>
1

>  <SCORE.INTER.POLAR>
0

>  <SCORE.INTER.ROT>
7

>  <SCORE.INTER.SOLV>
10.2989

>  <SCORE.INTER.VDW>
-16.0345

>  <SCORE.INTER.norm>
-0.250091

>  <SCORE.INTRA>
-2.79566

>  <SCORE.INTRA.DIHEDRAL>
0.358171

>  <SCORE.INTRA.DIHEDRAL.0>
6.97628

>  <SCORE.INTRA.POLAR>
0

>  <SCORE.INTRA.POLAR.0>
0

>  <SCORE.INTRA.REPUL>
0

>  <SCORE.INTRA.REPUL.0>
0

>  <SCORE.INTRA.SOLV>
-0.301376

>  <SCORE.INTRA.SOLV.lig_0>
-49.8243

>  <SCORE.INTRA.VDW>
-2.82405

>  <SCORE.INTRA.VDW.0>
-1.35881

>  <SCORE.INTRA.norm>
-0.107525

>  <SCORE.RESTR>
0.78689

>  <SCORE.RESTR.CAVITY>
0.78689

>  <SCORE.RESTR.norm>
0.030265

>  <SCORE.SYSTEM>
0

>  <SCORE.SYSTEM.CONST>
0

>  <SCORE.SYSTEM.DIHEDRAL>
0

>  <SCORE.SYSTEM.SOLV>
0

>  <SCORE.SYSTEM.norm>
0

>  <SCORE.heavy>
26

>  <SCORE.norm>
-0.327351

>  <RMSD>
15.365

$$$$
ligand
 OpenBabel11021811483D
libRbt.so/2013.1/901 2013/11/27
 26 28  0  0  0  0  0  0  0  0999 V2000
   32.0971   19.1778   17.3322 N   0  0  0  0  0  0  0  0  0  0  0  0
   32.9479   20.2997   17.7094 C   0  0  2  0  0  0  0  0  0  0  0  0
   32.1413   21.3900   18.4056 C   0  0  0  0  0  0  0  0  0  0  0  0
   32.4883   22.5690   18.3480 O   0  0  0  0  0  0  0  0  0  0  0  0
   33.6511   20.8715   16.4848 C   0  0  0  0  0  0  0  0  0  0  0  0
   35.1191   21.2085   16.7107 C   0  0  0  0  0  0  0  0  0  0  0  0
   35.3455   22.5881   17.8613 S   0  0  0  0  0  0  0  0  0  0  0  0
   37.1334   22.5325   17.5811 C   0  0  0  0  0  0  0  0  0  0  0  0
   37.8420   21.5413   18.4971 C   0  0  1  0  0  0  0  0  0  0  0  0
   37.2204   21.5295   19.7693 O   0  0  0  0  0  0  0  0  0  0  0  0
   37.7868   20.1282   17.9401 C   0  0  1  0  0  0  0  0  0  0  0  0
   39.0880   19.6733   17.6531 O   0  0  0  0  0  0  0  0  0  0  0  0
   37.1682   19.2778   19.0301 C   0  0  1  0  0  0  0  0  0  0  0  0
   38.0496   18.2409   19.3938 O   0  0  0  0  0  0  0  0  0  0  0  0
   36.9456   20.2119   20.2071 C   0  0  2  0  0  0  0  0  0  0  0  0
   31.1229   21.1169   19.0421 O   0  0  0  0  0  0  0  0  0  0  0  0
   32.6401   17.2197   20.4828 N   0  0  0  0  0  0  0  0  0  0  0  0
   33.8553   16.9110   19.9053 C   0  0  0  0  0  0  0  0  0  0  0  0
   34.8876   17.8279   19.9260 N   0  0  0  0  0  0  0  0  0  0  0  0
   34.7158   19.0382   20.5114 C   0  0  0  0  0  0  0  0  0  0  0  0
   33.5010   19.3674   21.0969 C   0  0  0  0  0  0  0  0  0  0  0  0
   32.4573   18.4499   21.0812 C   0  0  0  0  0  0  0  0  0  0  0  0
   31.2889   18.7548   21.6381 N   0  0  0  0  0  0  0  0  0  0  0  0
   33.6064   20.6168   21.5989 N   0  0  0  0  0  0  0  0  0  0  0  0
   34.8508   21.0836   21.3467 C   0  0  0  0  0  0  0  0  0  0  0  0
   35.5505   20.1159   20.6730 N   0  0  0  0  0  0  0  0  0  0  0  0
  2  1  1  6  0  0  0
  2  3  1  0  0  0  0
  2  5  1  0  0  0  0
  3  4  1  0  0  0  0
  3 16  1  0  0  0  0
  5  6  1  0  0  0  0
  6  7  1  0  0  0  0
  7  8  1  0  0  0  0
  9  8  1  6  0  0  0
  9 10  1  0  0  0  0
  9 11  1  0  0  0  0
 10 15  1  0  0  0  0
 11 12  1  1  0  0  0
 11 13  1  0  0  0  0
 13 14  1  1  0  0  0
 13 15  1  0  0  0  0
 15 26  1  6  0  0  0
 17 18  2  0  0  0  0
 17 22  1  0  0  0  0
 18 19  1  0  0  0  0
 19 20  2  0  0  0  0
 20 21  1  0  0  0  0
 20 26  1  0  0  0  0
 21 22  2  0  0  0  0
 21 24  1  0  0  0  0
 22 23  1  0  0  0  0
 24 25  2  0  0  0  0
 25 26  1  0  0  0  0
M  END
>  <CHROM.1>
-151.77629298,-137.28543293,-67.41039317,-176.03613718,-86.51139280,-35.72267414
143.58607833,34.81474982,20.22251537,19.13289837,2.75096034,-0.07646680,2.45372209

>  <Name>
ligand

>  <RI>
0

>  <Rbt.Current_Directory>
/home/itssahil/PROJECTS/Mol_Feturizer/New_Systems/rnas/3NPQ

>  <Rbt.Executable>
rbdock ($Id: //depot/dev/client3/rdock/2013.1/src/exe/rbdock.cxx#4 $)

>  <Rbt.Library>
libRbt.so (2013.1, Build901 2013/11/27)

>  <Rbt.Parameter_File>
/export/apps/rDock/src/rDock_2013.1_src/data/scripts/dock_solv.prm

>  <Rbt.Receptor>
prm/blind_docking_60.prm

>  <SCORE>
-7.77082

>  <SCORE.INTER>
-6.60133

>  <SCORE.INTER.CONST>
1

>  <SCORE.INTER.POLAR>
0

>  <SCORE.INTER.ROT>
7

>  <SCORE.INTER.SOLV>
11.1113

>  <SCORE.INTER.VDW>
-16.3713

>  <SCORE.INTER.norm>
-0.253897

>  <SCORE.INTRA>
-1.16949

>  <SCORE.INTRA.DIHEDRAL>
3.45572

>  <SCORE.INTRA.DIHEDRAL.0>
6.97628

>  <SCORE.INTRA.POLAR>
0

>  <SCORE.INTRA.POLAR.0>
0

>  <SCORE.INTRA.REPUL>
0

>  <SCORE.INTRA.REPUL.0>
0

>  <SCORE.INTRA.SOLV>
0.763685

>  <SCORE.INTRA.SOLV.lig_0>
-49.8243

>  <SCORE.INTRA.VDW>
-3.27919

>  <SCORE.INTRA.VDW.0>
-1.35881

>  <SCORE.INTRA.norm>
-0.0449804

>  <SCORE.RESTR>
0

>  <SCORE.RESTR.CAVITY>
0

>  <SCORE.RESTR.norm>
0

>  <SCORE.SYSTEM>
0

>  <SCORE.SYSTEM.CONST>
0

>  <SCORE.SYSTEM.DIHEDRAL>
0

>  <SCORE.SYSTEM.SOLV>
0

>  <SCORE.SYSTEM.norm>
0

>  <SCORE.heavy>
26

>  <SCORE.norm>
-0.298878

>  <RMSD>
15.389

$$$$
ligand
 OpenBabel11021811483D
libRbt.so/2013.1/901 2013/11/27
 26 28  0  0  0  0  0  0  0  0999 V2000
   29.4443    8.3630    5.5335 N   0  0  0  0  0  0  0  0  0  0  0  0
   29.0254    9.7278    5.8275 C   0  0  2  0  0  0  0  0  0  0  0  0
   30.2012   10.5711    6.3074 C   0  0  0  0  0  0  0  0  0  0  0  0
   30.3359   11.7375    5.9397 O   0  0  0  0  0  0  0  0  0  0  0  0
   27.9177    9.7325    6.8735 C   0  0  0  0  0  0  0  0  0  0  0  0
   27.3852   11.1192    7.2100 C   0  0  0  0  0  0  0  0  0  0  0  0
   26.3221   11.1177    8.6757 S   0  0  0  0  0  0  0  0  0  0  0  0
   25.0295   10.2610    7.7410 C   0  0  0  0  0  0  0  0  0  0  0  0
   23.9841   11.2140    7.1733 C   0  0  1  0  0  0  0  0  0  0  0  0
   23.2908   11.8550    8.2285 O   0  0  0  0  0  0  0  0  0  0  0  0
   24.6208   12.2932    6.3129 C   0  0  1  0  0  0  0  0  0  0  0  0
   24.1730   12.1746    4.9833 O   0  0  0  0  0  0  0  0  0  0  0  0
   24.1635   13.6128    6.8989 C   0  0  1  0  0  0  0  0  0  0  0  0
   23.4790   14.3641    5.9236 O   0  0  0  0  0  0  0  0  0  0  0  0
   23.2246   13.2560    8.0385 C   0  0  2  0  0  0  0  0  0  0  0  0
   31.0442   10.1053    7.0751 O   0  0  0  0  0  0  0  0  0  0  0  0
   25.1780   17.6702   10.1040 N   0  0  0  0  0  0  0  0  0  0  0  0
   24.9206   17.3932    8.7764 C   0  0  0  0  0  0  0  0  0  0  0  0
   24.4012   16.1673    8.4101 N   0  0  0  0  0  0  0  0  0  0  0  0
   24.1415   15.2261    9.3501 C   0  0  0  0  0  0  0  0  0  0  0  0
   24.3940   15.4856   10.6903 C   0  0  0  0  0  0  0  0  0  0  0  0
   24.9159   16.7171   11.0673 C   0  0  0  0  0  0  0  0  0  0  0  0
   25.1627   16.9764   12.3480 N   0  0  0  0  0  0  0  0  0  0  0  0
   24.0471   14.3893   11.3987 N   0  0  0  0  0  0  0  0  0  0  0  0
   23.5840   13.4477   10.5446 C   0  0  0  0  0  0  0  0  0  0  0  0
   23.6364   13.9521    9.2707 N   0  0  0  0  0  0  0  0  0  0  0  0
  2  1  1  1  0  0  0
  2  3  1  0  0  0  0
  2  5  1  0  0  0  0
  3  4  1  0  0  0  0
  3 16  1  0  0  0  0
  5  6  1  0  0  0  0
  6  7  1  0  0  0  0
  7  8  1  0  0  0  0
  9  8  1  1  0  0  0
  9 10  1  0  0  0  0
  9 11  1  0  0  0  0
 10 15  1  0  0  0  0
 11 12  1  6  0  0  0
 11 13  1  0  0  0  0
 13 14  1  6  0  0  0
 13 15  1  0  0  0  0
 15 26  1  1  0  0  0
 17 18  2  0  0  0  0
 17 22  1  0  0  0  0
 18 19  1  0  0  0  0
 19 20  2  0  0  0  0
 20 21  1  0  0  0  0
 20 26  1  0  0  0  0
 21 22  2  0  0  0  0
 21 24  1  0  0  0  0
 22 23  1  0  0  0  0
 24 25  2  0  0  0  0
 25 26  1  0  0  0  0
M  END
>  <CHROM.1>
139.76818020,-178.10907106,-168.48571308,-71.31155466,-96.22485880,-63.93252429
155.73079923,25.76379883,12.87368718,8.06024173,-0.95561204,-0.16699612,0.68005845

>  <Name>
ligand

>  <RI>
0

>  <Rbt.Current_Directory>
/home/itssahil/PROJECTS/Mol_Feturizer/New_Systems/rnas/3NPQ

>  <Rbt.Executable>
rbdock ($Id: //depot/dev/client3/rdock/2013.1/src/exe/rbdock.cxx#4 $)

>  <Rbt.Library>
libRbt.so (2013.1, Build901 2013/11/27)

>  <Rbt.Parameter_File>
/export/apps/rDock/src/rDock_2013.1_src/data/scripts/dock_solv.prm

>  <Rbt.Receptor>
prm/blind_docking_60.prm

>  <SCORE>
-8.16724

>  <SCORE.INTER>
-6.6749

>  <SCORE.INTER.CONST>
1

>  <SCORE.INTER.POLAR>
0

>  <SCORE.INTER.ROT>
7

>  <SCORE.INTER.SOLV>
10.1286

>  <SCORE.INTER.VDW>
-16.0928

>  <SCORE.INTER.norm>
-0.256727

>  <SCORE.INTRA>
-1.55095

>  <SCORE.INTRA.DIHEDRAL>
-1.97024

>  <SCORE.INTRA.DIHEDRAL.0>
6.97628

>  <SCORE.INTRA.POLAR>
0

>  <SCORE.INTRA.POLAR.0>
0

>  <SCORE.INTRA.REPUL>
0

>  <SCORE.INTRA.REPUL.0>
0

>  <SCORE.INTRA.SOLV>
-0.442199

>  <SCORE.INTRA.SOLV.lig_0>
-49.8243

>  <SCORE.INTRA.VDW>
-0.344734

>  <SCORE.INTRA.VDW.0>
-1.35881

>  <SCORE.INTRA.norm>
-0.059652

>  <SCORE.RESTR>
0.0586116

>  <SCORE.RESTR.CAVITY>
0.0586116

>  <SCORE.RESTR.norm>
0.00225429

>  <SCORE.SYSTEM>
0

>  <SCORE.SYSTEM.CONST>
0

>  <SCORE.SYSTEM.DIHEDRAL>
0

>  <SCORE.SYSTEM.SOLV>
0

>  <SCORE.SYSTEM.norm>
0

>  <SCORE.heavy>
26

>  <SCORE.norm>
-0.314125

>  <RMSD>
15.446

$$$$
ligand
 OpenBabel11021811483D
libRbt.so/2013.1/901 2013/11/27
 26 28  0  0  0  0  0  0  0  0999 V2000
   30.4873   12.7906    4.0080 N   0  0  0  0  0  0  0  0  0  0  0  0
   29.5068   11.9302    4.6585 C   0  0  2  0  0  0  0  0  0  0  0  0
   29.4852   10.5448    4.0228 C   0  0  0  0  0  0  0  0  0  0  0  0
   28.6227    9.7218    4.3270 O   0  0  0  0  0  0  0  0  0  0  0  0
   28.1197   12.5569    4.5926 C   0  0  0  0  0  0  0  0  0  0  0  0
   27.9722   13.8303    5.4151 C   0  0  0  0  0  0  0  0  0  0  0  0
   28.0586   13.5197    7.1968 S   0  0  0  0  0  0  0  0  0  0  0  0
   26.3317   12.9756    7.1889 C   0  0  0  0  0  0  0  0  0  0  0  0
   25.6009   13.3182    8.4819 C   0  0  1  0  0  0  0  0  0  0  0  0
   25.7022   14.7066    8.7409 O   0  0  0  0  0  0  0  0  0  0  0  0
   24.1242   12.9678    8.3985 C   0  0  1  0  0  0  0  0  0  0  0  0
   23.8120   11.9726    9.3442 O   0  0  0  0  0  0  0  0  0  0  0  0
   23.3772   14.2448    8.7229 C   0  0  1  0  0  0  0  0  0  0  0  0
   22.5393   14.0454    9.8376 O   0  0  0  0  0  0  0  0  0  0  0  0
   24.4436   15.2766    9.0481 C   0  0  2  0  0  0  0  0  0  0  0  0
   30.3302   10.2163    3.1892 O   0  0  0  0  0  0  0  0  0  0  0  0
   22.9700   17.2304    4.4029 N   0  0  0  0  0  0  0  0  0  0  0  0
   23.0371   15.9061    4.7862 C   0  0  0  0  0  0  0  0  0  0  0  0
   23.4505   15.5714    6.0606 N   0  0  0  0  0  0  0  0  0  0  0  0
   23.7951   16.5397    6.9442 C   0  0  0  0  0  0  0  0  0  0  0  0
   23.7347   17.8771    6.5772 C   0  0  0  0  0  0  0  0  0  0  0  0
   23.3188   18.2224    5.2969 C   0  0  0  0  0  0  0  0  0  0  0  0
   23.2580   19.5002    4.9341 N   0  0  0  0  0  0  0  0  0  0  0  0
   24.1271   18.6171    7.6367 N   0  0  0  0  0  0  0  0  0  0  0  0
   24.4328   17.7856    8.6591 C   0  0  0  0  0  0  0  0  0  0  0  0
   24.2317   16.4941    8.2448 N   0  0  0  0  0  0  0  0  0  0  0  0
  2  1  1  6  0  0  0
  2  3  1  0  0  0  0
  2  5  1  0  0  0  0
  3  4  1  0  0  0  0
  3 16  1  0  0  0  0
  5  6  1  0  0  0  0
  6  7  1  0  0  0  0
  7  8  1  0  0  0  0
  9  8  1  6  0  0  0
  9 10  1  0  0  0  0
  9 11  1  0  0  0  0
 10 15  1  0  0  0  0
 11 12  1  1  0  0  0
 11 13  1  0  0  0  0
 13 14  1  1  0  0  0
 13 15  1  0  0  0  0
 15 26  1  6  0  0  0
 17 18  2  0  0  0  0
 17 22  1  0  0  0  0
 18 19  1  0  0  0  0
 19 20  2  0  0  0  0
 20 21  1  0  0  0  0
 20 26  1  0  0  0  0
 21 22  2  0  0  0  0
 21 24  1  0  0  0  0
 22 23  1  0  0  0  0
 24 25  2  0  0  0  0
 25 26  1  0  0  0  0
M  END
>  <CHROM.1>
-171.66698476,-67.25480108,-68.18321665,-79.90429570,-146.88268889,55.15198109
81.58387647,25.74057275,14.40063079,6.60952859,-0.25728098,0.77980127,-0.76767404

>  <Name>
ligand

>  <RI>
0

>  <Rbt.Current_Directory>
/home/itssahil/PROJECTS/Mol_Feturizer/New_Systems/rnas/3NPQ

>  <Rbt.Executable>
rbdock ($Id: //depot/dev/client3/rdock/2013.1/src/exe/rbdock.cxx#4 $)

>  <Rbt.Library>
libRbt.so (2013.1, Build901 2013/11/27)

>  <Rbt.Parameter_File>
/export/apps/rDock/src/rDock_2013.1_src/data/scripts/dock_solv.prm

>  <Rbt.Receptor>
prm/blind_docking_80.prm

>  <SCORE>
-7.58403

>  <SCORE.INTER>
-6.12947

>  <SCORE.INTER.CONST>
1

>  <SCORE.INTER.POLAR>
0

>  <SCORE.INTER.ROT>
7

>  <SCORE.INTER.SOLV>
16.8306

>  <SCORE.INTER.VDW>
-17.9632

>  <SCORE.INTER.norm>
-0.235749

>  <SCORE.INTRA>
-1.45455

>  <SCORE.INTRA.DIHEDRAL>
-1.7648

>  <SCORE.INTRA.DIHEDRAL.0>
6.97628

>  <SCORE.INTRA.POLAR>
0

>  <SCORE.INTRA.POLAR.0>
0

>  <SCORE.INTRA.REPUL>
0

>  <SCORE.INTRA.REPUL.0>
0

>  <SCORE.INTRA.SOLV>
0.222092

>  <SCORE.INTRA.SOLV.lig_0>
-49.8243

>  <SCORE.INTRA.VDW>
-0.683201

>  <SCORE.INTRA.VDW.0>
-1.35881

>  <SCORE.INTRA.norm>
-0.0559444

>  <SCORE.RESTR>
0

>  <SCORE.RESTR.CAVITY>
0

>  <SCORE.RESTR.norm>
0

>  <SCORE.SYSTEM>
0

>  <SCORE.SYSTEM.CONST>
0

>  <SCORE.SYSTEM.DIHEDRAL>
0

>  <SCORE.SYSTEM.SOLV>
0

>  <SCORE.SYSTEM.norm>
0

>  <SCORE.heavy>
26

>  <SCORE.norm>
-0.291693

>  <RMSD>
15.459

$$$$
ligand
 OpenBabel11021811483D
libRbt.so/2013.1/901 2013/11/27
 26 28  0  0  0  0  0  0  0  0999 V2000
   29.9702   12.4359    4.2637 N   0  0  0  0  0  0  0  0  0  0  0  0
   29.4113   11.4990    5.2304 C   0  0  2  0  0  0  0  0  0  0  0  0
   30.2411   10.2221    5.2998 C   0  0  0  0  0  0  0  0  0  0  0  0
   30.8666    9.9278    6.3177 O   0  0  0  0  0  0  0  0  0  0  0  0
   27.9675   11.1651    4.8768 C   0  0  0  0  0  0  0  0  0  0  0  0
   27.0279   12.3637    4.8992 C   0  0  0  0  0  0  0  0  0  0  0  0
   25.3036   11.8998    4.5995 S   0  0  0  0  0  0  0  0  0  0  0  0
   24.7512   13.2392    5.6853 C   0  0  0  0  0  0  0  0  0  0  0  0
   25.1561   13.0233    7.1389 C   0  0  1  0  0  0  0  0  0  0  0  0
   25.8518   14.1587    7.6205 O   0  0  0  0  0  0  0  0  0  0  0  0
   23.9439   12.8087    8.0303 C   0  0  1  0  0  0  0  0  0  0  0  0
   23.9822   11.5180    8.5916 O   0  0  0  0  0  0  0  0  0  0  0  0
   24.0438   13.8530    9.1228 C   0  0  1  0  0  0  0  0  0  0  0  0
   24.0812   13.2301   10.3857 O   0  0  0  0  0  0  0  0  0  0  0  0
   25.3440   14.5957    8.8672 C   0  0  2  0  0  0  0  0  0  0  0  0
   30.3050    9.4543    4.3390 O   0  0  0  0  0  0  0  0  0  0  0  0
   24.5617   18.9554   11.6866 N   0  0  0  0  0  0  0  0  0  0  0  0
   24.7702   17.6706   12.1465 C   0  0  0  0  0  0  0  0  0  0  0  0
   24.9601   16.6349   11.2532 N   0  0  0  0  0  0  0  0  0  0  0  0
   24.9418   16.8706    9.9186 C   0  0  0  0  0  0  0  0  0  0  0  0
   24.7331   18.1557    9.4367 C   0  0  0  0  0  0  0  0  0  0  0  0
   24.5421   19.2037   10.3290 C   0  0  0  0  0  0  0  0  0  0  0  0
   24.3403   20.4386    9.8788 N   0  0  0  0  0  0  0  0  0  0  0  0
   24.7642   18.1039    8.0875 N   0  0  0  0  0  0  0  0  0  0  0  0
   24.9860   16.8250    7.7060 C   0  0  0  0  0  0  0  0  0  0  0  0
   25.0983   16.0486    8.8305 N   0  0  0  0  0  0  0  0  0  0  0  0
  2  1  1  6  0  0  0
  2  3  1  0  0  0  0
  2  5  1  0  0  0  0
  3  4  1  0  0  0  0
  3 16  1  0  0  0  0
  5  6  1  0  0  0  0
  6  7  1  0  0  0  0
  7  8  1  0  0  0  0
  9  8  1  6  0  0  0
  9 10  1  0  0  0  0
  9 11  1  0  0  0  0
 10 15  1  0  0  0  0
 11 12  1  1  0  0  0
 11 13  1  0  0  0  0
 13 14  1  1  0  0  0
 13 15  1  0  0  0  0
 15 26  1  6  0  0  0
 17 18  2  0  0  0  0
 17 22  1  0  0  0  0
 18 19  1  0  0  0  0
 19 20  2  0  0  0  0
 20 21  1  0  0  0  0
 20 26  1  0  0  0  0
 21 22  2  0  0  0  0
 21 24  1  0  0  0  0
 22 23  1  0  0  0  0
 24 25  2  0  0  0  0
 25 26  1  0  0  0  0
M  END
>  <CHROM.1>
113.75526831,-61.89285344,-175.55355678,147.45012616,-66.00604552,126.47944849
-162.12429350,26.00658990,14.15256529,7.66024956,-1.08985460,0.35526827,0.46443579

>  <Name>
ligand

>  <RI>
0

>  <Rbt.Current_Directory>
/home/itssahil/PROJECTS/Mol_Feturizer/New_Systems/rnas/3NPQ

>  <Rbt.Executable>
rbdock ($Id: //depot/dev/client3/rdock/2013.1/src/exe/rbdock.cxx#4 $)

>  <Rbt.Library>
libRbt.so (2013.1, Build901 2013/11/27)

>  <Rbt.Parameter_File>
/export/apps/rDock/src/rDock_2013.1_src/data/scripts/dock_solv.prm

>  <Rbt.Receptor>
prm/blind_docking_40.prm

>  <SCORE>
-4.58582

>  <SCORE.INTER>
-5.81266

>  <SCORE.INTER.CONST>
1

>  <SCORE.INTER.POLAR>
0

>  <SCORE.INTER.ROT>
7

>  <SCORE.INTER.SOLV>
19.5172

>  <SCORE.INTER.VDW>
-18.6475

>  <SCORE.INTER.norm>
-0.223564

>  <SCORE.INTRA>
0.619609

>  <SCORE.INTRA.DIHEDRAL>
2.33117

>  <SCORE.INTRA.DIHEDRAL.0>
6.97628

>  <SCORE.INTRA.POLAR>
0

>  <SCORE.INTRA.POLAR.0>
0

>  <SCORE.INTRA.REPUL>
0

>  <SCORE.INTRA.REPUL.0>
0

>  <SCORE.INTRA.SOLV>
-0.196891

>  <SCORE.INTRA.SOLV.lig_0>
-49.8243

>  <SCORE.INTRA.VDW>
-0.447533

>  <SCORE.INTRA.VDW.0>
-1.35881

>  <SCORE.INTRA.norm>
0.0238311

>  <SCORE.RESTR>
0.607231

>  <SCORE.RESTR.CAVITY>
0.607231

>  <SCORE.RESTR.norm>
0.023355

>  <SCORE.SYSTEM>
0

>  <SCORE.SYSTEM.CONST>
0

>  <SCORE.SYSTEM.DIHEDRAL>
0

>  <SCORE.SYSTEM.SOLV>
0

>  <SCORE.SYSTEM.norm>
0

>  <SCORE.heavy>
26

>  <SCORE.norm>
-0.176378

>  <RMSD>
15.491

$$$$
ligand
 OpenBabel11021811483D
libRbt.so/2013.1/901 2013/11/27
 26 28  0  0  0  0  0  0  0  0999 V2000
   30.7131   18.2505   18.0404 N   0  0  0  0  0  0  0  0  0  0  0  0
   31.3787   19.4608   18.5059 C   0  0  2  0  0  0  0  0  0  0  0  0
   31.6732   20.4054   17.3461 C   0  0  0  0  0  0  0  0  0  0  0  0
   31.4722   20.0612   16.1821 O   0  0  0  0  0  0  0  0  0  0  0  0
   32.6693   19.1127   19.2368 C   0  0  0  0  0  0  0  0  0  0  0  0
   33.7221   18.4487   18.3591 C   0  0  0  0  0  0  0  0  0  0  0  0
   35.1276   17.8229   19.3138 S   0  0  0  0  0  0  0  0  0  0  0  0
   36.0239   19.3669   19.0124 C   0  0  0  0  0  0  0  0  0  0  0  0
   36.0362   20.2869   20.2276 C   0  0  1  0  0  0  0  0  0  0  0  0
   37.2310   21.0467   20.2464 O   0  0  0  0  0  0  0  0  0  0  0  0
   34.8680   21.2590   20.2042 C   0  0  1  0  0  0  0  0  0  0  0  0
   34.0232   21.0222   21.3054 O   0  0  0  0  0  0  0  0  0  0  0  0
   35.4781   22.6415   20.3057 C   0  0  1  0  0  0  0  0  0  0  0  0
   34.9734   23.3113   21.4376 O   0  0  0  0  0  0  0  0  0  0  0  0
   36.9744   22.4235   20.4511 C   0  0  2  0  0  0  0  0  0  0  0  0
   32.1190   21.5359   17.5465 O   0  0  0  0  0  0  0  0  0  0  0  0
   40.6881   22.4367   16.7395 N   0  0  0  0  0  0  0  0  0  0  0  0
   40.2691   21.3782   17.5202 C   0  0  0  0  0  0  0  0  0  0  0  0
   39.2697   21.5576   18.4560 N   0  0  0  0  0  0  0  0  0  0  0  0
   38.6935   22.7737   18.6168 C   0  0  0  0  0  0  0  0  0  0  0  0
   39.1016   23.8506   17.8416 C   0  0  0  0  0  0  0  0  0  0  0  0
   40.1061   23.6783   16.8969 C   0  0  0  0  0  0  0  0  0  0  0  0
   40.5057   24.7029   16.1494 N   0  0  0  0  0  0  0  0  0  0  0  0
   38.3695   24.9258   18.2052 N   0  0  0  0  0  0  0  0  0  0  0  0
   37.5133   24.5579   19.1860 C   0  0  0  0  0  0  0  0  0  0  0  0
   37.7024   23.2262   19.4519 N   0  0  0  0  0  0  0  0  0  0  0  0
  2  1  1  6  0  0  0
  2  3  1  0  0  0  0
  2  5  1  0  0  0  0
  3  4  1  0  0  0  0
  3 16  1  0  0  0  0
  5  6  1  0  0  0  0
  6  7  1  0  0  0  0
  7  8  1  0  0  0  0
  9  8  1  6  0  0  0
  9 10  1  0  0  0  0
  9 11  1  0  0  0  0
 10 15  1  0  0  0  0
 11 12  1  1  0  0  0
 11 13  1  0  0  0  0
 13 14  1  1  0  0  0
 13 15  1  0  0  0  0
 15 26  1  6  0  0  0
 17 18  2  0  0  0  0
 17 22  1  0  0  0  0
 18 19  1  0  0  0  0
 19 20  2  0  0  0  0
 20 21  1  0  0  0  0
 20 26  1  0  0  0  0
 21 22  2  0  0  0  0
 21 24  1  0  0  0  0
 22 23  1  0  0  0  0
 24 25  2  0  0  0  0
 25 26  1  0  0  0  0
M  END
>  <CHROM.1>
-6.80957616,64.09045304,-171.10980579,-94.07831284,103.62888765,148.75143328
-12.44608705,35.88335333,21.30336207,18.77764004,-2.77726760,0.40017028,0.65677416

>  <Name>
ligand

>  <RI>
0

>  <Rbt.Current_Directory>
/home/itssahil/PROJECTS/Mol_Feturizer/New_Systems/rnas/3NPQ

>  <Rbt.Executable>
rbdock ($Id: //depot/dev/client3/rdock/2013.1/src/exe/rbdock.cxx#4 $)

>  <Rbt.Library>
libRbt.so (2013.1, Build901 2013/11/27)

>  <Rbt.Parameter_File>
/export/apps/rDock/src/rDock_2013.1_src/data/scripts/dock_solv.prm

>  <Rbt.Receptor>
prm/blind_docking_100.prm

>  <SCORE>
-5.51833

>  <SCORE.INTER>
-5.63636

>  <SCORE.INTER.CONST>
1

>  <SCORE.INTER.POLAR>
0

>  <SCORE.INTER.ROT>
7

>  <SCORE.INTER.SOLV>
7.49564

>  <SCORE.INTER.VDW>
-14.5228

>  <SCORE.INTER.norm>
-0.216783

>  <SCORE.INTRA>
0.118033

>  <SCORE.INTRA.DIHEDRAL>
2.29592

>  <SCORE.INTRA.DIHEDRAL.0>
6.97628

>  <SCORE.INTRA.POLAR>
0

>  <SCORE.INTRA.POLAR.0>
0

>  <SCORE.INTRA.REPUL>
0

>  <SCORE.INTRA.REPUL.0>
0

>  <SCORE.INTRA.SOLV>
0.203347

>  <SCORE.INTRA.SOLV.lig_0>
-49.8243

>  <SCORE.INTRA.VDW>
-1.1316

>  <SCORE.INTRA.VDW.0>
-1.35881

>  <SCORE.INTRA.norm>
0.00453973

>  <SCORE.RESTR>
0

>  <SCORE.RESTR.CAVITY>
0

>  <SCORE.RESTR.norm>
0

>  <SCORE.SYSTEM>
0

>  <SCORE.SYSTEM.CONST>
0

>  <SCORE.SYSTEM.DIHEDRAL>
0

>  <SCORE.SYSTEM.SOLV>
0

>  <SCORE.SYSTEM.norm>
0

>  <SCORE.heavy>
26

>  <SCORE.norm>
-0.212243

>  <RMSD>
15.498

$$$$
ligand
 OpenBabel11021811483D
libRbt.so/2013.1/901 2013/11/27
 26 28  0  0  0  0  0  0  0  0999 V2000
   38.3267   25.2219   16.3302 N   0  0  0  0  0  0  0  0  0  0  0  0
   37.9527   24.0984   17.1801 C   0  0  2  0  0  0  0  0  0  0  0  0
   39.0949   23.0956   17.2979 C   0  0  0  0  0  0  0  0  0  0  0  0
   38.9661   22.0632   17.9547 O   0  0  0  0  0  0  0  0  0  0  0  0
   36.7069   23.4098   16.6370 C   0  0  0  0  0  0  0  0  0  0  0  0
   35.4344   24.2376   16.7600 C   0  0  0  0  0  0  0  0  0  0  0  0
   34.9992   24.5897   18.4820 S   0  0  0  0  0  0  0  0  0  0  0  0
   34.4520   22.8772   18.6971 C   0  0  0  0  0  0  0  0  0  0  0  0
   34.3096   22.4848   20.1631 C   0  0  1  0  0  0  0  0  0  0  0  0
   34.2187   21.0766   20.2798 O   0  0  0  0  0  0  0  0  0  0  0  0
   35.5051   22.9426   20.9826 C   0  0  1  0  0  0  0  0  0  0  0  0
   35.0945   23.8790   21.9505 O   0  0  0  0  0  0  0  0  0  0  0  0
   36.0435   21.6989   21.6590 C   0  0  1  0  0  0  0  0  0  0  0  0
   36.0360   21.8670   23.0576 O   0  0  0  0  0  0  0  0  0  0  0  0
   35.1040   20.5730   21.2626 C   0  0  2  0  0  0  0  0  0  0  0  0
   40.1737   23.2945   16.7382 O   0  0  0  0  0  0  0  0  0  0  0  0
   35.0777   16.4568   18.0032 N   0  0  0  0  0  0  0  0  0  0  0  0
   34.0566   17.3517   18.2519 C   0  0  0  0  0  0  0  0  0  0  0  0
   34.2410   18.3849   19.1494 N   0  0  0  0  0  0  0  0  0  0  0  0
   35.4246   18.5277   19.7941 C   0  0  0  0  0  0  0  0  0  0  0  0
   36.4633   17.6376   19.5578 C   0  0  0  0  0  0  0  0  0  0  0  0
   36.2862   16.5956   18.6555 C   0  0  0  0  0  0  0  0  0  0  0  0
   37.2738   15.7364   18.4219 N   0  0  0  0  0  0  0  0  0  0  0  0
   37.5123   18.0102   20.3225 N   0  0  0  0  0  0  0  0  0  0  0  0
   37.1648   19.1078   21.0330 C   0  0  0  0  0  0  0  0  0  0  0  0
   35.8731   19.4406   20.7159 N   0  0  0  0  0  0  0  0  0  0  0  0
  2  1  1  6  0  0  0
  2  3  1  0  0  0  0
  2  5  1  0  0  0  0
  3  4  1  0  0  0  0
  3 16  1  0  0  0  0
  5  6  1  0  0  0  0
  6  7  1  0  0  0  0
  7  8  1  0  0  0  0
  9  8  1  6  0  0  0
  9 10  1  0  0  0  0
  9 11  1  0  0  0  0
 10 15  1  0  0  0  0
 11 12  1  1  0  0  0
 11 13  1  0  0  0  0
 13 14  1  1  0  0  0
 13 15  1  0  0  0  0
 15 26  1  6  0  0  0
 17 18  2  0  0  0  0
 17 22  1  0  0  0  0
 18 19  1  0  0  0  0
 19 20  2  0  0  0  0
 20 21  1  0  0  0  0
 20 26  1  0  0  0  0
 21 22  2  0  0  0  0
 21 24  1  0  0  0  0
 22 23  1  0  0  0  0
 24 25  2  0  0  0  0
 25 26  1  0  0  0  0
M  END
>  <CHROM.1>
-178.65540915,-69.40933457,-62.66304211,-74.12502854,163.91434118,-165.13739499
-33.11112848,36.18136060,21.21601579,19.18087424,-1.30618228,-0.88731554
3.10620952

>  <Name>
ligand

>  <RI>
0

>  <Rbt.Current_Directory>
/home/itssahil/PROJECTS/Mol_Feturizer/New_Systems/rnas/3NPQ

>  <Rbt.Executable>
rbdock ($Id: //depot/dev/client3/rdock/2013.1/src/exe/rbdock.cxx#4 $)

>  <Rbt.Library>
libRbt.so (2013.1, Build901 2013/11/27)

>  <Rbt.Parameter_File>
/export/apps/rDock/src/rDock_2013.1_src/data/scripts/dock_solv.prm

>  <Rbt.Receptor>
prm/blind_docking_60.prm

>  <SCORE>
-8.36829

>  <SCORE.INTER>
-8.34706

>  <SCORE.INTER.CONST>
1

>  <SCORE.INTER.POLAR>
0

>  <SCORE.INTER.ROT>
7

>  <SCORE.INTER.SOLV>
9.99857

>  <SCORE.INTER.VDW>
-17.1642

>  <SCORE.INTER.norm>
-0.321041

>  <SCORE.INTRA>
-0.863411

>  <SCORE.INTRA.DIHEDRAL>
-2.44333

>  <SCORE.INTRA.DIHEDRAL.0>
6.97628

>  <SCORE.INTRA.POLAR>
0

>  <SCORE.INTRA.POLAR.0>
0

>  <SCORE.INTRA.REPUL>
0

>  <SCORE.INTRA.REPUL.0>
0

>  <SCORE.INTRA.SOLV>
0.434044

>  <SCORE.INTRA.SOLV.lig_0>
-49.8243

>  <SCORE.INTRA.VDW>
0.14123

>  <SCORE.INTRA.VDW.0>
-1.35881

>  <SCORE.INTRA.norm>
-0.0332081

>  <SCORE.RESTR>
0.842181

>  <SCORE.RESTR.CAVITY>
0.842181

>  <SCORE.RESTR.norm>
0.0323916

>  <SCORE.SYSTEM>
0

>  <SCORE.SYSTEM.CONST>
0

>  <SCORE.SYSTEM.DIHEDRAL>
0

>  <SCORE.SYSTEM.SOLV>
0

>  <SCORE.SYSTEM.norm>
0

>  <SCORE.heavy>
26

>  <SCORE.norm>
-0.321857

>  <RMSD>
15.501

$$$$
ligand
 OpenBabel11021811483D
libRbt.so/2013.1/901 2013/11/27
 26 28  0  0  0  0  0  0  0  0999 V2000
   29.1775   12.9888    2.8156 N   0  0  0  0  0  0  0  0  0  0  0  0
   28.9850   12.4230    4.1450 C   0  0  2  0  0  0  0  0  0  0  0  0
   30.0036   11.3244    4.4265 C   0  0  0  0  0  0  0  0  0  0  0  0
   30.5856   10.7497    3.5073 O   0  0  0  0  0  0  0  0  0  0  0  0
   27.5712   11.8747    4.2921 C   0  0  0  0  0  0  0  0  0  0  0  0
   26.4814   12.9365    4.2230 C   0  0  0  0  0  0  0  0  0  0  0  0
   24.8174   12.2318    4.3364 S   0  0  0  0  0  0  0  0  0  0  0  0
   24.5422   13.1230    5.8882 C   0  0  0  0  0  0  0  0  0  0  0  0
   23.7850   14.4308    5.6894 C   0  0  1  0  0  0  0  0  0  0  0  0
   23.2948   14.8991    6.9325 O   0  0  0  0  0  0  0  0  0  0  0  0
   24.6804   15.5117    5.1062 C   0  0  1  0  0  0  0  0  0  0  0  0
   24.2082   15.8939    3.8361 O   0  0  0  0  0  0  0  0  0  0  0  0
   24.5955   16.6810    6.0651 C   0  0  1  0  0  0  0  0  0  0  0  0
   24.1294   17.8267    5.3910 O   0  0  0  0  0  0  0  0  0  0  0  0
   23.6032   16.2652    7.1375 C   0  0  2  0  0  0  0  0  0  0  0  0
   30.2689   10.9860    5.5806 O   0  0  0  0  0  0  0  0  0  0  0  0
   24.8326   19.7006   10.9129 N   0  0  0  0  0  0  0  0  0  0  0  0
   24.2329   19.9527    9.6954 C   0  0  0  0  0  0  0  0  0  0  0  0
   23.9817   18.9176    8.8167 N   0  0  0  0  0  0  0  0  0  0  0  0
   24.3230   17.6467    9.1413 C   0  0  0  0  0  0  0  0  0  0  0  0
   24.9275   17.3731   10.3607 C   0  0  0  0  0  0  0  0  0  0  0  0
   25.1829   18.4091   11.2511 C   0  0  0  0  0  0  0  0  0  0  0  0
   25.7623   18.1589   12.4216 N   0  0  0  0  0  0  0  0  0  0  0  0
   25.1555   16.0434   10.4227 N   0  0  0  0  0  0  0  0  0  0  0  0
   24.7131   15.4722    9.2789 C   0  0  0  0  0  0  0  0  0  0  0  0
   24.1941   16.4538    8.4746 N   0  0  0  0  0  0  0  0  0  0  0  0
  2  1  1  6  0  0  0
  2  3  1  0  0  0  0
  2  5  1  0  0  0  0
  3  4  1  0  0  0  0
  3 16  1  0  0  0  0
  5  6  1  0  0  0  0
  6  7  1  0  0  0  0
  7  8  1  0  0  0  0
  9  8  1  1  0  0  0
  9 10  1  0  0  0  0
  9 11  1  0  0  0  0
 10 15  1  0  0  0  0
 11 12  1  6  0  0  0
 11 13  1  0  0  0  0
 13 14  1  6  0  0  0
 13 15  1  0  0  0  0
 15 26  1  1  0  0  0
 17 18  2  0  0  0  0
 17 22  1  0  0  0  0
 18 19  1  0  0  0  0
 19 20  2  0  0  0  0
 20 21  1  0  0  0  0
 20 26  1  0  0  0  0
 21 22  2  0  0  0  0
 21 24  1  0  0  0  0
 22 23  1  0  0  0  0
 24 25  2  0  0  0  0
 25 26  1  0  0  0  0
M  END
>  <CHROM.1>
-20.78812141,-65.04855880,177.72164907,116.51678406,97.08701270,164.64348099
-163.52467015,25.68447881,15.09565763,6.70407601,-1.08958158,-0.49024623
0.98690485

>  <Name>
ligand

>  <RI>
0

>  <Rbt.Current_Directory>
/home/itssahil/PROJECTS/Mol_Feturizer/New_Systems/rnas/3NPQ

>  <Rbt.Executable>
rbdock ($Id: //depot/dev/client3/rdock/2013.1/src/exe/rbdock.cxx#4 $)

>  <Rbt.Library>
libRbt.so (2013.1, Build901 2013/11/27)

>  <Rbt.Parameter_File>
/export/apps/rDock/src/rDock_2013.1_src/data/scripts/dock_solv.prm

>  <Rbt.Receptor>
prm/blind_docking_100.prm

>  <SCORE>
-5.98462

>  <SCORE.INTER>
-5.89468

>  <SCORE.INTER.CONST>
1

>  <SCORE.INTER.POLAR>
0

>  <SCORE.INTER.ROT>
7

>  <SCORE.INTER.SOLV>
12.9392

>  <SCORE.INTER.VDW>
-16.5095

>  <SCORE.INTER.norm>
-0.226719

>  <SCORE.INTRA>
-0.762478

>  <SCORE.INTRA.DIHEDRAL>
0.643625

>  <SCORE.INTRA.DIHEDRAL.0>
6.97628

>  <SCORE.INTRA.POLAR>
0

>  <SCORE.INTRA.POLAR.0>
0

>  <SCORE.INTRA.REPUL>
0

>  <SCORE.INTRA.REPUL.0>
0

>  <SCORE.INTRA.SOLV>
-0.0619368

>  <SCORE.INTRA.SOLV.lig_0>
-49.8243

>  <SCORE.INTRA.VDW>
-1.05332

>  <SCORE.INTRA.VDW.0>
-1.35881

>  <SCORE.INTRA.norm>
-0.0293261

>  <SCORE.RESTR>
0.672537

>  <SCORE.RESTR.CAVITY>
0.672537

>  <SCORE.RESTR.norm>
0.0258668

>  <SCORE.SYSTEM>
0

>  <SCORE.SYSTEM.CONST>
0

>  <SCORE.SYSTEM.DIHEDRAL>
0

>  <SCORE.SYSTEM.SOLV>
0

>  <SCORE.SYSTEM.norm>
0

>  <SCORE.heavy>
26

>  <SCORE.norm>
-0.230178

>  <RMSD>
15.504

$$$$
ligand
 OpenBabel11021811483D
libRbt.so/2013.1/901 2013/11/27
 26 28  0  0  0  0  0  0  0  0999 V2000
   37.6143   20.1218   17.9433 N   0  0  0  0  0  0  0  0  0  0  0  0
   37.4058   21.5312   18.2511 C   0  0  2  0  0  0  0  0  0  0  0  0
   38.6774   22.3383   18.0149 C   0  0  0  0  0  0  0  0  0  0  0  0
   39.7631   21.9495   18.4437 O   0  0  0  0  0  0  0  0  0  0  0  0
   36.9403   21.6996   19.6920 C   0  0  0  0  0  0  0  0  0  0  0  0
   35.5413   21.1610   19.9612 C   0  0  0  0  0  0  0  0  0  0  0  0
   35.4184   19.3766   19.6797 S   0  0  0  0  0  0  0  0  0  0  0  0
   33.8233   19.3483   20.5359 C   0  0  0  0  0  0  0  0  0  0  0  0
   32.6651   19.7635   19.6361 C   0  0  1  0  0  0  0  0  0  0  0  0
   32.5805   21.1757   19.5780 O   0  0  0  0  0  0  0  0  0  0  0  0
   32.8483   19.2504   18.2172 C   0  0  1  0  0  0  0  0  0  0  0  0
   31.8167   18.3480   17.8951 O   0  0  0  0  0  0  0  0  0  0  0  0
   32.7690   20.4702   17.3228 C   0  0  1  0  0  0  0  0  0  0  0  0
   31.7267   20.3176   16.3877 O   0  0  0  0  0  0  0  0  0  0  0  0
   32.4769   21.6411   18.2454 C   0  0  2  0  0  0  0  0  0  0  0  0
   38.6484   23.3984   17.3887 O   0  0  0  0  0  0  0  0  0  0  0  0
   36.2108   23.5378   15.0788 N   0  0  0  0  0  0  0  0  0  0  0  0
   35.4720   22.3818   14.9260 C   0  0  0  0  0  0  0  0  0  0  0  0
   34.5221   22.0346   15.8662 N   0  0  0  0  0  0  0  0  0  0  0  0
   34.3086   22.8245   16.9467 C   0  0  0  0  0  0  0  0  0  0  0  0
   35.0419   23.9907   17.1182 C   0  0  0  0  0  0  0  0  0  0  0  0
   35.9991   24.3477   16.1761 C   0  0  0  0  0  0  0  0  0  0  0  0
   36.7081   25.4620   16.3306 N   0  0  0  0  0  0  0  0  0  0  0  0
   34.6295   24.5766   18.2631 N   0  0  0  0  0  0  0  0  0  0  0  0
   33.6591   23.8140   18.8173 C   0  0  0  0  0  0  0  0  0  0  0  0
   33.4491   22.7242   18.0123 N   0  0  0  0  0  0  0  0  0  0  0  0
  2  1  1  1  0  0  0
  2  3  1  0  0  0  0
  2  5  1  0  0  0  0
  3  4  1  0  0  0  0
  3 16  1  0  0  0  0
  5  6  1  0  0  0  0
  6  7  1  0  0  0  0
  7  8  1  0  0  0  0
  9  8  1  1  0  0  0
  9 10  1  0  0  0  0
  9 11  1  0  0  0  0
 10 15  1  0  0  0  0
 11 12  1  6  0  0  0
 11 13  1  0  0  0  0
 13 14  1  6  0  0  0
 13 15  1  0  0  0  0
 15 26  1  1  0  0  0
 17 18  2  0  0  0  0
 17 22  1  0  0  0  0
 18 19  1  0  0  0  0
 19 20  2  0  0  0  0
 20 21  1  0  0  0  0
 20 26  1  0  0  0  0
 21 22  2  0  0  0  0
 21 24  1  0  0  0  0
 22 23  1  0  0  0  0
 24 25  2  0  0  0  0
 25 26  1  0  0  0  0
M  END
>  <CHROM.1>
-47.21067505,-68.27857532,62.29491075,166.39592080,82.16657885,-82.43913743
131.95034465,35.04562950,21.66171641,17.98489802,-0.65452182,0.20582783,2.48141391

>  <Name>
ligand

>  <RI>
0

>  <Rbt.Current_Directory>
/home/itssahil/PROJECTS/Mol_Feturizer/New_Systems/rnas/3NPQ

>  <Rbt.Executable>
rbdock ($Id: //depot/dev/client3/rdock/2013.1/src/exe/rbdock.cxx#4 $)

>  <Rbt.Library>
libRbt.so (2013.1, Build901 2013/11/27)

>  <Rbt.Parameter_File>
/export/apps/rDock/src/rDock_2013.1_src/data/scripts/dock_solv.prm

>  <Rbt.Receptor>
prm/blind_docking_100.prm

>  <SCORE>
-9.98184

>  <SCORE.INTER>
-7.88766

>  <SCORE.INTER.CONST>
1

>  <SCORE.INTER.POLAR>
0

>  <SCORE.INTER.ROT>
7

>  <SCORE.INTER.SOLV>
7.65829

>  <SCORE.INTER.VDW>
-16.0779

>  <SCORE.INTER.norm>
-0.303372

>  <SCORE.INTRA>
-2.09417

>  <SCORE.INTRA.DIHEDRAL>
-1.37601

>  <SCORE.INTRA.DIHEDRAL.0>
6.97628

>  <SCORE.INTRA.POLAR>
0

>  <SCORE.INTRA.POLAR.0>
0

>  <SCORE.INTRA.REPUL>
0

>  <SCORE.INTRA.REPUL.0>
0

>  <SCORE.INTRA.SOLV>
2.6878

>  <SCORE.INTRA.SOLV.lig_0>
-49.8243

>  <SCORE.INTRA.VDW>
-2.75007

>  <SCORE.INTRA.VDW.0>
-1.35881

>  <SCORE.INTRA.norm>
-0.0805451

>  <SCORE.RESTR>
0

>  <SCORE.RESTR.CAVITY>
0

>  <SCORE.RESTR.norm>
0

>  <SCORE.SYSTEM>
0

>  <SCORE.SYSTEM.CONST>
0

>  <SCORE.SYSTEM.DIHEDRAL>
0

>  <SCORE.SYSTEM.SOLV>
0

>  <SCORE.SYSTEM.norm>
0

>  <SCORE.heavy>
26

>  <SCORE.norm>
-0.383917

>  <RMSD>
15.513

$$$$
ligand
 OpenBabel11021811483D
libRbt.so/2013.1/901 2013/11/27
 26 28  0  0  0  0  0  0  0  0999 V2000
   34.2770    1.6711    7.4381 N   0  0  0  0  0  0  0  0  0  0  0  0
   33.8572    0.2999    7.1769 C   0  0  2  0  0  0  0  0  0  0  0  0
   33.8640   -0.5290    8.4562 C   0  0  0  0  0  0  0  0  0  0  0  0
   34.5388   -0.1894    9.4274 O   0  0  0  0  0  0  0  0  0  0  0  0
   34.7594   -0.3446    6.1320 C   0  0  0  0  0  0  0  0  0  0  0  0
   36.1519   -0.6928    6.6414 C   0  0  0  0  0  0  0  0  0  0  0  0
   37.0606    0.7601    7.2260 S   0  0  0  0  0  0  0  0  0  0  0  0
   38.4556   -0.2959    7.6917 C   0  0  0  0  0  0  0  0  0  0  0  0
   39.3539   -0.6396    6.5092 C   0  0  1  0  0  0  0  0  0  0  0  0
   40.2352    0.4362    6.2430 O   0  0  0  0  0  0  0  0  0  0  0  0
   40.1973   -1.8729    6.7884 C   0  0  1  0  0  0  0  0  0  0  0  0
   39.8565   -2.9020    5.8900 O   0  0  0  0  0  0  0  0  0  0  0  0
   41.6349   -1.4487    6.5707 C   0  0  1  0  0  0  0  0  0  0  0  0
   42.2309   -2.2505    5.5775 O   0  0  0  0  0  0  0  0  0  0  0  0
   41.5741   -0.0029    6.1088 C   0  0  2  0  0  0  0  0  0  0  0  0
   33.1938   -1.5582    8.5486 O   0  0  0  0  0  0  0  0  0  0  0  0
   45.0010    0.0940   10.0855 N   0  0  0  0  0  0  0  0  0  0  0  0
   44.3233   -0.9937    9.5725 C   0  0  0  0  0  0  0  0  0  0  0  0
   43.4518   -0.8334    8.5135 N   0  0  0  0  0  0  0  0  0  0  0  0
   43.2535    0.3924    7.9704 C   0  0  0  0  0  0  0  0  0  0  0  0
   43.9254    1.4986    8.4727 C   0  0  0  0  0  0  0  0  0  0  0  0
   44.8049    1.3456    9.5377 C   0  0  0  0  0  0  0  0  0  0  0  0
   45.4531    2.3982   10.0276 N   0  0  0  0  0  0  0  0  0  0  0  0
   43.5456    2.5773    7.7543 N   0  0  0  0  0  0  0  0  0  0  0  0
   42.6549    2.1833    6.8152 C   0  0  0  0  0  0  0  0  0  0  0  0
   42.4638    0.8310    6.9369 N   0  0  0  0  0  0  0  0  0  0  0  0
  2  1  1  1  0  0  0
  2  3  1  0  0  0  0
  2  5  1  0  0  0  0
  3  4  1  0  0  0  0
  3 16  1  0  0  0  0
  5  6  1  0  0  0  0
  6  7  1  0  0  0  0
  7  8  1  0  0  0  0
  9  8  1  1  0  0  0
  9 10  1  0  0  0  0
  9 11  1  0  0  0  0
 10 15  1  0  0  0  0
 11 12  1  6  0  0  0
 11 13  1  0  0  0  0
 13 14  1  6  0  0  0
 13 15  1  0  0  0  0
 15 26  1  1  0  0  0
 17 18  2  0  0  0  0
 17 22  1  0  0  0  0
 18 19  1  0  0  0  0
 19 20  2  0  0  0  0
 20 21  1  0  0  0  0
 20 26  1  0  0  0  0
 21 22  2  0  0  0  0
 21 24  1  0  0  0  0
 22 23  1  0  0  0  0
 24 25  2  0  0  0  0
 25 26  1  0  0  0  0
M  END
>  <CHROM.1>
-21.49057746,72.89629246,-60.08121652,178.21253924,81.49884444,80.46502232
119.19225096,39.75037987,-0.01137100,7.57369587,3.01659405,0.00912140,-2.46129491

>  <Name>
ligand

>  <RI>
0

>  <Rbt.Current_Directory>
/home/itssahil/PROJECTS/Mol_Feturizer/New_Systems/rnas/3NPQ

>  <Rbt.Executable>
rbdock ($Id: //depot/dev/client3/rdock/2013.1/src/exe/rbdock.cxx#4 $)

>  <Rbt.Library>
libRbt.so (2013.1, Build901 2013/11/27)

>  <Rbt.Parameter_File>
/export/apps/rDock/src/rDock_2013.1_src/data/scripts/dock_solv.prm

>  <Rbt.Receptor>
prm/blind_docking_80.prm

>  <SCORE>
-7.39986

>  <SCORE.INTER>
-8.29323

>  <SCORE.INTER.CONST>
1

>  <SCORE.INTER.POLAR>
0

>  <SCORE.INTER.ROT>
7

>  <SCORE.INTER.SOLV>
8.61371

>  <SCORE.INTER.VDW>
-16.6667

>  <SCORE.INTER.norm>
-0.31897

>  <SCORE.INTRA>
-0.0609598

>  <SCORE.INTRA.DIHEDRAL>
-1.61955

>  <SCORE.INTRA.DIHEDRAL.0>
6.97628

>  <SCORE.INTRA.POLAR>
0

>  <SCORE.INTRA.POLAR.0>
0

>  <SCORE.INTRA.REPUL>
0

>  <SCORE.INTRA.REPUL.0>
0

>  <SCORE.INTRA.SOLV>
1.18787

>  <SCORE.INTRA.SOLV.lig_0>
-49.8243

>  <SCORE.INTRA.VDW>
0.154884

>  <SCORE.INTRA.VDW.0>
-1.35881

>  <SCORE.INTRA.norm>
-0.00234461

>  <SCORE.RESTR>
0.954334

>  <SCORE.RESTR.CAVITY>
0.954334

>  <SCORE.RESTR.norm>
0.0367052

>  <SCORE.SYSTEM>
0

>  <SCORE.SYSTEM.CONST>
0

>  <SCORE.SYSTEM.DIHEDRAL>
0

>  <SCORE.SYSTEM.SOLV>
0

>  <SCORE.SYSTEM.norm>
0

>  <SCORE.heavy>
26

>  <SCORE.norm>
-0.28461

>  <RMSD>
15.530

$$$$
ligand
 OpenBabel11021811483D
libRbt.so/2013.1/901 2013/11/27
 26 28  0  0  0  0  0  0  0  0999 V2000
   32.6075   16.0591   18.5001 N   0  0  0  0  0  0  0  0  0  0  0  0
   32.6544   17.3102   19.2464 C   0  0  2  0  0  0  0  0  0  0  0  0
   34.0785   17.6364   19.6816 C   0  0  0  0  0  0  0  0  0  0  0  0
   34.6653   16.9355   20.5053 O   0  0  0  0  0  0  0  0  0  0  0  0
   31.7394   17.2408   20.4626 C   0  0  0  0  0  0  0  0  0  0  0  0
   31.4733   18.5891   21.1191 C   0  0  0  0  0  0  0  0  0  0  0  0
   32.8033   19.0895   22.2411 S   0  0  0  0  0  0  0  0  0  0  0  0
   33.2444   20.4414   21.1204 C   0  0  0  0  0  0  0  0  0  0  0  0
   34.4512   21.2369   21.6043 C   0  0  1  0  0  0  0  0  0  0  0  0
   35.6048   20.4158   21.5991 O   0  0  0  0  0  0  0  0  0  0  0  0
   34.7280   22.4326   20.7077 C   0  0  1  0  0  0  0  0  0  0  0  0
   34.5685   23.6269   21.4360 O   0  0  0  0  0  0  0  0  0  0  0  0
   36.1668   22.2875   20.2573 C   0  0  1  0  0  0  0  0  0  0  0  0
   36.9111   23.4197   20.6427 O   0  0  0  0  0  0  0  0  0  0  0  0
   36.6970   21.0491   20.9592 C   0  0  2  0  0  0  0  0  0  0  0  0
   34.6761   18.6088   19.2189 O   0  0  0  0  0  0  0  0  0  0  0  0
   38.3001   16.1448   19.9871 N   0  0  0  0  0  0  0  0  0  0  0  0
   37.7294   16.6403   21.1422 C   0  0  0  0  0  0  0  0  0  0  0  0
   37.3653   17.9698   21.2227 N   0  0  0  0  0  0  0  0  0  0  0  0
   37.5666   18.7991   20.1697 C   0  0  0  0  0  0  0  0  0  0  0  0
   38.1396   18.3197   18.9997 C   0  0  0  0  0  0  0  0  0  0  0  0
   38.5080   16.9827   18.9102 C   0  0  0  0  0  0  0  0  0  0  0  0
   39.0585   16.5128   17.7948 N   0  0  0  0  0  0  0  0  0  0  0  0
   38.2214   19.3463   18.1259 N   0  0  0  0  0  0  0  0  0  0  0  0
   37.7173   20.4571   18.7109 C   0  0  0  0  0  0  0  0  0  0  0  0
   37.3072   20.1334   19.9786 N   0  0  0  0  0  0  0  0  0  0  0  0
  2  1  1  1  0  0  0
  2  3  1  0  0  0  0
  2  5  1  0  0  0  0
  3  4  1  0  0  0  0
  3 16  1  0  0  0  0
  5  6  1  0  0  0  0
  6  7  1  0  0  0  0
  7  8  1  0  0  0  0
  9  8  1  6  0  0  0
  9 10  1  0  0  0  0
  9 11  1  0  0  0  0
 10 15  1  0  0  0  0
 11 12  1  1  0  0  0
 11 13  1  0  0  0  0
 13 14  1  1  0  0  0
 13 15  1  0  0  0  0
 15 26  1  6  0  0  0
 17 18  2  0  0  0  0
 17 22  1  0  0  0  0
 18 19  1  0  0  0  0
 19 20  2  0  0  0  0
 20 21  1  0  0  0  0
 20 26  1  0  0  0  0
 21 22  2  0  0  0  0
 21 24  1  0  0  0  0
 22 23  1  0  0  0  0
 24 25  2  0  0  0  0
 25 26  1  0  0  0  0
M  END
>  <CHROM.1>
-66.72727076,-166.66364090,-82.10531085,112.33149849,-177.95324630,65.18379657
-43.14298629,35.46296449,19.18725389,20.29347567,2.60424875,0.26238310,0.25959434

>  <Name>
ligand

>  <RI>
0

>  <Rbt.Current_Directory>
/home/itssahil/PROJECTS/Mol_Feturizer/New_Systems/rnas/3NPQ

>  <Rbt.Executable>
rbdock ($Id: //depot/dev/client3/rdock/2013.1/src/exe/rbdock.cxx#4 $)

>  <Rbt.Library>
libRbt.so (2013.1, Build901 2013/11/27)

>  <Rbt.Parameter_File>
/export/apps/rDock/src/rDock_2013.1_src/data/scripts/dock_solv.prm

>  <Rbt.Receptor>
prm/blind_docking_60.prm

>  <SCORE>
-14.5044

>  <SCORE.INTER>
-11.0416

>  <SCORE.INTER.CONST>
1

>  <SCORE.INTER.POLAR>
0

>  <SCORE.INTER.ROT>
7

>  <SCORE.INTER.SOLV>
10.5828

>  <SCORE.INTER.VDW>
-19.1553

>  <SCORE.INTER.norm>
-0.424677

>  <SCORE.INTRA>
-3.62828

>  <SCORE.INTRA.DIHEDRAL>
0.416157

>  <SCORE.INTRA.DIHEDRAL.0>
6.97628

>  <SCORE.INTRA.POLAR>
0

>  <SCORE.INTRA.POLAR.0>
0

>  <SCORE.INTRA.REPUL>
0

>  <SCORE.INTRA.REPUL.0>
0

>  <SCORE.INTRA.SOLV>
-0.637586

>  <SCORE.INTRA.SOLV.lig_0>
-49.8243

>  <SCORE.INTRA.VDW>
-3.51757

>  <SCORE.INTRA.VDW.0>
-1.35881

>  <SCORE.INTRA.norm>
-0.139549

>  <SCORE.RESTR>
0.165464

>  <SCORE.RESTR.CAVITY>
0.165464

>  <SCORE.RESTR.norm>
0.00636399

>  <SCORE.SYSTEM>
0

>  <SCORE.SYSTEM.CONST>
0

>  <SCORE.SYSTEM.DIHEDRAL>
0

>  <SCORE.SYSTEM.SOLV>
0

>  <SCORE.SYSTEM.norm>
0

>  <SCORE.heavy>
26

>  <SCORE.norm>
-0.557862

>  <RMSD>
15.531

$$$$
ligand
 OpenBabel11021811483D
libRbt.so/2013.1/901 2013/11/27
 26 28  0  0  0  0  0  0  0  0999 V2000
   36.8066   16.0159   18.2990 N   0  0  0  0  0  0  0  0  0  0  0  0
   37.8301   16.3601   19.2780 C   0  0  2  0  0  0  0  0  0  0  0  0
   37.2113   16.6431   20.6422 C   0  0  0  0  0  0  0  0  0  0  0  0
   36.0109   16.4627   20.8429 O   0  0  0  0  0  0  0  0  0  0  0  0
   38.6336   17.5664   18.8085 C   0  0  0  0  0  0  0  0  0  0  0  0
   37.8272   18.8555   18.7204 C   0  0  0  0  0  0  0  0  0  0  0  0
   38.8379   20.2741   18.2259 S   0  0  0  0  0  0  0  0  0  0  0  0
   37.4979   21.3969   18.6970 C   0  0  0  0  0  0  0  0  0  0  0  0
   36.8610   22.0889   17.4975 C   0  0  1  0  0  0  0  0  0  0  0  0
   35.8745   21.2507   16.9238 O   0  0  0  0  0  0  0  0  0  0  0  0
   36.1882   23.3921   17.8968 C   0  0  1  0  0  0  0  0  0  0  0  0
   36.8226   24.4756   17.2596 O   0  0  0  0  0  0  0  0  0  0  0  0
   34.7539   23.2790   17.4236 C   0  0  1  0  0  0  0  0  0  0  0  0
   34.4539   24.3285   16.5332 O   0  0  0  0  0  0  0  0  0  0  0  0
   34.6588   21.9425   16.7077 C   0  0  2  0  0  0  0  0  0  0  0  0
   37.8982   17.0585   21.5763 O   0  0  0  0  0  0  0  0  0  0  0  0
   32.4148   19.9112   20.9979 N   0  0  0  0  0  0  0  0  0  0  0  0
   33.5795   20.6474   20.9143 C   0  0  0  0  0  0  0  0  0  0  0  0
   34.0254   21.1064   19.6906 N   0  0  0  0  0  0  0  0  0  0  0  0
   33.3246   20.8367   18.5623 C   0  0  0  0  0  0  0  0  0  0  0  0
   32.1513   20.0975   18.6258 C   0  0  0  0  0  0  0  0  0  0  0  0
   31.6953   19.6326   19.8535 C   0  0  0  0  0  0  0  0  0  0  0  0
   30.5732   18.9227   19.9262 N   0  0  0  0  0  0  0  0  0  0  0  0
   31.6650   19.9807   17.3712 N   0  0  0  0  0  0  0  0  0  0  0  0
   32.4971   20.6240   16.5202 C   0  0  0  0  0  0  0  0  0  0  0  0
   33.5308   21.1599   17.2442 N   0  0  0  0  0  0  0  0  0  0  0  0
  2  1  1  6  0  0  0
  2  3  1  0  0  0  0
  2  5  1  0  0  0  0
  3  4  1  0  0  0  0
  3 16  1  0  0  0  0
  5  6  1  0  0  0  0
  6  7  1  0  0  0  0
  7  8  1  0  0  0  0
  9  8  1  1  0  0  0
  9 10  1  0  0  0  0
  9 11  1  0  0  0  0
 10 15  1  0  0  0  0
 11 12  1  6  0  0  0
 11 13  1  0  0  0  0
 13 14  1  6  0  0  0
 13 15  1  0  0  0  0
 15 26  1  1  0  0  0
 17 18  2  0  0  0  0
 17 22  1  0  0  0  0
 18 19  1  0  0  0  0
 19 20  2  0  0  0  0
 20 21  1  0  0  0  0
 20 26  1  0  0  0  0
 21 22  2  0  0  0  0
 21 24  1  0  0  0  0
 22 23  1  0  0  0  0
 24 25  2  0  0  0  0
 25 26  1  0  0  0  0
M  END
>  <CHROM.1>
6.06029642,65.53670103,177.59477867,-167.29929671,-111.40514956,84.13102688
63.86449628,35.38928019,20.18235341,18.62877787,0.94853484,-0.10059370,2.66320996

>  <Name>
ligand

>  <RI>
0

>  <Rbt.Current_Directory>
/home/itssahil/PROJECTS/Mol_Feturizer/New_Systems/rnas/3NPQ

>  <Rbt.Executable>
rbdock ($Id: //depot/dev/client3/rdock/2013.1/src/exe/rbdock.cxx#4 $)

>  <Rbt.Library>
libRbt.so (2013.1, Build901 2013/11/27)

>  <Rbt.Parameter_File>
/export/apps/rDock/src/rDock_2013.1_src/data/scripts/dock_solv.prm

>  <Rbt.Receptor>
prm/blind_docking_80.prm

>  <SCORE>
-7.33538

>  <SCORE.INTER>
-6.11721

>  <SCORE.INTER.CONST>
1

>  <SCORE.INTER.POLAR>
0

>  <SCORE.INTER.ROT>
7

>  <SCORE.INTER.SOLV>
7.56658

>  <SCORE.INTER.VDW>
-14.867

>  <SCORE.INTER.norm>
-0.235277

>  <SCORE.INTRA>
-1.21816

>  <SCORE.INTRA.DIHEDRAL>
0.206587

>  <SCORE.INTRA.DIHEDRAL.0>
6.97628

>  <SCORE.INTRA.POLAR>
0

>  <SCORE.INTRA.POLAR.0>
0

>  <SCORE.INTRA.REPUL>
0

>  <SCORE.INTRA.REPUL.0>
0

>  <SCORE.INTRA.SOLV>
-0.267684

>  <SCORE.INTRA.SOLV.lig_0>
-49.8243

>  <SCORE.INTRA.VDW>
-1.18762

>  <SCORE.INTRA.VDW.0>
-1.35881

>  <SCORE.INTRA.norm>
-0.0468525

>  <SCORE.RESTR>
0

>  <SCORE.RESTR.CAVITY>
0

>  <SCORE.RESTR.norm>
0

>  <SCORE.SYSTEM>
0

>  <SCORE.SYSTEM.CONST>
0

>  <SCORE.SYSTEM.DIHEDRAL>
0

>  <SCORE.SYSTEM.SOLV>
0

>  <SCORE.SYSTEM.norm>
0

>  <SCORE.heavy>
26

>  <SCORE.norm>
-0.28213

>  <RMSD>
15.552

$$$$
ligand
 OpenBabel11021811483D
libRbt.so/2013.1/901 2013/11/27
 26 28  0  0  0  0  0  0  0  0999 V2000
   24.7148   14.5525    4.4742 N   0  0  0  0  0  0  0  0  0  0  0  0
   25.5569   13.9175    3.4681 C   0  0  2  0  0  0  0  0  0  0  0  0
   25.3980   12.4016    3.4970 C   0  0  0  0  0  0  0  0  0  0  0  0
   25.7163   11.7129    2.5284 O   0  0  0  0  0  0  0  0  0  0  0  0
   27.0179   14.2938    3.6803 C   0  0  0  0  0  0  0  0  0  0  0  0
   27.6229   13.7412    4.9642 C   0  0  0  0  0  0  0  0  0  0  0  0
   26.9271   14.5122    6.4474 S   0  0  0  0  0  0  0  0  0  0  0  0
   27.5228   13.1276    7.4504 C   0  0  0  0  0  0  0  0  0  0  0  0
   26.7196   12.9413    8.7324 C   0  0  1  0  0  0  0  0  0  0  0  0
   26.7758   14.1210    9.5135 O   0  0  0  0  0  0  0  0  0  0  0  0
   25.2575   12.6483    8.4380 C   0  0  1  0  0  0  0  0  0  0  0  0
   24.9207   11.3640    8.9062 O   0  0  0  0  0  0  0  0  0  0  0  0
   24.4659   13.6987    9.1889 C   0  0  1  0  0  0  0  0  0  0  0  0
   23.5774   13.0818   10.0913 O   0  0  0  0  0  0  0  0  0  0  0  0
   25.4905   14.5256    9.9466 C   0  0  2  0  0  0  0  0  0  0  0  0
   24.9478   11.8300    4.4906 O   0  0  0  0  0  0  0  0  0  0  0  0
   24.2408   19.2217   11.9345 N   0  0  0  0  0  0  0  0  0  0  0  0
   24.3191   18.0119   12.5945 C   0  0  0  0  0  0  0  0  0  0  0  0
   24.6665   16.8660   11.9066 N   0  0  0  0  0  0  0  0  0  0  0  0
   24.9316   16.9194   10.5785 C   0  0  0  0  0  0  0  0  0  0  0  0
   24.8576   18.1266    9.8970 C   0  0  0  0  0  0  0  0  0  0  0  0
   24.5096   19.2846   10.5821 C   0  0  0  0  0  0  0  0  0  0  0  0
   24.4347   20.4463    9.9395 N   0  0  0  0  0  0  0  0  0  0  0  0
   25.1673   17.8934    8.6033 N   0  0  0  0  0  0  0  0  0  0  0  0
   25.4337   16.5759    8.4501 C   0  0  0  0  0  0  0  0  0  0  0  0
   25.2917   15.9589    9.6663 N   0  0  0  0  0  0  0  0  0  0  0  0
  2  1  1  1  0  0  0
  2  3  1  0  0  0  0
  2  5  1  0  0  0  0
  3  4  1  0  0  0  0
  3 16  1  0  0  0  0
  5  6  1  0  0  0  0
  6  7  1  0  0  0  0
  7  8  1  0  0  0  0
  9  8  1  6  0  0  0
  9 10  1  0  0  0  0
  9 11  1  0  0  0  0
 10 15  1  0  0  0  0
 11 12  1  1  0  0  0
 11 13  1  0  0  0  0
 13 14  1  1  0  0  0
 13 15  1  0  0  0  0
 15 26  1  6  0  0  0
 17 18  2  0  0  0  0
 17 22  1  0  0  0  0
 18 19  1  0  0  0  0
 19 20  2  0  0  0  0
 20 21  1  0  0  0  0
 20 26  1  0  0  0  0
 21 22  2  0  0  0  0
 21 24  1  0  0  0  0
 22 23  1  0  0  0  0
 24 25  2  0  0  0  0
 25 26  1  0  0  0  0
M  END
>  <CHROM.1>
159.95481016,66.74573570,-68.71895764,161.22966147,-155.40229021,-58.71455494
-125.41571655,25.48567693,14.93306201,7.93485324,-0.45408008,1.38889801,-0.21380030

>  <Name>
ligand

>  <RI>
0

>  <Rbt.Current_Directory>
/home/itssahil/PROJECTS/Mol_Feturizer/New_Systems/rnas/3NPQ

>  <Rbt.Executable>
rbdock ($Id: //depot/dev/client3/rdock/2013.1/src/exe/rbdock.cxx#4 $)

>  <Rbt.Library>
libRbt.so (2013.1, Build901 2013/11/27)

>  <Rbt.Parameter_File>
/export/apps/rDock/src/rDock_2013.1_src/data/scripts/dock_solv.prm

>  <Rbt.Receptor>
prm/blind_docking_100.prm

>  <SCORE>
-5.87617

>  <SCORE.INTER>
-3.78411

>  <SCORE.INTER.CONST>
1

>  <SCORE.INTER.POLAR>
0

>  <SCORE.INTER.ROT>
7

>  <SCORE.INTER.SOLV>
18.9717

>  <SCORE.INTER.VDW>
-17.1133

>  <SCORE.INTER.norm>
-0.145543

>  <SCORE.INTRA>
-2.12405

>  <SCORE.INTRA.DIHEDRAL>
-2.45093

>  <SCORE.INTRA.DIHEDRAL.0>
6.97628

>  <SCORE.INTRA.POLAR>
0

>  <SCORE.INTRA.POLAR.0>
0

>  <SCORE.INTRA.REPUL>
0

>  <SCORE.INTRA.REPUL.0>
0

>  <SCORE.INTRA.SOLV>
1.61361

>  <SCORE.INTRA.SOLV.lig_0>
-49.8243

>  <SCORE.INTRA.VDW>
-1.70539

>  <SCORE.INTRA.VDW.0>
-1.35881

>  <SCORE.INTRA.norm>
-0.0816943

>  <SCORE.RESTR>
0.031996

>  <SCORE.RESTR.CAVITY>
0.031996

>  <SCORE.RESTR.norm>
0.00123062

>  <SCORE.SYSTEM>
0

>  <SCORE.SYSTEM.CONST>
0

>  <SCORE.SYSTEM.DIHEDRAL>
0

>  <SCORE.SYSTEM.SOLV>
0

>  <SCORE.SYSTEM.norm>
0

>  <SCORE.heavy>
26

>  <SCORE.norm>
-0.226006

>  <RMSD>
15.565

$$$$
ligand
 OpenBabel11021811483D
libRbt.so/2013.1/901 2013/11/27
 26 28  0  0  0  0  0  0  0  0999 V2000
   34.9896   23.3963   16.0371 N   0  0  0  0  0  0  0  0  0  0  0  0
   35.2472   22.3280   16.9946 C   0  0  2  0  0  0  0  0  0  0  0  0
   34.8413   20.9727   16.4269 C   0  0  0  0  0  0  0  0  0  0  0  0
   33.7995   20.8410   15.7855 O   0  0  0  0  0  0  0  0  0  0  0  0
   34.5063   22.5908   18.2997 C   0  0  0  0  0  0  0  0  0  0  0  0
   34.9167   23.8797   18.9998 C   0  0  0  0  0  0  0  0  0  0  0  0
   34.6526   23.8117   20.7898 S   0  0  0  0  0  0  0  0  0  0  0  0
   36.4035   24.1815   21.0652 C   0  0  0  0  0  0  0  0  0  0  0  0
   37.2863   22.9414   20.9869 C   0  0  1  0  0  0  0  0  0  0  0  0
   36.6681   21.8645   21.6674 O   0  0  0  0  0  0  0  0  0  0  0  0
   37.5172   22.5102   19.5478 C   0  0  1  0  0  0  0  0  0  0  0  0
   38.8852   22.6090   19.2298 O   0  0  0  0  0  0  0  0  0  0  0  0
   37.0697   21.0651   19.4721 C   0  0  1  0  0  0  0  0  0  0  0  0
   38.1359   20.2502   19.0437 O   0  0  0  0  0  0  0  0  0  0  0  0
   36.6560   20.6859   20.8837 C   0  0  2  0  0  0  0  0  0  0  0  0
   35.5464   19.9772   16.5961 O   0  0  0  0  0  0  0  0  0  0  0  0
   33.4338   17.1962   18.6461 N   0  0  0  0  0  0  0  0  0  0  0  0
   34.7508   17.4631   18.3301 C   0  0  0  0  0  0  0  0  0  0  0  0
   35.4528   18.4238   19.0307 N   0  0  0  0  0  0  0  0  0  0  0  0
   34.8546   19.1134   20.0326 C   0  0  0  0  0  0  0  0  0  0  0  0
   33.5308   18.8598   20.3649 C   0  0  0  0  0  0  0  0  0  0  0  0
   32.8176   17.8938   19.6652 C   0  0  0  0  0  0  0  0  0  0  0  0
   31.5488   17.6431   19.9742 N   0  0  0  0  0  0  0  0  0  0  0  0
   33.1942   19.6779   21.3853 N   0  0  0  0  0  0  0  0  0  0  0  0
   34.2662   20.4388   21.7050 C   0  0  0  0  0  0  0  0  0  0  0  0
   35.3035   20.1000   20.8748 N   0  0  0  0  0  0  0  0  0  0  0  0
  2  1  1  6  0  0  0
  2  3  1  0  0  0  0
  2  5  1  0  0  0  0
  3  4  1  0  0  0  0
  3 16  1  0  0  0  0
  5  6  1  0  0  0  0
  6  7  1  0  0  0  0
  7  8  1  0  0  0  0
  9  8  1  6  0  0  0
  9 10  1  0  0  0  0
  9 11  1  0  0  0  0
 10 15  1  0  0  0  0
 11 12  1  1  0  0  0
 11 13  1  0  0  0  0
 13 14  1  1  0  0  0
 13 15  1  0  0  0  0
 15 26  1  6  0  0  0
 17 18  2  0  0  0  0
 17 22  1  0  0  0  0
 18 19  1  0  0  0  0
 19 20  2  0  0  0  0
 20 21  1  0  0  0  0
 20 26  1  0  0  0  0
 21 22  2  0  0  0  0
 21 24  1  0  0  0  0
 22 23  1  0  0  0  0
 24 25  2  0  0  0  0
 25 26  1  0  0  0  0
M  END
>  <CHROM.1>
-41.52204512,-61.04713545,-153.53084292,122.97286861,-83.43898802,-42.80968294
166.91731572,35.26332478,20.98924525,19.34330457,0.00999902,-1.01923676,-1.40970672

>  <Name>
ligand

>  <RI>
0

>  <Rbt.Current_Directory>
/home/itssahil/PROJECTS/Mol_Feturizer/New_Systems/rnas/3NPQ

>  <Rbt.Executable>
rbdock ($Id: //depot/dev/client3/rdock/2013.1/src/exe/rbdock.cxx#4 $)

>  <Rbt.Library>
libRbt.so (2013.1, Build901 2013/11/27)

>  <Rbt.Parameter_File>
/export/apps/rDock/src/rDock_2013.1_src/data/scripts/dock_solv.prm

>  <Rbt.Receptor>
prm/blind_docking_60.prm

>  <SCORE>
-10.3335

>  <SCORE.INTER>
-8.29166

>  <SCORE.INTER.CONST>
1

>  <SCORE.INTER.POLAR>
0

>  <SCORE.INTER.ROT>
7

>  <SCORE.INTER.SOLV>
8.79012

>  <SCORE.INTER.VDW>
-16.7245

>  <SCORE.INTER.norm>
-0.31891

>  <SCORE.INTRA>
-2.0418

>  <SCORE.INTRA.DIHEDRAL>
2.13157

>  <SCORE.INTRA.DIHEDRAL.0>
6.97628

>  <SCORE.INTRA.POLAR>
0

>  <SCORE.INTRA.POLAR.0>
0

>  <SCORE.INTRA.REPUL>
0

>  <SCORE.INTRA.REPUL.0>
0

>  <SCORE.INTRA.SOLV>
0.84085

>  <SCORE.INTRA.SOLV.lig_0>
-49.8243

>  <SCORE.INTRA.VDW>
-3.52802

>  <SCORE.INTRA.VDW.0>
-1.35881

>  <SCORE.INTRA.norm>
-0.0785309

>  <SCORE.RESTR>
0

>  <SCORE.RESTR.CAVITY>
0

>  <SCORE.RESTR.norm>
0

>  <SCORE.SYSTEM>
0

>  <SCORE.SYSTEM.CONST>
0

>  <SCORE.SYSTEM.DIHEDRAL>
0

>  <SCORE.SYSTEM.SOLV>
0

>  <SCORE.SYSTEM.norm>
0

>  <SCORE.heavy>
26

>  <SCORE.norm>
-0.397441

>  <RMSD>
15.565

$$$$
ligand
 OpenBabel11021811483D
libRbt.so/2013.1/901 2013/11/27
 26 28  0  0  0  0  0  0  0  0999 V2000
   30.0545   18.8109   20.4206 N   0  0  0  0  0  0  0  0  0  0  0  0
   31.4945   19.0258   20.3511 C   0  0  2  0  0  0  0  0  0  0  0  0
   31.8227   20.2975   19.5772 C   0  0  0  0  0  0  0  0  0  0  0  0
   31.1413   20.6463   18.6139 O   0  0  0  0  0  0  0  0  0  0  0  0
   32.1822   17.8293   19.7057 C   0  0  0  0  0  0  0  0  0  0  0  0
   33.6665   17.7161   20.0274 C   0  0  0  0  0  0  0  0  0  0  0  0
   34.6860   18.7935   18.9890 S   0  0  0  0  0  0  0  0  0  0  0  0
   36.1260   18.4366   20.0270 C   0  0  0  0  0  0  0  0  0  0  0  0
   36.5647   19.6369   20.8576 C   0  0  1  0  0  0  0  0  0  0  0  0
   37.4709   20.4328   20.1157 O   0  0  0  0  0  0  0  0  0  0  0  0
   35.3831   20.5130   21.2406 C   0  0  1  0  0  0  0  0  0  0  0  0
   35.2279   20.5262   22.6399 O   0  0  0  0  0  0  0  0  0  0  0  0
   35.7204   21.9031   20.7426 C   0  0  1  0  0  0  0  0  0  0  0  0
   35.7172   22.8156   21.8158 O   0  0  0  0  0  0  0  0  0  0  0  0
   37.1138   21.8020   20.1462 C   0  0  2  0  0  0  0  0  0  0  0  0
   32.7774   21.0065   19.8978 O   0  0  0  0  0  0  0  0  0  0  0  0
   34.6280   22.0408   15.5276 N   0  0  0  0  0  0  0  0  0  0  0  0
   34.2566   21.3419   16.6587 C   0  0  0  0  0  0  0  0  0  0  0  0
   35.0382   21.3942   17.7959 N   0  0  0  0  0  0  0  0  0  0  0  0
   36.1762   22.1302   17.8105 C   0  0  0  0  0  0  0  0  0  0  0  0
   36.5667   22.8394   16.6828 C   0  0  0  0  0  0  0  0  0  0  0  0
   35.7853   22.7928   15.5345 C   0  0  0  0  0  0  0  0  0  0  0  0
   36.1500   23.4674   14.4482 N   0  0  0  0  0  0  0  0  0  0  0  0
   37.7218   23.4767   16.9717 N   0  0  0  0  0  0  0  0  0  0  0  0
   38.0701   23.1897   18.2471 C   0  0  0  0  0  0  0  0  0  0  0  0
   37.1212   22.3558   18.7802 N   0  0  0  0  0  0  0  0  0  0  0  0
  2  1  1  6  0  0  0
  2  3  1  0  0  0  0
  2  5  1  0  0  0  0
  3  4  1  0  0  0  0
  3 16  1  0  0  0  0
  5  6  1  0  0  0  0
  6  7  1  0  0  0  0
  7  8  1  0  0  0  0
  9  8  1  6  0  0  0
  9 10  1  0  0  0  0
  9 11  1  0  0  0  0
 10 15  1  0  0  0  0
 11 12  1  1  0  0  0
 11 13  1  0  0  0  0
 13 14  1  1  0  0  0
 13 15  1  0  0  0  0
 15 26  1  6  0  0  0
 17 18  2  0  0  0  0
 17 22  1  0  0  0  0
 18 19  1  0  0  0  0
 19 20  2  0  0  0  0
 20 21  1  0  0  0  0
 20 26  1  0  0  0  0
 21 22  2  0  0  0  0
 21 24  1  0  0  0  0
 22 23  1  0  0  0  0
 24 25  2  0  0  0  0
 25 26  1  0  0  0  0
M  END
>  <CHROM.1>
-35.24713293,-159.10834227,-81.34129769,170.23257989,-110.13071416,-87.75667981
74.54852817,34.90309674,20.83711162,19.05707349,2.37460175,0.44150801,2.00900411

>  <Name>
ligand

>  <RI>
0

>  <Rbt.Current_Directory>
/home/itssahil/PROJECTS/Mol_Feturizer/New_Systems/rnas/3NPQ

>  <Rbt.Executable>
rbdock ($Id: //depot/dev/client3/rdock/2013.1/src/exe/rbdock.cxx#4 $)

>  <Rbt.Library>
libRbt.so (2013.1, Build901 2013/11/27)

>  <Rbt.Parameter_File>
/export/apps/rDock/src/rDock_2013.1_src/data/scripts/dock_solv.prm

>  <Rbt.Receptor>
prm/blind_docking_60.prm

>  <SCORE>
-2.89532

>  <SCORE.INTER>
-1.72167

>  <SCORE.INTER.CONST>
1

>  <SCORE.INTER.POLAR>
0

>  <SCORE.INTER.ROT>
7

>  <SCORE.INTER.SOLV>
18.1721

>  <SCORE.INTER.VDW>
-15.4718

>  <SCORE.INTER.norm>
-0.0662181

>  <SCORE.INTRA>
-1.17364

>  <SCORE.INTRA.DIHEDRAL>
3.51943

>  <SCORE.INTRA.DIHEDRAL.0>
6.97628

>  <SCORE.INTRA.POLAR>
0

>  <SCORE.INTRA.POLAR.0>
0

>  <SCORE.INTRA.REPUL>
0

>  <SCORE.INTRA.REPUL.0>
0

>  <SCORE.INTRA.SOLV>
-0.216407

>  <SCORE.INTRA.SOLV.lig_0>
-49.8243

>  <SCORE.INTRA.VDW>
-2.82516

>  <SCORE.INTRA.VDW.0>
-1.35881

>  <SCORE.INTRA.norm>
-0.0451402

>  <SCORE.RESTR>
0

>  <SCORE.RESTR.CAVITY>
0

>  <SCORE.RESTR.norm>
0

>  <SCORE.SYSTEM>
0

>  <SCORE.SYSTEM.CONST>
0

>  <SCORE.SYSTEM.DIHEDRAL>
0

>  <SCORE.SYSTEM.SOLV>
0

>  <SCORE.SYSTEM.norm>
0

>  <SCORE.heavy>
26

>  <SCORE.norm>
-0.111358

>  <RMSD>
15.572

$$$$
ligand
 OpenBabel11021811483D
libRbt.so/2013.1/901 2013/11/27
 26 28  0  0  0  0  0  0  0  0999 V2000
   37.9243   18.7494   19.7128 N   0  0  0  0  0  0  0  0  0  0  0  0
   37.5773   19.4188   18.4655 C   0  0  2  0  0  0  0  0  0  0  0  0
   38.7346   20.2734   17.9611 C   0  0  0  0  0  0  0  0  0  0  0  0
   39.4475   19.8908   17.0342 O   0  0  0  0  0  0  0  0  0  0  0  0
   36.3338   20.2796   18.6497 C   0  0  0  0  0  0  0  0  0  0  0  0
   35.1500   19.5407   19.2597 C   0  0  0  0  0  0  0  0  0  0  0  0
   34.7193   18.0412   18.3409 S   0  0  0  0  0  0  0  0  0  0  0  0
   33.2999   17.7757   19.4331 C   0  0  0  0  0  0  0  0  0  0  0  0
   32.0499   18.5100   18.9625 C   0  0  1  0  0  0  0  0  0  0  0  0
   32.2787   19.9074   18.9699 O   0  0  0  0  0  0  0  0  0  0  0  0
   31.6664   18.1096   17.5473 C   0  0  1  0  0  0  0  0  0  0  0  0
   30.4072   17.4796   17.5503 O   0  0  0  0  0  0  0  0  0  0  0  0
   31.5995   19.3995   16.7562 C   0  0  1  0  0  0  0  0  0  0  0  0
   30.3151   19.5605   16.2008 O   0  0  0  0  0  0  0  0  0  0  0  0
   31.8817   20.5108   17.7527 C   0  0  2  0  0  0  0  0  0  0  0  0
   38.9835   21.3674   18.4691 O   0  0  0  0  0  0  0  0  0  0  0  0
   34.5589   24.9741   18.4440 N   0  0  0  0  0  0  0  0  0  0  0  0
   33.5262   24.4738   19.2113 C   0  0  0  0  0  0  0  0  0  0  0  0
   32.9325   23.2721   18.8791 N   0  0  0  0  0  0  0  0  0  0  0  0
   33.3573   22.5754   17.7969 C   0  0  0  0  0  0  0  0  0  0  0  0
   34.3940   23.0624   17.0126 C   0  0  0  0  0  0  0  0  0  0  0  0
   34.9975   24.2705   17.3406 C   0  0  0  0  0  0  0  0  0  0  0  0
   35.9908   24.7471   16.5960 N   0  0  0  0  0  0  0  0  0  0  0  0
   34.6103   22.1790   16.0141 N   0  0  0  0  0  0  0  0  0  0  0  0
   33.7408   21.1511   16.1464 C   0  0  0  0  0  0  0  0  0  0  0  0
   32.9573   21.3827   17.2475 N   0  0  0  0  0  0  0  0  0  0  0  0
  2  1  1  1  0  0  0
  2  3  1  0  0  0  0
  2  5  1  0  0  0  0
  3  4  1  0  0  0  0
  3 16  1  0  0  0  0
  5  6  1  0  0  0  0
  6  7  1  0  0  0  0
  7  8  1  0  0  0  0
  9  8  1  6  0  0  0
  9 10  1  0  0  0  0
  9 11  1  0  0  0  0
 10 15  1  0  0  0  0
 11 12  1  1  0  0  0
 11 13  1  0  0  0  0
 13 14  1  1  0  0  0
 13 15  1  0  0  0  0
 15 26  1  6  0  0  0
 17 18  2  0  0  0  0
 17 22  1  0  0  0  0
 18 19  1  0  0  0  0
 19 20  2  0  0  0  0
 20 21  1  0  0  0  0
 20 26  1  0  0  0  0
 21 22  2  0  0  0  0
 21 24  1  0  0  0  0
 22 23  1  0  0  0  0
 24 25  2  0  0  0  0
 25 26  1  0  0  0  0
M  END
>  <CHROM.1>
102.91250865,-52.21217586,-54.30166600,-176.11650551,87.02321495,-62.52881381
-70.18938798,34.38291843,20.60277335,17.93816385,-0.40701007,0.10999550,2.99785987

>  <Name>
ligand

>  <RI>
0

>  <Rbt.Current_Directory>
/home/itssahil/PROJECTS/Mol_Feturizer/New_Systems/rnas/3NPQ

>  <Rbt.Executable>
rbdock ($Id: //depot/dev/client3/rdock/2013.1/src/exe/rbdock.cxx#4 $)

>  <Rbt.Library>
libRbt.so (2013.1, Build901 2013/11/27)

>  <Rbt.Parameter_File>
/export/apps/rDock/src/rDock_2013.1_src/data/scripts/dock_solv.prm

>  <Rbt.Receptor>
prm/blind_docking_100.prm

>  <SCORE>
-9.93209

>  <SCORE.INTER>
-7.34947

>  <SCORE.INTER.CONST>
1

>  <SCORE.INTER.POLAR>
0

>  <SCORE.INTER.ROT>
7

>  <SCORE.INTER.SOLV>
10.2753

>  <SCORE.INTER.VDW>
-16.5914

>  <SCORE.INTER.norm>
-0.282672

>  <SCORE.INTRA>
-2.59629

>  <SCORE.INTRA.DIHEDRAL>
-2.89868

>  <SCORE.INTRA.DIHEDRAL.0>
6.97628

>  <SCORE.INTRA.POLAR>
0

>  <SCORE.INTRA.POLAR.0>
0

>  <SCORE.INTRA.REPUL>
0

>  <SCORE.INTRA.REPUL.0>
0

>  <SCORE.INTRA.SOLV>
1.07552

>  <SCORE.INTRA.SOLV.lig_0>
-49.8243

>  <SCORE.INTRA.VDW>
-1.68471

>  <SCORE.INTRA.VDW.0>
-1.35881

>  <SCORE.INTRA.norm>
-0.0998572

>  <SCORE.RESTR>
0.0136744

>  <SCORE.RESTR.CAVITY>
0.0136744

>  <SCORE.RESTR.norm>
0.000525939

>  <SCORE.SYSTEM>
0

>  <SCORE.SYSTEM.CONST>
0

>  <SCORE.SYSTEM.DIHEDRAL>
0

>  <SCORE.SYSTEM.SOLV>
0

>  <SCORE.SYSTEM.norm>
0

>  <SCORE.heavy>
26

>  <SCORE.norm>
-0.382003

>  <RMSD>
15.622

$$$$
ligand
 OpenBabel11021811483D
libRbt.so/2013.1/901 2013/11/27
 26 28  0  0  0  0  0  0  0  0999 V2000
   35.0691   17.9211   20.2276 N   0  0  0  0  0  0  0  0  0  0  0  0
   34.9329   19.1638   19.4781 C   0  0  2  0  0  0  0  0  0  0  0  0
   36.2866   19.6520   18.9748 C   0  0  0  0  0  0  0  0  0  0  0  0
   37.3220   19.3875   19.5846 O   0  0  0  0  0  0  0  0  0  0  0  0
   34.2774   20.2368   20.3383 C   0  0  0  0  0  0  0  0  0  0  0  0
   34.9949   20.5033   21.6551 C   0  0  0  0  0  0  0  0  0  0  0  0
   36.4632   21.5422   21.4478 S   0  0  0  0  0  0  0  0  0  0  0  0
   35.4649   23.0205   21.7584 C   0  0  0  0  0  0  0  0  0  0  0  0
   35.3222   23.9040   20.5246 C   0  0  1  0  0  0  0  0  0  0  0  0
   36.6014   24.2897   20.0557 O   0  0  0  0  0  0  0  0  0  0  0  0
   34.6136   23.1750   19.3945 C   0  0  1  0  0  0  0  0  0  0  0  0
   33.3971   23.8177   19.0959 O   0  0  0  0  0  0  0  0  0  0  0  0
   35.5468   23.2512   18.2040 C   0  0  1  0  0  0  0  0  0  0  0  0
   34.9026   23.8859   17.1240 O   0  0  0  0  0  0  0  0  0  0  0  0
   36.7359   24.0778   18.6628 C   0  0  2  0  0  0  0  0  0  0  0  0
   36.3763   20.3224   17.9456 O   0  0  0  0  0  0  0  0  0  0  0  0
   41.1626   23.9811   15.8410 N   0  0  0  0  0  0  0  0  0  0  0  0
   40.1479   24.9162   15.8005 C   0  0  0  0  0  0  0  0  0  0  0  0
   39.0461   24.7823   16.6221 N   0  0  0  0  0  0  0  0  0  0  0  0
   38.9511   23.7318   17.4731 C   0  0  0  0  0  0  0  0  0  0  0  0
   39.9609   22.7808   17.5281 C   0  0  0  0  0  0  0  0  0  0  0  0
   41.0735   22.9086   16.7053 C   0  0  0  0  0  0  0  0  0  0  0  0
   42.0464   22.0032   16.7486 N   0  0  0  0  0  0  0  0  0  0  0  0
   39.6126   21.8573   18.4500 N   0  0  0  0  0  0  0  0  0  0  0  0
   38.4141   22.1986   18.9767 C   0  0  0  0  0  0  0  0  0  0  0  0
   37.9913   23.3588   18.3808 N   0  0  0  0  0  0  0  0  0  0  0  0
  2  1  1  1  0  0  0
  2  3  1  0  0  0  0
  2  5  1  0  0  0  0
  3  4  1  0  0  0  0
  3 16  1  0  0  0  0
  5  6  1  0  0  0  0
  6  7  1  0  0  0  0
  7  8  1  0  0  0  0
  9  8  1  1  0  0  0
  9 10  1  0  0  0  0
  9 11  1  0  0  0  0
 10 15  1  0  0  0  0
 11 12  1  6  0  0  0
 11 13  1  0  0  0  0
 13 14  1  6  0  0  0
 13 15  1  0  0  0  0
 15 26  1  1  0  0  0
 17 18  2  0  0  0  0
 17 22  1  0  0  0  0
 18 19  1  0  0  0  0
 19 20  2  0  0  0  0
 20 21  1  0  0  0  0
 20 26  1  0  0  0  0
 21 22  2  0  0  0  0
 21 24  1  0  0  0  0
 22 23  1  0  0  0  0
 24 25  2  0  0  0  0
 25 26  1  0  0  0  0
M  END
>  <CHROM.1>
-28.65124202,55.62893903,78.63208769,91.90949006,-112.20723526,-57.62801198
-128.72240837,37.06816637,22.27877044,18.89255394,-2.59049256,0.47394845
-0.31105375

>  <Name>
ligand

>  <RI>
0

>  <Rbt.Current_Directory>
/home/itssahil/PROJECTS/Mol_Feturizer/New_Systems/rnas/3NPQ

>  <Rbt.Executable>
rbdock ($Id: //depot/dev/client3/rdock/2013.1/src/exe/rbdock.cxx#4 $)

>  <Rbt.Library>
libRbt.so (2013.1, Build901 2013/11/27)

>  <Rbt.Parameter_File>
/export/apps/rDock/src/rDock_2013.1_src/data/scripts/dock_solv.prm

>  <Rbt.Receptor>
prm/blind_docking_80.prm

>  <SCORE>
-9.94645

>  <SCORE.INTER>
-7.43769

>  <SCORE.INTER.CONST>
1

>  <SCORE.INTER.POLAR>
0

>  <SCORE.INTER.ROT>
7

>  <SCORE.INTER.SOLV>
8.16216

>  <SCORE.INTER.VDW>
-15.9459

>  <SCORE.INTER.norm>
-0.286065

>  <SCORE.INTRA>
-2.62946

>  <SCORE.INTRA.DIHEDRAL>
0.630177

>  <SCORE.INTRA.DIHEDRAL.0>
6.97628

>  <SCORE.INTRA.POLAR>
0

>  <SCORE.INTRA.POLAR.0>
0

>  <SCORE.INTRA.REPUL>
0

>  <SCORE.INTRA.REPUL.0>
0

>  <SCORE.INTRA.SOLV>
0.876788

>  <SCORE.INTRA.SOLV.lig_0>
-49.8243

>  <SCORE.INTRA.VDW>
-3.38295

>  <SCORE.INTRA.VDW.0>
-1.35881

>  <SCORE.INTRA.norm>
-0.101133

>  <SCORE.RESTR>
0.120706

>  <SCORE.RESTR.CAVITY>
0.120706

>  <SCORE.RESTR.norm>
0.00464254

>  <SCORE.SYSTEM>
0

>  <SCORE.SYSTEM.CONST>
0

>  <SCORE.SYSTEM.DIHEDRAL>
0

>  <SCORE.SYSTEM.SOLV>
0

>  <SCORE.SYSTEM.norm>
0

>  <SCORE.heavy>
26

>  <SCORE.norm>
-0.382556

>  <RMSD>
15.633

$$$$
ligand
 OpenBabel11021811483D
libRbt.so/2013.1/901 2013/11/27
 26 28  0  0  0  0  0  0  0  0999 V2000
   29.9083   19.5079   18.4549 N   0  0  0  0  0  0  0  0  0  0  0  0
   31.3244   19.7215   18.1835 C   0  0  2  0  0  0  0  0  0  0  0  0
   31.5799   19.8710   16.6881 C   0  0  0  0  0  0  0  0  0  0  0  0
   32.4894   20.5861   16.2693 O   0  0  0  0  0  0  0  0  0  0  0  0
   32.1543   18.5728   18.7430 C   0  0  0  0  0  0  0  0  0  0  0  0
   33.6587   18.7694   18.6101 C   0  0  0  0  0  0  0  0  0  0  0  0
   34.6022   17.6418   19.6669 S   0  0  0  0  0  0  0  0  0  0  0  0
   35.9937   18.8002   19.6659 C   0  0  0  0  0  0  0  0  0  0  0  0
   35.8979   19.8360   20.7801 C   0  0  1  0  0  0  0  0  0  0  0  0
   37.0516   20.6569   20.7773 O   0  0  0  0  0  0  0  0  0  0  0  0
   34.6865   20.7367   20.6028 C   0  0  1  0  0  0  0  0  0  0  0  0
   33.7980   20.5657   21.6815 O   0  0  0  0  0  0  0  0  0  0  0  0
   35.2225   22.1532   20.5912 C   0  0  1  0  0  0  0  0  0  0  0  0
   34.6274   22.9042   21.6238 O   0  0  0  0  0  0  0  0  0  0  0  0
   36.7180   22.0314   20.8281 C   0  0  2  0  0  0  0  0  0  0  0  0
   30.8825   19.2793   15.8632 O   0  0  0  0  0  0  0  0  0  0  0  0
   36.8403   23.5130   15.7925 N   0  0  0  0  0  0  0  0  0  0  0  0
   35.8823   22.7529   16.4328 C   0  0  0  0  0  0  0  0  0  0  0  0
   36.0127   22.4571   17.7753 N   0  0  0  0  0  0  0  0  0  0  0  0
   37.0823   22.9089   18.4745 C   0  0  0  0  0  0  0  0  0  0  0  0
   38.0566   23.6743   17.8482 C   0  0  0  0  0  0  0  0  0  0  0  0
   37.9323   23.9772   16.4976 C   0  0  0  0  0  0  0  0  0  0  0  0
   38.8599   24.7087   15.8870 N   0  0  0  0  0  0  0  0  0  0  0  0
   38.9953   23.9859   18.7677 N   0  0  0  0  0  0  0  0  0  0  0  0
   38.6413   23.4396   19.9537 C   0  0  0  0  0  0  0  0  0  0  0  0
   37.4571   22.7687   19.7875 N   0  0  0  0  0  0  0  0  0  0  0  0
  2  1  1  6  0  0  0
  2  3  1  0  0  0  0
  2  5  1  0  0  0  0
  3  4  1  0  0  0  0
  3 16  1  0  0  0  0
  5  6  1  0  0  0  0
  6  7  1  0  0  0  0
  7  8  1  0  0  0  0
  9  8  1  6  0  0  0
  9 10  1  0  0  0  0
  9 11  1  0  0  0  0
 10 15  1  0  0  0  0
 11 12  1  1  0  0  0
 11 13  1  0  0  0  0
 13 14  1  1  0  0  0
 13 15  1  0  0  0  0
 15 26  1  6  0  0  0
 17 18  2  0  0  0  0
 17 22  1  0  0  0  0
 18 19  1  0  0  0  0
 19 20  2  0  0  0  0
 20 21  1  0  0  0  0
 20 26  1  0  0  0  0
 21 22  2  0  0  0  0
 21 24  1  0  0  0  0
 22 23  1  0  0  0  0
 24 25  2  0  0  0  0
 25 26  1  0  0  0  0
M  END
>  <CHROM.1>
148.42098084,-175.05163570,164.17970542,-155.60431326,88.14022590,176.39375889
84.52159557,35.13943992,21.14411926,18.77652968,2.85108078,0.59813435,2.03871819

>  <Name>
ligand

>  <RI>
0

>  <Rbt.Current_Directory>
/home/itssahil/PROJECTS/Mol_Feturizer/New_Systems/rnas/3NPQ

>  <Rbt.Executable>
rbdock ($Id: //depot/dev/client3/rdock/2013.1/src/exe/rbdock.cxx#4 $)

>  <Rbt.Library>
libRbt.so (2013.1, Build901 2013/11/27)

>  <Rbt.Parameter_File>
/export/apps/rDock/src/rDock_2013.1_src/data/scripts/dock_solv.prm

>  <Rbt.Receptor>
prm/blind_docking_80.prm

>  <SCORE>
-7.84449

>  <SCORE.INTER>
-6.07529

>  <SCORE.INTER.CONST>
1

>  <SCORE.INTER.POLAR>
0

>  <SCORE.INTER.ROT>
7

>  <SCORE.INTER.SOLV>
9.24781

>  <SCORE.INTER.VDW>
-15.3995

>  <SCORE.INTER.norm>
-0.233665

>  <SCORE.INTRA>
-1.76921

>  <SCORE.INTRA.DIHEDRAL>
-1.34113

>  <SCORE.INTRA.DIHEDRAL.0>
6.97628

>  <SCORE.INTRA.POLAR>
0

>  <SCORE.INTRA.POLAR.0>
0

>  <SCORE.INTRA.REPUL>
0

>  <SCORE.INTRA.REPUL.0>
0

>  <SCORE.INTRA.SOLV>
-0.490251

>  <SCORE.INTRA.SOLV.lig_0>
-49.8243

>  <SCORE.INTRA.VDW>
-0.85352

>  <SCORE.INTRA.VDW.0>
-1.35881

>  <SCORE.INTRA.norm>
-0.0680465

>  <SCORE.RESTR>
0

>  <SCORE.RESTR.CAVITY>
0

>  <SCORE.RESTR.norm>
0

>  <SCORE.SYSTEM>
0

>  <SCORE.SYSTEM.CONST>
0

>  <SCORE.SYSTEM.DIHEDRAL>
0

>  <SCORE.SYSTEM.SOLV>
0

>  <SCORE.SYSTEM.norm>
0

>  <SCORE.heavy>
26

>  <SCORE.norm>
-0.301711

>  <RMSD>
15.656

$$$$
ligand
 OpenBabel11021811483D
libRbt.so/2013.1/901 2013/11/27
 26 28  0  0  0  0  0  0  0  0999 V2000
   36.4125   22.5671   20.1616 N   0  0  0  0  0  0  0  0  0  0  0  0
   36.9972   21.2373   20.2807 C   0  0  2  0  0  0  0  0  0  0  0  0
   37.7421   20.8495   19.0084 C   0  0  0  0  0  0  0  0  0  0  0  0
   38.4114   19.8184   18.9556 O   0  0  0  0  0  0  0  0  0  0  0  0
   35.9193   20.2060   20.5899 C   0  0  0  0  0  0  0  0  0  0  0  0
   34.8487   20.0827   19.5136 C   0  0  0  0  0  0  0  0  0  0  0  0
   33.7662   18.6544   19.7716 S   0  0  0  0  0  0  0  0  0  0  0  0
   32.4978   19.7387   20.4743 C   0  0  0  0  0  0  0  0  0  0  0  0
   31.5512   20.2980   19.4187 C   0  0  1  0  0  0  0  0  0  0  0  0
   32.1074   21.4646   18.8403 O   0  0  0  0  0  0  0  0  0  0  0  0
   31.3064   19.2970   18.3013 C   0  0  1  0  0  0  0  0  0  0  0  0
   29.9475   18.9297   18.2739 O   0  0  0  0  0  0  0  0  0  0  0  0
   31.6772   20.0108   17.0180 C   0  0  1  0  0  0  0  0  0  0  0  0
   30.5720   20.0424   16.1451 O   0  0  0  0  0  0  0  0  0  0  0  0
   32.0618   21.4225   17.4263 C   0  0  2  0  0  0  0  0  0  0  0  0
   37.6913   21.5587   18.0027 O   0  0  0  0  0  0  0  0  0  0  0  0
   36.2372   24.5886   17.7574 N   0  0  0  0  0  0  0  0  0  0  0  0
   35.1011   24.5938   18.5414 C   0  0  0  0  0  0  0  0  0  0  0  0
   34.0928   23.6790   18.3103 N   0  0  0  0  0  0  0  0  0  0  0  0
   34.2095   22.7703   17.3115 C   0  0  0  0  0  0  0  0  0  0  0  0
   35.3441   22.7496   16.5119 C   0  0  0  0  0  0  0  0  0  0  0  0
   36.3638   23.6662   16.7385 C   0  0  0  0  0  0  0  0  0  0  0  0
   37.4547   23.6563   15.9782 N   0  0  0  0  0  0  0  0  0  0  0  0
   35.1982   21.7561   15.6087 N   0  0  0  0  0  0  0  0  0  0  0  0
   34.0059   21.1512   15.8158 C   0  0  0  0  0  0  0  0  0  0  0  0
   33.3815   21.7691   16.8685 N   0  0  0  0  0  0  0  0  0  0  0  0
  2  1  1  6  0  0  0
  2  3  1  0  0  0  0
  2  5  1  0  0  0  0
  3  4  1  0  0  0  0
  3 16  1  0  0  0  0
  5  6  1  0  0  0  0
  6  7  1  0  0  0  0
  7  8  1  0  0  0  0
  9  8  1  1  0  0  0
  9 10  1  0  0  0  0
  9 11  1  0  0  0  0
 10 15  1  0  0  0  0
 11 12  1  6  0  0  0
 11 13  1  0  0  0  0
 13 14  1  6  0  0  0
 13 15  1  0  0  0  0
 15 26  1  6  0  0  0
 17 18  2  0  0  0  0
 17 22  1  0  0  0  0
 18 19  1  0  0  0  0
 19 20  2  0  0  0  0
 20 21  1  0  0  0  0
 20 26  1  0  0  0  0
 21 22  2  0  0  0  0
 21 24  1  0  0  0  0
 22 23  1  0  0  0  0
 24 25  2  0  0  0  0
 25 26  1  0  0  0  0
M  END
>  <CHROM.1>
173.05459532,61.41123769,169.64660109,100.54345774,88.91208327,-85.23561333
-41.86682535,34.35904423,21.21929045,18.23718708,-0.36527745,0.31481682,2.37590875

>  <Name>
ligand

>  <RI>
0

>  <Rbt.Current_Directory>
/home/itssahil/PROJECTS/Mol_Feturizer/New_Systems/rnas/3NPQ

>  <Rbt.Executable>
rbdock ($Id: //depot/dev/client3/rdock/2013.1/src/exe/rbdock.cxx#4 $)

>  <Rbt.Library>
libRbt.so (2013.1, Build901 2013/11/27)

>  <Rbt.Parameter_File>
/export/apps/rDock/src/rDock_2013.1_src/data/scripts/dock_solv.prm

>  <Rbt.Receptor>
prm/blind_docking_80.prm

>  <SCORE>
-5.328

>  <SCORE.INTER>
-5.0803

>  <SCORE.INTER.CONST>
1

>  <SCORE.INTER.POLAR>
0

>  <SCORE.INTER.ROT>
7

>  <SCORE.INTER.SOLV>
9.5288

>  <SCORE.INTER.VDW>
-14.8298

>  <SCORE.INTER.norm>
-0.195396

>  <SCORE.INTRA>
-0.267401

>  <SCORE.INTRA.DIHEDRAL>
1.04029

>  <SCORE.INTRA.DIHEDRAL.0>
6.97628

>  <SCORE.INTRA.POLAR>
0

>  <SCORE.INTRA.POLAR.0>
0

>  <SCORE.INTRA.REPUL>
0

>  <SCORE.INTRA.REPUL.0>
0

>  <SCORE.INTRA.SOLV>
3.19659

>  <SCORE.INTRA.SOLV.lig_0>
-49.8243

>  <SCORE.INTRA.VDW>
-2.38584

>  <SCORE.INTRA.VDW.0>
-1.35881

>  <SCORE.INTRA.norm>
-0.0102846

>  <SCORE.RESTR>
0.019703

>  <SCORE.RESTR.CAVITY>
0.019703

>  <SCORE.RESTR.norm>
0.000757807

>  <SCORE.SYSTEM>
0

>  <SCORE.SYSTEM.CONST>
0

>  <SCORE.SYSTEM.DIHEDRAL>
0

>  <SCORE.SYSTEM.SOLV>
0

>  <SCORE.SYSTEM.norm>
0

>  <SCORE.heavy>
26

>  <SCORE.norm>
-0.204923

>  <RMSD>
15.658

$$$$
ligand
 OpenBabel11021811483D
libRbt.so/2013.1/901 2013/11/27
 26 28  0  0  0  0  0  0  0  0999 V2000
   37.6195   16.3909   18.1818 N   0  0  0  0  0  0  0  0  0  0  0  0
   38.2604   17.1299   19.2624 C   0  0  2  0  0  0  0  0  0  0  0  0
   37.3205   17.2869   20.4524 C   0  0  0  0  0  0  0  0  0  0  0  0
   36.1002   17.2242   20.3082 O   0  0  0  0  0  0  0  0  0  0  0  0
   38.7187   18.4985   18.7745 C   0  0  0  0  0  0  0  0  0  0  0  0
   37.5934   19.3824   18.2530 C   0  0  0  0  0  0  0  0  0  0  0  0
   38.1252   21.0904   17.9731 S   0  0  0  0  0  0  0  0  0  0  0  0
   36.5576   21.6927   18.6500 C   0  0  0  0  0  0  0  0  0  0  0  0
   35.4151   21.6190   17.6438 C   0  0  1  0  0  0  0  0  0  0  0  0
   35.0459   20.2688   17.4300 O   0  0  0  0  0  0  0  0  0  0  0  0
   34.1860   22.3639   18.1386 C   0  0  1  0  0  0  0  0  0  0  0  0
   33.9002   23.4432   17.2809 O   0  0  0  0  0  0  0  0  0  0  0  0
   33.0525   21.3599   18.1050 C   0  0  1  0  0  0  0  0  0  0  0  0
   32.0150   21.8289   17.2756 O   0  0  0  0  0  0  0  0  0  0  0  0
   33.6460   20.0852   17.5301 C   0  0  2  0  0  0  0  0  0  0  0  0
   37.7601   17.4799   21.5865 O   0  0  0  0  0  0  0  0  0  0  0  0
   32.7595   18.5093   22.4593 N   0  0  0  0  0  0  0  0  0  0  0  0
   33.0251   19.7869   22.0092 C   0  0  0  0  0  0  0  0  0  0  0  0
   33.2347   20.0206   20.6645 N   0  0  0  0  0  0  0  0  0  0  0  0
   33.1831   18.9981   19.7764 C   0  0  0  0  0  0  0  0  0  0  0  0
   32.9179   17.7061   20.2097 C   0  0  0  0  0  0  0  0  0  0  0  0
   32.7049   17.4626   21.5612 C   0  0  0  0  0  0  0  0  0  0  0  0
   32.4511   16.2290   21.9878 N   0  0  0  0  0  0  0  0  0  0  0  0
   32.9247   16.8956   19.1294 N   0  0  0  0  0  0  0  0  0  0  0  0
   33.1863   17.6386   18.0295 C   0  0  0  0  0  0  0  0  0  0  0  0
   33.3489   18.9444   18.4148 N   0  0  0  0  0  0  0  0  0  0  0  0
  2  1  1  6  0  0  0
  2  3  1  0  0  0  0
  2  5  1  0  0  0  0
  3  4  1  0  0  0  0
  3 16  1  0  0  0  0
  5  6  1  0  0  0  0
  6  7  1  0  0  0  0
  7  8  1  0  0  0  0
  9  8  1  1  0  0  0
  9 10  1  0  0  0  0
  9 11  1  0  0  0  0
 10 15  1  0  0  0  0
 11 12  1  6  0  0  0
 11 13  1  0  0  0  0
 13 14  1  6  0  0  0
 13 15  1  0  0  0  0
 15 26  1  1  0  0  0
 17 18  2  0  0  0  0
 17 22  1  0  0  0  0
 18 19  1  0  0  0  0
 19 20  2  0  0  0  0
 20 21  1  0  0  0  0
 20 26  1  0  0  0  0
 21 22  2  0  0  0  0
 21 24  1  0  0  0  0
 22 23  1  0  0  0  0
 24 25  2  0  0  0  0
 25 26  1  0  0  0  0
M  END
>  <CHROM.1>
-23.41664301,59.98388434,169.40297200,-139.67234279,-79.73279675,71.18623217
88.69806661,35.00706402,19.33498912,19.17773136,-1.76719977,0.19238921,-0.59717402

>  <Name>
ligand

>  <RI>
0

>  <Rbt.Current_Directory>
/home/itssahil/PROJECTS/Mol_Feturizer/New_Systems/rnas/3NPQ

>  <Rbt.Executable>
rbdock ($Id: //depot/dev/client3/rdock/2013.1/src/exe/rbdock.cxx#4 $)

>  <Rbt.Library>
libRbt.so (2013.1, Build901 2013/11/27)

>  <Rbt.Parameter_File>
/export/apps/rDock/src/rDock_2013.1_src/data/scripts/dock_solv.prm

>  <Rbt.Receptor>
prm/blind_docking_60.prm

>  <SCORE>
-8.56

>  <SCORE.INTER>
-6.62564

>  <SCORE.INTER.CONST>
1

>  <SCORE.INTER.POLAR>
0

>  <SCORE.INTER.ROT>
7

>  <SCORE.INTER.SOLV>
12.3638

>  <SCORE.INTER.VDW>
-16.805

>  <SCORE.INTER.norm>
-0.254832

>  <SCORE.INTRA>
-1.93437

>  <SCORE.INTRA.DIHEDRAL>
-1.04656

>  <SCORE.INTRA.DIHEDRAL.0>
6.97628

>  <SCORE.INTRA.POLAR>
0

>  <SCORE.INTRA.POLAR.0>
0

>  <SCORE.INTRA.REPUL>
0

>  <SCORE.INTRA.REPUL.0>
0

>  <SCORE.INTRA.SOLV>
-0.1232

>  <SCORE.INTRA.SOLV.lig_0>
-49.8243

>  <SCORE.INTRA.VDW>
-1.34949

>  <SCORE.INTRA.VDW.0>
-1.35881

>  <SCORE.INTRA.norm>
-0.0743988

>  <SCORE.RESTR>
0

>  <SCORE.RESTR.CAVITY>
0

>  <SCORE.RESTR.norm>
0

>  <SCORE.SYSTEM>
0

>  <SCORE.SYSTEM.CONST>
0

>  <SCORE.SYSTEM.DIHEDRAL>
0

>  <SCORE.SYSTEM.SOLV>
0

>  <SCORE.SYSTEM.norm>
0

>  <SCORE.heavy>
26

>  <SCORE.norm>
-0.329231

>  <RMSD>
15.661

$$$$
ligand
 OpenBabel11021811483D
libRbt.so/2013.1/901 2013/11/27
 26 28  0  0  0  0  0  0  0  0999 V2000
   38.4848   24.4340   17.2205 N   0  0  0  0  0  0  0  0  0  0  0  0
   37.7921   23.6226   18.2137 C   0  0  2  0  0  0  0  0  0  0  0  0
   38.7000   23.3122   19.3983 C   0  0  0  0  0  0  0  0  0  0  0  0
   38.2979   23.4378   20.5544 O   0  0  0  0  0  0  0  0  0  0  0  0
   37.2884   22.3280   17.5881 C   0  0  0  0  0  0  0  0  0  0  0  0
   36.2570   21.5894   18.4310 C   0  0  0  0  0  0  0  0  0  0  0  0
   35.6480   20.0873   17.6240 S   0  0  0  0  0  0  0  0  0  0  0  0
   34.8090   21.0946   16.3752 C   0  0  0  0  0  0  0  0  0  0  0  0
   33.3172   21.2478   16.6479 C   0  0  1  0  0  0  0  0  0  0  0  0
   32.6857   19.9811   16.6055 O   0  0  0  0  0  0  0  0  0  0  0  0
   33.0590   21.8499   18.0194 C   0  0  1  0  0  0  0  0  0  0  0  0
   32.4182   23.0963   17.8846 O   0  0  0  0  0  0  0  0  0  0  0  0
   32.1492   20.8732   18.7353 C   0  0  1  0  0  0  0  0  0  0  0  0
   30.9534   21.5143   19.1140 O   0  0  0  0  0  0  0  0  0  0  0  0
   31.8564   19.7700   17.7329 C   0  0  2  0  0  0  0  0  0  0  0  0
   39.8574   22.9278   19.2267 O   0  0  0  0  0  0  0  0  0  0  0  0
   32.7479   17.0973   22.1634 N   0  0  0  0  0  0  0  0  0  0  0  0
   32.5008   18.4477   22.0194 C   0  0  0  0  0  0  0  0  0  0  0  0
   32.2860   18.9852   20.7657 N   0  0  0  0  0  0  0  0  0  0  0  0
   32.3177   18.1923   19.6670 C   0  0  0  0  0  0  0  0  0  0  0  0
   32.5651   16.8320   19.7913 C   0  0  0  0  0  0  0  0  0  0  0  0
   32.7814   16.2830   21.0495 C   0  0  0  0  0  0  0  0  0  0  0  0
   33.0203   14.9815   21.1804 N   0  0  0  0  0  0  0  0  0  0  0  0
   32.5393   16.2900   18.5545 N   0  0  0  0  0  0  0  0  0  0  0  0
   32.2833   17.2683   17.6558 C   0  0  0  0  0  0  0  0  0  0  0  0
   32.1434   18.4535   18.3307 N   0  0  0  0  0  0  0  0  0  0  0  0
  2  1  1  6  0  0  0
  2  3  1  0  0  0  0
  2  5  1  0  0  0  0
  3  4  1  0  0  0  0
  3 16  1  0  0  0  0
  5  6  1  0  0  0  0
  6  7  1  0  0  0  0
  7  8  1  0  0  0  0
  9  8  1  1  0  0  0
  9 10  1  0  0  0  0
  9 11  1  0  0  0  0
 10 15  1  0  0  0  0
 11 12  1  6  0  0  0
 11 13  1  0  0  0  0
 13 14  1  6  0  0  0
 13 15  1  0  0  0  0
 15 26  1  1  0  0  0
 17 18  2  0  0  0  0
 17 22  1  0  0  0  0
 18 19  1  0  0  0  0
 19 20  2  0  0  0  0
 20 21  1  0  0  0  0
 20 26  1  0  0  0  0
 21 22  2  0  0  0  0
 21 24  1  0  0  0  0
 22 23  1  0  0  0  0
 24 25  2  0  0  0  0
 25 26  1  0  0  0  0
M  END
>  <CHROM.1>
133.78173191,-164.98882432,178.11413938,-68.51225927,-100.33079731,-62.37048524
134.04532151,34.29953382,20.24381936,18.78141523,0.72402878,-0.40204668,-0.67227309

>  <Name>
ligand

>  <RI>
0

>  <Rbt.Current_Directory>
/home/itssahil/PROJECTS/Mol_Feturizer/New_Systems/rnas/3NPQ

>  <Rbt.Executable>
rbdock ($Id: //depot/dev/client3/rdock/2013.1/src/exe/rbdock.cxx#4 $)

>  <Rbt.Library>
libRbt.so (2013.1, Build901 2013/11/27)

>  <Rbt.Parameter_File>
/export/apps/rDock/src/rDock_2013.1_src/data/scripts/dock_solv.prm

>  <Rbt.Receptor>
prm/blind_docking_60.prm

>  <SCORE>
-6.4368

>  <SCORE.INTER>
-5.99273

>  <SCORE.INTER.CONST>
1

>  <SCORE.INTER.POLAR>
0

>  <SCORE.INTER.ROT>
7

>  <SCORE.INTER.SOLV>
8.2763

>  <SCORE.INTER.VDW>
-15.0206

>  <SCORE.INTER.norm>
-0.23049

>  <SCORE.INTRA>
-1.13267

>  <SCORE.INTRA.DIHEDRAL>
-1.50849

>  <SCORE.INTRA.DIHEDRAL.0>
6.97628

>  <SCORE.INTRA.POLAR>
0

>  <SCORE.INTRA.POLAR.0>
0

>  <SCORE.INTRA.REPUL>
0

>  <SCORE.INTRA.REPUL.0>
0

>  <SCORE.INTRA.SOLV>
-0.467668

>  <SCORE.INTRA.SOLV.lig_0>
-49.8243

>  <SCORE.INTRA.VDW>
-0.144591

>  <SCORE.INTRA.VDW.0>
-1.35881

>  <SCORE.INTRA.norm>
-0.0435643

>  <SCORE.RESTR>
0.688597

>  <SCORE.RESTR.CAVITY>
0.688597

>  <SCORE.RESTR.norm>
0.0264845

>  <SCORE.SYSTEM>
0

>  <SCORE.SYSTEM.CONST>
0

>  <SCORE.SYSTEM.DIHEDRAL>
0

>  <SCORE.SYSTEM.SOLV>
0

>  <SCORE.SYSTEM.norm>
0

>  <SCORE.heavy>
26

>  <SCORE.norm>
-0.247569

>  <RMSD>
15.670

$$$$
ligand
 OpenBabel11021811483D
libRbt.so/2013.1/901 2013/11/27
 26 28  0  0  0  0  0  0  0  0999 V2000
   40.0019   21.6345   17.9119 N   0  0  0  0  0  0  0  0  0  0  0  0
   38.5584   21.5883   18.1085 C   0  0  2  0  0  0  0  0  0  0  0  0
   38.1110   22.6233   19.1345 C   0  0  0  0  0  0  0  0  0  0  0  0
   38.9211   23.3868   19.6586 O   0  0  0  0  0  0  0  0  0  0  0  0
   38.1238   20.1957   18.5477 C   0  0  0  0  0  0  0  0  0  0  0  0
   36.6268   19.9432   18.4255 C   0  0  0  0  0  0  0  0  0  0  0  0
   36.1353   18.3396   19.1077 S   0  0  0  0  0  0  0  0  0  0  0  0
   34.6169   18.3824   18.1225 C   0  0  0  0  0  0  0  0  0  0  0  0
   33.4447   19.0018   18.8746 C   0  0  1  0  0  0  0  0  0  0  0  0
   33.8484   20.2143   19.4845 O   0  0  0  0  0  0  0  0  0  0  0  0
   32.2854   19.3142   17.9425 C   0  0  1  0  0  0  0  0  0  0  0  0
   31.1611   18.5455   18.2992 O   0  0  0  0  0  0  0  0  0  0  0  0
   31.9882   20.7873   18.1314 C   0  0  1  0  0  0  0  0  0  0  0  0
   30.6538   20.9623   18.5472 O   0  0  0  0  0  0  0  0  0  0  0  0
   32.9404   21.2658   19.2140 C   0  0  2  0  0  0  0  0  0  0  0  0
   36.9280   22.7204   19.4630 O   0  0  0  0  0  0  0  0  0  0  0  0
   35.7787   23.4144   15.3546 N   0  0  0  0  0  0  0  0  0  0  0  0
   35.2263   22.1503   15.4021 C   0  0  0  0  0  0  0  0  0  0  0  0
   34.5025   21.7491   16.5076 N   0  0  0  0  0  0  0  0  0  0  0  0
   34.3302   22.5919   17.5550 C   0  0  0  0  0  0  0  0  0  0  0  0
   34.8785   23.8669   17.5262 C   0  0  0  0  0  0  0  0  0  0  0  0
   35.6074   24.2787   16.4170 C   0  0  0  0  0  0  0  0  0  0  0  0
   36.1380   25.4974   16.3788 N   0  0  0  0  0  0  0  0  0  0  0  0
   34.5560   24.4845   18.6832 N   0  0  0  0  0  0  0  0  0  0  0  0
   33.8215   23.6364   19.4392 C   0  0  0  0  0  0  0  0  0  0  0  0
   33.6731   22.4588   18.7528 N   0  0  0  0  0  0  0  0  0  0  0  0
  2  1  1  1  0  0  0
  2  3  1  0  0  0  0
  2  5  1  0  0  0  0
  3  4  1  0  0  0  0
  3 16  1  0  0  0  0
  5  6  1  0  0  0  0
  6  7  1  0  0  0  0
  7  8  1  0  0  0  0
  9  8  1  6  0  0  0
  9 10  1  0  0  0  0
  9 11  1  0  0  0  0
 10 15  1  0  0  0  0
 11 12  1  1  0  0  0
 11 13  1  0  0  0  0
 13 14  1  1  0  0  0
 13 15  1  0  0  0  0
 15 26  1  6  0  0  0
 17 18  2  0  0  0  0
 17 22  1  0  0  0  0
 18 19  1  0  0  0  0
 19 20  2  0  0  0  0
 20 21  1  0  0  0  0
 20 26  1  0  0  0  0
 21 22  2  0  0  0  0
 21 24  1  0  0  0  0
 22 23  1  0  0  0  0
 24 25  2  0  0  0  0
 25 26  1  0  0  0  0
M  END
>  <CHROM.1>
1.74404201,-164.73659358,-174.39485295,-159.20026211,-92.11432668,47.57308961
69.16177644,35.14767411,21.44996429,18.20130337,-0.54716747,0.08849282,2.85029803

>  <Name>
ligand

>  <RI>
0

>  <Rbt.Current_Directory>
/home/itssahil/PROJECTS/Mol_Feturizer/New_Systems/rnas/3NPQ

>  <Rbt.Executable>
rbdock ($Id: //depot/dev/client3/rdock/2013.1/src/exe/rbdock.cxx#4 $)

>  <Rbt.Library>
libRbt.so (2013.1, Build901 2013/11/27)

>  <Rbt.Parameter_File>
/export/apps/rDock/src/rDock_2013.1_src/data/scripts/dock_solv.prm

>  <Rbt.Receptor>
prm/blind_docking_100.prm

>  <SCORE>
-11.4833

>  <SCORE.INTER>
-7.30746

>  <SCORE.INTER.CONST>
1

>  <SCORE.INTER.POLAR>
0

>  <SCORE.INTER.ROT>
7

>  <SCORE.INTER.SOLV>
8.51188

>  <SCORE.INTER.VDW>
-15.9756

>  <SCORE.INTER.norm>
-0.281056

>  <SCORE.INTRA>
-4.17588

>  <SCORE.INTRA.DIHEDRAL>
-0.814401

>  <SCORE.INTRA.DIHEDRAL.0>
6.97628

>  <SCORE.INTRA.POLAR>
0

>  <SCORE.INTRA.POLAR.0>
0

>  <SCORE.INTRA.REPUL>
0

>  <SCORE.INTRA.REPUL.0>
0

>  <SCORE.INTRA.SOLV>
-0.727677

>  <SCORE.INTRA.SOLV.lig_0>
-49.8243

>  <SCORE.INTRA.VDW>
-3.40484

>  <SCORE.INTRA.VDW.0>
-1.35881

>  <SCORE.INTRA.norm>
-0.160611

>  <SCORE.RESTR>
0

>  <SCORE.RESTR.CAVITY>
0

>  <SCORE.RESTR.norm>
0

>  <SCORE.SYSTEM>
0

>  <SCORE.SYSTEM.CONST>
0

>  <SCORE.SYSTEM.DIHEDRAL>
0

>  <SCORE.SYSTEM.SOLV>
0

>  <SCORE.SYSTEM.norm>
0

>  <SCORE.heavy>
26

>  <SCORE.norm>
-0.441667

>  <RMSD>
15.674

$$$$
ligand
 OpenBabel11021811483D
libRbt.so/2013.1/901 2013/11/27
 26 28  0  0  0  0  0  0  0  0999 V2000
   38.9985   15.4365   19.5597 N   0  0  0  0  0  0  0  0  0  0  0  0
   38.8193   16.8726   19.3869 C   0  0  2  0  0  0  0  0  0  0  0  0
   37.5892   17.3665   20.1397 C   0  0  0  0  0  0  0  0  0  0  0  0
   37.6126   18.4256   20.7656 O   0  0  0  0  0  0  0  0  0  0  0  0
   38.7022   17.2218   17.9085 C   0  0  0  0  0  0  0  0  0  0  0  0
   39.0969   18.6543   17.5740 C   0  0  0  0  0  0  0  0  0  0  0  0
   37.8806   19.8632   18.1552 S   0  0  0  0  0  0  0  0  0  0  0  0
   39.0562   21.2031   17.8378 C   0  0  0  0  0  0  0  0  0  0  0  0
   38.4358   22.5842   18.0137 C   0  0  1  0  0  0  0  0  0  0  0  0
   37.2617   22.6901   17.2292 O   0  0  0  0  0  0  0  0  0  0  0  0
   38.0521   22.8439   19.4613 C   0  0  1  0  0  0  0  0  0  0  0  0
   38.8029   23.9198   19.9722 O   0  0  0  0  0  0  0  0  0  0  0  0
   36.5803   23.2011   19.4414 C   0  0  1  0  0  0  0  0  0  0  0  0
   36.3851   24.4799   19.9990 O   0  0  0  0  0  0  0  0  0  0  0  0
   36.1746   23.2013   17.9776 C   0  0  2  0  0  0  0  0  0  0  0  0
   36.5424   16.7177   20.1391 O   0  0  0  0  0  0  0  0  0  0  0  0
   32.5211   20.2198   20.2863 N   0  0  0  0  0  0  0  0  0  0  0  0
   33.5623   20.9033   20.8815 C   0  0  0  0  0  0  0  0  0  0  0  0
   34.4363   21.6457   20.1122 N   0  0  0  0  0  0  0  0  0  0  0  0
   34.2802   21.7080   18.7673 C   0  0  0  0  0  0  0  0  0  0  0  0
   33.2397   21.0271   18.1502 C   0  0  0  0  0  0  0  0  0  0  0  0
   32.3552   20.2785   18.9173 C   0  0  0  0  0  0  0  0  0  0  0  0
   31.3554   19.6214   18.3369 N   0  0  0  0  0  0  0  0  0  0  0  0
   33.3196   21.2607   16.8224 N   0  0  0  0  0  0  0  0  0  0  0  0
   34.3791   22.0679   16.5854 C   0  0  0  0  0  0  0  0  0  0  0  0
   34.9846   22.3538   17.7819 N   0  0  0  0  0  0  0  0  0  0  0  0
  2  1  1  6  0  0  0
  2  3  1  0  0  0  0
  2  5  1  0  0  0  0
  3  4  1  0  0  0  0
  3 16  1  0  0  0  0
  5  6  1  0  0  0  0
  6  7  1  0  0  0  0
  7  8  1  0  0  0  0
  9  8  1  1  0  0  0
  9 10  1  0  0  0  0
  9 11  1  0  0  0  0
 10 15  1  0  0  0  0
 11 12  1  6  0  0  0
 11 13  1  0  0  0  0
 13 14  1  6  0  0  0
 13 15  1  0  0  0  0
 15 26  1  1  0  0  0
 17 18  2  0  0  0  0
 17 22  1  0  0  0  0
 18 19  1  0  0  0  0
 19 20  2  0  0  0  0
 20 21  1  0  0  0  0
 20 26  1  0  0  0  0
 21 22  2  0  0  0  0
 21 24  1  0  0  0  0
 22 23  1  0  0  0  0
 24 25  2  0  0  0  0
 25 26  1  0  0  0  0
M  END
>  <CHROM.1>
138.61794932,-155.47734778,-71.78571331,167.63663350,172.58526151,-53.34494243
121.98559714,36.32619528,20.57405299,18.83879044,0.85043672,-0.02680918,3.01917842

>  <Name>
ligand

>  <RI>
0

>  <Rbt.Current_Directory>
/home/itssahil/PROJECTS/Mol_Feturizer/New_Systems/rnas/3NPQ

>  <Rbt.Executable>
rbdock ($Id: //depot/dev/client3/rdock/2013.1/src/exe/rbdock.cxx#4 $)

>  <Rbt.Library>
libRbt.so (2013.1, Build901 2013/11/27)

>  <Rbt.Parameter_File>
/export/apps/rDock/src/rDock_2013.1_src/data/scripts/dock_solv.prm

>  <Rbt.Receptor>
prm/blind_docking_80.prm

>  <SCORE>
-7.81741

>  <SCORE.INTER>
-5.74304

>  <SCORE.INTER.CONST>
1

>  <SCORE.INTER.POLAR>
0

>  <SCORE.INTER.ROT>
7

>  <SCORE.INTER.SOLV>
5.32643

>  <SCORE.INTER.VDW>
-13.8708

>  <SCORE.INTER.norm>
-0.220886

>  <SCORE.INTRA>
-2.11563

>  <SCORE.INTRA.DIHEDRAL>
-1.24771

>  <SCORE.INTRA.DIHEDRAL.0>
6.97628

>  <SCORE.INTRA.POLAR>
0

>  <SCORE.INTRA.POLAR.0>
0

>  <SCORE.INTRA.REPUL>
0

>  <SCORE.INTRA.REPUL.0>
0

>  <SCORE.INTRA.SOLV>
-0.41742

>  <SCORE.INTRA.SOLV.lig_0>
-49.8243

>  <SCORE.INTRA.VDW>
-1.28306

>  <SCORE.INTRA.VDW.0>
-1.35881

>  <SCORE.INTRA.norm>
-0.0813702

>  <SCORE.RESTR>
0.0412484

>  <SCORE.RESTR.CAVITY>
0.0412484

>  <SCORE.RESTR.norm>
0.00158648

>  <SCORE.SYSTEM>
0

>  <SCORE.SYSTEM.CONST>
0

>  <SCORE.SYSTEM.DIHEDRAL>
0

>  <SCORE.SYSTEM.SOLV>
0

>  <SCORE.SYSTEM.norm>
0

>  <SCORE.heavy>
26

>  <SCORE.norm>
-0.30067

>  <RMSD>
15.720

$$$$
ligand
 OpenBabel11021811483D
libRbt.so/2013.1/901 2013/11/27
 26 28  0  0  0  0  0  0  0  0999 V2000
   31.6225   19.1780   17.0153 N   0  0  0  0  0  0  0  0  0  0  0  0
   32.2256   19.7741   18.2008 C   0  0  2  0  0  0  0  0  0  0  0  0
   31.4663   21.0232   18.6334 C   0  0  0  0  0  0  0  0  0  0  0  0
   30.3178   20.9475   19.0681 O   0  0  0  0  0  0  0  0  0  0  0  0
   33.6877   20.1150   17.9418 C   0  0  0  0  0  0  0  0  0  0  0  0
   34.6250   18.9155   17.9923 C   0  0  0  0  0  0  0  0  0  0  0  0
   36.3400   19.3883   18.3290 S   0  0  0  0  0  0  0  0  0  0  0  0
   36.1599   18.8332   20.0429 C   0  0  0  0  0  0  0  0  0  0  0  0
   35.9807   19.9893   21.0200 C   0  0  1  0  0  0  0  0  0  0  0  0
   37.1087   20.8438   20.9698 O   0  0  0  0  0  0  0  0  0  0  0  0
   34.7532   20.8201   20.6833 C   0  0  1  0  0  0  0  0  0  0  0  0
   33.8197   20.7469   21.7347 O   0  0  0  0  0  0  0  0  0  0  0  0
   35.2474   22.2432   20.5261 C   0  0  1  0  0  0  0  0  0  0  0  0
   34.5820   23.0897   21.4343 O   0  0  0  0  0  0  0  0  0  0  0  0
   36.7329   22.2023   20.8413 C   0  0  2  0  0  0  0  0  0  0  0  0
   31.9845   22.1380   18.5588 O   0  0  0  0  0  0  0  0  0  0  0  0
   36.8501   23.4367   15.7393 N   0  0  0  0  0  0  0  0  0  0  0  0
   35.8556   22.7762   16.4323 C   0  0  0  0  0  0  0  0  0  0  0  0
   35.9938   22.5345   17.7849 N   0  0  0  0  0  0  0  0  0  0  0  0
   37.1068   22.9420   18.4422 C   0  0  0  0  0  0  0  0  0  0  0  0
   38.1181   23.6072   17.7626 C   0  0  0  0  0  0  0  0  0  0  0  0
   37.9864   23.8552   16.4016 C   0  0  0  0  0  0  0  0  0  0  0  0
   38.9491   24.4907   15.7402 N   0  0  0  0  0  0  0  0  0  0  0  0
   39.0957   23.8944   18.6492 N   0  0  0  0  0  0  0  0  0  0  0  0
   38.7300   23.4298   19.8660 C   0  0  0  0  0  0  0  0  0  0  0  0
   37.4989   22.8368   19.7535 N   0  0  0  0  0  0  0  0  0  0  0  0
  2  1  1  6  0  0  0
  2  3  1  0  0  0  0
  2  5  1  0  0  0  0
  3  4  1  0  0  0  0
  3 16  1  0  0  0  0
  5  6  1  0  0  0  0
  6  7  1  0  0  0  0
  7  8  1  0  0  0  0
  9  8  1  6  0  0  0
  9 10  1  0  0  0  0
  9 11  1  0  0  0  0
 10 15  1  0  0  0  0
 11 12  1  1  0  0  0
 11 13  1  0  0  0  0
 13 14  1  1  0  0  0
 13 15  1  0  0  0  0
 15 26  1  6  0  0  0
 17 18  2  0  0  0  0
 17 22  1  0  0  0  0
 18 19  1  0  0  0  0
 19 20  2  0  0  0  0
 20 21  1  0  0  0  0
 20 26  1  0  0  0  0
 21 22  2  0  0  0  0
 21 24  1  0  0  0  0
 22 23  1  0  0  0  0
 24 25  2  0  0  0  0
 25 26  1  0  0  0  0
M  END
>  <CHROM.1>
67.25104879,-77.59090443,-157.57563827,103.20097162,-102.85243682,-60.30355373
92.60309113,35.45626546,21.54859092,18.85590086,2.81533836,0.43066939,1.91973892

>  <Name>
ligand

>  <RI>
0

>  <Rbt.Current_Directory>
/home/itssahil/PROJECTS/Mol_Feturizer/New_Systems/rnas/3NPQ

>  <Rbt.Executable>
rbdock ($Id: //depot/dev/client3/rdock/2013.1/src/exe/rbdock.cxx#4 $)

>  <Rbt.Library>
libRbt.so (2013.1, Build901 2013/11/27)

>  <Rbt.Parameter_File>
/export/apps/rDock/src/rDock_2013.1_src/data/scripts/dock_solv.prm

>  <Rbt.Receptor>
prm/blind_docking_100.prm

>  <SCORE>
-6.63677

>  <SCORE.INTER>
-5.88803

>  <SCORE.INTER.CONST>
1

>  <SCORE.INTER.POLAR>
0

>  <SCORE.INTER.ROT>
7

>  <SCORE.INTER.SOLV>
12.6508

>  <SCORE.INTER.VDW>
-16.409

>  <SCORE.INTER.norm>
-0.226463

>  <SCORE.INTRA>
-0.74874

>  <SCORE.INTRA.DIHEDRAL>
2.4744

>  <SCORE.INTRA.DIHEDRAL.0>
6.97628

>  <SCORE.INTRA.POLAR>
0

>  <SCORE.INTRA.POLAR.0>
0

>  <SCORE.INTRA.REPUL>
0

>  <SCORE.INTRA.REPUL.0>
0

>  <SCORE.INTRA.SOLV>
0.31505

>  <SCORE.INTRA.SOLV.lig_0>
-49.8243

>  <SCORE.INTRA.VDW>
-2.14347

>  <SCORE.INTRA.VDW.0>
-1.35881

>  <SCORE.INTRA.norm>
-0.0287977

>  <SCORE.RESTR>
0

>  <SCORE.RESTR.CAVITY>
0

>  <SCORE.RESTR.norm>
0

>  <SCORE.SYSTEM>
0

>  <SCORE.SYSTEM.CONST>
0

>  <SCORE.SYSTEM.DIHEDRAL>
0

>  <SCORE.SYSTEM.SOLV>
0

>  <SCORE.SYSTEM.norm>
0

>  <SCORE.heavy>
26

>  <SCORE.norm>
-0.25526

>  <RMSD>
15.723

$$$$
ligand
 OpenBabel11021811483D
libRbt.so/2013.1/901 2013/11/27
 26 28  0  0  0  0  0  0  0  0999 V2000
   31.5976   16.1378   21.4200 N   0  0  0  0  0  0  0  0  0  0  0  0
   32.7266   17.0059   21.7305 C   0  0  2  0  0  0  0  0  0  0  0  0
   32.2703   18.4451   21.9415 C   0  0  0  0  0  0  0  0  0  0  0  0
   31.5140   18.9935   21.1408 O   0  0  0  0  0  0  0  0  0  0  0  0
   33.7676   16.9454   20.6198 C   0  0  0  0  0  0  0  0  0  0  0  0
   33.2218   17.2741   19.2364 C   0  0  0  0  0  0  0  0  0  0  0  0
   34.5028   17.8842   18.1116 S   0  0  0  0  0  0  0  0  0  0  0  0
   34.3291   19.5456   18.8100 C   0  0  0  0  0  0  0  0  0  0  0  0
   35.3671   19.8433   19.8857 C   0  0  1  0  0  0  0  0  0  0  0  0
   36.6206   20.1147   19.2858 O   0  0  0  0  0  0  0  0  0  0  0  0
   34.9781   21.0547   20.7173 C   0  0  1  0  0  0  0  0  0  0  0  0
   34.7697   20.6720   22.0561 O   0  0  0  0  0  0  0  0  0  0  0  0
   36.1488   22.0114   20.6271 C   0  0  1  0  0  0  0  0  0  0  0  0
   36.6469   22.2894   21.9151 O   0  0  0  0  0  0  0  0  0  0  0  0
   37.2045   21.2965   19.8012 C   0  0  2  0  0  0  0  0  0  0  0  0
   32.6473   19.0931   22.9186 O   0  0  0  0  0  0  0  0  0  0  0  0
   41.2889   22.9588   16.9515 N   0  0  0  0  0  0  0  0  0  0  0  0
   41.2919   22.0599   17.9991 C   0  0  0  0  0  0  0  0  0  0  0  0
   40.1126   21.7356   18.6400 N   0  0  0  0  0  0  0  0  0  0  0  0
   38.9436   22.2979   18.2472 C   0  0  0  0  0  0  0  0  0  0  0  0
   38.9202   23.2044   17.1961 C   0  0  0  0  0  0  0  0  0  0  0  0
   40.1026   23.5355   16.5452 C   0  0  0  0  0  0  0  0  0  0  0  0
   40.0924   24.4032   15.5377 N   0  0  0  0  0  0  0  0  0  0  0  0
   37.6419   23.6022   17.0184 N   0  0  0  0  0  0  0  0  0  0  0  0
   36.8602   22.9735   17.9261 C   0  0  0  0  0  0  0  0  0  0  0  0
   37.6533   22.1613   18.6951 N   0  0  0  0  0  0  0  0  0  0  0  0
  2  1  1  6  0  0  0
  2  3  1  0  0  0  0
  2  5  1  0  0  0  0
  3  4  1  0  0  0  0
  3 16  1  0  0  0  0
  5  6  1  0  0  0  0
  6  7  1  0  0  0  0
  7  8  1  0  0  0  0
  9  8  1  6  0  0  0
  9 10  1  0  0  0  0
  9 11  1  0  0  0  0
 10 15  1  0  0  0  0
 11 12  1  1  0  0  0
 11 13  1  0  0  0  0
 13 14  1  1  0  0  0
 13 15  1  0  0  0  0
 15 26  1  6  0  0  0
 17 18  2  0  0  0  0
 17 22  1  0  0  0  0
 18 19  1  0  0  0  0
 19 20  2  0  0  0  0
 20 21  1  0  0  0  0
 20 26  1  0  0  0  0
 21 22  2  0  0  0  0
 21 24  1  0  0  0  0
 22 23  1  0  0  0  0
 24 25  2  0  0  0  0
 25 26  1  0  0  0  0
M  END
>  <CHROM.1>
-48.06891629,55.37219617,155.37418211,-82.62589503,96.75513235,76.37729668
-101.41792907,36.02455679,20.48884966,19.43389658,-3.13634941,0.74428047
0.93958356

>  <Name>
ligand

>  <RI>
0

>  <Rbt.Current_Directory>
/home/itssahil/PROJECTS/Mol_Feturizer/New_Systems/rnas/3NPQ

>  <Rbt.Executable>
rbdock ($Id: //depot/dev/client3/rdock/2013.1/src/exe/rbdock.cxx#4 $)

>  <Rbt.Library>
libRbt.so (2013.1, Build901 2013/11/27)

>  <Rbt.Parameter_File>
/export/apps/rDock/src/rDock_2013.1_src/data/scripts/dock_solv.prm

>  <Rbt.Receptor>
prm/blind_docking_60.prm

>  <SCORE>
-10.1198

>  <SCORE.INTER>
-9.18951

>  <SCORE.INTER.CONST>
1

>  <SCORE.INTER.POLAR>
0

>  <SCORE.INTER.ROT>
7

>  <SCORE.INTER.SOLV>
10.1286

>  <SCORE.INTER.VDW>
-17.7692

>  <SCORE.INTER.norm>
-0.353443

>  <SCORE.INTRA>
-0.930339

>  <SCORE.INTRA.DIHEDRAL>
1.05366

>  <SCORE.INTRA.DIHEDRAL.0>
6.97628

>  <SCORE.INTRA.POLAR>
0

>  <SCORE.INTRA.POLAR.0>
0

>  <SCORE.INTRA.REPUL>
0

>  <SCORE.INTRA.REPUL.0>
0

>  <SCORE.INTRA.SOLV>
0.0975969

>  <SCORE.INTRA.SOLV.lig_0>
-49.8243

>  <SCORE.INTRA.VDW>
-1.50597

>  <SCORE.INTRA.VDW.0>
-1.35881

>  <SCORE.INTRA.norm>
-0.0357823

>  <SCORE.RESTR>
0

>  <SCORE.RESTR.CAVITY>
0

>  <SCORE.RESTR.norm>
0

>  <SCORE.SYSTEM>
0

>  <SCORE.SYSTEM.CONST>
0

>  <SCORE.SYSTEM.DIHEDRAL>
0

>  <SCORE.SYSTEM.SOLV>
0

>  <SCORE.SYSTEM.norm>
0

>  <SCORE.heavy>
26

>  <SCORE.norm>
-0.389225

>  <RMSD>
15.734

$$$$
ligand
 OpenBabel11021811483D
libRbt.so/2013.1/901 2013/11/27
 26 28  0  0  0  0  0  0  0  0999 V2000
   30.3086   21.0939   19.2978 N   0  0  0  0  0  0  0  0  0  0  0  0
   31.3240   20.0775   19.0521 C   0  0  2  0  0  0  0  0  0  0  0  0
   31.0466   19.3273   17.7544 C   0  0  0  0  0  0  0  0  0  0  0  0
   31.9106   18.6238   17.2323 O   0  0  0  0  0  0  0  0  0  0  0  0
   31.3919   19.0982   20.2173 C   0  0  0  0  0  0  0  0  0  0  0  0
   32.4485   18.0130   20.0577 C   0  0  0  0  0  0  0  0  0  0  0  0
   34.1322   18.6792   20.0501 S   0  0  0  0  0  0  0  0  0  0  0  0
   34.7509   17.1162   19.3773 C   0  0  0  0  0  0  0  0  0  0  0  0
   36.0493   17.2845   18.5969 C   0  0  1  0  0  0  0  0  0  0  0  0
   36.1211   18.5904   18.0541 O   0  0  0  0  0  0  0  0  0  0  0  0
   37.2656   17.0836   19.4861 C   0  0  1  0  0  0  0  0  0  0  0  0
   38.0020   15.9663   19.0482 O   0  0  0  0  0  0  0  0  0  0  0  0
   38.0961   18.3419   19.3415 C   0  0  1  0  0  0  0  0  0  0  0  0
   39.3845   18.0200   18.8718 O   0  0  0  0  0  0  0  0  0  0  0  0
   37.3683   19.2030   18.3235 C   0  0  2  0  0  0  0  0  0  0  0  0
   29.9509   19.4070   17.1976 O   0  0  0  0  0  0  0  0  0  0  0  0
   36.1896   22.0686   22.5622 N   0  0  0  0  0  0  0  0  0  0  0  0
   36.2931   20.6955   22.4652 C   0  0  0  0  0  0  0  0  0  0  0  0
   36.6156   20.1062   21.2588 N   0  0  0  0  0  0  0  0  0  0  0  0
   36.8315   20.8703   20.1604 C   0  0  0  0  0  0  0  0  0  0  0  0
   36.7315   22.2528   20.2377 C   0  0  0  0  0  0  0  0  0  0  0  0
   36.4083   22.8537   21.4483 C   0  0  0  0  0  0  0  0  0  0  0  0
   36.3089   24.1770   21.5339 N   0  0  0  0  0  0  0  0  0  0  0  0
   36.9935   22.7577   19.0127 N   0  0  0  0  0  0  0  0  0  0  0  0
   37.2549   21.7346   18.1670 C   0  0  0  0  0  0  0  0  0  0  0  0
   37.1583   20.5580   18.8643 N   0  0  0  0  0  0  0  0  0  0  0  0
  2  1  1  1  0  0  0
  2  3  1  0  0  0  0
  2  5  1  0  0  0  0
  3  4  1  0  0  0  0
  3 16  1  0  0  0  0
  5  6  1  0  0  0  0
  6  7  1  0  0  0  0
  7  8  1  0  0  0  0
  9  8  1  1  0  0  0
  9 10  1  0  0  0  0
  9 11  1  0  0  0  0
 10 15  1  0  0  0  0
 11 12  1  6  0  0  0
 11 13  1  0  0  0  0
 13 14  1  6  0  0  0
 13 15  1  0  0  0  0
 15 26  1  1  0  0  0
 17 18  2  0  0  0  0
 17 22  1  0  0  0  0
 18 19  1  0  0  0  0
 19 20  2  0  0  0  0
 20 21  1  0  0  0  0
 20 26  1  0  0  0  0
 21 22  2  0  0  0  0
 21 24  1  0  0  0  0
 22 23  1  0  0  0  0
 24 25  2  0  0  0  0
 25 26  1  0  0  0  0
M  END
>  <CHROM.1>
165.42740774,-178.89366206,65.09485199,-164.60330978,154.72819095,-27.64646509
79.87699412,35.15862372,19.64234924,19.50372378,2.94791301,0.14100632,-2.73146934

>  <Name>
ligand

>  <RI>
0

>  <Rbt.Current_Directory>
/home/itssahil/PROJECTS/Mol_Feturizer/New_Systems/rnas/3NPQ

>  <Rbt.Executable>
rbdock ($Id: //depot/dev/client3/rdock/2013.1/src/exe/rbdock.cxx#4 $)

>  <Rbt.Library>
libRbt.so (2013.1, Build901 2013/11/27)

>  <Rbt.Parameter_File>
/export/apps/rDock/src/rDock_2013.1_src/data/scripts/dock_solv.prm

>  <Rbt.Receptor>
prm/blind_docking_80.prm

>  <SCORE>
-6.72105

>  <SCORE.INTER>
-4.87098

>  <SCORE.INTER.CONST>
1

>  <SCORE.INTER.POLAR>
0

>  <SCORE.INTER.ROT>
7

>  <SCORE.INTER.SOLV>
14.8147

>  <SCORE.INTER.VDW>
-16.4522

>  <SCORE.INTER.norm>
-0.187345

>  <SCORE.INTRA>
-1.85463

>  <SCORE.INTRA.DIHEDRAL>
0.0353359

>  <SCORE.INTRA.DIHEDRAL.0>
6.97628

>  <SCORE.INTRA.POLAR>
0

>  <SCORE.INTRA.POLAR.0>
0

>  <SCORE.INTRA.REPUL>
0

>  <SCORE.INTRA.REPUL.0>
0

>  <SCORE.INTRA.SOLV>
-0.451619

>  <SCORE.INTRA.SOLV.lig_0>
-49.8243

>  <SCORE.INTRA.VDW>
-1.64649

>  <SCORE.INTRA.VDW.0>
-1.35881

>  <SCORE.INTRA.norm>
-0.0713319

>  <SCORE.RESTR>
0.00455584

>  <SCORE.RESTR.CAVITY>
0.00455584

>  <SCORE.RESTR.norm>
0.000175225

>  <SCORE.SYSTEM>
0

>  <SCORE.SYSTEM.CONST>
0

>  <SCORE.SYSTEM.DIHEDRAL>
0

>  <SCORE.SYSTEM.SOLV>
0

>  <SCORE.SYSTEM.norm>
0

>  <SCORE.heavy>
26

>  <SCORE.norm>
-0.258502

>  <RMSD>
15.735

$$$$
ligand
 OpenBabel11021811483D
libRbt.so/2013.1/901 2013/11/27
 26 28  0  0  0  0  0  0  0  0999 V2000
   32.8833   15.9567   19.1298 N   0  0  0  0  0  0  0  0  0  0  0  0
   32.4540   17.3482   19.0661 C   0  0  2  0  0  0  0  0  0  0  0  0
   31.7983   17.6592   17.7254 C   0  0  0  0  0  0  0  0  0  0  0  0
   31.4931   16.7579   16.9454 O   0  0  0  0  0  0  0  0  0  0  0  0
   33.6349   18.2822   19.2992 C   0  0  0  0  0  0  0  0  0  0  0  0
   34.8583   17.9629   18.4501 C   0  0  0  0  0  0  0  0  0  0  0  0
   36.1328   19.2443   18.5593 S   0  0  0  0  0  0  0  0  0  0  0  0
   36.3107   18.9207   20.3318 C   0  0  0  0  0  0  0  0  0  0  0  0
   35.9895   20.1403   21.1878 C   0  0  1  0  0  0  0  0  0  0  0  0
   37.0611   21.0643   21.1339 O   0  0  0  0  0  0  0  0  0  0  0  0
   34.7380   20.8514   20.6995 C   0  0  1  0  0  0  0  0  0  0  0  0
   33.7395   20.8027   21.6909 O   0  0  0  0  0  0  0  0  0  0  0  0
   35.1497   22.2871   20.4476 C   0  0  1  0  0  0  0  0  0  0  0  0
   34.3692   23.1591   21.2316 O   0  0  0  0  0  0  0  0  0  0  0  0
   36.6089   22.3773   20.8602 C   0  0  2  0  0  0  0  0  0  0  0  0
   31.5578   18.8199   17.3911 O   0  0  0  0  0  0  0  0  0  0  0  0
   36.8576   23.4517   15.7269 N   0  0  0  0  0  0  0  0  0  0  0  0
   35.8396   22.8243   16.4165 C   0  0  0  0  0  0  0  0  0  0  0  0
   35.9440   22.6231   17.7787 N   0  0  0  0  0  0  0  0  0  0  0  0
   37.0465   23.0380   18.4489 C   0  0  0  0  0  0  0  0  0  0  0  0
   38.0811   23.6703   17.7729 C   0  0  0  0  0  0  0  0  0  0  0  0
   37.9835   23.8775   16.4022 C   0  0  0  0  0  0  0  0  0  0  0  0
   38.9687   24.4812   15.7441 N   0  0  0  0  0  0  0  0  0  0  0  0
   39.0415   23.9737   18.6727 N   0  0  0  0  0  0  0  0  0  0  0  0
   38.6425   23.5512   19.8944 C   0  0  0  0  0  0  0  0  0  0  0  0
   37.4072   22.9690   19.7716 N   0  0  0  0  0  0  0  0  0  0  0  0
  2  1  1  6  0  0  0
  2  3  1  0  0  0  0
  2  5  1  0  0  0  0
  3  4  1  0  0  0  0
  3 16  1  0  0  0  0
  5  6  1  0  0  0  0
  6  7  1  0  0  0  0
  7  8  1  0  0  0  0
  9  8  1  6  0  0  0
  9 10  1  0  0  0  0
  9 11  1  0  0  0  0
 10 15  1  0  0  0  0
 11 12  1  1  0  0  0
 11 13  1  0  0  0  0
 13 14  1  1  0  0  0
 13 15  1  0  0  0  0
 15 26  1  6  0  0  0
 17 18  2  0  0  0  0
 17 22  1  0  0  0  0
 18 19  1  0  0  0  0
 19 20  2  0  0  0  0
 20 21  1  0  0  0  0
 20 26  1  0  0  0  0
 21 22  2  0  0  0  0
 21 24  1  0  0  0  0
 22 23  1  0  0  0  0
 24 25  2  0  0  0  0
 25 26  1  0  0  0  0
M  END
>  <CHROM.1>
11.51909850,49.46763415,170.76413348,62.24957841,-119.27713660,-75.89983346
98.73219035,35.51320876,20.85473595,18.89657571,3.04262707,0.86447729,1.62204974

>  <Name>
ligand

>  <RI>
0

>  <Rbt.Current_Directory>
/home/itssahil/PROJECTS/Mol_Feturizer/New_Systems/rnas/3NPQ

>  <Rbt.Executable>
rbdock ($Id: //depot/dev/client3/rdock/2013.1/src/exe/rbdock.cxx#4 $)

>  <Rbt.Library>
libRbt.so (2013.1, Build901 2013/11/27)

>  <Rbt.Parameter_File>
/export/apps/rDock/src/rDock_2013.1_src/data/scripts/dock_solv.prm

>  <Rbt.Receptor>
prm/blind_docking_60.prm

>  <SCORE>
-4.9567

>  <SCORE.INTER>
-5.78791

>  <SCORE.INTER.CONST>
1

>  <SCORE.INTER.POLAR>
0

>  <SCORE.INTER.ROT>
7

>  <SCORE.INTER.SOLV>
10.7328

>  <SCORE.INTER.VDW>
-15.7029

>  <SCORE.INTER.norm>
-0.222612

>  <SCORE.INTRA>
0.83042

>  <SCORE.INTRA.DIHEDRAL>
-0.275499

>  <SCORE.INTRA.DIHEDRAL.0>
6.97628

>  <SCORE.INTRA.POLAR>
0

>  <SCORE.INTRA.POLAR.0>
0

>  <SCORE.INTRA.REPUL>
0

>  <SCORE.INTRA.REPUL.0>
0

>  <SCORE.INTRA.SOLV>
0.388472

>  <SCORE.INTRA.SOLV.lig_0>
-49.8243

>  <SCORE.INTRA.VDW>
0.773933

>  <SCORE.INTRA.VDW.0>
-1.35881

>  <SCORE.INTRA.norm>
0.0319392

>  <SCORE.RESTR>
0.000794135

>  <SCORE.RESTR.CAVITY>
0.000794135

>  <SCORE.RESTR.norm>
3.05436e-05

>  <SCORE.SYSTEM>
0

>  <SCORE.SYSTEM.CONST>
0

>  <SCORE.SYSTEM.DIHEDRAL>
0

>  <SCORE.SYSTEM.SOLV>
0

>  <SCORE.SYSTEM.norm>
0

>  <SCORE.heavy>
26

>  <SCORE.norm>
-0.190642

>  <RMSD>
15.754

$$$$
ligand
 OpenBabel11021811483D
libRbt.so/2013.1/901 2013/11/27
 26 28  0  0  0  0  0  0  0  0999 V2000
   23.2097   20.3692   12.5270 N   0  0  0  0  0  0  0  0  0  0  0  0
   23.1232   18.9584   12.8827 C   0  0  2  0  0  0  0  0  0  0  0  0
   22.9882   18.7800   14.3907 C   0  0  0  0  0  0  0  0  0  0  0  0
   22.3299   17.8538   14.8625 O   0  0  0  0  0  0  0  0  0  0  0  0
   24.3454   18.2039   12.3747 C   0  0  0  0  0  0  0  0  0  0  0  0
   24.8586   18.6872   11.0246 C   0  0  0  0  0  0  0  0  0  0  0  0
   23.5195   19.0312    9.8556 S   0  0  0  0  0  0  0  0  0  0  0  0
   24.7309   19.2547    8.5287 C   0  0  0  0  0  0  0  0  0  0  0  0
   24.4180   18.4116    7.2981 C   0  0  1  0  0  0  0  0  0  0  0  0
   24.8608   17.0816    7.4981 O   0  0  0  0  0  0  0  0  0  0  0  0
   22.9250   18.3667    7.0167 C   0  0  1  0  0  0  0  0  0  0  0  0
   22.6518   18.9672    5.7728 O   0  0  0  0  0  0  0  0  0  0  0  0
   22.5556   16.8984    6.9765 C   0  0  1  0  0  0  0  0  0  0  0  0
   21.9873   16.5763    5.7285 O   0  0  0  0  0  0  0  0  0  0  0  0
   23.8570   16.1392    7.1702 C   0  0  2  0  0  0  0  0  0  0  0  0
   23.5353   19.5584   15.1728 O   0  0  0  0  0  0  0  0  0  0  0  0
   26.2500   13.6007   11.0941 N   0  0  0  0  0  0  0  0  0  0  0  0
   26.7904   14.5276   10.2257 C   0  0  0  0  0  0  0  0  0  0  0  0
   26.0062   15.1000    9.2437 N   0  0  0  0  0  0  0  0  0  0  0  0
   24.7009   14.7554    9.1235 C   0  0  0  0  0  0  0  0  0  0  0  0
   24.1393   13.8247    9.9870 C   0  0  0  0  0  0  0  0  0  0  0  0
   24.9215   13.2448   10.9785 C   0  0  0  0  0  0  0  0  0  0  0  0
   24.3945   12.3515   11.8106 N   0  0  0  0  0  0  0  0  0  0  0  0
   22.8413   13.6719    9.6466 N   0  0  0  0  0  0  0  0  0  0  0  0
   22.5693   14.4782    8.5949 C   0  0  0  0  0  0  0  0  0  0  0  0
   23.7127   15.1565    8.2593 N   0  0  0  0  0  0  0  0  0  0  0  0
  2  1  1  1  0  0  0
  2  3  1  0  0  0  0
  2  5  1  0  0  0  0
  3  4  1  0  0  0  0
  3 16  1  0  0  0  0
  5  6  1  0  0  0  0
  6  7  1  0  0  0  0
  7  8  1  0  0  0  0
  9  8  1  1  0  0  0
  9 10  1  0  0  0  0
  9 11  1  0  0  0  0
 10 15  1  0  0  0  0
 11 12  1  6  0  0  0
 11 13  1  0  0  0  0
 13 14  1  6  0  0  0
 13 15  1  0  0  0  0
 15 26  1  1  0  0  0
 17 18  2  0  0  0  0
 17 22  1  0  0  0  0
 18 19  1  0  0  0  0
 19 20  2  0  0  0  0
 20 21  1  0  0  0  0
 20 26  1  0  0  0  0
 21 22  2  0  0  0  0
 21 24  1  0  0  0  0
 22 23  1  0  0  0  0
 24 25  2  0  0  0  0
 25 26  1  0  0  0  0
M  END
>  <CHROM.1>
146.72333972,-36.55551075,-41.74765720,-171.56097554,127.95818837,-80.57661502
-29.04132360,23.88303211,16.87649317,9.92028193,1.69574812,-1.30584823,1.29306949

>  <Name>
ligand

>  <RI>
0

>  <Rbt.Current_Directory>
/home/itssahil/PROJECTS/Mol_Feturizer/New_Systems/rnas/3NPQ

>  <Rbt.Executable>
rbdock ($Id: //depot/dev/client3/rdock/2013.1/src/exe/rbdock.cxx#4 $)

>  <Rbt.Library>
libRbt.so (2013.1, Build901 2013/11/27)

>  <Rbt.Parameter_File>
/export/apps/rDock/src/rDock_2013.1_src/data/scripts/dock_solv.prm

>  <Rbt.Receptor>
prm/blind_docking_60.prm

>  <SCORE>
2.54019

>  <SCORE.INTER>
-1.19104

>  <SCORE.INTER.CONST>
1

>  <SCORE.INTER.POLAR>
0

>  <SCORE.INTER.ROT>
7

>  <SCORE.INTER.SOLV>
21.0546

>  <SCORE.INTER.VDW>
-16.0789

>  <SCORE.INTER.norm>
-0.0458091

>  <SCORE.INTRA>
2.02701

>  <SCORE.INTRA.DIHEDRAL>
2.56491

>  <SCORE.INTRA.DIHEDRAL.0>
6.97628

>  <SCORE.INTRA.POLAR>
0

>  <SCORE.INTRA.POLAR.0>
0

>  <SCORE.INTRA.REPUL>
0

>  <SCORE.INTRA.REPUL.0>
0

>  <SCORE.INTRA.SOLV>
1.72648

>  <SCORE.INTRA.SOLV.lig_0>
-49.8243

>  <SCORE.INTRA.VDW>
-0.118684

>  <SCORE.INTRA.VDW.0>
-1.35881

>  <SCORE.INTRA.norm>
0.0779618

>  <SCORE.RESTR>
1.70422

>  <SCORE.RESTR.CAVITY>
1.70422

>  <SCORE.RESTR.norm>
0.0655468

>  <SCORE.SYSTEM>
0

>  <SCORE.SYSTEM.CONST>
0

>  <SCORE.SYSTEM.DIHEDRAL>
0

>  <SCORE.SYSTEM.SOLV>
0

>  <SCORE.SYSTEM.norm>
0

>  <SCORE.heavy>
26

>  <SCORE.norm>
0.0976995

>  <RMSD>
15.763

$$$$
ligand
 OpenBabel11021811483D
libRbt.so/2013.1/901 2013/11/27
 26 28  0  0  0  0  0  0  0  0999 V2000
   25.5018   11.7774    4.4159 N   0  0  0  0  0  0  0  0  0  0  0  0
   25.1601   12.3292    5.7210 C   0  0  2  0  0  0  0  0  0  0  0  0
   26.3608   13.0224    6.3549 C   0  0  0  0  0  0  0  0  0  0  0  0
   27.3659   12.3864    6.6699 O   0  0  0  0  0  0  0  0  0  0  0  0
   24.6416   11.2340    6.6444 C   0  0  0  0  0  0  0  0  0  0  0  0
   24.2364   11.7261    8.0276 C   0  0  0  0  0  0  0  0  0  0  0  0
   22.8925   12.9380    7.9671 S   0  0  0  0  0  0  0  0  0  0  0  0
   22.9682   13.1166    9.7672 C   0  0  0  0  0  0  0  0  0  0  0  0
   24.2849   13.7186   10.2440 C   0  0  1  0  0  0  0  0  0  0  0  0
   24.8768   14.4728    9.2019 O   0  0  0  0  0  0  0  0  0  0  0  0
   24.0777   14.6471   11.4295 C   0  0  1  0  0  0  0  0  0  0  0  0
   24.7437   14.1384   12.5608 O   0  0  0  0  0  0  0  0  0  0  0  0
   24.6823   15.9756   11.0250 C   0  0  1  0  0  0  0  0  0  0  0  0
   25.6912   16.3455   11.9358 O   0  0  0  0  0  0  0  0  0  0  0  0
   25.2783   15.7557    9.6451 C   0  0  2  0  0  0  0  0  0  0  0  0
   26.3538   14.2357    6.5666 O   0  0  0  0  0  0  0  0  0  0  0  0
   23.1191   16.7212    4.9576 N   0  0  0  0  0  0  0  0  0  0  0  0
   23.4516   15.4987    5.5057 C   0  0  0  0  0  0  0  0  0  0  0  0
   24.0170   15.4316    6.7637 N   0  0  0  0  0  0  0  0  0  0  0  0
   24.2514   16.5647    7.4695 C   0  0  0  0  0  0  0  0  0  0  0  0
   23.9245   17.8036    6.9351 C   0  0  0  0  0  0  0  0  0  0  0  0
   23.3543   17.8796    5.6701 C   0  0  0  0  0  0  0  0  0  0  0  0
   23.0380   19.0608    5.1478 N   0  0  0  0  0  0  0  0  0  0  0  0
   24.2603   18.7484    7.8398 N   0  0  0  0  0  0  0  0  0  0  0  0
   24.7889   18.1414    8.9273 C   0  0  0  0  0  0  0  0  0  0  0  0
   24.7899   16.7873    8.7124 N   0  0  0  0  0  0  0  0  0  0  0  0
  2  1  1  6  0  0  0
  2  3  1  0  0  0  0
  2  5  1  0  0  0  0
  3  4  1  0  0  0  0
  3 16  1  0  0  0  0
  5  6  1  0  0  0  0
  6  7  1  0  0  0  0
  7  8  1  0  0  0  0
  9  8  1  6  0  0  0
  9 10  1  0  0  0  0
  9 11  1  0  0  0  0
 10 15  1  0  0  0  0
 11 12  1  1  0  0  0
 11 13  1  0  0  0  0
 13 14  1  1  0  0  0
 13 15  1  0  0  0  0
 15 26  1  6  0  0  0
 17 18  2  0  0  0  0
 17 22  1  0  0  0  0
 18 19  1  0  0  0  0
 19 20  2  0  0  0  0
 20 21  1  0  0  0  0
 20 26  1  0  0  0  0
 21 22  2  0  0  0  0
 21 24  1  0  0  0  0
 22 23  1  0  0  0  0
 24 25  2  0  0  0  0
 25 26  1  0  0  0  0
M  END
>  <CHROM.1>
-64.58937953,-179.00436369,61.23935508,-178.02282168,65.13534654,23.78933468
-11.62557834,24.50077154,14.85862407,7.98130625,0.60164429,1.38873479,-1.82346940

>  <Name>
ligand

>  <RI>
0

>  <Rbt.Current_Directory>
/home/itssahil/PROJECTS/Mol_Feturizer/New_Systems/rnas/3NPQ

>  <Rbt.Executable>
rbdock ($Id: //depot/dev/client3/rdock/2013.1/src/exe/rbdock.cxx#4 $)

>  <Rbt.Library>
libRbt.so (2013.1, Build901 2013/11/27)

>  <Rbt.Parameter_File>
/export/apps/rDock/src/rDock_2013.1_src/data/scripts/dock_solv.prm

>  <Rbt.Receptor>
prm/blind_docking_60.prm

>  <SCORE>
-13.2868

>  <SCORE.INTER>
-11.2881

>  <SCORE.INTER.CONST>
1

>  <SCORE.INTER.POLAR>
0

>  <SCORE.INTER.ROT>
7

>  <SCORE.INTER.SOLV>
16.1681

>  <SCORE.INTER.VDW>
-21.1814

>  <SCORE.INTER.norm>
-0.434157

>  <SCORE.INTRA>
-2.44841

>  <SCORE.INTRA.DIHEDRAL>
-0.769909

>  <SCORE.INTRA.DIHEDRAL.0>
6.97628

>  <SCORE.INTRA.POLAR>
0

>  <SCORE.INTRA.POLAR.0>
0

>  <SCORE.INTRA.REPUL>
0

>  <SCORE.INTRA.REPUL.0>
0

>  <SCORE.INTRA.SOLV>
-0.2857

>  <SCORE.INTRA.SOLV.lig_0>
-49.8243

>  <SCORE.INTRA.VDW>
-1.92061

>  <SCORE.INTRA.VDW.0>
-1.35881

>  <SCORE.INTRA.norm>
-0.0941697

>  <SCORE.RESTR>
0.449738

>  <SCORE.RESTR.CAVITY>
0.449738

>  <SCORE.RESTR.norm>
0.0172976

>  <SCORE.SYSTEM>
0

>  <SCORE.SYSTEM.CONST>
0

>  <SCORE.SYSTEM.DIHEDRAL>
0

>  <SCORE.SYSTEM.SOLV>
0

>  <SCORE.SYSTEM.norm>
0

>  <SCORE.heavy>
26

>  <SCORE.norm>
-0.511029

>  <RMSD>
15.765

$$$$
ligand
 OpenBabel11021811483D
libRbt.so/2013.1/901 2013/11/27
 26 28  0  0  0  0  0  0  0  0999 V2000
   33.4929   21.6635   17.1369 N   0  0  0  0  0  0  0  0  0  0  0  0
   32.8889   20.5340   17.8327 C   0  0  2  0  0  0  0  0  0  0  0  0
   31.8398   19.8510   16.9628 C   0  0  0  0  0  0  0  0  0  0  0  0
   31.5901   18.6535   17.0943 O   0  0  0  0  0  0  0  0  0  0  0  0
   32.2636   20.9885   19.1456 C   0  0  0  0  0  0  0  0  0  0  0  0
   31.8465   19.8475   20.0643 C   0  0  0  0  0  0  0  0  0  0  0  0
   33.2623   19.0290   20.8413 S   0  0  0  0  0  0  0  0  0  0  0  0
   33.3811   17.8935   19.4360 C   0  0  0  0  0  0  0  0  0  0  0  0
   34.7994   17.7800   18.8894 C   0  0  1  0  0  0  0  0  0  0  0  0
   35.3490   19.0711   18.6997 O   0  0  0  0  0  0  0  0  0  0  0  0
   35.7077   17.0245   19.8457 C   0  0  1  0  0  0  0  0  0  0  0  0
   36.1620   15.8372   19.2404 O   0  0  0  0  0  0  0  0  0  0  0  0
   36.8769   17.9469   20.1214 C   0  0  1  0  0  0  0  0  0  0  0  0
   38.0840   17.3223   19.7510 O   0  0  0  0  0  0  0  0  0  0  0  0
   36.6418   19.1797   19.2654 C   0  0  2  0  0  0  0  0  0  0  0  0
   31.2167   20.4816   16.1078 O   0  0  0  0  0  0  0  0  0  0  0  0
   38.2939   24.1559   19.5397 N   0  0  0  0  0  0  0  0  0  0  0  0
   38.4210   23.2740   18.4853 C   0  0  0  0  0  0  0  0  0  0  0  0
   37.9220   21.9906   18.5886 N   0  0  0  0  0  0  0  0  0  0  0  0
   37.3052   21.5860   19.7256 C   0  0  0  0  0  0  0  0  0  0  0  0
   37.1681   22.4581   20.7970 C   0  0  0  0  0  0  0  0  0  0  0  0
   37.6667   23.7517   20.7008 C   0  0  0  0  0  0  0  0  0  0  0  0
   37.5420   24.5953   21.7211 N   0  0  0  0  0  0  0  0  0  0  0  0
   36.5233   21.8030   21.7865 N   0  0  0  0  0  0  0  0  0  0  0  0
   36.2507   20.5450   21.3701 C   0  0  0  0  0  0  0  0  0  0  0  0
   36.7294   20.3956   20.0940 N   0  0  0  0  0  0  0  0  0  0  0  0
  2  1  1  6  0  0  0
  2  3  1  0  0  0  0
  2  5  1  0  0  0  0
  3  4  1  0  0  0  0
  3 16  1  0  0  0  0
  5  6  1  0  0  0  0
  6  7  1  0  0  0  0
  7  8  1  0  0  0  0
  9  8  1  1  0  0  0
  9 10  1  0  0  0  0
  9 11  1  0  0  0  0
 10 15  1  0  0  0  0
 11 12  1  6  0  0  0
 11 13  1  0  0  0  0
 13 14  1  6  0  0  0
 13 15  1  0  0  0  0
 15 26  1  1  0  0  0
 17 18  2  0  0  0  0
 17 22  1  0  0  0  0
 18 19  1  0  0  0  0
 19 20  2  0  0  0  0
 20 21  1  0  0  0  0
 20 26  1  0  0  0  0
 21 22  2  0  0  0  0
 21 24  1  0  0  0  0
 22 23  1  0  0  0  0
 24 25  2  0  0  0  0
 25 26  1  0  0  0  0
M  END
>  <CHROM.1>
151.67164981,-168.85560318,73.26227168,-88.94523542,131.12688478,-48.53484845
-100.68161144,35.19543038,20.15205575,19.38777675,2.55515463,0.42047917,3.07334869

>  <Name>
ligand

>  <RI>
0

>  <Rbt.Current_Directory>
/home/itssahil/PROJECTS/Mol_Feturizer/New_Systems/rnas/3NPQ

>  <Rbt.Executable>
rbdock ($Id: //depot/dev/client3/rdock/2013.1/src/exe/rbdock.cxx#4 $)

>  <Rbt.Library>
libRbt.so (2013.1, Build901 2013/11/27)

>  <Rbt.Parameter_File>
/export/apps/rDock/src/rDock_2013.1_src/data/scripts/dock_solv.prm

>  <Rbt.Receptor>
prm/blind_docking_80.prm

>  <SCORE>
-8.38603

>  <SCORE.INTER>
-6.5839

>  <SCORE.INTER.CONST>
1

>  <SCORE.INTER.POLAR>
0

>  <SCORE.INTER.ROT>
7

>  <SCORE.INTER.SOLV>
10.5083

>  <SCORE.INTER.VDW>
-16.1587

>  <SCORE.INTER.norm>
-0.253227

>  <SCORE.INTRA>
-1.8078

>  <SCORE.INTRA.DIHEDRAL>
0.592333

>  <SCORE.INTRA.DIHEDRAL.0>
6.97628

>  <SCORE.INTRA.POLAR>
0

>  <SCORE.INTRA.POLAR.0>
0

>  <SCORE.INTRA.REPUL>
0

>  <SCORE.INTRA.REPUL.0>
0

>  <SCORE.INTRA.SOLV>
0.667035

>  <SCORE.INTRA.SOLV.lig_0>
-49.8243

>  <SCORE.INTRA.VDW>
-2.43748

>  <SCORE.INTRA.VDW.0>
-1.35881

>  <SCORE.INTRA.norm>
-0.0695307

>  <SCORE.RESTR>
0.00566513

>  <SCORE.RESTR.CAVITY>
0.00566513

>  <SCORE.RESTR.norm>
0.00021789

>  <SCORE.SYSTEM>
0

>  <SCORE.SYSTEM.CONST>
0

>  <SCORE.SYSTEM.DIHEDRAL>
0

>  <SCORE.SYSTEM.SOLV>
0

>  <SCORE.SYSTEM.norm>
0

>  <SCORE.heavy>
26

>  <SCORE.norm>
-0.32254

>  <RMSD>
15.772

$$$$
ligand
 OpenBabel11021811483D
libRbt.so/2013.1/901 2013/11/27
 26 28  0  0  0  0  0  0  0  0999 V2000
   25.0790   13.0509    9.3822 N   0  0  0  0  0  0  0  0  0  0  0  0
   23.6598   12.7371    9.4921 C   0  0  2  0  0  0  0  0  0  0  0  0
   22.9450   12.9570    8.1637 C   0  0  0  0  0  0  0  0  0  0  0  0
   23.0974   13.9989    7.5273 O   0  0  0  0  0  0  0  0  0  0  0  0
   23.0094   13.5808   10.5812 C   0  0  0  0  0  0  0  0  0  0  0  0
   23.7506   13.5590   11.9116 C   0  0  0  0  0  0  0  0  0  0  0  0
   25.1822   14.6675   11.9270 S   0  0  0  0  0  0  0  0  0  0  0  0
   24.0932   16.0742   12.2637 C   0  0  0  0  0  0  0  0  0  0  0  0
   24.7103   17.4069   11.8555 C   0  0  1  0  0  0  0  0  0  0  0  0
   25.2297   17.3166   10.5413 O   0  0  0  0  0  0  0  0  0  0  0  0
   23.6827   18.5268   11.8728 C   0  0  1  0  0  0  0  0  0  0  0  0
   24.0378   19.4904   12.8360 O   0  0  0  0  0  0  0  0  0  0  0  0
   23.7160   19.1401   10.4883 C   0  0  1  0  0  0  0  0  0  0  0  0
   24.0297   20.5107   10.5736 O   0  0  0  0  0  0  0  0  0  0  0  0
   24.8072   18.3997    9.7342 C   0  0  2  0  0  0  0  0  0  0  0  0
   22.1982   12.0968    7.6955 O   0  0  0  0  0  0  0  0  0  0  0  0
   25.3403   14.8531    5.8995 N   0  0  0  0  0  0  0  0  0  0  0  0
   26.1102   14.9998    7.0359 C   0  0  0  0  0  0  0  0  0  0  0  0
   25.8229   15.9978    7.9460 N   0  0  0  0  0  0  0  0  0  0  0  0
   24.7845   16.8419    7.7305 C   0  0  0  0  0  0  0  0  0  0  0  0
   23.9991   16.7107    6.5933 C   0  0  0  0  0  0  0  0  0  0  0  0
   24.2810   15.7084    5.6729 C   0  0  0  0  0  0  0  0  0  0  0  0
   23.5360   15.5739    4.5797 N   0  0  0  0  0  0  0  0  0  0  0  0
   23.0482   17.6690    6.6320 N   0  0  0  0  0  0  0  0  0  0  0  0
   23.2119   18.3994    7.7590 C   0  0  0  0  0  0  0  0  0  0  0  0
   24.2846   17.8983    8.4504 N   0  0  0  0  0  0  0  0  0  0  0  0
  2  1  1  6  0  0  0
  2  3  1  0  0  0  0
  2  5  1  0  0  0  0
  3  4  1  0  0  0  0
  3 16  1  0  0  0  0
  5  6  1  0  0  0  0
  6  7  1  0  0  0  0
  7  8  1  0  0  0  0
  9  8  1  6  0  0  0
  9 10  1  0  0  0  0
  9 11  1  0  0  0  0
 10 15  1  0  0  0  0
 11 12  1  1  0  0  0
 11 13  1  0  0  0  0
 13 14  1  1  0  0  0
 13 15  1  0  0  0  0
 15 26  1  6  0  0  0
 17 18  2  0  0  0  0
 17 22  1  0  0  0  0
 18 19  1  0  0  0  0
 19 20  2  0  0  0  0
 20 21  1  0  0  0  0
 20 26  1  0  0  0  0
 21 22  2  0  0  0  0
 21 24  1  0  0  0  0
 22 23  1  0  0  0  0
 24 25  2  0  0  0  0
 25 26  1  0  0  0  0
M  END
>  <CHROM.1>
-48.77639872,-50.12128395,79.80915455,81.15076417,-157.51934584,48.49921371
-37.72970653,24.17682059,16.02028371,9.24259144,3.04700690,-1.49702829,-0.87016800

>  <Name>
ligand

>  <RI>
0

>  <Rbt.Current_Directory>
/home/itssahil/PROJECTS/Mol_Feturizer/New_Systems/rnas/3NPQ

>  <Rbt.Executable>
rbdock ($Id: //depot/dev/client3/rdock/2013.1/src/exe/rbdock.cxx#4 $)

>  <Rbt.Library>
libRbt.so (2013.1, Build901 2013/11/27)

>  <Rbt.Parameter_File>
/export/apps/rDock/src/rDock_2013.1_src/data/scripts/dock_solv.prm

>  <Rbt.Receptor>
prm/blind_docking_60.prm

>  <SCORE>
-17.1252

>  <SCORE.INTER>
-16.1375

>  <SCORE.INTER.CONST>
1

>  <SCORE.INTER.POLAR>
0

>  <SCORE.INTER.ROT>
7

>  <SCORE.INTER.SOLV>
15.2117

>  <SCORE.INTER.VDW>
-24.0956

>  <SCORE.INTER.norm>
-0.620673

>  <SCORE.INTRA>
-1.17298

>  <SCORE.INTRA.DIHEDRAL>
-0.717057

>  <SCORE.INTRA.DIHEDRAL.0>
6.97628

>  <SCORE.INTRA.POLAR>
0

>  <SCORE.INTRA.POLAR.0>
0

>  <SCORE.INTRA.REPUL>
0

>  <SCORE.INTRA.REPUL.0>
0

>  <SCORE.INTRA.SOLV>
2.79014

>  <SCORE.INTRA.SOLV.lig_0>
-49.8243

>  <SCORE.INTRA.VDW>
-2.20952

>  <SCORE.INTRA.VDW.0>
-1.35881

>  <SCORE.INTRA.norm>
-0.0451147

>  <SCORE.RESTR>
0.185319

>  <SCORE.RESTR.CAVITY>
0.185319

>  <SCORE.RESTR.norm>
0.00712766

>  <SCORE.SYSTEM>
0

>  <SCORE.SYSTEM.CONST>
0

>  <SCORE.SYSTEM.DIHEDRAL>
0

>  <SCORE.SYSTEM.SOLV>
0

>  <SCORE.SYSTEM.norm>
0

>  <SCORE.heavy>
26

>  <SCORE.norm>
-0.65866

>  <RMSD>
15.832

$$$$
ligand
 OpenBabel11021811483D
libRbt.so/2013.1/901 2013/11/27
 26 28  0  0  0  0  0  0  0  0999 V2000
   35.4743   22.1734   16.0706 N   0  0  0  0  0  0  0  0  0  0  0  0
   35.4751   23.3364   16.9492 C   0  0  2  0  0  0  0  0  0  0  0  0
   36.2940   24.4749   16.3516 C   0  0  0  0  0  0  0  0  0  0  0  0
   35.7865   25.5749   16.1360 O   0  0  0  0  0  0  0  0  0  0  0  0
   36.0192   22.9668   18.3234 C   0  0  0  0  0  0  0  0  0  0  0  0
   35.9742   24.1028   19.3369 C   0  0  0  0  0  0  0  0  0  0  0  0
   36.5684   23.5988   20.9713 S   0  0  0  0  0  0  0  0  0  0  0  0
   34.9977   22.7551   21.2858 C   0  0  0  0  0  0  0  0  0  0  0  0
   35.1828   21.2936   21.6771 C   0  0  1  0  0  0  0  0  0  0  0  0
   33.9240   20.6490   21.7473 O   0  0  0  0  0  0  0  0  0  0  0  0
   36.0312   20.5465   20.6610 C   0  0  1  0  0  0  0  0  0  0  0  0
   37.2220   20.0995   21.2647 O   0  0  0  0  0  0  0  0  0  0  0  0
   35.1978   19.3622   20.2172 C   0  0  1  0  0  0  0  0  0  0  0  0
   35.8855   18.1611   20.4796 O   0  0  0  0  0  0  0  0  0  0  0  0
   33.9212   19.4241   21.0382 C   0  0  2  0  0  0  0  0  0  0  0  0
   37.4833   24.3212   16.0707 O   0  0  0  0  0  0  0  0  0  0  0  0
   32.0361   20.3391   16.2240 N   0  0  0  0  0  0  0  0  0  0  0  0
   33.3145   20.5631   16.6939 C   0  0  0  0  0  0  0  0  0  0  0  0
   33.6373   20.2600   18.0019 N   0  0  0  0  0  0  0  0  0  0  0  0
   32.7020   19.7420   18.8348 C   0  0  0  0  0  0  0  0  0  0  0  0
   31.4107   19.5102   18.3810 C   0  0  0  0  0  0  0  0  0  0  0  0
   31.0779   19.8116   17.0658 C   0  0  0  0  0  0  0  0  0  0  0  0
   29.8440   19.5945   16.6204 N   0  0  0  0  0  0  0  0  0  0  0  0
   30.6958   18.9967   19.4054 N   0  0  0  0  0  0  0  0  0  0  0  0
   31.4983   18.8988   20.4901 C   0  0  0  0  0  0  0  0  0  0  0  0
   32.7454   19.3571   20.1517 N   0  0  0  0  0  0  0  0  0  0  0  0
  2  1  1  6  0  0  0
  2  3  1  0  0  0  0
  2  5  1  0  0  0  0
  3  4  1  0  0  0  0
  3 16  1  0  0  0  0
  5  6  1  0  0  0  0
  6  7  1  0  0  0  0
  7  8  1  0  0  0  0
  9  8  1  6  0  0  0
  9 10  1  0  0  0  0
  9 11  1  0  0  0  0
 10 15  1  0  0  0  0
 11 12  1  1  0  0  0
 11 13  1  0  0  0  0
 13 14  1  1  0  0  0
 13 15  1  0  0  0  0
 15 26  1  6  0  0  0
 17 18  2  0  0  0  0
 17 22  1  0  0  0  0
 18 19  1  0  0  0  0
 19 20  2  0  0  0  0
 20 21  1  0  0  0  0
 20 26  1  0  0  0  0
 21 22  2  0  0  0  0
 21 24  1  0  0  0  0
 22 23  1  0  0  0  0
 24 25  2  0  0  0  0
 25 26  1  0  0  0  0
M  END
>  <CHROM.1>
121.85956296,-176.30197823,177.70388530,-77.05165843,125.65784450,-172.80247721
92.74265201,34.44297283,21.31029589,18.98441744,0.51686289,-0.65686151,-1.00758104

>  <Name>
ligand

>  <RI>
0

>  <Rbt.Current_Directory>
/home/itssahil/PROJECTS/Mol_Feturizer/New_Systems/rnas/3NPQ

>  <Rbt.Executable>
rbdock ($Id: //depot/dev/client3/rdock/2013.1/src/exe/rbdock.cxx#4 $)

>  <Rbt.Library>
libRbt.so (2013.1, Build901 2013/11/27)

>  <Rbt.Parameter_File>
/export/apps/rDock/src/rDock_2013.1_src/data/scripts/dock_solv.prm

>  <Rbt.Receptor>
prm/blind_docking_80.prm

>  <SCORE>
-5.71047

>  <SCORE.INTER>
-4.39461

>  <SCORE.INTER.CONST>
1

>  <SCORE.INTER.POLAR>
0

>  <SCORE.INTER.ROT>
7

>  <SCORE.INTER.SOLV>
11.4467

>  <SCORE.INTER.VDW>
-15.012

>  <SCORE.INTER.norm>
-0.169023

>  <SCORE.INTRA>
-1.37592

>  <SCORE.INTRA.DIHEDRAL>
-1.25636

>  <SCORE.INTRA.DIHEDRAL.0>
6.97628

>  <SCORE.INTRA.POLAR>
0

>  <SCORE.INTRA.POLAR.0>
0

>  <SCORE.INTRA.REPUL>
0

>  <SCORE.INTRA.REPUL.0>
0

>  <SCORE.INTRA.SOLV>
0.528805

>  <SCORE.INTRA.SOLV.lig_0>
-49.8243

>  <SCORE.INTRA.VDW>
-1.01214

>  <SCORE.INTRA.VDW.0>
-1.35881

>  <SCORE.INTRA.norm>
-0.0529199

>  <SCORE.RESTR>
0.0600529

>  <SCORE.RESTR.CAVITY>
0.0600529

>  <SCORE.RESTR.norm>
0.00230973

>  <SCORE.SYSTEM>
0

>  <SCORE.SYSTEM.CONST>
0

>  <SCORE.SYSTEM.DIHEDRAL>
0

>  <SCORE.SYSTEM.SOLV>
0

>  <SCORE.SYSTEM.norm>
0

>  <SCORE.heavy>
26

>  <SCORE.norm>
-0.219634

>  <RMSD>
15.839

$$$$
ligand
 OpenBabel11021811483D
libRbt.so/2013.1/901 2013/11/27
 26 28  0  0  0  0  0  0  0  0999 V2000
   31.5742   16.8725   20.5258 N   0  0  0  0  0  0  0  0  0  0  0  0
   32.5008   17.5304   19.6131 C   0  0  2  0  0  0  0  0  0  0  0  0
   31.9691   17.5125   18.1844 C   0  0  0  0  0  0  0  0  0  0  0  0
   31.8331   18.5556   17.5462 O   0  0  0  0  0  0  0  0  0  0  0  0
   33.8695   16.8636   19.6694 C   0  0  0  0  0  0  0  0  0  0  0  0
   34.8910   17.4567   18.7080 C   0  0  0  0  0  0  0  0  0  0  0  0
   35.1996   19.2134   19.0199 S   0  0  0  0  0  0  0  0  0  0  0  0
   36.3504   18.7786   20.3484 C   0  0  0  0  0  0  0  0  0  0  0  0
   36.8187   19.9927   21.1420 C   0  0  1  0  0  0  0  0  0  0  0  0
   37.3391   20.9732   20.2630 O   0  0  0  0  0  0  0  0  0  0  0  0
   35.6768   20.6256   21.9203 C   0  0  1  0  0  0  0  0  0  0  0  0
   35.9305   20.5385   23.3025 O   0  0  0  0  0  0  0  0  0  0  0  0
   35.6378   22.0774   21.4902 C   0  0  1  0  0  0  0  0  0  0  0  0
   35.8027   22.9180   22.6085 O   0  0  0  0  0  0  0  0  0  0  0  0
   36.7990   22.2546   20.5269 C   0  0  2  0  0  0  0  0  0  0  0  0
   31.6633   16.4537   17.6347 O   0  0  0  0  0  0  0  0  0  0  0  0
   38.0864   23.7956   15.6757 N   0  0  0  0  0  0  0  0  0  0  0  0
   38.8977   23.2073   16.6250 C   0  0  0  0  0  0  0  0  0  0  0  0
   38.3856   22.8642   17.8607 N   0  0  0  0  0  0  0  0  0  0  0  0
   37.0838   23.1034   18.1519 C   0  0  0  0  0  0  0  0  0  0  0  0
   36.2522   23.6946   17.2106 C   0  0  0  0  0  0  0  0  0  0  0  0
   36.7594   24.0422   15.9644 C   0  0  0  0  0  0  0  0  0  0  0  0
   35.9724   24.6098   15.0553 N   0  0  0  0  0  0  0  0  0  0  0  0
   35.0232   23.8138   17.7580 N   0  0  0  0  0  0  0  0  0  0  0  0
   35.0566   23.3155   19.0153 C   0  0  0  0  0  0  0  0  0  0  0  0
   36.3277   22.8712   19.2738 N   0  0  0  0  0  0  0  0  0  0  0  0
  2  1  1  1  0  0  0
  2  3  1  0  0  0  0
  2  5  1  0  0  0  0
  3  4  1  0  0  0  0
  3 16  1  0  0  0  0
  5  6  1  0  0  0  0
  6  7  1  0  0  0  0
  7  8  1  0  0  0  0
  9  8  1  6  0  0  0
  9 10  1  0  0  0  0
  9 11  1  0  0  0  0
 10 15  1  0  0  0  0
 11 12  1  1  0  0  0
 11 13  1  0  0  0  0
 13 14  1  1  0  0  0
 13 15  1  0  0  0  0
 15 26  1  6  0  0  0
 17 18  2  0  0  0  0
 17 22  1  0  0  0  0
 18 19  1  0  0  0  0
 19 20  2  0  0  0  0
 20 21  1  0  0  0  0
 20 26  1  0  0  0  0
 21 22  2  0  0  0  0
 21 24  1  0  0  0  0
 22 23  1  0  0  0  0
 24 25  2  0  0  0  0
 25 26  1  0  0  0  0
M  END
>  <CHROM.1>
124.41066579,177.94061310,59.96826401,81.84320575,-172.31538523,-53.15539670
-57.19679501,35.39492412,20.76636555,19.09716548,2.62414005,0.88883032,1.91858881

>  <Name>
ligand

>  <RI>
0

>  <Rbt.Current_Directory>
/home/itssahil/PROJECTS/Mol_Feturizer/New_Systems/rnas/3NPQ

>  <Rbt.Executable>
rbdock ($Id: //depot/dev/client3/rdock/2013.1/src/exe/rbdock.cxx#4 $)

>  <Rbt.Library>
libRbt.so (2013.1, Build901 2013/11/27)

>  <Rbt.Parameter_File>
/export/apps/rDock/src/rDock_2013.1_src/data/scripts/dock_solv.prm

>  <Rbt.Receptor>
prm/blind_docking_60.prm

>  <SCORE>
-5.81879

>  <SCORE.INTER>
-3.05979

>  <SCORE.INTER.CONST>
1

>  <SCORE.INTER.POLAR>
0

>  <SCORE.INTER.ROT>
7

>  <SCORE.INTER.SOLV>
15.7251

>  <SCORE.INTER.VDW>
-15.5482

>  <SCORE.INTER.norm>
-0.117684

>  <SCORE.INTRA>
-2.75899

>  <SCORE.INTRA.DIHEDRAL>
-3.32122

>  <SCORE.INTRA.DIHEDRAL.0>
6.97628

>  <SCORE.INTRA.POLAR>
0

>  <SCORE.INTRA.POLAR.0>
0

>  <SCORE.INTRA.REPUL>
0

>  <SCORE.INTRA.REPUL.0>
0

>  <SCORE.INTRA.SOLV>
-0.52717

>  <SCORE.INTRA.SOLV.lig_0>
-49.8243

>  <SCORE.INTRA.VDW>
-0.834794

>  <SCORE.INTRA.VDW.0>
-1.35881

>  <SCORE.INTRA.norm>
-0.106115

>  <SCORE.RESTR>
0

>  <SCORE.RESTR.CAVITY>
0

>  <SCORE.RESTR.norm>
0

>  <SCORE.SYSTEM>
0

>  <SCORE.SYSTEM.CONST>
0

>  <SCORE.SYSTEM.DIHEDRAL>
0

>  <SCORE.SYSTEM.SOLV>
0

>  <SCORE.SYSTEM.norm>
0

>  <SCORE.heavy>
26

>  <SCORE.norm>
-0.223799

>  <RMSD>
15.858

$$$$
ligand
 OpenBabel11021811483D
libRbt.so/2013.1/901 2013/11/27
 26 28  0  0  0  0  0  0  0  0999 V2000
   38.0942   15.8997   19.3540 N   0  0  0  0  0  0  0  0  0  0  0  0
   37.6558   16.9472   18.4402 C   0  0  2  0  0  0  0  0  0  0  0  0
   38.7367   18.0073   18.2619 C   0  0  0  0  0  0  0  0  0  0  0  0
   38.5372   19.0052   17.5702 O   0  0  0  0  0  0  0  0  0  0  0  0
   36.3704   17.5914   18.9440 C   0  0  0  0  0  0  0  0  0  0  0  0
   36.5038   18.2676   20.3022 C   0  0  0  0  0  0  0  0  0  0  0  0
   37.1233   19.9642   20.1752 S   0  0  0  0  0  0  0  0  0  0  0  0
   36.4844   20.3247   21.8305 C   0  0  0  0  0  0  0  0  0  0  0  0
   35.0415   20.8155   21.8103 C   0  0  1  0  0  0  0  0  0  0  0  0
   34.9863   22.1329   21.2942 O   0  0  0  0  0  0  0  0  0  0  0  0
   34.1646   19.9361   20.9338 C   0  0  1  0  0  0  0  0  0  0  0  0
   33.1728   19.3142   21.7161 O   0  0  0  0  0  0  0  0  0  0  0  0
   33.5228   20.8663   19.9254 C   0  0  1  0  0  0  0  0  0  0  0  0
   32.1195   20.7897   20.0210 O   0  0  0  0  0  0  0  0  0  0  0  0
   33.9965   22.2626   20.2909 C   0  0  2  0  0  0  0  0  0  0  0  0
   39.8354   17.8907   18.8061 O   0  0  0  0  0  0  0  0  0  0  0  0
   35.2492   21.8060   15.2125 N   0  0  0  0  0  0  0  0  0  0  0  0
   34.6841   20.8551   16.0384 C   0  0  0  0  0  0  0  0  0  0  0  0
   34.4201   21.1516   17.3609 N   0  0  0  0  0  0  0  0  0  0  0  0
   34.7150   22.3771   17.8592 C   0  0  0  0  0  0  0  0  0  0  0  0
   35.2842   23.3464   17.0447 C   0  0  0  0  0  0  0  0  0  0  0  0
   35.5521   23.0564   15.7123 C   0  0  0  0  0  0  0  0  0  0  0  0
   36.0981   23.9768   14.9230 N   0  0  0  0  0  0  0  0  0  0  0  0
   35.4698   24.4582   17.7888 N   0  0  0  0  0  0  0  0  0  0  0  0
   35.0347   24.2174   19.0470 C   0  0  0  0  0  0  0  0  0  0  0  0
   34.5638   22.9311   19.1060 N   0  0  0  0  0  0  0  0  0  0  0  0
  2  1  1  1  0  0  0
  2  3  1  0  0  0  0
  2  5  1  0  0  0  0
  3  4  1  0  0  0  0
  3 16  1  0  0  0  0
  5  6  1  0  0  0  0
  6  7  1  0  0  0  0
  7  8  1  0  0  0  0
  9  8  1  6  0  0  0
  9 10  1  0  0  0  0
  9 11  1  0  0  0  0
 10 15  1  0  0  0  0
 11 12  1  1  0  0  0
 11 13  1  0  0  0  0
 13 14  1  1  0  0  0
 13 15  1  0  0  0  0
 15 26  1  6  0  0  0
 17 18  2  0  0  0  0
 17 22  1  0  0  0  0
 18 19  1  0  0  0  0
 19 20  2  0  0  0  0
 20 21  1  0  0  0  0
 20 26  1  0  0  0  0
 21 22  2  0  0  0  0
 21 24  1  0  0  0  0
 22 23  1  0  0  0  0
 24 25  2  0  0  0  0
 25 26  1  0  0  0  0
M  END
>  <CHROM.1>
-176.98246814,61.37379247,85.07375775,160.78420534,-88.63767903,-72.13617010
115.61284845,35.75200544,20.60707554,18.95877405,-0.83228666,0.76615874,-0.88882513

>  <Name>
ligand

>  <RI>
0

>  <Rbt.Current_Directory>
/home/itssahil/PROJECTS/Mol_Feturizer/New_Systems/rnas/3NPQ

>  <Rbt.Executable>
rbdock ($Id: //depot/dev/client3/rdock/2013.1/src/exe/rbdock.cxx#4 $)

>  <Rbt.Library>
libRbt.so (2013.1, Build901 2013/11/27)

>  <Rbt.Parameter_File>
/export/apps/rDock/src/rDock_2013.1_src/data/scripts/dock_solv.prm

>  <Rbt.Receptor>
prm/blind_docking_80.prm

>  <SCORE>
-5.82518

>  <SCORE.INTER>
-6.03457

>  <SCORE.INTER.CONST>
1

>  <SCORE.INTER.POLAR>
0

>  <SCORE.INTER.ROT>
7

>  <SCORE.INTER.SOLV>
14.8764

>  <SCORE.INTER.VDW>
-17.2485

>  <SCORE.INTER.norm>
-0.232099

>  <SCORE.INTRA>
0.194528

>  <SCORE.INTRA.DIHEDRAL>
-0.0609118

>  <SCORE.INTRA.DIHEDRAL.0>
6.97628

>  <SCORE.INTRA.POLAR>
0

>  <SCORE.INTRA.POLAR.0>
0

>  <SCORE.INTRA.REPUL>
0

>  <SCORE.INTRA.REPUL.0>
0

>  <SCORE.INTRA.SOLV>
0.665592

>  <SCORE.INTRA.SOLV.lig_0>
-49.8243

>  <SCORE.INTRA.VDW>
-0.107812

>  <SCORE.INTRA.VDW.0>
-1.35881

>  <SCORE.INTRA.norm>
0.00748184

>  <SCORE.RESTR>
0.0148615

>  <SCORE.RESTR.CAVITY>
0.0148615

>  <SCORE.RESTR.norm>
0.000571598

>  <SCORE.SYSTEM>
0

>  <SCORE.SYSTEM.CONST>
0

>  <SCORE.SYSTEM.DIHEDRAL>
0

>  <SCORE.SYSTEM.SOLV>
0

>  <SCORE.SYSTEM.norm>
0

>  <SCORE.heavy>
26

>  <SCORE.norm>
-0.224045

>  <RMSD>
15.872

$$$$
ligand
 OpenBabel11021811483D
libRbt.so/2013.1/901 2013/11/27
 26 28  0  0  0  0  0  0  0  0999 V2000
   37.2575   25.0258   16.8187 N   0  0  0  0  0  0  0  0  0  0  0  0
   36.1985   24.9914   15.8176 C   0  0  2  0  0  0  0  0  0  0  0  0
   35.6031   26.3779   15.6010 C   0  0  0  0  0  0  0  0  0  0  0  0
   35.1472   27.0256   16.5425 O   0  0  0  0  0  0  0  0  0  0  0  0
   35.1063   24.0123   16.2295 C   0  0  0  0  0  0  0  0  0  0  0  0
   35.4901   22.5473   16.0674 C   0  0  0  0  0  0  0  0  0  0  0  0
   34.0856   21.4308   16.3107 S   0  0  0  0  0  0  0  0  0  0  0  0
   35.2146   20.1241   16.8548 C   0  0  0  0  0  0  0  0  0  0  0  0
   35.8957   20.4488   18.1792 C   0  0  1  0  0  0  0  0  0  0  0  0
   34.9460   20.9538   19.1000 O   0  0  0  0  0  0  0  0  0  0  0  0
   36.5315   19.2144   18.7976 C   0  0  1  0  0  0  0  0  0  0  0  0
   37.9273   19.3809   18.8771 O   0  0  0  0  0  0  0  0  0  0  0  0
   35.9426   19.0985   20.1883 C   0  0  1  0  0  0  0  0  0  0  0  0
   36.9691   19.1267   21.1524 O   0  0  0  0  0  0  0  0  0  0  0  0
   35.0352   20.3054   20.3549 C   0  0  2  0  0  0  0  0  0  0  0  0
   35.5646   26.8832   14.4785 O   0  0  0  0  0  0  0  0  0  0  0  0
   30.0421   19.4794   18.9569 N   0  0  0  0  0  0  0  0  0  0  0  0
   31.0828   19.9297   18.1697 C   0  0  0  0  0  0  0  0  0  0  0  0
   32.3437   20.0899   18.7094 N   0  0  0  0  0  0  0  0  0  0  0  0
   32.5694   19.8081   20.0158 C   0  0  0  0  0  0  0  0  0  0  0  0
   31.5356   19.3547   20.8237 C   0  0  0  0  0  0  0  0  0  0  0  0
   30.2639   19.1899   20.2881 C   0  0  0  0  0  0  0  0  0  0  0  0
   29.2658   18.7571   21.0528 N   0  0  0  0  0  0  0  0  0  0  0  0
   32.0337   19.1542   22.0629 N   0  0  0  0  0  0  0  0  0  0  0  0
   33.3497   19.4680   22.0592 C   0  0  0  0  0  0  0  0  0  0  0  0
   33.6964   19.8751   20.7966 N   0  0  0  0  0  0  0  0  0  0  0  0
  2  1  1  1  0  0  0
  2  3  1  0  0  0  0
  2  5  1  0  0  0  0
  3  4  1  0  0  0  0
  3 16  1  0  0  0  0
  5  6  1  0  0  0  0
  6  7  1  0  0  0  0
  7  8  1  0  0  0  0
  9  8  1  6  0  0  0
  9 10  1  0  0  0  0
  9 11  1  0  0  0  0
 10 15  1  0  0  0  0
 11 12  1  1  0  0  0
 11 13  1  0  0  0  0
 13 14  1  1  0  0  0
 13 15  1  0  0  0  0
 15 26  1  6  0  0  0
 17 18  2  0  0  0  0
 17 22  1  0  0  0  0
 18 19  1  0  0  0  0
 19 20  2  0  0  0  0
 20 21  1  0  0  0  0
 20 26  1  0  0  0  0
 21 22  2  0  0  0  0
 21 24  1  0  0  0  0
 22 23  1  0  0  0  0
 24 25  2  0  0  0  0
 25 26  1  0  0  0  0
M  END
>  <CHROM.1>
-55.41570577,-74.36643031,-170.76305309,-152.42045961,66.90358144,45.10658628
14.30947858,34.27634421,21.30367684,18.47134456,-1.13757174,-0.02927639,2.48661418

>  <Name>
ligand

>  <RI>
0

>  <Rbt.Current_Directory>
/home/itssahil/PROJECTS/Mol_Feturizer/New_Systems/rnas/3NPQ

>  <Rbt.Executable>
rbdock ($Id: //depot/dev/client3/rdock/2013.1/src/exe/rbdock.cxx#4 $)

>  <Rbt.Library>
libRbt.so (2013.1, Build901 2013/11/27)

>  <Rbt.Parameter_File>
/export/apps/rDock/src/rDock_2013.1_src/data/scripts/dock_solv.prm

>  <Rbt.Receptor>
prm/blind_docking_100.prm

>  <SCORE>
-13.9686

>  <SCORE.INTER>
-12.0153

>  <SCORE.INTER.CONST>
1

>  <SCORE.INTER.POLAR>
0

>  <SCORE.INTER.ROT>
7

>  <SCORE.INTER.SOLV>
9.42206

>  <SCORE.INTER.VDW>
-19.4175

>  <SCORE.INTER.norm>
-0.462127

>  <SCORE.INTRA>
-1.95332

>  <SCORE.INTRA.DIHEDRAL>
-1.3015

>  <SCORE.INTRA.DIHEDRAL.0>
6.97628

>  <SCORE.INTRA.POLAR>
0

>  <SCORE.INTRA.POLAR.0>
0

>  <SCORE.INTRA.REPUL>
0

>  <SCORE.INTRA.REPUL.0>
0

>  <SCORE.INTRA.SOLV>
-0.125377

>  <SCORE.INTRA.SOLV.lig_0>
-49.8243

>  <SCORE.INTRA.VDW>
-1.23988

>  <SCORE.INTRA.VDW.0>
-1.35881

>  <SCORE.INTRA.norm>
-0.0751277

>  <SCORE.RESTR>
0

>  <SCORE.RESTR.CAVITY>
0

>  <SCORE.RESTR.norm>
0

>  <SCORE.SYSTEM>
0

>  <SCORE.SYSTEM.CONST>
0

>  <SCORE.SYSTEM.DIHEDRAL>
0

>  <SCORE.SYSTEM.SOLV>
0

>  <SCORE.SYSTEM.norm>
0

>  <SCORE.heavy>
26

>  <SCORE.norm>
-0.537254

>  <RMSD>
15.911

$$$$
ligand
 OpenBabel11021811483D
libRbt.so/2013.1/901 2013/11/27
 26 28  0  0  0  0  0  0  0  0999 V2000
   37.9031   23.7899   18.7258 N   0  0  0  0  0  0  0  0  0  0  0  0
   38.1100   22.9740   17.5358 C   0  0  2  0  0  0  0  0  0  0  0  0
   39.5528   22.4902   17.4464 C   0  0  0  0  0  0  0  0  0  0  0  0
   39.8119   21.3042   17.2459 O   0  0  0  0  0  0  0  0  0  0  0  0
   37.7428   23.7569   16.2815 C   0  0  0  0  0  0  0  0  0  0  0  0
   36.2487   24.0011   16.1151 C   0  0  0  0  0  0  0  0  0  0  0  0
   35.3490   22.5029   15.6411 S   0  0  0  0  0  0  0  0  0  0  0  0
   34.6775   22.3721   17.3174 C   0  0  0  0  0  0  0  0  0  0  0  0
   35.4985   21.4485   18.2098 C   0  0  1  0  0  0  0  0  0  0  0  0
   34.8849   21.3334   19.4807 O   0  0  0  0  0  0  0  0  0  0  0  0
   35.6077   20.0525   17.6186 C   0  0  1  0  0  0  0  0  0  0  0  0
   36.9525   19.7596   17.3220 O   0  0  0  0  0  0  0  0  0  0  0  0
   35.0946   19.1096   18.6870 C   0  0  1  0  0  0  0  0  0  0  0  0
   36.0916   18.1741   19.0263 O   0  0  0  0  0  0  0  0  0  0  0  0
   34.7666   19.9825   19.8861 C   0  0  2  0  0  0  0  0  0  0  0  0
   40.4938   23.2749   17.5722 O   0  0  0  0  0  0  0  0  0  0  0  0
   29.6437   20.4938   18.8555 N   0  0  0  0  0  0  0  0  0  0  0  0
   30.7118   20.9265   18.0957 C   0  0  0  0  0  0  0  0  0  0  0  0
   32.0054   20.7038   18.5245 N   0  0  0  0  0  0  0  0  0  0  0  0
   32.2368   20.0606   19.6949 C   0  0  0  0  0  0  0  0  0  0  0  0
   31.1759   19.6184   20.4733 C   0  0  0  0  0  0  0  0  0  0  0  0
   29.8710   19.8377   20.0484 C   0  0  0  0  0  0  0  0  0  0  0  0
   28.8470   19.4194   20.7862 N   0  0  0  0  0  0  0  0  0  0  0  0
   31.6867   19.0182   21.5700 N   0  0  0  0  0  0  0  0  0  0  0  0
   33.0370   19.0697   21.5053 C   0  0  0  0  0  0  0  0  0  0  0  0
   33.3930   19.7131   20.3481 N   0  0  0  0  0  0  0  0  0  0  0  0
  2  1  1  1  0  0  0
  2  3  1  0  0  0  0
  2  5  1  0  0  0  0
  3  4  1  0  0  0  0
  3 16  1  0  0  0  0
  5  6  1  0  0  0  0
  6  7  1  0  0  0  0
  7  8  1  0  0  0  0
  9  8  1  6  0  0  0
  9 10  1  0  0  0  0
  9 11  1  0  0  0  0
 10 15  1  0  0  0  0
 11 12  1  1  0  0  0
 11 13  1  0  0  0  0
 13 14  1  1  0  0  0
 13 15  1  0  0  0  0
 15 26  1  6  0  0  0
 17 18  2  0  0  0  0
 17 22  1  0  0  0  0
 18 19  1  0  0  0  0
 19 20  2  0  0  0  0
 20 21  1  0  0  0  0
 20 26  1  0  0  0  0
 21 22  2  0  0  0  0
 21 24  1  0  0  0  0
 22 23  1  0  0  0  0
 24 25  2  0  0  0  0
 25 26  1  0  0  0  0
M  END
>  <CHROM.1>
130.28848471,-70.66975997,-72.98644515,105.73450880,-94.96101247,-176.94133901
47.86253423,34.82671859,21.06124926,18.43297590,0.51817015,0.02468362,-0.75485196

>  <Name>
ligand

>  <RI>
0

>  <Rbt.Current_Directory>
/home/itssahil/PROJECTS/Mol_Feturizer/New_Systems/rnas/3NPQ

>  <Rbt.Executable>
rbdock ($Id: //depot/dev/client3/rdock/2013.1/src/exe/rbdock.cxx#4 $)

>  <Rbt.Library>
libRbt.so (2013.1, Build901 2013/11/27)

>  <Rbt.Parameter_File>
/export/apps/rDock/src/rDock_2013.1_src/data/scripts/dock_solv.prm

>  <Rbt.Receptor>
prm/blind_docking_80.prm

>  <SCORE>
-10.6611

>  <SCORE.INTER>
-9.67604

>  <SCORE.INTER.CONST>
1

>  <SCORE.INTER.POLAR>
0

>  <SCORE.INTER.ROT>
7

>  <SCORE.INTER.SOLV>
10.4839

>  <SCORE.INTER.VDW>
-18.212

>  <SCORE.INTER.norm>
-0.372155

>  <SCORE.INTRA>
-1.32196

>  <SCORE.INTRA.DIHEDRAL>
0.384155

>  <SCORE.INTRA.DIHEDRAL.0>
6.97628

>  <SCORE.INTRA.POLAR>
0

>  <SCORE.INTRA.POLAR.0>
0

>  <SCORE.INTRA.REPUL>
0

>  <SCORE.INTRA.REPUL.0>
0

>  <SCORE.INTRA.SOLV>
2.40267

>  <SCORE.INTRA.SOLV.lig_0>
-49.8243

>  <SCORE.INTRA.VDW>
-2.71537

>  <SCORE.INTRA.VDW.0>
-1.35881

>  <SCORE.INTRA.norm>
-0.0508444

>  <SCORE.RESTR>
0.336945

>  <SCORE.RESTR.CAVITY>
0.336945

>  <SCORE.RESTR.norm>
0.0129594

>  <SCORE.SYSTEM>
0

>  <SCORE.SYSTEM.CONST>
0

>  <SCORE.SYSTEM.DIHEDRAL>
0

>  <SCORE.SYSTEM.SOLV>
0

>  <SCORE.SYSTEM.norm>
0

>  <SCORE.heavy>
26

>  <SCORE.norm>
-0.41004

>  <RMSD>
15.934

$$$$
ligand
 OpenBabel11021811483D
libRbt.so/2013.1/901 2013/11/27
 26 28  0  0  0  0  0  0  0  0999 V2000
   31.5724   18.4054   21.5281 N   0  0  0  0  0  0  0  0  0  0  0  0
   32.2912   19.5428   20.9674 C   0  0  2  0  0  0  0  0  0  0  0  0
   32.6842   19.2827   19.5176 C   0  0  0  0  0  0  0  0  0  0  0  0
   32.6757   20.1901   18.6866 O   0  0  0  0  0  0  0  0  0  0  0  0
   33.5308   19.8524   21.7972 C   0  0  0  0  0  0  0  0  0  0  0  0
   34.3795   20.9914   21.2473 C   0  0  0  0  0  0  0  0  0  0  0  0
   35.8424   21.3197   22.2624 S   0  0  0  0  0  0  0  0  0  0  0  0
   36.6939   22.0051   20.8191 C   0  0  0  0  0  0  0  0  0  0  0  0
   36.0695   23.3070   20.3307 C   0  0  1  0  0  0  0  0  0  0  0  0
   37.0856   24.2365   20.0010 O   0  0  0  0  0  0  0  0  0  0  0  0
   35.2199   23.0879   19.0895 C   0  0  1  0  0  0  0  0  0  0  0  0
   33.8750   23.3992   19.3663 O   0  0  0  0  0  0  0  0  0  0  0  0
   35.7669   24.0347   18.0415 C   0  0  1  0  0  0  0  0  0  0  0  0
   34.7531   24.9089   17.6028 O   0  0  0  0  0  0  0  0  0  0  0  0
   36.8721   24.8183   18.7286 C   0  0  2  0  0  0  0  0  0  0  0  0
   33.0201   18.1585   19.1435 O   0  0  0  0  0  0  0  0  0  0  0  0
   41.1603   22.0251   17.5554 N   0  0  0  0  0  0  0  0  0  0  0  0
   40.1512   21.7035   18.4407 C   0  0  0  0  0  0  0  0  0  0  0  0
   39.0882   22.5652   18.6258 N   0  0  0  0  0  0  0  0  0  0  0  0
   39.0276   23.7336   17.9417 C   0  0  0  0  0  0  0  0  0  0  0  0
   40.0330   24.0750   17.0474 C   0  0  0  0  0  0  0  0  0  0  0  0
   41.1058   23.2129   16.8546 C   0  0  0  0  0  0  0  0  0  0  0  0
   42.0751   23.5300   16.0012 N   0  0  0  0  0  0  0  0  0  0  0  0
   39.7230   25.2754   16.5117 N   0  0  0  0  0  0  0  0  0  0  0  0
   38.5530   25.6997   17.0421 C   0  0  0  0  0  0  0  0  0  0  0  0
   38.1096   24.7541   17.9305 N   0  0  0  0  0  0  0  0  0  0  0  0
  2  1  1  1  0  0  0
  2  3  1  0  0  0  0
  2  5  1  0  0  0  0
  3  4  1  0  0  0  0
  3 16  1  0  0  0  0
  5  6  1  0  0  0  0
  6  7  1  0  0  0  0
  7  8  1  0  0  0  0
  9  8  1  6  0  0  0
  9 10  1  0  0  0  0
  9 11  1  0  0  0  0
 10 15  1  0  0  0  0
 11 12  1  1  0  0  0
 11 13  1  0  0  0  0
 13 14  1  1  0  0  0
 13 15  1  0  0  0  0
 15 26  1  6  0  0  0
 17 18  2  0  0  0  0
 17 22  1  0  0  0  0
 18 19  1  0  0  0  0
 19 20  2  0  0  0  0
 20 21  1  0  0  0  0
 20 26  1  0  0  0  0
 21 22  2  0  0  0  0
 21 24  1  0  0  0  0
 22 23  1  0  0  0  0
 24 25  2  0  0  0  0
 25 26  1  0  0  0  0
M  END
>  <CHROM.1>
143.92946665,177.41763746,-179.83548949,154.30943719,67.27325621,137.55255011
35.81139980,36.44702550,22.38099764,19.15428284,-2.50238512,0.20453786,-0.42740426

>  <Name>
ligand

>  <RI>
0

>  <Rbt.Current_Directory>
/home/itssahil/PROJECTS/Mol_Feturizer/New_Systems/rnas/3NPQ

>  <Rbt.Executable>
rbdock ($Id: //depot/dev/client3/rdock/2013.1/src/exe/rbdock.cxx#4 $)

>  <Rbt.Library>
libRbt.so (2013.1, Build901 2013/11/27)

>  <Rbt.Parameter_File>
/export/apps/rDock/src/rDock_2013.1_src/data/scripts/dock_solv.prm

>  <Rbt.Receptor>
prm/blind_docking_100.prm

>  <SCORE>
-10.1638

>  <SCORE.INTER>
-9.39342

>  <SCORE.INTER.CONST>
1

>  <SCORE.INTER.POLAR>
0

>  <SCORE.INTER.ROT>
7

>  <SCORE.INTER.SOLV>
9.56917

>  <SCORE.INTER.VDW>
-17.7187

>  <SCORE.INTER.norm>
-0.361285

>  <SCORE.INTRA>
-0.772825

>  <SCORE.INTRA.DIHEDRAL>
0.974153

>  <SCORE.INTRA.DIHEDRAL.0>
6.97628

>  <SCORE.INTRA.POLAR>
0

>  <SCORE.INTRA.POLAR.0>
0

>  <SCORE.INTRA.REPUL>
0

>  <SCORE.INTRA.REPUL.0>
0

>  <SCORE.INTRA.SOLV>
-0.567593

>  <SCORE.INTRA.SOLV.lig_0>
-49.8243

>  <SCORE.INTRA.VDW>
-0.976105

>  <SCORE.INTRA.VDW.0>
-1.35881

>  <SCORE.INTRA.norm>
-0.029724

>  <SCORE.RESTR>
0.00243094

>  <SCORE.RESTR.CAVITY>
0.00243094

>  <SCORE.RESTR.norm>
9.34977e-05

>  <SCORE.SYSTEM>
0

>  <SCORE.SYSTEM.CONST>
0

>  <SCORE.SYSTEM.DIHEDRAL>
0

>  <SCORE.SYSTEM.SOLV>
0

>  <SCORE.SYSTEM.norm>
0

>  <SCORE.heavy>
26

>  <SCORE.norm>
-0.390916

>  <RMSD>
15.976

$$$$
ligand
 OpenBabel11021811483D
libRbt.so/2013.1/901 2013/11/27
 26 28  0  0  0  0  0  0  0  0999 V2000
   36.2537   25.9372   16.6094 N   0  0  0  0  0  0  0  0  0  0  0  0
   37.5810   25.3585   16.7763 C   0  0  2  0  0  0  0  0  0  0  0  0
   37.6342   23.9391   16.2227 C   0  0  0  0  0  0  0  0  0  0  0  0
   38.6874   23.3031   16.2104 O   0  0  0  0  0  0  0  0  0  0  0  0
   37.9838   25.3616   18.2456 C   0  0  0  0  0  0  0  0  0  0  0  0
   37.0897   24.5107   19.1379 C   0  0  0  0  0  0  0  0  0  0  0  0
   37.6571   24.4747   20.8570 S   0  0  0  0  0  0  0  0  0  0  0  0
   36.4458   23.1826   21.2330 C   0  0  0  0  0  0  0  0  0  0  0  0
   36.9561   21.7843   20.9049 C   0  0  1  0  0  0  0  0  0  0  0  0
   36.1763   20.8144   21.5805 O   0  0  0  0  0  0  0  0  0  0  0  0
   36.8706   21.4937   19.4155 C   0  0  1  0  0  0  0  0  0  0  0  0
   38.1614   21.2943   18.8896 O   0  0  0  0  0  0  0  0  0  0  0  0
   36.0562   20.2231   19.2880 C   0  0  1  0  0  0  0  0  0  0  0  0
   36.8054   19.2327   18.6231 O   0  0  0  0  0  0  0  0  0  0  0  0
   35.7520   19.7825   20.7096 C   0  0  2  0  0  0  0  0  0  0  0  0
   36.6242   23.3948   15.7749 O   0  0  0  0  0  0  0  0  0  0  0  0
   31.4156   17.6961   18.6098 N   0  0  0  0  0  0  0  0  0  0  0  0
   32.6949   17.6999   18.0915 C   0  0  0  0  0  0  0  0  0  0  0  0
   33.7250   18.3012   18.7873 N   0  0  0  0  0  0  0  0  0  0  0  0
   33.4884   18.8934   19.9832 C   0  0  0  0  0  0  0  0  0  0  0  0
   32.2085   18.9005   20.5208 C   0  0  0  0  0  0  0  0  0  0  0  0
   31.1664   18.2968   19.8273 C   0  0  0  0  0  0  0  0  0  0  0  0
   29.9362   18.2982   20.3320 N   0  0  0  0  0  0  0  0  0  0  0  0
   32.2582   19.5487   21.7046 N   0  0  0  0  0  0  0  0  0  0  0  0
   33.5308   19.9499   21.9280 C   0  0  0  0  0  0  0  0  0  0  0  0
   34.3052   19.5507   20.8692 N   0  0  0  0  0  0  0  0  0  0  0  0
  2  1  1  1  0  0  0
  2  3  1  0  0  0  0
  2  5  1  0  0  0  0
  3  4  1  0  0  0  0
  3 16  1  0  0  0  0
  5  6  1  0  0  0  0
  6  7  1  0  0  0  0
  7  8  1  0  0  0  0
  9  8  1  6  0  0  0
  9 10  1  0  0  0  0
  9 11  1  0  0  0  0
 10 15  1  0  0  0  0
 11 12  1  1  0  0  0
 11 13  1  0  0  0  0
 13 14  1  1  0  0  0
 13 15  1  0  0  0  0
 15 26  1  6  0  0  0
 17 18  2  0  0  0  0
 17 22  1  0  0  0  0
 18 19  1  0  0  0  0
 19 20  2  0  0  0  0
 20 21  1  0  0  0  0
 20 26  1  0  0  0  0
 21 22  2  0  0  0  0
 21 24  1  0  0  0  0
 22 23  1  0  0  0  0
 24 25  2  0  0  0  0
 25 26  1  0  0  0  0
M  END
>  <CHROM.1>
176.42256803,62.93849840,176.97887614,-171.09729364,84.90608285,161.97994864
162.25448090,35.49521463,21.41335251,19.31552985,0.31198668,-0.81577188,-1.49257300

>  <Name>
ligand

>  <RI>
0

>  <Rbt.Current_Directory>
/home/itssahil/PROJECTS/Mol_Feturizer/New_Systems/rnas/3NPQ

>  <Rbt.Executable>
rbdock ($Id: //depot/dev/client3/rdock/2013.1/src/exe/rbdock.cxx#4 $)

>  <Rbt.Library>
libRbt.so (2013.1, Build901 2013/11/27)

>  <Rbt.Parameter_File>
/export/apps/rDock/src/rDock_2013.1_src/data/scripts/dock_solv.prm

>  <Rbt.Receptor>
prm/blind_docking_100.prm

>  <SCORE>
-9.11246

>  <SCORE.INTER>
-7.45732

>  <SCORE.INTER.CONST>
1

>  <SCORE.INTER.POLAR>
0

>  <SCORE.INTER.ROT>
7

>  <SCORE.INTER.SOLV>
5.22579

>  <SCORE.INTER.VDW>
-14.9801

>  <SCORE.INTER.norm>
-0.28682

>  <SCORE.INTRA>
-1.65513

>  <SCORE.INTRA.DIHEDRAL>
-2.14684

>  <SCORE.INTRA.DIHEDRAL.0>
6.97628

>  <SCORE.INTRA.POLAR>
0

>  <SCORE.INTRA.POLAR.0>
0

>  <SCORE.INTRA.REPUL>
0

>  <SCORE.INTRA.REPUL.0>
0

>  <SCORE.INTRA.SOLV>
0.20229

>  <SCORE.INTRA.SOLV.lig_0>
-49.8243

>  <SCORE.INTRA.VDW>
-0.682857

>  <SCORE.INTRA.VDW.0>
-1.35881

>  <SCORE.INTRA.norm>
-0.0636589

>  <SCORE.RESTR>
0

>  <SCORE.RESTR.CAVITY>
0

>  <SCORE.RESTR.norm>
0

>  <SCORE.SYSTEM>
0

>  <SCORE.SYSTEM.CONST>
0

>  <SCORE.SYSTEM.DIHEDRAL>
0

>  <SCORE.SYSTEM.SOLV>
0

>  <SCORE.SYSTEM.norm>
0

>  <SCORE.heavy>
26

>  <SCORE.norm>
-0.350479

>  <RMSD>
16.019

$$$$
ligand
 OpenBabel11021811483D
libRbt.so/2013.1/901 2013/11/27
 26 28  0  0  0  0  0  0  0  0999 V2000
   33.5147   18.0837   19.7139 N   0  0  0  0  0  0  0  0  0  0  0  0
   33.8469   19.4208   19.2381 C   0  0  2  0  0  0  0  0  0  0  0  0
   33.4392   20.4817   20.2542 C   0  0  0  0  0  0  0  0  0  0  0  0
   32.6750   20.2116   21.1799 O   0  0  0  0  0  0  0  0  0  0  0  0
   33.1730   19.6936   17.8992 C   0  0  0  0  0  0  0  0  0  0  0  0
   33.6039   20.9970   17.2396 C   0  0  0  0  0  0  0  0  0  0  0  0
   35.4032   21.1416   17.0977 S   0  0  0  0  0  0  0  0  0  0  0  0
   35.2094   22.6882   16.1764 C   0  0  0  0  0  0  0  0  0  0  0  0
   36.2070   23.7577   16.6057 C   0  0  1  0  0  0  0  0  0  0  0  0
   35.8825   24.2292   17.9008 O   0  0  0  0  0  0  0  0  0  0  0  0
   37.6251   23.2127   16.6515 C   0  0  1  0  0  0  0  0  0  0  0  0
   38.4278   23.8808   15.7072 O   0  0  0  0  0  0  0  0  0  0  0  0
   38.1302   23.4912   18.0519 C   0  0  1  0  0  0  0  0  0  0  0  0
   39.2930   24.2845   17.9981 O   0  0  0  0  0  0  0  0  0  0  0  0
   37.0135   24.2468   18.7517 C   0  0  2  0  0  0  0  0  0  0  0  0
   33.8655   21.6343   20.1733 O   0  0  0  0  0  0  0  0  0  0  0  0
   36.7780   19.7254   21.4105 N   0  0  0  0  0  0  0  0  0  0  0  0
   37.1698   19.9235   20.1017 C   0  0  0  0  0  0  0  0  0  0  0  0
   37.1701   21.1942   19.5610 N   0  0  0  0  0  0  0  0  0  0  0  0
   36.7847   22.2562   20.3097 C   0  0  0  0  0  0  0  0  0  0  0  0
   36.3868   22.0772   21.6275 C   0  0  0  0  0  0  0  0  0  0  0  0
   36.3844   20.8018   22.1795 C   0  0  0  0  0  0  0  0  0  0  0  0
   36.0043   20.6183   23.4405 N   0  0  0  0  0  0  0  0  0  0  0  0
   36.0603   23.2870   22.1313 N   0  0  0  0  0  0  0  0  0  0  0  0
   36.2405   24.2218   21.1700 C   0  0  0  0  0  0  0  0  0  0  0  0
   36.6895   23.5977   20.0348 N   0  0  0  0  0  0  0  0  0  0  0  0
  2  1  1  1  0  0  0
  2  3  1  0  0  0  0
  2  5  1  0  0  0  0
  3  4  1  0  0  0  0
  3 16  1  0  0  0  0
  5  6  1  0  0  0  0
  6  7  1  0  0  0  0
  7  8  1  0  0  0  0
  9  8  1  1  0  0  0
  9 10  1  0  0  0  0
  9 11  1  0  0  0  0
 10 15  1  0  0  0  0
 11 12  1  6  0  0  0
 11 13  1  0  0  0  0
 13 14  1  6  0  0  0
 13 15  1  0  0  0  0
 15 26  1  1  0  0  0
 17 18  2  0  0  0  0
 17 22  1  0  0  0  0
 18 19  1  0  0  0  0
 19 20  2  0  0  0  0
 20 21  1  0  0  0  0
 20 26  1  0  0  0  0
 21 22  2  0  0  0  0
 21 24  1  0  0  0  0
 22 23  1  0  0  0  0
 24 25  2  0  0  0  0
 25 26  1  0  0  0  0
M  END
>  <CHROM.1>
-14.69225834,-172.60799746,52.50710586,175.27819245,137.82408186,-70.58403317
87.12154871,35.84938353,21.87607927,19.17161029,2.36001698,0.74568698,1.77448322

>  <Name>
ligand

>  <RI>
0

>  <Rbt.Current_Directory>
/home/itssahil/PROJECTS/Mol_Feturizer/New_Systems/rnas/3NPQ

>  <Rbt.Executable>
rbdock ($Id: //depot/dev/client3/rdock/2013.1/src/exe/rbdock.cxx#4 $)

>  <Rbt.Library>
libRbt.so (2013.1, Build901 2013/11/27)

>  <Rbt.Parameter_File>
/export/apps/rDock/src/rDock_2013.1_src/data/scripts/dock_solv.prm

>  <Rbt.Receptor>
prm/blind_docking_100.prm

>  <SCORE>
-11.9563

>  <SCORE.INTER>
-7.12054

>  <SCORE.INTER.CONST>
1

>  <SCORE.INTER.POLAR>
0

>  <SCORE.INTER.ROT>
7

>  <SCORE.INTER.SOLV>
19.9715

>  <SCORE.INTER.VDW>
-19.6708

>  <SCORE.INTER.norm>
-0.273867

>  <SCORE.INTRA>
-4.83572

>  <SCORE.INTRA.DIHEDRAL>
-1.54712

>  <SCORE.INTRA.DIHEDRAL.0>
6.97628

>  <SCORE.INTRA.POLAR>
0

>  <SCORE.INTRA.POLAR.0>
0

>  <SCORE.INTRA.REPUL>
0

>  <SCORE.INTRA.REPUL.0>
0

>  <SCORE.INTRA.SOLV>
-0.250231

>  <SCORE.INTRA.SOLV.lig_0>
-49.8243

>  <SCORE.INTRA.VDW>
-3.93704

>  <SCORE.INTRA.VDW.0>
-1.35881

>  <SCORE.INTRA.norm>
-0.185989

>  <SCORE.RESTR>
0

>  <SCORE.RESTR.CAVITY>
0

>  <SCORE.RESTR.norm>
0

>  <SCORE.SYSTEM>
0

>  <SCORE.SYSTEM.CONST>
0

>  <SCORE.SYSTEM.DIHEDRAL>
0

>  <SCORE.SYSTEM.SOLV>
0

>  <SCORE.SYSTEM.norm>
0

>  <SCORE.heavy>
26

>  <SCORE.norm>
-0.459856

>  <RMSD>
16.048

$$$$
ligand
 OpenBabel11021811483D
libRbt.so/2013.1/901 2013/11/27
 26 28  0  0  0  0  0  0  0  0999 V2000
   31.5833   19.2186   20.9852 N   0  0  0  0  0  0  0  0  0  0  0  0
   31.0916   19.8314   19.7575 C   0  0  2  0  0  0  0  0  0  0  0  0
   29.6029   20.1441   19.8585 C   0  0  0  0  0  0  0  0  0  0  0  0
   28.9751   19.9095   20.8903 O   0  0  0  0  0  0  0  0  0  0  0  0
   31.3544   18.9213   18.5643 C   0  0  0  0  0  0  0  0  0  0  0  0
   32.8200   18.8337   18.1591 C   0  0  0  0  0  0  0  0  0  0  0  0
   33.8747   18.2207   19.4972 S   0  0  0  0  0  0  0  0  0  0  0  0
   34.8364   17.2585   18.3025 C   0  0  0  0  0  0  0  0  0  0  0  0
   36.3161   17.1851   18.6610 C   0  0  1  0  0  0  0  0  0  0  0  0
   36.8642   18.4893   18.7202 O   0  0  0  0  0  0  0  0  0  0  0  0
   36.5308   16.5290   20.0152 C   0  0  1  0  0  0  0  0  0  0  0  0
   37.2592   15.3341   19.8605 O   0  0  0  0  0  0  0  0  0  0  0  0
   37.3299   17.5218   20.8336 C   0  0  1  0  0  0  0  0  0  0  0  0
   38.5405   16.9380   21.2554 O   0  0  0  0  0  0  0  0  0  0  0  0
   37.6089   18.6924   19.9066 C   0  0  2  0  0  0  0  0  0  0  0  0
   28.9932   20.6395   18.9100 O   0  0  0  0  0  0  0  0  0  0  0  0
   36.7493   23.8313   19.2581 N   0  0  0  0  0  0  0  0  0  0  0  0
   37.1656   22.9126   18.3156 C   0  0  0  0  0  0  0  0  0  0  0  0
   37.3414   21.5885   18.6659 N   0  0  0  0  0  0  0  0  0  0  0  0
   37.1083   21.1806   19.9372 C   0  0  0  0  0  0  0  0  0  0  0  0
   36.6897   22.0896   20.8993 C   0  0  0  0  0  0  0  0  0  0  0  0
   36.5095   23.4238   20.5548 C   0  0  0  0  0  0  0  0  0  0  0  0
   36.1097   24.3034   21.4682 N   0  0  0  0  0  0  0  0  0  0  0  0
   36.5344   21.4215   22.0628 N   0  0  0  0  0  0  0  0  0  0  0  0
   36.8429   20.1197   21.8618 C   0  0  0  0  0  0  0  0  0  0  0  0
   37.2006   19.9550   20.5485 N   0  0  0  0  0  0  0  0  0  0  0  0
  2  1  1  1  0  0  0
  2  3  1  0  0  0  0
  2  5  1  0  0  0  0
  3  4  1  0  0  0  0
  3 16  1  0  0  0  0
  5  6  1  0  0  0  0
  6  7  1  0  0  0  0
  7  8  1  0  0  0  0
  9  8  1  1  0  0  0
  9 10  1  0  0  0  0
  9 11  1  0  0  0  0
 10 15  1  0  0  0  0
 11 12  1  6  0  0  0
 11 13  1  0  0  0  0
 13 14  1  6  0  0  0
 13 15  1  0  0  0  0
 15 26  1  1  0  0  0
 17 18  2  0  0  0  0
 17 22  1  0  0  0  0
 18 19  1  0  0  0  0
 19 20  2  0  0  0  0
 20 21  1  0  0  0  0
 20 26  1  0  0  0  0
 21 22  2  0  0  0  0
 21 24  1  0  0  0  0
 22 23  1  0  0  0  0
 24 25  2  0  0  0  0
 25 26  1  0  0  0  0
M  END
>  <CHROM.1>
1.63271875,-71.73258393,59.11116817,140.88324188,144.91707731,-59.25764447
-50.55641551,34.95971148,19.63697167,19.88421053,3.13613351,-0.07993593,0.10550341

>  <Name>
ligand

>  <RI>
0

>  <Rbt.Current_Directory>
/home/itssahil/PROJECTS/Mol_Feturizer/New_Systems/rnas/3NPQ

>  <Rbt.Executable>
rbdock ($Id: //depot/dev/client3/rdock/2013.1/src/exe/rbdock.cxx#4 $)

>  <Rbt.Library>
libRbt.so (2013.1, Build901 2013/11/27)

>  <Rbt.Parameter_File>
/export/apps/rDock/src/rDock_2013.1_src/data/scripts/dock_solv.prm

>  <Rbt.Receptor>
prm/blind_docking_80.prm

>  <SCORE>
-5.80412

>  <SCORE.INTER>
-6.32048

>  <SCORE.INTER.CONST>
1

>  <SCORE.INTER.POLAR>
0

>  <SCORE.INTER.ROT>
7

>  <SCORE.INTER.SOLV>
12.9177

>  <SCORE.INTER.VDW>
-16.7862

>  <SCORE.INTER.norm>
-0.243095

>  <SCORE.INTRA>
-0.177554

>  <SCORE.INTRA.DIHEDRAL>
-0.486593

>  <SCORE.INTRA.DIHEDRAL.0>
6.97628

>  <SCORE.INTRA.POLAR>
0

>  <SCORE.INTRA.POLAR.0>
0

>  <SCORE.INTRA.REPUL>
0

>  <SCORE.INTRA.REPUL.0>
0

>  <SCORE.INTRA.SOLV>
1.34268

>  <SCORE.INTRA.SOLV.lig_0>
-49.8243

>  <SCORE.INTRA.VDW>
-0.605597

>  <SCORE.INTRA.VDW.0>
-1.35881

>  <SCORE.INTRA.norm>
-0.00682902

>  <SCORE.RESTR>
0.693917

>  <SCORE.RESTR.CAVITY>
0.693917

>  <SCORE.RESTR.norm>
0.0266891

>  <SCORE.SYSTEM>
0

>  <SCORE.SYSTEM.CONST>
0

>  <SCORE.SYSTEM.DIHEDRAL>
0

>  <SCORE.SYSTEM.SOLV>
0

>  <SCORE.SYSTEM.norm>
0

>  <SCORE.heavy>
26

>  <SCORE.norm>
-0.223235

>  <RMSD>
16.062

$$$$
ligand
 OpenBabel11021811483D
libRbt.so/2013.1/901 2013/11/27
 26 28  0  0  0  0  0  0  0  0999 V2000
   39.0748   22.0461   18.4936 N   0  0  0  0  0  0  0  0  0  0  0  0
   38.5178   22.4637   17.2130 C   0  0  2  0  0  0  0  0  0  0  0  0
   39.2412   23.6929   16.6748 C   0  0  0  0  0  0  0  0  0  0  0  0
   39.8212   24.4691   17.4331 O   0  0  0  0  0  0  0  0  0  0  0  0
   37.0278   22.7516   17.3475 C   0  0  0  0  0  0  0  0  0  0  0  0
   36.6823   23.7415   18.4522 C   0  0  0  0  0  0  0  0  0  0  0  0
   34.9525   24.2733   18.3919 S   0  0  0  0  0  0  0  0  0  0  0  0
   34.4291   22.6504   19.0006 C   0  0  0  0  0  0  0  0  0  0  0  0
   34.6735   22.4756   20.4949 C   0  0  1  0  0  0  0  0  0  0  0  0
   33.6329   21.7049   21.0678 O   0  0  0  0  0  0  0  0  0  0  0  0
   35.9860   21.7586   20.7662 C   0  0  1  0  0  0  0  0  0  0  0  0
   36.8633   22.6096   21.4650 O   0  0  0  0  0  0  0  0  0  0  0  0
   35.6332   20.5602   21.6225 C   0  0  1  0  0  0  0  0  0  0  0  0
   36.3354   20.6137   22.8425 O   0  0  0  0  0  0  0  0  0  0  0  0
   34.1384   20.6577   21.8747 C   0  0  2  0  0  0  0  0  0  0  0  0
   39.2629   23.9383   15.4681 O   0  0  0  0  0  0  0  0  0  0  0  0
   33.5071   16.9505   18.2106 N   0  0  0  0  0  0  0  0  0  0  0  0
   34.2818   18.0910   18.1424 C   0  0  0  0  0  0  0  0  0  0  0  0
   34.3301   18.9633   19.2118 N   0  0  0  0  0  0  0  0  0  0  0  0
   33.6166   18.7080   20.3355 C   0  0  0  0  0  0  0  0  0  0  0  0
   32.8313   17.5666   20.4229 C   0  0  0  0  0  0  0  0  0  0  0  0
   32.7779   16.6832   19.3515 C   0  0  0  0  0  0  0  0  0  0  0  0
   32.0283   15.5872   19.4236 N   0  0  0  0  0  0  0  0  0  0  0  0
   32.2381   17.5619   21.6363 N   0  0  0  0  0  0  0  0  0  0  0  0
   32.6264   18.6660   22.3148 C   0  0  0  0  0  0  0  0  0  0  0  0
   33.4814   19.3865   21.5212 N   0  0  0  0  0  0  0  0  0  0  0  0
  2  1  1  1  0  0  0
  2  3  1  0  0  0  0
  2  5  1  0  0  0  0
  3  4  1  0  0  0  0
  3 16  1  0  0  0  0
  5  6  1  0  0  0  0
  6  7  1  0  0  0  0
  7  8  1  0  0  0  0
  9  8  1  6  0  0  0
  9 10  1  0  0  0  0
  9 11  1  0  0  0  0
 10 15  1  0  0  0  0
 11 12  1  1  0  0  0
 11 13  1  0  0  0  0
 13 14  1  1  0  0  0
 13 15  1  0  0  0  0
 15 26  1  6  0  0  0
 17 18  2  0  0  0  0
 17 22  1  0  0  0  0
 18 19  1  0  0  0  0
 19 20  2  0  0  0  0
 20 21  1  0  0  0  0
 20 26  1  0  0  0  0
 21 22  2  0  0  0  0
 21 24  1  0  0  0  0
 22 23  1  0  0  0  0
 24 25  2  0  0  0  0
 25 26  1  0  0  0  0
M  END
>  <CHROM.1>
-24.80089273,53.57754478,170.01986398,72.75674864,76.19117156,144.34931066
67.27725488,35.36825228,20.98410219,19.51888351,-0.16825265,-0.89724629,-2.25507513

>  <Name>
ligand

>  <RI>
0

>  <Rbt.Current_Directory>
/home/itssahil/PROJECTS/Mol_Feturizer/New_Systems/rnas/3NPQ

>  <Rbt.Executable>
rbdock ($Id: //depot/dev/client3/rdock/2013.1/src/exe/rbdock.cxx#4 $)

>  <Rbt.Library>
libRbt.so (2013.1, Build901 2013/11/27)

>  <Rbt.Parameter_File>
/export/apps/rDock/src/rDock_2013.1_src/data/scripts/dock_solv.prm

>  <Rbt.Receptor>
prm/blind_docking_60.prm

>  <SCORE>
-7.78788

>  <SCORE.INTER>
-7.70692

>  <SCORE.INTER.CONST>
1

>  <SCORE.INTER.POLAR>
0

>  <SCORE.INTER.ROT>
7

>  <SCORE.INTER.SOLV>
9.36889

>  <SCORE.INTER.VDW>
-16.5276

>  <SCORE.INTER.norm>
-0.29642

>  <SCORE.INTRA>
-0.0809556

>  <SCORE.INTRA.DIHEDRAL>
0.304237

>  <SCORE.INTRA.DIHEDRAL.0>
6.97628

>  <SCORE.INTRA.POLAR>
0

>  <SCORE.INTRA.POLAR.0>
0

>  <SCORE.INTRA.REPUL>
0

>  <SCORE.INTRA.REPUL.0>
0

>  <SCORE.INTRA.SOLV>
1.09845

>  <SCORE.INTRA.SOLV.lig_0>
-49.8243

>  <SCORE.INTRA.VDW>
-0.782301

>  <SCORE.INTRA.VDW.0>
-1.35881

>  <SCORE.INTRA.norm>
-0.00311368

>  <SCORE.RESTR>
0

>  <SCORE.RESTR.CAVITY>
0

>  <SCORE.RESTR.norm>
0

>  <SCORE.SYSTEM>
0

>  <SCORE.SYSTEM.CONST>
0

>  <SCORE.SYSTEM.DIHEDRAL>
0

>  <SCORE.SYSTEM.SOLV>
0

>  <SCORE.SYSTEM.norm>
0

>  <SCORE.heavy>
26

>  <SCORE.norm>
-0.299534

>  <RMSD>
16.090

$$$$
ligand
 OpenBabel11021811483D
libRbt.so/2013.1/901 2013/11/27
 26 28  0  0  0  0  0  0  0  0999 V2000
   37.0247   25.5967   17.4369 N   0  0  0  0  0  0  0  0  0  0  0  0
   36.4373   24.2643   17.3718 C   0  0  2  0  0  0  0  0  0  0  0  0
   36.7563   23.5885   16.0431 C   0  0  0  0  0  0  0  0  0  0  0  0
   37.9055   23.5653   15.6042 O   0  0  0  0  0  0  0  0  0  0  0  0
   34.9287   24.3357   17.5726 C   0  0  0  0  0  0  0  0  0  0  0  0
   34.2978   23.0244   18.0220 C   0  0  0  0  0  0  0  0  0  0  0  0
   34.0935   22.9322   19.8187 S   0  0  0  0  0  0  0  0  0  0  0  0
   35.8776   22.6921   20.0124 C   0  0  0  0  0  0  0  0  0  0  0  0
   36.2773   21.2212   20.0087 C   0  0  1  0  0  0  0  0  0  0  0  0
   35.4826   20.5022   20.9342 O   0  0  0  0  0  0  0  0  0  0  0  0
   36.0793   20.5921   18.6393 C   0  0  1  0  0  0  0  0  0  0  0  0
   37.3190   20.1756   18.1176 O   0  0  0  0  0  0  0  0  0  0  0  0
   35.1803   19.3934   18.8609 C   0  0  1  0  0  0  0  0  0  0  0  0
   35.8221   18.2192   18.4209 O   0  0  0  0  0  0  0  0  0  0  0  0
   34.9400   19.3281   20.3594 C   0  0  2  0  0  0  0  0  0  0  0  0
   35.8716   23.0490   15.3774 O   0  0  0  0  0  0  0  0  0  0  0  0
   30.1214   20.6918   18.7821 N   0  0  0  0  0  0  0  0  0  0  0  0
   31.3291   20.9933   18.1855 C   0  0  0  0  0  0  0  0  0  0  0  0
   32.5107   20.5474   18.7438 N   0  0  0  0  0  0  0  0  0  0  0  0
   32.4945   19.8119   19.8822 C   0  0  0  0  0  0  0  0  0  0  0  0
   31.2900   19.4989   20.4973 C   0  0  0  0  0  0  0  0  0  0  0  0
   30.0964   19.9431   19.9413 C   0  0  0  0  0  0  0  0  0  0  0  0
   28.9368   19.6501   20.5223 N   0  0  0  0  0  0  0  0  0  0  0  0
   31.5636   18.7663   21.5984 N   0  0  0  0  0  0  0  0  0  0  0  0
   32.9038   18.6091   21.6948 C   0  0  0  0  0  0  0  0  0  0  0  0
   33.4945   19.2519   20.6376 N   0  0  0  0  0  0  0  0  0  0  0  0
  2  1  1  6  0  0  0
  2  3  1  0  0  0  0
  2  5  1  0  0  0  0
  3  4  1  0  0  0  0
  3 16  1  0  0  0  0
  5  6  1  0  0  0  0
  6  7  1  0  0  0  0
  7  8  1  0  0  0  0
  9  8  1  6  0  0  0
  9 10  1  0  0  0  0
  9 11  1  0  0  0  0
 10 15  1  0  0  0  0
 11 12  1  1  0  0  0
 11 13  1  0  0  0  0
 13 14  1  1  0  0  0
 13 15  1  0  0  0  0
 15 26  1  6  0  0  0
 17 18  2  0  0  0  0
 17 22  1  0  0  0  0
 18 19  1  0  0  0  0
 19 20  2  0  0  0  0
 20 21  1  0  0  0  0
 20 26  1  0  0  0  0
 21 22  2  0  0  0  0
 21 24  1  0  0  0  0
 22 23  1  0  0  0  0
 24 25  2  0  0  0  0
 25 26  1  0  0  0  0
M  END
>  <CHROM.1>
48.64569677,-158.91923057,95.67847681,-73.44566315,-91.02304014,-50.84485530
87.17994229,34.28347492,21.27383086,18.95784651,0.77371464,0.14539432,-0.55112119

>  <Name>
ligand

>  <RI>
0

>  <Rbt.Current_Directory>
/home/itssahil/PROJECTS/Mol_Feturizer/New_Systems/rnas/3NPQ

>  <Rbt.Executable>
rbdock ($Id: //depot/dev/client3/rdock/2013.1/src/exe/rbdock.cxx#4 $)

>  <Rbt.Library>
libRbt.so (2013.1, Build901 2013/11/27)

>  <Rbt.Parameter_File>
/export/apps/rDock/src/rDock_2013.1_src/data/scripts/dock_solv.prm

>  <Rbt.Receptor>
prm/blind_docking_100.prm

>  <SCORE>
-5.47718

>  <SCORE.INTER>
-5.74847

>  <SCORE.INTER.CONST>
1

>  <SCORE.INTER.POLAR>
0

>  <SCORE.INTER.ROT>
7

>  <SCORE.INTER.SOLV>
9.35653

>  <SCORE.INTER.VDW>
-15.2178

>  <SCORE.INTER.norm>
-0.221095

>  <SCORE.INTRA>
0.271296

>  <SCORE.INTRA.DIHEDRAL>
2.68579

>  <SCORE.INTRA.DIHEDRAL.0>
6.97628

>  <SCORE.INTRA.POLAR>
0

>  <SCORE.INTRA.POLAR.0>
0

>  <SCORE.INTRA.REPUL>
0

>  <SCORE.INTRA.REPUL.0>
0

>  <SCORE.INTRA.SOLV>
0.254487

>  <SCORE.INTRA.SOLV.lig_0>
-49.8243

>  <SCORE.INTRA.VDW>
-1.19884

>  <SCORE.INTRA.VDW.0>
-1.35881

>  <SCORE.INTRA.norm>
0.0104345

>  <SCORE.RESTR>
0

>  <SCORE.RESTR.CAVITY>
0

>  <SCORE.RESTR.norm>
0

>  <SCORE.SYSTEM>
0

>  <SCORE.SYSTEM.CONST>
0

>  <SCORE.SYSTEM.DIHEDRAL>
0

>  <SCORE.SYSTEM.SOLV>
0

>  <SCORE.SYSTEM.norm>
0

>  <SCORE.heavy>
26

>  <SCORE.norm>
-0.210661

>  <RMSD>
16.092

$$$$
ligand
 OpenBabel11021811483D
libRbt.so/2013.1/901 2013/11/27
 26 28  0  0  0  0  0  0  0  0999 V2000
   38.7582   24.6843   16.5039 N   0  0  0  0  0  0  0  0  0  0  0  0
   37.6306   23.8002   16.7709 C   0  0  2  0  0  0  0  0  0  0  0  0
   36.4768   24.0783   15.8141 C   0  0  0  0  0  0  0  0  0  0  0  0
   35.9408   25.1850   15.7730 O   0  0  0  0  0  0  0  0  0  0  0  0
   37.1621   23.9533   18.2126 C   0  0  0  0  0  0  0  0  0  0  0  0
   38.1065   23.3461   19.2418 C   0  0  0  0  0  0  0  0  0  0  0  0
   37.5816   23.6730   20.9435 S   0  0  0  0  0  0  0  0  0  0  0  0
   36.1338   22.6126   20.7040 C   0  0  0  0  0  0  0  0  0  0  0  0
   36.5015   21.1420   20.5443 C   0  0  1  0  0  0  0  0  0  0  0  0
   35.5927   20.3350   21.2708 O   0  0  0  0  0  0  0  0  0  0  0  0
   36.4473   20.7075   19.0887 C   0  0  1  0  0  0  0  0  0  0  0  0
   37.7295   20.3205   18.6544 O   0  0  0  0  0  0  0  0  0  0  0  0
   35.5050   19.5226   19.0456 C   0  0  1  0  0  0  0  0  0  0  0  0
   36.1687   18.3952   18.5232 O   0  0  0  0  0  0  0  0  0  0  0  0
   35.0951   19.2675   20.4859 C   0  0  2  0  0  0  0  0  0  0  0  0
   36.0539   23.2020   15.0589 O   0  0  0  0  0  0  0  0  0  0  0  0
   30.5132   20.8998   18.5089 N   0  0  0  0  0  0  0  0  0  0  0  0
   31.7864   21.2209   18.0830 C   0  0  0  0  0  0  0  0  0  0  0  0
   32.8883   20.6940   18.7271 N   0  0  0  0  0  0  0  0  0  0  0  0
   32.7291   19.8593   19.7830 C   0  0  0  0  0  0  0  0  0  0  0  0
   31.4568   19.5250   20.2266 C   0  0  0  0  0  0  0  0  0  0  0  0
   30.3426   20.0503   19.5832 C   0  0  0  0  0  0  0  0  0  0  0  0
   29.1192   19.7378   20.0000 N   0  0  0  0  0  0  0  0  0  0  0  0
   31.5897   18.6886   21.2786 N   0  0  0  0  0  0  0  0  0  0  0  0
   32.9072   18.4866   21.5104 C   0  0  0  0  0  0  0  0  0  0  0  0
   33.6262   19.2060   20.5910 N   0  0  0  0  0  0  0  0  0  0  0  0
  2  1  1  6  0  0  0
  2  3  1  0  0  0  0
  2  5  1  0  0  0  0
  3  4  1  0  0  0  0
  3 16  1  0  0  0  0
  5  6  1  0  0  0  0
  6  7  1  0  0  0  0
  7  8  1  0  0  0  0
  9  8  1  6  0  0  0
  9 10  1  0  0  0  0
  9 11  1  0  0  0  0
 10 15  1  0  0  0  0
 11 12  1  1  0  0  0
 11 13  1  0  0  0  0
 13 14  1  1  0  0  0
 13 15  1  0  0  0  0
 15 26  1  6  0  0  0
 17 18  2  0  0  0  0
 17 22  1  0  0  0  0
 18 19  1  0  0  0  0
 19 20  2  0  0  0  0
 20 21  1  0  0  0  0
 20 26  1  0  0  0  0
 21 22  2  0  0  0  0
 21 24  1  0  0  0  0
 22 23  1  0  0  0  0
 24 25  2  0  0  0  0
 25 26  1  0  0  0  0
M  END
>  <CHROM.1>
-60.00483249,-72.48314884,175.16432074,67.56870500,68.15514782,138.30029176
89.66256345,34.98895293,21.40418123,19.08999264,0.64765772,-0.30188772,-0.89612187

>  <Name>
ligand

>  <RI>
0

>  <Rbt.Current_Directory>
/home/itssahil/PROJECTS/Mol_Feturizer/New_Systems/rnas/3NPQ

>  <Rbt.Executable>
rbdock ($Id: //depot/dev/client3/rdock/2013.1/src/exe/rbdock.cxx#4 $)

>  <Rbt.Library>
libRbt.so (2013.1, Build901 2013/11/27)

>  <Rbt.Parameter_File>
/export/apps/rDock/src/rDock_2013.1_src/data/scripts/dock_solv.prm

>  <Rbt.Receptor>
prm/blind_docking_80.prm

>  <SCORE>
-8.11161

>  <SCORE.INTER>
-8.83942

>  <SCORE.INTER.CONST>
1

>  <SCORE.INTER.POLAR>
0

>  <SCORE.INTER.ROT>
7

>  <SCORE.INTER.SOLV>
8.81897

>  <SCORE.INTER.VDW>
-17.0993

>  <SCORE.INTER.norm>
-0.339978

>  <SCORE.INTRA>
0.727814

>  <SCORE.INTRA.DIHEDRAL>
0.754951

>  <SCORE.INTRA.DIHEDRAL.0>
6.97628

>  <SCORE.INTRA.POLAR>
0

>  <SCORE.INTRA.POLAR.0>
0

>  <SCORE.INTRA.REPUL>
0

>  <SCORE.INTRA.REPUL.0>
0

>  <SCORE.INTRA.SOLV>
0.128907

>  <SCORE.INTRA.SOLV.lig_0>
-49.8243

>  <SCORE.INTRA.VDW>
0.285885

>  <SCORE.INTRA.VDW.0>
-1.35881

>  <SCORE.INTRA.norm>
0.0279928

>  <SCORE.RESTR>
0

>  <SCORE.RESTR.CAVITY>
0

>  <SCORE.RESTR.norm>
0

>  <SCORE.SYSTEM>
0

>  <SCORE.SYSTEM.CONST>
0

>  <SCORE.SYSTEM.DIHEDRAL>
0

>  <SCORE.SYSTEM.SOLV>
0

>  <SCORE.SYSTEM.norm>
0

>  <SCORE.heavy>
26

>  <SCORE.norm>
-0.311985

>  <RMSD>
16.127

$$$$
ligand
 OpenBabel11021811483D
libRbt.so/2013.1/901 2013/11/27
 26 28  0  0  0  0  0  0  0  0999 V2000
   38.3231   23.8710   18.2412 N   0  0  0  0  0  0  0  0  0  0  0  0
   39.5269   23.8732   17.4193 C   0  0  2  0  0  0  0  0  0  0  0  0
   39.1791   23.7987   15.9369 C   0  0  0  0  0  0  0  0  0  0  0  0
   40.0262   24.0303   15.0752 O   0  0  0  0  0  0  0  0  0  0  0  0
   40.4363   22.7122   17.8015 C   0  0  0  0  0  0  0  0  0  0  0  0
   39.9205   21.3474   17.3645 C   0  0  0  0  0  0  0  0  0  0  0  0
   38.2881   20.9698   18.0510 S   0  0  0  0  0  0  0  0  0  0  0  0
   38.7919   19.2504   18.3115 C   0  0  0  0  0  0  0  0  0  0  0  0
   37.8619   18.5018   19.2591 C   0  0  1  0  0  0  0  0  0  0  0  0
   37.6840   19.2466   20.4501 O   0  0  0  0  0  0  0  0  0  0  0  0
   36.4914   18.2826   18.6393 C   0  0  1  0  0  0  0  0  0  0  0  0
   36.2488   16.9044   18.4839 O   0  0  0  0  0  0  0  0  0  0  0  0
   35.4967   18.8781   19.6139 C   0  0  1  0  0  0  0  0  0  0  0  0
   34.5794   17.8938   20.0312 O   0  0  0  0  0  0  0  0  0  0  0  0
   36.3167   19.3639   20.7967 C   0  0  2  0  0  0  0  0  0  0  0  0
   38.0421   23.5043   15.5663 O   0  0  0  0  0  0  0  0  0  0  0  0
   34.3412   23.8653   18.9521 N   0  0  0  0  0  0  0  0  0  0  0  0
   34.4856   22.6639   18.2877 C   0  0  0  0  0  0  0  0  0  0  0  0
   35.0305   21.5727   18.9352 N   0  0  0  0  0  0  0  0  0  0  0  0
   35.4292   21.6726   20.2267 C   0  0  0  0  0  0  0  0  0  0  0  0
   35.2926   22.8723   20.9116 C   0  0  0  0  0  0  0  0  0  0  0  0
   34.7444   23.9750   20.2676 C   0  0  0  0  0  0  0  0  0  0  0  0
   34.6096   25.1295   20.9134 N   0  0  0  0  0  0  0  0  0  0  0  0
   35.7629   22.6916   22.1647 N   0  0  0  0  0  0  0  0  0  0  0  0
   36.1914   21.4144   22.2888 C   0  0  0  0  0  0  0  0  0  0  0  0
   35.9909   20.7701   21.0953 N   0  0  0  0  0  0  0  0  0  0  0  0
  2  1  1  1  0  0  0
  2  3  1  0  0  0  0
  2  5  1  0  0  0  0
  3  4  1  0  0  0  0
  3 16  1  0  0  0  0
  5  6  1  0  0  0  0
  6  7  1  0  0  0  0
  7  8  1  0  0  0  0
  9  8  1  6  0  0  0
  9 10  1  0  0  0  0
  9 11  1  0  0  0  0
 10 15  1  0  0  0  0
 11 12  1  1  0  0  0
 11 13  1  0  0  0  0
 13 14  1  1  0  0  0
 13 15  1  0  0  0  0
 15 26  1  6  0  0  0
 17 18  2  0  0  0  0
 17 22  1  0  0  0  0
 18 19  1  0  0  0  0
 19 20  2  0  0  0  0
 20 21  1  0  0  0  0
 20 26  1  0  0  0  0
 21 22  2  0  0  0  0
 21 24  1  0  0  0  0
 22 23  1  0  0  0  0
 24 25  2  0  0  0  0
 25 26  1  0  0  0  0
M  END
>  <CHROM.1>
166.74154454,72.11985482,-58.46704532,-140.71143684,164.18213699,-51.03914912
97.04805151,36.99592341,21.42838929,18.94324259,0.71792182,0.73291869,-0.12953755

>  <Name>
ligand

>  <RI>
0

>  <Rbt.Current_Directory>
/home/itssahil/PROJECTS/Mol_Feturizer/New_Systems/rnas/3NPQ

>  <Rbt.Executable>
rbdock ($Id: //depot/dev/client3/rdock/2013.1/src/exe/rbdock.cxx#4 $)

>  <Rbt.Library>
libRbt.so (2013.1, Build901 2013/11/27)

>  <Rbt.Parameter_File>
/export/apps/rDock/src/rDock_2013.1_src/data/scripts/dock_solv.prm

>  <Rbt.Receptor>
prm/blind_docking_60.prm

>  <SCORE>
-9.90187

>  <SCORE.INTER>
-8.74316

>  <SCORE.INTER.CONST>
1

>  <SCORE.INTER.POLAR>
0

>  <SCORE.INTER.ROT>
7

>  <SCORE.INTER.SOLV>
13.3979

>  <SCORE.INTER.VDW>
-18.5614

>  <SCORE.INTER.norm>
-0.336275

>  <SCORE.INTRA>
-1.34013

>  <SCORE.INTRA.DIHEDRAL>
-1.3123

>  <SCORE.INTRA.DIHEDRAL.0>
6.97628

>  <SCORE.INTRA.POLAR>
0

>  <SCORE.INTRA.POLAR.0>
0

>  <SCORE.INTRA.REPUL>
0

>  <SCORE.INTRA.REPUL.0>
0

>  <SCORE.INTRA.SOLV>
1.39212

>  <SCORE.INTRA.SOLV.lig_0>
-49.8243

>  <SCORE.INTRA.VDW>
-1.38003

>  <SCORE.INTRA.VDW.0>
-1.35881

>  <SCORE.INTRA.norm>
-0.0515433

>  <SCORE.RESTR>
0.181418

>  <SCORE.RESTR.CAVITY>
0.181418

>  <SCORE.RESTR.norm>
0.0069776

>  <SCORE.SYSTEM>
0

>  <SCORE.SYSTEM.CONST>
0

>  <SCORE.SYSTEM.DIHEDRAL>
0

>  <SCORE.SYSTEM.SOLV>
0

>  <SCORE.SYSTEM.norm>
0

>  <SCORE.heavy>
26

>  <SCORE.norm>
-0.380841

>  <RMSD>
16.163

$$$$
ligand
 OpenBabel11021811483D
libRbt.so/2013.1/901 2013/11/27
 26 28  0  0  0  0  0  0  0  0999 V2000
   37.9787   18.1641   18.2861 N   0  0  0  0  0  0  0  0  0  0  0  0
   37.3361   19.1830   19.1067 C   0  0  2  0  0  0  0  0  0  0  0  0
   37.2093   18.7219   20.5542 C   0  0  0  0  0  0  0  0  0  0  0  0
   37.0514   19.5331   21.4658 O   0  0  0  0  0  0  0  0  0  0  0  0
   35.9625   19.5310   18.5470 C   0  0  0  0  0  0  0  0  0  0  0  0
   35.9992   20.2068   17.1826 C   0  0  0  0  0  0  0  0  0  0  0  0
   34.3644   20.7650   16.6402 S   0  0  0  0  0  0  0  0  0  0  0  0
   35.0966   22.2883   15.9908 C   0  0  0  0  0  0  0  0  0  0  0  0
   35.4459   23.2874   17.0876 C   0  0  1  0  0  0  0  0  0  0  0  0
   34.4938   23.2100   18.1329 O   0  0  0  0  0  0  0  0  0  0  0  0
   36.8150   23.0056   17.6845 C   0  0  1  0  0  0  0  0  0  0  0  0
   37.6804   24.0879   17.4351 O   0  0  0  0  0  0  0  0  0  0  0  0
   36.5927   22.8515   19.1748 C   0  0  1  0  0  0  0  0  0  0  0  0
   37.3663   23.7945   19.8795 O   0  0  0  0  0  0  0  0  0  0  0  0
   35.1138   23.1140   19.4016 C   0  0  2  0  0  0  0  0  0  0  0  0
   37.2612   17.5265   20.8459 O   0  0  0  0  0  0  0  0  0  0  0  0
   31.1830   19.6474   19.7169 N   0  0  0  0  0  0  0  0  0  0  0  0
   31.3986   20.6033   18.7446 C   0  0  0  0  0  0  0  0  0  0  0  0
   32.4959   21.4381   18.8218 N   0  0  0  0  0  0  0  0  0  0  0  0
   33.3686   21.3271   19.8528 C   0  0  0  0  0  0  0  0  0  0  0  0
   33.1686   20.3724   20.8406 C   0  0  0  0  0  0  0  0  0  0  0  0
   32.0674   19.5277   20.7698 C   0  0  0  0  0  0  0  0  0  0  0  0
   31.8652   18.6102   21.7108 N   0  0  0  0  0  0  0  0  0  0  0  0
   34.1759   20.4808   21.7337 N   0  0  0  0  0  0  0  0  0  0  0  0
   35.0035   21.4751   21.3377 C   0  0  0  0  0  0  0  0  0  0  0  0
   34.5160   22.0093   20.1729 N   0  0  0  0  0  0  0  0  0  0  0  0
  2  1  1  6  0  0  0
  2  3  1  0  0  0  0
  2  5  1  0  0  0  0
  3  4  1  0  0  0  0
  3 16  1  0  0  0  0
  5  6  1  0  0  0  0
  6  7  1  0  0  0  0
  7  8  1  0  0  0  0
  9  8  1  6  0  0  0
  9 10  1  0  0  0  0
  9 11  1  0  0  0  0
 10 15  1  0  0  0  0
 11 12  1  1  0  0  0
 11 13  1  0  0  0  0
 13 14  1  1  0  0  0
 13 15  1  0  0  0  0
 15 26  1  1  0  0  0
 17 18  2  0  0  0  0
 17 22  1  0  0  0  0
 18 19  1  0  0  0  0
 19 20  2  0  0  0  0
 20 21  1  0  0  0  0
 20 26  1  0  0  0  0
 21 22  2  0  0  0  0
 21 24  1  0  0  0  0
 22 23  1  0  0  0  0
 24 25  2  0  0  0  0
 25 26  1  0  0  0  0
M  END
>  <CHROM.1>
159.51411818,-65.97573135,-173.68824087,139.63394312,-76.13685187,-34.51877428
-11.73056573,35.07903823,20.96335697,19.13008390,-0.91795349,-0.08771806
2.47801395

>  <Name>
ligand

>  <RI>
0

>  <Rbt.Current_Directory>
/home/itssahil/PROJECTS/Mol_Feturizer/New_Systems/rnas/3NPQ

>  <Rbt.Executable>
rbdock ($Id: //depot/dev/client3/rdock/2013.1/src/exe/rbdock.cxx#4 $)

>  <Rbt.Library>
libRbt.so (2013.1, Build901 2013/11/27)

>  <Rbt.Parameter_File>
/export/apps/rDock/src/rDock_2013.1_src/data/scripts/dock_solv.prm

>  <Rbt.Receptor>
prm/blind_docking_60.prm

>  <SCORE>
-11.4354

>  <SCORE.INTER>
-8.46234

>  <SCORE.INTER.CONST>
1

>  <SCORE.INTER.POLAR>
0

>  <SCORE.INTER.ROT>
7

>  <SCORE.INTER.SOLV>
9.90552

>  <SCORE.INTER.VDW>
-17.2101

>  <SCORE.INTER.norm>
-0.325474

>  <SCORE.INTRA>
-2.97303

>  <SCORE.INTRA.DIHEDRAL>
0.238089

>  <SCORE.INTRA.DIHEDRAL.0>
6.97628

>  <SCORE.INTRA.POLAR>
0

>  <SCORE.INTRA.POLAR.0>
0

>  <SCORE.INTRA.REPUL>
0

>  <SCORE.INTRA.REPUL.0>
0

>  <SCORE.INTRA.SOLV>
0.475926

>  <SCORE.INTRA.SOLV.lig_0>
-49.8243

>  <SCORE.INTRA.VDW>
-3.33004

>  <SCORE.INTRA.VDW.0>
-1.35881

>  <SCORE.INTRA.norm>
-0.114347

>  <SCORE.RESTR>
0

>  <SCORE.RESTR.CAVITY>
0

>  <SCORE.RESTR.norm>
0

>  <SCORE.SYSTEM>
0

>  <SCORE.SYSTEM.CONST>
0

>  <SCORE.SYSTEM.DIHEDRAL>
0

>  <SCORE.SYSTEM.SOLV>
0

>  <SCORE.SYSTEM.norm>
0

>  <SCORE.heavy>
26

>  <SCORE.norm>
-0.439822

>  <RMSD>
16.167

$$$$
ligand
 OpenBabel11021811483D
libRbt.so/2013.1/901 2013/11/27
 26 28  0  0  0  0  0  0  0  0999 V2000
   30.8562   17.1284   20.8225 N   0  0  0  0  0  0  0  0  0  0  0  0
   32.2643   17.5042   20.7985 C   0  0  2  0  0  0  0  0  0  0  0  0
   32.4540   18.9496   21.2445 C   0  0  0  0  0  0  0  0  0  0  0  0
   32.9685   19.2150   22.3302 O   0  0  0  0  0  0  0  0  0  0  0  0
   32.8455   17.3072   19.4041 C   0  0  0  0  0  0  0  0  0  0  0  0
   34.3574   17.4759   19.3303 C   0  0  0  0  0  0  0  0  0  0  0  0
   34.8626   19.2146   19.3257 S   0  0  0  0  0  0  0  0  0  0  0  0
   36.2633   18.8138   20.4007 C   0  0  0  0  0  0  0  0  0  0  0  0
   36.7619   20.0180   21.1910 C   0  0  1  0  0  0  0  0  0  0  0  0
   37.2998   20.9861   20.3086 O   0  0  0  0  0  0  0  0  0  0  0  0
   35.6379   20.6767   21.9738 C   0  0  1  0  0  0  0  0  0  0  0  0
   35.8959   20.5853   23.3549 O   0  0  0  0  0  0  0  0  0  0  0  0
   35.6290   22.1286   21.5424 C   0  0  1  0  0  0  0  0  0  0  0  0
   35.8175   22.9664   22.6591 O   0  0  0  0  0  0  0  0  0  0  0  0
   36.7893   22.2793   20.5737 C   0  0  2  0  0  0  0  0  0  0  0  0
   32.0974   19.8862   20.5287 O   0  0  0  0  0  0  0  0  0  0  0  0
   38.0675   23.7207   15.6894 N   0  0  0  0  0  0  0  0  0  0  0  0
   38.8670   23.1059   16.6319 C   0  0  0  0  0  0  0  0  0  0  0  0
   38.3596   22.7961   17.8783 N   0  0  0  0  0  0  0  0  0  0  0  0
   37.0740   23.0943   18.1868 C   0  0  0  0  0  0  0  0  0  0  0  0
   36.2545   23.7131   17.2527 C   0  0  0  0  0  0  0  0  0  0  0  0
   36.7571   24.0273   15.9958 C   0  0  0  0  0  0  0  0  0  0  0  0
   35.9815   24.6209   15.0934 N   0  0  0  0  0  0  0  0  0  0  0  0
   35.0404   23.8903   17.8173 N   0  0  0  0  0  0  0  0  0  0  0  0
   35.0715   23.4020   19.0786 C   0  0  0  0  0  0  0  0  0  0  0  0
   36.3259   22.9050   19.3221 N   0  0  0  0  0  0  0  0  0  0  0  0
  2  1  1  6  0  0  0
  2  3  1  0  0  0  0
  2  5  1  0  0  0  0
  3  4  1  0  0  0  0
  3 16  1  0  0  0  0
  5  6  1  0  0  0  0
  6  7  1  0  0  0  0
  7  8  1  0  0  0  0
  9  8  1  6  0  0  0
  9 10  1  0  0  0  0
  9 11  1  0  0  0  0
 10 15  1  0  0  0  0
 11 12  1  1  0  0  0
 11 13  1  0  0  0  0
 13 14  1  1  0  0  0
 13 15  1  0  0  0  0
 15 26  1  6  0  0  0
 17 18  2  0  0  0  0
 17 22  1  0  0  0  0
 18 19  1  0  0  0  0
 19 20  2  0  0  0  0
 20 21  1  0  0  0  0
 20 26  1  0  0  0  0
 21 22  2  0  0  0  0
 21 24  1  0  0  0  0
 22 23  1  0  0  0  0
 24 25  2  0  0  0  0
 25 26  1  0  0  0  0
M  END
>  <CHROM.1>
108.95162021,-171.36526741,-78.22071975,140.63299372,-156.80873770,-65.52427244
-55.75096223,35.34404061,21.02257778,19.64162146,2.43144345,0.80665485,1.79572455

>  <Name>
ligand

>  <RI>
0

>  <Rbt.Current_Directory>
/home/itssahil/PROJECTS/Mol_Feturizer/New_Systems/rnas/3NPQ

>  <Rbt.Executable>
rbdock ($Id: //depot/dev/client3/rdock/2013.1/src/exe/rbdock.cxx#4 $)

>  <Rbt.Library>
libRbt.so (2013.1, Build901 2013/11/27)

>  <Rbt.Parameter_File>
/export/apps/rDock/src/rDock_2013.1_src/data/scripts/dock_solv.prm

>  <Rbt.Receptor>
prm/blind_docking_60.prm

>  <SCORE>
-6.88322

>  <SCORE.INTER>
-4.6942

>  <SCORE.INTER.CONST>
1

>  <SCORE.INTER.POLAR>
0

>  <SCORE.INTER.ROT>
7

>  <SCORE.INTER.SOLV>
15.7701

>  <SCORE.INTER.VDW>
-16.6528

>  <SCORE.INTER.norm>
-0.180546

>  <SCORE.INTRA>
-2.1959

>  <SCORE.INTRA.DIHEDRAL>
-0.208706

>  <SCORE.INTRA.DIHEDRAL.0>
6.97628

>  <SCORE.INTRA.POLAR>
0

>  <SCORE.INTRA.POLAR.0>
0

>  <SCORE.INTRA.REPUL>
0

>  <SCORE.INTRA.REPUL.0>
0

>  <SCORE.INTRA.SOLV>
-0.395563

>  <SCORE.INTRA.SOLV.lig_0>
-49.8243

>  <SCORE.INTRA.VDW>
-1.89377

>  <SCORE.INTRA.VDW.0>
-1.35881

>  <SCORE.INTRA.norm>
-0.0844578

>  <SCORE.RESTR>
0.00688433

>  <SCORE.RESTR.CAVITY>
0.00688433

>  <SCORE.RESTR.norm>
0.000264782

>  <SCORE.SYSTEM>
0

>  <SCORE.SYSTEM.CONST>
0

>  <SCORE.SYSTEM.DIHEDRAL>
0

>  <SCORE.SYSTEM.SOLV>
0

>  <SCORE.SYSTEM.norm>
0

>  <SCORE.heavy>
26

>  <SCORE.norm>
-0.264739

>  <RMSD>
16.209

$$$$
ligand
 OpenBabel11021811483D
libRbt.so/2013.1/901 2013/11/27
 26 28  0  0  0  0  0  0  0  0999 V2000
   30.3679   20.5918   19.5166 N   0  0  0  0  0  0  0  0  0  0  0  0
   31.4379   19.6132   19.3685 C   0  0  2  0  0  0  0  0  0  0  0  0
   31.7574   18.9439   20.7004 C   0  0  0  0  0  0  0  0  0  0  0  0
   31.4599   17.7678   20.9057 O   0  0  0  0  0  0  0  0  0  0  0  0
   32.6891   20.2721   18.8015 C   0  0  0  0  0  0  0  0  0  0  0  0
   33.7713   19.2891   18.3746 C   0  0  0  0  0  0  0  0  0  0  0  0
   35.3579   20.1000   18.0528 S   0  0  0  0  0  0  0  0  0  0  0  0
   36.1010   19.2031   19.4390 C   0  0  0  0  0  0  0  0  0  0  0  0
   36.5450   20.1269   20.5672 C   0  0  1  0  0  0  0  0  0  0  0  0
   37.4591   21.0887   20.0728 O   0  0  0  0  0  0  0  0  0  0  0  0
   35.3681   20.8734   21.1738 C   0  0  1  0  0  0  0  0  0  0  0  0
   35.2083   20.5040   22.5230 O   0  0  0  0  0  0  0  0  0  0  0  0
   35.7164   22.3441   21.0760 C   0  0  1  0  0  0  0  0  0  0  0  0
   35.7158   22.9279   22.3581 O   0  0  0  0  0  0  0  0  0  0  0  0
   37.1111   22.3999   20.4766 C   0  0  2  0  0  0  0  0  0  0  0  0
   32.3215   19.5641   21.6026 O   0  0  0  0  0  0  0  0  0  0  0  0
   34.4198   24.2766   16.3775 N   0  0  0  0  0  0  0  0  0  0  0  0
   34.0072   23.3505   17.3143 C   0  0  0  0  0  0  0  0  0  0  0  0
   34.8552   22.9694   18.3353 N   0  0  0  0  0  0  0  0  0  0  0  0
   36.0993   23.4998   18.4251 C   0  0  0  0  0  0  0  0  0  0  0  0
   36.5327   24.4321   17.4922 C   0  0  0  0  0  0  0  0  0  0  0  0
   35.6850   24.8217   16.4622 C   0  0  0  0  0  0  0  0  0  0  0  0
   36.0898   25.7132   15.5625 N   0  0  0  0  0  0  0  0  0  0  0  0
   37.7940   24.7896   17.8168 N   0  0  0  0  0  0  0  0  0  0  0  0
   38.1673   24.1102   18.9256 C   0  0  0  0  0  0  0  0  0  0  0  0
   37.1268   23.3065   19.3145 N   0  0  0  0  0  0  0  0  0  0  0  0
  2  1  1  1  0  0  0
  2  3  1  0  0  0  0
  2  5  1  0  0  0  0
  3  4  1  0  0  0  0
  3 16  1  0  0  0  0
  5  6  1  0  0  0  0
  6  7  1  0  0  0  0
  7  8  1  0  0  0  0
  9  8  1  6  0  0  0
  9 10  1  0  0  0  0
  9 11  1  0  0  0  0
 10 15  1  0  0  0  0
 11 12  1  1  0  0  0
 11 13  1  0  0  0  0
 13 14  1  1  0  0  0
 13 15  1  0  0  0  0
 15 26  1  6  0  0  0
 17 18  2  0  0  0  0
 17 22  1  0  0  0  0
 18 19  1  0  0  0  0
 19 20  2  0  0  0  0
 20 21  1  0  0  0  0
 20 26  1  0  0  0  0
 21 22  2  0  0  0  0
 21 24  1  0  0  0  0
 22 23  1  0  0  0  0
 24 25  2  0  0  0  0
 25 26  1  0  0  0  0
M  END
>  <CHROM.1>
109.12340833,-169.40219678,-167.44561002,115.39561767,-115.31666200,-57.13057285
84.55306417,34.95578715,21.64803832,19.28785241,2.28044485,0.48272704,2.25067592

>  <Name>
ligand

>  <RI>
0

>  <Rbt.Current_Directory>
/home/itssahil/PROJECTS/Mol_Feturizer/New_Systems/rnas/3NPQ

>  <Rbt.Executable>
rbdock ($Id: //depot/dev/client3/rdock/2013.1/src/exe/rbdock.cxx#4 $)

>  <Rbt.Library>
libRbt.so (2013.1, Build901 2013/11/27)

>  <Rbt.Parameter_File>
/export/apps/rDock/src/rDock_2013.1_src/data/scripts/dock_solv.prm

>  <Rbt.Receptor>
prm/blind_docking_100.prm

>  <SCORE>
-4.10158

>  <SCORE.INTER>
-1.43797

>  <SCORE.INTER.CONST>
1

>  <SCORE.INTER.POLAR>
0

>  <SCORE.INTER.ROT>
7

>  <SCORE.INTER.SOLV>
15.3829

>  <SCORE.INTER.VDW>
-14.353

>  <SCORE.INTER.norm>
-0.0553065

>  <SCORE.INTRA>
-2.66361

>  <SCORE.INTRA.DIHEDRAL>
1.45071

>  <SCORE.INTRA.DIHEDRAL.0>
6.97628

>  <SCORE.INTRA.POLAR>
0

>  <SCORE.INTRA.POLAR.0>
0

>  <SCORE.INTRA.REPUL>
0

>  <SCORE.INTRA.REPUL.0>
0

>  <SCORE.INTRA.SOLV>
-0.402145

>  <SCORE.INTRA.SOLV.lig_0>
-49.8243

>  <SCORE.INTRA.VDW>
-3.18789

>  <SCORE.INTRA.VDW.0>
-1.35881

>  <SCORE.INTRA.norm>
-0.102447

>  <SCORE.RESTR>
0

>  <SCORE.RESTR.CAVITY>
0

>  <SCORE.RESTR.norm>
0

>  <SCORE.SYSTEM>
0

>  <SCORE.SYSTEM.CONST>
0

>  <SCORE.SYSTEM.DIHEDRAL>
0

>  <SCORE.SYSTEM.SOLV>
0

>  <SCORE.SYSTEM.norm>
0

>  <SCORE.heavy>
26

>  <SCORE.norm>
-0.157753

>  <RMSD>
16.398

$$$$
ligand
 OpenBabel11021811483D
libRbt.so/2013.1/901 2013/11/27
 26 28  0  0  0  0  0  0  0  0999 V2000
   35.8564   23.6891   15.7908 N   0  0  0  0  0  0  0  0  0  0  0  0
   35.4545   22.7789   16.8560 C   0  0  2  0  0  0  0  0  0  0  0  0
   35.0405   21.4241   16.2929 C   0  0  0  0  0  0  0  0  0  0  0  0
   35.5776   20.3868   16.6794 O   0  0  0  0  0  0  0  0  0  0  0  0
   34.3129   23.3782   17.6676 C   0  0  0  0  0  0  0  0  0  0  0  0
   34.6605   24.6921   18.3550 C   0  0  0  0  0  0  0  0  0  0  0  0
   36.1236   24.5562   19.4130 S   0  0  0  0  0  0  0  0  0  0  0  0
   35.1669   23.6029   20.6189 C   0  0  0  0  0  0  0  0  0  0  0  0
   35.8385   22.2874   20.9952 C   0  0  1  0  0  0  0  0  0  0  0  0
   34.9713   21.5171   21.8073 O   0  0  0  0  0  0  0  0  0  0  0  0
   36.1783   21.4617   19.7651 C   0  0  1  0  0  0  0  0  0  0  0  0
   37.5734   21.3013   19.6639 O   0  0  0  0  0  0  0  0  0  0  0  0
   35.5148   20.1163   19.9738 C   0  0  1  0  0  0  0  0  0  0  0  0
   36.4798   19.0906   19.9417 O   0  0  0  0  0  0  0  0  0  0  0  0
   34.8677   20.1828   21.3465 C   0  0  2  0  0  0  0  0  0  0  0  0
   34.1583   21.3353   15.4381 O   0  0  0  0  0  0  0  0  0  0  0  0
   30.4034   20.5594   18.6088 N   0  0  0  0  0  0  0  0  0  0  0  0
   31.6251   21.1373   18.3279 C   0  0  0  0  0  0  0  0  0  0  0  0
   32.7021   20.9284   19.1665 N   0  0  0  0  0  0  0  0  0  0  0  0
   32.5682   20.1562   20.2723 C   0  0  0  0  0  0  0  0  0  0  0  0
   31.3475   19.5669   20.5720 C   0  0  0  0  0  0  0  0  0  0  0  0
   30.2590   19.7714   19.7327 C   0  0  0  0  0  0  0  0  0  0  0  0
   29.0847   19.2127   20.0104 N   0  0  0  0  0  0  0  0  0  0  0  0
   31.4959   18.8607   21.7136 N   0  0  0  0  0  0  0  0  0  0  0  0
   32.7731   18.9881   22.1414 C   0  0  0  0  0  0  0  0  0  0  0  0
   33.4502   19.7885   21.2577 N   0  0  0  0  0  0  0  0  0  0  0  0
  2  1  1  6  0  0  0
  2  3  1  0  0  0  0
  2  5  1  0  0  0  0
  3  4  1  0  0  0  0
  3 16  1  0  0  0  0
  5  6  1  0  0  0  0
  6  7  1  0  0  0  0
  7  8  1  0  0  0  0
  9  8  1  6  0  0  0
  9 10  1  0  0  0  0
  9 11  1  0  0  0  0
 10 15  1  0  0  0  0
 11 12  1  1  0  0  0
 11 13  1  0  0  0  0
 13 14  1  1  0  0  0
 13 15  1  0  0  0  0
 15 26  1  6  0  0  0
 17 18  2  0  0  0  0
 17 22  1  0  0  0  0
 18 19  1  0  0  0  0
 19 20  2  0  0  0  0
 20 21  1  0  0  0  0
 20 26  1  0  0  0  0
 21 22  2  0  0  0  0
 21 24  1  0  0  0  0
 22 23  1  0  0  0  0
 24 25  2  0  0  0  0
 25 26  1  0  0  0  0
M  END
>  <CHROM.1>
124.26757357,-60.95973630,-55.25142844,-72.68401859,127.72406175,-172.81747367
76.79209942,34.16407934,21.36380413,19.29769945,0.63155002,-0.44970518,-1.12951772

>  <Name>
ligand

>  <RI>
0

>  <Rbt.Current_Directory>
/home/itssahil/PROJECTS/Mol_Feturizer/New_Systems/rnas/3NPQ

>  <Rbt.Executable>
rbdock ($Id: //depot/dev/client3/rdock/2013.1/src/exe/rbdock.cxx#4 $)

>  <Rbt.Library>
libRbt.so (2013.1, Build901 2013/11/27)

>  <Rbt.Parameter_File>
/export/apps/rDock/src/rDock_2013.1_src/data/scripts/dock_solv.prm

>  <Rbt.Receptor>
prm/blind_docking_100.prm

>  <SCORE>
-11.1364

>  <SCORE.INTER>
-8.14224

>  <SCORE.INTER.CONST>
1

>  <SCORE.INTER.POLAR>
0

>  <SCORE.INTER.ROT>
7

>  <SCORE.INTER.SOLV>
9.50293

>  <SCORE.INTER.VDW>
-16.8625

>  <SCORE.INTER.norm>
-0.313163

>  <SCORE.INTRA>
-2.99418

>  <SCORE.INTRA.DIHEDRAL>
-1.47344

>  <SCORE.INTRA.DIHEDRAL.0>
6.97628

>  <SCORE.INTRA.POLAR>
0

>  <SCORE.INTRA.POLAR.0>
0

>  <SCORE.INTRA.REPUL>
0

>  <SCORE.INTRA.REPUL.0>
0

>  <SCORE.INTRA.SOLV>
1.05024

>  <SCORE.INTRA.SOLV.lig_0>
-49.8243

>  <SCORE.INTRA.VDW>
-2.78258

>  <SCORE.INTRA.VDW.0>
-1.35881

>  <SCORE.INTRA.norm>
-0.115161

>  <SCORE.RESTR>
0

>  <SCORE.RESTR.CAVITY>
0

>  <SCORE.RESTR.norm>
0

>  <SCORE.SYSTEM>
0

>  <SCORE.SYSTEM.CONST>
0

>  <SCORE.SYSTEM.DIHEDRAL>
0

>  <SCORE.SYSTEM.SOLV>
0

>  <SCORE.SYSTEM.norm>
0

>  <SCORE.heavy>
26

>  <SCORE.norm>
-0.428324

>  <RMSD>
16.405

$$$$
ligand
 OpenBabel11021811483D
libRbt.so/2013.1/901 2013/11/27
 26 28  0  0  0  0  0  0  0  0999 V2000
   39.5326   24.7061   16.2072 N   0  0  0  0  0  0  0  0  0  0  0  0
   38.8431   24.0222   17.2941 C   0  0  2  0  0  0  0  0  0  0  0  0
   39.6737   22.8593   17.8250 C   0  0  0  0  0  0  0  0  0  0  0  0
   40.0716   22.8447   18.9892 O   0  0  0  0  0  0  0  0  0  0  0  0
   37.4805   23.5225   16.8310 C   0  0  0  0  0  0  0  0  0  0  0  0
   36.5339   23.1541   17.9659 C   0  0  0  0  0  0  0  0  0  0  0  0
   37.0619   21.6683   18.8557 S   0  0  0  0  0  0  0  0  0  0  0  0
   37.1056   22.6069   20.4034 C   0  0  0  0  0  0  0  0  0  0  0  0
   35.9000   22.3296   21.2939 C   0  0  1  0  0  0  0  0  0  0  0  0
   34.7035   22.5781   20.5786 O   0  0  0  0  0  0  0  0  0  0  0  0
   35.8707   20.8832   21.7600 C   0  0  1  0  0  0  0  0  0  0  0  0
   35.9979   20.8267   23.1610 O   0  0  0  0  0  0  0  0  0  0  0  0
   34.5208   20.3403   21.3390 C   0  0  1  0  0  0  0  0  0  0  0  0
   33.8124   19.8782   22.4654 O   0  0  0  0  0  0  0  0  0  0  0  0
   33.7863   21.5072   20.7016 C   0  0  2  0  0  0  0  0  0  0  0  0
   39.9658   21.9064   17.1015 O   0  0  0  0  0  0  0  0  0  0  0  0
   29.6204   19.9579   17.9066 N   0  0  0  0  0  0  0  0  0  0  0  0
   29.6823   20.2397   19.2565 C   0  0  0  0  0  0  0  0  0  0  0  0
   30.8738   20.6383   19.8294 N   0  0  0  0  0  0  0  0  0  0  0  0
   31.9918   20.7545   19.0721 C   0  0  0  0  0  0  0  0  0  0  0  0
   31.9497   20.4751   17.7129 C   0  0  0  0  0  0  0  0  0  0  0  0
   30.7544   20.0743   17.1284 C   0  0  0  0  0  0  0  0  0  0  0  0
   30.7025   19.8031   15.8277 N   0  0  0  0  0  0  0  0  0  0  0  0
   33.1876   20.6710   17.2097 N   0  0  0  0  0  0  0  0  0  0  0  0
   34.0073   21.0650   18.2112 C   0  0  0  0  0  0  0  0  0  0  0  0
   33.2800   21.1215   19.3721 N   0  0  0  0  0  0  0  0  0  0  0  0
  2  1  1  6  0  0  0
  2  3  1  0  0  0  0
  2  5  1  0  0  0  0
  3  4  1  0  0  0  0
  3 16  1  0  0  0  0
  5  6  1  0  0  0  0
  6  7  1  0  0  0  0
  7  8  1  0  0  0  0
  9  8  1  6  0  0  0
  9 10  1  0  0  0  0
  9 11  1  0  0  0  0
 10 15  1  0  0  0  0
 11 12  1  1  0  0  0
 11 13  1  0  0  0  0
 13 14  1  1  0  0  0
 13 15  1  0  0  0  0
 15 26  1  6  0  0  0
 17 18  2  0  0  0  0
 17 22  1  0  0  0  0
 18 19  1  0  0  0  0
 19 20  2  0  0  0  0
 20 21  1  0  0  0  0
 20 26  1  0  0  0  0
 21 22  2  0  0  0  0
 21 24  1  0  0  0  0
 22 23  1  0  0  0  0
 24 25  2  0  0  0  0
 25 26  1  0  0  0  0
M  END
>  <CHROM.1>
117.79131639,-163.57871694,-69.31404462,122.47643224,102.84179958,-55.35146254
-140.98463889,35.08808312,21.57932299,19.04891326,0.13767238,-0.32570758
-1.39643402

>  <Name>
ligand

>  <RI>
0

>  <Rbt.Current_Directory>
/home/itssahil/PROJECTS/Mol_Feturizer/New_Systems/rnas/3NPQ

>  <Rbt.Executable>
rbdock ($Id: //depot/dev/client3/rdock/2013.1/src/exe/rbdock.cxx#4 $)

>  <Rbt.Library>
libRbt.so (2013.1, Build901 2013/11/27)

>  <Rbt.Parameter_File>
/export/apps/rDock/src/rDock_2013.1_src/data/scripts/dock_solv.prm

>  <Rbt.Receptor>
prm/blind_docking_80.prm

>  <SCORE>
-9.09665

>  <SCORE.INTER>
-7.12601

>  <SCORE.INTER.CONST>
1

>  <SCORE.INTER.POLAR>
0

>  <SCORE.INTER.ROT>
7

>  <SCORE.INTER.SOLV>
17.2502

>  <SCORE.INTER.VDW>
-18.7674

>  <SCORE.INTER.norm>
-0.274077

>  <SCORE.INTRA>
-1.97064

>  <SCORE.INTRA.DIHEDRAL>
1.42136

>  <SCORE.INTRA.DIHEDRAL.0>
6.97628

>  <SCORE.INTRA.POLAR>
0

>  <SCORE.INTRA.POLAR.0>
0

>  <SCORE.INTRA.REPUL>
0

>  <SCORE.INTRA.REPUL.0>
0

>  <SCORE.INTRA.SOLV>
-0.384163

>  <SCORE.INTRA.SOLV.lig_0>
-49.8243

>  <SCORE.INTRA.VDW>
-2.48924

>  <SCORE.INTRA.VDW.0>
-1.35881

>  <SCORE.INTRA.norm>
-0.0757938

>  <SCORE.RESTR>
0

>  <SCORE.RESTR.CAVITY>
0

>  <SCORE.RESTR.norm>
0

>  <SCORE.SYSTEM>
0

>  <SCORE.SYSTEM.CONST>
0

>  <SCORE.SYSTEM.DIHEDRAL>
0

>  <SCORE.SYSTEM.SOLV>
0

>  <SCORE.SYSTEM.norm>
0

>  <SCORE.heavy>
26

>  <SCORE.norm>
-0.349871

>  <RMSD>
16.461

$$$$
ligand
 OpenBabel11021811483D
libRbt.so/2013.1/901 2013/11/27
 26 28  0  0  0  0  0  0  0  0999 V2000
   30.5632   17.7184   20.6922 N   0  0  0  0  0  0  0  0  0  0  0  0
   32.0047   17.9160   20.6048 C   0  0  2  0  0  0  0  0  0  0  0  0
   32.4040   19.2863   21.1404 C   0  0  0  0  0  0  0  0  0  0  0  0
   32.0914   20.3155   20.5431 O   0  0  0  0  0  0  0  0  0  0  0  0
   32.4786   17.7594   19.1653 C   0  0  0  0  0  0  0  0  0  0  0  0
   33.9923   17.7956   19.0009 C   0  0  0  0  0  0  0  0  0  0  0  0
   34.6556   19.4797   19.0474 S   0  0  0  0  0  0  0  0  0  0  0  0
   36.0194   18.9169   20.0969 C   0  0  0  0  0  0  0  0  0  0  0  0
   36.6860   20.0574   20.8574 C   0  0  1  0  0  0  0  0  0  0  0  0
   37.2277   20.9950   19.9450 O   0  0  0  0  0  0  0  0  0  0  0  0
   35.6942   20.7921   21.7445 C   0  0  1  0  0  0  0  0  0  0  0  0
   36.0608   20.6497   23.0964 O   0  0  0  0  0  0  0  0  0  0  0  0
   35.7735   22.2484   21.3358 C   0  0  1  0  0  0  0  0  0  0  0  0
   36.1286   23.0431   22.4433 O   0  0  0  0  0  0  0  0  0  0  0  0
   36.8552   22.3209   20.2717 C   0  0  2  0  0  0  0  0  0  0  0  0
   33.0486   19.3960   22.1841 O   0  0  0  0  0  0  0  0  0  0  0  0
   37.8713   25.8077   16.4800 N   0  0  0  0  0  0  0  0  0  0  0  0
   38.6971   25.4069   17.5110 C   0  0  0  0  0  0  0  0  0  0  0  0
   38.2610   24.4698   18.4266 N   0  0  0  0  0  0  0  0  0  0  0  0
   37.0190   23.9374   18.3218 C   0  0  0  0  0  0  0  0  0  0  0  0
   36.1736   24.3282   17.2923 C   0  0  0  0  0  0  0  0  0  0  0  0
   36.6052   25.2701   16.3661 C   0  0  0  0  0  0  0  0  0  0  0  0
   35.8037   25.6526   15.3764 N   0  0  0  0  0  0  0  0  0  0  0  0
   35.0142   23.6485   17.4257 N   0  0  0  0  0  0  0  0  0  0  0  0
   35.1045   22.8420   18.5082 C   0  0  0  0  0  0  0  0  0  0  0  0
   36.3419   23.0102   19.0741 N   0  0  0  0  0  0  0  0  0  0  0  0
  2  1  1  6  0  0  0
  2  3  1  0  0  0  0
  2  5  1  0  0  0  0
  3  4  1  0  0  0  0
  3 16  1  0  0  0  0
  5  6  1  0  0  0  0
  6  7  1  0  0  0  0
  7  8  1  0  0  0  0
  9  8  1  6  0  0  0
  9 10  1  0  0  0  0
  9 11  1  0  0  0  0
 10 15  1  0  0  0  0
 11 12  1  1  0  0  0
 11 13  1  0  0  0  0
 13 14  1  1  0  0  0
 13 15  1  0  0  0  0
 15 26  1  6  0  0  0
 17 18  2  0  0  0  0
 17 22  1  0  0  0  0
 18 19  1  0  0  0  0
 19 20  2  0  0  0  0
 20 21  1  0  0  0  0
 20 26  1  0  0  0  0
 21 22  2  0  0  0  0
 21 24  1  0  0  0  0
 22 23  1  0  0  0  0
 24 25  2  0  0  0  0
 25 26  1  0  0  0  0
M  END
>  <CHROM.1>
-68.43789783,-173.54079940,-78.87587361,137.23009972,-160.26560037,-60.80688439
-103.31240882,35.26373706,21.48425594,19.55582151,2.30323083,0.70194647,2.12030170

>  <Name>
ligand

>  <RI>
0

>  <Rbt.Current_Directory>
/home/itssahil/PROJECTS/Mol_Feturizer/New_Systems/rnas/3NPQ

>  <Rbt.Executable>
rbdock ($Id: //depot/dev/client3/rdock/2013.1/src/exe/rbdock.cxx#4 $)

>  <Rbt.Library>
libRbt.so (2013.1, Build901 2013/11/27)

>  <Rbt.Parameter_File>
/export/apps/rDock/src/rDock_2013.1_src/data/scripts/dock_solv.prm

>  <Rbt.Receptor>
prm/blind_docking_100.prm

>  <SCORE>
-7.1604

>  <SCORE.INTER>
-4.36191

>  <SCORE.INTER.CONST>
1

>  <SCORE.INTER.POLAR>
0

>  <SCORE.INTER.ROT>
7

>  <SCORE.INTER.SOLV>
13.7177

>  <SCORE.INTER.VDW>
-15.7472

>  <SCORE.INTER.norm>
-0.167766

>  <SCORE.INTRA>
-2.79849

>  <SCORE.INTRA.DIHEDRAL>
-0.382152

>  <SCORE.INTRA.DIHEDRAL.0>
6.97628

>  <SCORE.INTRA.POLAR>
0

>  <SCORE.INTRA.POLAR.0>
0

>  <SCORE.INTRA.REPUL>
0

>  <SCORE.INTRA.REPUL.0>
0

>  <SCORE.INTRA.SOLV>
-0.428687

>  <SCORE.INTRA.SOLV.lig_0>
-49.8243

>  <SCORE.INTRA.VDW>
-2.39307

>  <SCORE.INTRA.VDW.0>
-1.35881

>  <SCORE.INTRA.norm>
-0.107634

>  <SCORE.RESTR>
0

>  <SCORE.RESTR.CAVITY>
0

>  <SCORE.RESTR.norm>
0

>  <SCORE.SYSTEM>
0

>  <SCORE.SYSTEM.CONST>
0

>  <SCORE.SYSTEM.DIHEDRAL>
0

>  <SCORE.SYSTEM.SOLV>
0

>  <SCORE.SYSTEM.norm>
0

>  <SCORE.heavy>
26

>  <SCORE.norm>
-0.2754

>  <RMSD>
16.469

$$$$
ligand
 OpenBabel11021811483D
libRbt.so/2013.1/901 2013/11/27
 26 28  0  0  0  0  0  0  0  0999 V2000
   38.7585   22.0579   18.3450 N   0  0  0  0  0  0  0  0  0  0  0  0
   37.5836   21.3409   17.8653 C   0  0  2  0  0  0  0  0  0  0  0  0
   36.4811   22.3090   17.4517 C   0  0  0  0  0  0  0  0  0  0  0  0
   35.5016   21.9196   16.8170 O   0  0  0  0  0  0  0  0  0  0  0  0
   37.0669   20.3869   18.9349 C   0  0  0  0  0  0  0  0  0  0  0  0
   35.9297   19.4870   18.4696 C   0  0  0  0  0  0  0  0  0  0  0  0
   35.4254   18.2947   19.7356 S   0  0  0  0  0  0  0  0  0  0  0  0
   34.1227   17.6776   18.6400 C   0  0  0  0  0  0  0  0  0  0  0  0
   32.7993   18.4099   18.8287 C   0  0  1  0  0  0  0  0  0  0  0  0
   32.9155   19.3560   19.8758 O   0  0  0  0  0  0  0  0  0  0  0  0
   32.3904   19.1578   17.5702 C   0  0  1  0  0  0  0  0  0  0  0  0
   31.1870   18.6286   17.0660 O   0  0  0  0  0  0  0  0  0  0  0  0
   32.1874   20.5981   17.9926 C   0  0  1  0  0  0  0  0  0  0  0  0
   30.8721   21.0078   17.6987 O   0  0  0  0  0  0  0  0  0  0  0  0
   32.4209   20.6258   19.4933 C   0  0  2  0  0  0  0  0  0  0  0  0
   36.5441   23.5039   17.7432 O   0  0  0  0  0  0  0  0  0  0  0  0
   36.4779   21.9695   22.5433 N   0  0  0  0  0  0  0  0  0  0  0  0
   35.7726   20.7829   22.5395 C   0  0  0  0  0  0  0  0  0  0  0  0
   34.7240   20.6004   21.6597 N   0  0  0  0  0  0  0  0  0  0  0  0
   34.3779   21.5846   20.7946 C   0  0  0  0  0  0  0  0  0  0  0  0
   35.0747   22.7852   20.7837 C   0  0  0  0  0  0  0  0  0  0  0  0
   36.1318   22.9765   21.6652 C   0  0  0  0  0  0  0  0  0  0  0  0
   36.8058   24.1228   21.6643 N   0  0  0  0  0  0  0  0  0  0  0  0
   34.5264   23.5756   19.8356 N   0  0  0  0  0  0  0  0  0  0  0  0
   33.5055   22.9086   19.2499 C   0  0  0  0  0  0  0  0  0  0  0  0
   33.4013   21.6725   19.8340 N   0  0  0  0  0  0  0  0  0  0  0  0
  2  1  1  1  0  0  0
  2  3  1  0  0  0  0
  2  5  1  0  0  0  0
  3  4  1  0  0  0  0
  3 16  1  0  0  0  0
  5  6  1  0  0  0  0
  6  7  1  0  0  0  0
  7  8  1  0  0  0  0
  9  8  1  6  0  0  0
  9 10  1  0  0  0  0
  9 11  1  0  0  0  0
 10 15  1  0  0  0  0
 11 12  1  1  0  0  0
 11 13  1  0  0  0  0
 13 14  1  1  0  0  0
 13 15  1  0  0  0  0
 15 26  1  6  0  0  0
 17 18  2  0  0  0  0
 17 22  1  0  0  0  0
 18 19  1  0  0  0  0
 19 20  2  0  0  0  0
 20 21  1  0  0  0  0
 20 26  1  0  0  0  0
 21 22  2  0  0  0  0
 21 24  1  0  0  0  0
 22 23  1  0  0  0  0
 24 25  2  0  0  0  0
 25 26  1  0  0  0  0
M  END
>  <CHROM.1>
167.81832244,-173.83559236,176.06771426,177.69789691,-90.70484730,-2.87598136
-23.34969468,34.72929209,20.90517216,19.30746934,-0.51446470,-0.55371875
-1.86313984

>  <Name>
ligand

>  <RI>
0

>  <Rbt.Current_Directory>
/home/itssahil/PROJECTS/Mol_Feturizer/New_Systems/rnas/3NPQ

>  <Rbt.Executable>
rbdock ($Id: //depot/dev/client3/rdock/2013.1/src/exe/rbdock.cxx#4 $)

>  <Rbt.Library>
libRbt.so (2013.1, Build901 2013/11/27)

>  <Rbt.Parameter_File>
/export/apps/rDock/src/rDock_2013.1_src/data/scripts/dock_solv.prm

>  <Rbt.Receptor>
prm/blind_docking_100.prm

>  <SCORE>
-9.22858

>  <SCORE.INTER>
-6.13933

>  <SCORE.INTER.CONST>
1

>  <SCORE.INTER.POLAR>
0

>  <SCORE.INTER.ROT>
7

>  <SCORE.INTER.SOLV>
11.2181

>  <SCORE.INTER.VDW>
-16.0989

>  <SCORE.INTER.norm>
-0.236128

>  <SCORE.INTRA>
-3.08925

>  <SCORE.INTRA.DIHEDRAL>
2.39488

>  <SCORE.INTRA.DIHEDRAL.0>
6.97628

>  <SCORE.INTRA.POLAR>
0

>  <SCORE.INTRA.POLAR.0>
0

>  <SCORE.INTRA.REPUL>
0

>  <SCORE.INTRA.REPUL.0>
0

>  <SCORE.INTRA.SOLV>
-0.317585

>  <SCORE.INTRA.SOLV.lig_0>
-49.8243

>  <SCORE.INTRA.VDW>
-4.1279

>  <SCORE.INTRA.VDW.0>
-1.35881

>  <SCORE.INTRA.norm>
-0.118817

>  <SCORE.RESTR>
0

>  <SCORE.RESTR.CAVITY>
0

>  <SCORE.RESTR.norm>
0

>  <SCORE.SYSTEM>
0

>  <SCORE.SYSTEM.CONST>
0

>  <SCORE.SYSTEM.DIHEDRAL>
0

>  <SCORE.SYSTEM.SOLV>
0

>  <SCORE.SYSTEM.norm>
0

>  <SCORE.heavy>
26

>  <SCORE.norm>
-0.354945

>  <RMSD>
16.489

$$$$
ligand
 OpenBabel11021811483D
libRbt.so/2013.1/901 2013/11/27
 26 28  0  0  0  0  0  0  0  0999 V2000
   40.7506   23.1052   16.1568 N   0  0  0  0  0  0  0  0  0  0  0  0
   39.4302   22.9795   16.7613 C   0  0  2  0  0  0  0  0  0  0  0  0
   38.7117   24.3236   16.7944 C   0  0  0  0  0  0  0  0  0  0  0  0
   39.2558   25.3211   17.2666 O   0  0  0  0  0  0  0  0  0  0  0  0
   39.5403   22.4111   18.1705 C   0  0  0  0  0  0  0  0  0  0  0  0
   39.7184   20.8993   18.2199 C   0  0  0  0  0  0  0  0  0  0  0  0
   38.2079   20.0073   17.7717 S   0  0  0  0  0  0  0  0  0  0  0  0
   37.5932   20.1912   19.4648 C   0  0  0  0  0  0  0  0  0  0  0  0
   36.9603   21.5549   19.7162 C   0  0  1  0  0  0  0  0  0  0  0  0
   35.6127   21.5497   19.2815 O   0  0  0  0  0  0  0  0  0  0  0  0
   36.9704   21.9116   21.1937 C   0  0  1  0  0  0  0  0  0  0  0  0
   37.7643   23.0547   21.4070 O   0  0  0  0  0  0  0  0  0  0  0  0
   35.5299   22.2046   21.5583 C   0  0  1  0  0  0  0  0  0  0  0  0
   35.4156   23.5141   22.0647 O   0  0  0  0  0  0  0  0  0  0  0  0
   34.7413   22.0727   20.2666 C   0  0  2  0  0  0  0  0  0  0  0  0
   37.5698   24.4435   16.3488 O   0  0  0  0  0  0  0  0  0  0  0  0
   30.3131   20.1370   18.2145 N   0  0  0  0  0  0  0  0  0  0  0  0
   31.1776   21.0578   17.6575 C   0  0  0  0  0  0  0  0  0  0  0  0
   32.3061   21.4568   18.3460 N   0  0  0  0  0  0  0  0  0  0  0  0
   32.5732   20.9494   19.5741 C   0  0  0  0  0  0  0  0  0  0  0  0
   31.7155   20.0228   20.1512 C   0  0  0  0  0  0  0  0  0  0  0  0
   30.5782   19.6153   19.4645 C   0  0  0  0  0  0  0  0  0  0  0  0
   29.7491   18.7290   20.0079 N   0  0  0  0  0  0  0  0  0  0  0  0
   32.2166   19.6891   21.3602 N   0  0  0  0  0  0  0  0  0  0  0  0
   33.3635   20.3779   21.5612 C   0  0  0  0  0  0  0  0  0  0  0  0
   33.5976   21.1636   20.4622 N   0  0  0  0  0  0  0  0  0  0  0  0
  2  1  1  1  0  0  0
  2  3  1  0  0  0  0
  2  5  1  0  0  0  0
  3  4  1  0  0  0  0
  3 16  1  0  0  0  0
  5  6  1  0  0  0  0
  6  7  1  0  0  0  0
  7  8  1  0  0  0  0
  9  8  1  1  0  0  0
  9 10  1  0  0  0  0
  9 11  1  0  0  0  0
 10 15  1  0  0  0  0
 11 12  1  6  0  0  0
 11 13  1  0  0  0  0
 13 14  1  6  0  0  0
 13 15  1  0  0  0  0
 15 26  1  1  0  0  0
 17 18  2  0  0  0  0
 17 22  1  0  0  0  0
 18 19  1  0  0  0  0
 19 20  2  0  0  0  0
 20 21  1  0  0  0  0
 20 26  1  0  0  0  0
 21 22  2  0  0  0  0
 21 24  1  0  0  0  0
 22 23  1  0  0  0  0
 24 25  2  0  0  0  0
 25 26  1  0  0  0  0
M  END
>  <CHROM.1>
-51.63104375,-79.88736773,-71.88097410,-83.10349301,81.53284420,83.63704051
-70.75220625,35.67579721,21.62858397,19.12551590,0.26613741,-0.34427263,-1.57764564

>  <Name>
ligand

>  <RI>
0

>  <Rbt.Current_Directory>
/home/itssahil/PROJECTS/Mol_Feturizer/New_Systems/rnas/3NPQ

>  <Rbt.Executable>
rbdock ($Id: //depot/dev/client3/rdock/2013.1/src/exe/rbdock.cxx#4 $)

>  <Rbt.Library>
libRbt.so (2013.1, Build901 2013/11/27)

>  <Rbt.Parameter_File>
/export/apps/rDock/src/rDock_2013.1_src/data/scripts/dock_solv.prm

>  <Rbt.Receptor>
prm/blind_docking_80.prm

>  <SCORE>
-8.73569

>  <SCORE.INTER>
-8.93819

>  <SCORE.INTER.CONST>
1

>  <SCORE.INTER.POLAR>
0

>  <SCORE.INTER.ROT>
7

>  <SCORE.INTER.SOLV>
12.0477

>  <SCORE.INTER.VDW>
-18.2414

>  <SCORE.INTER.norm>
-0.343777

>  <SCORE.INTRA>
-0.143096

>  <SCORE.INTRA.DIHEDRAL>
0.914107

>  <SCORE.INTRA.DIHEDRAL.0>
6.97628

>  <SCORE.INTRA.POLAR>
0

>  <SCORE.INTRA.POLAR.0>
0

>  <SCORE.INTRA.REPUL>
0

>  <SCORE.INTRA.REPUL.0>
0

>  <SCORE.INTRA.SOLV>
0.0871792

>  <SCORE.INTRA.SOLV.lig_0>
-49.8243

>  <SCORE.INTRA.VDW>
-0.643739

>  <SCORE.INTRA.VDW.0>
-1.35881

>  <SCORE.INTRA.norm>
-0.00550369

>  <SCORE.RESTR>
0.345598

>  <SCORE.RESTR.CAVITY>
0.345598

>  <SCORE.RESTR.norm>
0.0132922

>  <SCORE.SYSTEM>
0

>  <SCORE.SYSTEM.CONST>
0

>  <SCORE.SYSTEM.DIHEDRAL>
0

>  <SCORE.SYSTEM.SOLV>
0

>  <SCORE.SYSTEM.norm>
0

>  <SCORE.heavy>
26

>  <SCORE.norm>
-0.335988

>  <RMSD>
16.495

$$$$
ligand
 OpenBabel11021811483D
libRbt.so/2013.1/901 2013/11/27
 26 28  0  0  0  0  0  0  0  0999 V2000
   37.3866   25.0733   17.9401 N   0  0  0  0  0  0  0  0  0  0  0  0
   36.4028   24.1043   17.4734 C   0  0  2  0  0  0  0  0  0  0  0  0
   36.7536   23.5938   16.0805 C   0  0  0  0  0  0  0  0  0  0  0  0
   37.9033   23.6696   15.6490 O   0  0  0  0  0  0  0  0  0  0  0  0
   35.0088   24.7189   17.4689 C   0  0  0  0  0  0  0  0  0  0  0  0
   34.4758   25.0632   18.8535 C   0  0  0  0  0  0  0  0  0  0  0  0
   33.9350   23.6000   19.7728 S   0  0  0  0  0  0  0  0  0  0  0  0
   35.4266   23.6874   20.7954 C   0  0  0  0  0  0  0  0  0  0  0  0
   36.0714   22.3235   21.0132 C   0  0  1  0  0  0  0  0  0  0  0  0
   35.2143   21.5014   21.7843 O   0  0  0  0  0  0  0  0  0  0  0  0
   36.3346   21.6132   19.6955 C   0  0  1  0  0  0  0  0  0  0  0  0
   37.7187   21.4254   19.5184 O   0  0  0  0  0  0  0  0  0  0  0  0
   35.6382   20.2724   19.8021 C   0  0  1  0  0  0  0  0  0  0  0  0
   36.5685   19.2289   19.6289 O   0  0  0  0  0  0  0  0  0  0  0  0
   35.0501   20.2219   21.2017 C   0  0  2  0  0  0  0  0  0  0  0  0
   35.8946   23.0929   15.3537 O   0  0  0  0  0  0  0  0  0  0  0  0
   30.5743   20.6840   18.4961 N   0  0  0  0  0  0  0  0  0  0  0  0
   31.8131   21.2092   18.1877 C   0  0  0  0  0  0  0  0  0  0  0  0
   32.8904   20.9847   19.0218 N   0  0  0  0  0  0  0  0  0  0  0  0
   32.7403   20.2489   20.1501 C   0  0  0  0  0  0  0  0  0  0  0  0
   31.5023   19.7128   20.4776 C   0  0  0  0  0  0  0  0  0  0  0  0
   30.4132   19.9333   19.6430 C   0  0  0  0  0  0  0  0  0  0  0  0
   29.2225   19.4256   19.9472 N   0  0  0  0  0  0  0  0  0  0  0  0
   31.6369   19.0337   21.6373 N   0  0  0  0  0  0  0  0  0  0  0  0
   32.9222   19.1265   22.0493 C   0  0  0  0  0  0  0  0  0  0  0  0
   33.6185   19.8770   21.1373 N   0  0  0  0  0  0  0  0  0  0  0  0
  2  1  1  6  0  0  0
  2  3  1  0  0  0  0
  2  5  1  0  0  0  0
  3  4  1  0  0  0  0
  3 16  1  0  0  0  0
  5  6  1  0  0  0  0
  6  7  1  0  0  0  0
  7  8  1  0  0  0  0
  9  8  1  6  0  0  0
  9 10  1  0  0  0  0
  9 11  1  0  0  0  0
 10 15  1  0  0  0  0
 11 12  1  1  0  0  0
 11 13  1  0  0  0  0
 13 14  1  1  0  0  0
 13 15  1  0  0  0  0
 15 26  1  6  0  0  0
 17 18  2  0  0  0  0
 17 22  1  0  0  0  0
 18 19  1  0  0  0  0
 19 20  2  0  0  0  0
 20 21  1  0  0  0  0
 20 26  1  0  0  0  0
 21 22  2  0  0  0  0
 21 24  1  0  0  0  0
 22 23  1  0  0  0  0
 24 25  2  0  0  0  0
 25 26  1  0  0  0  0
M  END
>  <CHROM.1>
21.41833563,-65.95468150,-75.50986505,104.76503740,-136.45282757,-66.13130655
84.22375306,34.42463820,21.79897024,19.32373489,0.77135789,-0.20350526,-0.85708175

>  <Name>
ligand

>  <RI>
0

>  <Rbt.Current_Directory>
/home/itssahil/PROJECTS/Mol_Feturizer/New_Systems/rnas/3NPQ

>  <Rbt.Executable>
rbdock ($Id: //depot/dev/client3/rdock/2013.1/src/exe/rbdock.cxx#4 $)

>  <Rbt.Library>
libRbt.so (2013.1, Build901 2013/11/27)

>  <Rbt.Parameter_File>
/export/apps/rDock/src/rDock_2013.1_src/data/scripts/dock_solv.prm

>  <Rbt.Receptor>
prm/blind_docking_100.prm

>  <SCORE>
-9.37331

>  <SCORE.INTER>
-8.54314

>  <SCORE.INTER.CONST>
1

>  <SCORE.INTER.POLAR>
0

>  <SCORE.INTER.ROT>
7

>  <SCORE.INTER.SOLV>
8.2243

>  <SCORE.INTER.VDW>
-16.7035

>  <SCORE.INTER.norm>
-0.328582

>  <SCORE.INTRA>
-0.830171

>  <SCORE.INTRA.DIHEDRAL>
0.856499

>  <SCORE.INTRA.DIHEDRAL.0>
6.97628

>  <SCORE.INTRA.POLAR>
0

>  <SCORE.INTRA.POLAR.0>
0

>  <SCORE.INTRA.REPUL>
0

>  <SCORE.INTRA.REPUL.0>
0

>  <SCORE.INTRA.SOLV>
2.19912

>  <SCORE.INTRA.SOLV.lig_0>
-49.8243

>  <SCORE.INTRA.VDW>
-2.35798

>  <SCORE.INTRA.VDW.0>
-1.35881

>  <SCORE.INTRA.norm>
-0.0319296

>  <SCORE.RESTR>
0

>  <SCORE.RESTR.CAVITY>
0

>  <SCORE.RESTR.norm>
0

>  <SCORE.SYSTEM>
0

>  <SCORE.SYSTEM.CONST>
0

>  <SCORE.SYSTEM.DIHEDRAL>
0

>  <SCORE.SYSTEM.SOLV>
0

>  <SCORE.SYSTEM.norm>
0

>  <SCORE.heavy>
26

>  <SCORE.norm>
-0.360512

>  <RMSD>
16.512

$$$$
ligand
 OpenBabel11021811483D
libRbt.so/2013.1/901 2013/11/27
 26 28  0  0  0  0  0  0  0  0999 V2000
   38.9269   23.9407   17.1678 N   0  0  0  0  0  0  0  0  0  0  0  0
   37.9285   23.4415   18.1051 C   0  0  2  0  0  0  0  0  0  0  0  0
   36.8258   22.6802   17.3782 C   0  0  0  0  0  0  0  0  0  0  0  0
   36.3208   23.1263   16.3488 O   0  0  0  0  0  0  0  0  0  0  0  0
   37.3290   24.5894   18.9078 C   0  0  0  0  0  0  0  0  0  0  0  0
   36.2812   24.1570   19.9251 C   0  0  0  0  0  0  0  0  0  0  0  0
   36.9806   23.1483   21.2561 S   0  0  0  0  0  0  0  0  0  0  0  0
   35.3558   22.4061   21.5516 C   0  0  0  0  0  0  0  0  0  0  0  0
   35.4295   20.9011   21.7819 C   0  0  1  0  0  0  0  0  0  0  0  0
   34.1397   20.3925   22.0694 O   0  0  0  0  0  0  0  0  0  0  0  0
   35.9528   20.1732   20.5545 C   0  0  1  0  0  0  0  0  0  0  0  0
   37.1747   19.5414   20.8546 O   0  0  0  0  0  0  0  0  0  0  0  0
   34.9036   19.1368   20.2095 C   0  0  1  0  0  0  0  0  0  0  0  0
   35.4721   17.8481   20.2270 O   0  0  0  0  0  0  0  0  0  0  0  0
   33.8380   19.2530   21.2859 C   0  0  2  0  0  0  0  0  0  0  0  0
   36.4144   21.6001   17.8036 O   0  0  0  0  0  0  0  0  0  0  0  0
   31.0934   21.2675   17.2889 N   0  0  0  0  0  0  0  0  0  0  0  0
   32.4502   21.3645   17.5238 C   0  0  0  0  0  0  0  0  0  0  0  0
   33.0075   20.7661   18.6366 N   0  0  0  0  0  0  0  0  0  0  0  0
   32.2273   20.0806   19.5074 C   0  0  0  0  0  0  0  0  0  0  0  0
   30.8607   19.9724   19.2888 C   0  0  0  0  0  0  0  0  0  0  0  0
   30.2921   20.5709   18.1708 C   0  0  0  0  0  0  0  0  0  0  0  0
   28.9841   20.4747   17.9517 N   0  0  0  0  0  0  0  0  0  0  0  0
   30.3344   19.2451   20.2978 N   0  0  0  0  0  0  0  0  0  0  0  0
   31.3287   18.8926   21.1449 C   0  0  0  0  0  0  0  0  0  0  0  0
   32.5083   19.4034   20.6679 N   0  0  0  0  0  0  0  0  0  0  0  0
  2  1  1  6  0  0  0
  2  3  1  0  0  0  0
  2  5  1  0  0  0  0
  3  4  1  0  0  0  0
  3 16  1  0  0  0  0
  5  6  1  0  0  0  0
  6  7  1  0  0  0  0
  7  8  1  0  0  0  0
  9  8  1  6  0  0  0
  9 10  1  0  0  0  0
  9 11  1  0  0  0  0
 10 15  1  0  0  0  0
 11 12  1  1  0  0  0
 11 13  1  0  0  0  0
 13 14  1  1  0  0  0
 13 15  1  0  0  0  0
 15 26  1  6  0  0  0
 17 18  2  0  0  0  0
 17 22  1  0  0  0  0
 18 19  1  0  0  0  0
 19 20  2  0  0  0  0
 20 21  1  0  0  0  0
 20 26  1  0  0  0  0
 21 22  2  0  0  0  0
 21 24  1  0  0  0  0
 22 23  1  0  0  0  0
 24 25  2  0  0  0  0
 25 26  1  0  0  0  0
M  END
>  <CHROM.1>
-44.93112151,-179.47432834,66.13158998,-155.75306206,137.40565008,177.22136444
83.39821197,34.53833189,21.19759370,19.55219542,0.33906649,-0.37688560,-0.94283760

>  <Name>
ligand

>  <RI>
0

>  <Rbt.Current_Directory>
/home/itssahil/PROJECTS/Mol_Feturizer/New_Systems/rnas/3NPQ

>  <Rbt.Executable>
rbdock ($Id: //depot/dev/client3/rdock/2013.1/src/exe/rbdock.cxx#4 $)

>  <Rbt.Library>
libRbt.so (2013.1, Build901 2013/11/27)

>  <Rbt.Parameter_File>
/export/apps/rDock/src/rDock_2013.1_src/data/scripts/dock_solv.prm

>  <Rbt.Receptor>
prm/blind_docking_100.prm

>  <SCORE>
-7.85053

>  <SCORE.INTER>
-4.70999

>  <SCORE.INTER.CONST>
1

>  <SCORE.INTER.POLAR>
0

>  <SCORE.INTER.ROT>
7

>  <SCORE.INTER.SOLV>
13.652

>  <SCORE.INTER.VDW>
-15.9573

>  <SCORE.INTER.norm>
-0.181153

>  <SCORE.INTRA>
-3.14054

>  <SCORE.INTRA.DIHEDRAL>
-1.35789

>  <SCORE.INTRA.DIHEDRAL.0>
6.97628

>  <SCORE.INTRA.POLAR>
0

>  <SCORE.INTRA.POLAR.0>
0

>  <SCORE.INTRA.REPUL>
0

>  <SCORE.INTRA.REPUL.0>
0

>  <SCORE.INTRA.SOLV>
-0.641356

>  <SCORE.INTRA.SOLV.lig_0>
-49.8243

>  <SCORE.INTRA.VDW>
-2.14092

>  <SCORE.INTRA.VDW.0>
-1.35881

>  <SCORE.INTRA.norm>
-0.12079

>  <SCORE.RESTR>
0

>  <SCORE.RESTR.CAVITY>
0

>  <SCORE.RESTR.norm>
0

>  <SCORE.SYSTEM>
0

>  <SCORE.SYSTEM.CONST>
0

>  <SCORE.SYSTEM.DIHEDRAL>
0

>  <SCORE.SYSTEM.SOLV>
0

>  <SCORE.SYSTEM.norm>
0

>  <SCORE.heavy>
26

>  <SCORE.norm>
-0.301944

>  <RMSD>
16.517

$$$$
ligand
 OpenBabel11021811483D
libRbt.so/2013.1/901 2013/11/27
 26 28  0  0  0  0  0  0  0  0999 V2000
   38.8356   22.5138   16.9251 N   0  0  0  0  0  0  0  0  0  0  0  0
   38.2760   22.4639   18.2700 C   0  0  2  0  0  0  0  0  0  0  0  0
   39.2624   23.0114   19.2953 C   0  0  0  0  0  0  0  0  0  0  0  0
   38.8743   23.6752   20.2558 O   0  0  0  0  0  0  0  0  0  0  0  0
   37.8840   21.0369   18.6324 C   0  0  0  0  0  0  0  0  0  0  0  0
   36.8193   20.4343   17.7253 C   0  0  0  0  0  0  0  0  0  0  0  0
   35.3754   21.5110   17.5393 S   0  0  0  0  0  0  0  0  0  0  0  0
   34.5194   20.2089   16.6173 C   0  0  0  0  0  0  0  0  0  0  0  0
   33.0923   19.9846   17.1037 C   0  0  1  0  0  0  0  0  0  0  0  0
   33.1023   19.2182   18.2942 O   0  0  0  0  0  0  0  0  0  0  0  0
   32.3912   21.2995   17.4036 C   0  0  1  0  0  0  0  0  0  0  0  0
   31.2926   21.4667   16.5391 O   0  0  0  0  0  0  0  0  0  0  0  0
   31.9129   21.1956   18.8369 C   0  0  1  0  0  0  0  0  0  0  0  0
   30.5151   21.3607   18.8937 O   0  0  0  0  0  0  0  0  0  0  0  0
   32.2939   19.7999   19.2999 C   0  0  2  0  0  0  0  0  0  0  0  0
   40.4712   22.8020   19.1871 O   0  0  0  0  0  0  0  0  0  0  0  0
   36.3184   21.9892   21.8647 N   0  0  0  0  0  0  0  0  0  0  0  0
   35.9187   22.2095   20.5619 C   0  0  0  0  0  0  0  0  0  0  0  0
   34.8262   21.5397   20.0473 N   0  0  0  0  0  0  0  0  0  0  0  0
   34.1390   20.6600   20.8159 C   0  0  0  0  0  0  0  0  0  0  0  0
   34.5258   20.4245   22.1282 C   0  0  0  0  0  0  0  0  0  0  0  0
   35.6235   21.0952   22.6540 C   0  0  0  0  0  0  0  0  0  0  0  0
   36.0037   20.8768   23.9093 N   0  0  0  0  0  0  0  0  0  0  0  0
   33.6770   19.5158   22.6552 N   0  0  0  0  0  0  0  0  0  0  0  0
   32.7679   19.1722   21.7140 C   0  0  0  0  0  0  0  0  0  0  0  0
   33.0415   19.8736   20.5681 N   0  0  0  0  0  0  0  0  0  0  0  0
  2  1  1  6  0  0  0
  2  3  1  0  0  0  0
  2  5  1  0  0  0  0
  3  4  1  0  0  0  0
  3 16  1  0  0  0  0
  5  6  1  0  0  0  0
  6  7  1  0  0  0  0
  7  8  1  0  0  0  0
  9  8  1  1  0  0  0
  9 10  1  0  0  0  0
  9 11  1  0  0  0  0
 10 15  1  0  0  0  0
 11 12  1  6  0  0  0
 11 13  1  0  0  0  0
 13 14  1  6  0  0  0
 13 15  1  0  0  0  0
 15 26  1  1  0  0  0
 17 18  2  0  0  0  0
 17 22  1  0  0  0  0
 18 19  1  0  0  0  0
 19 20  2  0  0  0  0
 20 21  1  0  0  0  0
 20 26  1  0  0  0  0
 21 22  2  0  0  0  0
 21 24  1  0  0  0  0
 22 23  1  0  0  0  0
 24 25  2  0  0  0  0
 25 26  1  0  0  0  0
M  END
>  <CHROM.1>
142.86731784,-61.27554133,-50.78635981,-173.51776942,132.70441263,-78.42320037
67.15598079,35.08661422,21.16544804,19.37318517,-0.02590827,-0.31348249,-1.45362271

>  <Name>
ligand

>  <RI>
0

>  <Rbt.Current_Directory>
/home/itssahil/PROJECTS/Mol_Feturizer/New_Systems/rnas/3NPQ

>  <Rbt.Executable>
rbdock ($Id: //depot/dev/client3/rdock/2013.1/src/exe/rbdock.cxx#4 $)

>  <Rbt.Library>
libRbt.so (2013.1, Build901 2013/11/27)

>  <Rbt.Parameter_File>
/export/apps/rDock/src/rDock_2013.1_src/data/scripts/dock_solv.prm

>  <Rbt.Receptor>
prm/blind_docking_80.prm

>  <SCORE>
5.60723

>  <SCORE.INTER>
5.45569

>  <SCORE.INTER.CONST>
1

>  <SCORE.INTER.POLAR>
0

>  <SCORE.INTER.ROT>
7

>  <SCORE.INTER.SOLV>
27.7535

>  <SCORE.INTER.VDW>
-13.8807

>  <SCORE.INTER.norm>
0.209834

>  <SCORE.INTRA>
0.148411

>  <SCORE.INTRA.DIHEDRAL>
-0.639577

>  <SCORE.INTRA.DIHEDRAL.0>
6.97628

>  <SCORE.INTRA.POLAR>
0

>  <SCORE.INTRA.POLAR.0>
0

>  <SCORE.INTRA.REPUL>
0

>  <SCORE.INTRA.REPUL.0>
0

>  <SCORE.INTRA.SOLV>
0.980246

>  <SCORE.INTRA.SOLV.lig_0>
-49.8243

>  <SCORE.INTRA.VDW>
-0.0219233

>  <SCORE.INTRA.VDW.0>
-1.35881

>  <SCORE.INTRA.norm>
0.00570813

>  <SCORE.RESTR>
0.00313065

>  <SCORE.RESTR.CAVITY>
0.00313065

>  <SCORE.RESTR.norm>
0.00012041

>  <SCORE.SYSTEM>
0

>  <SCORE.SYSTEM.CONST>
0

>  <SCORE.SYSTEM.DIHEDRAL>
0

>  <SCORE.SYSTEM.SOLV>
0

>  <SCORE.SYSTEM.norm>
0

>  <SCORE.heavy>
26

>  <SCORE.norm>
0.215663

>  <RMSD>
16.543

$$$$
ligand
 OpenBabel11021811483D
libRbt.so/2013.1/901 2013/11/27
 26 28  0  0  0  0  0  0  0  0999 V2000
   38.2395   25.6271   17.4513 N   0  0  0  0  0  0  0  0  0  0  0  0
   38.1321   24.6401   16.3842 C   0  0  2  0  0  0  0  0  0  0  0  0
   36.6813   24.4503   15.9564 C   0  0  0  0  0  0  0  0  0  0  0  0
   35.7704   25.0555   16.5201 O   0  0  0  0  0  0  0  0  0  0  0  0
   38.7246   23.3083   16.8274 C   0  0  0  0  0  0  0  0  0  0  0  0
   38.1584   22.7809   18.1393 C   0  0  0  0  0  0  0  0  0  0  0  0
   37.8072   21.0057   18.0801 S   0  0  0  0  0  0  0  0  0  0  0  0
   36.0503   21.3407   18.3613 C   0  0  0  0  0  0  0  0  0  0  0  0
   35.7910   22.0489   19.6858 C   0  0  1  0  0  0  0  0  0  0  0  0
   34.4204   21.9486   20.0273 O   0  0  0  0  0  0  0  0  0  0  0  0
   36.5978   21.4318   20.8166 C   0  0  1  0  0  0  0  0  0  0  0  0
   37.5086   22.3756   21.3282 O   0  0  0  0  0  0  0  0  0  0  0  0
   35.5915   21.0507   21.8825 C   0  0  1  0  0  0  0  0  0  0  0  0
   35.8985   21.7025   23.0930 O   0  0  0  0  0  0  0  0  0  0  0  0
   34.2425   21.5187   21.3640 C   0  0  2  0  0  0  0  0  0  0  0  0
   36.3862   23.6870   15.0360 O   0  0  0  0  0  0  0  0  0  0  0  0
   30.2949   19.0761   18.9110 N   0  0  0  0  0  0  0  0  0  0  0  0
   31.0033   20.1834   18.4897 C   0  0  0  0  0  0  0  0  0  0  0  0
   32.0201   20.6965   19.2704 N   0  0  0  0  0  0  0  0  0  0  0  0
   32.3297   20.1187   20.4567 C   0  0  0  0  0  0  0  0  0  0  0  0
   31.6284   19.0048   20.8979 C   0  0  0  0  0  0  0  0  0  0  0  0
   30.6043   18.4817   20.1177 C   0  0  0  0  0  0  0  0  0  0  0  0
   29.9251   17.4157   20.5306 N   0  0  0  0  0  0  0  0  0  0  0  0
   32.1385   18.6391   22.0938 N   0  0  0  0  0  0  0  0  0  0  0  0
   33.1394   19.4894   22.4184 C   0  0  0  0  0  0  0  0  0  0  0  0
   33.2698   20.4123   21.4129 N   0  0  0  0  0  0  0  0  0  0  0  0
  2  1  1  1  0  0  0
  2  3  1  0  0  0  0
  2  5  1  0  0  0  0
  3  4  1  0  0  0  0
  3 16  1  0  0  0  0
  5  6  1  0  0  0  0
  6  7  1  0  0  0  0
  7  8  1  0  0  0  0
  9  8  1  6  0  0  0
  9 10  1  0  0  0  0
  9 11  1  0  0  0  0
 10 15  1  0  0  0  0
 11 12  1  1  0  0  0
 11 13  1  0  0  0  0
 13 14  1  1  0  0  0
 13 15  1  0  0  0  0
 15 26  1  6  0  0  0
 17 18  2  0  0  0  0
 17 22  1  0  0  0  0
 18 19  1  0  0  0  0
 19 20  2  0  0  0  0
 20 21  1  0  0  0  0
 20 26  1  0  0  0  0
 21 22  2  0  0  0  0
 21 24  1  0  0  0  0
 22 23  1  0  0  0  0
 24 25  2  0  0  0  0
 25 26  1  0  0  0  0
M  END
>  <CHROM.1>
-2.26897202,53.20830041,136.89505417,-117.73052527,-60.68302072,-163.60031818
-21.01599108,34.94018154,21.48890485,19.35543641,-0.64776813,0.45201223,1.94479793

>  <Name>
ligand

>  <RI>
0

>  <Rbt.Current_Directory>
/home/itssahil/PROJECTS/Mol_Feturizer/New_Systems/rnas/3NPQ

>  <Rbt.Executable>
rbdock ($Id: //depot/dev/client3/rdock/2013.1/src/exe/rbdock.cxx#4 $)

>  <Rbt.Library>
libRbt.so (2013.1, Build901 2013/11/27)

>  <Rbt.Parameter_File>
/export/apps/rDock/src/rDock_2013.1_src/data/scripts/dock_solv.prm

>  <Rbt.Receptor>
prm/blind_docking_100.prm

>  <SCORE>
-9.03586

>  <SCORE.INTER>
-11.3158

>  <SCORE.INTER.CONST>
1

>  <SCORE.INTER.POLAR>
0

>  <SCORE.INTER.ROT>
7

>  <SCORE.INTER.SOLV>
7.32831

>  <SCORE.INTER.VDW>
-18.2533

>  <SCORE.INTER.norm>
-0.435223

>  <SCORE.INTRA>
2.27994

>  <SCORE.INTRA.DIHEDRAL>
3.70364

>  <SCORE.INTRA.DIHEDRAL.0>
6.97628

>  <SCORE.INTRA.POLAR>
0

>  <SCORE.INTRA.POLAR.0>
0

>  <SCORE.INTRA.REPUL>
0

>  <SCORE.INTRA.REPUL.0>
0

>  <SCORE.INTRA.SOLV>
0.262261

>  <SCORE.INTRA.SOLV.lig_0>
-49.8243

>  <SCORE.INTRA.VDW>
0.296994

>  <SCORE.INTRA.VDW.0>
-1.35881

>  <SCORE.INTRA.norm>
0.0876901

>  <SCORE.RESTR>
0

>  <SCORE.RESTR.CAVITY>
0

>  <SCORE.RESTR.norm>
0

>  <SCORE.SYSTEM>
0

>  <SCORE.SYSTEM.CONST>
0

>  <SCORE.SYSTEM.DIHEDRAL>
0

>  <SCORE.SYSTEM.SOLV>
0

>  <SCORE.SYSTEM.norm>
0

>  <SCORE.heavy>
26

>  <SCORE.norm>
-0.347533

>  <RMSD>
16.610

$$$$
ligand
 OpenBabel11021811483D
libRbt.so/2013.1/901 2013/11/27
 26 28  0  0  0  0  0  0  0  0999 V2000
   38.8376   16.3203   20.1571 N   0  0  0  0  0  0  0  0  0  0  0  0
   37.5776   16.9290   19.7491 C   0  0  2  0  0  0  0  0  0  0  0  0
   37.5995   18.4370   19.9712 C   0  0  0  0  0  0  0  0  0  0  0  0
   37.8319   19.2106   19.0431 O   0  0  0  0  0  0  0  0  0  0  0  0
   36.4132   16.3059   20.5088 C   0  0  0  0  0  0  0  0  0  0  0  0
   35.0544   16.5299   19.8583 C   0  0  0  0  0  0  0  0  0  0  0  0
   34.6400   18.2857   19.7031 S   0  0  0  0  0  0  0  0  0  0  0  0
   32.8772   17.8796   19.7798 C   0  0  0  0  0  0  0  0  0  0  0  0
   31.9923   18.9945   19.2345 C   0  0  1  0  0  0  0  0  0  0  0  0
   32.2648   20.2051   19.9166 O   0  0  0  0  0  0  0  0  0  0  0  0
   32.2396   19.2300   17.7534 C   0  0  1  0  0  0  0  0  0  0  0  0
   31.0736   18.9410   17.0192 O   0  0  0  0  0  0  0  0  0  0  0  0
   32.5862   20.6984   17.6204 C   0  0  1  0  0  0  0  0  0  0  0  0
   31.6785   21.3330   16.7499 O   0  0  0  0  0  0  0  0  0  0  0  0
   32.4643   21.2804   19.0182 C   0  0  2  0  0  0  0  0  0  0  0  0
   37.3847   18.9172   21.0848 O   0  0  0  0  0  0  0  0  0  0  0  0
   36.4927   21.6699   22.3630 N   0  0  0  0  0  0  0  0  0  0  0  0
   35.4530   20.7622   22.3852 C   0  0  0  0  0  0  0  0  0  0  0  0
   34.4705   20.8068   21.4159 N   0  0  0  0  0  0  0  0  0  0  0  0
   34.5179   21.7424   20.4364 C   0  0  0  0  0  0  0  0  0  0  0  0
   35.5552   22.6642   20.3974 C   0  0  0  0  0  0  0  0  0  0  0  0
   36.5484   22.6256   21.3686 C   0  0  0  0  0  0  0  0  0  0  0  0
   37.5462   23.5041   21.3418 N   0  0  0  0  0  0  0  0  0  0  0  0
   35.3568   23.4684   19.3307 N   0  0  0  0  0  0  0  0  0  0  0  0
   34.2259   23.0805   18.6975 C   0  0  0  0  0  0  0  0  0  0  0  0
   33.6946   22.0112   19.3715 N   0  0  0  0  0  0  0  0  0  0  0  0
  2  1  1  1  0  0  0
  2  3  1  0  0  0  0
  2  5  1  0  0  0  0
  3  4  1  0  0  0  0
  3 16  1  0  0  0  0
  5  6  1  0  0  0  0
  6  7  1  0  0  0  0
  7  8  1  0  0  0  0
  9  8  1  1  0  0  0
  9 10  1  0  0  0  0
  9 11  1  0  0  0  0
 10 15  1  0  0  0  0
 11 12  1  6  0  0  0
 11 13  1  0  0  0  0
 13 14  1  6  0  0  0
 13 15  1  0  0  0  0
 15 26  1  1  0  0  0
 17 18  2  0  0  0  0
 17 22  1  0  0  0  0
 18 19  1  0  0  0  0
 19 20  2  0  0  0  0
 20 21  1  0  0  0  0
 20 26  1  0  0  0  0
 21 22  2  0  0  0  0
 21 24  1  0  0  0  0
 22 23  1  0  0  0  0
 24 25  2  0  0  0  0
 25 26  1  0  0  0  0
M  END
>  <CHROM.1>
99.00229444,-161.15656523,-60.02872868,-152.18633425,-160.97759703,-55.55650213
-2.22178612,34.82279949,19.93609262,19.73938056,0.32006220,0.48356929,-2.97530933

>  <Name>
ligand

>  <RI>
0

>  <Rbt.Current_Directory>
/home/itssahil/PROJECTS/Mol_Feturizer/New_Systems/rnas/3NPQ

>  <Rbt.Executable>
rbdock ($Id: //depot/dev/client3/rdock/2013.1/src/exe/rbdock.cxx#4 $)

>  <Rbt.Library>
libRbt.so (2013.1, Build901 2013/11/27)

>  <Rbt.Parameter_File>
/export/apps/rDock/src/rDock_2013.1_src/data/scripts/dock_solv.prm

>  <Rbt.Receptor>
prm/blind_docking_80.prm

>  <SCORE>
-9.63445

>  <SCORE.INTER>
-6.16458

>  <SCORE.INTER.CONST>
1

>  <SCORE.INTER.POLAR>
0

>  <SCORE.INTER.ROT>
7

>  <SCORE.INTER.SOLV>
12.0439

>  <SCORE.INTER.VDW>
-16.391

>  <SCORE.INTER.norm>
-0.237099

>  <SCORE.INTRA>
-3.46987

>  <SCORE.INTRA.DIHEDRAL>
-1.34272

>  <SCORE.INTRA.DIHEDRAL.0>
6.97628

>  <SCORE.INTRA.POLAR>
0

>  <SCORE.INTRA.POLAR.0>
0

>  <SCORE.INTRA.REPUL>
0

>  <SCORE.INTRA.REPUL.0>
0

>  <SCORE.INTRA.SOLV>
-0.350544

>  <SCORE.INTRA.SOLV.lig_0>
-49.8243

>  <SCORE.INTRA.VDW>
-2.62323

>  <SCORE.INTRA.VDW.0>
-1.35881

>  <SCORE.INTRA.norm>
-0.133456

>  <SCORE.RESTR>
0

>  <SCORE.RESTR.CAVITY>
0

>  <SCORE.RESTR.norm>
0

>  <SCORE.SYSTEM>
0

>  <SCORE.SYSTEM.CONST>
0

>  <SCORE.SYSTEM.DIHEDRAL>
0

>  <SCORE.SYSTEM.SOLV>
0

>  <SCORE.SYSTEM.norm>
0

>  <SCORE.heavy>
26

>  <SCORE.norm>
-0.370556

>  <RMSD>
16.619

$$$$
ligand
 OpenBabel11021811483D
libRbt.so/2013.1/901 2013/11/27
 26 28  0  0  0  0  0  0  0  0999 V2000
   33.5438   22.8324   17.6751 N   0  0  0  0  0  0  0  0  0  0  0  0
   34.8958   22.7136   17.1436 C   0  0  2  0  0  0  0  0  0  0  0  0
   35.3440   24.0148   16.4880 C   0  0  0  0  0  0  0  0  0  0  0  0
   36.4516   24.1097   15.9607 O   0  0  0  0  0  0  0  0  0  0  0  0
   34.9766   21.5689   16.1415 C   0  0  0  0  0  0  0  0  0  0  0  0
   34.6388   20.2040   16.7269 C   0  0  0  0  0  0  0  0  0  0  0  0
   35.9319   19.5832   17.8317 S   0  0  0  0  0  0  0  0  0  0  0  0
   34.9807   18.0657   18.0975 C   0  0  0  0  0  0  0  0  0  0  0  0
   34.0512   18.1572   19.3021 C   0  0  1  0  0  0  0  0  0  0  0  0
   34.7872   18.5291   20.4532 O   0  0  0  0  0  0  0  0  0  0  0  0
   32.9633   19.1973   19.0903 C   0  0  1  0  0  0  0  0  0  0  0  0
   31.6995   18.5768   19.0838 O   0  0  0  0  0  0  0  0  0  0  0  0
   33.0678   20.1499   20.2633 C   0  0  1  0  0  0  0  0  0  0  0  0
   31.8486   20.1854   20.9680 O   0  0  0  0  0  0  0  0  0  0  0  0
   34.1686   19.5943   21.1504 C   0  0  2  0  0  0  0  0  0  0  0  0
   34.6080   25.0022   16.4700 O   0  0  0  0  0  0  0  0  0  0  0  0
   35.3624   24.6920   20.7570 N   0  0  0  0  0  0  0  0  0  0  0  0
   34.2289   24.0463   20.3056 C   0  0  0  0  0  0  0  0  0  0  0  0
   34.0805   22.6869   20.4975 N   0  0  0  0  0  0  0  0  0  0  0  0
   35.0464   21.9757   21.1287 C   0  0  0  0  0  0  0  0  0  0  0  0
   36.1937   22.6071   21.5894 C   0  0  0  0  0  0  0  0  0  0  0  0
   36.3503   23.9750   21.4011 C   0  0  0  0  0  0  0  0  0  0  0  0
   37.4455   24.5902   21.8373 N   0  0  0  0  0  0  0  0  0  0  0  0
   36.9767   21.6735   22.1718 N   0  0  0  0  0  0  0  0  0  0  0  0
   36.3568   20.4737   22.0913 C   0  0  0  0  0  0  0  0  0  0  0  0
   35.1586   20.6452   21.4471 N   0  0  0  0  0  0  0  0  0  0  0  0
  2  1  1  6  0  0  0
  2  3  1  0  0  0  0
  2  5  1  0  0  0  0
  3  4  1  0  0  0  0
  3 16  1  0  0  0  0
  5  6  1  0  0  0  0
  6  7  1  0  0  0  0
  7  8  1  0  0  0  0
  9  8  1  6  0  0  0
  9 10  1  0  0  0  0
  9 11  1  0  0  0  0
 10 15  1  0  0  0  0
 11 12  1  1  0  0  0
 11 13  1  0  0  0  0
 13 14  1  1  0  0  0
 13 15  1  0  0  0  0
 15 26  1  6  0  0  0
 17 18  2  0  0  0  0
 17 22  1  0  0  0  0
 18 19  1  0  0  0  0
 19 20  2  0  0  0  0
 20 21  1  0  0  0  0
 20 26  1  0  0  0  0
 21 22  2  0  0  0  0
 21 24  1  0  0  0  0
 22 23  1  0  0  0  0
 24 25  2  0  0  0  0
 25 26  1  0  0  0  0
M  END
>  <CHROM.1>
-178.90295722,-60.88068826,-71.84748706,-178.73743900,-91.58071808,-54.33471038
126.29137079,34.83100300,21.41064554,19.33004455,0.47375359,-1.17281384,-1.23224825

>  <Name>
ligand

>  <RI>
0

>  <Rbt.Current_Directory>
/home/itssahil/PROJECTS/Mol_Feturizer/New_Systems/rnas/3NPQ

>  <Rbt.Executable>
rbdock ($Id: //depot/dev/client3/rdock/2013.1/src/exe/rbdock.cxx#4 $)

>  <Rbt.Library>
libRbt.so (2013.1, Build901 2013/11/27)

>  <Rbt.Parameter_File>
/export/apps/rDock/src/rDock_2013.1_src/data/scripts/dock_solv.prm

>  <Rbt.Receptor>
prm/blind_docking_60.prm

>  <SCORE>
-9.13765

>  <SCORE.INTER>
-7.61817

>  <SCORE.INTER.CONST>
1

>  <SCORE.INTER.POLAR>
0

>  <SCORE.INTER.ROT>
7

>  <SCORE.INTER.SOLV>
12.9224

>  <SCORE.INTER.VDW>
-17.6529

>  <SCORE.INTER.norm>
-0.293006

>  <SCORE.INTRA>
-1.64487

>  <SCORE.INTRA.DIHEDRAL>
-2.37299

>  <SCORE.INTRA.DIHEDRAL.0>
6.97628

>  <SCORE.INTRA.POLAR>
0

>  <SCORE.INTRA.POLAR.0>
0

>  <SCORE.INTRA.REPUL>
0

>  <SCORE.INTRA.REPUL.0>
0

>  <SCORE.INTRA.SOLV>
2.9405

>  <SCORE.INTRA.SOLV.lig_0>
-49.8243

>  <SCORE.INTRA.VDW>
-1.92863

>  <SCORE.INTRA.VDW.0>
-1.35881

>  <SCORE.INTRA.norm>
-0.0632643

>  <SCORE.RESTR>
0.125391

>  <SCORE.RESTR.CAVITY>
0.125391

>  <SCORE.RESTR.norm>
0.00482274

>  <SCORE.SYSTEM>
0

>  <SCORE.SYSTEM.CONST>
0

>  <SCORE.SYSTEM.DIHEDRAL>
0

>  <SCORE.SYSTEM.SOLV>
0

>  <SCORE.SYSTEM.norm>
0

>  <SCORE.heavy>
26

>  <SCORE.norm>
-0.351448

>  <RMSD>
16.645

$$$$
ligand
 OpenBabel11021811483D
libRbt.so/2013.1/901 2013/11/27
 26 28  0  0  0  0  0  0  0  0999 V2000
   37.7930   21.9667   18.4462 N   0  0  0  0  0  0  0  0  0  0  0  0
   36.8844   22.3291   17.3656 C   0  0  2  0  0  0  0  0  0  0  0  0
   37.4026   23.5385   16.5955 C   0  0  0  0  0  0  0  0  0  0  0  0
   38.1303   24.3699   17.1370 O   0  0  0  0  0  0  0  0  0  0  0  0
   35.4918   22.6158   17.9128 C   0  0  0  0  0  0  0  0  0  0  0  0
   34.3720   22.4185   16.8994 C   0  0  0  0  0  0  0  0  0  0  0  0
   33.9908   20.6710   16.6176 S   0  0  0  0  0  0  0  0  0  0  0  0
   32.7003   20.7448   17.8854 C   0  0  0  0  0  0  0  0  0  0  0  0
   32.8736   19.6817   18.9639 C   0  0  1  0  0  0  0  0  0  0  0  0
   34.2250   19.6354   19.3841 O   0  0  0  0  0  0  0  0  0  0  0  0
   32.0176   19.9793   20.1842 C   0  0  1  0  0  0  0  0  0  0  0  0
   31.0628   18.9601   20.3621 O   0  0  0  0  0  0  0  0  0  0  0  0
   32.9709   20.0087   21.3608 C   0  0  1  0  0  0  0  0  0  0  0  0
   32.5860   19.0510   22.3195 O   0  0  0  0  0  0  0  0  0  0  0  0
   34.3373   19.6623   20.7948 C   0  0  2  0  0  0  0  0  0  0  0  0
   37.1058   23.7120   15.4129 O   0  0  0  0  0  0  0  0  0  0  0  0
   35.5110   24.7765   20.9815 N   0  0  0  0  0  0  0  0  0  0  0  0
   34.3761   24.1821   20.4675 C   0  0  0  0  0  0  0  0  0  0  0  0
   34.2337   22.8091   20.5029 N   0  0  0  0  0  0  0  0  0  0  0  0
   35.2070   22.0341   21.0405 C   0  0  0  0  0  0  0  0  0  0  0  0
   36.3560   22.6131   21.5618 C   0  0  0  0  0  0  0  0  0  0  0  0
   36.5066   23.9943   21.5310 C   0  0  0  0  0  0  0  0  0  0  0  0
   37.6033   24.5598   22.0266 N   0  0  0  0  0  0  0  0  0  0  0  0
   37.1468   21.6220   22.0269 N   0  0  0  0  0  0  0  0  0  0  0  0
   36.5302   20.4368   21.8136 C   0  0  0  0  0  0  0  0  0  0  0  0
   35.3263   20.6763   21.2027 N   0  0  0  0  0  0  0  0  0  0  0  0
  2  1  1  1  0  0  0
  2  3  1  0  0  0  0
  2  5  1  0  0  0  0
  3  4  1  0  0  0  0
  3 16  1  0  0  0  0
  5  6  1  0  0  0  0
  6  7  1  0  0  0  0
  7  8  1  0  0  0  0
  9  8  1  6  0  0  0
  9 10  1  0  0  0  0
  9 11  1  0  0  0  0
 10 15  1  0  0  0  0
 11 12  1  1  0  0  0
 11 13  1  0  0  0  0
 13 14  1  1  0  0  0
 13 15  1  0  0  0  0
 15 26  1  6  0  0  0
 17 18  2  0  0  0  0
 17 22  1  0  0  0  0
 18 19  1  0  0  0  0
 19 20  2  0  0  0  0
 20 21  1  0  0  0  0
 20 26  1  0  0  0  0
 21 22  2  0  0  0  0
 21 24  1  0  0  0  0
 22 23  1  0  0  0  0
 24 25  2  0  0  0  0
 25 26  1  0  0  0  0
M  END
>  <CHROM.1>
-27.09654695,-155.22389723,76.15007127,93.23969265,-125.70488178,45.70685662
66.09208531,35.02525165,21.72504204,19.45238705,0.43143011,-0.73180686,-1.53682347

>  <Name>
ligand

>  <RI>
0

>  <Rbt.Current_Directory>
/home/itssahil/PROJECTS/Mol_Feturizer/New_Systems/rnas/3NPQ

>  <Rbt.Executable>
rbdock ($Id: //depot/dev/client3/rdock/2013.1/src/exe/rbdock.cxx#4 $)

>  <Rbt.Library>
libRbt.so (2013.1, Build901 2013/11/27)

>  <Rbt.Parameter_File>
/export/apps/rDock/src/rDock_2013.1_src/data/scripts/dock_solv.prm

>  <Rbt.Receptor>
prm/blind_docking_80.prm

>  <SCORE>
-11.7996

>  <SCORE.INTER>
-10.1762

>  <SCORE.INTER.CONST>
1

>  <SCORE.INTER.POLAR>
0

>  <SCORE.INTER.ROT>
7

>  <SCORE.INTER.SOLV>
13.0273

>  <SCORE.INTER.VDW>
-19.3933

>  <SCORE.INTER.norm>
-0.391394

>  <SCORE.INTRA>
-1.81112

>  <SCORE.INTRA.DIHEDRAL>
3.17363

>  <SCORE.INTRA.DIHEDRAL.0>
6.97628

>  <SCORE.INTRA.POLAR>
0

>  <SCORE.INTRA.POLAR.0>
0

>  <SCORE.INTRA.REPUL>
0

>  <SCORE.INTRA.REPUL.0>
0

>  <SCORE.INTRA.SOLV>
0.382375

>  <SCORE.INTRA.SOLV.lig_0>
-49.8243

>  <SCORE.INTRA.VDW>
-3.58912

>  <SCORE.INTRA.VDW.0>
-1.35881

>  <SCORE.INTRA.norm>
-0.0696586

>  <SCORE.RESTR>
0.18773

>  <SCORE.RESTR.CAVITY>
0.18773

>  <SCORE.RESTR.norm>
0.00722039

>  <SCORE.SYSTEM>
0

>  <SCORE.SYSTEM.CONST>
0

>  <SCORE.SYSTEM.DIHEDRAL>
0

>  <SCORE.SYSTEM.SOLV>
0

>  <SCORE.SYSTEM.norm>
0

>  <SCORE.heavy>
26

>  <SCORE.norm>
-0.453832

>  <RMSD>
16.960

$$$$
ligand
 OpenBabel11021811483D
libRbt.so/2013.1/901 2013/11/27
 26 28  0  0  0  0  0  0  0  0999 V2000
   36.5074   22.3390   17.8098 N   0  0  0  0  0  0  0  0  0  0  0  0
   35.7813   22.6055   16.5744 C   0  0  2  0  0  0  0  0  0  0  0  0
   36.6344   23.4083   15.5989 C   0  0  0  0  0  0  0  0  0  0  0  0
   36.3350   23.4819   14.4078 O   0  0  0  0  0  0  0  0  0  0  0  0
   34.4839   23.3485   16.8675 C   0  0  0  0  0  0  0  0  0  0  0  0
   33.5323   22.5992   17.7910 C   0  0  0  0  0  0  0  0  0  0  0  0
   33.0935   20.9617   17.1550 S   0  0  0  0  0  0  0  0  0  0  0  0
   31.9823   20.7096   18.5621 C   0  0  0  0  0  0  0  0  0  0  0  0
   32.4237   19.5613   19.4621 C   0  0  1  0  0  0  0  0  0  0  0  0
   33.8311   19.5820   19.6167 O   0  0  0  0  0  0  0  0  0  0  0  0
   31.8029   19.6655   20.8455 C   0  0  1  0  0  0  0  0  0  0  0  0
   30.9632   18.5600   21.0803 O   0  0  0  0  0  0  0  0  0  0  0  0
   32.9616   19.6536   21.8208 C   0  0  1  0  0  0  0  0  0  0  0  0
   32.8270   18.5769   22.7191 O   0  0  0  0  0  0  0  0  0  0  0  0
   34.2115   19.4766   20.9759 C   0  0  2  0  0  0  0  0  0  0  0  0
   37.6436   24.0028   15.9797 O   0  0  0  0  0  0  0  0  0  0  0  0
   35.2964   24.6136   20.9385 N   0  0  0  0  0  0  0  0  0  0  0  0
   34.1518   23.9825   20.4947 C   0  0  0  0  0  0  0  0  0  0  0  0
   34.0367   22.6092   20.5825 N   0  0  0  0  0  0  0  0  0  0  0  0
   35.0465   21.8701   21.1033 C   0  0  0  0  0  0  0  0  0  0  0  0
   36.2056   22.4865   21.5545 C   0  0  0  0  0  0  0  0  0  0  0  0
   36.3290   23.8682   21.4705 C   0  0  0  0  0  0  0  0  0  0  0  0
   37.4351   24.4693   21.8987 N   0  0  0  0  0  0  0  0  0  0  0  0
   37.0340   21.5258   22.0180 N   0  0  0  0  0  0  0  0  0  0  0  0
   36.4311   20.3235   21.8719 C   0  0  0  0  0  0  0  0  0  0  0  0
   35.1979   20.5210   21.3061 N   0  0  0  0  0  0  0  0  0  0  0  0
  2  1  1  1  0  0  0
  2  3  1  0  0  0  0
  2  5  1  0  0  0  0
  3  4  1  0  0  0  0
  3 16  1  0  0  0  0
  5  6  1  0  0  0  0
  6  7  1  0  0  0  0
  7  8  1  0  0  0  0
  9  8  1  6  0  0  0
  9 10  1  0  0  0  0
  9 11  1  0  0  0  0
 10 15  1  0  0  0  0
 11 12  1  1  0  0  0
 11 13  1  0  0  0  0
 13 14  1  1  0  0  0
 13 15  1  0  0  0  0
 15 26  1  1  0  0  0
 17 18  2  0  0  0  0
 17 22  1  0  0  0  0
 18 19  1  0  0  0  0
 19 20  2  0  0  0  0
 20 21  1  0  0  0  0
 20 26  1  0  0  0  0
 21 22  2  0  0  0  0
 21 24  1  0  0  0  0
 22 23  1  0  0  0  0
 24 25  2  0  0  0  0
 25 26  1  0  0  0  0
M  END
>  <CHROM.1>
163.63375503,-59.34608546,-57.01387033,-177.19883556,-115.90665115,40.54510783
53.97503478,34.59316953,21.65355122,19.46528050,-0.88942695,0.72042390,1.77991849

>  <Name>
ligand

>  <RI>
0

>  <Rbt.Current_Directory>
/home/itssahil/PROJECTS/Mol_Feturizer/New_Systems/rnas/3NPQ

>  <Rbt.Executable>
rbdock ($Id: //depot/dev/client3/rdock/2013.1/src/exe/rbdock.cxx#4 $)

>  <Rbt.Library>
libRbt.so (2013.1, Build901 2013/11/27)

>  <Rbt.Parameter_File>
/export/apps/rDock/src/rDock_2013.1_src/data/scripts/dock_solv.prm

>  <Rbt.Receptor>
prm/blind_docking_80.prm

>  <SCORE>
-14.0761

>  <SCORE.INTER>
-11.9233

>  <SCORE.INTER.CONST>
1

>  <SCORE.INTER.POLAR>
0

>  <SCORE.INTER.ROT>
7

>  <SCORE.INTER.SOLV>
13.8882

>  <SCORE.INTER.VDW>
-20.8449

>  <SCORE.INTER.norm>
-0.458587

>  <SCORE.INTRA>
-2.16956

>  <SCORE.INTRA.DIHEDRAL>
-0.638005

>  <SCORE.INTRA.DIHEDRAL.0>
6.97628

>  <SCORE.INTRA.POLAR>
0

>  <SCORE.INTRA.POLAR.0>
0

>  <SCORE.INTRA.REPUL>
0

>  <SCORE.INTRA.REPUL.0>
0

>  <SCORE.INTRA.SOLV>
1.23116

>  <SCORE.INTRA.SOLV.lig_0>
-49.8243

>  <SCORE.INTRA.VDW>
-2.46614

>  <SCORE.INTRA.VDW.0>
-1.35881

>  <SCORE.INTRA.norm>
-0.0834447

>  <SCORE.RESTR>
0.0166876

>  <SCORE.RESTR.CAVITY>
0.0166876

>  <SCORE.RESTR.norm>
0.000641832

>  <SCORE.SYSTEM>
0

>  <SCORE.SYSTEM.CONST>
0

>  <SCORE.SYSTEM.DIHEDRAL>
0

>  <SCORE.SYSTEM.SOLV>
0

>  <SCORE.SYSTEM.norm>
0

>  <SCORE.heavy>
26

>  <SCORE.norm>
-0.54139

>  <RMSD>
17.011

$$$$
ligand
 OpenBabel11021811483D
libRbt.so/2013.1/901 2013/11/27
 26 28  0  0  0  0  0  0  0  0999 V2000
   38.2959   20.3564   18.7388 N   0  0  0  0  0  0  0  0  0  0  0  0
   38.0059   21.5086   17.8945 C   0  0  2  0  0  0  0  0  0  0  0  0
   38.9617   22.6591   18.1892 C   0  0  0  0  0  0  0  0  0  0  0  0
   39.8880   22.5243   18.9877 O   0  0  0  0  0  0  0  0  0  0  0  0
   36.5650   21.9635   18.0889 C   0  0  0  0  0  0  0  0  0  0  0  0
   35.5249   20.9291   17.6791 C   0  0  0  0  0  0  0  0  0  0  0  0
   33.8292   21.5184   17.9155 S   0  0  0  0  0  0  0  0  0  0  0  0
   33.2116   19.8272   17.7242 C   0  0  0  0  0  0  0  0  0  0  0  0
   33.1134   19.0830   19.0508 C   0  0  1  0  0  0  0  0  0  0  0  0
   34.3710   19.0875   19.7015 O   0  0  0  0  0  0  0  0  0  0  0  0
   32.1055   19.7345   19.9835 C   0  0  1  0  0  0  0  0  0  0  0  0
   31.0454   18.8450   20.2429 O   0  0  0  0  0  0  0  0  0  0  0  0
   32.8586   20.0319   21.2636 C   0  0  1  0  0  0  0  0  0  0  0  0
   32.2404   19.3832   22.3505 O   0  0  0  0  0  0  0  0  0  0  0  0
   34.2600   19.4840   21.0557 C   0  0  2  0  0  0  0  0  0  0  0  0
   38.8299   23.7509   17.6347 O   0  0  0  0  0  0  0  0  0  0  0  0
   35.4124   24.6039   20.8953 N   0  0  0  0  0  0  0  0  0  0  0  0
   34.2594   23.9774   20.4668 C   0  0  0  0  0  0  0  0  0  0  0  0
   34.1264   22.6083   20.5875 N   0  0  0  0  0  0  0  0  0  0  0  0
   35.1265   21.8686   21.1257 C   0  0  0  0  0  0  0  0  0  0  0  0
   36.2939   22.4803   21.5619 C   0  0  0  0  0  0  0  0  0  0  0  0
   36.4354   23.8578   21.4449 C   0  0  0  0  0  0  0  0  0  0  0  0
   37.5495   24.4543   21.8584 N   0  0  0  0  0  0  0  0  0  0  0  0
   37.1097   21.5201   22.0482 N   0  0  0  0  0  0  0  0  0  0  0  0
   36.4909   20.3227   21.9309 C   0  0  0  0  0  0  0  0  0  0  0  0
   35.2602   20.5229   21.3607 N   0  0  0  0  0  0  0  0  0  0  0  0
  2  1  1  1  0  0  0
  2  3  1  0  0  0  0
  2  5  1  0  0  0  0
  3  4  1  0  0  0  0
  3 16  1  0  0  0  0
  5  6  1  0  0  0  0
  6  7  1  0  0  0  0
  7  8  1  0  0  0  0
  9  8  1  6  0  0  0
  9 10  1  0  0  0  0
  9 11  1  0  0  0  0
 10 15  1  0  0  0  0
 11 12  1  1  0  0  0
 11 13  1  0  0  0  0
 13 14  1  1  0  0  0
 13 15  1  0  0  0  0
 15 26  1  6  0  0  0
 17 18  2  0  0  0  0
 17 22  1  0  0  0  0
 18 19  1  0  0  0  0
 19 20  2  0  0  0  0
 20 21  1  0  0  0  0
 20 26  1  0  0  0  0
 21 22  2  0  0  0  0
 21 24  1  0  0  0  0
 22 23  1  0  0  0  0
 24 25  2  0  0  0  0
 25 26  1  0  0  0  0
M  END
>  <CHROM.1>
4.34961449,-62.98225049,-179.55197778,-165.73486020,90.89196946,-55.89332573
83.70996757,35.33988806,21.38913553,19.86236888,-0.06758405,-0.55159169,-1.98413473

>  <Name>
ligand

>  <RI>
0

>  <Rbt.Current_Directory>
/home/itssahil/PROJECTS/Mol_Feturizer/New_Systems/rnas/3NPQ

>  <Rbt.Executable>
rbdock ($Id: //depot/dev/client3/rdock/2013.1/src/exe/rbdock.cxx#4 $)

>  <Rbt.Library>
libRbt.so (2013.1, Build901 2013/11/27)

>  <Rbt.Parameter_File>
/export/apps/rDock/src/rDock_2013.1_src/data/scripts/dock_solv.prm

>  <Rbt.Receptor>
prm/blind_docking_100.prm

>  <SCORE>
-12.9969

>  <SCORE.INTER>
-8.20265

>  <SCORE.INTER.CONST>
1

>  <SCORE.INTER.POLAR>
0

>  <SCORE.INTER.ROT>
7

>  <SCORE.INTER.SOLV>
13.2724

>  <SCORE.INTER.VDW>
-18.1592

>  <SCORE.INTER.norm>
-0.315487

>  <SCORE.INTRA>
-4.7981

>  <SCORE.INTRA.DIHEDRAL>
-2.62924

>  <SCORE.INTRA.DIHEDRAL.0>
6.97628

>  <SCORE.INTRA.POLAR>
0

>  <SCORE.INTRA.POLAR.0>
0

>  <SCORE.INTRA.REPUL>
0

>  <SCORE.INTRA.REPUL.0>
0

>  <SCORE.INTRA.SOLV>
0.751586

>  <SCORE.INTRA.SOLV.lig_0>
-49.8243

>  <SCORE.INTRA.VDW>
-3.85928

>  <SCORE.INTRA.VDW.0>
-1.35881

>  <SCORE.INTRA.norm>
-0.184542

>  <SCORE.RESTR>
0.00388279

>  <SCORE.RESTR.CAVITY>
0.00388279

>  <SCORE.RESTR.norm>
0.000149338

>  <SCORE.SYSTEM>
0

>  <SCORE.SYSTEM.CONST>
0

>  <SCORE.SYSTEM.DIHEDRAL>
0

>  <SCORE.SYSTEM.SOLV>
0

>  <SCORE.SYSTEM.norm>
0

>  <SCORE.heavy>
26

>  <SCORE.norm>
-0.49988

>  <RMSD>
17.077

$$$$
