@<TRIPOS>MOLECULE
3NPQ_rdock.pdb
 1056 1181 0 0 0
SMALL
GASTEIGER

@<TRIPOS>ATOM
      1  P         42.0680   25.2180   20.0230 P.3     1  G1          0.1280
      2  C5'       42.9160   22.9650   21.0620 C.3     1  G1          0.1795
      3  O5'       42.0030   24.0550   21.1210 O.3     1  G1         -0.3259
      4  C4'       43.0460   22.2900   22.4160 C.3     1  G1          0.1772
      5  O4'       43.5060   23.2620   23.3900 O.3     1  G1         -0.3307
      6  C3'       41.7520   21.7270   22.9900 C.3     1  G1          0.1860
      7  O3'       41.5800   20.3750   22.5830 O.3     1  G1         -0.3112
      8  C2'       42.0030   21.8220   24.4900 C.3     1  G1          0.2309
      9  O2'       42.8140   20.7670   24.9670 O.3     1  G1         -0.2156
     10  C1'       42.7530   23.1450   24.5820 C.3     1  G1          0.2408
     11  N1        39.3950   25.6380   27.4770 N.ar    1  G1         -0.1709
     12  C2        40.0770   24.4750   27.7420 C.ar    1  G1          0.2606
     13  N2        39.8350   23.9010   28.9290 N.pl3   1  G1         -0.0859
     14  N3        40.9370   23.9120   26.9030 N.ar    1  G1         -0.1918
     15  C4        41.0590   24.6230   25.7570 C.ar    1  G1          0.1723
     16  C5        40.4250   25.7910   25.4000 C.ar    1  G1          0.1748
     17  C6        39.5100   26.3810   26.3040 C.ar    1  G1          0.3023
     18  O6        38.8500   27.4190   26.1610 O.2     1  G1         -0.2633
     19  N7        40.8240   26.2030   24.1350 N.ar    1  G1         -0.2173
     20  C8        41.6780   25.2920   23.7590 C.ar    1  G1          0.1817
     21  N9        41.8720   24.3030   24.6920 N.ar    1  G1         -0.2693
     22  OP1       42.8930   24.7580   18.8830 O.3     1  G1         -0.1955
     23  OP2       40.6910   25.7080   19.7910 O.co2   1  G1         -0.7863
     24  P         40.2150   19.9170   21.8850 P.3     2  G2          0.2141
     25  C5'       39.5320   18.3680   23.8920 C.3     2  G2          0.1812
     26  O5'       39.2750   19.5390   23.1240 O.3     2  G2         -0.3114
     27  C4'       38.8010   18.4120   25.2230 C.3     2  G2          0.1773
     28  O4'       39.2750   19.5470   25.9930 O.3     2  G2         -0.3307
     29  C3'       37.2910   18.6010   25.1360 C.3     2  G2          0.1860
     30  O3'       36.6270   17.3490   25.0300 O.3     2  G2         -0.3112
     31  C2'       37.0020   19.2610   26.4770 C.3     2  G2          0.2309
     32  O2'       37.0550   18.3430   27.5500 O.3     2  G2         -0.2156
     33  C1'       38.1720   20.2310   26.5540 C.3     2  G2          0.2408
     34  N1        35.2500   24.3430   25.9210 N.ar    2  G2         -0.1709
     35  C2        35.1430   23.3320   26.8460 C.ar    2  G2          0.2606
     36  N2        34.1250   23.4300   27.7110 N.pl3   2  G2         -0.0859
     37  N3        35.9690   22.2980   26.9210 N.ar    2  G2         -0.1918
     38  C4        36.9330   22.3620   25.9710 C.ar    2  G2          0.1723
     39  C5        37.1270   23.3250   25.0060 C.ar    2  G2          0.1748
     40  C6        36.2360   24.4210   24.9410 C.ar    2  G2          0.3023
     41  O6        36.2540   25.3730   24.1490 O.2     2  G2         -0.2633
     42  N7        38.2330   23.0250   24.2220 N.ar    2  G2         -0.2173
     43  C8        38.6780   21.9060   24.7190 C.ar    2  G2          0.1817
     44  N9        37.9420   21.4470   25.7830 N.ar    2  G2         -0.2693
     45  OP1       40.4880   18.6720   21.1330 O.2     2  G2         -0.5172
     46  OP2       39.6450   21.0930   21.1900 O.co2   2  G2         -0.4373
     47  P         35.2410   17.2510   24.2350 P.3     3  A3          0.2141
     48  C5'       33.8820   17.6680   26.4400 C.3     3  A3          0.1812
     49  O5'       34.2310   18.1080   25.1330 O.3     3  A3         -0.3114
     50  C4'       32.8350   18.5770   27.0590 C.3     3  A3          0.1773
     51  O4'       33.3680   19.9160   27.2160 O.3     3  A3         -0.3307
     52  C3'       31.5810   18.7860   26.2250 C.3     3  A3          0.1860
     53  O3'       30.6780   17.7030   26.3870 O.3     3  A3         -0.3112
     54  C2'       31.0410   20.0690   26.8440 C.3     3  A3          0.2309
     55  O2'       30.4240   19.8490   28.0960 O.3     3  A3         -0.2156
     56  C1'       32.3290   20.8610   27.0300 C.3     3  A3          0.2408
     57  N1        31.3910   25.2720   24.5550 N.ar    3  A3         -0.2040
     58  C2        30.8900   24.7570   25.6830 C.ar    3  A3          0.2016
     59  N3        31.1790   23.6000   26.2740 N.ar    3  A3         -0.2048
     60  C4        32.1050   22.9260   25.5760 C.ar    3  A3          0.1692
     61  C5        32.7130   23.3250   24.4010 C.ar    3  A3          0.1518
     62  C6        32.3210   24.5720   23.8740 C.ar    3  A3          0.1919
     63  N6        32.8220   25.0860   22.7460 N.pl3   3  A3         -0.1054
     64  N7        33.6190   22.3710   23.9690 N.ar    3  A3         -0.2193
     65  C8        33.5430   21.4280   24.8790 C.ar    3  A3          0.1816
     66  N9        32.6500   21.6990   25.8780 N.ar    3  A3         -0.2693
     67  OP1       34.8110   15.8360   24.2490 O.3     3  A3         -0.4373
     68  OP2       35.4110   17.9570   22.9460 O.co2   3  A3         -0.5172
     69  P         29.8090   17.2230   25.1330 P.3     4  C4          0.2141
     70  C5'       27.7780   18.5680   26.0880 C.3     4  C4          0.1812
     71  O5'       28.6910   18.3610   25.0190 O.3     4  C4         -0.3114
     72  C4'       27.0590   19.8960   25.9370 C.3     4  C4          0.1773
     73  O4'       28.0070   20.9880   26.0520 O.3     4  C4         -0.3307
     74  C3'       26.4140   20.1370   24.5820 C.3     4  C4          0.1860
     75  O3'       25.1740   19.4580   24.4690 O.3     4  C4         -0.3112
     76  C2'       26.2340   21.6470   24.6500 C.3     4  C4          0.2309
     77  O2'       25.2060   22.0280   25.5420 O.3     4  C4         -0.2156
     78  C1'       27.5940   22.0490   25.2090 C.3     4  C4          0.2420
     79  N1        28.6110   22.2550   24.1390 N.ar    4  C4         -0.2535
     80  C2        28.6500   23.4780   23.4650 C.ar    4  C4          0.3532
     81  O2        27.8430   24.3600   23.7790 O.2     4  C4         -0.2443
     82  N3        29.5720   23.6630   22.4890 N.ar    4  C4         -0.1739
     83  C4        30.4240   22.6830   22.1820 C.ar    4  C4          0.1759
     84  N4        31.3160   22.9120   21.2130 N.pl3   4  C4         -0.1070
     85  C5        30.3990   21.4270   22.8570 C.ar    4  C4          0.0566
     86  C6        29.4850   21.2580   23.8180 C.ar    4  C4          0.0850
     87  OP1       29.1590   15.9430   25.4930 O.3     4  C4         -0.4373
     88  OP2       30.6650   17.3070   23.9290 O.co2   4  C4         -0.5172
     89  P         24.7280   18.8980   23.0390 P.3     5  G5          0.2141
     90  C5'       23.1850   20.9980   22.8060 C.3     5  G5          0.1812
     91  O5'       24.2450   20.2160   22.2720 O.3     5  G5         -0.3114
     92  C4'       23.0990   22.3440   22.1100 C.3     5  G5          0.1773
     93  O4'       24.3170   23.0960   22.3380 O.3     5  G5         -0.3307
     94  C3'       22.9870   22.2850   20.5950 C.3     5  G5          0.1860
     95  O3'       21.6440   22.0460   20.1990 O.3     5  G5         -0.3112
     96  C2'       23.4430   23.6910   20.2210 C.3     5  G5          0.2309
     97  O2'       22.4330   24.6600   20.4210 O.3     5  G5         -0.2156
     98  C1'       24.5840   23.9100   21.2110 C.3     5  G5          0.2408
     99  N1        28.3390   25.2550   18.0610 N.ar    5  G5         -0.1709
    100  C2        27.1620   25.9080   18.3440 C.ar    5  G5          0.2606
    101  N2        26.9550   27.0700   17.7080 N.pl3   5  G5         -0.0859
    102  N3        26.2490   25.4550   19.1930 N.ar    5  G5         -0.1918
    103  C4        26.6170   24.2730   19.7450 C.ar    5  G5          0.1723
    104  C5        27.7650   23.5460   19.5280 C.ar    5  G5          0.1748
    105  C6        28.7310   24.0410   18.6200 C.ar    5  G5          0.3023
    106  O6        29.8150   23.5330   18.2980 O.2     5  G5         -0.2633
    107  N7        27.7620   22.3850   20.2910 N.ar    5  G5         -0.2173
    108  C8        26.6330   22.4320   20.9430 C.ar    5  G5          0.1817
    109  N9        25.8880   23.5510   20.6620 N.ar    5  G5         -0.2693
    110  OP1       23.5660   18.0050   23.2420 O.3     5  G5         -0.4373
    111  OP2       25.9390   18.3940   22.3530 O.co2   5  G5         -0.5172
    112  P         21.3530   21.1640   18.8960 P.3     6  A6          0.2141
    113  C5'       20.9630   23.3800   17.5650 C.3     6  A6          0.1812
    114  O5'       21.6970   22.1700   17.7010 O.3     6  A6         -0.3114
    115  C4'       21.5930   24.2890   16.5250 C.3     6  A6          0.1773
    116  O4'       22.8620   24.8000   17.0060 O.3     6  A6         -0.3307
    117  C3'       21.9520   23.6180   15.2100 C.3     6  A6          0.1860
    118  O3'       20.8080   23.4970   14.3770 O.3     6  A6         -0.3112
    119  C2'       22.9480   24.6260   14.6510 C.3     6  A6          0.2309
    120  O2'       22.3120   25.7760   14.1290 O.3     6  A6         -0.2156
    121  C1'       23.7360   24.9840   15.9070 C.3     6  A6          0.2408
    122  N1        28.5830   24.0580   14.4520 N.ar    6  A6         -0.2040
    123  C2        27.6960   24.9840   14.0700 C.ar    6  A6          0.2016
    124  N3        26.4460   25.1710   14.4910 N.ar    6  A6         -0.2048
    125  C4        26.1170   24.2620   15.4220 C.ar    6  A6          0.1692
    126  C5        26.9180   23.2510   15.9170 C.ar    6  A6          0.1518
    127  C6        28.2220   23.1590   15.3910 C.ar    6  A6          0.1919
    128  N6        29.1080   22.2330   15.7730 N.pl3   6  A6         -0.1054
    129  N7        26.2380   22.5090   16.8690 N.ar    6  A6         -0.2193
    130  C8        25.0570   23.0790   16.9290 C.ar    6  A6          0.1816
    131  N9        24.9170   24.1440   16.0850 N.ar    6  A6         -0.2693
    132  OP1       19.9060   20.8570   18.8650 O.2     6  A6         -0.5172
    133  OP2       22.3430   20.0640   18.8680 O.co2   6  A6         -0.4373
    134  P         20.6900   22.2580   13.3710 P.3     7  G7          0.2141
    135  C5'       21.5420   23.8280   11.4610 C.3     7  G7          0.1812
    136  O5'       21.7300   22.6370   12.2160 O.3     7  G7         -0.3114
    137  C4'       22.7110   24.0770   10.5250 C.3     7  G7          0.1773
    138  O4'       23.9200   24.3130   11.2860 O.3     7  G7         -0.3307
    139  C3'       23.0740   22.9160    9.6140 C.3     7  G7          0.1860
    140  O3'       22.2170   22.9050    8.4800 O.3     7  G7         -0.3112
    141  C2'       24.5050   23.2790    9.2310 C.3     7  G7          0.2309
    142  O2'       24.5580   24.2170    8.1740 O.3     7  G7         -0.2156
    143  C1'       25.0390   23.9090   10.5170 C.3     7  G7          0.2408
    144  N1        29.7410   22.2530   11.5510 N.ar    7  G7         -0.1709
    145  C2        29.3340   23.2080   10.6500 C.ar    7  G7          0.2606
    146  N2        30.3020   23.7970    9.9330 N.pl3   7  G7         -0.0859
    147  N3        28.0680   23.5610   10.4640 N.ar    7  G7         -0.1918
    148  C4        27.2270   22.8670   11.2690 C.ar    7  G7          0.1723
    149  C5        27.5360   21.8980   12.1970 C.ar    7  G7          0.1748
    150  C6        28.8900   21.5310   12.3850 C.ar    7  G7          0.3023
    151  O6        29.3580   20.6900   13.1650 O.2     7  G7         -0.2633
    152  N7        26.3860   21.4280   12.8190 N.ar    7  G7         -0.2173
    153  C8        25.4210   22.1090   12.2650 C.ar    7  G7          0.1817
    154  N9        25.8570   23.0010   11.3160 N.ar    7  G7         -0.2693
    155  OP1       19.3210   22.2620   12.8070 O.2     7  G7         -0.5172
    156  OP2       21.1960   21.0560   14.0690 O.co2   7  G7         -0.4373
    157  P         22.0010   21.5630    7.6350 P.3     8  G8          0.2141
    158  C5'       20.3520   20.7950    9.5260 C.3     8  G8          0.1812
    159  O5'       21.4930   20.5080    8.7250 O.3     8  G8         -0.3114
    160  C4'       19.2690   19.7460    9.3430 C.3     8  G8          0.1773
    161  O4'       18.6410   19.9120    8.0470 O.3     8  G8         -0.3307
    162  C3'       19.7410   18.3010    9.3370 C.3     8  G8          0.1860
    163  O3'       19.9120   17.8140   10.6600 O.3     8  G8         -0.3112
    164  C2'       18.5600   17.6260    8.6510 C.3     8  G8          0.2309
    165  O2'       17.4580   17.4530    9.5210 O.3     8  G8         -0.2156
    166  C1'       18.2190   18.6470    7.5700 C.3     8  G8          0.2408
    167  N1        18.3420   15.6700    3.4590 N.ar    8  G8         -0.1709
    168  C2        17.4960   15.6290    4.5420 C.ar    8  G8          0.2606
    169  N2        16.5590   14.6710    4.5320 N.pl3   8  G8         -0.0859
    170  N3        17.5620   16.4690    5.5660 N.ar    8  G8         -0.1918
    171  C4        18.5620   17.3690    5.4140 C.ar    8  G8          0.1723
    172  C5        19.4560   17.4920    4.3750 C.ar    8  G8          0.1748
    173  C6        19.3750   16.5900    3.2880 C.ar    8  G8          0.3023
    174  O6        20.0850   16.5430    2.2730 O.2     8  G8         -0.2633
    175  N7        20.3290   18.5490    4.6010 N.ar    8  G8         -0.2173
    176  C8        19.9530   19.0350    5.7520 C.ar    8  G8          0.1817
    177  N9        18.8840   18.3690    6.3010 N.ar    8  G8         -0.2693
    178  OP1       23.3230   21.1270    7.1320 O.3     8  G8         -0.4373
    179  OP2       20.8930   21.8050    6.6840 O.co2   8  G8         -0.5172
    180  P         20.9500   16.6260   10.9320 P.3     9  A9          0.2141
    181  C5'       19.0220   14.8610   10.9720 C.3     9  A9          0.1812
    182  O5'       20.2040   15.3400   10.3420 O.3     9  A9         -0.3114
    183  C4'       18.4880   13.6190   10.2800 C.3     9  A9          0.1773
    184  O4'       17.9890   13.9530    8.9600 O.3     9  A9         -0.3307
    185  C3'       19.5070   12.5200   10.0210 C.3     9  A9          0.1860
    186  O3'       19.7120   11.7460   11.1970 O.3     9  A9         -0.3112
    187  C2'       18.7880   11.7340    8.9320 C.3     9  A9          0.2309
    188  O2'       17.7340   10.9420    9.4420 O.3     9  A9         -0.2156
    189  C1'       18.2320   12.8700    8.0800 C.3     9  A9          0.2408
    190  N1        19.9210   12.2270    3.2530 N.ar    9  A9         -0.2040
    191  C2        18.9740   11.5960    3.9580 C.ar    9  A9          0.2016
    192  N3        18.5800   11.8100    5.2120 N.ar    9  A9         -0.2048
    193  C4        19.2810   12.8100    5.7680 C.ar    9  A9          0.1692
    194  C5        20.2830   13.5520    5.1710 C.ar    9  A9          0.1518
    195  C6        20.6070   13.2290    3.8400 C.ar    9  A9          0.1919
    196  N6        21.5540   13.8660    3.1450 N.pl3   9  A9         -0.1054
    197  N7        20.7810   14.5010    6.0470 N.ar    9  A9         -0.2193
    198  C8        20.0810   14.3180    7.1410 C.ar    9  A9          0.1816
    199  N9        19.1570   13.3150    7.0430 N.ar    9  A9         -0.2693
    200  OP1       21.0750   16.4670   12.3980 O.3     9  A9         -0.4373
    201  OP2       22.1530   16.8760   10.1080 O.co2   9  A9         -0.5172
    202  P         20.7080   10.4930   11.1780 P.3    10  G10         0.2141
    203  C5'       21.8840    9.3660    9.1200 C.3    10  G10         0.1812
    204  O5'       21.3300   10.5390    9.7030 O.3    10  G10        -0.3114
    205  C4'       20.7920    8.4770    8.5510 C.3    10  G10         0.1773
    206  O4'       20.1110    9.1750    7.4780 O.3    10  G10        -0.3307
    207  C3'       21.2920    7.1660    7.9590 C.3    10  G10         0.1860
    208  O3'       21.1630    6.1340    8.9280 O.3    10  G10        -0.3112
    209  C2'       20.3620    6.9300    6.7730 C.3    10  G10         0.2309
    210  O2'       19.1870    6.2340    7.1420 O.3    10  G10        -0.2156
    211  C1'       20.0180    8.3490    6.3340 C.3    10  G10         0.2408
    212  N1        21.6910    7.9720    1.5350 N.ar   10  G10        -0.1709
    213  C2        20.7590    7.2050    2.1920 C.ar   10  G10         0.2606
    214  N2        20.2020    6.2120    1.4820 N.pl3  10  G10        -0.0859
    215  N3        20.3980    7.3950    3.4550 N.ar   10  G10        -0.1918
    216  C4        21.0580    8.4360    4.0170 C.ar   10  G10         0.1723
    217  C5        22.0030    9.2600    3.4460 C.ar   10  G10         0.1748
    218  C6        22.3780    9.0450    2.0990 C.ar   10  G10         0.3023
    219  O6        23.2000    9.6750    1.4210 O.2    10  G10        -0.2633
    220  N7        22.4420   10.2120    4.3560 N.ar   10  G10        -0.2173
    221  C8        21.7680    9.9520    5.4410 C.ar   10  G10         0.1817
    222  N9        20.9090    8.8880    5.3100 N.ar   10  G10        -0.2693
    223  OP1       19.8910    9.2660   11.3040 O.2    10  G10        -0.5172
    224  OP2       21.7880   10.7610   12.1540 O.co2  10  G10        -0.4373
    225  P         22.2540    4.9680    8.9880 P.3    11  C11         0.2141
    226  C5'       23.1900    3.4930    7.0580 C.3    11  C11         0.1812
    227  O5'       22.1460    4.3270    7.5280 O.3    11  C11        -0.3114
    228  C4'       22.8890    2.9850    5.6620 C.3    11  C11         0.1773
    229  O4'       22.1620    3.9920    4.9100 O.3    11  C11        -0.3307
    230  C3'       24.1280    2.6980    4.8290 C.3    11  C11         0.1860
    231  O3'       24.5950    1.3830    5.0780 O.3    11  C11        -0.3112
    232  C2'       23.5790    2.8770    3.4200 C.3    11  C11         0.2309
    233  O2'       22.7440    1.8080    3.0200 O.3    11  C11        -0.2156
    234  C1'       22.7530    4.1400    3.6330 C.3    11  C11         0.2420
    235  N1        23.5710    5.3860    3.6500 N.ar   11  C11        -0.2535
    236  C2        24.2580    5.7930    2.4990 C.ar   11  C11         0.3532
    237  O2        24.1800    5.1110    1.4700 O.2    11  C11        -0.2443
    238  N3        24.9960    6.9310    2.5450 N.ar   11  C11        -0.1739
    239  C4        25.0590    7.6440    3.6710 C.ar   11  C11         0.1759
    240  N4        25.7990    8.7570    3.6690 N.pl3  11  C11        -0.1070
    241  C5        24.3670    7.2460    4.8520 C.ar   11  C11         0.0566
    242  C6        23.6440    6.1240    4.7950 C.ar   11  C11         0.0850
    243  OP1       21.8040    3.9710    9.9850 O.3    11  C11        -0.4373
    244  OP2       23.5890    5.5930    9.1170 O.co2  11  C11        -0.5172
    245  P         26.0850    1.1880    5.6240 P.3    12  G12         0.2141
    246  C5'       26.4930    0.1080    3.2850 C.3    12  G12         0.1812
    247  O5'       26.9180    1.0420    4.2680 O.3    12  G12        -0.3114
    248  C4'       27.1360    0.4100    1.9440 C.3    12  G12         0.1773
    249  O4'       26.5740    1.6220    1.3800 O.3    12  G12        -0.3307
    250  C3'       28.6260    0.6980    2.0010 C.3    12  G12         0.1860
    251  O3'       29.3630   -0.5130    2.0820 O.3    12  G12        -0.3112
    252  C2'       28.8150    1.4030    0.6640 C.3    12  G12         0.2309
    253  O2'       28.7940    0.5090   -0.4310 O.3    12  G12        -0.2156
    254  C1'       27.5760    2.2930    0.6360 C.3    12  G12         0.2408
    255  N1        29.9150    6.7790    0.1210 N.ar   12  G12        -0.1709
    256  C2        29.9280    5.6880   -0.7150 C.ar   12  G12         0.2606
    257  N2        30.6580    5.8030   -1.8340 N.pl3  12  G12        -0.0859
    258  N3        29.2720    4.5600   -0.4740 N.ar   12  G12        -0.1918
    259  C4        28.5890    4.6150    0.6950 C.ar   12  G12         0.1723
    260  C5        28.5130    5.6530    1.5950 C.ar   12  G12         0.1748
    261  C6        29.2180    6.8500    1.3250 C.ar   12  G12         0.3023
    262  O6        29.2690    7.8810    2.0110 O.2    12  G12        -0.2633
    263  N7        27.7060    5.3110    2.6730 N.ar   12  G12        -0.2173
    264  C8        27.3160    4.0950    2.4090 C.ar   12  G12         0.1817
    265  N9        27.8110    3.6090    1.2230 N.ar   12  G12        -0.2693
    266  OP1       26.1450   -0.0880    6.3710 O.3    12  G12        -0.4373
    267  OP2       26.4990    2.4500    6.2790 O.co2  12  G12        -0.5172
    268  P         30.6900   -0.5610    2.9730 P.3    13  C13         0.2141
    269  C5'       31.9850   -0.3960    0.7080 C.3    13  C13         0.1812
    270  O5'       31.7750    0.1200    2.0160 O.3    13  C13        -0.3114
    271  C4'       32.8760    0.5310   -0.0970 C.3    13  C13         0.1773
    272  O4'       32.1660    1.7550   -0.4130 O.3    13  C13        -0.3307
    273  C3'       34.1220    1.0040    0.6330 C.3    13  C13         0.1860
    274  O3'       35.1440    0.0230    0.5540 O.3    13  C13        -0.3112
    275  C2'       34.4610    2.2550   -0.1680 C.3    13  C13         0.2309
    276  O2'       35.0600    1.9540   -1.4130 O.3    13  C13        -0.2156
    277  C1'       33.0700    2.8450   -0.3800 C.3    13  C13         0.2420
    278  N1        32.6560    3.7810    0.7050 N.ar   13  C13        -0.2535
    279  C2        33.1210    5.1000    0.6890 C.ar   13  C13         0.3532
    280  O2        33.8670    5.4640   -0.2280 O.2    13  C13        -0.2443
    281  N3        32.7400    5.9430    1.6800 N.ar   13  C13        -0.1739
    282  C4        31.9340    5.5110    2.6510 C.ar   13  C13         0.1759
    283  N4        31.5860    6.3790    3.6070 N.pl3  13  C13        -0.1070
    284  C5        31.4500    4.1700    2.6850 C.ar   13  C13         0.0566
    285  C6        31.8320    3.3490    1.7020 C.ar   13  C13         0.0850
    286  OP1       31.0550   -1.9800    3.1820 O.2    13  C13        -0.5172
    287  OP2       30.4860    0.3280    4.1380 O.co2  13  C13        -0.4373
    288  P         36.0720   -0.2450    1.8290 P.3    14  U14         0.2141
    289  C5'       38.0070    0.8000    0.4180 C.3    14  U14         0.1812
    290  O5'       37.2540    0.8110    1.6230 O.3    14  U14        -0.3114
    291  C4'       38.7630    2.1050    0.2510 C.3    14  U14         0.1773
    292  O4'       37.8240    3.1880    0.0440 O.3    14  U14        -0.3307
    293  C3'       39.5750    2.5280    1.4640 C.3    14  U14         0.1860
    294  O3'       40.8520    1.9030    1.4360 O.3    14  U14        -0.3112
    295  C2'       39.6810    4.0340    1.2500 C.3    14  U14         0.2309
    296  O2'       40.7190    4.3780    0.3520 O.3    14  U14        -0.2156
    297  C1'       38.3240    4.3730    0.6370 C.3    14  U14         0.2420
    298  N1        37.3280    4.8740    1.6290 N.ar   14  U14        -0.2534
    299  C2        37.3390    6.2070    1.9820 C.ar   14  U14         0.3546
    300  O2        38.1290    7.0120    1.5220 O.2    14  U14        -0.2443
    301  N3        36.3860    6.5700    2.9000 N.ar   14  U14        -0.1530
    302  C4        35.4410    5.7490    3.4880 C.ar   14  U14         0.2846
    303  O4        34.6470    6.2160    4.2980 O.2    14  U14        -0.2650
    304  C5        35.4930    4.3720    3.0700 C.ar   14  U14         0.0814
    305  C6        36.4150    3.9950    2.1760 C.ar   14  U14         0.0870
    306  OP1       36.6220   -1.6140    1.7160 O.2    14  U14        -0.5172
    307  OP2       35.3120    0.1510    3.0360 O.co2  14  U14        -0.4373
    308  P         41.4910    1.3210    2.7820 P.3    15  G15         0.2141
    309  C5'       42.7450    3.6180    2.8460 C.3    15  G15         0.1812
    310  O5'       41.9810    2.6400    3.5400 O.3    15  G15        -0.3114
    311  C4'       42.6880    4.9470    3.5760 C.3    15  G15         0.1773
    312  O4'       41.3040    5.3510    3.7340 O.3    15  G15        -0.3307
    313  C3'       43.2980    4.9240    4.9720 C.3    15  G15         0.1860
    314  O3'       44.0900    6.0870    5.1730 O.3    15  G15        -0.3112
    315  C2'       42.0920    4.8850    5.9070 C.3    15  G15         0.2309
    316  O2'       42.3250    5.5840    7.1130 O.3    15  G15        -0.2156
    317  C1'       41.0090    5.5890    5.0960 C.3    15  G15         0.2408
    318  N1        36.4370    6.5410    7.1410 N.ar   15  G15        -0.1709
    319  C2        37.5400    7.3560    7.0650 C.ar   15  G15         0.2606
    320  N2        37.4100    8.5780    7.5990 N.pl3  15  G15        -0.0859
    321  N3        38.6900    7.0020    6.5040 N.ar   15  G15        -0.1918
    322  C4        38.6440    5.7390    6.0170 C.ar   15  G15         0.1723
    323  C5        37.5920    4.8500    6.0440 C.ar   15  G15         0.1748
    324  C6        36.3720    5.2410    6.6450 C.ar   15  G15         0.3023
    325  O6        35.3270    4.5860    6.7640 O.2    15  G15        -0.2633
    326  N7        37.9440    3.6520    5.4370 N.ar   15  G15        -0.2173
    327  C8        39.1790    3.8360    5.0610 C.ar   15  G15         0.1817
    328  N9        39.6700    5.0790    5.3780 N.ar   15  G15        -0.2693
    329  OP1       42.6730    0.5100    2.4130 O.2    15  G15        -0.5172
    330  OP2       40.4010    0.7180    3.5800 O.co2  15  G15        -0.4373
    331  P         45.6050    5.9230    5.6580 P.3    16  C16         0.2141
    332  C5'       46.5280    8.2810    4.9940 C.3    16  C16         0.1812
    333  O5'       46.0350    7.4210    6.0130 O.3    16  C16        -0.3114
    334  C4'       46.3690    9.7350    5.3960 C.3    16  C16         0.1773
    335  O4'       45.0330   10.1880    5.0640 O.3    16  C16        -0.3307
    336  C3'       46.5030   10.0130    6.8860 C.3    16  C16         0.1860
    337  O3'       47.8670   10.1570    7.2590 O.3    16  C16        -0.3112
    338  C2'       45.7530   11.3340    7.0010 C.3    16  C16         0.2309
    339  O2'       46.5220   12.4310    6.5500 O.3    16  C16        -0.2156
    340  C1'       44.5800   11.0900    6.0570 C.3    16  C16         0.2420
    341  N1        43.3930   10.5030    6.7410 N.ar   16  C16        -0.2535
    342  C2        42.5750   11.3290    7.5160 C.ar   16  C16         0.3532
    343  O2        42.8550   12.5290    7.6140 O.2    16  C16        -0.2443
    344  N3        41.4980   10.7900    8.1370 N.ar   16  C16        -0.1739
    345  C4        41.2320    9.4900    8.0040 C.ar   16  C16         0.1759
    346  N4        40.1590    9.0070    8.6360 N.pl3  16  C16        -0.1070
    347  C5        42.0550    8.6310    7.2180 C.ar   16  C16         0.0566
    348  C6        43.1150    9.1740    6.6110 C.ar   16  C16         0.0850
    349  OP1       46.4000    5.4570    4.5010 O.2    16  C16        -0.5172
    350  OP2       45.5980    5.1370    6.9120 O.co2  16  C16        -0.4373
    351  P         48.3420    9.6720    8.7080 P.3    17  A17         0.2141
    352  C5'       47.9690   12.0600    9.7210 C.3    17  A17         0.1812
    353  O5'       47.6000   10.6860    9.7000 O.3    17  A17        -0.3114
    354  C4'       47.1420   12.8370   10.7310 C.3    17  A17         0.1773
    355  O4'       45.7750   12.9710   10.2660 O.3    17  A17        -0.3307
    356  C3'       46.9950   12.1840   12.0960 C.3    17  A17         0.1860
    357  O3'       48.1430   12.4200   12.8960 O.3    17  A17        -0.3112
    358  C2'       45.7800   12.9290   12.6320 C.3    17  A17         0.2309
    359  O2'       46.1010   14.2280   13.0880 O.3    17  A17        -0.2156
    360  C1'       44.9060   13.0090   11.3840 C.3    17  A17         0.2408
    361  N1        40.4000   11.0700   12.9460 N.ar   17  A17        -0.2040
    362  C2        41.0350   12.2090   13.2480 C.ar   17  A17         0.2016
    363  N3        42.2090   12.6560   12.8050 N.ar   17  A17        -0.2048
    364  C4        42.7580   11.7830   11.9450 C.ar   17  A17         0.1692
    365  C5        42.2280   10.5750   11.5380 C.ar   17  A17         0.1518
    366  C6        40.9780   10.2140   12.0780 C.ar   17  A17         0.1919
    367  N6        40.3480    9.0750   11.7730 N.pl3  17  A17        -0.1054
    368  N7        43.0760    9.9440   10.6420 N.ar   17  A17        -0.2193
    369  C8        44.0870   10.7720   10.5290 C.ar   17  A17         0.1816
    370  N9        43.9600   11.9020   11.2860 N.ar   17  A17        -0.2693
    371  OP1       49.8020    9.8940    8.8020 O.2    17  A17        -0.5172
    372  OP2       47.7870    8.3200    8.9390 O.co2  17  A17        -0.4373
    373  P         48.5830   11.3250   13.9760 P.3    18  A18         0.2141
    374  C5'       47.2930   12.6310   15.8480 C.3    18  A18         0.1812
    375  O5'       47.4390   11.4350   15.0910 O.3    18  A18        -0.3114
    376  C4'       45.9960   12.6230   16.6370 C.3    18  A18         0.1773
    377  O4'       44.8640   12.6350   15.7300 O.3    18  A18        -0.3307
    378  C3'       45.7590   11.3890   17.4930 C.3    18  A18         0.1860
    379  O3'       46.4580   11.4810   18.7260 O.3    18  A18        -0.3112
    380  C2'       44.2530   11.4840   17.6950 C.3    18  A18         0.2309
    381  O2'       43.8940   12.4950   18.6170 O.3    18  A18        -0.2156
    382  C1'       43.8100   11.8710   16.2890 C.3    18  A18         0.2408
    383  N1        40.6280    7.9780   15.1990 N.ar   18  A18        -0.2040
    384  C2        40.5650    8.9560   16.1100 C.ar   18  A18         0.2016
    385  N3        41.4300    9.9420   16.3420 N.ar   18  A18        -0.2048
    386  C4        42.4750    9.8670   15.5020 C.ar   18  A18         0.1692
    387  C5        42.6810    8.9220   14.5160 C.ar   18  A18         0.1518
    388  C6        41.6910    7.9290   14.3700 C.ar   18  A18         0.1919
    389  N6        41.7560    6.9530   13.4590 N.pl3  18  A18        -0.1054
    390  N7        43.8710    9.1620   13.8480 N.ar   18  A18        -0.2193
    391  C8        44.3530   10.2310   14.4360 C.ar   18  A18         0.1816
    392  N9        43.5600   10.7100   15.4420 N.ar   18  A18        -0.2693
    393  OP1       49.8700   11.7600   14.5630 O.3    18  A18        -0.4373
    394  OP2       48.4720    9.9930   13.3420 O.co2  18  A18        -0.5172
    395  P         47.0970   10.1590   19.3620 P.3    19  G19         0.2141
    396  C5'       44.8990    9.7610   20.7370 C.3    19  G19         0.1812
    397  O5'       45.8150    9.2870   19.7570 O.3    19  G19        -0.3114
    398  C4'       43.6990    8.8380   20.8500 C.3    19  G19         0.1773
    399  O4'       42.9590    8.8370   19.6020 O.3    19  G19        -0.3307
    400  C3'       44.0290    7.3720   21.0870 C.3    19  G19         0.1860
    401  O3'       44.2480    7.1190   22.4660 O.3    19  G19        -0.3112
    402  C2'       42.7500    6.7080   20.5950 C.3    19  G19         0.2309
    403  O2'       41.6870    6.8310   21.5190 O.3    19  G19        -0.2156
    404  C1'       42.4660    7.5340   19.3460 C.3    19  G19         0.2408
    405  N1        42.6660    3.7360   15.9700 N.ar   19  G19        -0.1709
    406  C2        41.8260    3.9010   17.0450 C.ar   19  G19         0.2606
    407  N2        40.9220    2.9300   17.2490 N.pl3  19  G19        -0.0859
    408  N3        41.8670    4.9440   17.8640 N.ar   19  G19        -0.1918
    409  C4        42.8350    5.8240   17.5120 C.ar   19  G19         0.1723
    410  C5        43.7210    5.7490   16.4610 C.ar   19  G19         0.1748
    411  C6        43.6660    4.6310   15.5950 C.ar   19  G19         0.3023
    412  O6        44.3730    4.3900   14.6070 O.2    19  G19        -0.2633
    413  N7        44.5590    6.8560   16.4430 N.ar   19  G19        -0.2173
    414  C8        44.1720    7.5670   17.4660 C.ar   19  G19         0.1817
    415  N9        43.1280    7.0030   18.1590 N.ar   19  G19        -0.2693
    416  OP1       47.8110   10.5500   20.5970 O.3    19  G19        -0.4373
    417  OP2       47.8200    9.4440   18.2870 O.co2  19  G19        -0.5172
    418  P         45.4160    6.1150   22.8990 P.3    20  C20         0.2141
    419  C5'       43.6370    4.2210   23.2450 C.3    20  C20         0.1812
    420  O5'       44.8020    4.6750   22.5660 O.3    20  C20        -0.3114
    421  C4'       43.2110    2.8540   22.7380 C.3    20  C20         0.1773
    422  O4'       42.7030    2.9610   21.3840 O.3    20  C20        -0.3307
    423  C3'       44.3270    1.8270   22.6310 C.3    20  C20         0.1860
    424  O3'       44.5890    1.2300   23.8920 O.3    20  C20        -0.3112
    425  C2'       43.7030    0.8390   21.6540 C.3    20  C20         0.2309
    426  O2'       42.7190    0.0240   22.2600 O.3    20  C20        -0.2156
    427  C1'       43.0530    1.7950   20.6590 C.3    20  C20         0.2420
    428  N1        43.9620    2.1740   19.5430 N.ar   20  C20        -0.2535
    429  C2        44.1600    1.2810   18.4850 C.ar   20  C20         0.3532
    430  O2        43.5730    0.1920   18.4990 O.2    20  C20        -0.2443
    431  N3        44.9900    1.6350   17.4730 N.ar   20  C20        -0.1739
    432  C4        45.6040    2.8190   17.4970 C.ar   20  C20         0.1759
    433  N4        46.4140    3.1240   16.4770 N.pl3  20  C20        -0.1070
    434  C5        45.4150    3.7430   18.5670 C.ar   20  C20         0.0566
    435  C6        44.5940    3.3830   19.5590 C.ar   20  C20         0.0850
    436  OP1       45.5780    6.2140   24.3670 O.3    20  C20        -0.4373
    437  OP2       46.5720    6.3620   22.0090 O.co2  20  C20        -0.5172
    438  P         46.1060    0.9830   24.3390 P.3    21  G21         0.2141
    439  C5'       45.8870   -1.5550   23.7470 C.3    21  G21         0.1812
    440  O5'       46.5230   -0.3100   23.4940 O.3    21  G21        -0.3114
    441  C4'       46.2660   -2.5870   22.7000 C.3    21  G21         0.1773
    442  O4'       45.7410   -2.2010   21.4050 O.3    21  G21        -0.3307
    443  C3'       47.7560   -2.7460   22.4390 C.3    21  G21         0.1860
    444  O3'       48.3710   -3.5460   23.4410 O.3    21  G21        -0.3112
    445  C2'       47.7170   -3.4630   21.0960 C.3    21  G21         0.2309
    446  O2'       47.3750   -4.8290   21.2220 O.3    21  G21        -0.2156
    447  C1'       46.5960   -2.7030   20.3930 C.3    21  G21         0.2408
    448  N1        48.4890   -1.2900   15.8960 N.ar   21  G21        -0.1709
    449  C2        48.0920   -2.5350   16.3230 C.ar   21  G21         0.2606
    450  N2        48.2130   -3.5380   15.4410 N.pl3  21  G21        -0.0859
    451  N3        47.6080   -2.7830   17.5330 N.ar   21  G21        -0.1918
    452  C4        47.5530   -1.6640   18.2930 C.ar   21  G21         0.1723
    453  C5        47.9230   -0.3810   17.9600 C.ar   21  G21         0.1748
    454  C6        48.4390   -0.1290   16.6660 C.ar   21  G21         0.3023
    455  O6        48.8210    0.9480   16.1880 O.2    21  G21        -0.2633
    456  N7        47.7090    0.4860   19.0250 N.ar   21  G21        -0.2173
    457  C8        47.2220   -0.2770   19.9650 C.ar   21  G21         0.1817
    458  N9        47.0970   -1.5930   19.5890 N.ar   21  G21        -0.2693
    459  OP1       46.1010    0.6090   25.7710 O.3    21  G21        -0.4373
    460  OP2       46.9100    2.1370   23.8780 O.co2  21  G21        -0.5172
    461  P         49.5520   -2.9360   24.3330 P.3    22  A22         0.2141
    462  C5'       51.2240   -2.7020   22.3340 C.3    22  A22         0.1812
    463  O5'       50.8750   -3.3650   23.5430 O.3    22  A22        -0.3114
    464  C4'       52.4850   -3.2940   21.7310 C.3    22  A22         0.1773
    465  O4'       52.8520   -4.4970   22.4510 O.3    22  A22        -0.3307
    466  C3'       52.3450   -3.6830   20.2660 C.3    22  A22         0.1860
    467  O3'       52.9120   -2.6650   19.4530 O.3    22  A22        -0.3112
    468  C2'       53.1270   -4.9890   20.1470 C.3    22  A22         0.2309
    469  O2'       54.4770   -4.7750   19.7860 O.3    22  A22        -0.2156
    470  C1'       53.0430   -5.5730   21.5550 C.3    22  A22         0.2408
    471  N1        51.0810  -10.1900   20.3630 N.ar   22  A22        -0.2040
    472  C2        52.2030   -9.5710   19.9780 C.ar   22  A22         0.2016
    473  N3        52.6590   -8.3680   20.3240 N.ar   22  A22        -0.2048
    474  C4        51.8140   -7.7660   21.1750 C.ar   22  A22         0.1692
    475  C5        50.6230   -8.2740   21.6590 C.ar   22  A22         0.1518
    476  C6        50.2510   -9.5590   21.2190 C.ar   22  A22         0.1919
    477  N6        49.1270  -10.1720   21.6060 N.pl3  22  A22        -0.1054
    478  N7        50.0180   -7.3710   22.5170 N.ar   22  A22        -0.2193
    479  C8        50.8430   -6.3510   22.5320 C.ar   22  A22         0.1816
    480  N9        51.9470   -6.5210   21.7450 N.ar   22  A22        -0.2693
    481  OP1       49.5480   -3.6400   25.6340 O.3    22  A22        -0.4373
    482  OP2       49.4330   -1.4620   24.2910 O.co2  22  A22        -0.5172
    483  P         51.9610   -1.7150   18.5870 P.3    23  G23         0.2141
    484  C5'       53.0030   -2.9030   16.5080 C.3    23  G23         0.1812
    485  O5'       51.8290   -2.5260   17.2160 O.3    23  G23        -0.3114
    486  C4'       52.8030   -4.2380   15.8170 C.3    23  G23         0.1773
    487  O4'       52.5940   -5.2690   16.8140 O.3    23  G23        -0.3307
    488  C3'       51.5840   -4.3100   14.9100 C.3    23  G23         0.1860
    489  O3'       51.9380   -3.8660   13.6070 O.3    23  G23        -0.3112
    490  C2'       51.2600   -5.8010   14.9220 C.3    23  G23         0.2309
    491  O2'       52.0080   -6.5180   13.9600 O.3    23  G23        -0.2156
    492  C1'       51.6720   -6.2290   16.3300 C.3    23  G23         0.2408
    493  N1        48.3960   -9.3010   18.7340 N.ar   23  G23        -0.1709
    494  C2        49.3880   -9.6190   17.8370 C.ar   23  G23         0.2606
    495  N2        49.5280  -10.9200   17.5430 N.pl3  23  G23        -0.0859
    496  N3        50.1890   -8.7270   17.2690 N.ar   23  G23        -0.1918
    497  C4        49.9100   -7.4650   17.6780 C.ar   23  G23         0.1723
    498  C5        48.9430   -7.0490   18.5660 C.ar   23  G23         0.1748
    499  C6        48.0960   -8.0110   19.1650 C.ar   23  G23         0.3023
    500  O6        47.1790   -7.8290   19.9780 O.2    23  G23        -0.2633
    501  N7        48.9790   -5.6690   18.7200 N.ar   23  G23        -0.2173
    502  C8        49.9490   -5.2850   17.9380 C.ar   23  G23         0.1817
    503  N9        50.5590   -6.3200   17.2730 N.ar   23  G23        -0.2693
    504  OP1       52.6890   -0.4520   18.3300 O.2    23  G23        -0.5172
    505  OP2       50.6310   -1.6860   19.2350 O.co2  23  G23        -0.4373
    506  P         50.8660   -3.1180   12.6850 P.3    24  A24         0.2141
    507  C5'       50.8950   -5.1900   11.0860 C.3    24  A24         0.1812
    508  O5'       50.1420   -4.3270   11.9300 O.3    24  A24        -0.3114
    509  C4'       50.1000   -6.4410   10.7620 C.3    24  A24         0.1773
    510  O4'       49.9810   -7.2600   11.9510 O.3    24  A24        -0.3307
    511  C3'       48.6680   -6.1810   10.3260 C.3    24  A24         0.1860
    512  O3'       48.6160   -5.9500    8.9250 O.3    24  A24        -0.3112
    513  C2'       47.9710   -7.4840   10.7060 C.3    24  A24         0.2309
    514  O2'       48.0960   -8.4760    9.7070 O.3    24  A24        -0.2156
    515  C1'       48.7230   -7.9070   11.9670 C.3    24  A24         0.2408
    516  N1        46.4100   -9.6460   16.2220 N.ar   24  A24        -0.2040
    517  C2        46.9970  -10.2800   15.2000 C.ar   24  A24         0.2016
    518  N3        47.5820   -9.7660   14.1200 N.ar   24  A24        -0.2048
    519  C4        47.5300   -8.4260   14.1430 C.ar   24  A24         0.1692
    520  C5        46.9620   -7.6330   15.1220 C.ar   24  A24         0.1518
    521  C6        46.3740   -8.2980   16.2160 C.ar   24  A24         0.1919
    522  N6        45.7890   -7.6620   17.2360 N.pl3  24  A24        -0.1054
    523  N7        47.0990   -6.2910   14.8070 N.ar   24  A24        -0.2193
    524  C8        47.7360   -6.3010   13.6600 C.ar   24  A24         0.1816
    525  N9        48.0270   -7.5550   13.2010 N.ar   24  A24        -0.2693
    526  OP1       51.6090   -2.3100   11.6920 O.2    24  A24        -0.5172
    527  OP2       49.8730   -2.4680   13.5680 O.co2  24  A24        -0.4373
    528  P         47.6080   -4.8490    8.3530 P.3    25  G25         0.2141
    529  C5'       45.0280   -4.8440    8.7890 C.3    25  G25         0.1812
    530  O5'       46.1920   -5.5860    8.4520 O.3    25  G25        -0.3114
    531  C4'       44.5170   -5.2440   10.1610 C.3    25  G25         0.1773
    532  O4'       45.5730   -5.0940   11.1440 O.3    25  G25        -0.3307
    533  C3'       43.3730   -4.3950   10.6920 C.3    25  G25         0.1860
    534  O3'       42.1300   -4.8800   10.2060 O.3    25  G25        -0.3112
    535  C2'       43.5120   -4.6130   12.1940 C.3    25  G25         0.2309
    536  O2'       42.9820   -5.8550   12.6130 O.3    25  G25        -0.2156
    537  C1'       45.0280   -4.6050   12.3560 C.3    25  G25         0.2408
    538  N1        45.2220   -0.6580   15.5620 N.ar   25  G25        -0.1709
    539  C2        44.5520   -1.8510   15.6900 C.ar   25  G25         0.2606
    540  N2        43.8410   -2.0180   16.8150 N.pl3  25  G25        -0.0859
    541  N3        44.5750   -2.8170   14.7810 N.ar   25  G25        -0.1918
    542  C4        45.3380   -2.4840   13.7120 C.ar   25  G25         0.1723
    543  C5        46.0430   -1.3220   13.4910 C.ar   25  G25         0.1748
    544  C6        46.0100   -0.3000   14.4690 C.ar   25  G25         0.3023
    545  O6        46.5750    0.8020   14.4480 O.2    25  G25        -0.2633
    546  N7        46.7010   -1.3710   12.2690 N.ar   25  G25        -0.2173
    547  C8        46.3860   -2.5390   11.7820 C.ar   25  G25         0.1817
    548  N9        45.5640   -3.2700   12.6040 N.ar   25  G25        -0.2693
    549  OP1       47.9180   -4.6470    6.9200 O.2    25  G25        -0.5172
    550  OP2       47.6180   -3.6960    9.2800 O.co2  25  G25        -0.4373
    551  P         41.0040   -3.8420    9.7420 P.3    26  C26         0.2141
    552  C5'       39.8010   -4.2210   12.0370 C.3    26  C26         0.1812
    553  O5'       40.4100   -3.3100   11.1290 O.3    26  C26        -0.3114
    554  C4'       39.5340   -3.5590   13.3770 C.3    26  C26         0.1773
    555  O4'       40.7870   -3.1620   13.9880 O.3    26  C26        -0.3307
    556  C3'       38.7260   -2.2720   13.3160 C.3    26  C26         0.1860
    557  O3'       37.3360   -2.5600   13.2640 O.3    26  C26        -0.3112
    558  C2'       39.1100   -1.6220   14.6400 C.3    26  C26         0.2309
    559  O2'       38.3880   -2.1580   15.7320 O.3    26  C26        -0.2156
    560  C1'       40.5870   -1.9880   14.7550 C.3    26  C26         0.2420
    561  N1        41.5010   -0.9200   14.2560 N.ar   26  C26        -0.2535
    562  C2        41.7500    0.2040   15.0520 C.ar   26  C26         0.3532
    563  O2        41.2070    0.2920   16.1600 O.2    26  C26        -0.2443
    564  N3        42.5830    1.1670   14.5860 N.ar   26  C26        -0.1739
    565  C4        43.1500    1.0360   13.3860 C.ar   26  C26         0.1759
    566  N4        43.9630    2.0120   12.9700 N.pl3  26  C26        -0.1070
    567  C5        42.9090   -0.1010   12.5600 C.ar   26  C26         0.0566
    568  C6        42.0870   -1.0450   13.0300 C.ar   26  C26         0.0850
    569  OP1       39.9530   -4.6010    9.0280 O.2    26  C26        -0.5172
    570  OP2       41.6820   -2.7100    9.0710 O.co2  26  C26        -0.4373
    571  P         36.3770   -1.6790   12.3360 P.3    27  C27         0.2141
    572  C5'       36.0080    0.0720   14.2530 C.3    27  C27         0.1812
    573  O5'       36.5170   -0.2100   12.9550 O.3    27  C27        -0.3114
    574  C4'       36.4960    1.4220   14.7460 C.3    27  C27         0.1773
    575  O4'       37.9370    1.3930   14.9070 O.3    27  C27        -0.3307
    576  C3'       36.2540    2.5860   13.7970 C.3    27  C27         0.1860
    577  O3'       34.9340    3.0910   13.9380 O.3    27  C27        -0.3112
    578  C2'       37.2940    3.5800   14.2990 C.3    27  C27         0.2309
    579  O2'       36.9020    4.2100   15.5030 O.3    27  C27        -0.2156
    580  C1'       38.4780    2.6530   14.5540 C.3    27  C27         0.2420
    581  N1        39.3580    2.4880   13.3610 N.ar   27  C27        -0.2535
    582  C2        40.3440    3.4440   13.0970 C.ar   27  C27         0.3532
    583  O2        40.4680    4.4090   13.8600 O.2    27  C27        -0.2443
    584  N3        41.1380    3.2850   12.0090 N.ar   27  C27        -0.1739
    585  C4        40.9720    2.2300   11.2090 C.ar   27  C27         0.1759
    586  N4        41.7780    2.1160   10.1490 N.pl3  27  C27        -0.1070
    587  C5        39.9720    1.2460   11.4620 C.ar   27  C27         0.0566
    588  C6        39.1960    1.4130   12.5370 C.ar   27  C27         0.0850
    589  OP1       34.9900   -2.1540   12.5390 O.3    27  C27        -0.4373
    590  OP2       36.9580   -1.6570   10.9750 O.co2  27  C27        -0.5172
    591  P         34.1030    3.4930   12.6300 P.3    28  C28         0.2141
    592  C5'       34.9170    5.9710   12.8800 C.3    28  C28         0.1812
    593  O5'       34.8760    4.7870   12.0930 O.3    28  C28        -0.3114
    594  C4'       36.0000    6.9130   12.3860 C.3    28  C28         0.1773
    595  O4'       37.2840    6.2390   12.4330 O.3    28  C28        -0.3307
    596  C3'       35.8690    7.3600   10.9370 C.3    28  C28         0.1860
    597  O3'       34.9820    8.4650   10.8290 O.3    28  C28        -0.3112
    598  C2'       37.3040    7.7720   10.6380 C.3    28  C28         0.2309
    599  O2'       37.6180    9.0350   11.1890 O.3    28  C28        -0.2156
    600  C1'       38.0900    6.6790   11.3560 C.3    28  C28         0.2420
    601  N1        38.4200    5.5150   10.4820 N.ar   28  C28        -0.2535
    602  C2        39.5860    5.5460    9.7120 C.ar   28  C28         0.3532
    603  O2        40.3190    6.5390    9.7730 O.2    28  C28        -0.2443
    604  N3        39.8810    4.4860    8.9190 N.ar   28  C28        -0.1739
    605  C4        39.0630    3.4340    8.8820 C.ar   28  C28         0.1759
    606  N4        39.3950    2.4130    8.0860 N.pl3  28  C28        -0.1070
    607  C5        37.8680    3.3830    9.6590 C.ar   28  C28         0.0566
    608  C6        37.5890    4.4340   10.4370 C.ar   28  C28         0.0850
    609  OP1       32.7440    3.8900   13.0590 O.3    28  C28        -0.4373
    610  OP2       34.2780    2.4120   11.6340 O.co2  28  C28        -0.5172
    611  P         34.1240    8.6650    9.4920 P.3    29  A29         0.2141
    612  C5'       35.1230   11.0670    9.1460 C.3    29  A29         0.1812
    613  O5'       34.9710    9.7380    8.6590 O.3    29  A29        -0.3114
    614  C4'       34.8150   12.0870    8.0630 C.3    29  A29         0.1773
    615  O4'       35.7940   11.9810    6.9960 O.3    29  A29        -0.3307
    616  C3'       33.4440   11.9400    7.4050 C.3    29  A29         0.1860
    617  O3'       32.8070   13.2090    7.3070 O.3    29  A29        -0.3112
    618  C2'       33.7660   11.3760    6.0230 C.3    29  A29         0.2309
    619  O2'       32.8360   11.7890    5.0410 O.3    29  A29        -0.2156
    620  C1'       35.1280   11.9990    5.7520 C.3    29  A29         0.2408
    621  N1        38.7090   12.2310    2.0530 N.ar   29  A29        -0.2040
    622  C2        38.1500   13.1780    2.8140 C.ar   29  A29         0.2016
    623  N3        37.2210   13.0540    3.7610 N.ar   29  A29        -0.2048
    624  C4        36.8560   11.7700    3.9040 C.ar   29  A29         0.1692
    625  C5        37.3400   10.6870    3.1970 C.ar   29  A29         0.1518
    626  C6        38.3210   10.9500    2.2200 C.ar   29  A29         0.1919
    627  N6        38.8780   10.0000    1.4610 N.pl3  29  A29        -0.1054
    628  N7        36.7310    9.5160    3.6160 N.ar   29  A29        -0.2193
    629  C8        35.9030    9.9100    4.5550 C.ar   29  A29         0.1816
    630  N9        35.9260   11.2580    4.7800 N.ar   29  A29        -0.2693
    631  OP1       32.8290    9.2690    9.8740 O.3    29  A29        -0.4373
    632  OP2       34.1510    7.3870    8.7480 O.co2  29  A29        -0.5172
    633  P         31.8610   13.7410    8.4830 P.3    30  G30         0.2141
    634  C5'       32.2480   13.8960   11.0830 C.3    30  G30         0.1812
    635  O5'       32.7540   13.5440    9.7970 O.3    30  G30        -0.3114
    636  C4'       32.6180   15.3240   11.4410 C.3    30  G30         0.1773
    637  O4'       31.7780   16.2540   10.7070 O.3    30  G30        -0.3307
    638  C3'       32.4470   15.6980   12.9110 C.3    30  G30         0.1860
    639  O3'       33.4770   16.6050   13.2640 O.3    30  G30        -0.3112
    640  C2'       31.0940   16.3970   12.9100 C.3    30  G30         0.2309
    641  O2'       30.9260   17.2710   14.0090 O.3    30  G30        -0.2156
    642  C1'       31.2470   17.1890   11.6210 C.3    30  G30         0.2408
    643  N1        29.2020   20.7180    8.6120 N.ar   30  G30        -0.1709
    644  C2        30.5240   20.4710    8.9010 C.ar   30  G30         0.2606
    645  N2        31.4270   21.2670    8.3130 N.pl3  30  G30        -0.0859
    646  N3        30.9370   19.5080    9.7130 N.ar   30  G30        -0.1918
    647  C4        29.9000   18.8010   10.2200 C.ar   30  G30         0.1723
    648  C5        28.5530   18.9670    9.9950 C.ar   30  G30         0.1748
    649  C6        28.1250   20.0000    9.1260 C.ar   30  G30         0.3023
    650  O6        26.9680   20.3030    8.8020 O.2    30  G30        -0.2633
    651  N7        27.8190   18.0290   10.7100 N.ar   30  G30        -0.2173
    652  C8        28.7200   17.3270   11.3410 C.ar   30  G30         0.1817
    653  N9        30.0050   17.7410   11.0890 N.ar   30  G30        -0.2693
    654  OP1       30.6910   12.8380    8.5610 O.3    30  G30        -0.4373
    655  OP2       31.6590   15.1910    8.2720 O.co2  30  G30        -0.5172
    656  P         34.0010   16.7300   14.7690 P.3    31  G31         0.2141
    657  C5'       36.4670   17.3640   15.4060 C.3    31  G31         0.1812
    658  O5'       35.5830   16.6620   14.5480 O.3    31  G31        -0.3114
    659  C4'       37.7540   17.6630   14.6610 C.3    31  G31         0.1773
    660  O4'       38.2820   16.4140   14.1500 O.3    31  G31        -0.3307
    661  C3'       37.6050   18.5780   13.4510 C.3    31  G31         0.1860
    662  O3'       38.7350   19.4300   13.3450 O.3    31  G31        -0.3112
    663  C2'       37.5400   17.6150   12.2700 C.3    31  G31         0.2309
    664  O2'       38.0610   18.1770   11.0820 O.3    31  G31        -0.2156
    665  C1'       38.4450   16.4880   12.7480 C.3    31  G31         0.2408
    666  N1        40.0560   12.6560    9.8220 N.ar   31  G31        -0.1709
    667  C2        40.7000   13.8190   10.1700 C.ar   31  G31         0.2606
    668  N2        41.9350   13.9900    9.6780 N.pl3  31  G31        -0.0859
    669  N3        40.1710   14.7540   10.9480 N.ar   31  G31        -0.1918
    670  C4        38.9230   14.4230   11.3570 C.ar   31  G31         0.1723
    671  C5        38.1970   13.2900   11.0660 C.ar   31  G31         0.1748
    672  C6        38.7730   12.3010   10.2340 C.ar   31  G31         0.3023
    673  O6        38.2790   11.2270    9.8640 O.2    31  G31        -0.2633
    674  N7        36.9520   13.3340   11.6820 N.ar   31  G31        -0.2173
    675  C8        36.9540   14.4710   12.3220 C.ar   31  G31         0.1817
    676  N9        38.1170   15.1870   12.1690 N.ar   31  G31        -0.2693
    677  OP1       33.5920   15.5170   15.5100 O.3    31  G31        -0.4373
    678  OP2       33.6360   18.0720   15.2770 O.co2  31  G31        -0.5172
    679  P         38.6880   20.8990   13.9730 P.3    32  C32         0.2141
    680  C5'       38.8630   21.8670   11.5450 C.3    32  C32         0.1812
    681  O5'       38.1390   21.7910   12.7650 O.3    32  C32        -0.3114
    682  C4'       38.0370   22.6020   10.5080 C.3    32  C32         0.1773
    683  O4'       37.0310   21.7120    9.9600 O.3    32  C32        -0.3307
    684  C3'       37.2660   23.7900   11.0670 C.3    32  C32         0.1860
    685  O3'       38.0540   24.9720   10.9950 O.3    32  C32        -0.3112
    686  C2'       36.0610   23.8570   10.1370 C.3    32  C32         0.2309
    687  O2'       36.3610   24.5050    8.9170 O.3    32  C32        -0.2156
    688  C1'       35.7830   22.3780    9.8900 C.3    32  C32         0.2420
    689  N1        34.8620   21.7600   10.8880 N.ar   32  C32        -0.2535
    690  C2        33.4980   22.0700   10.8600 C.ar   32  C32         0.3532
    691  O2        33.0770   22.8580   10.0060 O.2    32  C32        -0.2443
    692  N3        32.6760   21.4970   11.7730 N.ar   32  C32        -0.1739
    693  C4        33.1690   20.6520   12.6780 C.ar   32  C32         0.1759
    694  N4        32.3190   20.1120   13.5580 N.pl3  32  C32        -0.1070
    695  C5        34.5540   20.3210   12.7230 C.ar   32  C32         0.0566
    696  C6        35.3550   20.8920   11.8180 C.ar   32  C32         0.0850
    697  OP1       40.0740   21.3140   14.2740 O.2    32  C32        -0.5172
    698  OP2       37.6750   20.9010   15.0520 O.co2  32  C32        -0.4373
    699  P         37.9620   26.0580   12.1670 P.3    33  U33         0.2141
    700  C5'       36.3990   27.4220   10.5800 C.3    33  U33         0.1812
    701  O5'       36.5860   26.8060   11.8460 O.3    33  U33        -0.3114
    702  C4'       34.9410   27.7880   10.3840 C.3    33  U33         0.1773
    703  O4'       34.1440   26.5840   10.2560 O.3    33  U33        -0.3307
    704  C3'       34.3100   28.5260   11.5530 C.3    33  U33         0.1860
    705  O3'       34.6110   29.9120   11.4890 O.3    33  U33        -0.3112
    706  C2'       32.8340   28.2550   11.2950 C.3    33  U33         0.2309
    707  O2'       32.3120   29.0730   10.2670 O.3    33  U33        -0.2156
    708  C1'       32.8710   26.7980   10.8390 C.3    33  U33         0.2420
    709  N1        32.6730   25.8230   11.9520 N.ar   33  U33        -0.2534
    710  C2        31.3930   25.5380   12.3770 C.ar   33  U33         0.3546
    711  O2        30.4000   26.0460   11.8880 O.2    33  U33        -0.2443
    712  N3        31.3130   24.6310   13.4040 N.ar   33  U33        -0.1530
    713  C4        32.3650   23.9930   14.0360 C.ar   33  U33         0.2846
    714  O4        32.1390   23.2010   14.9450 O.2    33  U33        -0.2650
    715  C5        33.6700   24.3420   13.5370 C.ar   33  U33         0.0814
    716  C6        33.7710   25.2240   12.5360 C.ar   33  U33         0.0870
    717  OP1       39.0750   27.0140   11.9880 O.2    33  U33        -0.5172
    718  OP2       37.8040   25.3390   13.4510 O.co2  33  U33        -0.4373
    719  P         34.8330   30.7350   12.8440 P.3    34  C34         0.2141
    720  C5'       32.4150   31.6710   12.5370 C.3    34  C34         0.1812
    721  O5'       33.3380   30.9700   13.3590 O.3    34  C34        -0.3114
    722  C4'       30.9880   31.3580   12.9450 C.3    34  C34         0.1773
    723  O4'       30.7400   29.9370   12.7970 O.3    34  C34        -0.3307
    724  C3'       30.6530   31.6380   14.4010 C.3    34  C34         0.1860
    725  O3'       30.3430   33.0140   14.5880 O.3    34  C34        -0.3112
    726  C2'       29.4190   30.7600   14.5690 C.3    34  C34         0.2309
    727  O2'       28.2690   31.3470   13.9930 O.3    34  C34        -0.2156
    728  C1'       29.8230   29.5140   13.7890 C.3    34  C34         0.2420
    729  N1        30.4630   28.4700   14.6400 N.ar   34  C34        -0.2535
    730  C2        29.6600   27.6550   15.4450 C.ar   34  C34         0.3532
    731  O2        28.4340   27.8170   15.4330 O.2    34  C34        -0.2443
    732  N3        30.2490   26.7080   16.2170 N.ar   34  C34        -0.1739
    733  C4        31.5750   26.5650   16.2010 C.ar   34  C34         0.1759
    734  N4        32.1110   25.6180   16.9790 N.pl3  34  C34        -0.1070
    735  C5        32.4100   27.3860   15.3880 C.ar   34  C34         0.0566
    736  C6        31.8180   28.3160   14.6310 C.ar   34  C34         0.0850
    737  OP1       35.4300   32.0410   12.4890 O.2    34  C34        -0.5172
    738  OP2       35.5140   29.8490   13.8140 O.co2  34  C34        -0.4373
    739  P         30.6660   33.7320   15.9820 P.3    35  G35         0.2141
    740  C5'       28.8070   32.4190   17.2330 C.3    35  G35         0.1812
    741  O5'       29.2680   33.6740   16.7580 O.3    35  G35        -0.3114
    742  C4'       27.5160   32.5300   18.0150 C.3    35  G35         0.1773
    743  O4'       27.1640   31.2020   18.4670 O.3    35  G35        -0.3307
    744  C3'       27.6240   33.3070   19.3120 C.3    35  G35         0.1860
    745  O3'       26.3240   33.5140   19.8480 O.3    35  G35        -0.3112
    746  C2'       28.4190   32.3050   20.1410 C.3    35  G35         0.2309
    747  O2'       28.2890   32.5110   21.5330 O.3    35  G35        -0.2156
    748  C1'       27.7600   30.9880   19.7340 C.3    35  G35         0.2408
    749  N1        28.9930   26.3450   21.3930 N.ar   35  G35        -0.1709
    750  C2        27.9360   27.1490   21.7520 C.ar   35  G35         0.2606
    751  N2        27.0940   26.6570   22.6710 N.pl3  35  G35        -0.0859
    752  N3        27.7150   28.3530   21.2450 N.ar   35  G35        -0.1918
    753  C4        28.6560   28.6950   20.3330 C.ar   35  G35         0.1723
    754  C5        29.7450   27.9670   19.9090 C.ar   35  G35         0.1748
    755  C6        29.9690   26.6820   20.4580 C.ar   35  G35         0.3023
    756  O6        30.8850   25.8870   20.2030 O.2    35  G35        -0.2633
    757  N7        30.4690   28.6760   18.9580 N.ar   35  G35        -0.2173
    758  C8        29.8150   29.7960   18.8290 C.ar   35  G35         0.1817
    759  N9        28.7030   29.8780   19.6330 N.ar   35  G35        -0.2693
    760  OP1       31.0030   35.1440   15.7000 O.2    35  G35        -0.5172
    761  OP2       31.6240   32.8750   16.7170 O.co2  35  G35        -0.4373
    762  P         26.0510   34.7170   20.8660 P.3    36  U36         0.2141
    763  C5'       25.5440   32.8010   22.5840 C.3    36  U36         0.1812
    764  O5'       25.1460   34.0350   21.9960 O.3    36  U36        -0.3114
    765  C4'       24.7880   32.5410   23.8740 C.3    36  U36         0.1773
    766  O4'       25.1950   33.5100   24.8730 O.3    36  U36        -0.3307
    767  C3'       23.2750   32.6690   23.7670 C.3    36  U36         0.1860
    768  O3'       22.7060   31.4050   23.4550 O.3    36  U36        -0.3112
    769  C2'       22.8860   33.1170   25.1710 C.3    36  U36         0.2309
    770  O2'       22.7750   32.0290   26.0680 O.3    36  U36        -0.2156
    771  C1'       24.0640   34.0040   25.5630 C.3    36  U36         0.2420
    772  N1        23.8930   35.4420   25.2030 N.ar   36  U36        -0.2534
    773  C2        22.8780   36.1760   25.7810 C.ar   36  U36         0.3546
    774  O2        22.0890   35.7130   26.5850 O.2    36  U36        -0.2443
    775  N3        22.8160   37.4870   25.3790 N.ar   36  U36        -0.1530
    776  C4        23.6490   38.1260   24.4790 C.ar   36  U36         0.2846
    777  O4        23.4700   39.3110   24.2160 O.2    36  U36        -0.2650
    778  C5        24.6840   37.2950   23.9220 C.ar   36  U36         0.0814
    779  C6        24.7640   36.0140   24.2990 C.ar   36  U36         0.0870
    780  OP1       25.2460   35.7340   20.1550 O.2    36  U36        -0.5172
    781  OP2       27.3430   35.1000   21.4750 O.co2  36  U36        -0.4373
    782  P         21.6220   31.2830   22.2840 P.3    37  C37         0.2141
    783  C5'       19.7720   30.9170   24.1070 C.3    37  C37         0.1812
    784  O5'       20.2520   31.6760   23.0080 O.3    37  C37        -0.3114
    785  C4'       18.6660   31.6780   24.8150 C.3    37  C37         0.1773
    786  O4'       19.2360   32.7940   25.5470 O.3    37  C37        -0.3307
    787  C3'       17.6370   32.3090   23.8880 C.3    37  C37         0.1860
    788  O3'       16.6060   31.3840   23.5670 O.3    37  C37        -0.3112
    789  C2'       17.1260   33.4540   24.7530 C.3    37  C37         0.2309
    790  O2'       16.2540   33.0080   25.7720 O.3    37  C37        -0.2156
    791  C1'       18.4350   33.9460   25.3610 C.3    37  C37         0.2420
    792  N1        19.1720   34.9030   24.4850 N.ar   37  C37        -0.2535
    793  C2        18.7690   36.2410   24.4220 C.ar   37  C37         0.3532
    794  O2        17.8010   36.6110   25.0980 O.2    37  C37        -0.2443
    795  N3        19.4510   37.0950   23.6190 N.ar   37  C37        -0.1739
    796  C4        20.4900   36.6580   22.9050 C.ar   37  C37         0.1759
    797  N4        21.1340   37.5350   22.1280 N.pl3  37  C37        -0.1070
    798  C5        20.9170   35.3000   22.9560 C.ar   37  C37         0.0566
    799  C6        20.2360   34.4690   23.7500 C.ar   37  C37         0.0850
    800  OP1       21.5570   29.8650   21.8690 O.3    37  C37        -0.4373
    801  OP2       21.9160   32.3320   21.2830 O.co2  37  C37        -0.5172
    802  P         16.1140   31.2690   22.0490 P.3    38  C38         0.2141
    803  C5'       13.7180   32.0740   22.7360 C.3    38  C38         0.1813
    804  O5'       14.9000   32.3080   21.9800 O.3    38  C38        -0.3114
    805  C4'       12.9240   33.3560   22.9090 C.3    38  C38         0.1801
    806  O4'       13.7690   34.3570   23.5310 O.3    38  C38        -0.3306
    807  C3'       12.4390   34.0050   21.6200 C.3    38  C38         0.2161
    808  O3'       11.1880   33.4560   21.2230 O.3    38  C38        -0.2175
    809  C2'       12.2940   35.4590   22.0510 C.3    38  C38         0.2338
    810  O2'       11.0960   35.6880   22.7650 O.3    38  C38        -0.2155
    811  C1'       13.5000   35.6290   22.9710 C.3    38  C38         0.2421
    812  N1        14.7190   36.1150   22.2610 N.ar   38  C38        -0.2535
    813  C2        14.8410   37.4750   21.9560 C.ar   38  C38         0.3532
    814  O2        13.9320   38.2480   22.2820 O.2    38  C38        -0.2443
    815  N3        15.9520   37.9060   21.3100 N.ar   38  C38        -0.1739
    816  C4        16.9100   37.0410   20.9750 C.ar   38  C38         0.1759
    817  N4        17.9870   37.5160   20.3410 N.pl3  38  C38        -0.1070
    818  C5        16.8050   35.6510   21.2770 C.ar   38  C38         0.0566
    819  C6        15.7040   35.2370   21.9140 C.ar   38  C38         0.0850
    820  OP1       15.5910   29.9000   21.8400 O.3    38  C38        -0.4373
    821  OP2       17.2000   31.7830   21.1850 O.co2  38  C38        -0.5172
    822  P         21.4700   29.5730    6.9700 P.3    44  A44         0.1280
    823  C5'       22.6400   31.8900    6.5980 C.3    44  A44         0.1795
    824  O5'       22.7680   30.5060    6.9020 O.3    44  A44        -0.3259
    825  C4'       24.0090   32.5340    6.4750 C.3    44  A44         0.1772
    826  O4'       24.6160   32.6530    7.7860 O.3    44  A44        -0.3307
    827  C3'       25.0060   31.7380    5.6480 C.3    44  A44         0.1860
    828  O3'       24.8840   32.0810    4.2750 O.3    44  A44        -0.3112
    829  C2'       26.3380   32.2010    6.2270 C.3    44  A44         0.2309
    830  O2'       26.7580   33.4410    5.6920 O.3    44  A44        -0.2156
    831  C1'       25.9960   32.3510    7.7070 C.3    44  A44         0.2408
    832  N1        29.5390   29.3030    9.8680 N.ar   44  A44        -0.2040
    833  C2        29.6480   30.4310    9.1570 C.ar   44  A44         0.2016
    834  N3        28.6840   31.1780    8.6210 N.ar   44  A44        -0.2048
    835  C4        27.4750   30.6540    8.8790 C.ar   44  A44         0.1692
    836  C5        27.2050   29.5030    9.5950 C.ar   44  A44         0.1518
    837  C6        28.3110   28.8000   10.1120 C.ar   44  A44         0.1919
    838  N6        28.2000   27.6730   10.8220 N.pl3  44  A44        -0.1054
    839  N7        25.8410   29.2720    9.6560 N.ar   44  A44        -0.2193
    840  C8        25.3220   30.2740    8.9860 C.ar   44  A44         0.1816
    841  N9        26.2510   31.1460    8.4900 N.ar   44  A44        -0.2693
    842  OP1       20.7010   29.7250    5.7150 O.3    44  A44        -0.1955
    843  OP2       21.8990   28.2290    7.4170 O.co2  44  A44        -0.7863
    844  P         24.9080   30.9270    3.1670 P.3    45  A45         0.2141
    845  C5'       27.4010   31.5650    2.6960 C.3    45  A45         0.1812
    846  O5'       26.4620   30.5660    3.0700 O.3    45  A45        -0.3114
    847  C4'       28.8140   31.0820    2.9560 C.3    45  A45         0.1773
    848  O4'       29.0600   31.0320    4.3850 O.3    45  A45        -0.3307
    849  C3'       29.1000   29.6670    2.4770 C.3    45  A45         0.1860
    850  O3'       29.4440   29.6570    1.0970 O.3    45  A45        -0.3112
    851  C2'       30.2810   29.2970    3.3650 C.3    45  A45         0.2309
    852  O2'       31.4840   29.9130    2.9490 O.3    45  A45        -0.2156
    853  C1'       29.8220   29.8800    4.6970 C.3    45  A45         0.2408
    854  N1        29.7010   26.1050    8.2000 N.ar   45  A45        -0.2040
    855  C2        30.7150   26.7950    7.6650 C.ar   45  A45         0.2016
    856  N3        30.6790   27.7680    6.7550 N.ar   45  A45        -0.2048
    857  C4        29.4160   28.0250    6.3810 C.ar   45  A45         0.1692
    858  C5        28.2720   27.4000    6.8400 C.ar   45  A45         0.1518
    859  C6        28.4430   26.3860    7.8030 C.ar   45  A45         0.1919
    860  N6        27.4270   25.6980    8.3350 N.pl3  45  A45        -0.1054
    861  N7        27.1470   27.9280    6.2290 N.ar   45  A45        -0.2193
    862  C8        27.6270   28.8470    5.4250 C.ar   45  A45         0.1816
    863  N9        28.9890   28.9600    5.4660 N.ar   45  A45        -0.2693
    864  OP1       24.4740   31.5210    1.8840 O.2    45  A45        -0.5172
    865  OP2       24.2010   29.7490    3.7170 O.co2  45  A45        -0.4373
    866  P         29.3730   28.2740    0.2950 P.3    46  C46         0.2141
    867  C5'       30.4090   25.9740    1.0460 C.3    46  C46         0.1812
    868  O5'       30.4550   27.3930    1.0770 O.3    46  C46        -0.3114
    869  C4'       31.3940   25.4190    2.0580 C.3    46  C46         0.1773
    870  O4'       31.0090   25.8420    3.3910 O.3    46  C46        -0.3307
    871  C3'       31.4540   23.9040    2.1610 C.3    46  C46         0.1860
    872  O3'       32.2730   23.3640    1.1340 O.3    46  C46        -0.3112
    873  C2'       32.0970   23.7570    3.5330 C.3    46  C46         0.2309
    874  O2'       33.4770   24.0630    3.5190 O.3    46  C46        -0.2156
    875  C1'       31.3370   24.8210    4.3160 C.3    46  C46         0.2420
    876  N1        30.0890   24.2950    4.9340 N.ar   46  C46        -0.2535
    877  C2        30.1820   23.4730    6.0610 C.ar   46  C46         0.3532
    878  O2        31.3000   23.2070    6.5180 O.2    46  C46        -0.2443
    879  N3        29.0460   22.9920    6.6210 N.ar   46  C46        -0.1739
    880  C4        27.8600   23.3040    6.0950 C.ar   46  C46         0.1759
    881  N4        26.7660   22.8060    6.6810 N.pl3  46  C46        -0.1070
    882  C5        27.7450   24.1390    4.9440 C.ar   46  C46         0.0566
    883  C6        28.8730   24.6080    4.4010 C.ar   46  C46         0.0850
    884  OP1       29.8520   28.5140   -1.0840 O.2    46  C46        -0.5172
    885  OP2       28.0400   27.6740    0.5220 O.co2  46  C46        -0.4373
    886  P         31.8960   21.9520    0.4850 P.3    47  G47         0.2141
    887  C5'       33.5180   20.8070    2.1960 C.3    47  G47         0.1812
    888  O5'       32.2020   20.9200    1.6690 O.3    47  G47        -0.3114
    889  C4'       33.5490   19.8430    3.3670 C.3    47  G47         0.1773
    890  O4'       32.8460   20.4070    4.5040 O.3    47  G47        -0.3307
    891  C3'       32.8400   18.5190    3.1330 C.3    47  G47         0.1860
    892  O3'       33.6600   17.6250    2.3960 O.3    47  G47        -0.3112
    893  C2'       32.6550   18.0590    4.5720 C.3    47  G47         0.2309
    894  O2'       33.8650   17.6230    5.1570 O.3    47  G47        -0.2156
    895  C1'       32.2000   19.3650    5.2150 C.3    47  G47         0.2408
    896  N1        27.6360   17.8260    6.8540 N.ar   47  G47        -0.1709
    897  C2        28.8850   17.3690    7.2020 C.ar   47  G47         0.2606
    898  N2        28.9260   16.3740    8.1000 N.pl3  47  G47        -0.0859
    899  N3        30.0170   17.8520    6.7040 N.ar   47  G47        -0.1918
    900  C4        29.7910   18.8480    5.8140 C.ar   47  G47         0.1723
    901  C5        28.5860   19.3730    5.4030 C.ar   47  G47         0.1748
    902  C6        27.3870   18.8490    5.9410 C.ar   47  G47         0.3023
    903  O6        26.2210   19.1890    5.6950 O.2    47  G47        -0.2633
    904  N7        28.7830   20.3870    4.4740 N.ar   47  G47        -0.2173
    905  C8        30.0790   20.4550    4.3430 C.ar   47  G47         0.1817
    906  N9        30.7550   19.5530    5.1280 N.ar   47  G47        -0.2693
    907  OP1       32.8340   21.6980   -0.6310 O.2    47  G47        -0.5172
    908  OP2       30.4360   21.9390    0.2400 O.co2  47  G47        -0.4373
    909  P         32.9690   16.5910    1.3910 P.3    48  G48         0.2141
    910  C5'       35.2910   16.2780    0.2220 C.3    48  G48         0.1812
    911  O5'       34.1940   15.6870    0.9050 O.3    48  G48        -0.3114
    912  C4'       35.9670   15.2440   -0.6580 C.3    48  G48         0.1773
    913  O4'       36.5840   14.2290    0.1740 O.3    48  G48        -0.3307
    914  C3'       35.0140   14.4880   -1.5730 C.3    48  G48         0.1860
    915  O3'       34.8770   15.1720   -2.8110 O.3    48  G48        -0.3112
    916  C2'       35.7280   13.1530   -1.7400 C.3    48  G48         0.2309
    917  O2'       36.7740   13.2150   -2.6900 O.3    48  G48        -0.2156
    918  C1'       36.2970   12.9430   -0.3410 C.3    48  G48         0.2408
    919  N1        34.0890    8.5520    0.9770 N.ar   48  G48        -0.1709
    920  C2        34.9930    8.8050   -0.0270 C.ar   48  G48         0.2606
    921  N2        35.3580    7.7560   -0.7780 N.pl3  48  G48        -0.0859
    922  N3        35.5060   10.0020   -0.2800 N.ar   48  G48        -0.1918
    923  C4        35.0300   10.9430    0.5700 C.ar   48  G48         0.1723
    924  C5        34.1290   10.7900    1.6000 C.ar   48  G48         0.1748
    925  C6        33.5900    9.5080    1.8600 C.ar   48  G48         0.3023
    926  O6        32.7750    9.1790    2.7340 O.2    48  G48        -0.2633
    927  N7        33.9000   12.0030    2.2380 N.ar   48  G48        -0.2173
    928  C8        34.6540   12.8490    1.5920 C.ar   48  G48         0.1817
    929  N9        35.3690   12.2770    0.5680 N.ar   48  G48        -0.2693
    930  OP1       32.4540   17.3590    0.2360 O.2    48  G48        -0.5172
    931  OP2       32.0520   15.7340    2.1750 O.co2  48  G48        -0.4373
    932  P         33.4620   15.1840   -3.5580 P.3    49  C49         0.2141
    933  C5'       34.3870   13.2530   -5.0690 C.3    49  C49         0.1812
    934  O5'       33.3790   13.7110   -4.1760 O.3    49  C49        -0.3114
    935  C4'       34.1910   11.7800   -5.3730 C.3    49  C49         0.1773
    936  O4'       34.5290   10.9870   -4.2070 O.3    49  C49        -0.3307
    937  C3'       32.7560   11.3920   -5.6920 C.3    49  C49         0.1860
    938  O3'       32.4690   11.6210   -7.0650 O.3    49  C49        -0.3112
    939  C2'       32.7660    9.9070   -5.3500 C.3    49  C49         0.2309
    940  O2'       33.3710    9.1240   -6.3590 O.3    49  C49        -0.2156
    941  C1'       33.6260    9.9020   -4.0890 C.3    49  C49         0.2420
    942  N1        32.8360   10.0690   -2.8350 N.ar   49  C49        -0.2535
    943  C2        32.1960    8.9600   -2.2720 C.ar   49  C49         0.3532
    944  O2        32.2990    7.8590   -2.8270 O.2    49  C49        -0.2443
    945  N3        31.4800    9.1230   -1.1320 N.ar   49  C49        -0.1739
    946  C4        31.3930   10.3270   -0.5640 C.ar   49  C49         0.1759
    947  N4        30.6760   10.4400    0.5590 N.pl3  49  C49        -0.1070
    948  C5        32.0380   11.4700   -1.1230 C.ar   49  C49         0.0566
    949  C6        32.7410   11.2960   -2.2470 C.ar   49  C49         0.0850
    950  OP1       33.5380   16.1660   -4.6630 O.2    49  C49        -0.5172
    951  OP2       32.4040   15.3070   -2.5310 O.co2  49  C49        -0.4373
    952  P         30.9520   11.8640   -7.5080 P.3    50  G50         0.2141
    953  C5'       28.9320   10.2020   -7.4680 C.3    50  G50         0.1812
    954  O5'       30.3400   10.3880   -7.4490 O.3    50  G50        -0.3114
    955  C4'       28.5890    8.7270   -7.3750 C.3    50  G50         0.1773
    956  O4'       29.5030    8.0740   -6.4570 O.3    50  G50        -0.3307
    957  C3'       27.1930    8.4380   -6.8410 C.3    50  G50         0.1860
    958  O3'       26.2740    8.2990   -7.9130 O.3    50  G50        -0.3112
    959  C2'       27.3980    7.1230   -6.1000 C.3    50  G50         0.2309
    960  O2'       27.4520    6.0130   -6.9740 O.3    50  G50        -0.2156
    961  C1'       28.7650    7.3710   -5.4780 C.3    50  G50         0.2408
    962  N1        27.0440    7.8110   -0.7060 N.ar   50  G50        -0.1709
    963  C2        26.8680    6.7820   -1.6000 C.ar   50  G50         0.2606
    964  N2        26.1420    5.7390   -1.1700 N.pl3  50  G50        -0.0859
    965  N3        27.3670    6.7740   -2.8290 N.ar   50  G50        -0.1918
    966  C4        28.0700    7.9020   -3.0940 C.ar   50  G50         0.1723
    967  C5        28.3000    8.9810   -2.2710 C.ar   50  G50         0.1748
    968  C6        27.7630    8.9760   -0.9630 C.ar   50  G50         0.3023
    969  O6        27.8670    9.8500   -0.0920 O.2    50  G50        -0.2633
    970  N7        29.0700    9.9400   -2.9160 N.ar   50  G50        -0.2173
    971  C8        29.2860    9.4330   -4.0970 C.ar   50  G50         0.1817
    972  N9        28.7110    8.1980   -4.2760 N.ar   50  G50        -0.2693
    973  OP1       30.9550   12.3320   -8.9120 O.2    50  G50        -0.5172
    974  OP2       30.2930   12.6730   -6.4580 O.co2  50  G50        -0.4373
    975  P         24.8990    9.1150   -7.8760 P.3    51  C51         0.2141
    976  C5'       23.7390    6.8620   -7.2080 C.3    51  C51         0.1812
    977  O5'       23.9870    8.2290   -6.9050 O.3    51  C51        -0.3114
    978  C4'       22.9940    6.1920   -6.0690 C.3    51  C51         0.1773
    979  O4'       23.8800    6.0370   -4.9310 O.3    51  C51        -0.3307
    980  C3'       21.8160    6.9870   -5.5270 C.3    51  C51         0.1860
    981  O3'       20.6480    6.7440   -6.2980 O.3    51  C51        -0.3112
    982  C2'       21.7050    6.4150   -4.1210 C.3    51  C51         0.2309
    983  O2'       21.1420    5.1180   -4.1100 O.3    51  C51        -0.2156
    984  C1'       23.1800    6.3530   -3.7410 C.3    51  C51         0.2420
    985  N1        23.7000    7.6470   -3.2110 N.ar   51  C51        -0.2535
    986  C2        23.2500    8.1210   -1.9730 C.ar   51  C51         0.3532
    987  O2        22.4250    7.4570   -1.3330 O.2    51  C51        -0.2443
    988  N3        23.7340    9.2990   -1.5060 N.ar   51  C51        -0.1739
    989  C4        24.6230    9.9890   -2.2230 C.ar   51  C51         0.1759
    990  N4        25.0700   11.1450   -1.7210 N.pl3  51  C51        -0.1070
    991  C5        25.0930    9.5230   -3.4870 C.ar   51  C51         0.0566
    992  C6        24.6100    8.3600   -3.9370 C.ar   51  C51         0.0850
    993  OP1       24.3170    9.0930   -9.2360 O.2    51  C51        -0.5172
    994  OP2       25.1600   10.4080   -7.2040 O.co2  51  C51        -0.4373
    995  P         19.6360    7.9490   -6.5860 P.3    52  U52         0.2141
    996  C5'       17.9900    6.9230   -4.8290 C.3    52  U52         0.1812
    997  O5'       18.7820    8.0320   -5.2360 O.3    52  U52        -0.3114
    998  C4'       17.5030    7.0850   -3.4010 C.3    52  U52         0.1773
    999  O4'       18.6320    7.0900   -2.4900 O.3    52  U52        -0.3307
   1000  C3'       16.7850    8.3910   -3.1010 C.3    52  U52         0.1860
   1001  O3'       15.4240    8.3220   -3.4970 O.3    52  U52        -0.3112
   1002  C2'       16.9210    8.4430   -1.5840 C.3    52  U52         0.2309
   1003  O2'       16.0090    7.5810   -0.9330 O.3    52  U52        -0.2156
   1004  C1'       18.3480    7.9400   -1.3940 C.3    52  U52         0.2420
   1005  N1        19.3540    9.0400   -1.3600 N.ar   52  U52        -0.2534
   1006  C2        19.6000    9.6910   -0.1690 C.ar   52  U52         0.3546
   1007  O2        19.0340    9.4130    0.8730 O.2    52  U52        -0.2443
   1008  N3        20.5410   10.6890   -0.2420 N.ar   52  U52        -0.1530
   1009  C4        21.2430   11.0910   -1.3630 C.ar   52  U52         0.2846
   1010  O4        22.0590   12.0030   -1.2790 O.2    52  U52        -0.2650
   1011  C5        20.9300   10.3640   -2.5660 C.ar   52  U52         0.0814
   1012  C6        20.0170    9.3880   -2.5190 C.ar   52  U52         0.0870
   1013  OP1       18.7470    7.5420   -7.6970 O.2    52  U52        -0.5172
   1014  OP2       20.4340    9.1910   -6.6970 O.co2  52  U52        -0.4373
   1015  P         14.6090    9.6760   -3.7480 P.3    53  C53         0.2141
   1016  C5'       13.3000    9.2210   -1.5250 C.3    53  C53         0.1812
   1017  O5'       14.1370   10.0920   -2.2760 O.3    53  C53        -0.3114
   1018  C4'       13.2620    9.6320   -0.0640 C.3    53  C53         0.1773
   1019  O4'       14.6010    9.5930    0.4910 O.3    53  C53        -0.3307
   1020  C3'       12.7940   11.0550    0.2000 C.3    53  C53         0.1860
   1021  O3'       11.3770   11.1230    0.2250 O.3    53  C53        -0.3112
   1022  C2'       13.3860   11.2970    1.5830 C.3    53  C53         0.2309
   1023  O2'       12.6480   10.6590    2.6060 O.3    53  C53        -0.2156
   1024  C1'       14.7550   10.6410    1.4310 C.3    53  C53         0.2420
   1025  N1        15.7970   11.5860    0.9400 N.ar   53  C53        -0.2535
   1026  C2        16.3990   12.4690    1.8410 C.ar   53  C53         0.3532
   1027  O2        16.0530   12.4420    3.0280 O.2    53  C53        -0.2443
   1028  N3        17.3450   13.3280    1.3870 N.ar   53  C53        -0.1739
   1029  C4        17.6880   13.3220    0.0980 C.ar   53  C53         0.1759
   1030  N4        18.6250   14.1870   -0.3040 N.pl3  53  C53        -0.1070
   1031  C5        17.0840   12.4300   -0.8370 C.ar   53  C53         0.0566
   1032  C6        16.1530   11.5880   -0.3770 C.ar   53  C53         0.0850
   1033  OP1       13.4160    9.3430   -4.5590 O.2    53  C53        -0.5172
   1034  OP2       15.5650   10.6980   -4.2270 O.co2  53  C53        -0.4373
   1035  P         10.6470   12.4390   -0.3170 P.3    54  A54         0.2141
   1036  C5'       10.4590   13.3190    2.1470 C.3    54  A54         0.1813
   1037  O5'       10.9480   13.5180    0.8250 O.3    54  A54        -0.3114
   1038  C4'       10.9710   14.4010    3.0810 C.3    54  A54         0.1801
   1039  O4'       12.4090   14.2820    3.2260 O.3    54  A54        -0.3306
   1040  C3'       10.7400   15.8270    2.6000 C.3    54  A54         0.2161
   1041  O3'        9.4600   16.2810    3.0200 O.3    54  A54        -0.2175
   1042  C2'       11.8590   16.5840    3.3050 C.3    54  A54         0.2337
   1043  O2'       11.5310   16.9090    4.6420 O.3    54  A54        -0.2155
   1044  C1'       12.9980   15.5680    3.2750 C.3    54  A54         0.2409
   1045  N1        17.0600   18.0220    1.2720 N.ar   54  A54        -0.2040
   1046  C2        16.4480   18.1270    2.4580 C.ar   54  A54         0.2016
   1047  N3        15.3930   17.4570    2.9190 N.ar   54  A54        -0.2048
   1048  C4        14.9490   16.5810    2.0050 C.ar   54  A54         0.1692
   1049  C5        15.4710   16.3590    0.7450 C.ar   54  A54         0.1518
   1050  C6        16.5890   17.1320    0.3740 C.ar   54  A54         0.1919
   1051  N6        17.1980   17.0240   -0.8120 N.pl3  54  A54        -0.1054
   1052  N7        14.7520   15.3780    0.0810 N.ar   54  A54        -0.2193
   1053  C8        13.8240   15.0330    0.9410 C.ar   54  A54         0.1816
   1054  N9        13.8830   15.7180    2.1230 N.ar   54  A54        -0.2693
   1055  OP1        9.1920   12.1680   -0.3520 O.3    54  A54        -0.4373
   1056  OP2       11.3470   12.8690   -1.5470 O.co2  54  A54        -0.5172
@<TRIPOS>BOND
     1   993   975    2
     2   973   952    2
     3   958   975    1
     4   958   957    1
     5   975   994    1
     6   975   977    1
     7  1013   995    2
     8   952   954    1
     9   952   938    1
    10   952   974    1
    11   953   954    1
    12   953   955    1
    13   955   957    1
    14   955   956    1
    15   976   977    1
    16   976   978    1
    17   938   937    1
    18   960   959    1
    19   957   959    1
    20  1014   995    1
    21   995   981    1
    22   995   997    1
    23   956   961    1
    24   940   939    1
    25   981   980    1
    26   959   961    1
    27   978   980    1
    28   978   979    1
    29   937   935    1
    30   937   939    1
    31   980   982    1
    32   961   972    1
    33   935   933    1
    34   935   936    1
    35   939   941    1
    36   997   996    1
    37   933   934    1
    38   979   984    1
    39   996   998    1
    40   950   932    2
    41  1033  1015    2
    42   972   971   ar
    43   972   966   ar
    44  1034  1015    1
    45   936   941    1
    46   934   932    1
    47   982   983    1
    48   982   984    1
    49   971   970   ar
    50   941   942    1
    51   992   991   ar
    52   992   985   ar
    53  1015  1001    1
    54  1015  1017    1
    55   984   985    1
    56   932   915    1
    57   932   951    1
    58  1001  1000    1
    59   991   989   ar
    60   998  1000    1
    61   998   999    1
    62   985   986   ar
    63  1000  1002    1
    64   966   965   ar
    65   966   967   ar
    66   970   967   ar
    67   942   943   ar
    68   942   949   ar
    69   965   963   ar
    70   944   943    2
    71   915   914    1
    72   917   916    1
    73  1011  1012   ar
    74  1011  1009   ar
    75  1012  1005   ar
    76   999  1004    1
    77  1017  1016    1
    78   943   945   ar
    79   967   968   ar
    80   949   948   ar
    81   989   990    1
    82   989   988   ar
    83   986   988   ar
    84   986   987    2
    85   257   256    1
    86   916   914    1
    87   916   918    1
    88   963   964    1
    89   963   962   ar
    90  1002  1004    1
    91  1002  1003    1
    92   914   912    1
    93  1056  1035    2
    94  1016  1018    1
    95   276   275    1
    96  1004  1005    1
    97  1009  1010    2
    98  1009  1008   ar
    99  1005  1006   ar
   100   945   946   ar
   101   948   946   ar
   102   884   866    2
   103   968   962   ar
   104   968   969    2
   105  1031  1032   ar
   106  1031  1029   ar
   107  1051  1050    1
   108   921   920    1
   109   256   258   ar
   110   256   255   ar
   111   912   913    1
   112   912   910    1
   113   907   886    2
   114   946   947    1
   115   258   259   ar
   116   253   252    1
   117   272   277    1
   118   272   271    1
   119   277   275    1
   120   277   278    1
   121  1032  1025   ar
   122  1055  1035    1
   123   918   913    1
   124   918   929    1
   125  1035  1021    1
   126  1035  1037    1
   127  1030  1029    1
   128   922   920   ar
   129   922   923   ar
   130  1008  1006   ar
   131   280   279    2
   132  1006  1007    2
   133   275   273    1
   134   271   273    1
   135   271   269    1
   136  1018  1020    1
   137  1018  1019    1
   138   920   919   ar
   139   292   291    1
   140   292   297    1
   141  1052  1049   ar
   142  1052  1053   ar
   143  1029  1028   ar
   144   255   261   ar
   145  1020  1021    1
   146  1020  1022    1
   147   910   911    1
   148   930   909    2
   149   908   886    1
   150   291   289    1
   151   291   293    1
   152   866   885    1
   153   866   868    1
   154   866   850    1
   155   296   295    1
   156  1050  1049   ar
   157  1050  1045   ar
   158   289   290    1
   159   886   872    1
   160   886   888    1
   161  1019  1024    1
   162   274   273    1
   163   274   288    1
   164   929   923   ar
   165   929   928   ar
   166   923   924   ar
   167   254   252    1
   168   254   265    1
   169   254   249    1
   170   297   295    1
   171   297   298    1
   172   252   250    1
   173   279   278   ar
   174   279   281   ar
   175   259   265   ar
   176   259   260   ar
   177   278   285   ar
   178   269   270    1
   179  1049  1048   ar
   180  1037  1036    1
   181   911   909    1
   182  1025  1024    1
   183  1025  1026   ar
   184  1053  1054   ar
   185   919   925   ar
   186   867   868    1
   187   867   869    1
   188   850   849    1
   189   872   871    1
   190   265   264   ar
   191   295   293    1
   192  1045  1046   ar
   193   261   260   ar
   194   261   262    2
   195   249   248    1
   196  1028  1026   ar
   197   909   931    1
   198   909   892    1
   199   219   218    2
   200  1024  1022    1
   201   294   293    1
   202   294   308    1
   203   627   626    1
   204   237   236    2
   205   214   213    1
   206   300   299    2
   207   212   218   ar
   208   212   213   ar
   209  1022  1023    1
   210   928   927   ar
   211   260   263   ar
   212   924   925   ar
   213   924   927   ar
   214   290   288    1
   215   298   299   ar
   216   298   305   ar
   217   888   887    1
   218   281   282   ar
   219   285   284   ar
   220   306   288    2
   221   288   307    1
   222  1026  1027    2
   223   925   926    2
   224   864   844    2
   225   248   250    1
   226   248   246    1
   227   299   301   ar
   228   250   251    1
   229  1048  1054   ar
   230  1048  1047   ar
   231   270   268    1
   232   621   626   ar
   233   621   622   ar
   234   869   871    1
   235   869   870    1
   236   251   268    1
   237   218   217   ar
   238  1054  1044    1
   239  1036  1038    1
   240   871   873    1
   241   305   304   ar
   242   213   215   ar
   243   887   889    1
   244   626   625   ar
   245   174   173    2
   246   892   891    1
   247   264   263   ar
   248   329   308    2
   249  1046  1047   ar
   250   849   847    1
   251   849   851    1
   252   236   238   ar
   253   236   235   ar
   254   238   239   ar
   255  1040  1041    1
   256  1040  1038    1
   257  1040  1042    1
   258   282   284   ar
   259   282   283    1
   260   845   847    1
   261   845   846    1
   262   308   310    1
   263   308   330    1
   264   622   623   ar
   265   309   310    1
   266   309   311    1
   267   301   302   ar
   268   852   851    1
   269   847   848    1
   270   268   286    2
   271   268   287    1
   272   233   232    1
   273   304   302   ar
   274   846   844    1
   275  1038  1039    1
   276   891   889    1
   277   891   893    1
   278   196   195    1
   279   844   865    1
   280   844   828    1
   281   625   628   ar
   282   625   624   ar
   283  1039  1044    1
   284   190   195   ar
   285   190   191   ar
   286  1044  1042    1
   287   246   247    1
   288   173   167   ar
   289   173   172   ar
   290  1042  1043    1
   291   851   853    1
   292   889   890    1
   293   870   875    1
   294   232   234    1
   295   232   230    1
   296   217   216   ar
   297   217   220   ar
   298   215   216   ar
   299   167   168   ar
   300   302   303    2
   301   874   873    1
   302   873   875    1
   303   311   312    1
   304   311   313    1
   305   628   629   ar
   306   234   235    1
   307   234   229    1
   308   235   242   ar
   309   240   239    1
   310   239   241   ar
   311   312   317    1
   312   623   624   ar
   313   195   194   ar
   314   624   630   ar
   315   191   192   ar
   316   216   222   ar
   317   247   245    1
   318   828   827    1
   319   875   876    1
   320   905   904   ar
   321   905   906   ar
   322   220   221   ar
   323   172   175   ar
   324   172   171   ar
   325   848   853    1
   326   883   876   ar
   327   883   882   ar
   328   904   901   ar
   329   349   331    2
   330   890   895    1
   331   169   168    1
   332   168   170   ar
   333   629   630   ar
   334   893   894    1
   335   893   895    1
   336   175   176   ar
   337   853   863    1
   338   630   620    1
   339   242   241   ar
   340   230   231    1
   341   230   228    1
   342   229   228    1
   343   876   877   ar
   344   882   880   ar
   345   313   314    1
   346   313   315    1
   347   332   334    1
   348   332   333    1
   349   619   618    1
   350   327   328   ar
   351   327   326   ar
   352   335   334    1
   353   335   340    1
   354   231   245    1
   355   317   328    1
   356   317   315    1
   357   906   895    1
   358   906   900   ar
   359   194   193   ar
   360   194   197   ar
   361   314   331    1
   362   192   193   ar
   363   222   221   ar
   364   222   211    1
   365   328   322   ar
   366   334   336    1
   367   901   900   ar
   368   901   902   ar
   369   171   170   ar
   370   171   177   ar
   371   862   863   ar
   372   862   861   ar
   373   326   323   ar
   374   863   857   ar
   375   245   267    2
   376   245   266    1
   377   827   829    1
   378   827   825    1
   379   331   333    1
   380   331   350    1
   381   228   226    1
   382   830   829    1
   383   903   902    2
   384   842   822    1
   385   620   618    1
   386   620   615    1
   387   176   177   ar
   388   193   199   ar
   389   900   899   ar
   390   315   316    1
   391   902   896   ar
   392   322   323   ar
   393   322   321   ar
   394   618   616    1
   395   323   324   ar
   396   197   198   ar
   397   340   341    1
   398   340   338    1
   399   877   878    2
   400   877   879   ar
   401   880   879   ar
   402   880   881    1
   403   829   831    1
   404   861   858   ar
   405   177   166    1
   406   211   209    1
   407   211   206    1
   408   857   856   ar
   409   857   858   ar
   410   825   823    1
   411   825   826    1
   412   321   319   ar
   413   339   338    1
   414   823   824    1
   415   348   341   ar
   416   348   347   ar
   417   324   325    2
   418   324   318   ar
   419   179   157    2
   420   899   897   ar
   421   341   342   ar
   422   856   855   ar
   423   209   210    1
   424   209   207    1
   425   858   859   ar
   426   896   897   ar
   427   336   338    1
   428   336   337    1
   429   824   822    1
   430   549   528    2
   431   822   843    1
   432   615   614    1
   433   199   198   ar
   434   199   189    1
   435   226   227    1
   436   319   318   ar
   437   319   320    1
   438   178   157    1
   439   897   898    1
   440   347   345   ar
   441   337   351    1
   442   617   616    1
   443   617   633    1
   444   616   614    1
   445   206   205    1
   446   342   343    2
   447   342   344   ar
   448   227   225    1
   449   166   161    1
   450   166   164    1
   451   157   140    1
   452   157   159    1
   453   855   854   ar
   454   831   826    1
   455   831   841    1
   456   859   854   ar
   457   859   860    1
   458   207   205    1
   459   207   208    1
   460   345   344   ar
   461   345   346    1
   462   161   160    1
   463   614   612    1
   464   189   187    1
   465   189   184    1
   466   606   605    1
   467   142   141    1
   468   655   633    2
   469   645   644    1
   470   528   530    1
   471   528   512    1
   472   528   550    1
   473   530   529    1
   474   140   139    1
   475   633   654    1
   476   633   635    1
   477   841   835   ar
   478   841   840   ar
   479   205   203    1
   480   643   644   ar
   481   643   649   ar
   482   834   835   ar
   483   834   833   ar
   484   164   162    1
   485   164   165    1
   486   613   612    1
   487   613   611    1
   488   351   371    2
   489   351   372    1
   490   351   353    1
   491   159   158    1
   492   632   611    2
   493   529   531    1
   494   650   649    2
   495   835   836   ar
   496   605   604   ar
   497   605   607   ar
   498   644   646   ar
   499   687   686    1
   500   604   602   ar
   501   512   511    1
   502   208   225    1
   503   187   188    1
   504   187   185    1
   505   184   183    1
   506   840   839   ar
   507   225   244    2
   508   225   243    1
   509   569   551    2
   510   570   551    1
   511   203   204    1
   512   649   648   ar
   513   833   832   ar
   514   141   139    1
   515   141   143    1
   516   162   160    1
   517   162   163    1
   518   160   158    1
   519   611   631    1
   520   611   597    1
   521   836   839   ar
   522   836   837   ar
   523   139   137    1
   524   607   608   ar
   525   668   667    1
   526   353   352    1
   527   204   202    1
   528   514   513    1
   529   602   603    2
   530   602   601   ar
   531   646   647   ar
   532   352   354    1
   533   551   534    1
   534   551   553    1
   535   635   634    1
   536   666   667   ar
   537   666   672   ar
   538   673   672    2
   539   832   837   ar
   540   688   683    1
   541   688   686    1
   542   688   689    1
   543   146   145    1
   544   683   682    1
   545   648   647   ar
   546   648   651   ar
   547   691   690    2
   548   185   183    1
   549   185   186    1
   550   201   180    2
   551   837   838    1
   552   686   684    1
   553   586   585    1
   554   531   533    1
   555   531   532    1
   556   667   669   ar
   557   534   533    1
   558   647   653   ar
   559   672   671   ar
   560   703   702    1
   561   703   708    1
   562   355   354    1
   563   355   360    1
   564   707   706    1
   565   183   181    1
   566   511   513    1
   567   511   509    1
   568   182   180    1
   569   182   181    1
   570   702   700    1
   571   702   704    1
   572   608   601   ar
   573   147   145   ar
   574   147   148   ar
   575   601   600    1
   576   682   684    1
   577   682   680    1
   578   143   138    1
   579   143   154    1
   580   137   138    1
   581   137   135    1
   582   369   368   ar
   583   369   370   ar
   584   700   701    1
   585   598   596    1
   586   598   599    1
   587   598   600    1
   588   368   365   ar
   589   145   144   ar
   590   163   180    1
   591   533   535    1
   592   513   515    1
   593   637   636    1
   594   637   642    1
   595   651   652   ar
   596   354   356    1
   597   509   507    1
   598   509   510    1
   599   597   596    1
   600   708   706    1
   601   708   709    1
   602   690   689   ar
   603   690   692   ar
   604   689   696   ar
   605   180   200    1
   606   596   594    1
   607   669   670   ar
   608   590   571    2
   609   685   684    1
   610   685   699    1
   611   671   670   ar
   612   671   674   ar
   613   664   663    1
   614   634   636    1
   615   507   508    1
   616   653   652   ar
   617   653   642    1
   618   553   552    1
   619   532   537    1
   620   202   186    1
   621   202   223    2
   622   202   224    1
   623   585   587   ar
   624   585   584   ar
   625   148   154   ar
   626   148   149   ar
   627   370   360    1
   628   370   364   ar
   629   706   704    1
   630   154   153   ar
   631   600   595    1
   632   670   676   ar
   633   360   358    1
   634   636   638    1
   635   135   136    1
   636   587   588   ar
   637   705   704    1
   638   705   719    1
   639   365   364   ar
   640   365   366   ar
   641   680   681    1
   642   144   150   ar
   643   642   640    1
   644   610   591    2
   645   674   675   ar
   646   526   506    2
   647   692   693   ar
   648   367   366    1
   649   547   546   ar
   650   547   548   ar
   651   696   695   ar
   652   701   699    1
   653   711   710    2
   654   508   506    1
   655   364   363   ar
   656   510   515    1
   657   709   710   ar
   658   709   716   ar
   659   515   525    1
   660   717   699    2
   661   584   582   ar
   662   552   554    1
   663   366   361   ar
   664   593   591    1
   665   593   592    1
   666   356   358    1
   667   356   357    1
   668   699   718    1
   669   676   675   ar
   670   676   665    1
   671   535   537    1
   672   535   536    1
   673   149   150   ar
   674   149   152   ar
   675   136   134    1
   676   153   152   ar
   677   546   543   ar
   678   663   665    1
   679   663   661    1
   680   571   589    1
   681   571   573    1
   682   571   557    1
   683   537   548    1
   684   710   712   ar
   685   150   151    2
   686   594   595    1
   687   594   592    1
   688   737   719    2
   689   716   715   ar
   690   720   722    1
   691   720   721    1
   692   588   581   ar
   693   567   568   ar
   694   567   565   ar
   695   548   542   ar
   696   591   609    1
   697   591   577    1
   698   358   359    1
   699   693   695   ar
   700   693   694    1
   701   506   527    1
   702   506   489    1
   703   665   660    1
   704   681   679    1
   705   723   722    1
   706   723   728    1
   707   363   362   ar
   708   155   134    2
   709   719   721    1
   710   719   738    1
   711   357   373    1
   712   640   638    1
   713   640   641    1
   714   638   639    1
   715   722   724    1
   716   361   362   ar
   717   573   572    1
   718   566   565    1
   719   568   561   ar
   720   582   581   ar
   721   582   583    2
   722   525   524   ar
   723   525   519   ar
   724   639   656    1
   725   557   556    1
   726   556   554    1
   727   556   558    1
   728   394   373    2
   729   662   661    1
   730   662   679    1
   731   581   580    1
   732   134   156    1
   733   134   118    1
   734   554   555    1
   735   565   564   ar
   736   712   713   ar
   737   661   659    1
   738   389   388    1
   739   543   542   ar
   740   543   544   ar
   741   715   713   ar
   742   489   488    1
   743   524   523   ar
   744   542   541   ar
   745   728   726    1
   746   728   729    1
   747   576   577    1
   748   576   578    1
   749   576   574    1
   750   390   391   ar
   751   390   387   ar
   752   491   490    1
   753   679   697    2
   754   679   698    1
   755   373   393    1
   756   373   375    1
   757   555   560    1
   758   727   726    1
   759   713   714    2
   760   123   122   ar
   761   123   124   ar
   762   518   519   ar
   763   518   517   ar
   764   120   119    1
   765   519   520   ar
   766   660   659    1
   767   572   574    1
   768   561   560    1
   769   561   562   ar
   770   578   580    1
   771   578   579    1
   772   388   387   ar
   773   388   383   ar
   774   118   117    1
   775   724   726    1
   776   724   725    1
   777   391   392   ar
   778   545   544    2
   779   122   127   ar
   780   544   538   ar
   781   124   125   ar
   782   387   386   ar
   783   658   656    1
   784   658   657    1
   785   580   575    1
   786   564   562   ar
   787   725   739    1
   788   412   411    2
   789   736   729   ar
   790   736   735   ar
   791   729   730   ar
   792   558   560    1
   793   558   559    1
   794   119   117    1
   795   119   121    1
   796   659   657    1
   797   574   575    1
   798   656   678    2
   799   656   677    1
   800   541   539   ar
   801   523   520   ar
   802   488   490    1
   803   488   486    1
   804   490   492    1
   805   562   563    2
   806   375   374    1
   807   520   521   ar
   808   383   384   ar
   809   517   516   ar
   810   117   115    1
   811   735   733   ar
   812   127   128    1
   813   127   126   ar
   814   125   126   ar
   815   125   131   ar
   816   731   730    2
   817   450   449    1
   818   392   386   ar
   819   392   382    1
   820   730   732   ar
   821   386   385   ar
   822   538   539   ar
   823   411   405   ar
   824   411   410   ar
   825   539   540    1
   826   760   739    2
   827   377   382    1
   828   377   376    1
   829   486   484    1
   830   486   487    1
   831   374   376    1
   832   448   449   ar
   833   448   454   ar
   834   121   131    1
   835   121   116    1
   836   126   129   ar
   837   405   406   ar
   838   739   761    1
   839   739   741    1
   840   131   130   ar
   841   384   385   ar
   842   455   454    2
   843   733   732   ar
   844   733   734    1
   845   521   516   ar
   846   521   522    1
   847   382   380    1
   848   449   451   ar
   849   492   487    1
   850   492   503    1
   851   413   410   ar
   852   413   414   ar
   853   410   409   ar
   854   433   432    1
   855   484   485    1
   856   115   116    1
   857   115   113    1
   858   376   378    1
   859   454   453   ar
   860   741   740    1
   861   129   130   ar
   862   406   407    1
   863   406   408   ar
   864   485   483    1
   865   740   742    1
   866   496   497   ar
   867   496   494   ar
   868   503   497   ar
   869   503   502   ar
   870   414   415   ar
   871   431   432   ar
   872   431   429   ar
   873   378   380    1
   874   378   379    1
   875   432   434   ar
   876   409   408   ar
   877   409   415   ar
   878   451   452   ar
   879   495   494    1
   880   113   114    1
   881   497   498   ar
   882   380   381    1
   883   114   112    1
   884   101   100    1
   885   494   493   ar
   886   502   501   ar
   887   453   452   ar
   888   453   456   ar
   889   742   743    1
   890   742   744    1
   891    99   100   ar
   892    99   105   ar
   893   415   404    1
   894   417   395    2
   895   452   458   ar
   896   106   105    2
   897   504   483    2
   898   100   102   ar
   899   743   748    1
   900   429   430    2
   901   429   428   ar
   902   498   501   ar
   903   498   499   ar
   904   434   435   ar
   905   483   505    1
   906   483   467    1
   907   105   104   ar
   908   379   395    1
   909   493   499   ar
   910   758   757   ar
   911   758   759   ar
   912   132   112    2
   913   133   112    1
   914    22     1    1
   915   112    95    1
   916   757   754   ar
   917   456   457   ar
   918   499   500    2
   919   102   103   ar
   920   744   745    1
   921   744   746    1
   922   404   399    1
   923   404   402    1
   924   395   397    1
   925   395   416    1
   926   467   466    1
   927   104   103   ar
   928   104   107   ar
   929   428   435   ar
   930   428   427    1
   931   458   457   ar
   932   458   447    1
   933   399   398    1
   934   759   748    1
   935   759   753   ar
   936   748   746    1
   937   103   109   ar
   938   397   396    1
   939   469   468    1
   940    23     1    1
   941   745   762    1
   942   754   753   ar
   943   754   755   ar
   944   472   473   ar
   945   472   471   ar
   946     1     3    1
   947   746   747    1
   948   468   466    1
   949   468   470    1
   950   780   762    2
   951    95    94    1
   952   756   755    2
   953    96    97    1
   954    96    94    1
   955    96    98    1
   956   466   464    1
   957   107   108   ar
   958   473   474   ar
   959   753   752   ar
   960   817   816    1
   961   471   476   ar
   962   447   445    1
   963   447   442    1
   964   755   749   ar
   965   402   400    1
   966   402   403    1
   967    94    92    1
   968   427   422    1
   969   427   425    1
   970   109   108   ar
   971   109    98    1
   972   396   398    1
   973   398   400    1
   974   762   781    1
   975   762   764    1
   976   816   818   ar
   977   816   815   ar
   978     2     3    1
   979     2     4    1
   980   400   401    1
   981   445   446    1
   982   445   443    1
   983    45    24    2
   984   474   475   ar
   985   474   480   ar
   986   821   802    2
   987    46    24    1
   988    98    93    1
   989    84    83    1
   990   476   477    1
   991   476   475   ar
   992   808   807    1
   993   752   750   ar
   994   818   819   ar
   995   801   782    2
   996   815   813   ar
   997   422   421    1
   998   749   750   ar
   999   442   441    1
  1000   470   480    1
  1001   470   465    1
  1002   807   809    1
  1003   807   805    1
  1004   425   426    1
  1005   425   423    1
  1006   475   478   ar
  1007   464   462    1
  1008   464   465    1
  1009   480   479   ar
  1010   750   751    1
  1011   820   802    1
  1012   800   782    1
  1013    24     7    1
  1014    24    26    1
  1015   819   812   ar
  1016   813   812   ar
  1017   813   814    2
  1018   804   802    1
  1019   804   803    1
  1020   764   763    1
  1021   437   418    2
  1022   802   788    1
  1023   809   810    1
  1024   809   811    1
  1025    92    93    1
  1026    92    90    1
  1027   797   796    1
  1028    83    82   ar
  1029    83    85   ar
  1030   812   811    1
  1031    91    90    1
  1032    91    89    1
  1033   782   784    1
  1034   782   768    1
  1035   462   463    1
  1036   111    89    2
  1037     4     6    1
  1038     4     5    1
  1039   443   441    1
  1040   443   444    1
  1041   401   418    1
  1042    82    80   ar
  1043   478   479   ar
  1044   420   418    1
  1045   420   419    1
  1046     7     6    1
  1047   763   765    1
  1048   423   421    1
  1049   423   424    1
  1050   441   439    1
  1051   803   805    1
  1052   421   419    1
  1053    63    62    1
  1054    85    86   ar
  1055   418   436    1
  1056   796   798   ar
  1057   796   795   ar
  1058   805   806    1
  1059    68    47    2
  1060   798   799   ar
  1061   811   806    1
  1062     6     8    1
  1063   784   783    1
  1064    89   110    1
  1065    89    75    1
  1066    26    25    1
  1067     5    10    1
  1068   444   461    1
  1069   768   767    1
  1070    80    81    2
  1071    80    79   ar
  1072   440   439    1
  1073   440   438    1
  1074   463   461    1
  1075   788   787    1
  1076   795   793   ar
  1077   799   792   ar
  1078    20    19   ar
  1079    20    21   ar
  1080   767   765    1
  1081   767   769    1
  1082    86    79   ar
  1083    62    61   ar
  1084    62    57   ar
  1085   765   766    1
  1086   460   438    2
  1087   787   789    1
  1088   787   785    1
  1089    25    27    1
  1090   424   438    1
  1091   778   779   ar
  1092   778   776   ar
  1093    88    69    2
  1094    64    61   ar
  1095    64    65   ar
  1096   783   785    1
  1097    19    16   ar
  1098    79    78    1
  1099    41    40    2
  1100   777   776    2
  1101    42    43   ar
  1102    42    39   ar
  1103    47    67    1
  1104    47    30    1
  1105    47    49    1
  1106   482   461    2
  1107   779   772   ar
  1108   461   481    1
  1109   438   459    1
  1110    61    60   ar
  1111   793   792   ar
  1112   793   794    2
  1113    75    74    1
  1114   776   775   ar
  1115   792   791    1
  1116     8    10    1
  1117     8     9    1
  1118    57    58   ar
  1119    74    76    1
  1120    74    72    1
  1121    10    21    1
  1122    76    78    1
  1123    76    77    1
  1124    21    15   ar
  1125    43    44   ar
  1126   789   791    1
  1127   789   790    1
  1128   785   786    1
  1129   766   771    1
  1130    65    66   ar
  1131    40    39   ar
  1132    40    34   ar
  1133    39    38   ar
  1134    71    69    1
  1135    71    70    1
  1136    30    29    1
  1137    49    48    1
  1138    69    87    1
  1139    69    53    1
  1140    29    27    1
  1141    29    31    1
  1142   769   771    1
  1143   769   770    1
  1144   772   771    1
  1145   772   773   ar
  1146    78    73    1
  1147    27    28    1
  1148   791   786    1
  1149   775   773   ar
  1150    16    15   ar
  1151    16    17   ar
  1152    60    66   ar
  1153    60    59   ar
  1154    58    59   ar
  1155    15    14   ar
  1156   773   774    2
  1157    44    38   ar
  1158    44    33    1
  1159    66    56    1
  1160    34    35   ar
  1161    72    73    1
  1162    72    70    1
  1163    38    37   ar
  1164    28    33    1
  1165    18    17    2
  1166    52    53    1
  1167    52    54    1
  1168    52    50    1
  1169    17    11   ar
  1170    48    50    1
  1171    31    33    1
  1172    31    32    1
  1173    54    56    1
  1174    54    55    1
  1175    35    37   ar
  1176    35    36    1
  1177    14    12   ar
  1178    56    51    1
  1179    50    51    1
  1180    11    12   ar
  1181    12    13    1
