
  MOE2003           3D

 26 25  0  0  1  0  0  0  0  0999 V2000
    0.0440   -3.0630    2.6450 N   0  3  0  0  0  0  0  0  0  0  0  0
   -0.6820   -3.8280    1.5870 C   0  0  3  0  0  0  0  0  0  0  0  0
    0.1740   -5.0210    1.1290 C   0  0  0  0  0  0  0  0  0  0  0  0
    0.0120   -5.5150    0.0290 O   0  0  0  0  0  0  0  0  0  0  0  0
   -0.9670   -2.9020    0.3970 C   0  0  0  0  0  0  0  0  0  0  0  0
   -2.3410   -3.2320   -0.1930 C   0  0  0  0  0  0  0  0  0  0  0  0
   -2.5900   -2.3630   -1.4240 C   0  0  0  0  0  0  0  0  0  0  0  0
   -4.0540   -2.2960   -1.6850 N   0  3  0  0  0  0  0  0  0  0  0  0
   -4.5490   -2.8110   -2.7770 C   0  0  0  0  0  0  0  0  0  0  0  0
   -5.3910   -3.8090   -2.7010 N   0  0  0  0  0  0  0  0  0  0  0  0
   -4.2080   -2.3240   -3.9420 N   0  0  0  0  0  0  0  0  0  0  0  0
    0.9870   -2.7940    2.2960 H   0  0  0  0  0  0  0  0  0  0  0  0
   -0.4950   -2.2060    2.8840 H   0  0  0  0  0  0  0  0  0  0  0  0
    0.1470   -3.6550    3.4930 H   0  0  0  0  0  0  0  0  0  0  0  0
   -1.6160   -4.1930    1.9890 H   0  0  0  0  0  0  0  0  0  0  0  0
   -0.9560   -1.8740    0.7300 H   0  0  0  0  0  0  0  0  0  0  0  0
   -0.2090   -3.0420   -0.3590 H   0  0  0  0  0  0  0  0  0  0  0  0
   -2.3720   -4.2740   -0.4770 H   0  0  0  0  0  0  0  0  0  0  0  0
   -3.1070   -3.0350    0.5440 H   0  0  0  0  0  0  0  0  0  0  0  0
   -2.2090   -1.3680   -1.2460 H   0  0  0  0  0  0  0  0  0  0  0  0
   -2.0890   -2.7940   -2.2780 H   0  0  0  0  0  0  0  0  0  0  0  0
   -4.6490   -1.8750   -1.0300 H   0  0  0  0  0  0  0  0  0  0  0  0
   -5.6530   -4.1740   -1.8070 H   0  0  0  0  0  0  0  0  0  0  0  0
   -5.7750   -4.2060   -3.5330 H   0  0  0  0  0  0  0  0  0  0  0  0
   -3.5680   -1.5580   -3.9940 H   0  0  0  0  0  0  0  0  0  0  0  0
   -4.5930   -2.7100   -4.7790 H   0  0  0  0  0  0  0  0  0  0  0  0
  1  2  1  0  0  0  0
  1 12  1  0  0  0  0
  1 13  1  0  0  0  0
  1 14  1  0  0  0  0
  2  3  1  0  0  0  0
  2  5  1  0  0  0  0
  2 15  1  0  0  0  0
  3  4  2  0  0  0  0
  5  6  1  0  0  0  0
  5 16  1  0  0  0  0
  5 17  1  0  0  0  0
  6  7  1  0  0  0  0
  6 18  1  0  0  0  0
  6 19  1  0  0  0  0
  7  8  1  0  0  0  0
  7 20  1  0  0  0  0
  7 21  1  0  0  0  0
  8  9  2  0  0  0  0
  8 22  1  0  0  0  0
  9 10  1  0  0  0  0
  9 11  1  0  0  0  0
 10 23  1  0  0  0  0
 10 24  1  0  0  0  0
 11 25  1  0  0  0  0
 11 26  1  0  0  0  0
M  CHG  1   1   1
M  CHG  1   8   1
M  END
