
 OpenBabel11021811383D
libRbt.so/2013.1/901 2013/11/27
 11 10  0  0  0  0  0  0  0  0999 V2000
   -0.2294   -3.1543    1.6629 N   0  3  0  0  0  0  0  0  0  0  0  0
   -0.7373   -4.2460    0.7787 C   0  0  2  0  0  0  0  0  0  0  0  0
    0.2949   -5.3845    0.7141 C   0  0  0  0  0  0  0  0  0  0  0  0
   -0.0419   -6.5387    0.8999 O   0  0  0  0  0  0  0  0  0  0  0  0
   -0.9853   -3.6851   -0.6280 C   0  0  0  0  0  0  0  0  0  0  0  0
   -2.3460   -2.9839   -0.6689 C   0  0  0  0  0  0  0  0  0  0  0  0
   -2.6297   -2.5025   -2.0902 C   0  0  0  0  0  0  0  0  0  0  0  0
   -4.0986   -2.3347   -2.2637 N   0  3  0  0  0  0  0  0  0  0  0  0
   -4.7087   -2.9024   -3.2677 C   0  0  0  0  0  0  0  0  0  0  0  0
   -5.6195   -3.8139   -3.0432 N   0  0  0  0  0  0  0  0  0  0  0  0
   -4.4135   -2.5539   -4.4933 N   0  0  0  0  0  0  0  0  0  0  0  0
  2  1  1  1  0  0  0
  2  3  1  0  0  0  0
  2  5  1  0  0  0  0
  3  4  2  0  0  0  0
  5  6  1  0  0  0  0
  6  7  1  0  0  0  0
  7  8  1  0  0  0  0
  8  9  2  0  0  0  0
  9 10  1  0  0  0  0
  9 11  1  0  0  0  0
M  CHG  2   1   1   8   1
M  END
>  <CHROM.1>
-178.84605765,130.40245789,-81.75284092,-176.50533771,157.39711159,-127.85522286
-2.33080991,-3.64144646,-1.11622828,-0.25440247,-0.78046568,0.06488200

>  <Name>


>  <RI>
0

>  <Rbt.Current_Directory>
/home/itssahil/PROJECTS/Mol_Feturizer/New_Systems/rnas/1aju

>  <Rbt.Executable>
rbdock ($Id: //depot/dev/client3/rdock/2013.1/src/exe/rbdock.cxx#4 $)

>  <Rbt.Library>
libRbt.so (2013.1, Build901 2013/11/27)

>  <Rbt.Parameter_File>
/export/apps/rDock/src/rDock_2013.1_src/data/scripts/dock_solv.prm

>  <Rbt.Receptor>
prm/pocket_docking_3.prm

>  <SCORE>
-13.8372

>  <SCORE.INTER>
-11.9291

>  <SCORE.INTER.CONST>
1

>  <SCORE.INTER.POLAR>
-1.70242

>  <SCORE.INTER.ROT>
5

>  <SCORE.INTER.SOLV>
15.6909

>  <SCORE.INTER.VDW>
-14.4416

>  <SCORE.INTER.norm>
-1.08447

>  <SCORE.INTRA>
-1.90809

>  <SCORE.INTRA.DIHEDRAL>
-3.51113

>  <SCORE.INTRA.DIHEDRAL.0>
9.90185

>  <SCORE.INTRA.POLAR>
0

>  <SCORE.INTRA.POLAR.0>
0

>  <SCORE.INTRA.REPUL>
0

>  <SCORE.INTRA.REPUL.0>
0

>  <SCORE.INTRA.SOLV>
0.664229

>  <SCORE.INTRA.SOLV.lig_0>
-53.6586

>  <SCORE.INTRA.VDW>
-0.484637

>  <SCORE.INTRA.VDW.0>
-0.556525

>  <SCORE.INTRA.norm>
-0.173462

>  <SCORE.RESTR>
0

>  <SCORE.RESTR.CAVITY>
0

>  <SCORE.RESTR.norm>
0

>  <SCORE.SYSTEM>
0

>  <SCORE.SYSTEM.CONST>
0

>  <SCORE.SYSTEM.DIHEDRAL>
0

>  <SCORE.SYSTEM.SOLV>
0

>  <SCORE.SYSTEM.norm>
0

>  <SCORE.heavy>
11

>  <SCORE.norm>
-1.25793

>  <RMSD>
0.832

$$$$

 OpenBabel11021811383D
libRbt.so/2013.1/901 2013/11/27
 11 10  0  0  0  0  0  0  0  0999 V2000
    0.1378   -3.5607    1.7610 N   0  3  0  0  0  0  0  0  0  0  0  0
   -0.9232   -3.5088    0.7107 C   0  0  2  0  0  0  0  0  0  0  0  0
   -0.8574   -4.7771   -0.1570 C   0  0  0  0  0  0  0  0  0  0  0  0
   -0.0869   -5.6777    0.1179 O   0  0  0  0  0  0  0  0  0  0  0  0
   -0.7107   -2.2659   -0.1638 C   0  0  0  0  0  0  0  0  0  0  0  0
   -2.0603   -1.7750   -0.6953 C   0  0  0  0  0  0  0  0  0  0  0  0
   -2.5616   -2.7308   -1.7758 C   0  0  0  0  0  0  0  0  0  0  0  0
   -4.0151   -2.4973   -1.9966 N   0  3  0  0  0  0  0  0  0  0  0  0
   -4.5914   -2.9350   -3.0824 C   0  0  0  0  0  0  0  0  0  0  0  0
   -5.5370   -3.8347   -2.9986 N   0  0  0  0  0  0  0  0  0  0  0  0
   -4.2274   -2.4685   -4.2489 N   0  0  0  0  0  0  0  0  0  0  0  0
  2  1  1  1  0  0  0
  2  3  1  0  0  0  0
  2  5  1  0  0  0  0
  3  4  2  0  0  0  0
  5  6  1  0  0  0  0
  6  7  1  0  0  0  0
  7  8  1  0  0  0  0
  8  9  2  0  0  0  0
  9 10  1  0  0  0  0
  9 11  1  0  0  0  0
M  CHG  2   1   1   8   1
M  END
>  <CHROM.1>
-179.85085273,5.04911436,-150.03430370,-72.88564350,163.27928707,162.48544416
-2.30402373,-3.29528649,-1.12599519,-0.14629639,-0.74833574,0.05379971

>  <Name>


>  <RI>
0

>  <Rbt.Current_Directory>
/home/itssahil/PROJECTS/Mol_Feturizer/New_Systems/rnas/1aju

>  <Rbt.Executable>
rbdock ($Id: //depot/dev/client3/rdock/2013.1/src/exe/rbdock.cxx#4 $)

>  <Rbt.Library>
libRbt.so (2013.1, Build901 2013/11/27)

>  <Rbt.Parameter_File>
/export/apps/rDock/src/rDock_2013.1_src/data/scripts/dock_solv.prm

>  <Rbt.Receptor>
prm/pocket_docking_3.prm

>  <SCORE>
-11.5661

>  <SCORE.INTER>
-11.3963

>  <SCORE.INTER.CONST>
1

>  <SCORE.INTER.POLAR>
-1.21608

>  <SCORE.INTER.ROT>
5

>  <SCORE.INTER.SOLV>
15.1379

>  <SCORE.INTER.VDW>
-15.5232

>  <SCORE.INTER.norm>
-1.03603

>  <SCORE.INTRA>
-0.169788

>  <SCORE.INTRA.DIHEDRAL>
-2.63253

>  <SCORE.INTRA.DIHEDRAL.0>
9.90185

>  <SCORE.INTRA.POLAR>
0

>  <SCORE.INTRA.POLAR.0>
0

>  <SCORE.INTRA.REPUL>
0

>  <SCORE.INTRA.REPUL.0>
0

>  <SCORE.INTRA.SOLV>
1.1664

>  <SCORE.INTRA.SOLV.lig_0>
-53.6586

>  <SCORE.INTRA.VDW>
0.563273

>  <SCORE.INTRA.VDW.0>
-0.556525

>  <SCORE.INTRA.norm>
-0.0154353

>  <SCORE.RESTR>
0

>  <SCORE.RESTR.CAVITY>
0

>  <SCORE.RESTR.norm>
0

>  <SCORE.SYSTEM>
0

>  <SCORE.SYSTEM.CONST>
0

>  <SCORE.SYSTEM.DIHEDRAL>
0

>  <SCORE.SYSTEM.SOLV>
0

>  <SCORE.SYSTEM.norm>
0

>  <SCORE.heavy>
11

>  <SCORE.norm>
-1.05146

>  <RMSD>
0.892

$$$$

 OpenBabel11021811383D
libRbt.so/2013.1/901 2013/11/27
 11 10  0  0  0  0  0  0  0  0999 V2000
   -1.2972   -3.7549    2.1297 N   0  3  0  0  0  0  0  0  0  0  0  0
   -1.0098   -4.0837    0.7010 C   0  0  2  0  0  0  0  0  0  0  0  0
    0.1961   -5.0350    0.6196 C   0  0  0  0  0  0  0  0  0  0  0  0
    0.7681   -5.3998    1.6295 O   0  0  0  0  0  0  0  0  0  0  0  0
   -0.7072   -2.7897   -0.0662 C   0  0  0  0  0  0  0  0  0  0  0  0
   -2.0168   -2.1640   -0.5545 C   0  0  0  0  0  0  0  0  0  0  0  0
   -2.6017   -3.0163   -1.6788 C   0  0  0  0  0  0  0  0  0  0  0  0
   -3.9907   -2.5622   -1.9622 N   0  3  0  0  0  0  0  0  0  0  0  0
   -4.6013   -2.9583   -3.0453 C   0  0  0  0  0  0  0  0  0  0  0  0
   -5.6836   -3.6867   -2.9514 N   0  0  0  0  0  0  0  0  0  0  0  0
   -4.1342   -2.6206   -4.2193 N   0  0  0  0  0  0  0  0  0  0  0  0
  2  1  1  1  0  0  0
  2  3  1  0  0  0  0
  2  5  1  0  0  0  0
  3  4  2  0  0  0  0
  5  6  1  0  0  0  0
  6  7  1  0  0  0  0
  7  8  1  0  0  0  0
  8  9  2  0  0  0  0
  9 10  1  0  0  0  0
  9 11  1  0  0  0  0
M  CHG  2   1   1   8   1
M  END
>  <CHROM.1>
-175.05130756,-0.45598523,-86.10936283,-70.92330625,168.91437521,166.70131827
-2.30145555,-3.46636861,-0.82909802,-0.19618318,-0.79787330,0.05279273

>  <Name>


>  <RI>
0

>  <Rbt.Current_Directory>
/home/itssahil/PROJECTS/Mol_Feturizer/New_Systems/rnas/1aju

>  <Rbt.Executable>
rbdock ($Id: //depot/dev/client3/rdock/2013.1/src/exe/rbdock.cxx#4 $)

>  <Rbt.Library>
libRbt.so (2013.1, Build901 2013/11/27)

>  <Rbt.Parameter_File>
/export/apps/rDock/src/rDock_2013.1_src/data/scripts/dock_solv.prm

>  <Rbt.Receptor>
prm/pocket_docking_8.prm

>  <SCORE>
-11.4525

>  <SCORE.INTER>
-10.743

>  <SCORE.INTER.CONST>
1

>  <SCORE.INTER.POLAR>
-1.49622

>  <SCORE.INTER.ROT>
5

>  <SCORE.INTER.SOLV>
13.5623

>  <SCORE.INTER.VDW>
-13.6287

>  <SCORE.INTER.norm>
-0.976639

>  <SCORE.INTRA>
-0.709466

>  <SCORE.INTRA.DIHEDRAL>
-3.8768

>  <SCORE.INTRA.DIHEDRAL.0>
9.90185

>  <SCORE.INTRA.POLAR>
0

>  <SCORE.INTRA.POLAR.0>
0

>  <SCORE.INTRA.REPUL>
0

>  <SCORE.INTRA.REPUL.0>
0

>  <SCORE.INTRA.SOLV>
1.93742

>  <SCORE.INTRA.SOLV.lig_0>
-53.6586

>  <SCORE.INTRA.VDW>
0.260228

>  <SCORE.INTRA.VDW.0>
-0.556525

>  <SCORE.INTRA.norm>
-0.0644969

>  <SCORE.RESTR>
0

>  <SCORE.RESTR.CAVITY>
0

>  <SCORE.RESTR.norm>
0

>  <SCORE.SYSTEM>
0

>  <SCORE.SYSTEM.CONST>
0

>  <SCORE.SYSTEM.DIHEDRAL>
0

>  <SCORE.SYSTEM.SOLV>
0

>  <SCORE.SYSTEM.norm>
0

>  <SCORE.heavy>
11

>  <SCORE.norm>
-1.04114

>  <RMSD>
0.937

$$$$

 OpenBabel11021811383D
libRbt.so/2013.1/901 2013/11/27
 11 10  0  0  0  0  0  0  0  0999 V2000
    0.7948   -1.4890    1.3292 N   0  3  0  0  0  0  0  0  0  0  0  0
   -0.4381   -2.2822    1.0422 C   0  0  2  0  0  0  0  0  0  0  0  0
   -0.1417   -3.7820    1.2110 C   0  0  0  0  0  0  0  0  0  0  0  0
   -0.2795   -4.5507    0.2780 O   0  0  0  0  0  0  0  0  0  0  0  0
   -0.9003   -1.9994   -0.3935 C   0  0  0  0  0  0  0  0  0  0  0  0
   -2.3717   -2.3948   -0.5467 C   0  0  0  0  0  0  0  0  0  0  0  0
   -2.8189   -2.1498   -1.9863 C   0  0  0  0  0  0  0  0  0  0  0  0
   -4.2837   -2.3936   -2.0896 N   0  3  0  0  0  0  0  0  0  0  0  0
   -4.7822   -2.9441   -3.1625 C   0  0  0  0  0  0  0  0  0  0  0  0
   -5.3769   -4.1061   -3.0801 N   0  0  0  0  0  0  0  0  0  0  0  0
   -4.6922   -2.3303   -4.3139 N   0  0  0  0  0  0  0  0  0  0  0  0
  2  1  1  6  0  0  0
  2  3  1  0  0  0  0
  2  5  1  0  0  0  0
  3  4  2  0  0  0  0
  5  6  1  0  0  0  0
  6  7  1  0  0  0  0
  7  8  1  0  0  0  0
  8  9  2  0  0  0  0
  9 10  1  0  0  0  0
  9 11  1  0  0  0  0
M  CHG  2   1   1   8   1
M  END
>  <CHROM.1>
-174.15200786,-119.93576425,-160.57408344,-178.39932375,-173.82328160,-143.26795678
-2.29146284,-2.76465839,-1.07557548,-0.09656886,-0.71363227,-0.21493060

>  <Name>


>  <RI>
0

>  <Rbt.Current_Directory>
/home/itssahil/PROJECTS/Mol_Feturizer/New_Systems/rnas/1aju

>  <Rbt.Executable>
rbdock ($Id: //depot/dev/client3/rdock/2013.1/src/exe/rbdock.cxx#4 $)

>  <Rbt.Library>
libRbt.so (2013.1, Build901 2013/11/27)

>  <Rbt.Parameter_File>
/export/apps/rDock/src/rDock_2013.1_src/data/scripts/dock_solv.prm

>  <Rbt.Receptor>
prm/pocket_docking_4.prm

>  <SCORE>
-14.4006

>  <SCORE.INTER>
-12.5674

>  <SCORE.INTER.CONST>
1

>  <SCORE.INTER.POLAR>
-1.33598

>  <SCORE.INTER.ROT>
5

>  <SCORE.INTER.SOLV>
16.132

>  <SCORE.INTER.VDW>
-16.2356

>  <SCORE.INTER.norm>
-1.14249

>  <SCORE.INTRA>
-1.83329

>  <SCORE.INTRA.DIHEDRAL>
-5.54189

>  <SCORE.INTRA.DIHEDRAL.0>
9.90185

>  <SCORE.INTRA.POLAR>
0

>  <SCORE.INTRA.POLAR.0>
0

>  <SCORE.INTRA.REPUL>
0

>  <SCORE.INTRA.REPUL.0>
0

>  <SCORE.INTRA.SOLV>
0.116928

>  <SCORE.INTRA.SOLV.lig_0>
-53.6586

>  <SCORE.INTRA.VDW>
0.879196

>  <SCORE.INTRA.VDW.0>
-0.556525

>  <SCORE.INTRA.norm>
-0.166662

>  <SCORE.RESTR>
0

>  <SCORE.RESTR.CAVITY>
0

>  <SCORE.RESTR.norm>
0

>  <SCORE.SYSTEM>
0

>  <SCORE.SYSTEM.CONST>
0

>  <SCORE.SYSTEM.DIHEDRAL>
0

>  <SCORE.SYSTEM.SOLV>
0

>  <SCORE.SYSTEM.norm>
0

>  <SCORE.heavy>
11

>  <SCORE.norm>
-1.30915

>  <RMSD>
1.127

$$$$

 OpenBabel11021811383D
libRbt.so/2013.1/901 2013/11/27
 11 10  0  0  0  0  0  0  0  0999 V2000
   -2.3411   -4.4813    2.2139 N   0  3  0  0  0  0  0  0  0  0  0  0
   -1.5639   -4.6378    0.9477 C   0  0  2  0  0  0  0  0  0  0  0  0
   -0.2893   -5.4551    1.2184 C   0  0  0  0  0  0  0  0  0  0  0  0
   -0.1533   -6.5676    0.7449 O   0  0  0  0  0  0  0  0  0  0  0  0
   -1.1904   -3.2510    0.4073 C   0  0  0  0  0  0  0  0  0  0  0  0
   -2.4291   -2.5852   -0.1987 C   0  0  0  0  0  0  0  0  0  0  0  0
   -2.7929   -3.2807   -1.5089 C   0  0  0  0  0  0  0  0  0  0  0  0
   -4.0610   -2.7023   -2.0317 N   0  3  0  0  0  0  0  0  0  0  0  0
   -4.2531   -2.6006   -3.3184 C   0  0  0  0  0  0  0  0  0  0  0  0
   -5.2268   -3.2656   -3.8844 N   0  0  0  0  0  0  0  0  0  0  0  0
   -3.4775   -1.8297   -4.0359 N   0  0  0  0  0  0  0  0  0  0  0  0
  2  1  1  1  0  0  0
  2  3  1  0  0  0  0
  2  5  1  0  0  0  0
  3  4  2  0  0  0  0
  5  6  1  0  0  0  0
  6  7  1  0  0  0  0
  7  8  1  0  0  0  0
  8  9  2  0  0  0  0
  9 10  1  0  0  0  0
  9 11  1  0  0  0  0
M  CHG  2   1   1   8   1
M  END
>  <CHROM.1>
-58.82864328,112.63001872,-74.22207755,-71.65420281,175.33087761,146.46023716
-2.55479895,-3.70512450,-0.85599686,0.54770113,-0.91744295,1.16056617

>  <Name>


>  <RI>
0

>  <Rbt.Current_Directory>
/home/itssahil/PROJECTS/Mol_Feturizer/New_Systems/rnas/1aju

>  <Rbt.Executable>
rbdock ($Id: //depot/dev/client3/rdock/2013.1/src/exe/rbdock.cxx#4 $)

>  <Rbt.Library>
libRbt.so (2013.1, Build901 2013/11/27)

>  <Rbt.Parameter_File>
/export/apps/rDock/src/rDock_2013.1_src/data/scripts/dock_solv.prm

>  <Rbt.Receptor>
prm/pocket_docking_3.prm

>  <SCORE>
-14.2952

>  <SCORE.INTER>
-12.2342

>  <SCORE.INTER.CONST>
1

>  <SCORE.INTER.POLAR>
-2.91087

>  <SCORE.INTER.ROT>
5

>  <SCORE.INTER.SOLV>
15.1541

>  <SCORE.INTER.VDW>
-10.4379

>  <SCORE.INTER.norm>
-1.1122

>  <SCORE.INTRA>
-2.06102

>  <SCORE.INTRA.DIHEDRAL>
-5.49209

>  <SCORE.INTRA.DIHEDRAL.0>
9.90185

>  <SCORE.INTRA.POLAR>
0

>  <SCORE.INTRA.POLAR.0>
0

>  <SCORE.INTRA.REPUL>
0

>  <SCORE.INTRA.REPUL.0>
0

>  <SCORE.INTRA.SOLV>
1.29522

>  <SCORE.INTRA.SOLV.lig_0>
-53.6586

>  <SCORE.INTRA.VDW>
0.0374174

>  <SCORE.INTRA.VDW.0>
-0.556525

>  <SCORE.INTRA.norm>
-0.187366

>  <SCORE.RESTR>
0

>  <SCORE.RESTR.CAVITY>
0

>  <SCORE.RESTR.norm>
0

>  <SCORE.SYSTEM>
0

>  <SCORE.SYSTEM.CONST>
0

>  <SCORE.SYSTEM.DIHEDRAL>
0

>  <SCORE.SYSTEM.SOLV>
0

>  <SCORE.SYSTEM.norm>
0

>  <SCORE.heavy>
11

>  <SCORE.norm>
-1.29956

>  <RMSD>
1.225

$$$$

 OpenBabel11021811383D
libRbt.so/2013.1/901 2013/11/27
 11 10  0  0  0  0  0  0  0  0999 V2000
    0.0562   -3.3161    0.9017 N   0  3  0  0  0  0  0  0  0  0  0  0
   -1.0914   -4.2026    0.5430 C   0  0  2  0  0  0  0  0  0  0  0  0
   -0.6110   -5.6605    0.4465 C   0  0  0  0  0  0  0  0  0  0  0  0
   -0.9833   -6.3777   -0.4631 O   0  0  0  0  0  0  0  0  0  0  0  0
   -1.6765   -3.7550   -0.8032 C   0  0  0  0  0  0  0  0  0  0  0  0
   -2.1374   -2.2981   -0.7039 C   0  0  0  0  0  0  0  0  0  0  0  0
   -3.4567   -2.1279   -1.4543 C   0  0  0  0  0  0  0  0  0  0  0  0
   -3.2562   -2.4974   -2.8823 N   0  3  0  0  0  0  0  0  0  0  0  0
   -4.2734   -2.8622   -3.6136 C   0  0  0  0  0  0  0  0  0  0  0  0
   -4.6189   -2.1437   -4.6505 N   0  0  0  0  0  0  0  0  0  0  0  0
   -4.9390   -3.9471   -3.3125 N   0  0  0  0  0  0  0  0  0  0  0  0
  2  1  1  6  0  0  0
  2  3  1  0  0  0  0
  2  5  1  0  0  0  0
  3  4  2  0  0  0  0
  5  6  1  0  0  0  0
  6  7  1  0  0  0  0
  7  8  1  0  0  0  0
  8  9  2  0  0  0  0
  9 10  1  0  0  0  0
  9 11  1  0  0  0  0
M  CHG  2   1   1   8   1
M  END
>  <CHROM.1>
72.29283962,-137.00255488,-58.86533386,-140.05808430,-59.77849064,157.19106378
-2.44254394,-3.56237172,-1.47109410,-0.29418639,-0.83489782,0.06616411

>  <Name>


>  <RI>
0

>  <Rbt.Current_Directory>
/home/itssahil/PROJECTS/Mol_Feturizer/New_Systems/rnas/1aju

>  <Rbt.Executable>
rbdock ($Id: //depot/dev/client3/rdock/2013.1/src/exe/rbdock.cxx#4 $)

>  <Rbt.Library>
libRbt.so (2013.1, Build901 2013/11/27)

>  <Rbt.Parameter_File>
/export/apps/rDock/src/rDock_2013.1_src/data/scripts/dock_solv.prm

>  <Rbt.Receptor>
prm/pocket_docking_3.prm

>  <SCORE>
-18.5942

>  <SCORE.INTER>
-19.8872

>  <SCORE.INTER.CONST>
1

>  <SCORE.INTER.POLAR>
-3.66346

>  <SCORE.INTER.ROT>
5

>  <SCORE.INTER.SOLV>
16.9134

>  <SCORE.INTER.VDW>
-13.6177

>  <SCORE.INTER.norm>
-1.80793

>  <SCORE.INTRA>
1.29309

>  <SCORE.INTRA.DIHEDRAL>
-1.45623

>  <SCORE.INTRA.DIHEDRAL.0>
9.90185

>  <SCORE.INTRA.POLAR>
0

>  <SCORE.INTRA.POLAR.0>
0

>  <SCORE.INTRA.REPUL>
0

>  <SCORE.INTRA.REPUL.0>
0

>  <SCORE.INTRA.SOLV>
1.76696

>  <SCORE.INTRA.SOLV.lig_0>
-53.6586

>  <SCORE.INTRA.VDW>
1.13772

>  <SCORE.INTRA.VDW.0>
-0.556525

>  <SCORE.INTRA.norm>
0.117554

>  <SCORE.RESTR>
0

>  <SCORE.RESTR.CAVITY>
0

>  <SCORE.RESTR.norm>
0

>  <SCORE.SYSTEM>
0

>  <SCORE.SYSTEM.CONST>
0

>  <SCORE.SYSTEM.DIHEDRAL>
0

>  <SCORE.SYSTEM.SOLV>
0

>  <SCORE.SYSTEM.norm>
0

>  <SCORE.heavy>
11

>  <SCORE.norm>
-1.69038

>  <RMSD>
1.236

$$$$

 OpenBabel11021811383D
libRbt.so/2013.1/901 2013/11/27
 11 10  0  0  0  0  0  0  0  0999 V2000
    0.0362   -2.9155    1.1166 N   0  3  0  0  0  0  0  0  0  0  0  0
   -1.3737   -3.3828    1.2755 C   0  0  2  0  0  0  0  0  0  0  0  0
   -1.3887   -4.7755    1.9282 C   0  0  0  0  0  0  0  0  0  0  0  0
   -1.9497   -5.7090    1.3858 O   0  0  0  0  0  0  0  0  0  0  0  0
   -2.0459   -3.4444   -0.1026 C   0  0  0  0  0  0  0  0  0  0  0  0
   -2.1807   -2.0293   -0.6720 C   0  0  0  0  0  0  0  0  0  0  0  0
   -2.6894   -2.1040   -2.1101 C   0  0  0  0  0  0  0  0  0  0  0  0
   -4.1572   -2.3511   -2.0954 N   0  3  0  0  0  0  0  0  0  0  0  0
   -4.7382   -2.9074   -3.1229 C   0  0  0  0  0  0  0  0  0  0  0  0
   -5.3218   -4.0702   -2.9884 N   0  0  0  0  0  0  0  0  0  0  0  0
   -4.7415   -2.2986   -4.2805 N   0  0  0  0  0  0  0  0  0  0  0  0
  2  1  1  6  0  0  0
  2  3  1  0  0  0  0
  2  5  1  0  0  0  0
  3  4  2  0  0  0  0
  5  6  1  0  0  0  0
  6  7  1  0  0  0  0
  7  8  1  0  0  0  0
  8  9  2  0  0  0  0
  9 10  1  0  0  0  0
  9 11  1  0  0  0  0
M  CHG  2   1   1   8   1
M  END
>  <CHROM.1>
-168.54542017,-124.24649934,-66.36759085,173.06501073,78.36240485,-155.94949938
-2.77197696,-3.28054412,-0.89316151,-0.68553790,-0.69202843,-0.64283071

>  <Name>


>  <RI>
0

>  <Rbt.Current_Directory>
/home/itssahil/PROJECTS/Mol_Feturizer/New_Systems/rnas/1aju

>  <Rbt.Executable>
rbdock ($Id: //depot/dev/client3/rdock/2013.1/src/exe/rbdock.cxx#4 $)

>  <Rbt.Library>
libRbt.so (2013.1, Build901 2013/11/27)

>  <Rbt.Parameter_File>
/export/apps/rDock/src/rDock_2013.1_src/data/scripts/dock_solv.prm

>  <Rbt.Receptor>
prm/pocket_docking_3.prm

>  <SCORE>
-15.8893

>  <SCORE.INTER>
-14.851

>  <SCORE.INTER.CONST>
1

>  <SCORE.INTER.POLAR>
-2.48849

>  <SCORE.INTER.ROT>
5

>  <SCORE.INTER.SOLV>
14.8936

>  <SCORE.INTER.VDW>
-13.5036

>  <SCORE.INTER.norm>
-1.35009

>  <SCORE.INTRA>
-1.03834

>  <SCORE.INTRA.DIHEDRAL>
-5.13415

>  <SCORE.INTRA.DIHEDRAL.0>
9.90185

>  <SCORE.INTRA.POLAR>
0

>  <SCORE.INTRA.POLAR.0>
0

>  <SCORE.INTRA.REPUL>
0

>  <SCORE.INTRA.REPUL.0>
0

>  <SCORE.INTRA.SOLV>
1.4614

>  <SCORE.INTRA.SOLV.lig_0>
-53.6586

>  <SCORE.INTRA.VDW>
0.798039

>  <SCORE.INTRA.VDW.0>
-0.556525

>  <SCORE.INTRA.norm>
-0.0943942

>  <SCORE.RESTR>
0

>  <SCORE.RESTR.CAVITY>
0

>  <SCORE.RESTR.norm>
0

>  <SCORE.SYSTEM>
0

>  <SCORE.SYSTEM.CONST>
0

>  <SCORE.SYSTEM.DIHEDRAL>
0

>  <SCORE.SYSTEM.SOLV>
0

>  <SCORE.SYSTEM.norm>
0

>  <SCORE.heavy>
11

>  <SCORE.norm>
-1.44449

>  <RMSD>
1.238

$$$$

 OpenBabel11021811383D
libRbt.so/2013.1/901 2013/11/27
 11 10  0  0  0  0  0  0  0  0999 V2000
    0.0941   -2.7378    1.1960 N   0  3  0  0  0  0  0  0  0  0  0  0
   -1.2337   -3.3052    1.5788 C   0  0  2  0  0  0  0  0  0  0  0  0
   -1.2613   -4.8128    1.2750 C   0  0  0  0  0  0  0  0  0  0  0  0
   -2.3087   -5.3742    1.0142 O   0  0  0  0  0  0  0  0  0  0  0  0
   -2.3374   -2.5922    0.7862 C   0  0  0  0  0  0  0  0  0  0  0  0
   -2.1254   -2.8247   -0.7124 C   0  0  0  0  0  0  0  0  0  0  0  0
   -3.2467   -2.1474   -1.4977 C   0  0  0  0  0  0  0  0  0  0  0  0
   -3.1502   -2.5476   -2.9282 N   0  3  0  0  0  0  0  0  0  0  0  0
   -4.2241   -2.8856   -3.5878 C   0  0  0  0  0  0  0  0  0  0  0  0
   -4.6076   -2.1718   -4.6145 N   0  0  0  0  0  0  0  0  0  0  0  0
   -4.9088   -3.9395   -3.2255 N   0  0  0  0  0  0  0  0  0  0  0  0
  2  1  1  6  0  0  0
  2  3  1  0  0  0  0
  2  5  1  0  0  0  0
  3  4  2  0  0  0  0
  5  6  1  0  0  0  0
  6  7  1  0  0  0  0
  7  8  1  0  0  0  0
  8  9  2  0  0  0  0
  9 10  1  0  0  0  0
  9 11  1  0  0  0  0
M  CHG  2   1   1   8   1
M  END
>  <CHROM.1>
163.99401238,-151.76882473,61.29879047,178.42071921,-171.53909036,135.70747280
-2.65557195,-3.21494159,-0.99951577,-0.68806919,-0.79953200,-0.66407818

>  <Name>


>  <RI>
0

>  <Rbt.Current_Directory>
/home/itssahil/PROJECTS/Mol_Feturizer/New_Systems/rnas/1aju

>  <Rbt.Executable>
rbdock ($Id: //depot/dev/client3/rdock/2013.1/src/exe/rbdock.cxx#4 $)

>  <Rbt.Library>
libRbt.so (2013.1, Build901 2013/11/27)

>  <Rbt.Parameter_File>
/export/apps/rDock/src/rDock_2013.1_src/data/scripts/dock_solv.prm

>  <Rbt.Receptor>
prm/pocket_docking_3.prm

>  <SCORE>
-18.5622

>  <SCORE.INTER>
-18.3627

>  <SCORE.INTER.CONST>
1

>  <SCORE.INTER.POLAR>
-3.59533

>  <SCORE.INTER.ROT>
5

>  <SCORE.INTER.SOLV>
15.3869

>  <SCORE.INTER.VDW>
-12.3197

>  <SCORE.INTER.norm>
-1.66934

>  <SCORE.INTRA>
-0.199534

>  <SCORE.INTRA.DIHEDRAL>
-4.55636

>  <SCORE.INTRA.DIHEDRAL.0>
9.90185

>  <SCORE.INTRA.POLAR>
0

>  <SCORE.INTRA.POLAR.0>
0

>  <SCORE.INTRA.REPUL>
0

>  <SCORE.INTRA.REPUL.0>
0

>  <SCORE.INTRA.SOLV>
1.35275

>  <SCORE.INTRA.SOLV.lig_0>
-53.6586

>  <SCORE.INTRA.VDW>
1.40227

>  <SCORE.INTRA.VDW.0>
-0.556525

>  <SCORE.INTRA.norm>
-0.0181394

>  <SCORE.RESTR>
0

>  <SCORE.RESTR.CAVITY>
0

>  <SCORE.RESTR.norm>
0

>  <SCORE.SYSTEM>
0

>  <SCORE.SYSTEM.CONST>
0

>  <SCORE.SYSTEM.DIHEDRAL>
0

>  <SCORE.SYSTEM.SOLV>
0

>  <SCORE.SYSTEM.norm>
0

>  <SCORE.heavy>
11

>  <SCORE.norm>
-1.68747

>  <RMSD>
1.305

$$$$

 OpenBabel11021811383D
libRbt.so/2013.1/901 2013/11/27
 11 10  0  0  0  0  0  0  0  0999 V2000
    0.2755   -2.1821    1.7739 N   0  3  0  0  0  0  0  0  0  0  0  0
   -1.0089   -2.4141    1.0472 C   0  0  2  0  0  0  0  0  0  0  0  0
   -1.5975   -3.7755    1.4547 C   0  0  0  0  0  0  0  0  0  0  0  0
   -1.5626   -4.7208    0.6895 O   0  0  0  0  0  0  0  0  0  0  0  0
   -0.7478   -2.3893   -0.4647 C   0  0  0  0  0  0  0  0  0  0  0  0
   -2.0091   -1.9211   -1.1961 C   0  0  0  0  0  0  0  0  0  0  0  0
   -2.9708   -3.0963   -1.3588 C   0  0  0  0  0  0  0  0  0  0  0  0
   -4.2183   -2.6178   -2.0150 N   0  3  0  0  0  0  0  0  0  0  0  0
   -4.3323   -2.6587   -3.3142 C   0  0  0  0  0  0  0  0  0  0  0  0
   -5.2511   -3.4110   -3.8625 N   0  0  0  0  0  0  0  0  0  0  0  0
   -3.5336   -1.9431   -4.0630 N   0  0  0  0  0  0  0  0  0  0  0  0
  2  1  1  1  0  0  0
  2  3  1  0  0  0  0
  2  5  1  0  0  0  0
  3  4  2  0  0  0  0
  5  6  1  0  0  0  0
  6  7  1  0  0  0  0
  7  8  1  0  0  0  0
  8  9  2  0  0  0  0
  9 10  1  0  0  0  0
  9 11  1  0  0  0  0
M  CHG  2   1   1   8   1
M  END
>  <CHROM.1>
-178.82141855,-106.48150998,-151.60589122,-81.79539900,177.45880250,91.46621684
-2.43823594,-2.83182030,-1.03310759,-0.62580478,-0.69123479,-0.80269781

>  <Name>


>  <RI>
0

>  <Rbt.Current_Directory>
/home/itssahil/PROJECTS/Mol_Feturizer/New_Systems/rnas/1aju

>  <Rbt.Executable>
rbdock ($Id: //depot/dev/client3/rdock/2013.1/src/exe/rbdock.cxx#4 $)

>  <Rbt.Library>
libRbt.so (2013.1, Build901 2013/11/27)

>  <Rbt.Parameter_File>
/export/apps/rDock/src/rDock_2013.1_src/data/scripts/dock_solv.prm

>  <Rbt.Receptor>
prm/pocket_docking_4.prm

>  <SCORE>
-13.1253

>  <SCORE.INTER>
-13.3111

>  <SCORE.INTER.CONST>
1

>  <SCORE.INTER.POLAR>
-2.64725

>  <SCORE.INTER.ROT>
5

>  <SCORE.INTER.SOLV>
16.1568

>  <SCORE.INTER.VDW>
-12.3688

>  <SCORE.INTER.norm>
-1.2101

>  <SCORE.INTRA>
0.173976

>  <SCORE.INTRA.DIHEDRAL>
-2.49989

>  <SCORE.INTRA.DIHEDRAL.0>
9.90185

>  <SCORE.INTRA.POLAR>
0

>  <SCORE.INTRA.POLAR.0>
0

>  <SCORE.INTRA.REPUL>
0

>  <SCORE.INTRA.REPUL.0>
0

>  <SCORE.INTRA.SOLV>
0.937702

>  <SCORE.INTRA.SOLV.lig_0>
-53.6586

>  <SCORE.INTRA.VDW>
0.95507

>  <SCORE.INTRA.VDW.0>
-0.556525

>  <SCORE.INTRA.norm>
0.015816

>  <SCORE.RESTR>
0.0118042

>  <SCORE.RESTR.CAVITY>
0.0118042

>  <SCORE.RESTR.norm>
0.00107311

>  <SCORE.SYSTEM>
0

>  <SCORE.SYSTEM.CONST>
0

>  <SCORE.SYSTEM.DIHEDRAL>
0

>  <SCORE.SYSTEM.SOLV>
0

>  <SCORE.SYSTEM.norm>
0

>  <SCORE.heavy>
11

>  <SCORE.norm>
-1.19321

>  <RMSD>
1.336

$$$$

 OpenBabel11021811383D
libRbt.so/2013.1/901 2013/11/27
 11 10  0  0  0  0  0  0  0  0999 V2000
   -2.2049   -2.5834    2.2439 N   0  3  0  0  0  0  0  0  0  0  0  0
   -1.9684   -2.9789    0.8229 C   0  0  2  0  0  0  0  0  0  0  0  0
   -0.6777   -3.8096    0.7230 C   0  0  0  0  0  0  0  0  0  0  0  0
   -0.7177   -5.0250    0.7590 O   0  0  0  0  0  0  0  0  0  0  0  0
   -1.8455   -1.7166   -0.0411 C   0  0  0  0  0  0  0  0  0  0  0  0
   -1.4483   -2.1072   -1.4675 C   0  0  0  0  0  0  0  0  0  0  0  0
   -2.3295   -3.2594   -1.9454 C   0  0  0  0  0  0  0  0  0  0  0  0
   -3.7387   -2.7889   -2.0382 N   0  3  0  0  0  0  0  0  0  0  0  0
   -4.4542   -3.0674   -3.0933 C   0  0  0  0  0  0  0  0  0  0  0  0
   -5.5236   -3.8113   -2.9753 N   0  0  0  0  0  0  0  0  0  0  0  0
   -4.1047   -2.5968   -4.2626 N   0  0  0  0  0  0  0  0  0  0  0  0
  2  1  1  1  0  0  0
  2  3  1  0  0  0  0
  2  5  1  0  0  0  0
  3  4  2  0  0  0  0
  5  6  1  0  0  0  0
  6  7  1  0  0  0  0
  7  8  1  0  0  0  0
  8  9  2  0  0  0  0
  9 10  1  0  0  0  0
  9 11  1  0  0  0  0
M  CHG  2   1   1   8   1
M  END
>  <CHROM.1>
-53.88289972,94.17482787,173.71983917,47.25236873,64.92194446,133.84425123
-2.66754276,-3.07660585,-1.00332376,0.26627852,-0.93796261,0.38986328

>  <Name>


>  <RI>
0

>  <Rbt.Current_Directory>
/home/itssahil/PROJECTS/Mol_Feturizer/New_Systems/rnas/1aju

>  <Rbt.Executable>
rbdock ($Id: //depot/dev/client3/rdock/2013.1/src/exe/rbdock.cxx#4 $)

>  <Rbt.Library>
libRbt.so (2013.1, Build901 2013/11/27)

>  <Rbt.Parameter_File>
/export/apps/rDock/src/rDock_2013.1_src/data/scripts/dock_solv.prm

>  <Rbt.Receptor>
prm/pocket_docking_3.prm

>  <SCORE>
-9.93134

>  <SCORE.INTER>
-10.8238

>  <SCORE.INTER.CONST>
1

>  <SCORE.INTER.POLAR>
-1.3794

>  <SCORE.INTER.ROT>
5

>  <SCORE.INTER.SOLV>
11.9123

>  <SCORE.INTER.VDW>
-13.5219

>  <SCORE.INTER.norm>
-0.98398

>  <SCORE.INTRA>
0.892445

>  <SCORE.INTRA.DIHEDRAL>
-4.88227

>  <SCORE.INTRA.DIHEDRAL.0>
9.90185

>  <SCORE.INTRA.POLAR>
0

>  <SCORE.INTRA.POLAR.0>
0

>  <SCORE.INTRA.REPUL>
0

>  <SCORE.INTRA.REPUL.0>
0

>  <SCORE.INTRA.SOLV>
1.18654

>  <SCORE.INTRA.SOLV.lig_0>
-53.6586

>  <SCORE.INTRA.VDW>
2.74031

>  <SCORE.INTRA.VDW.0>
-0.556525

>  <SCORE.INTRA.norm>
0.0811314

>  <SCORE.RESTR>
0

>  <SCORE.RESTR.CAVITY>
0

>  <SCORE.RESTR.norm>
0

>  <SCORE.SYSTEM>
0

>  <SCORE.SYSTEM.CONST>
0

>  <SCORE.SYSTEM.DIHEDRAL>
0

>  <SCORE.SYSTEM.SOLV>
0

>  <SCORE.SYSTEM.norm>
0

>  <SCORE.heavy>
11

>  <SCORE.norm>
-0.902849

>  <RMSD>
1.355

$$$$

 OpenBabel11021811383D
libRbt.so/2013.1/901 2013/11/27
 11 10  0  0  0  0  0  0  0  0999 V2000
   -1.6318   -2.4944    2.4236 N   0  3  0  0  0  0  0  0  0  0  0  0
   -1.6569   -2.9104    0.9891 C   0  0  2  0  0  0  0  0  0  0  0  0
   -0.5663   -3.9648    0.7350 C   0  0  0  0  0  0  0  0  0  0  0  0
    0.0994   -4.4030    1.6543 O   0  0  0  0  0  0  0  0  0  0  0  0
   -1.4140   -1.6829    0.1008 C   0  0  0  0  0  0  0  0  0  0  0  0
   -1.6322   -2.0601   -1.3672 C   0  0  0  0  0  0  0  0  0  0  0  0
   -3.1193   -2.3033   -1.6162 C   0  0  0  0  0  0  0  0  0  0  0  0
   -3.2967   -2.8889   -2.9732 N   0  3  0  0  0  0  0  0  0  0  0  0
   -4.4802   -2.9247   -3.5217 C   0  0  0  0  0  0  0  0  0  0  0  0
   -4.7056   -2.2582   -4.6243 N   0  0  0  0  0  0  0  0  0  0  0  0
   -5.4338   -3.6313   -2.9723 N   0  0  0  0  0  0  0  0  0  0  0  0
  2  1  1  1  0  0  0
  2  3  1  0  0  0  0
  2  5  1  0  0  0  0
  3  4  2  0  0  0  0
  5  6  1  0  0  0  0
  6  7  1  0  0  0  0
  7  8  1  0  0  0  0
  8  9  2  0  0  0  0
  9 10  1  0  0  0  0
  9 11  1  0  0  0  0
M  CHG  2   1   1   8   1
M  END
>  <CHROM.1>
-60.54542791,4.90179316,-172.11740670,70.30348820,-170.51650355,-165.63252767
-2.54338416,-2.87241232,-0.99125130,-0.42813355,-0.87091117,-0.44880853

>  <Name>


>  <RI>
0

>  <Rbt.Current_Directory>
/home/itssahil/PROJECTS/Mol_Feturizer/New_Systems/rnas/1aju

>  <Rbt.Executable>
rbdock ($Id: //depot/dev/client3/rdock/2013.1/src/exe/rbdock.cxx#4 $)

>  <Rbt.Library>
libRbt.so (2013.1, Build901 2013/11/27)

>  <Rbt.Parameter_File>
/export/apps/rDock/src/rDock_2013.1_src/data/scripts/dock_solv.prm

>  <Rbt.Receptor>
prm/pocket_docking_8.prm

>  <SCORE>
-14.5374

>  <SCORE.INTER>
-12.877

>  <SCORE.INTER.CONST>
1

>  <SCORE.INTER.POLAR>
-1.90899

>  <SCORE.INTER.ROT>
5

>  <SCORE.INTER.SOLV>
13.7702

>  <SCORE.INTER.VDW>
-13.7448

>  <SCORE.INTER.norm>
-1.17064

>  <SCORE.INTRA>
-1.6604

>  <SCORE.INTRA.DIHEDRAL>
-5.95352

>  <SCORE.INTRA.DIHEDRAL.0>
9.90185

>  <SCORE.INTRA.POLAR>
0

>  <SCORE.INTRA.POLAR.0>
0

>  <SCORE.INTRA.REPUL>
0

>  <SCORE.INTRA.REPUL.0>
0

>  <SCORE.INTRA.SOLV>
0.973654

>  <SCORE.INTRA.SOLV.lig_0>
-53.6586

>  <SCORE.INTRA.VDW>
0.829532

>  <SCORE.INTRA.VDW.0>
-0.556525

>  <SCORE.INTRA.norm>
-0.150946

>  <SCORE.RESTR>
0

>  <SCORE.RESTR.CAVITY>
0

>  <SCORE.RESTR.norm>
0

>  <SCORE.SYSTEM>
0

>  <SCORE.SYSTEM.CONST>
0

>  <SCORE.SYSTEM.DIHEDRAL>
0

>  <SCORE.SYSTEM.SOLV>
0

>  <SCORE.SYSTEM.norm>
0

>  <SCORE.heavy>
11

>  <SCORE.norm>
-1.32159

>  <RMSD>
1.361

$$$$

 OpenBabel11021811383D
libRbt.so/2013.1/901 2013/11/27
 11 10  0  0  0  0  0  0  0  0999 V2000
   -1.8343   -2.9938    2.5876 N   0  3  0  0  0  0  0  0  0  0  0  0
   -1.7857   -3.1004    1.0984 C   0  0  2  0  0  0  0  0  0  0  0  0
   -0.5103   -3.8472    0.6726 C   0  0  0  0  0  0  0  0  0  0  0  0
    0.2611   -4.2833    1.5063 O   0  0  0  0  0  0  0  0  0  0  0  0
   -1.7948   -1.6922    0.4886 C   0  0  0  0  0  0  0  0  0  0  0  0
   -1.8084   -1.7942   -1.0392 C   0  0  0  0  0  0  0  0  0  0  0  0
   -3.1958   -2.2260   -1.5096 C   0  0  0  0  0  0  0  0  0  0  0  0
   -3.1243   -2.6154   -2.9446 N   0  3  0  0  0  0  0  0  0  0  0  0
   -4.2111   -2.9375   -3.5909 C   0  0  0  0  0  0  0  0  0  0  0  0
   -4.6026   -2.2116   -4.6060 N   0  0  0  0  0  0  0  0  0  0  0  0
   -4.9008   -3.9876   -3.2270 N   0  0  0  0  0  0  0  0  0  0  0  0
  2  1  1  1  0  0  0
  2  3  1  0  0  0  0
  2  5  1  0  0  0  0
  3  4  2  0  0  0  0
  5  6  1  0  0  0  0
  6  7  1  0  0  0  0
  7  8  1  0  0  0  0
  8  9  2  0  0  0  0
  9 10  1  0  0  0  0
  9 11  1  0  0  0  0
M  CHG  2   1   1   8   1
M  END
>  <CHROM.1>
60.75683445,2.01077246,-177.48469424,74.06792770,-167.47902018,-175.47415261
-2.50948456,-2.89699622,-0.93901562,0.12355577,-0.99622601,0.24729934

>  <Name>


>  <RI>
0

>  <Rbt.Current_Directory>
/home/itssahil/PROJECTS/Mol_Feturizer/New_Systems/rnas/1aju

>  <Rbt.Executable>
rbdock ($Id: //depot/dev/client3/rdock/2013.1/src/exe/rbdock.cxx#4 $)

>  <Rbt.Library>
libRbt.so (2013.1, Build901 2013/11/27)

>  <Rbt.Parameter_File>
/export/apps/rDock/src/rDock_2013.1_src/data/scripts/dock_solv.prm

>  <Rbt.Receptor>
prm/pocket_docking_7.prm

>  <SCORE>
-15.9585

>  <SCORE.INTER>
-14.6372

>  <SCORE.INTER.CONST>
1

>  <SCORE.INTER.POLAR>
-2.45128

>  <SCORE.INTER.ROT>
5

>  <SCORE.INTER.SOLV>
13.4154

>  <SCORE.INTER.VDW>
-12.9923

>  <SCORE.INTER.norm>
-1.33065

>  <SCORE.INTRA>
-1.32128

>  <SCORE.INTRA.DIHEDRAL>
-5.56505

>  <SCORE.INTRA.DIHEDRAL.0>
9.90185

>  <SCORE.INTRA.POLAR>
0

>  <SCORE.INTRA.POLAR.0>
0

>  <SCORE.INTRA.REPUL>
0

>  <SCORE.INTRA.REPUL.0>
0

>  <SCORE.INTRA.SOLV>
0.994857

>  <SCORE.INTRA.SOLV.lig_0>
-53.6586

>  <SCORE.INTRA.VDW>
0.963812

>  <SCORE.INTRA.VDW.0>
-0.556525

>  <SCORE.INTRA.norm>
-0.120117

>  <SCORE.RESTR>
0

>  <SCORE.RESTR.CAVITY>
0

>  <SCORE.RESTR.norm>
0

>  <SCORE.SYSTEM>
0

>  <SCORE.SYSTEM.CONST>
0

>  <SCORE.SYSTEM.DIHEDRAL>
0

>  <SCORE.SYSTEM.SOLV>
0

>  <SCORE.SYSTEM.norm>
0

>  <SCORE.heavy>
11

>  <SCORE.norm>
-1.45077

>  <RMSD>
1.397

$$$$

 OpenBabel11021811383D
libRbt.so/2013.1/901 2013/11/27
 11 10  0  0  0  0  0  0  0  0999 V2000
   -0.3937   -0.9933    1.7054 N   0  3  0  0  0  0  0  0  0  0  0  0
   -1.1686   -2.1793    1.2314 C   0  0  2  0  0  0  0  0  0  0  0  0
   -0.2156   -3.3651    1.0039 C   0  0  0  0  0  0  0  0  0  0  0  0
   -0.5966   -4.3651    0.4250 O   0  0  0  0  0  0  0  0  0  0  0  0
   -1.8852   -1.8262   -0.0788 C   0  0  0  0  0  0  0  0  0  0  0  0
   -3.0290   -2.8150   -0.3213 C   0  0  0  0  0  0  0  0  0  0  0  0
   -4.0305   -2.2069   -1.3009 C   0  0  0  0  0  0  0  0  0  0  0  0
   -3.5809   -2.4847   -2.6925 N   0  3  0  0  0  0  0  0  0  0  0  0
   -4.4315   -2.9198   -3.5813 C   0  0  0  0  0  0  0  0  0  0  0  0
   -4.6978   -2.1934   -4.6358 N   0  0  0  0  0  0  0  0  0  0  0  0
   -5.0089   -4.0821   -3.4190 N   0  0  0  0  0  0  0  0  0  0  0  0
  2  1  1  6  0  0  0
  2  3  1  0  0  0  0
  2  5  1  0  0  0  0
  3  4  2  0  0  0  0
  5  6  1  0  0  0  0
  6  7  1  0  0  0  0
  7  8  1  0  0  0  0
  8  9  2  0  0  0  0
  9 10  1  0  0  0  0
  9 11  1  0  0  0  0
M  CHG  2   1   1   8   1
M  END
>  <CHROM.1>
179.43759040,-168.61888650,-160.76256135,159.82541844,85.72206247,133.96110939
-2.63018529,-2.66677839,-1.07369858,0.23441648,-0.86290635,0.20061352

>  <Name>


>  <RI>
0

>  <Rbt.Current_Directory>
/home/itssahil/PROJECTS/Mol_Feturizer/New_Systems/rnas/1aju

>  <Rbt.Executable>
rbdock ($Id: //depot/dev/client3/rdock/2013.1/src/exe/rbdock.cxx#4 $)

>  <Rbt.Library>
libRbt.so (2013.1, Build901 2013/11/27)

>  <Rbt.Parameter_File>
/export/apps/rDock/src/rDock_2013.1_src/data/scripts/dock_solv.prm

>  <Rbt.Receptor>
prm/pocket_docking_3.prm

>  <SCORE>
-12.247

>  <SCORE.INTER>
-12.7687

>  <SCORE.INTER.CONST>
1

>  <SCORE.INTER.POLAR>
-2.57009

>  <SCORE.INTER.ROT>
5

>  <SCORE.INTER.SOLV>
14.1512

>  <SCORE.INTER.VDW>
-11.5959

>  <SCORE.INTER.norm>
-1.16079

>  <SCORE.INTRA>
0.509547

>  <SCORE.INTRA.DIHEDRAL>
0.475873

>  <SCORE.INTRA.DIHEDRAL.0>
9.90185

>  <SCORE.INTRA.POLAR>
0

>  <SCORE.INTRA.POLAR.0>
0

>  <SCORE.INTRA.REPUL>
0

>  <SCORE.INTRA.REPUL.0>
0

>  <SCORE.INTRA.SOLV>
0.231605

>  <SCORE.INTRA.SOLV.lig_0>
-53.6586

>  <SCORE.INTRA.VDW>
0.155807

>  <SCORE.INTRA.VDW.0>
-0.556525

>  <SCORE.INTRA.norm>
0.0463224

>  <SCORE.RESTR>
0.0120945

>  <SCORE.RESTR.CAVITY>
0.0120945

>  <SCORE.RESTR.norm>
0.0010995

>  <SCORE.SYSTEM>
0

>  <SCORE.SYSTEM.CONST>
0

>  <SCORE.SYSTEM.DIHEDRAL>
0

>  <SCORE.SYSTEM.SOLV>
0

>  <SCORE.SYSTEM.norm>
0

>  <SCORE.heavy>
11

>  <SCORE.norm>
-1.11337

>  <RMSD>
1.402

$$$$

 OpenBabel11021811383D
libRbt.so/2013.1/901 2013/11/27
 11 10  0  0  0  0  0  0  0  0999 V2000
   -1.9966   -4.7804    1.7480 N   0  3  0  0  0  0  0  0  0  0  0  0
   -1.3606   -4.9235    0.4038 C   0  0  2  0  0  0  0  0  0  0  0  0
    0.1490   -5.1685    0.5670 C   0  0  0  0  0  0  0  0  0  0  0  0
    0.6563   -5.2021    1.6724 O   0  0  0  0  0  0  0  0  0  0  0  0
   -1.5974   -3.6431   -0.4081 C   0  0  0  0  0  0  0  0  0  0  0  0
   -3.1011   -3.4294   -0.6033 C   0  0  0  0  0  0  0  0  0  0  0  0
   -3.3328   -2.1943   -1.4712 C   0  0  0  0  0  0  0  0  0  0  0  0
   -3.2089   -2.5759   -2.9047 N   0  3  0  0  0  0  0  0  0  0  0  0
   -4.2720   -2.8897   -3.5933 C   0  0  0  0  0  0  0  0  0  0  0  0
   -4.6220   -2.1564   -4.6182 N   0  0  0  0  0  0  0  0  0  0  0  0
   -4.9791   -3.9388   -3.2617 N   0  0  0  0  0  0  0  0  0  0  0  0
  2  1  1  1  0  0  0
  2  3  1  0  0  0  0
  2  5  1  0  0  0  0
  3  4  2  0  0  0  0
  5  6  1  0  0  0  0
  6  7  1  0  0  0  0
  7  8  1  0  0  0  0
  8  9  2  0  0  0  0
  9 10  1  0  0  0  0
  9 11  1  0  0  0  0
M  CHG  2   1   1   8   1
M  END
>  <CHROM.1>
-172.77929772,-1.02711673,-61.25952838,-177.14526988,83.28508265,94.54118662
-2.53166563,-3.72746564,-1.11542811,0.93947516,0.05208303,2.03897023

>  <Name>


>  <RI>
0

>  <Rbt.Current_Directory>
/home/itssahil/PROJECTS/Mol_Feturizer/New_Systems/rnas/1aju

>  <Rbt.Executable>
rbdock ($Id: //depot/dev/client3/rdock/2013.1/src/exe/rbdock.cxx#4 $)

>  <Rbt.Library>
libRbt.so (2013.1, Build901 2013/11/27)

>  <Rbt.Parameter_File>
/export/apps/rDock/src/rDock_2013.1_src/data/scripts/dock_solv.prm

>  <Rbt.Receptor>
prm/pocket_docking_8.prm

>  <SCORE>
-15.2739

>  <SCORE.INTER>
-14.2056

>  <SCORE.INTER.CONST>
1

>  <SCORE.INTER.POLAR>
-2.4588

>  <SCORE.INTER.ROT>
5

>  <SCORE.INTER.SOLV>
13.636

>  <SCORE.INTER.VDW>
-12.753

>  <SCORE.INTER.norm>
-1.29141

>  <SCORE.INTRA>
-1.06832

>  <SCORE.INTRA.DIHEDRAL>
-5.02414

>  <SCORE.INTRA.DIHEDRAL.0>
9.90185

>  <SCORE.INTRA.POLAR>
0

>  <SCORE.INTRA.POLAR.0>
0

>  <SCORE.INTRA.REPUL>
0

>  <SCORE.INTRA.REPUL.0>
0

>  <SCORE.INTRA.SOLV>
2.96039

>  <SCORE.INTRA.SOLV.lig_0>
-53.6586

>  <SCORE.INTRA.VDW>
-0.0364437

>  <SCORE.INTRA.VDW.0>
-0.556525

>  <SCORE.INTRA.norm>
-0.0971203

>  <SCORE.RESTR>
0

>  <SCORE.RESTR.CAVITY>
0

>  <SCORE.RESTR.norm>
0

>  <SCORE.SYSTEM>
0

>  <SCORE.SYSTEM.CONST>
0

>  <SCORE.SYSTEM.DIHEDRAL>
0

>  <SCORE.SYSTEM.SOLV>
0

>  <SCORE.SYSTEM.norm>
0

>  <SCORE.heavy>
11

>  <SCORE.norm>
-1.38853

>  <RMSD>
1.404

$$$$

 OpenBabel11021811383D
libRbt.so/2013.1/901 2013/11/27
 11 10  0  0  0  0  0  0  0  0999 V2000
    0.7124   -1.5612    0.6803 N   0  3  0  0  0  0  0  0  0  0  0  0
   -0.5438   -2.3675    0.7392 C   0  0  2  0  0  0  0  0  0  0  0  0
   -0.1977   -3.8654    0.7860 C   0  0  0  0  0  0  0  0  0  0  0  0
    0.8524   -4.2449    1.2695 O   0  0  0  0  0  0  0  0  0  0  0  0
   -1.3977   -2.0671   -0.4999 C   0  0  0  0  0  0  0  0  0  0  0  0
   -2.7330   -2.8095   -0.3958 C   0  0  0  0  0  0  0  0  0  0  0  0
   -3.7549   -2.1544   -1.3226 C   0  0  0  0  0  0  0  0  0  0  0  0
   -3.4122   -2.4810   -2.7340 N   0  3  0  0  0  0  0  0  0  0  0  0
   -4.3390   -2.8940   -3.5544 C   0  0  0  0  0  0  0  0  0  0  0  0
   -4.6423   -2.1776   -4.6058 N   0  0  0  0  0  0  0  0  0  0  0  0
   -4.9560   -4.0248   -3.3274 N   0  0  0  0  0  0  0  0  0  0  0  0
  2  1  1  6  0  0  0
  2  3  1  0  0  0  0
  2  5  1  0  0  0  0
  3  4  2  0  0  0  0
  5  6  1  0  0  0  0
  6  7  1  0  0  0  0
  7  8  1  0  0  0  0
  8  9  2  0  0  0  0
  9 10  1  0  0  0  0
  9 11  1  0  0  0  0
M  CHG  2   1   1   8   1
M  END
>  <CHROM.1>
61.99534294,28.13839553,-175.80156346,159.98382829,72.47099388,132.94486548
-2.18773208,-2.77937123,-1.19345497,-0.20917693,-0.72644510,-0.28617583

>  <Name>


>  <RI>
0

>  <Rbt.Current_Directory>
/home/itssahil/PROJECTS/Mol_Feturizer/New_Systems/rnas/1aju

>  <Rbt.Executable>
rbdock ($Id: //depot/dev/client3/rdock/2013.1/src/exe/rbdock.cxx#4 $)

>  <Rbt.Library>
libRbt.so (2013.1, Build901 2013/11/27)

>  <Rbt.Parameter_File>
/export/apps/rDock/src/rDock_2013.1_src/data/scripts/dock_solv.prm

>  <Rbt.Receptor>
prm/pocket_docking_4.prm

>  <SCORE>
-15.1059

>  <SCORE.INTER>
-14.3401

>  <SCORE.INTER.CONST>
1

>  <SCORE.INTER.POLAR>
-2.44381

>  <SCORE.INTER.ROT>
5

>  <SCORE.INTER.SOLV>
19.1232

>  <SCORE.INTER.VDW>
-14.7217

>  <SCORE.INTER.norm>
-1.30364

>  <SCORE.INTRA>
-0.771606

>  <SCORE.INTRA.DIHEDRAL>
-3.50233

>  <SCORE.INTRA.DIHEDRAL.0>
9.90185

>  <SCORE.INTRA.POLAR>
0

>  <SCORE.INTRA.POLAR.0>
0

>  <SCORE.INTRA.REPUL>
0

>  <SCORE.INTRA.REPUL.0>
0

>  <SCORE.INTRA.SOLV>
1.30394

>  <SCORE.INTRA.SOLV.lig_0>
-53.6586

>  <SCORE.INTRA.VDW>
0.327588

>  <SCORE.INTRA.VDW.0>
-0.556525

>  <SCORE.INTRA.norm>
-0.070146

>  <SCORE.RESTR>
0.00579445

>  <SCORE.RESTR.CAVITY>
0.00579445

>  <SCORE.RESTR.norm>
0.000526768

>  <SCORE.SYSTEM>
0

>  <SCORE.SYSTEM.CONST>
0

>  <SCORE.SYSTEM.DIHEDRAL>
0

>  <SCORE.SYSTEM.SOLV>
0

>  <SCORE.SYSTEM.norm>
0

>  <SCORE.heavy>
11

>  <SCORE.norm>
-1.37326

>  <RMSD>
1.409

$$$$

 OpenBabel11021811383D
libRbt.so/2013.1/901 2013/11/27
 11 10  0  0  0  0  0  0  0  0999 V2000
   -1.9739   -2.0358    2.5184 N   0  3  0  0  0  0  0  0  0  0  0  0
   -1.9038   -2.6038    1.1385 C   0  0  2  0  0  0  0  0  0  0  0  0
   -0.8351   -3.7087    1.0854 C   0  0  0  0  0  0  0  0  0  0  0  0
   -1.0618   -4.7650    0.5258 O   0  0  0  0  0  0  0  0  0  0  0  0
   -1.5500   -1.4867    0.1476 C   0  0  0  0  0  0  0  0  0  0  0  0
   -1.7027   -2.0040   -1.2855 C   0  0  0  0  0  0  0  0  0  0  0  0
   -3.1834   -2.2077   -1.5996 C   0  0  0  0  0  0  0  0  0  0  0  0
   -3.3150   -2.8248   -2.9478 N   0  3  0  0  0  0  0  0  0  0  0  0
   -4.4835   -2.8969   -3.5241 C   0  0  0  0  0  0  0  0  0  0  0  0
   -4.6953   -2.2583   -4.6458 N   0  0  0  0  0  0  0  0  0  0  0  0
   -5.4358   -3.6120   -2.9832 N   0  0  0  0  0  0  0  0  0  0  0  0
  2  1  1  1  0  0  0
  2  3  1  0  0  0  0
  2  5  1  0  0  0  0
  3  4  2  0  0  0  0
  5  6  1  0  0  0  0
  6  7  1  0  0  0  0
  7  8  1  0  0  0  0
  8  9  2  0  0  0  0
  9 10  1  0  0  0  0
  9 11  1  0  0  0  0
M  CHG  2   1   1   8   1
M  END
>  <CHROM.1>
59.01328473,135.15117854,-170.68738679,70.25918353,-174.96135880,-168.94972416
-2.76265539,-2.77307457,-1.04180542,0.12608519,-1.00562015,0.16670437

>  <Name>


>  <RI>
0

>  <Rbt.Current_Directory>
/home/itssahil/PROJECTS/Mol_Feturizer/New_Systems/rnas/1aju

>  <Rbt.Executable>
rbdock ($Id: //depot/dev/client3/rdock/2013.1/src/exe/rbdock.cxx#4 $)

>  <Rbt.Library>
libRbt.so (2013.1, Build901 2013/11/27)

>  <Rbt.Parameter_File>
/export/apps/rDock/src/rDock_2013.1_src/data/scripts/dock_solv.prm

>  <Rbt.Receptor>
prm/pocket_docking_3.prm

>  <SCORE>
-14.9377

>  <SCORE.INTER>
-12.5969

>  <SCORE.INTER.CONST>
1

>  <SCORE.INTER.POLAR>
-1.96716

>  <SCORE.INTER.ROT>
5

>  <SCORE.INTER.SOLV>
13.6007

>  <SCORE.INTER.VDW>
-13.3076

>  <SCORE.INTER.norm>
-1.14517

>  <SCORE.INTRA>
-2.34082

>  <SCORE.INTRA.DIHEDRAL>
-5.73377

>  <SCORE.INTRA.DIHEDRAL.0>
9.90185

>  <SCORE.INTRA.POLAR>
0

>  <SCORE.INTRA.POLAR.0>
0

>  <SCORE.INTRA.REPUL>
0

>  <SCORE.INTRA.REPUL.0>
0

>  <SCORE.INTRA.SOLV>
-0.0467554

>  <SCORE.INTRA.SOLV.lig_0>
-53.6586

>  <SCORE.INTRA.VDW>
0.549449

>  <SCORE.INTRA.VDW.0>
-0.556525

>  <SCORE.INTRA.norm>
-0.212801

>  <SCORE.RESTR>
0

>  <SCORE.RESTR.CAVITY>
0

>  <SCORE.RESTR.norm>
0

>  <SCORE.SYSTEM>
0

>  <SCORE.SYSTEM.CONST>
0

>  <SCORE.SYSTEM.DIHEDRAL>
0

>  <SCORE.SYSTEM.SOLV>
0

>  <SCORE.SYSTEM.norm>
0

>  <SCORE.heavy>
11

>  <SCORE.norm>
-1.35797

>  <RMSD>
1.440

$$$$

 OpenBabel11021811383D
libRbt.so/2013.1/901 2013/11/27
 11 10  0  0  0  0  0  0  0  0999 V2000
   -2.1535   -3.4844    3.1247 N   0  3  0  0  0  0  0  0  0  0  0  0
   -1.6888   -3.5474    1.7064 C   0  0  2  0  0  0  0  0  0  0  0  0
   -0.2220   -3.0928    1.6198 C   0  0  0  0  0  0  0  0  0  0  0  0
    0.6496   -3.8705    1.2796 O   0  0  0  0  0  0  0  0  0  0  0  0
   -2.5703   -2.6351    0.8429 C   0  0  0  0  0  0  0  0  0  0  0  0
   -2.3781   -2.9848   -0.6355 C   0  0  0  0  0  0  0  0  0  0  0  0
   -3.2878   -2.1051   -1.4905 C   0  0  0  0  0  0  0  0  0  0  0  0
   -3.1818   -2.5319   -2.9127 N   0  3  0  0  0  0  0  0  0  0  0  0
   -4.2537   -2.8635   -3.5788 C   0  0  0  0  0  0  0  0  0  0  0  0
   -4.6133   -2.1614   -4.6222 N   0  0  0  0  0  0  0  0  0  0  0  0
   -4.9602   -3.8993   -3.2064 N   0  0  0  0  0  0  0  0  0  0  0  0
  2  1  1  1  0  0  0
  2  3  1  0  0  0  0
  2  5  1  0  0  0  0
  3  4  2  0  0  0  0
  5  6  1  0  0  0  0
  6  7  1  0  0  0  0
  7  8  1  0  0  0  0
  8  9  2  0  0  0  0
  9 10  1  0  0  0  0
  9 11  1  0  0  0  0
M  CHG  2   1   1   8   1
M  END
>  <CHROM.1>
58.67025622,115.07865032,-163.94949142,178.28281526,-175.14162195,124.63489511
-2.61640964,-3.03226703,-0.70607289,1.03313633,0.01262872,1.69879983

>  <Name>


>  <RI>
0

>  <Rbt.Current_Directory>
/home/itssahil/PROJECTS/Mol_Feturizer/New_Systems/rnas/1aju

>  <Rbt.Executable>
rbdock ($Id: //depot/dev/client3/rdock/2013.1/src/exe/rbdock.cxx#4 $)

>  <Rbt.Library>
libRbt.so (2013.1, Build901 2013/11/27)

>  <Rbt.Parameter_File>
/export/apps/rDock/src/rDock_2013.1_src/data/scripts/dock_solv.prm

>  <Rbt.Receptor>
prm/pocket_docking_8.prm

>  <SCORE>
-15.8049

>  <SCORE.INTER>
-12.5994

>  <SCORE.INTER.CONST>
1

>  <SCORE.INTER.POLAR>
-2.49337

>  <SCORE.INTER.ROT>
5

>  <SCORE.INTER.SOLV>
13.2534

>  <SCORE.INTER.VDW>
-11.4395

>  <SCORE.INTER.norm>
-1.1454

>  <SCORE.INTRA>
-3.2055

>  <SCORE.INTRA.DIHEDRAL>
-5.93625

>  <SCORE.INTRA.DIHEDRAL.0>
9.90185

>  <SCORE.INTRA.POLAR>
0

>  <SCORE.INTRA.POLAR.0>
0

>  <SCORE.INTRA.REPUL>
0

>  <SCORE.INTRA.REPUL.0>
0

>  <SCORE.INTRA.SOLV>
0.133599

>  <SCORE.INTRA.SOLV.lig_0>
-53.6586

>  <SCORE.INTRA.VDW>
-0.304174

>  <SCORE.INTRA.VDW.0>
-0.556525

>  <SCORE.INTRA.norm>
-0.291409

>  <SCORE.RESTR>
0

>  <SCORE.RESTR.CAVITY>
0

>  <SCORE.RESTR.norm>
0

>  <SCORE.SYSTEM>
0

>  <SCORE.SYSTEM.CONST>
0

>  <SCORE.SYSTEM.DIHEDRAL>
0

>  <SCORE.SYSTEM.SOLV>
0

>  <SCORE.SYSTEM.norm>
0

>  <SCORE.heavy>
11

>  <SCORE.norm>
-1.43681

>  <RMSD>
1.444

$$$$

 OpenBabel11021811383D
libRbt.so/2013.1/901 2013/11/27
 11 10  0  0  0  0  0  0  0  0999 V2000
   -0.9966   -3.7456    1.2480 N   0  3  0  0  0  0  0  0  0  0  0  0
   -1.3534   -4.1374   -0.1488 C   0  0  2  0  0  0  0  0  0  0  0  0
   -0.6040   -5.4240   -0.5346 C   0  0  0  0  0  0  0  0  0  0  0  0
   -1.2155   -6.4281   -0.8479 O   0  0  0  0  0  0  0  0  0  0  0  0
   -0.9704   -3.0021   -1.1075 C   0  0  0  0  0  0  0  0  0  0  0  0
   -1.9495   -1.8367   -0.9406 C   0  0  0  0  0  0  0  0  0  0  0  0
   -3.3255   -2.2476   -1.4606 C   0  0  0  0  0  0  0  0  0  0  0  0
   -3.2116   -2.6227   -2.8966 N   0  3  0  0  0  0  0  0  0  0  0  0
   -4.2801   -2.9278   -3.5807 C   0  0  0  0  0  0  0  0  0  0  0  0
   -4.6323   -2.1877   -4.6000 N   0  0  0  0  0  0  0  0  0  0  0  0
   -4.9904   -3.9752   -3.2504 N   0  0  0  0  0  0  0  0  0  0  0  0
  2  1  1  1  0  0  0
  2  3  1  0  0  0  0
  2  5  1  0  0  0  0
  3  4  2  0  0  0  0
  5  6  1  0  0  0  0
  6  7  1  0  0  0  0
  7  8  1  0  0  0  0
  8  9  2  0  0  0  0
  9 10  1  0  0  0  0
  9 11  1  0  0  0  0
M  CHG  2   1   1   8   1
M  END
>  <CHROM.1>
-175.36560680,120.01710196,-73.02023372,-68.64543038,-59.26018086,-175.59694571
-2.51524140,-3.51878037,-1.63963124,-0.24449711,-0.85404918,0.14514010

>  <Name>


>  <RI>
0

>  <Rbt.Current_Directory>
/home/itssahil/PROJECTS/Mol_Feturizer/New_Systems/rnas/1aju

>  <Rbt.Executable>
rbdock ($Id: //depot/dev/client3/rdock/2013.1/src/exe/rbdock.cxx#4 $)

>  <Rbt.Library>
libRbt.so (2013.1, Build901 2013/11/27)

>  <Rbt.Parameter_File>
/export/apps/rDock/src/rDock_2013.1_src/data/scripts/dock_solv.prm

>  <Rbt.Receptor>
prm/pocket_docking_4.prm

>  <SCORE>
-17.9777

>  <SCORE.INTER>
-16.3756

>  <SCORE.INTER.CONST>
1

>  <SCORE.INTER.POLAR>
-2.40145

>  <SCORE.INTER.ROT>
5

>  <SCORE.INTER.SOLV>
14.5819

>  <SCORE.INTER.VDW>
-14.7062

>  <SCORE.INTER.norm>
-1.48869

>  <SCORE.INTRA>
-1.67476

>  <SCORE.INTRA.DIHEDRAL>
-6.029

>  <SCORE.INTRA.DIHEDRAL.0>
9.90185

>  <SCORE.INTRA.POLAR>
0

>  <SCORE.INTRA.POLAR.0>
0

>  <SCORE.INTRA.REPUL>
0

>  <SCORE.INTRA.REPUL.0>
0

>  <SCORE.INTRA.SOLV>
1.73927

>  <SCORE.INTRA.SOLV.lig_0>
-53.6586

>  <SCORE.INTRA.VDW>
0.470108

>  <SCORE.INTRA.VDW.0>
-0.556525

>  <SCORE.INTRA.norm>
-0.152251

>  <SCORE.RESTR>
0.072633

>  <SCORE.RESTR.CAVITY>
0.072633

>  <SCORE.RESTR.norm>
0.006603

>  <SCORE.SYSTEM>
0

>  <SCORE.SYSTEM.CONST>
0

>  <SCORE.SYSTEM.DIHEDRAL>
0

>  <SCORE.SYSTEM.SOLV>
0

>  <SCORE.SYSTEM.norm>
0

>  <SCORE.heavy>
11

>  <SCORE.norm>
-1.63434

>  <RMSD>
1.456

$$$$

 OpenBabel11021811383D
libRbt.so/2013.1/901 2013/11/27
 11 10  0  0  0  0  0  0  0  0999 V2000
    0.2944   -4.5026    1.1836 N   0  3  0  0  0  0  0  0  0  0  0  0
   -1.1045   -3.9895    1.0771 C   0  0  2  0  0  0  0  0  0  0  0  0
   -1.9982   -5.0517    0.4146 C   0  0  0  0  0  0  0  0  0  0  0  0
   -2.9906   -5.4689    0.9814 O   0  0  0  0  0  0  0  0  0  0  0  0
   -1.1109   -2.7045    0.2385 C   0  0  0  0  0  0  0  0  0  0  0  0
   -2.5451   -2.3743   -0.1845 C   0  0  0  0  0  0  0  0  0  0  0  0
   -2.8840   -3.1260   -1.4700 C   0  0  0  0  0  0  0  0  0  0  0  0
   -4.1455   -2.5762   -2.0377 N   0  3  0  0  0  0  0  0  0  0  0  0
   -4.3133   -2.5225   -3.3306 C   0  0  0  0  0  0  0  0  0  0  0  0
   -5.2713   -3.2148   -3.8907 N   0  0  0  0  0  0  0  0  0  0  0  0
   -3.5291   -1.7724   -4.0607 N   0  0  0  0  0  0  0  0  0  0  0  0
  2  1  1  6  0  0  0
  2  3  1  0  0  0  0
  2  5  1  0  0  0  0
  3  4  2  0  0  0  0
  5  6  1  0  0  0  0
  6  7  1  0  0  0  0
  7  8  1  0  0  0  0
  8  9  2  0  0  0  0
  9 10  1  0  0  0  0
  9 11  1  0  0  0  0
M  CHG  2   1   1   8   1
M  END
>  <CHROM.1>
-47.42440881,122.97853300,165.28492033,-85.90935342,-167.44856692,146.06227011
-2.68314242,-3.40694609,-1.01670152,-0.84929281,-0.54195158,-0.74918192

>  <Name>


>  <RI>
0

>  <Rbt.Current_Directory>
/home/itssahil/PROJECTS/Mol_Feturizer/New_Systems/rnas/1aju

>  <Rbt.Executable>
rbdock ($Id: //depot/dev/client3/rdock/2013.1/src/exe/rbdock.cxx#4 $)

>  <Rbt.Library>
libRbt.so (2013.1, Build901 2013/11/27)

>  <Rbt.Parameter_File>
/export/apps/rDock/src/rDock_2013.1_src/data/scripts/dock_solv.prm

>  <Rbt.Receptor>
prm/pocket_docking_8.prm

>  <SCORE>
-14.0233

>  <SCORE.INTER>
-15.9099

>  <SCORE.INTER.CONST>
1

>  <SCORE.INTER.POLAR>
-3.65765

>  <SCORE.INTER.ROT>
5

>  <SCORE.INTER.SOLV>
18.8462

>  <SCORE.INTER.VDW>
-11.6298

>  <SCORE.INTER.norm>
-1.44635

>  <SCORE.INTRA>
1.88661

>  <SCORE.INTRA.DIHEDRAL>
-2.79978

>  <SCORE.INTRA.DIHEDRAL.0>
9.90185

>  <SCORE.INTRA.POLAR>
0

>  <SCORE.INTRA.POLAR.0>
0

>  <SCORE.INTRA.REPUL>
0

>  <SCORE.INTRA.REPUL.0>
0

>  <SCORE.INTRA.SOLV>
0.283127

>  <SCORE.INTRA.SOLV.lig_0>
-53.6586

>  <SCORE.INTRA.VDW>
3.14493

>  <SCORE.INTRA.VDW.0>
-0.556525

>  <SCORE.INTRA.norm>
0.17151

>  <SCORE.RESTR>
0

>  <SCORE.RESTR.CAVITY>
0

>  <SCORE.RESTR.norm>
0

>  <SCORE.SYSTEM>
0

>  <SCORE.SYSTEM.CONST>
0

>  <SCORE.SYSTEM.DIHEDRAL>
0

>  <SCORE.SYSTEM.SOLV>
0

>  <SCORE.SYSTEM.norm>
0

>  <SCORE.heavy>
11

>  <SCORE.norm>
-1.27484

>  <RMSD>
1.497

$$$$

 OpenBabel11021811383D
libRbt.so/2013.1/901 2013/11/27
 11 10  0  0  0  0  0  0  0  0999 V2000
   -1.3134   -4.3283    2.4939 N   0  3  0  0  0  0  0  0  0  0  0  0
   -1.0232   -5.0963    1.2459 C   0  0  2  0  0  0  0  0  0  0  0  0
    0.4970   -5.2595    1.0783 C   0  0  0  0  0  0  0  0  0  0  0  0
    1.2618   -4.8689    1.9401 O   0  0  0  0  0  0  0  0  0  0  0  0
   -1.6040   -4.3442    0.0410 C   0  0  0  0  0  0  0  0  0  0  0  0
   -0.9535   -2.9618   -0.0637 C   0  0  0  0  0  0  0  0  0  0  0  0
   -1.3809   -2.2941   -1.3691 C   0  0  0  0  0  0  0  0  0  0  0  0
   -2.7818   -1.8099   -1.2327 N   0  3  0  0  0  0  0  0  0  0  0  0
   -3.7438   -2.3925   -1.8945 C   0  0  0  0  0  0  0  0  0  0  0  0
   -4.7067   -2.9947   -1.2457 N   0  0  0  0  0  0  0  0  0  0  0  0
   -3.7461   -2.3667   -3.2022 N   0  0  0  0  0  0  0  0  0  0  0  0
  2  1  1  1  0  0  0
  2  3  1  0  0  0  0
  2  5  1  0  0  0  0
  3  4  2  0  0  0  0
  5  6  1  0  0  0  0
  6  7  1  0  0  0  0
  7  8  1  0  0  0  0
  8  9  2  0  0  0  0
  9 10  1  0  0  0  0
  9 11  1  0  0  0  0
M  CHG  2   1   1   8   1
M  END
>  <CHROM.1>
55.53104763,4.71397486,60.68885011,171.98123377,75.58159491,-110.05413477
-1.79503436,-3.50796420,-0.17042477,0.87433423,-0.00079551,2.14076226

>  <Name>


>  <RI>
224

>  <Rbt.Current_Directory>
/home/itssahil/PROJECTS/Mol_Feturizer/New_Systems/rnas/1aju

>  <Rbt.Executable>
rbdock ($Id: //depot/dev/client3/rdock/2013.1/src/exe/rbdock.cxx#4 $)

>  <Rbt.Library>
libRbt.so (2013.1, Build901 2013/11/27)

>  <Rbt.Parameter_File>
/export/apps/rDock/src/rDock_2013.1_src/data/scripts/dock_solv.prm

>  <Rbt.Receptor>
prm/pocket_docking_5.prm

>  <SCORE>
-13.2578

>  <SCORE.INTER>
-12.409

>  <SCORE.INTER.CONST>
1

>  <SCORE.INTER.POLAR>
-1.7704

>  <SCORE.INTER.ROT>
5

>  <SCORE.INTER.SOLV>
10.0495

>  <SCORE.INTER.VDW>
-12.6545

>  <SCORE.INTER.norm>
-1.12809

>  <SCORE.INTRA>
-0.848773

>  <SCORE.INTRA.DIHEDRAL>
-5.69943

>  <SCORE.INTRA.DIHEDRAL.0>
9.90185

>  <SCORE.INTRA.POLAR>
0

>  <SCORE.INTRA.POLAR.0>
0

>  <SCORE.INTRA.REPUL>
0

>  <SCORE.INTRA.REPUL.0>
0

>  <SCORE.INTRA.SOLV>
2.97077

>  <SCORE.INTRA.SOLV.lig_0>
-53.6586

>  <SCORE.INTRA.VDW>
0.51556

>  <SCORE.INTRA.VDW.0>
-0.556525

>  <SCORE.INTRA.norm>
-0.0771612

>  <SCORE.RESTR>
0

>  <SCORE.RESTR.CAVITY>
0

>  <SCORE.RESTR.norm>
0

>  <SCORE.SYSTEM>
0

>  <SCORE.SYSTEM.CONST>
0

>  <SCORE.SYSTEM.DIHEDRAL>
0

>  <SCORE.SYSTEM.SOLV>
0

>  <SCORE.SYSTEM.norm>
0

>  <SCORE.heavy>
11

>  <SCORE.norm>
-1.20525

>  <RMSD>
1.504

$$$$

 OpenBabel11021811383D
libRbt.so/2013.1/901 2013/11/27
 11 10  0  0  0  0  0  0  0  0999 V2000
    0.2120   -4.5122    0.9505 N   0  3  0  0  0  0  0  0  0  0  0  0
   -1.2209   -4.6169    0.5413 C   0  0  2  0  0  0  0  0  0  0  0  0
   -1.4707   -5.9773   -0.1316 C   0  0  0  0  0  0  0  0  0  0  0  0
   -2.2963   -6.7496    0.3179 O   0  0  0  0  0  0  0  0  0  0  0  0
   -1.5534   -3.4816   -0.4361 C   0  0  0  0  0  0  0  0  0  0  0  0
   -3.0730   -3.3290   -0.5482 C   0  0  0  0  0  0  0  0  0  0  0  0
   -3.4016   -2.1380   -1.4461 C   0  0  0  0  0  0  0  0  0  0  0  0
   -3.2624   -2.5485   -2.8702 N   0  3  0  0  0  0  0  0  0  0  0  0
   -4.3188   -2.8698   -3.5656 C   0  0  0  0  0  0  0  0  0  0  0  0
   -4.6520   -2.1548   -4.6089 N   0  0  0  0  0  0  0  0  0  0  0  0
   -5.0362   -3.9081   -3.2222 N   0  0  0  0  0  0  0  0  0  0  0  0
  2  1  1  6  0  0  0
  2  3  1  0  0  0  0
  2  5  1  0  0  0  0
  3  4  2  0  0  0  0
  5  6  1  0  0  0  0
  6  7  1  0  0  0  0
  7  8  1  0  0  0  0
  8  9  2  0  0  0  0
  9 10  1  0  0  0  0
  9 11  1  0  0  0  0
M  CHG  2   1   1   8   1
M  END
>  <CHROM.1>
69.74361825,121.41539858,-163.85015187,176.15177940,79.67812462,99.23759933
-2.71978309,-3.85944131,-1.37037702,-0.69914012,-0.72308138,-0.35433581

>  <Name>


>  <RI>
0

>  <Rbt.Current_Directory>
/home/itssahil/PROJECTS/Mol_Feturizer/New_Systems/rnas/1aju

>  <Rbt.Executable>
rbdock ($Id: //depot/dev/client3/rdock/2013.1/src/exe/rbdock.cxx#4 $)

>  <Rbt.Library>
libRbt.so (2013.1, Build901 2013/11/27)

>  <Rbt.Parameter_File>
/export/apps/rDock/src/rDock_2013.1_src/data/scripts/dock_solv.prm

>  <Rbt.Receptor>
prm/pocket_docking_6.prm

>  <SCORE>
-20.6781

>  <SCORE.INTER>
-18.3795

>  <SCORE.INTER.CONST>
1

>  <SCORE.INTER.POLAR>
-3.54228

>  <SCORE.INTER.ROT>
5

>  <SCORE.INTER.SOLV>
17.2041

>  <SCORE.INTER.VDW>
-13.1134

>  <SCORE.INTER.norm>
-1.67086

>  <SCORE.INTRA>
-2.30755

>  <SCORE.INTRA.DIHEDRAL>
-4.49373

>  <SCORE.INTRA.DIHEDRAL.0>
9.90185

>  <SCORE.INTRA.POLAR>
0

>  <SCORE.INTRA.POLAR.0>
0

>  <SCORE.INTRA.REPUL>
0

>  <SCORE.INTRA.REPUL.0>
0

>  <SCORE.INTRA.SOLV>
0.615464

>  <SCORE.INTRA.SOLV.lig_0>
-53.6586

>  <SCORE.INTRA.VDW>
-0.36842

>  <SCORE.INTRA.VDW.0>
-0.556525

>  <SCORE.INTRA.norm>
-0.209778

>  <SCORE.RESTR>
0.00889287

>  <SCORE.RESTR.CAVITY>
0.00889287

>  <SCORE.RESTR.norm>
0.000808443

>  <SCORE.SYSTEM>
0

>  <SCORE.SYSTEM.CONST>
0

>  <SCORE.SYSTEM.DIHEDRAL>
0

>  <SCORE.SYSTEM.SOLV>
0

>  <SCORE.SYSTEM.norm>
0

>  <SCORE.heavy>
11

>  <SCORE.norm>
-1.87983

>  <RMSD>
1.530

$$$$

 OpenBabel11021811383D
libRbt.so/2013.1/901 2013/11/27
 11 10  0  0  0  0  0  0  0  0999 V2000
   -0.8639   -3.6744    1.0270 N   0  3  0  0  0  0  0  0  0  0  0  0
   -1.3254   -4.1861   -0.2985 C   0  0  2  0  0  0  0  0  0  0  0  0
   -0.6851   -5.5565   -0.5777 C   0  0  0  0  0  0  0  0  0  0  0  0
   -1.3781   -6.5319   -0.7981 O   0  0  0  0  0  0  0  0  0  0  0  0
   -0.9249   -3.1893   -1.3943 C   0  0  0  0  0  0  0  0  0  0  0  0
   -1.7675   -1.9173   -1.2644 C   0  0  0  0  0  0  0  0  0  0  0  0
   -3.2310   -2.2425   -1.5561 C   0  0  0  0  0  0  0  0  0  0  0  0
   -3.3369   -2.8311   -2.9193 N   0  3  0  0  0  0  0  0  0  0  0  0
   -4.4964   -2.9036   -3.5133 C   0  0  0  0  0  0  0  0  0  0  0  0
   -4.7002   -2.2428   -4.6235 N   0  0  0  0  0  0  0  0  0  0  0  0
   -5.4476   -3.6413   -3.0016 N   0  0  0  0  0  0  0  0  0  0  0  0
  2  1  1  1  0  0  0
  2  3  1  0  0  0  0
  2  5  1  0  0  0  0
  3  4  2  0  0  0  0
  5  6  1  0  0  0  0
  6  7  1  0  0  0  0
  7  8  1  0  0  0  0
  8  9  2  0  0  0  0
  9 10  1  0  0  0  0
  9 11  1  0  0  0  0
M  CHG  2   1   1   8   1
M  END
>  <CHROM.1>
-56.75713549,122.84450978,-70.23902093,-65.79227735,-57.66243260,-164.11359859
-2.57441271,-3.54951678,-1.71018731,-0.38764740,-0.75601421,-0.02556463

>  <Name>


>  <RI>
0

>  <Rbt.Current_Directory>
/home/itssahil/PROJECTS/Mol_Feturizer/New_Systems/rnas/1aju

>  <Rbt.Executable>
rbdock ($Id: //depot/dev/client3/rdock/2013.1/src/exe/rbdock.cxx#4 $)

>  <Rbt.Library>
libRbt.so (2013.1, Build901 2013/11/27)

>  <Rbt.Parameter_File>
/export/apps/rDock/src/rDock_2013.1_src/data/scripts/dock_solv.prm

>  <Rbt.Receptor>
prm/pocket_docking_8.prm

>  <SCORE>
-15.7374

>  <SCORE.INTER>
-14.231

>  <SCORE.INTER.CONST>
1

>  <SCORE.INTER.POLAR>
-1.91952

>  <SCORE.INTER.ROT>
5

>  <SCORE.INTER.SOLV>
15.1895

>  <SCORE.INTER.VDW>
-15.0854

>  <SCORE.INTER.norm>
-1.29373

>  <SCORE.INTRA>
-1.5064

>  <SCORE.INTRA.DIHEDRAL>
-6.42889

>  <SCORE.INTRA.DIHEDRAL.0>
9.90185

>  <SCORE.INTRA.POLAR>
0

>  <SCORE.INTRA.POLAR.0>
0

>  <SCORE.INTRA.REPUL>
0

>  <SCORE.INTRA.REPUL.0>
0

>  <SCORE.INTRA.SOLV>
1.84996

>  <SCORE.INTRA.SOLV.lig_0>
-53.6586

>  <SCORE.INTRA.VDW>
0.783067

>  <SCORE.INTRA.VDW.0>
-0.556525

>  <SCORE.INTRA.norm>
-0.136946

>  <SCORE.RESTR>
0

>  <SCORE.RESTR.CAVITY>
0

>  <SCORE.RESTR.norm>
0

>  <SCORE.SYSTEM>
0

>  <SCORE.SYSTEM.CONST>
0

>  <SCORE.SYSTEM.DIHEDRAL>
0

>  <SCORE.SYSTEM.SOLV>
0

>  <SCORE.SYSTEM.norm>
0

>  <SCORE.heavy>
11

>  <SCORE.norm>
-1.43067

>  <RMSD>
1.542

$$$$

 OpenBabel11021811383D
libRbt.so/2013.1/901 2013/11/27
 11 10  0  0  0  0  0  0  0  0999 V2000
   -0.0704   -4.8210    0.9661 N   0  3  0  0  0  0  0  0  0  0  0  0
   -1.4356   -4.9242    0.3684 C   0  0  2  0  0  0  0  0  0  0  0  0
   -1.5499   -6.2254   -0.4438 C   0  0  0  0  0  0  0  0  0  0  0  0
   -0.7828   -7.1490   -0.2471 O   0  0  0  0  0  0  0  0  0  0  0  0
   -1.6824   -3.7153   -0.5441 C   0  0  0  0  0  0  0  0  0  0  0  0
   -3.1764   -3.3795   -0.5589 C   0  0  0  0  0  0  0  0  0  0  0  0
   -3.4164   -2.1588   -1.4447 C   0  0  0  0  0  0  0  0  0  0  0  0
   -3.2630   -2.5544   -2.8715 N   0  3  0  0  0  0  0  0  0  0  0  0
   -4.3118   -2.8743   -3.5790 C   0  0  0  0  0  0  0  0  0  0  0  0
   -4.6399   -2.1508   -4.6181 N   0  0  0  0  0  0  0  0  0  0  0  0
   -5.0264   -3.9198   -3.2520 N   0  0  0  0  0  0  0  0  0  0  0  0
  2  1  1  6  0  0  0
  2  3  1  0  0  0  0
  2  5  1  0  0  0  0
  3  4  2  0  0  0  0
  5  6  1  0  0  0  0
  6  7  1  0  0  0  0
  7  8  1  0  0  0  0
  8  9  2  0  0  0  0
  9 10  1  0  0  0  0
  9 11  1  0  0  0  0
M  CHG  2   1   1   8   1
M  END
>  <CHROM.1>
76.68739489,20.04425873,-149.92714031,178.84575942,73.10036065,95.65298722
-2.64178083,-4.00558393,-1.47903558,-0.37621353,-0.88081831,0.18962809

>  <Name>


>  <RI>
224

>  <Rbt.Current_Directory>
/home/itssahil/PROJECTS/Mol_Feturizer/New_Systems/rnas/1aju

>  <Rbt.Executable>
rbdock ($Id: //depot/dev/client3/rdock/2013.1/src/exe/rbdock.cxx#4 $)

>  <Rbt.Library>
libRbt.so (2013.1, Build901 2013/11/27)

>  <Rbt.Parameter_File>
/export/apps/rDock/src/rDock_2013.1_src/data/scripts/dock_solv.prm

>  <Rbt.Receptor>
prm/pocket_docking_5.prm

>  <SCORE>
-21.3179

>  <SCORE.INTER>
-20.7474

>  <SCORE.INTER.CONST>
1

>  <SCORE.INTER.POLAR>
-3.95544

>  <SCORE.INTER.ROT>
5

>  <SCORE.INTER.SOLV>
16.606

>  <SCORE.INTER.VDW>
-13.1154

>  <SCORE.INTER.norm>
-1.88612

>  <SCORE.INTRA>
-0.570578

>  <SCORE.INTRA.DIHEDRAL>
-2.44857

>  <SCORE.INTRA.DIHEDRAL.0>
9.90185

>  <SCORE.INTRA.POLAR>
0

>  <SCORE.INTRA.POLAR.0>
0

>  <SCORE.INTRA.REPUL>
0

>  <SCORE.INTRA.REPUL.0>
0

>  <SCORE.INTRA.SOLV>
1.77575

>  <SCORE.INTRA.SOLV.lig_0>
-53.6586

>  <SCORE.INTRA.VDW>
-0.234169

>  <SCORE.INTRA.VDW.0>
-0.556525

>  <SCORE.INTRA.norm>
-0.0518708

>  <SCORE.RESTR>
0

>  <SCORE.RESTR.CAVITY>
0

>  <SCORE.RESTR.norm>
0

>  <SCORE.SYSTEM>
0

>  <SCORE.SYSTEM.CONST>
0

>  <SCORE.SYSTEM.DIHEDRAL>
0

>  <SCORE.SYSTEM.SOLV>
0

>  <SCORE.SYSTEM.norm>
0

>  <SCORE.heavy>
11

>  <SCORE.norm>
-1.93799

>  <RMSD>
1.567

$$$$

 OpenBabel11021811383D
libRbt.so/2013.1/901 2013/11/27
 11 10  0  0  0  0  0  0  0  0999 V2000
   -2.6544   -2.4163    2.8055 N   0  3  0  0  0  0  0  0  0  0  0  0
   -2.4334   -2.9073    1.4121 C   0  0  2  0  0  0  0  0  0  0  0  0
   -1.4611   -4.0990    1.4295 C   0  0  0  0  0  0  0  0  0  0  0  0
   -0.3185   -3.9735    1.0307 O   0  0  0  0  0  0  0  0  0  0  0  0
   -1.8520   -1.7710    0.5603 C   0  0  0  0  0  0  0  0  0  0  0  0
   -1.7916   -2.2076   -0.9062 C   0  0  0  0  0  0  0  0  0  0  0  0
   -3.1898   -2.1402   -1.5169 C   0  0  0  0  0  0  0  0  0  0  0  0
   -3.1211   -2.5708   -2.9402 N   0  3  0  0  0  0  0  0  0  0  0  0
   -4.2095   -2.9090   -3.5755 C   0  0  0  0  0  0  0  0  0  0  0  0
   -4.6009   -2.2117   -4.6106 N   0  0  0  0  0  0  0  0  0  0  0  0
   -4.9008   -3.9467   -3.1808 N   0  0  0  0  0  0  0  0  0  0  0  0
  2  1  1  1  0  0  0
  2  3  1  0  0  0  0
  2  5  1  0  0  0  0
  3  4  2  0  0  0  0
  5  6  1  0  0  0  0
  6  7  1  0  0  0  0
  7  8  1  0  0  0  0
  8  9  2  0  0  0  0
  9 10  1  0  0  0  0
  9 11  1  0  0  0  0
M  CHG  2   1   1   8   1
M  END
>  <CHROM.1>
-178.38211198,-107.13917990,-172.73829437,76.69535552,-179.80420671,163.25991537
-2.78759867,-2.83310580,-0.85370878,1.05899443,-0.46713232,1.37003599

>  <Name>


>  <RI>
0

>  <Rbt.Current_Directory>
/home/itssahil/PROJECTS/Mol_Feturizer/New_Systems/rnas/1aju

>  <Rbt.Executable>
rbdock ($Id: //depot/dev/client3/rdock/2013.1/src/exe/rbdock.cxx#4 $)

>  <Rbt.Library>
libRbt.so (2013.1, Build901 2013/11/27)

>  <Rbt.Parameter_File>
/export/apps/rDock/src/rDock_2013.1_src/data/scripts/dock_solv.prm

>  <Rbt.Receptor>
prm/pocket_docking_3.prm

>  <SCORE>
-15.1113

>  <SCORE.INTER>
-14.1583

>  <SCORE.INTER.CONST>
1

>  <SCORE.INTER.POLAR>
-2.48074

>  <SCORE.INTER.ROT>
5

>  <SCORE.INTER.SOLV>
13.1271

>  <SCORE.INTER.VDW>
-12.4788

>  <SCORE.INTER.norm>
-1.28712

>  <SCORE.INTRA>
-0.957411

>  <SCORE.INTRA.DIHEDRAL>
-5.31829

>  <SCORE.INTRA.DIHEDRAL.0>
9.90185

>  <SCORE.INTRA.POLAR>
0

>  <SCORE.INTRA.POLAR.0>
0

>  <SCORE.INTRA.REPUL>
0

>  <SCORE.INTRA.REPUL.0>
0

>  <SCORE.INTRA.SOLV>
0.311057

>  <SCORE.INTRA.SOLV.lig_0>
-53.6586

>  <SCORE.INTRA.VDW>
1.54621

>  <SCORE.INTRA.VDW.0>
-0.556525

>  <SCORE.INTRA.norm>
-0.0870374

>  <SCORE.RESTR>
0.00440366

>  <SCORE.RESTR.CAVITY>
0.00440366

>  <SCORE.RESTR.norm>
0.000400333

>  <SCORE.SYSTEM>
0

>  <SCORE.SYSTEM.CONST>
0

>  <SCORE.SYSTEM.DIHEDRAL>
0

>  <SCORE.SYSTEM.SOLV>
0

>  <SCORE.SYSTEM.norm>
0

>  <SCORE.heavy>
11

>  <SCORE.norm>
-1.37376

>  <RMSD>
1.582

$$$$

 OpenBabel11021811383D
libRbt.so/2013.1/901 2013/11/27
 11 10  0  0  0  0  0  0  0  0999 V2000
   -0.0301   -0.5670    1.3740 N   0  3  0  0  0  0  0  0  0  0  0  0
   -0.6810   -1.8679    1.0340 C   0  0  2  0  0  0  0  0  0  0  0  0
    0.2816   -3.0268    1.3436 C   0  0  0  0  0  0  0  0  0  0  0  0
   -0.0091   -3.8710    2.1701 O   0  0  0  0  0  0  0  0  0  0  0  0
   -1.0478   -1.8772   -0.4560 C   0  0  0  0  0  0  0  0  0  0  0  0
   -1.6887   -3.2198   -0.8188 C   0  0  0  0  0  0  0  0  0  0  0  0
   -2.2238   -3.1604   -2.2480 C   0  0  0  0  0  0  0  0  0  0  0  0
   -3.5673   -2.5193   -2.2390 N   0  3  0  0  0  0  0  0  0  0  0  0
   -4.4521   -2.8396   -3.1429 C   0  0  0  0  0  0  0  0  0  0  0  0
   -5.5737   -3.4074   -2.7818 N   0  0  0  0  0  0  0  0  0  0  0  0
   -4.2185   -2.5859   -4.4046 N   0  0  0  0  0  0  0  0  0  0  0  0
  2  1  1  6  0  0  0
  2  3  1  0  0  0  0
  2  5  1  0  0  0  0
  3  4  2  0  0  0  0
  5  6  1  0  0  0  0
  6  7  1  0  0  0  0
  7  8  1  0  0  0  0
  8  9  2  0  0  0  0
  9 10  1  0  0  0  0
  9 11  1  0  0  0  0
M  CHG  2   1   1   8   1
M  END
>  <CHROM.1>
-57.87896236,118.11304619,178.80112693,172.38568114,-82.86138786,-150.60759984
-2.12099993,-2.60739119,-0.91498496,-0.21270709,-0.80495745,-0.41927044

>  <Name>


>  <RI>
224

>  <Rbt.Current_Directory>
/home/itssahil/PROJECTS/Mol_Feturizer/New_Systems/rnas/1aju

>  <Rbt.Executable>
rbdock ($Id: //depot/dev/client3/rdock/2013.1/src/exe/rbdock.cxx#4 $)

>  <Rbt.Library>
libRbt.so (2013.1, Build901 2013/11/27)

>  <Rbt.Parameter_File>
/export/apps/rDock/src/rDock_2013.1_src/data/scripts/dock_solv.prm

>  <Rbt.Receptor>
prm/pocket_docking_5.prm

>  <SCORE>
-14.079

>  <SCORE.INTER>
-12.1998

>  <SCORE.INTER.CONST>
1

>  <SCORE.INTER.POLAR>
-1.69964

>  <SCORE.INTER.ROT>
5

>  <SCORE.INTER.SOLV>
15.1019

>  <SCORE.INTER.VDW>
-14.4351

>  <SCORE.INTER.norm>
-1.10908

>  <SCORE.INTRA>
-1.87919

>  <SCORE.INTRA.DIHEDRAL>
-4.99003

>  <SCORE.INTRA.DIHEDRAL.0>
9.90185

>  <SCORE.INTRA.POLAR>
0

>  <SCORE.INTRA.POLAR.0>
0

>  <SCORE.INTRA.REPUL>
0

>  <SCORE.INTRA.REPUL.0>
0

>  <SCORE.INTRA.SOLV>
0.219789

>  <SCORE.INTRA.SOLV.lig_0>
-53.6586

>  <SCORE.INTRA.VDW>
0.505933

>  <SCORE.INTRA.VDW.0>
-0.556525

>  <SCORE.INTRA.norm>
-0.170835

>  <SCORE.RESTR>
0

>  <SCORE.RESTR.CAVITY>
0

>  <SCORE.RESTR.norm>
0

>  <SCORE.SYSTEM>
0

>  <SCORE.SYSTEM.CONST>
0

>  <SCORE.SYSTEM.DIHEDRAL>
0

>  <SCORE.SYSTEM.SOLV>
0

>  <SCORE.SYSTEM.norm>
0

>  <SCORE.heavy>
11

>  <SCORE.norm>
-1.27991

>  <RMSD>
1.612

$$$$

 OpenBabel11021811383D
libRbt.so/2013.1/901 2013/11/27
 11 10  0  0  0  0  0  0  0  0999 V2000
   -0.1194   -2.9187    0.6822 N   0  3  0  0  0  0  0  0  0  0  0  0
   -1.3644   -3.4538    0.0534 C   0  0  2  0  0  0  0  0  0  0  0  0
   -1.3785   -4.9885    0.1538 C   0  0  0  0  0  0  0  0  0  0  0  0
   -2.2937   -5.5656    0.7102 O   0  0  0  0  0  0  0  0  0  0  0  0
   -1.4127   -3.0260   -1.4195 C   0  0  0  0  0  0  0  0  0  0  0  0
   -2.7957   -3.3361   -1.9992 C   0  0  0  0  0  0  0  0  0  0  0  0
   -3.8472   -2.4792   -1.2973 C   0  0  0  0  0  0  0  0  0  0  0  0
   -5.1980   -2.8649   -1.7899 N   0  3  0  0  0  0  0  0  0  0  0  0
   -5.3380   -3.3844   -2.9787 C   0  0  0  0  0  0  0  0  0  0  0  0
   -5.7920   -4.6045   -3.1051 N   0  0  0  0  0  0  0  0  0  0  0  0
   -5.0315   -2.6823   -4.0388 N   0  0  0  0  0  0  0  0  0  0  0  0
  2  1  1  6  0  0  0
  2  3  1  0  0  0  0
  2  5  1  0  0  0  0
  3  4  2  0  0  0  0
  5  6  1  0  0  0  0
  6  7  1  0  0  0  0
  7  8  1  0  0  0  0
  8  9  2  0  0  0  0
  9 10  1  0  0  0  0
  9 11  1  0  0  0  0
M  CHG  2   1   1   8   1
M  END
>  <CHROM.1>
-53.76174158,122.25021918,-169.30571415,65.00498851,-175.52290588,-26.32213998
-3.13981920,-3.57628835,-1.35736021,-0.43134892,-0.54603305,-0.57085386

>  <Name>


>  <RI>
0

>  <Rbt.Current_Directory>
/home/itssahil/PROJECTS/Mol_Feturizer/New_Systems/rnas/1aju

>  <Rbt.Executable>
rbdock ($Id: //depot/dev/client3/rdock/2013.1/src/exe/rbdock.cxx#4 $)

>  <Rbt.Library>
libRbt.so (2013.1, Build901 2013/11/27)

>  <Rbt.Parameter_File>
/export/apps/rDock/src/rDock_2013.1_src/data/scripts/dock_solv.prm

>  <Rbt.Receptor>
prm/pocket_docking_3.prm

>  <SCORE>
-16.8708

>  <SCORE.INTER>
-16.2138

>  <SCORE.INTER.CONST>
1

>  <SCORE.INTER.POLAR>
-2.59696

>  <SCORE.INTER.ROT>
5

>  <SCORE.INTER.SOLV>
14.6033

>  <SCORE.INTER.VDW>
-13.9537

>  <SCORE.INTER.norm>
-1.47398

>  <SCORE.INTRA>
-0.657059

>  <SCORE.INTRA.DIHEDRAL>
-6.32184

>  <SCORE.INTRA.DIHEDRAL.0>
9.90185

>  <SCORE.INTRA.POLAR>
0

>  <SCORE.INTRA.POLAR.0>
0

>  <SCORE.INTRA.REPUL>
0

>  <SCORE.INTRA.REPUL.0>
0

>  <SCORE.INTRA.SOLV>
0.75774

>  <SCORE.INTRA.SOLV.lig_0>
-53.6586

>  <SCORE.INTRA.VDW>
2.12499

>  <SCORE.INTRA.VDW.0>
-0.556525

>  <SCORE.INTRA.norm>
-0.0597327

>  <SCORE.RESTR>
0

>  <SCORE.RESTR.CAVITY>
0

>  <SCORE.RESTR.norm>
0

>  <SCORE.SYSTEM>
0

>  <SCORE.SYSTEM.CONST>
0

>  <SCORE.SYSTEM.DIHEDRAL>
0

>  <SCORE.SYSTEM.SOLV>
0

>  <SCORE.SYSTEM.norm>
0

>  <SCORE.heavy>
11

>  <SCORE.norm>
-1.53371

>  <RMSD>
1.624

$$$$

 OpenBabel11021811383D
libRbt.so/2013.1/901 2013/11/27
 11 10  0  0  0  0  0  0  0  0999 V2000
    0.8104   -1.1365    1.2418 N   0  3  0  0  0  0  0  0  0  0  0  0
   -0.5661   -1.7056    1.1279 C   0  0  2  0  0  0  0  0  0  0  0  0
   -0.6144   -3.0870    1.8026 C   0  0  0  0  0  0  0  0  0  0  0  0
    0.3686   -3.5413    2.3573 O   0  0  0  0  0  0  0  0  0  0  0  0
   -0.9404   -1.8349   -0.3547 C   0  0  0  0  0  0  0  0  0  0  0  0
   -2.4409   -2.1117   -0.4834 C   0  0  0  0  0  0  0  0  0  0  0  0
   -2.8166   -2.2122   -1.9603 C   0  0  0  0  0  0  0  0  0  0  0  0
   -4.2879   -2.4067   -2.0766 N   0  3  0  0  0  0  0  0  0  0  0  0
   -4.7936   -2.9549   -3.1473 C   0  0  0  0  0  0  0  0  0  0  0  0
   -5.4292   -4.0944   -3.0555 N   0  0  0  0  0  0  0  0  0  0  0  0
   -4.6701   -2.3610   -4.3060 N   0  0  0  0  0  0  0  0  0  0  0  0
  2  1  1  6  0  0  0
  2  3  1  0  0  0  0
  2  5  1  0  0  0  0
  3  4  2  0  0  0  0
  5  6  1  0  0  0  0
  6  7  1  0  0  0  0
  7  8  1  0  0  0  0
  8  9  2  0  0  0  0
  9 10  1  0  0  0  0
  9 11  1  0  0  0  0
M  CHG  2   1   1   8   1
M  END
>  <CHROM.1>
-60.00743494,2.10051721,-167.29121286,178.87109838,-176.92916939,-156.98704690
-2.28692847,-2.49404362,-0.80614797,-0.40658250,-0.68933026,-0.73357591

>  <Name>


>  <RI>
0

>  <Rbt.Current_Directory>
/home/itssahil/PROJECTS/Mol_Feturizer/New_Systems/rnas/1aju

>  <Rbt.Executable>
rbdock ($Id: //depot/dev/client3/rdock/2013.1/src/exe/rbdock.cxx#4 $)

>  <Rbt.Library>
libRbt.so (2013.1, Build901 2013/11/27)

>  <Rbt.Parameter_File>
/export/apps/rDock/src/rDock_2013.1_src/data/scripts/dock_solv.prm

>  <Rbt.Receptor>
prm/pocket_docking_4.prm

>  <SCORE>
-14.9397

>  <SCORE.INTER>
-12.4572

>  <SCORE.INTER.CONST>
1

>  <SCORE.INTER.POLAR>
-1.279

>  <SCORE.INTER.ROT>
5

>  <SCORE.INTER.SOLV>
16.0409

>  <SCORE.INTER.VDW>
-16.3218

>  <SCORE.INTER.norm>
-1.13248

>  <SCORE.INTRA>
-2.48244

>  <SCORE.INTRA.DIHEDRAL>
-6.39962

>  <SCORE.INTRA.DIHEDRAL.0>
9.90185

>  <SCORE.INTRA.POLAR>
0

>  <SCORE.INTRA.POLAR.0>
0

>  <SCORE.INTRA.REPUL>
0

>  <SCORE.INTRA.REPUL.0>
0

>  <SCORE.INTRA.SOLV>
0.887171

>  <SCORE.INTRA.SOLV.lig_0>
-53.6586

>  <SCORE.INTRA.VDW>
0.273778

>  <SCORE.INTRA.VDW.0>
-0.556525

>  <SCORE.INTRA.norm>
-0.225677

>  <SCORE.RESTR>
0

>  <SCORE.RESTR.CAVITY>
0

>  <SCORE.RESTR.norm>
0

>  <SCORE.SYSTEM>
0

>  <SCORE.SYSTEM.CONST>
0

>  <SCORE.SYSTEM.DIHEDRAL>
0

>  <SCORE.SYSTEM.SOLV>
0

>  <SCORE.SYSTEM.norm>
0

>  <SCORE.heavy>
11

>  <SCORE.norm>
-1.35815

>  <RMSD>
1.642

$$$$

 OpenBabel11021811383D
libRbt.so/2013.1/901 2013/11/27
 11 10  0  0  0  0  0  0  0  0999 V2000
    0.0744   -4.7268    0.8756 N   0  3  0  0  0  0  0  0  0  0  0  0
   -1.2908   -4.8255    0.2774 C   0  0  2  0  0  0  0  0  0  0  0  0
   -1.3469   -6.0160   -0.6949 C   0  0  0  0  0  0  0  0  0  0  0  0
   -2.1733   -6.8972   -0.5500 O   0  0  0  0  0  0  0  0  0  0  0  0
   -1.6120   -3.5246   -0.4705 C   0  0  0  0  0  0  0  0  0  0  0  0
   -3.1302   -3.3485   -0.5660 C   0  0  0  0  0  0  0  0  0  0  0  0
   -3.4498   -2.1438   -1.4486 C   0  0  0  0  0  0  0  0  0  0  0  0
   -3.2630   -2.5224   -2.8760 N   0  3  0  0  0  0  0  0  0  0  0  0
   -4.2891   -2.8794   -3.5988 C   0  0  0  0  0  0  0  0  0  0  0  0
   -4.6336   -2.1622   -4.6369 N   0  0  0  0  0  0  0  0  0  0  0  0
   -4.9645   -3.9554   -3.2880 N   0  0  0  0  0  0  0  0  0  0  0  0
  2  1  1  6  0  0  0
  2  3  1  0  0  0  0
  2  5  1  0  0  0  0
  3  4  2  0  0  0  0
  5  6  1  0  0  0  0
  6  7  1  0  0  0  0
  7  8  1  0  0  0  0
  8  9  2  0  0  0  0
  9 10  1  0  0  0  0
  9 11  1  0  0  0  0
M  CHG  2   1   1   8   1
M  END
>  <CHROM.1>
-171.51445672,123.65578881,-156.05391685,-173.42693106,76.80855550,97.34928843
-2.72104129,-3.92670685,-1.54858766,-0.51689940,-0.82366644,-0.05594759

>  <Name>


>  <RI>
224

>  <Rbt.Current_Directory>
/home/itssahil/PROJECTS/Mol_Feturizer/New_Systems/rnas/1aju

>  <Rbt.Executable>
rbdock ($Id: //depot/dev/client3/rdock/2013.1/src/exe/rbdock.cxx#4 $)

>  <Rbt.Library>
libRbt.so (2013.1, Build901 2013/11/27)

>  <Rbt.Parameter_File>
/export/apps/rDock/src/rDock_2013.1_src/data/scripts/dock_solv.prm

>  <Rbt.Receptor>
prm/pocket_docking_5.prm

>  <SCORE>
-21.0904

>  <SCORE.INTER>
-18.9579

>  <SCORE.INTER.CONST>
1

>  <SCORE.INTER.POLAR>
-3.62705

>  <SCORE.INTER.ROT>
5

>  <SCORE.INTER.SOLV>
17.1049

>  <SCORE.INTER.VDW>
-13.1834

>  <SCORE.INTER.norm>
-1.72344

>  <SCORE.INTRA>
-2.13257

>  <SCORE.INTRA.DIHEDRAL>
-3.84571

>  <SCORE.INTRA.DIHEDRAL.0>
9.90185

>  <SCORE.INTRA.POLAR>
0

>  <SCORE.INTRA.POLAR.0>
0

>  <SCORE.INTRA.REPUL>
0

>  <SCORE.INTRA.REPUL.0>
0

>  <SCORE.INTRA.SOLV>
0.707084

>  <SCORE.INTRA.SOLV.lig_0>
-53.6586

>  <SCORE.INTRA.VDW>
-0.56326

>  <SCORE.INTRA.VDW.0>
-0.556525

>  <SCORE.INTRA.norm>
-0.19387

>  <SCORE.RESTR>
0

>  <SCORE.RESTR.CAVITY>
0

>  <SCORE.RESTR.norm>
0

>  <SCORE.SYSTEM>
0

>  <SCORE.SYSTEM.CONST>
0

>  <SCORE.SYSTEM.DIHEDRAL>
0

>  <SCORE.SYSTEM.SOLV>
0

>  <SCORE.SYSTEM.norm>
0

>  <SCORE.heavy>
11

>  <SCORE.norm>
-1.91731

>  <RMSD>
1.647

$$$$

 OpenBabel11021811383D
libRbt.so/2013.1/901 2013/11/27
 11 10  0  0  0  0  0  0  0  0999 V2000
   -0.3785   -4.4065    0.7207 N   0  3  0  0  0  0  0  0  0  0  0  0
   -1.3633   -4.6022   -0.3855 C   0  0  2  0  0  0  0  0  0  0  0  0
   -1.3250   -6.0640   -0.8623 C   0  0  0  0  0  0  0  0  0  0  0  0
   -0.6150   -6.8801   -0.3053 O   0  0  0  0  0  0  0  0  0  0  0  0
   -1.0129   -3.6640   -1.5482 C   0  0  0  0  0  0  0  0  0  0  0  0
   -1.6295   -2.2847   -1.2989 C   0  0  0  0  0  0  0  0  0  0  0  0
   -3.1231   -2.3286   -1.6146 C   0  0  0  0  0  0  0  0  0  0  0  0
   -3.3160   -2.8872   -2.9809 N   0  3  0  0  0  0  0  0  0  0  0  0
   -4.5072   -2.9214   -3.5125 C   0  0  0  0  0  0  0  0  0  0  0  0
   -4.7544   -2.2340   -4.5974 N   0  0  0  0  0  0  0  0  0  0  0  0
   -5.4468   -3.6474   -2.9641 N   0  0  0  0  0  0  0  0  0  0  0  0
  2  1  1  1  0  0  0
  2  3  1  0  0  0  0
  2  5  1  0  0  0  0
  3  4  2  0  0  0  0
  5  6  1  0  0  0  0
  6  7  1  0  0  0  0
  7  8  1  0  0  0  0
  8  9  2  0  0  0  0
  9 10  1  0  0  0  0
  9 11  1  0  0  0  0
M  CHG  2   1   1   8   1
M  END
>  <CHROM.1>
-163.17199392,3.59701070,-84.58428030,-77.22391972,-52.29767922,-174.49195179
-2.49013495,-3.82601454,-1.74566680,-0.54818918,-0.67835061,-0.11525210

>  <Name>


>  <RI>
0

>  <Rbt.Current_Directory>
/home/itssahil/PROJECTS/Mol_Feturizer/New_Systems/rnas/1aju

>  <Rbt.Executable>
rbdock ($Id: //depot/dev/client3/rdock/2013.1/src/exe/rbdock.cxx#4 $)

>  <Rbt.Library>
libRbt.so (2013.1, Build901 2013/11/27)

>  <Rbt.Parameter_File>
/export/apps/rDock/src/rDock_2013.1_src/data/scripts/dock_solv.prm

>  <Rbt.Receptor>
prm/pocket_docking_6.prm

>  <SCORE>
-19.4712

>  <SCORE.INTER>
-20.0358

>  <SCORE.INTER.CONST>
1

>  <SCORE.INTER.POLAR>
-3.29132

>  <SCORE.INTER.ROT>
5

>  <SCORE.INTER.SOLV>
16.3247

>  <SCORE.INTER.VDW>
-14.761

>  <SCORE.INTER.norm>
-1.82144

>  <SCORE.INTRA>
0.564626

>  <SCORE.INTRA.DIHEDRAL>
-3.05559

>  <SCORE.INTRA.DIHEDRAL.0>
9.90185

>  <SCORE.INTRA.POLAR>
0

>  <SCORE.INTRA.POLAR.0>
0

>  <SCORE.INTRA.REPUL>
0

>  <SCORE.INTRA.REPUL.0>
0

>  <SCORE.INTRA.SOLV>
2.48988

>  <SCORE.INTRA.SOLV.lig_0>
-53.6586

>  <SCORE.INTRA.VDW>
0.847485

>  <SCORE.INTRA.VDW.0>
-0.556525

>  <SCORE.INTRA.norm>
0.0513297

>  <SCORE.RESTR>
0

>  <SCORE.RESTR.CAVITY>
0

>  <SCORE.RESTR.norm>
0

>  <SCORE.SYSTEM>
0

>  <SCORE.SYSTEM.CONST>
0

>  <SCORE.SYSTEM.DIHEDRAL>
0

>  <SCORE.SYSTEM.SOLV>
0

>  <SCORE.SYSTEM.norm>
0

>  <SCORE.heavy>
11

>  <SCORE.norm>
-1.77011

>  <RMSD>
1.695

$$$$

 OpenBabel11021811383D
libRbt.so/2013.1/901 2013/11/27
 11 10  0  0  0  0  0  0  0  0999 V2000
    1.7115   -2.7089    3.3271 N   0  3  0  0  0  0  0  0  0  0  0  0
    0.5948   -3.3274    2.5512 C   0  0  2  0  0  0  0  0  0  0  0  0
    0.9427   -4.7873    2.2144 C   0  0  0  0  0  0  0  0  0  0  0  0
    1.0085   -5.1585    1.0576 O   0  0  0  0  0  0  0  0  0  0  0  0
    0.3739   -2.5312    1.2581 C   0  0  0  0  0  0  0  0  0  0  0  0
   -1.0713   -2.7111    0.7847 C   0  0  0  0  0  0  0  0  0  0  0  0
   -1.2783   -1.9505   -0.5234 C   0  0  0  0  0  0  0  0  0  0  0  0
   -2.7280   -1.6577   -0.6925 N   0  3  0  0  0  0  0  0  0  0  0  0
   -3.4921   -2.4885   -1.3473 C   0  0  0  0  0  0  0  0  0  0  0  0
   -4.4761   -3.0901   -0.7304 N   0  0  0  0  0  0  0  0  0  0  0  0
   -3.2768   -2.7114   -2.6180 N   0  0  0  0  0  0  0  0  0  0  0  0
  2  1  1  6  0  0  0
  2  3  1  0  0  0  0
  2  5  1  0  0  0  0
  3  4  2  0  0  0  0
  5  6  1  0  0  0  0
  6  7  1  0  0  0  0
  7  8  1  0  0  0  0
  8  9  2  0  0  0  0
  9 10  1  0  0  0  0
  9 11  1  0  0  0  0
M  CHG  2   1   1   8   1
M  END
>  <CHROM.1>
-178.13693252,-120.21746723,-154.69608895,-178.39724793,-157.31633222,-91.94947319
-1.05940502,-3.01030936,0.48148969,0.01146136,-0.71057061,0.30703165

>  <Name>


>  <RI>
0

>  <Rbt.Current_Directory>
/home/itssahil/PROJECTS/Mol_Feturizer/New_Systems/rnas/1aju

>  <Rbt.Executable>
rbdock ($Id: //depot/dev/client3/rdock/2013.1/src/exe/rbdock.cxx#4 $)

>  <Rbt.Library>
libRbt.so (2013.1, Build901 2013/11/27)

>  <Rbt.Parameter_File>
/export/apps/rDock/src/rDock_2013.1_src/data/scripts/dock_solv.prm

>  <Rbt.Receptor>
prm/pocket_docking_3.prm

>  <SCORE>
-13.4134

>  <SCORE.INTER>
-12.4988

>  <SCORE.INTER.CONST>
1

>  <SCORE.INTER.POLAR>
-2.18591

>  <SCORE.INTER.ROT>
5

>  <SCORE.INTER.SOLV>
9.18513

>  <SCORE.INTER.VDW>
-11.0412

>  <SCORE.INTER.norm>
-1.13625

>  <SCORE.INTRA>
-0.914635

>  <SCORE.INTRA.DIHEDRAL>
-3.20775

>  <SCORE.INTRA.DIHEDRAL.0>
9.90185

>  <SCORE.INTRA.POLAR>
0

>  <SCORE.INTRA.POLAR.0>
0

>  <SCORE.INTRA.REPUL>
0

>  <SCORE.INTRA.REPUL.0>
0

>  <SCORE.INTRA.SOLV>
0.299827

>  <SCORE.INTRA.SOLV.lig_0>
-53.6586

>  <SCORE.INTRA.VDW>
0.539328

>  <SCORE.INTRA.VDW.0>
-0.556525

>  <SCORE.INTRA.norm>
-0.0831487

>  <SCORE.RESTR>
0

>  <SCORE.RESTR.CAVITY>
0

>  <SCORE.RESTR.norm>
0

>  <SCORE.SYSTEM>
0

>  <SCORE.SYSTEM.CONST>
0

>  <SCORE.SYSTEM.DIHEDRAL>
0

>  <SCORE.SYSTEM.SOLV>
0

>  <SCORE.SYSTEM.norm>
0

>  <SCORE.heavy>
11

>  <SCORE.norm>
-1.2194

>  <RMSD>
1.727

$$$$

 OpenBabel11021811383D
libRbt.so/2013.1/901 2013/11/27
 11 10  0  0  0  0  0  0  0  0999 V2000
   -2.0953   -5.1006    1.4948 N   0  3  0  0  0  0  0  0  0  0  0  0
   -1.8346   -5.4304    0.0613 C   0  0  2  0  0  0  0  0  0  0  0  0
   -0.3575   -5.1616   -0.2730 C   0  0  0  0  0  0  0  0  0  0  0  0
    0.1231   -5.5536   -1.3198 O   0  0  0  0  0  0  0  0  0  0  0  0
   -2.7375   -4.5671   -0.8299 C   0  0  0  0  0  0  0  0  0  0  0  0
   -2.3726   -3.0904   -0.6535 C   0  0  0  0  0  0  0  0  0  0  0  0
   -3.3301   -2.2267   -1.4719 C   0  0  0  0  0  0  0  0  0  0  0  0
   -3.2101   -2.5943   -2.9094 N   0  3  0  0  0  0  0  0  0  0  0  0
   -4.2761   -2.8921   -3.6006 C   0  0  0  0  0  0  0  0  0  0  0  0
   -4.6207   -2.1453   -4.6175 N   0  0  0  0  0  0  0  0  0  0  0  0
   -4.9916   -3.9389   -3.2795 N   0  0  0  0  0  0  0  0  0  0  0  0
  2  1  1  1  0  0  0
  2  3  1  0  0  0  0
  2  5  1  0  0  0  0
  3  4  2  0  0  0  0
  5  6  1  0  0  0  0
  6  7  1  0  0  0  0
  7  8  1  0  0  0  0
  8  9  2  0  0  0  0
  9 10  1  0  0  0  0
  9 11  1  0  0  0  0
M  CHG  2   1   1   8   1
M  END
>  <CHROM.1>
178.39265488,168.50862834,63.79729265,-176.39623291,-60.42530980,127.95073748
-2.71076549,-3.89119914,-1.58094978,0.86552123,-0.47256748,1.78268864

>  <Name>


>  <RI>
0

>  <Rbt.Current_Directory>
/home/itssahil/PROJECTS/Mol_Feturizer/New_Systems/rnas/1aju

>  <Rbt.Executable>
rbdock ($Id: //depot/dev/client3/rdock/2013.1/src/exe/rbdock.cxx#4 $)

>  <Rbt.Library>
libRbt.so (2013.1, Build901 2013/11/27)

>  <Rbt.Parameter_File>
/export/apps/rDock/src/rDock_2013.1_src/data/scripts/dock_solv.prm

>  <Rbt.Receptor>
prm/pocket_docking_3.prm

>  <SCORE>
-13.563

>  <SCORE.INTER>
-13.4485

>  <SCORE.INTER.CONST>
1

>  <SCORE.INTER.POLAR>
-2.45988

>  <SCORE.INTER.ROT>
5

>  <SCORE.INTER.SOLV>
14.3005

>  <SCORE.INTER.VDW>
-12.4663

>  <SCORE.INTER.norm>
-1.22259

>  <SCORE.INTRA>
-0.119037

>  <SCORE.INTRA.DIHEDRAL>
-4.31843

>  <SCORE.INTRA.DIHEDRAL.0>
9.90185

>  <SCORE.INTRA.POLAR>
0

>  <SCORE.INTRA.POLAR.0>
0

>  <SCORE.INTRA.REPUL>
0

>  <SCORE.INTRA.REPUL.0>
0

>  <SCORE.INTRA.SOLV>
2.08432

>  <SCORE.INTRA.SOLV.lig_0>
-53.6586

>  <SCORE.INTRA.VDW>
0.998018

>  <SCORE.INTRA.VDW.0>
-0.556525

>  <SCORE.INTRA.norm>
-0.0108216

>  <SCORE.RESTR>
0.00454442

>  <SCORE.RESTR.CAVITY>
0.00454442

>  <SCORE.RESTR.norm>
0.000413129

>  <SCORE.SYSTEM>
0

>  <SCORE.SYSTEM.CONST>
0

>  <SCORE.SYSTEM.DIHEDRAL>
0

>  <SCORE.SYSTEM.SOLV>
0

>  <SCORE.SYSTEM.norm>
0

>  <SCORE.heavy>
11

>  <SCORE.norm>
-1.233

>  <RMSD>
1.727

$$$$

 OpenBabel11021811383D
libRbt.so/2013.1/901 2013/11/27
 11 10  0  0  0  0  0  0  0  0999 V2000
   -2.6918   -2.3114    2.7316 N   0  3  0  0  0  0  0  0  0  0  0  0
   -2.4345   -2.7551    1.3285 C   0  0  2  0  0  0  0  0  0  0  0  0
   -1.4162   -3.9078    1.3269 C   0  0  0  0  0  0  0  0  0  0  0  0
   -0.9732   -4.3459    2.3719 O   0  0  0  0  0  0  0  0  0  0  0  0
   -1.8881   -1.5741    0.5153 C   0  0  0  0  0  0  0  0  0  0  0  0
   -1.8170   -1.9590   -0.9651 C   0  0  0  0  0  0  0  0  0  0  0  0
   -3.2289   -2.1826   -1.5027 C   0  0  0  0  0  0  0  0  0  0  0  0
   -3.1470   -2.5915   -2.9317 N   0  3  0  0  0  0  0  0  0  0  0  0
   -4.2302   -2.9145   -3.5838 C   0  0  0  0  0  0  0  0  0  0  0  0
   -4.6071   -2.1994   -4.6120 N   0  0  0  0  0  0  0  0  0  0  0  0
   -4.9306   -3.9548   -3.2125 N   0  0  0  0  0  0  0  0  0  0  0  0
  2  1  1  1  0  0  0
  2  3  1  0  0  0  0
  2  5  1  0  0  0  0
  3  4  2  0  0  0  0
  5  6  1  0  0  0  0
  6  7  1  0  0  0  0
  7  8  1  0  0  0  0
  8  9  2  0  0  0  0
  9 10  1  0  0  0  0
  9 11  1  0  0  0  0
M  CHG  2   1   1   8   1
M  END
>  <CHROM.1>
-178.15086068,1.81847919,-171.69367635,65.55472456,-178.49750769,175.99173331
-2.86990339,-2.79800873,-0.75372844,-0.46783525,-1.10018675,-0.45523710

>  <Name>


>  <RI>
224

>  <Rbt.Current_Directory>
/home/itssahil/PROJECTS/Mol_Feturizer/New_Systems/rnas/1aju

>  <Rbt.Executable>
rbdock ($Id: //depot/dev/client3/rdock/2013.1/src/exe/rbdock.cxx#4 $)

>  <Rbt.Library>
libRbt.so (2013.1, Build901 2013/11/27)

>  <Rbt.Parameter_File>
/export/apps/rDock/src/rDock_2013.1_src/data/scripts/dock_solv.prm

>  <Rbt.Receptor>
prm/pocket_docking_5.prm

>  <SCORE>
-16.1171

>  <SCORE.INTER>
-14.3529

>  <SCORE.INTER.CONST>
1

>  <SCORE.INTER.POLAR>
-2.45474

>  <SCORE.INTER.ROT>
5

>  <SCORE.INTER.SOLV>
13.0204

>  <SCORE.INTER.VDW>
-12.6596

>  <SCORE.INTER.norm>
-1.30481

>  <SCORE.INTRA>
-1.76416

>  <SCORE.INTRA.DIHEDRAL>
-6.54683

>  <SCORE.INTRA.DIHEDRAL.0>
9.90185

>  <SCORE.INTRA.POLAR>
0

>  <SCORE.INTRA.POLAR.0>
0

>  <SCORE.INTRA.REPUL>
0

>  <SCORE.INTRA.REPUL.0>
0

>  <SCORE.INTRA.SOLV>
1.0215

>  <SCORE.INTRA.SOLV.lig_0>
-53.6586

>  <SCORE.INTRA.VDW>
0.998502

>  <SCORE.INTRA.VDW.0>
-0.556525

>  <SCORE.INTRA.norm>
-0.160379

>  <SCORE.RESTR>
0

>  <SCORE.RESTR.CAVITY>
0

>  <SCORE.RESTR.norm>
0

>  <SCORE.SYSTEM>
0

>  <SCORE.SYSTEM.CONST>
0

>  <SCORE.SYSTEM.DIHEDRAL>
0

>  <SCORE.SYSTEM.SOLV>
0

>  <SCORE.SYSTEM.norm>
0

>  <SCORE.heavy>
11

>  <SCORE.norm>
-1.46519

>  <RMSD>
1.755

$$$$

 OpenBabel11021811383D
libRbt.so/2013.1/901 2013/11/27
 11 10  0  0  0  0  0  0  0  0999 V2000
   -0.3588   -4.4003    0.7398 N   0  3  0  0  0  0  0  0  0  0  0  0
   -1.3811   -4.2553   -0.3399 C   0  0  2  0  0  0  0  0  0  0  0  0
   -1.3909   -5.5176   -1.2186 C   0  0  0  0  0  0  0  0  0  0  0  0
   -1.0078   -5.4734   -2.3726 O   0  0  0  0  0  0  0  0  0  0  0  0
   -1.0449   -3.0261   -1.1947 C   0  0  0  0  0  0  0  0  0  0  0  0
   -2.0278   -1.8955   -0.8775 C   0  0  0  0  0  0  0  0  0  0  0  0
   -3.4002   -2.2351   -1.4551 C   0  0  0  0  0  0  0  0  0  0  0  0
   -3.2491   -2.5922   -2.8923 N   0  3  0  0  0  0  0  0  0  0  0  0
   -4.2995   -2.8880   -3.6078 C   0  0  0  0  0  0  0  0  0  0  0  0
   -4.6248   -2.1349   -4.6264 N   0  0  0  0  0  0  0  0  0  0  0  0
   -5.0186   -3.9389   -3.3092 N   0  0  0  0  0  0  0  0  0  0  0  0
  2  1  1  1  0  0  0
  2  3  1  0  0  0  0
  2  5  1  0  0  0  0
  3  4  2  0  0  0  0
  5  6  1  0  0  0  0
  6  7  1  0  0  0  0
  7  8  1  0  0  0  0
  8  9  2  0  0  0  0
  9 10  1  0  0  0  0
  9 11  1  0  0  0  0
M  CHG  2   1   1   8   1
M  END
>  <CHROM.1>
-50.78354175,-111.84823405,-106.35088064,-71.86285727,-51.72542449,-178.24702382
-2.51677818,-3.50391967,-1.93019761,-0.03282378,-0.80398868,0.42279058

>  <Name>


>  <RI>
0

>  <Rbt.Current_Directory>
/home/itssahil/PROJECTS/Mol_Feturizer/New_Systems/rnas/1aju

>  <Rbt.Executable>
rbdock ($Id: //depot/dev/client3/rdock/2013.1/src/exe/rbdock.cxx#4 $)

>  <Rbt.Library>
libRbt.so (2013.1, Build901 2013/11/27)

>  <Rbt.Parameter_File>
/export/apps/rDock/src/rDock_2013.1_src/data/scripts/dock_solv.prm

>  <Rbt.Receptor>
prm/pocket_docking_3.prm

>  <SCORE>
-23.5341

>  <SCORE.INTER>
-25.3791

>  <SCORE.INTER.CONST>
1

>  <SCORE.INTER.POLAR>
-4.13383

>  <SCORE.INTER.ROT>
5

>  <SCORE.INTER.SOLV>
16.7228

>  <SCORE.INTER.VDW>
-15.6475

>  <SCORE.INTER.norm>
-2.30719

>  <SCORE.INTRA>
1.57245

>  <SCORE.INTRA.DIHEDRAL>
-1.29502

>  <SCORE.INTRA.DIHEDRAL.0>
9.90185

>  <SCORE.INTRA.POLAR>
0

>  <SCORE.INTRA.POLAR.0>
0

>  <SCORE.INTRA.REPUL>
0

>  <SCORE.INTRA.REPUL.0>
0

>  <SCORE.INTRA.SOLV>
1.77227

>  <SCORE.INTRA.SOLV.lig_0>
-53.6586

>  <SCORE.INTRA.VDW>
1.33382

>  <SCORE.INTRA.VDW.0>
-0.556525

>  <SCORE.INTRA.norm>
0.14295

>  <SCORE.RESTR>
0.272564

>  <SCORE.RESTR.CAVITY>
0.272564

>  <SCORE.RESTR.norm>
0.0247786

>  <SCORE.SYSTEM>
0

>  <SCORE.SYSTEM.CONST>
0

>  <SCORE.SYSTEM.DIHEDRAL>
0

>  <SCORE.SYSTEM.SOLV>
0

>  <SCORE.SYSTEM.norm>
0

>  <SCORE.heavy>
11

>  <SCORE.norm>
-2.13946

>  <RMSD>
1.777

$$$$

 OpenBabel11021811383D
libRbt.so/2013.1/901 2013/11/27
 11 10  0  0  0  0  0  0  0  0999 V2000
    0.0405   -4.6195    0.7496 N   0  3  0  0  0  0  0  0  0  0  0  0
   -0.9464   -3.4982    0.7383 C   0  0  2  0  0  0  0  0  0  0  0  0
   -2.1550   -3.8613    1.6177 C   0  0  0  0  0  0  0  0  0  0  0  0
   -3.1931   -4.2498    1.1159 O   0  0  0  0  0  0  0  0  0  0  0  0
   -1.4070   -3.2424   -0.7029 C   0  0  0  0  0  0  0  0  0  0  0  0
   -2.1826   -1.9237   -0.7678 C   0  0  0  0  0  0  0  0  0  0  0  0
   -3.5316   -2.1577   -1.4445 C   0  0  0  0  0  0  0  0  0  0  0  0
   -3.3044   -2.5373   -2.8658 N   0  3  0  0  0  0  0  0  0  0  0  0
   -4.3102   -2.8901   -3.6185 C   0  0  0  0  0  0  0  0  0  0  0  0
   -4.6209   -2.1716   -4.6664 N   0  0  0  0  0  0  0  0  0  0  0  0
   -4.9991   -3.9632   -3.3277 N   0  0  0  0  0  0  0  0  0  0  0  0
  2  1  1  6  0  0  0
  2  3  1  0  0  0  0
  2  5  1  0  0  0  0
  3  4  2  0  0  0  0
  5  6  1  0  0  0  0
  6  7  1  0  0  0  0
  7  8  1  0  0  0  0
  8  9  2  0  0  0  0
  9 10  1  0  0  0  0
  9 11  1  0  0  0  0
M  CHG  2   1   1   8   1
M  END
>  <CHROM.1>
-65.39441028,-101.03139931,-168.26435265,-127.74892307,-65.74508266,174.58163094
-2.77954539,-3.22904573,-1.21792783,-0.94236792,-0.33895677,-1.07270162

>  <Name>


>  <RI>
0

>  <Rbt.Current_Directory>
/home/itssahil/PROJECTS/Mol_Feturizer/New_Systems/rnas/1aju

>  <Rbt.Executable>
rbdock ($Id: //depot/dev/client3/rdock/2013.1/src/exe/rbdock.cxx#4 $)

>  <Rbt.Library>
libRbt.so (2013.1, Build901 2013/11/27)

>  <Rbt.Parameter_File>
/export/apps/rDock/src/rDock_2013.1_src/data/scripts/dock_solv.prm

>  <Rbt.Receptor>
prm/pocket_docking_8.prm

>  <SCORE>
-17.713

>  <SCORE.INTER>
-19.1735

>  <SCORE.INTER.CONST>
1

>  <SCORE.INTER.POLAR>
-3.61792

>  <SCORE.INTER.ROT>
5

>  <SCORE.INTER.SOLV>
16.9671

>  <SCORE.INTER.VDW>
-13.3116

>  <SCORE.INTER.norm>
-1.74304

>  <SCORE.INTRA>
1.46051

>  <SCORE.INTRA.DIHEDRAL>
0.230832

>  <SCORE.INTRA.DIHEDRAL.0>
9.90185

>  <SCORE.INTRA.POLAR>
0

>  <SCORE.INTRA.POLAR.0>
0

>  <SCORE.INTRA.REPUL>
0

>  <SCORE.INTRA.REPUL.0>
0

>  <SCORE.INTRA.SOLV>
0.805842

>  <SCORE.INTRA.SOLV.lig_0>
-53.6586

>  <SCORE.INTRA.VDW>
0.94217

>  <SCORE.INTRA.VDW.0>
-0.556525

>  <SCORE.INTRA.norm>
0.132773

>  <SCORE.RESTR>
0

>  <SCORE.RESTR.CAVITY>
0

>  <SCORE.RESTR.norm>
0

>  <SCORE.SYSTEM>
0

>  <SCORE.SYSTEM.CONST>
0

>  <SCORE.SYSTEM.DIHEDRAL>
0

>  <SCORE.SYSTEM.SOLV>
0

>  <SCORE.SYSTEM.norm>
0

>  <SCORE.heavy>
11

>  <SCORE.norm>
-1.61027

>  <RMSD>
1.798

$$$$

 OpenBabel11021811383D
libRbt.so/2013.1/901 2013/11/27
 11 10  0  0  0  0  0  0  0  0999 V2000
    0.0900   -5.0392    0.7302 N   0  3  0  0  0  0  0  0  0  0  0  0
   -1.1930   -5.2172   -0.0140 C   0  0  2  0  0  0  0  0  0  0  0  0
   -0.9474   -6.0563   -1.2794 C   0  0  0  0  0  0  0  0  0  0  0  0
   -0.7059   -5.5182   -2.3436 O   0  0  0  0  0  0  0  0  0  0  0  0
   -1.7505   -3.8406   -0.3999 C   0  0  0  0  0  0  0  0  0  0  0  0
   -3.1826   -3.9938   -0.9200 C   0  0  0  0  0  0  0  0  0  0  0  0
   -3.7650   -2.6154   -1.2257 C   0  0  0  0  0  0  0  0  0  0  0  0
   -5.1427   -2.7774   -1.7655 N   0  3  0  0  0  0  0  0  0  0  0  0
   -5.3255   -3.2883   -2.9522 C   0  0  0  0  0  0  0  0  0  0  0  0
   -5.9742   -4.4168   -3.0809 N   0  0  0  0  0  0  0  0  0  0  0  0
   -4.8667   -2.6681   -4.0083 N   0  0  0  0  0  0  0  0  0  0  0  0
  2  1  1  6  0  0  0
  2  3  1  0  0  0  0
  2  5  1  0  0  0  0
  3  4  2  0  0  0  0
  5  6  1  0  0  0  0
  6  7  1  0  0  0  0
  7  8  1  0  0  0  0
  8  9  2  0  0  0  0
  9 10  1  0  0  0  0
  9 11  1  0  0  0  0
M  CHG  2   1   1   8   1
M  END
>  <CHROM.1>
-53.66310450,-92.86096697,-169.23561908,176.67468721,178.45761279,-69.79510167
-2.96185849,-4.13285778,-1.57907619,0.20225096,-0.57619743,1.01072144

>  <Name>


>  <RI>
224

>  <Rbt.Current_Directory>
/home/itssahil/PROJECTS/Mol_Feturizer/New_Systems/rnas/1aju

>  <Rbt.Executable>
rbdock ($Id: //depot/dev/client3/rdock/2013.1/src/exe/rbdock.cxx#4 $)

>  <Rbt.Library>
libRbt.so (2013.1, Build901 2013/11/27)

>  <Rbt.Parameter_File>
/export/apps/rDock/src/rDock_2013.1_src/data/scripts/dock_solv.prm

>  <Rbt.Receptor>
prm/pocket_docking_5.prm

>  <SCORE>
-19.4998

>  <SCORE.INTER>
-17.8802

>  <SCORE.INTER.CONST>
1

>  <SCORE.INTER.POLAR>
-3.02855

>  <SCORE.INTER.ROT>
5

>  <SCORE.INTER.SOLV>
18.0153

>  <SCORE.INTER.VDW>
-14.7634

>  <SCORE.INTER.norm>
-1.62547

>  <SCORE.INTRA>
-1.61963

>  <SCORE.INTRA.DIHEDRAL>
-5.19753

>  <SCORE.INTRA.DIHEDRAL.0>
9.90185

>  <SCORE.INTRA.POLAR>
0

>  <SCORE.INTRA.POLAR.0>
0

>  <SCORE.INTRA.REPUL>
0

>  <SCORE.INTRA.REPUL.0>
0

>  <SCORE.INTRA.SOLV>
0.619339

>  <SCORE.INTRA.SOLV.lig_0>
-53.6586

>  <SCORE.INTRA.VDW>
0.669463

>  <SCORE.INTRA.VDW.0>
-0.556525

>  <SCORE.INTRA.norm>
-0.147239

>  <SCORE.RESTR>
0

>  <SCORE.RESTR.CAVITY>
0

>  <SCORE.RESTR.norm>
0

>  <SCORE.SYSTEM>
0

>  <SCORE.SYSTEM.CONST>
0

>  <SCORE.SYSTEM.DIHEDRAL>
0

>  <SCORE.SYSTEM.SOLV>
0

>  <SCORE.SYSTEM.norm>
0

>  <SCORE.heavy>
11

>  <SCORE.norm>
-1.77271

>  <RMSD>
1.802

$$$$

 OpenBabel11021811383D
libRbt.so/2013.1/901 2013/11/27
 11 10  0  0  0  0  0  0  0  0999 V2000
    0.2112   -4.2343    0.9312 N   0  3  0  0  0  0  0  0  0  0  0  0
   -0.6655   -3.0308    0.8105 C   0  0  2  0  0  0  0  0  0  0  0  0
   -1.5126   -2.8755    2.0848 C   0  0  0  0  0  0  0  0  0  0  0  0
   -1.5776   -3.7761    2.9003 O   0  0  0  0  0  0  0  0  0  0  0  0
   -1.5819   -3.1913   -0.4099 C   0  0  0  0  0  0  0  0  0  0  0  0
   -2.2773   -1.8601   -0.7085 C   0  0  0  0  0  0  0  0  0  0  0  0
   -3.6069   -2.1252   -1.4116 C   0  0  0  0  0  0  0  0  0  0  0  0
   -3.3424   -2.5095   -2.8252 N   0  3  0  0  0  0  0  0  0  0  0  0
   -4.3264   -2.8771   -3.5993 C   0  0  0  0  0  0  0  0  0  0  0  0
   -4.6204   -2.1674   -4.6579 N   0  0  0  0  0  0  0  0  0  0  0  0
   -5.0102   -3.9563   -3.3189 N   0  0  0  0  0  0  0  0  0  0  0  0
  2  1  1  1  0  0  0
  2  3  1  0  0  0  0
  2  5  1  0  0  0  0
  3  4  2  0  0  0  0
  5  6  1  0  0  0  0
  6  7  1  0  0  0  0
  7  8  1  0  0  0  0
  8  9  2  0  0  0  0
  9 10  1  0  0  0  0
  9 11  1  0  0  0  0
M  CHG  2   1   1   8   1
M  END
>  <CHROM.1>
60.63682142,-12.20798315,-168.66686024,-153.13650999,-75.08050020,175.11034558
-2.56141439,-3.00550442,-0.93539455,-0.99122428,0.02889790,-1.44688320

>  <Name>


>  <RI>
0

>  <Rbt.Current_Directory>
/home/itssahil/PROJECTS/Mol_Feturizer/New_Systems/rnas/1aju

>  <Rbt.Executable>
rbdock ($Id: //depot/dev/client3/rdock/2013.1/src/exe/rbdock.cxx#4 $)

>  <Rbt.Library>
libRbt.so (2013.1, Build901 2013/11/27)

>  <Rbt.Parameter_File>
/export/apps/rDock/src/rDock_2013.1_src/data/scripts/dock_solv.prm

>  <Rbt.Receptor>
prm/pocket_docking_3.prm

>  <SCORE>
-19.1167

>  <SCORE.INTER>
-18.5827

>  <SCORE.INTER.CONST>
1

>  <SCORE.INTER.POLAR>
-3.60196

>  <SCORE.INTER.ROT>
5

>  <SCORE.INTER.SOLV>
16.8017

>  <SCORE.INTER.VDW>
-12.9158

>  <SCORE.INTER.norm>
-1.68934

>  <SCORE.INTRA>
-0.534048

>  <SCORE.INTRA.DIHEDRAL>
-2.85626

>  <SCORE.INTRA.DIHEDRAL.0>
9.90185

>  <SCORE.INTRA.POLAR>
0

>  <SCORE.INTRA.POLAR.0>
0

>  <SCORE.INTRA.REPUL>
0

>  <SCORE.INTRA.REPUL.0>
0

>  <SCORE.INTRA.SOLV>
1.29523

>  <SCORE.INTRA.SOLV.lig_0>
-53.6586

>  <SCORE.INTRA.VDW>
0.246468

>  <SCORE.INTRA.VDW.0>
-0.556525

>  <SCORE.INTRA.norm>
-0.0485498

>  <SCORE.RESTR>
0

>  <SCORE.RESTR.CAVITY>
0

>  <SCORE.RESTR.norm>
0

>  <SCORE.SYSTEM>
0

>  <SCORE.SYSTEM.CONST>
0

>  <SCORE.SYSTEM.DIHEDRAL>
0

>  <SCORE.SYSTEM.SOLV>
0

>  <SCORE.SYSTEM.norm>
0

>  <SCORE.heavy>
11

>  <SCORE.norm>
-1.73789

>  <RMSD>
1.807

$$$$

 OpenBabel11021811383D
libRbt.so/2013.1/901 2013/11/27
 11 10  0  0  0  0  0  0  0  0999 V2000
    0.1609   -4.3480    0.9325 N   0  3  0  0  0  0  0  0  0  0  0  0
   -0.6721   -3.1104    0.8535 C   0  0  2  0  0  0  0  0  0  0  0  0
   -1.3693   -2.8667    2.2027 C   0  0  0  0  0  0  0  0  0  0  0  0
   -1.1579   -3.5983    3.1515 O   0  0  0  0  0  0  0  0  0  0  0  0
   -1.7210   -3.2749   -0.2544 C   0  0  0  0  0  0  0  0  0  0  0  0
   -2.3367   -1.9124   -0.5852 C   0  0  0  0  0  0  0  0  0  0  0  0
   -3.6476   -2.1149   -1.3422 C   0  0  0  0  0  0  0  0  0  0  0  0
   -3.3444   -2.4533   -2.7597 N   0  3  0  0  0  0  0  0  0  0  0  0
   -4.2910   -2.8862   -3.5468 C   0  0  0  0  0  0  0  0  0  0  0  0
   -4.6347   -2.1851   -4.5961 N   0  0  0  0  0  0  0  0  0  0  0  0
   -4.8872   -4.0213   -3.2887 N   0  0  0  0  0  0  0  0  0  0  0  0
  2  1  1  1  0  0  0
  2  3  1  0  0  0  0
  2  5  1  0  0  0  0
  3  4  2  0  0  0  0
  5  6  1  0  0  0  0
  6  7  1  0  0  0  0
  7  8  1  0  0  0  0
  8  9  2  0  0  0  0
  9 10  1  0  0  0  0
  9 11  1  0  0  0  0
M  CHG  2   1   1   8   1
M  END
>  <CHROM.1>
-49.67281458,3.05429984,-165.77521604,-162.46918614,-77.82468256,168.65310189
-2.52137795,-3.02023774,-0.84751969,-0.65180294,0.81041658,-2.19412593

>  <Name>


>  <RI>
0

>  <Rbt.Current_Directory>
/home/itssahil/PROJECTS/Mol_Feturizer/New_Systems/rnas/1aju

>  <Rbt.Executable>
rbdock ($Id: //depot/dev/client3/rdock/2013.1/src/exe/rbdock.cxx#4 $)

>  <Rbt.Library>
libRbt.so (2013.1, Build901 2013/11/27)

>  <Rbt.Parameter_File>
/export/apps/rDock/src/rDock_2013.1_src/data/scripts/dock_solv.prm

>  <Rbt.Receptor>
prm/pocket_docking_4.prm

>  <SCORE>
-18.9707

>  <SCORE.INTER>
-18.0393

>  <SCORE.INTER.CONST>
1

>  <SCORE.INTER.POLAR>
-3.5764

>  <SCORE.INTER.ROT>
5

>  <SCORE.INTER.SOLV>
16.3398

>  <SCORE.INTER.VDW>
-12.4848

>  <SCORE.INTER.norm>
-1.63994

>  <SCORE.INTRA>
-0.931367

>  <SCORE.INTRA.DIHEDRAL>
-3.64384

>  <SCORE.INTRA.DIHEDRAL.0>
9.90185

>  <SCORE.INTRA.POLAR>
0

>  <SCORE.INTRA.POLAR.0>
0

>  <SCORE.INTRA.REPUL>
0

>  <SCORE.INTRA.REPUL.0>
0

>  <SCORE.INTRA.SOLV>
1.34627

>  <SCORE.INTRA.SOLV.lig_0>
-53.6586

>  <SCORE.INTRA.VDW>
0.217417

>  <SCORE.INTRA.VDW.0>
-0.556525

>  <SCORE.INTRA.norm>
-0.0846697

>  <SCORE.RESTR>
0

>  <SCORE.RESTR.CAVITY>
0

>  <SCORE.RESTR.norm>
0

>  <SCORE.SYSTEM>
0

>  <SCORE.SYSTEM.CONST>
0

>  <SCORE.SYSTEM.DIHEDRAL>
0

>  <SCORE.SYSTEM.SOLV>
0

>  <SCORE.SYSTEM.norm>
0

>  <SCORE.heavy>
11

>  <SCORE.norm>
-1.7246

>  <RMSD>
1.820

$$$$

 OpenBabel11021811383D
libRbt.so/2013.1/901 2013/11/27
 11 10  0  0  0  0  0  0  0  0999 V2000
    0.0706   -4.5356    0.8254 N   0  3  0  0  0  0  0  0  0  0  0  0
   -0.8678   -3.3734    0.8097 C   0  0  2  0  0  0  0  0  0  0  0  0
   -1.9183   -3.5392    1.9209 C   0  0  0  0  0  0  0  0  0  0  0  0
   -3.0373   -3.9405    1.6621 O   0  0  0  0  0  0  0  0  0  0  0  0
   -1.5606   -3.2995   -0.5575 C   0  0  0  0  0  0  0  0  0  0  0  0
   -2.2520   -1.9417   -0.7102 C   0  0  0  0  0  0  0  0  0  0  0  0
   -3.5843   -2.1258   -1.4337 C   0  0  0  0  0  0  0  0  0  0  0  0
   -3.3218   -2.4772   -2.8562 N   0  3  0  0  0  0  0  0  0  0  0  0
   -4.3033   -2.8507   -3.6307 C   0  0  0  0  0  0  0  0  0  0  0  0
   -4.6195   -2.1272   -4.6734 N   0  0  0  0  0  0  0  0  0  0  0  0
   -4.9622   -3.9493   -3.3667 N   0  0  0  0  0  0  0  0  0  0  0  0
  2  1  1  6  0  0  0
  2  3  1  0  0  0  0
  2  5  1  0  0  0  0
  3  4  2  0  0  0  0
  5  6  1  0  0  0  0
  6  7  1  0  0  0  0
  7  8  1  0  0  0  0
  8  9  2  0  0  0  0
  9 10  1  0  0  0  0
  9 11  1  0  0  0  0
M  CHG  2   1   1   8   1
M  END
>  <CHROM.1>
179.92565483,-100.76254606,-166.24912853,-141.83042987,-70.10595976,171.19153456
-2.75666015,-3.14236559,-1.11075413,-1.00173753,-0.11138725,-1.27656594

>  <Name>


>  <RI>
224

>  <Rbt.Current_Directory>
/home/itssahil/PROJECTS/Mol_Feturizer/New_Systems/rnas/1aju

>  <Rbt.Executable>
rbdock ($Id: //depot/dev/client3/rdock/2013.1/src/exe/rbdock.cxx#4 $)

>  <Rbt.Library>
libRbt.so (2013.1, Build901 2013/11/27)

>  <Rbt.Parameter_File>
/export/apps/rDock/src/rDock_2013.1_src/data/scripts/dock_solv.prm

>  <Rbt.Receptor>
prm/pocket_docking_5.prm

>  <SCORE>
-18.1374

>  <SCORE.INTER>
-18.8708

>  <SCORE.INTER.CONST>
1

>  <SCORE.INTER.POLAR>
-3.68963

>  <SCORE.INTER.ROT>
5

>  <SCORE.INTER.SOLV>
16.9829

>  <SCORE.INTER.VDW>
-12.8761

>  <SCORE.INTER.norm>
-1.71553

>  <SCORE.INTRA>
0.733439

>  <SCORE.INTRA.DIHEDRAL>
-0.9354

>  <SCORE.INTRA.DIHEDRAL.0>
9.90185

>  <SCORE.INTRA.POLAR>
0

>  <SCORE.INTRA.POLAR.0>
0

>  <SCORE.INTRA.REPUL>
0

>  <SCORE.INTRA.REPUL.0>
0

>  <SCORE.INTRA.SOLV>
0.775517

>  <SCORE.INTRA.SOLV.lig_0>
-53.6586

>  <SCORE.INTRA.VDW>
0.81338

>  <SCORE.INTRA.VDW.0>
-0.556525

>  <SCORE.INTRA.norm>
0.0666763

>  <SCORE.RESTR>
0

>  <SCORE.RESTR.CAVITY>
0

>  <SCORE.RESTR.norm>
0

>  <SCORE.SYSTEM>
0

>  <SCORE.SYSTEM.CONST>
0

>  <SCORE.SYSTEM.DIHEDRAL>
0

>  <SCORE.SYSTEM.SOLV>
0

>  <SCORE.SYSTEM.norm>
0

>  <SCORE.heavy>
11

>  <SCORE.norm>
-1.64885

>  <RMSD>
1.822

$$$$

 OpenBabel11021811383D
libRbt.so/2013.1/901 2013/11/27
 11 10  0  0  0  0  0  0  0  0999 V2000
   -0.2447   -4.2839    0.6342 N   0  3  0  0  0  0  0  0  0  0  0  0
   -1.3439   -4.5285   -0.3475 C   0  0  2  0  0  0  0  0  0  0  0  0
   -1.1027   -5.8616   -1.0757 C   0  0  0  0  0  0  0  0  0  0  0  0
   -1.9605   -6.7244   -1.0910 O   0  0  0  0  0  0  0  0  0  0  0  0
   -1.3826   -3.3782   -1.3625 C   0  0  0  0  0  0  0  0  0  0  0  0
   -2.7350   -3.3722   -2.0806 C   0  0  0  0  0  0  0  0  0  0  0  0
   -3.7562   -2.6091   -1.2394 C   0  0  0  0  0  0  0  0  0  0  0  0
   -5.1232   -2.8958   -1.7543 N   0  3  0  0  0  0  0  0  0  0  0  0
   -5.2828   -3.3756   -2.9572 C   0  0  0  0  0  0  0  0  0  0  0  0
   -5.8117   -4.5608   -3.1190 N   0  0  0  0  0  0  0  0  0  0  0  0
   -4.9209   -2.6682   -3.9961 N   0  0  0  0  0  0  0  0  0  0  0  0
  2  1  1  1  0  0  0
  2  3  1  0  0  0  0
  2  5  1  0  0  0  0
  3  4  2  0  0  0  0
  5  6  1  0  0  0  0
  6  7  1  0  0  0  0
  7  8  1  0  0  0  0
  8  9  2  0  0  0  0
  9 10  1  0  0  0  0
  9 11  1  0  0  0  0
M  CHG  2   1   1   8   1
M  END
>  <CHROM.1>
61.17346413,125.56829120,-162.19054847,84.50468891,-165.73389073,-18.73435449
-3.06032223,-4.03808300,-1.66260666,-0.26689792,-0.58656651,0.10334821

>  <Name>


>  <RI>
0

>  <Rbt.Current_Directory>
/home/itssahil/PROJECTS/Mol_Feturizer/New_Systems/rnas/1aju

>  <Rbt.Executable>
rbdock ($Id: //depot/dev/client3/rdock/2013.1/src/exe/rbdock.cxx#4 $)

>  <Rbt.Library>
libRbt.so (2013.1, Build901 2013/11/27)

>  <Rbt.Parameter_File>
/export/apps/rDock/src/rDock_2013.1_src/data/scripts/dock_solv.prm

>  <Rbt.Receptor>
prm/pocket_docking_4.prm

>  <SCORE>
-17.075

>  <SCORE.INTER>
-17.8865

>  <SCORE.INTER.CONST>
1

>  <SCORE.INTER.POLAR>
-2.53219

>  <SCORE.INTER.ROT>
5

>  <SCORE.INTER.SOLV>
14.3917

>  <SCORE.INTER.VDW>
-15.2143

>  <SCORE.INTER.norm>
-1.62604

>  <SCORE.INTRA>
0.811534

>  <SCORE.INTRA.DIHEDRAL>
-2.96426

>  <SCORE.INTRA.DIHEDRAL.0>
9.90185

>  <SCORE.INTRA.POLAR>
0

>  <SCORE.INTRA.POLAR.0>
0

>  <SCORE.INTRA.REPUL>
0

>  <SCORE.INTRA.REPUL.0>
0

>  <SCORE.INTRA.SOLV>
0.748383

>  <SCORE.INTRA.SOLV.lig_0>
-53.6586

>  <SCORE.INTRA.VDW>
1.91947

>  <SCORE.INTRA.VDW.0>
-0.556525

>  <SCORE.INTRA.norm>
0.0737758

>  <SCORE.RESTR>
0

>  <SCORE.RESTR.CAVITY>
0

>  <SCORE.RESTR.norm>
0

>  <SCORE.SYSTEM>
0

>  <SCORE.SYSTEM.CONST>
0

>  <SCORE.SYSTEM.DIHEDRAL>
0

>  <SCORE.SYSTEM.SOLV>
0

>  <SCORE.SYSTEM.norm>
0

>  <SCORE.heavy>
11

>  <SCORE.norm>
-1.55227

>  <RMSD>
1.827

$$$$

 OpenBabel11021811383D
libRbt.so/2013.1/901 2013/11/27
 11 10  0  0  0  0  0  0  0  0999 V2000
   -0.0395   -4.8258    0.8654 N   0  3  0  0  0  0  0  0  0  0  0  0
   -1.1517   -3.8293    0.9045 C   0  0  2  0  0  0  0  0  0  0  0  0
   -2.2511   -4.3155    1.8640 C   0  0  0  0  0  0  0  0  0  0  0  0
   -2.6288   -3.6123    2.7822 O   0  0  0  0  0  0  0  0  0  0  0  0
   -1.7287   -3.6577   -0.5071 C   0  0  0  0  0  0  0  0  0  0  0  0
   -2.2712   -2.2351   -0.6707 C   0  0  0  0  0  0  0  0  0  0  0  0
   -2.7859   -2.0459   -2.0961 C   0  0  0  0  0  0  0  0  0  0  0  0
   -4.2465   -2.3317   -2.1286 N   0  3  0  0  0  0  0  0  0  0  0  0
   -4.7809   -2.8937   -3.1780 C   0  0  0  0  0  0  0  0  0  0  0  0
   -5.3372   -4.0726   -3.0712 N   0  0  0  0  0  0  0  0  0  0  0  0
   -4.7652   -2.2745   -4.3300 N   0  0  0  0  0  0  0  0  0  0  0  0
  2  1  1  6  0  0  0
  2  3  1  0  0  0  0
  2  5  1  0  0  0  0
  3  4  2  0  0  0  0
  5  6  1  0  0  0  0
  6  7  1  0  0  0  0
  7  8  1  0  0  0  0
  8  9  2  0  0  0  0
  9 10  1  0  0  0  0
  9 11  1  0  0  0  0
M  CHG  2   1   1   8   1
M  END
>  <CHROM.1>
59.33241967,124.98710196,-149.97705590,177.39323533,94.00398978,-145.19029114
-2.90522460,-3.30632672,-0.87001356,-0.99344578,-0.00284957,-1.29976624

>  <Name>


>  <RI>
0

>  <Rbt.Current_Directory>
/home/itssahil/PROJECTS/Mol_Feturizer/New_Systems/rnas/1aju

>  <Rbt.Executable>
rbdock ($Id: //depot/dev/client3/rdock/2013.1/src/exe/rbdock.cxx#4 $)

>  <Rbt.Library>
libRbt.so (2013.1, Build901 2013/11/27)

>  <Rbt.Parameter_File>
/export/apps/rDock/src/rDock_2013.1_src/data/scripts/dock_solv.prm

>  <Rbt.Receptor>
prm/pocket_docking_3.prm

>  <SCORE>
-16.218

>  <SCORE.INTER>
-15.2951

>  <SCORE.INTER.CONST>
1

>  <SCORE.INTER.POLAR>
-2.56474

>  <SCORE.INTER.ROT>
5

>  <SCORE.INTER.SOLV>
15.9402

>  <SCORE.INTER.VDW>
-13.8944

>  <SCORE.INTER.norm>
-1.39047

>  <SCORE.INTRA>
-0.922873

>  <SCORE.INTRA.DIHEDRAL>
-1.01639

>  <SCORE.INTRA.DIHEDRAL.0>
9.90185

>  <SCORE.INTRA.POLAR>
0

>  <SCORE.INTRA.POLAR.0>
0

>  <SCORE.INTRA.REPUL>
0

>  <SCORE.INTRA.REPUL.0>
0

>  <SCORE.INTRA.SOLV>
0.139649

>  <SCORE.INTRA.SOLV.lig_0>
-53.6586

>  <SCORE.INTRA.VDW>
-0.484502

>  <SCORE.INTRA.VDW.0>
-0.556525

>  <SCORE.INTRA.norm>
-0.0838975

>  <SCORE.RESTR>
0

>  <SCORE.RESTR.CAVITY>
0

>  <SCORE.RESTR.norm>
0

>  <SCORE.SYSTEM>
0

>  <SCORE.SYSTEM.CONST>
0

>  <SCORE.SYSTEM.DIHEDRAL>
0

>  <SCORE.SYSTEM.SOLV>
0

>  <SCORE.SYSTEM.norm>
0

>  <SCORE.heavy>
11

>  <SCORE.norm>
-1.47436

>  <RMSD>
1.833

$$$$

 OpenBabel11021811383D
libRbt.so/2013.1/901 2013/11/27
 11 10  0  0  0  0  0  0  0  0999 V2000
    0.2226   -4.6643    1.0574 N   0  3  0  0  0  0  0  0  0  0  0  0
   -1.0105   -3.8322    1.1947 C   0  0  2  0  0  0  0  0  0  0  0  0
   -1.5900   -3.9922    2.6104 C   0  0  0  0  0  0  0  0  0  0  0  0
   -1.0448   -4.7112    3.4265 O   0  0  0  0  0  0  0  0  0  0  0  0
   -2.0440   -4.2816    0.1531 C   0  0  0  0  0  0  0  0  0  0  0  0
   -1.5357   -3.9474   -1.2521 C   0  0  0  0  0  0  0  0  0  0  0  0
   -1.4992   -2.4315   -1.4347 C   0  0  0  0  0  0  0  0  0  0  0  0
   -2.8864   -1.8976   -1.3542 N   0  3  0  0  0  0  0  0  0  0  0  0
   -3.8277   -2.4040   -2.1027 C   0  0  0  0  0  0  0  0  0  0  0  0
   -4.8507   -2.9993   -1.5461 N   0  0  0  0  0  0  0  0  0  0  0  0
   -3.7493   -2.3086   -3.4048 N   0  0  0  0  0  0  0  0  0  0  0  0
  2  1  1  1  0  0  0
  2  3  1  0  0  0  0
  2  5  1  0  0  0  0
  3  4  2  0  0  0  0
  5  6  1  0  0  0  0
  6  7  1  0  0  0  0
  7  8  1  0  0  0  0
  8  9  2  0  0  0  0
  9 10  1  0  0  0  0
  9 11  1  0  0  0  0
M  CHG  2   1   1   8   1
M  END
>  <CHROM.1>
65.87239074,0.27892223,-66.98916602,-67.64254638,-64.02765149,-52.43883404
-2.15458482,-3.42562616,-0.23794324,-1.03324553,0.18976998,-1.26819732

>  <Name>


>  <RI>
0

>  <Rbt.Current_Directory>
/home/itssahil/PROJECTS/Mol_Feturizer/New_Systems/rnas/1aju

>  <Rbt.Executable>
rbdock ($Id: //depot/dev/client3/rdock/2013.1/src/exe/rbdock.cxx#4 $)

>  <Rbt.Library>
libRbt.so (2013.1, Build901 2013/11/27)

>  <Rbt.Parameter_File>
/export/apps/rDock/src/rDock_2013.1_src/data/scripts/dock_solv.prm

>  <Rbt.Receptor>
prm/pocket_docking_3.prm

>  <SCORE>
-16.9363

>  <SCORE.INTER>
-16.1987

>  <SCORE.INTER.CONST>
1

>  <SCORE.INTER.POLAR>
-2.83378

>  <SCORE.INTER.ROT>
5

>  <SCORE.INTER.SOLV>
13.349

>  <SCORE.INTER.VDW>
-12.7362

>  <SCORE.INTER.norm>
-1.47261

>  <SCORE.INTRA>
-0.737666

>  <SCORE.INTRA.DIHEDRAL>
-6.41453

>  <SCORE.INTRA.DIHEDRAL.0>
9.90185

>  <SCORE.INTRA.POLAR>
0

>  <SCORE.INTRA.POLAR.0>
0

>  <SCORE.INTRA.REPUL>
0

>  <SCORE.INTRA.REPUL.0>
0

>  <SCORE.INTRA.SOLV>
3.68867

>  <SCORE.INTRA.SOLV.lig_0>
-53.6586

>  <SCORE.INTRA.VDW>
0.625261

>  <SCORE.INTRA.VDW.0>
-0.556525

>  <SCORE.INTRA.norm>
-0.0670605

>  <SCORE.RESTR>
0

>  <SCORE.RESTR.CAVITY>
0

>  <SCORE.RESTR.norm>
0

>  <SCORE.SYSTEM>
0

>  <SCORE.SYSTEM.CONST>
0

>  <SCORE.SYSTEM.DIHEDRAL>
0

>  <SCORE.SYSTEM.SOLV>
0

>  <SCORE.SYSTEM.norm>
0

>  <SCORE.heavy>
11

>  <SCORE.norm>
-1.53967

>  <RMSD>
1.839

$$$$

 OpenBabel11021811383D
libRbt.so/2013.1/901 2013/11/27
 11 10  0  0  0  0  0  0  0  0999 V2000
   -0.1661   -4.1106    1.0604 N   0  3  0  0  0  0  0  0  0  0  0  0
   -0.9647   -2.9245    1.4930 C   0  0  2  0  0  0  0  0  0  0  0  0
   -1.2608   -3.0193    2.9993 C   0  0  0  0  0  0  0  0  0  0  0  0
   -0.9064   -3.9899    3.6416 O   0  0  0  0  0  0  0  0  0  0  0  0
   -2.2799   -2.8833    0.7035 C   0  0  0  0  0  0  0  0  0  0  0  0
   -1.9815   -2.6450   -0.7794 C   0  0  0  0  0  0  0  0  0  0  0  0
   -3.2605   -2.2147   -1.4947 C   0  0  0  0  0  0  0  0  0  0  0  0
   -3.1686   -2.5983   -2.9300 N   0  3  0  0  0  0  0  0  0  0  0  0
   -4.2481   -2.9015   -3.5975 C   0  0  0  0  0  0  0  0  0  0  0  0
   -4.6106   -2.1652   -4.6159 N   0  0  0  0  0  0  0  0  0  0  0  0
   -4.9593   -3.9432   -3.2514 N   0  0  0  0  0  0  0  0  0  0  0  0
  2  1  1  6  0  0  0
  2  3  1  0  0  0  0
  2  5  1  0  0  0  0
  3  4  2  0  0  0  0
  5  6  1  0  0  0  0
  6  7  1  0  0  0  0
  7  8  1  0  0  0  0
  8  9  2  0  0  0  0
  9 10  1  0  0  0  0
  9 11  1  0  0  0  0
M  CHG  2   1   1   8   1
M  END
>  <CHROM.1>
73.87669273,-3.07138917,-65.27697965,-164.15153091,-153.39868676,149.28013022
-2.51607384,-3.07489756,-0.63512616,-1.00926160,-0.41636153,-1.19763215

>  <Name>


>  <RI>
0

>  <Rbt.Current_Directory>
/home/itssahil/PROJECTS/Mol_Feturizer/New_Systems/rnas/1aju

>  <Rbt.Executable>
rbdock ($Id: //depot/dev/client3/rdock/2013.1/src/exe/rbdock.cxx#4 $)

>  <Rbt.Library>
libRbt.so (2013.1, Build901 2013/11/27)

>  <Rbt.Parameter_File>
/export/apps/rDock/src/rDock_2013.1_src/data/scripts/dock_solv.prm

>  <Rbt.Receptor>
prm/pocket_docking_6.prm

>  <SCORE>
-18.4143

>  <SCORE.INTER>
-17.9962

>  <SCORE.INTER.CONST>
1

>  <SCORE.INTER.POLAR>
-3.51525

>  <SCORE.INTER.ROT>
5

>  <SCORE.INTER.SOLV>
15.1585

>  <SCORE.INTER.VDW>
-12.2662

>  <SCORE.INTER.norm>
-1.63602

>  <SCORE.INTRA>
-0.433969

>  <SCORE.INTRA.DIHEDRAL>
-3.06623

>  <SCORE.INTRA.DIHEDRAL.0>
9.90185

>  <SCORE.INTRA.POLAR>
0

>  <SCORE.INTRA.POLAR.0>
0

>  <SCORE.INTRA.REPUL>
0

>  <SCORE.INTRA.REPUL.0>
0

>  <SCORE.INTRA.SOLV>
2.1409

>  <SCORE.INTRA.SOLV.lig_0>
-53.6586

>  <SCORE.INTRA.VDW>
0.0286911

>  <SCORE.INTRA.VDW.0>
-0.556525

>  <SCORE.INTRA.norm>
-0.0394518

>  <SCORE.RESTR>
0.0158997

>  <SCORE.RESTR.CAVITY>
0.0158997

>  <SCORE.RESTR.norm>
0.00144543

>  <SCORE.SYSTEM>
0

>  <SCORE.SYSTEM.CONST>
0

>  <SCORE.SYSTEM.DIHEDRAL>
0

>  <SCORE.SYSTEM.SOLV>
0

>  <SCORE.SYSTEM.norm>
0

>  <SCORE.heavy>
11

>  <SCORE.norm>
-1.67402

>  <RMSD>
1.854

$$$$

 OpenBabel11021811383D
libRbt.so/2013.1/901 2013/11/27
 11 10  0  0  0  0  0  0  0  0999 V2000
   -0.3862   -5.7517    0.2917 N   0  3  0  0  0  0  0  0  0  0  0  0
   -0.5630   -4.2697    0.2281 C   0  0  2  0  0  0  0  0  0  0  0  0
   -0.7751   -3.7108    1.6453 C   0  0  0  0  0  0  0  0  0  0  0  0
   -0.0255   -2.8661    2.0979 O   0  0  0  0  0  0  0  0  0  0  0  0
   -1.7775   -3.9410   -0.6504 C   0  0  0  0  0  0  0  0  0  0  0  0
   -1.9008   -2.4230   -0.8091 C   0  0  0  0  0  0  0  0  0  0  0  0
   -3.2151   -2.0882   -1.5112 C   0  0  0  0  0  0  0  0  0  0  0  0
   -3.1379   -2.5358   -2.9288 N   0  3  0  0  0  0  0  0  0  0  0  0
   -4.2215   -2.8898   -3.5639 C   0  0  0  0  0  0  0  0  0  0  0  0
   -4.6140   -2.2081   -4.6089 N   0  0  0  0  0  0  0  0  0  0  0  0
   -4.9067   -3.9276   -3.1589 N   0  0  0  0  0  0  0  0  0  0  0  0
  2  1  1  1  0  0  0
  2  3  1  0  0  0  0
  2  5  1  0  0  0  0
  3  4  2  0  0  0  0
  5  6  1  0  0  0  0
  6  7  1  0  0  0  0
  7  8  1  0  0  0  0
  8  9  2  0  0  0  0
  9 10  1  0  0  0  0
  9 11  1  0  0  0  0
M  CHG  2   1   1   8   1
M  END
>  <CHROM.1>
60.71957709,121.90433148,-175.64562944,-171.94443092,-69.42896514,150.97954606
-2.31736699,-3.36226446,-1.19153855,0.06084439,0.90079678,-2.95885197

>  <Name>


>  <RI>
0

>  <Rbt.Current_Directory>
/home/itssahil/PROJECTS/Mol_Feturizer/New_Systems/rnas/1aju

>  <Rbt.Executable>
rbdock ($Id: //depot/dev/client3/rdock/2013.1/src/exe/rbdock.cxx#4 $)

>  <Rbt.Library>
libRbt.so (2013.1, Build901 2013/11/27)

>  <Rbt.Parameter_File>
/export/apps/rDock/src/rDock_2013.1_src/data/scripts/dock_solv.prm

>  <Rbt.Receptor>
prm/pocket_docking_3.prm

>  <SCORE>
-17.1145

>  <SCORE.INTER>
-14.4436

>  <SCORE.INTER.CONST>
1

>  <SCORE.INTER.POLAR>
-2.5102

>  <SCORE.INTER.ROT>
5

>  <SCORE.INTER.SOLV>
17.1147

>  <SCORE.INTER.VDW>
-13.9

>  <SCORE.INTER.norm>
-1.31305

>  <SCORE.INTRA>
-2.67089

>  <SCORE.INTRA.DIHEDRAL>
-6.22656

>  <SCORE.INTRA.DIHEDRAL.0>
9.90185

>  <SCORE.INTRA.POLAR>
0

>  <SCORE.INTRA.POLAR.0>
0

>  <SCORE.INTRA.REPUL>
0

>  <SCORE.INTRA.REPUL.0>
0

>  <SCORE.INTRA.SOLV>
0.555754

>  <SCORE.INTRA.SOLV.lig_0>
-53.6586

>  <SCORE.INTRA.VDW>
0.164516

>  <SCORE.INTRA.VDW.0>
-0.556525

>  <SCORE.INTRA.norm>
-0.242808

>  <SCORE.RESTR>
0

>  <SCORE.RESTR.CAVITY>
0

>  <SCORE.RESTR.norm>
0

>  <SCORE.SYSTEM>
0

>  <SCORE.SYSTEM.CONST>
0

>  <SCORE.SYSTEM.DIHEDRAL>
0

>  <SCORE.SYSTEM.SOLV>
0

>  <SCORE.SYSTEM.norm>
0

>  <SCORE.heavy>
11

>  <SCORE.norm>
-1.55586

>  <RMSD>
1.858

$$$$

 OpenBabel11021811383D
libRbt.so/2013.1/901 2013/11/27
 11 10  0  0  0  0  0  0  0  0999 V2000
    0.2696   -2.2406    1.7831 N   0  3  0  0  0  0  0  0  0  0  0  0
   -1.0365   -2.2060    1.0588 C   0  0  2  0  0  0  0  0  0  0  0  0
   -1.9417   -3.3415    1.5657 C   0  0  0  0  0  0  0  0  0  0  0  0
   -3.0698   -3.1080    1.9571 O   0  0  0  0  0  0  0  0  0  0  0  0
   -0.7861   -2.3698   -0.4463 C   0  0  0  0  0  0  0  0  0  0  0  0
   -2.0253   -1.9195   -1.2251 C   0  0  0  0  0  0  0  0  0  0  0  0
   -3.0120   -3.0804   -1.3300 C   0  0  0  0  0  0  0  0  0  0  0  0
   -4.2503   -2.6077   -2.0075 N   0  3  0  0  0  0  0  0  0  0  0  0
   -4.3472   -2.6622   -3.3077 C   0  0  0  0  0  0  0  0  0  0  0  0
   -5.2595   -3.4194   -3.8600 N   0  0  0  0  0  0  0  0  0  0  0  0
   -3.5380   -1.9552   -4.0534 N   0  0  0  0  0  0  0  0  0  0  0  0
  2  1  1  1  0  0  0
  2  3  1  0  0  0  0
  2  5  1  0  0  0  0
  3  4  2  0  0  0  0
  5  6  1  0  0  0  0
  6  7  1  0  0  0  0
  7  8  1  0  0  0  0
  8  9  2  0  0  0  0
  9 10  1  0  0  0  0
  9 11  1  0  0  0  0
M  CHG  2   1   1   8   1
M  END
>  <CHROM.1>
-60.46992246,126.96782861,-162.95190133,-85.54064988,176.22641251,88.86511914
-2.63323064,-2.62411212,-0.89169682,-0.91752810,-0.36619339,-1.33621911

>  <Name>


>  <RI>
0

>  <Rbt.Current_Directory>
/home/itssahil/PROJECTS/Mol_Feturizer/New_Systems/rnas/1aju

>  <Rbt.Executable>
rbdock ($Id: //depot/dev/client3/rdock/2013.1/src/exe/rbdock.cxx#4 $)

>  <Rbt.Library>
libRbt.so (2013.1, Build901 2013/11/27)

>  <Rbt.Parameter_File>
/export/apps/rDock/src/rDock_2013.1_src/data/scripts/dock_solv.prm

>  <Rbt.Receptor>
prm/pocket_docking_6.prm

>  <SCORE>
-14.4805

>  <SCORE.INTER>
-13.2485

>  <SCORE.INTER.CONST>
1

>  <SCORE.INTER.POLAR>
-2.62843

>  <SCORE.INTER.ROT>
5

>  <SCORE.INTER.SOLV>
16.3134

>  <SCORE.INTER.VDW>
-12.442

>  <SCORE.INTER.norm>
-1.20441

>  <SCORE.INTRA>
-1.23202

>  <SCORE.INTRA.DIHEDRAL>
-3.54414

>  <SCORE.INTRA.DIHEDRAL.0>
9.90185

>  <SCORE.INTRA.POLAR>
0

>  <SCORE.INTRA.POLAR.0>
0

>  <SCORE.INTRA.REPUL>
0

>  <SCORE.INTRA.REPUL.0>
0

>  <SCORE.INTRA.SOLV>
0.636934

>  <SCORE.INTRA.SOLV.lig_0>
-53.6586

>  <SCORE.INTRA.VDW>
0.221581

>  <SCORE.INTRA.VDW.0>
-0.556525

>  <SCORE.INTRA.norm>
-0.112002

>  <SCORE.RESTR>
0

>  <SCORE.RESTR.CAVITY>
0

>  <SCORE.RESTR.norm>
0

>  <SCORE.SYSTEM>
0

>  <SCORE.SYSTEM.CONST>
0

>  <SCORE.SYSTEM.DIHEDRAL>
0

>  <SCORE.SYSTEM.SOLV>
0

>  <SCORE.SYSTEM.norm>
0

>  <SCORE.heavy>
11

>  <SCORE.norm>
-1.31641

>  <RMSD>
1.866

$$$$

 OpenBabel11021811383D
libRbt.so/2013.1/901 2013/11/27
 11 10  0  0  0  0  0  0  0  0999 V2000
    0.2016   -2.1300    0.5271 N   0  3  0  0  0  0  0  0  0  0  0  0
   -0.8373   -2.6680    1.4561 C   0  0  2  0  0  0  0  0  0  0  0  0
   -0.1612   -3.4571    2.5902 C   0  0  0  0  0  0  0  0  0  0  0  0
   -0.2403   -3.0771    3.7433 O   0  0  0  0  0  0  0  0  0  0  0  0
   -1.7887   -3.5854    0.6763 C   0  0  0  0  0  0  0  0  0  0  0  0
   -2.6630   -2.7438   -0.2577 C   0  0  0  0  0  0  0  0  0  0  0  0
   -3.4084   -3.6619   -1.2241 C   0  0  0  0  0  0  0  0  0  0  0  0
   -4.4837   -2.8866   -1.9011 N   0  3  0  0  0  0  0  0  0  0  0  0
   -4.4206   -2.6625   -3.1851 C   0  0  0  0  0  0  0  0  0  0  0  0
   -5.3408   -3.1512   -3.9759 N   0  0  0  0  0  0  0  0  0  0  0  0
   -3.4433   -1.9452   -3.6759 N   0  0  0  0  0  0  0  0  0  0  0  0
  2  1  1  6  0  0  0
  2  3  1  0  0  0  0
  2  5  1  0  0  0  0
  3  4  2  0  0  0  0
  5  6  1  0  0  0  0
  6  7  1  0  0  0  0
  7  8  1  0  0  0  0
  8  9  2  0  0  0  0
  9 10  1  0  0  0  0
  9 11  1  0  0  0  0
M  CHG  2   1   1   8   1
M  END
>  <CHROM.1>
-173.29031218,115.60384485,-70.89523621,168.94411341,166.69977601,113.92973071
-2.40187559,-2.88025056,-0.50098701,-0.85081913,-0.43797934,-1.17838648

>  <Name>


>  <RI>
0

>  <Rbt.Current_Directory>
/home/itssahil/PROJECTS/Mol_Feturizer/New_Systems/rnas/1aju

>  <Rbt.Executable>
rbdock ($Id: //depot/dev/client3/rdock/2013.1/src/exe/rbdock.cxx#4 $)

>  <Rbt.Library>
libRbt.so (2013.1, Build901 2013/11/27)

>  <Rbt.Parameter_File>
/export/apps/rDock/src/rDock_2013.1_src/data/scripts/dock_solv.prm

>  <Rbt.Receptor>
prm/pocket_docking_4.prm

>  <SCORE>
-16.6661

>  <SCORE.INTER>
-14.1677

>  <SCORE.INTER.CONST>
1

>  <SCORE.INTER.POLAR>
-3.29387

>  <SCORE.INTER.ROT>
5

>  <SCORE.INTER.SOLV>
19.0737

>  <SCORE.INTER.VDW>
-11.7568

>  <SCORE.INTER.norm>
-1.28798

>  <SCORE.INTRA>
-2.50626

>  <SCORE.INTRA.DIHEDRAL>
-5.28009

>  <SCORE.INTRA.DIHEDRAL.0>
9.90185

>  <SCORE.INTRA.POLAR>
0

>  <SCORE.INTRA.POLAR.0>
0

>  <SCORE.INTRA.REPUL>
0

>  <SCORE.INTRA.REPUL.0>
0

>  <SCORE.INTRA.SOLV>
1.26008

>  <SCORE.INTRA.SOLV.lig_0>
-53.6586

>  <SCORE.INTRA.VDW>
-0.496249

>  <SCORE.INTRA.VDW.0>
-0.556525

>  <SCORE.INTRA.norm>
-0.227841

>  <SCORE.RESTR>
0.00790572

>  <SCORE.RESTR.CAVITY>
0.00790572

>  <SCORE.RESTR.norm>
0.000718701

>  <SCORE.SYSTEM>
0

>  <SCORE.SYSTEM.CONST>
0

>  <SCORE.SYSTEM.DIHEDRAL>
0

>  <SCORE.SYSTEM.SOLV>
0

>  <SCORE.SYSTEM.norm>
0

>  <SCORE.heavy>
11

>  <SCORE.norm>
-1.5151

>  <RMSD>
1.880

$$$$

 OpenBabel11021811383D
libRbt.so/2013.1/901 2013/11/27
 11 10  0  0  0  0  0  0  0  0999 V2000
   -0.4472   -3.1156    0.8172 N   0  3  0  0  0  0  0  0  0  0  0  0
   -1.6847   -3.9485    0.8984 C   0  0  2  0  0  0  0  0  0  0  0  0
   -1.3685   -5.2813    1.5979 C   0  0  0  0  0  0  0  0  0  0  0  0
   -0.2302   -5.5528    1.9306 O   0  0  0  0  0  0  0  0  0  0  0  0
   -2.2112   -4.2140   -0.5183 C   0  0  0  0  0  0  0  0  0  0  0  0
   -3.7361   -4.3495   -0.4826 C   0  0  0  0  0  0  0  0  0  0  0  0
   -4.2508   -4.6939   -1.8786 C   0  0  0  0  0  0  0  0  0  0  0  0
   -4.8046   -3.4651   -2.5105 N   0  3  0  0  0  0  0  0  0  0  0  0
   -4.0361   -2.6966   -3.2328 C   0  0  0  0  0  0  0  0  0  0  0  0
   -4.2918   -2.5335   -4.5051 N   0  0  0  0  0  0  0  0  0  0  0  0
   -3.0186   -2.0869   -2.6818 N   0  0  0  0  0  0  0  0  0  0  0  0
  2  1  1  6  0  0  0
  2  3  1  0  0  0  0
  2  5  1  0  0  0  0
  3  4  2  0  0  0  0
  5  6  1  0  0  0  0
  6  7  1  0  0  0  0
  7  8  1  0  0  0  0
  8  9  2  0  0  0  0
  9 10  1  0  0  0  0
  9 11  1  0  0  0  0
M  CHG  2   1   1   8   1
M  END
>  <CHROM.1>
-176.55469726,-3.68858899,-149.31201892,-176.73975321,-101.53793934,90.72421075
-2.69225112,-3.77639769,-0.96900897,-0.85299820,-0.57074495,-0.76815454

>  <Name>


>  <RI>
0

>  <Rbt.Current_Directory>
/home/itssahil/PROJECTS/Mol_Feturizer/New_Systems/rnas/1aju

>  <Rbt.Executable>
rbdock ($Id: //depot/dev/client3/rdock/2013.1/src/exe/rbdock.cxx#4 $)

>  <Rbt.Library>
libRbt.so (2013.1, Build901 2013/11/27)

>  <Rbt.Parameter_File>
/export/apps/rDock/src/rDock_2013.1_src/data/scripts/dock_solv.prm

>  <Rbt.Receptor>
prm/pocket_docking_3.prm

>  <SCORE>
-16.9986

>  <SCORE.INTER>
-18.7165

>  <SCORE.INTER.CONST>
1

>  <SCORE.INTER.POLAR>
-3.83738

>  <SCORE.INTER.ROT>
5

>  <SCORE.INTER.SOLV>
14.7891

>  <SCORE.INTER.VDW>
-11.5495

>  <SCORE.INTER.norm>
-1.7015

>  <SCORE.INTRA>
1.71792

>  <SCORE.INTRA.DIHEDRAL>
0.0840638

>  <SCORE.INTRA.DIHEDRAL.0>
9.90185

>  <SCORE.INTRA.POLAR>
0

>  <SCORE.INTRA.POLAR.0>
0

>  <SCORE.INTRA.REPUL>
0

>  <SCORE.INTRA.REPUL.0>
0

>  <SCORE.INTRA.SOLV>
2.77997

>  <SCORE.INTRA.SOLV.lig_0>
-53.6586

>  <SCORE.INTRA.VDW>
0.285899

>  <SCORE.INTRA.VDW.0>
-0.556525

>  <SCORE.INTRA.norm>
0.156174

>  <SCORE.RESTR>
0

>  <SCORE.RESTR.CAVITY>
0

>  <SCORE.RESTR.norm>
0

>  <SCORE.SYSTEM>
0

>  <SCORE.SYSTEM.CONST>
0

>  <SCORE.SYSTEM.DIHEDRAL>
0

>  <SCORE.SYSTEM.SOLV>
0

>  <SCORE.SYSTEM.norm>
0

>  <SCORE.heavy>
11

>  <SCORE.norm>
-1.54533

>  <RMSD>
1.889

$$$$

 OpenBabel11021811383D
libRbt.so/2013.1/901 2013/11/27
 11 10  0  0  0  0  0  0  0  0999 V2000
   -0.4280   -3.2260    0.7891 N   0  3  0  0  0  0  0  0  0  0  0  0
   -1.6736   -4.0467    0.8695 C   0  0  2  0  0  0  0  0  0  0  0  0
   -1.3628   -5.3984    1.5344 C   0  0  0  0  0  0  0  0  0  0  0  0
   -0.2211   -5.6956    1.8322 O   0  0  0  0  0  0  0  0  0  0  0  0
   -2.2232   -4.2743   -0.5450 C   0  0  0  0  0  0  0  0  0  0  0  0
   -3.7513   -4.3586   -0.4949 C   0  0  0  0  0  0  0  0  0  0  0  0
   -4.2898   -4.6955   -1.8838 C   0  0  0  0  0  0  0  0  0  0  0  0
   -4.8157   -3.4549   -2.5165 N   0  3  0  0  0  0  0  0  0  0  0  0
   -4.0305   -2.7051   -3.2403 C   0  0  0  0  0  0  0  0  0  0  0  0
   -4.2836   -2.5375   -4.5125 N   0  0  0  0  0  0  0  0  0  0  0  0
   -2.9986   -2.1185   -2.6910 N   0  0  0  0  0  0  0  0  0  0  0  0
  2  1  1  6  0  0  0
  2  3  1  0  0  0  0
  2  5  1  0  0  0  0
  3  4  2  0  0  0  0
  5  6  1  0  0  0  0
  6  7  1  0  0  0  0
  7  8  1  0  0  0  0
  8  9  2  0  0  0  0
  9 10  1  0  0  0  0
  9 11  1  0  0  0  0
M  CHG  2   1   1   8   1
M  END
>  <CHROM.1>
-56.52047421,-4.43314437,-147.90540957,-175.52825542,-101.88511578,90.08258936
-2.69137804,-3.82936268,-0.99596200,-0.86294544,-0.54683209,-0.76539369

>  <Name>


>  <RI>
0

>  <Rbt.Current_Directory>
/home/itssahil/PROJECTS/Mol_Feturizer/New_Systems/rnas/1aju

>  <Rbt.Executable>
rbdock ($Id: //depot/dev/client3/rdock/2013.1/src/exe/rbdock.cxx#4 $)

>  <Rbt.Library>
libRbt.so (2013.1, Build901 2013/11/27)

>  <Rbt.Parameter_File>
/export/apps/rDock/src/rDock_2013.1_src/data/scripts/dock_solv.prm

>  <Rbt.Receptor>
prm/pocket_docking_3.prm

>  <SCORE>
-17.0041

>  <SCORE.INTER>
-18.8437

>  <SCORE.INTER.CONST>
1

>  <SCORE.INTER.POLAR>
-3.88781

>  <SCORE.INTER.ROT>
5

>  <SCORE.INTER.SOLV>
14.9244

>  <SCORE.INTER.VDW>
-11.5112

>  <SCORE.INTER.norm>
-1.71306

>  <SCORE.INTRA>
1.8396

>  <SCORE.INTRA.DIHEDRAL>
0.363909

>  <SCORE.INTRA.DIHEDRAL.0>
9.90185

>  <SCORE.INTRA.POLAR>
0

>  <SCORE.INTRA.POLAR.0>
0

>  <SCORE.INTRA.REPUL>
0

>  <SCORE.INTRA.REPUL.0>
0

>  <SCORE.INTRA.SOLV>
2.77576

>  <SCORE.INTRA.SOLV.lig_0>
-53.6586

>  <SCORE.INTRA.VDW>
0.269761

>  <SCORE.INTRA.VDW.0>
-0.556525

>  <SCORE.INTRA.norm>
0.167236

>  <SCORE.RESTR>
0

>  <SCORE.RESTR.CAVITY>
0

>  <SCORE.RESTR.norm>
0

>  <SCORE.SYSTEM>
0

>  <SCORE.SYSTEM.CONST>
0

>  <SCORE.SYSTEM.DIHEDRAL>
0

>  <SCORE.SYSTEM.SOLV>
0

>  <SCORE.SYSTEM.norm>
0

>  <SCORE.heavy>
11

>  <SCORE.norm>
-1.54583

>  <RMSD>
1.896

$$$$

 OpenBabel11021811383D
libRbt.so/2013.1/901 2013/11/27
 11 10  0  0  0  0  0  0  0  0999 V2000
    0.0594   -3.1886    0.9506 N   0  3  0  0  0  0  0  0  0  0  0  0
   -1.3866   -2.8696    0.7528 C   0  0  2  0  0  0  0  0  0  0  0  0
   -2.1421   -3.0385    2.0819 C   0  0  0  0  0  0  0  0  0  0  0  0
   -1.5791   -3.4863    3.0632 O   0  0  0  0  0  0  0  0  0  0  0  0
   -1.9738   -3.8129   -0.3056 C   0  0  0  0  0  0  0  0  0  0  0  0
   -3.4303   -3.4301   -0.5833 C   0  0  0  0  0  0  0  0  0  0  0  0
   -3.4714   -2.1687   -1.4433 C   0  0  0  0  0  0  0  0  0  0  0  0
   -3.2841   -2.5461   -2.8710 N   0  3  0  0  0  0  0  0  0  0  0  0
   -4.3138   -2.8745   -3.6023 C   0  0  0  0  0  0  0  0  0  0  0  0
   -4.6330   -2.1448   -4.6398 N   0  0  0  0  0  0  0  0  0  0  0  0
   -5.0181   -3.9345   -3.3006 N   0  0  0  0  0  0  0  0  0  0  0  0
  2  1  1  1  0  0  0
  2  3  1  0  0  0  0
  2  5  1  0  0  0  0
  3  4  2  0  0  0  0
  5  6  1  0  0  0  0
  6  7  1  0  0  0  0
  7  8  1  0  0  0  0
  8  9  2  0  0  0  0
  9 10  1  0  0  0  0
  9 11  1  0  0  0  0
M  CHG  2   1   1   8   1
M  END
>  <CHROM.1>
52.83892240,-5.86445352,-176.16558105,75.58273411,82.35324854,87.52692962
-2.80429663,-3.05612686,-0.90525622,-1.01954173,-0.27629860,-1.31971067

>  <Name>


>  <RI>
0

>  <Rbt.Current_Directory>
/home/itssahil/PROJECTS/Mol_Feturizer/New_Systems/rnas/1aju

>  <Rbt.Executable>
rbdock ($Id: //depot/dev/client3/rdock/2013.1/src/exe/rbdock.cxx#4 $)

>  <Rbt.Library>
libRbt.so (2013.1, Build901 2013/11/27)

>  <Rbt.Parameter_File>
/export/apps/rDock/src/rDock_2013.1_src/data/scripts/dock_solv.prm

>  <Rbt.Receptor>
prm/pocket_docking_3.prm

>  <SCORE>
-17.5628

>  <SCORE.INTER>
-17.1941

>  <SCORE.INTER.CONST>
1

>  <SCORE.INTER.POLAR>
-3.5818

>  <SCORE.INTER.ROT>
5

>  <SCORE.INTER.SOLV>
16.0698

>  <SCORE.INTER.VDW>
-11.8133

>  <SCORE.INTER.norm>
-1.5631

>  <SCORE.INTRA>
-0.36867

>  <SCORE.INTRA.DIHEDRAL>
-4.11948

>  <SCORE.INTRA.DIHEDRAL.0>
9.90185

>  <SCORE.INTRA.POLAR>
0

>  <SCORE.INTRA.POLAR.0>
0

>  <SCORE.INTRA.REPUL>
0

>  <SCORE.INTRA.REPUL.0>
0

>  <SCORE.INTRA.SOLV>
1.92855

>  <SCORE.INTRA.SOLV.lig_0>
-53.6586

>  <SCORE.INTRA.VDW>
0.726794

>  <SCORE.INTRA.VDW.0>
-0.556525

>  <SCORE.INTRA.norm>
-0.0335155

>  <SCORE.RESTR>
0

>  <SCORE.RESTR.CAVITY>
0

>  <SCORE.RESTR.norm>
0

>  <SCORE.SYSTEM>
0

>  <SCORE.SYSTEM.CONST>
0

>  <SCORE.SYSTEM.DIHEDRAL>
0

>  <SCORE.SYSTEM.SOLV>
0

>  <SCORE.SYSTEM.norm>
0

>  <SCORE.heavy>
11

>  <SCORE.norm>
-1.59661

>  <RMSD>
1.897

$$$$

 OpenBabel11021811383D
libRbt.so/2013.1/901 2013/11/27
 11 10  0  0  0  0  0  0  0  0999 V2000
   -2.8130   -6.2262    0.8154 N   0  3  0  0  0  0  0  0  0  0  0  0
   -2.0077   -5.4571   -0.1804 C   0  0  2  0  0  0  0  0  0  0  0  0
   -0.5929   -5.2146    0.3720 C   0  0  0  0  0  0  0  0  0  0  0  0
    0.3865   -5.5947   -0.2417 O   0  0  0  0  0  0  0  0  0  0  0  0
   -2.6962   -4.1147   -0.4611 C   0  0  0  0  0  0  0  0  0  0  0  0
   -2.1338   -3.5086   -1.7500 C   0  0  0  0  0  0  0  0  0  0  0  0
   -2.8138   -2.1686   -2.0231 C   0  0  0  0  0  0  0  0  0  0  0  0
   -4.2833   -2.3809   -2.1301 N   0  3  0  0  0  0  0  0  0  0  0  0
   -4.7902   -2.9255   -3.2021 C   0  0  0  0  0  0  0  0  0  0  0  0
   -5.4104   -4.0738   -3.1162 N   0  0  0  0  0  0  0  0  0  0  0  0
   -4.6831   -2.3192   -4.3560 N   0  0  0  0  0  0  0  0  0  0  0  0
  2  1  1  1  0  0  0
  2  3  1  0  0  0  0
  2  5  1  0  0  0  0
  3  4  2  0  0  0  0
  5  6  1  0  0  0  0
  6  7  1  0  0  0  0
  7  8  1  0  0  0  0
  8  9  2  0  0  0  0
  9 10  1  0  0  0  0
  9 11  1  0  0  0  0
M  CHG  2   1   1   8   1
M  END
>  <CHROM.1>
-60.41846315,122.67475157,-163.37713269,-179.64626726,-58.30538006,-75.06389821
-2.92057518,-4.03100292,-1.47556615,0.87898833,0.24159586,2.43635850

>  <Name>


>  <RI>
0

>  <Rbt.Current_Directory>
/home/itssahil/PROJECTS/Mol_Feturizer/New_Systems/rnas/1aju

>  <Rbt.Executable>
rbdock ($Id: //depot/dev/client3/rdock/2013.1/src/exe/rbdock.cxx#4 $)

>  <Rbt.Library>
libRbt.so (2013.1, Build901 2013/11/27)

>  <Rbt.Parameter_File>
/export/apps/rDock/src/rDock_2013.1_src/data/scripts/dock_solv.prm

>  <Rbt.Receptor>
prm/pocket_docking_4.prm

>  <SCORE>
-13.0946

>  <SCORE.INTER>
-10.3058

>  <SCORE.INTER.CONST>
1

>  <SCORE.INTER.POLAR>
-1.33317

>  <SCORE.INTER.ROT>
5

>  <SCORE.INTER.SOLV>
13.688

>  <SCORE.INTER.VDW>
-13.9227

>  <SCORE.INTER.norm>
-0.936895

>  <SCORE.INTRA>
-2.78876

>  <SCORE.INTRA.DIHEDRAL>
-5.97303

>  <SCORE.INTRA.DIHEDRAL.0>
9.90185

>  <SCORE.INTRA.POLAR>
0

>  <SCORE.INTRA.POLAR.0>
0

>  <SCORE.INTRA.REPUL>
0

>  <SCORE.INTRA.REPUL.0>
0

>  <SCORE.INTRA.SOLV>
0.84063

>  <SCORE.INTRA.SOLV.lig_0>
-53.6586

>  <SCORE.INTRA.VDW>
-0.222562

>  <SCORE.INTRA.VDW.0>
-0.556525

>  <SCORE.INTRA.norm>
-0.253524

>  <SCORE.RESTR>
0

>  <SCORE.RESTR.CAVITY>
0

>  <SCORE.RESTR.norm>
0

>  <SCORE.SYSTEM>
0

>  <SCORE.SYSTEM.CONST>
0

>  <SCORE.SYSTEM.DIHEDRAL>
0

>  <SCORE.SYSTEM.SOLV>
0

>  <SCORE.SYSTEM.norm>
0

>  <SCORE.heavy>
11

>  <SCORE.norm>
-1.19042

>  <RMSD>
1.902

$$$$

 OpenBabel11021811383D
libRbt.so/2013.1/901 2013/11/27
 11 10  0  0  0  0  0  0  0  0999 V2000
   -0.9183   -5.2980    0.9158 N   0  3  0  0  0  0  0  0  0  0  0  0
   -1.8514   -4.8409   -0.1575 C   0  0  2  0  0  0  0  0  0  0  0  0
   -1.0455   -4.2911   -1.3467 C   0  0  0  0  0  0  0  0  0  0  0  0
   -1.0497   -4.8669   -2.4184 O   0  0  0  0  0  0  0  0  0  0  0  0
   -2.7703   -3.7465    0.4016 C   0  0  0  0  0  0  0  0  0  0  0  0
   -3.8852   -3.4484   -0.6048 C   0  0  0  0  0  0  0  0  0  0  0  0
   -3.5264   -2.2010   -1.4096 C   0  0  0  0  0  0  0  0  0  0  0  0
   -3.3344   -2.5801   -2.8362 N   0  3  0  0  0  0  0  0  0  0  0  0
   -4.3648   -2.8775   -3.5794 C   0  0  0  0  0  0  0  0  0  0  0  0
   -4.6522   -2.1366   -4.6183 N   0  0  0  0  0  0  0  0  0  0  0  0
   -5.1019   -3.9180   -3.2882 N   0  0  0  0  0  0  0  0  0  0  0  0
  2  1  1  1  0  0  0
  2  3  1  0  0  0  0
  2  5  1  0  0  0  0
  3  4  2  0  0  0  0
  5  6  1  0  0  0  0
  6  7  1  0  0  0  0
  7  8  1  0  0  0  0
  8  9  2  0  0  0  0
  9 10  1  0  0  0  0
  9 11  1  0  0  0  0
M  CHG  2   1   1   8   1
M  END
>  <CHROM.1>
-58.77942908,113.13232150,-170.03421463,-98.92338805,115.04329229,73.21895225
-2.93945177,-3.68035149,-1.73372990,0.82033172,-0.52890750,1.63835788

>  <Name>


>  <RI>
0

>  <Rbt.Current_Directory>
/home/itssahil/PROJECTS/Mol_Feturizer/New_Systems/rnas/1aju

>  <Rbt.Executable>
rbdock ($Id: //depot/dev/client3/rdock/2013.1/src/exe/rbdock.cxx#4 $)

>  <Rbt.Library>
libRbt.so (2013.1, Build901 2013/11/27)

>  <Rbt.Parameter_File>
/export/apps/rDock/src/rDock_2013.1_src/data/scripts/dock_solv.prm

>  <Rbt.Receptor>
prm/pocket_docking_4.prm

>  <SCORE>
-12.9805

>  <SCORE.INTER>
-16.346

>  <SCORE.INTER.CONST>
1

>  <SCORE.INTER.POLAR>
-2.95325

>  <SCORE.INTER.ROT>
5

>  <SCORE.INTER.SOLV>
15.1766

>  <SCORE.INTER.VDW>
-13.0454

>  <SCORE.INTER.norm>
-1.486

>  <SCORE.INTRA>
3.34723

>  <SCORE.INTRA.DIHEDRAL>
3.31252

>  <SCORE.INTRA.DIHEDRAL.0>
9.90185

>  <SCORE.INTRA.POLAR>
0

>  <SCORE.INTRA.POLAR.0>
0

>  <SCORE.INTRA.REPUL>
0

>  <SCORE.INTRA.REPUL.0>
0

>  <SCORE.INTRA.SOLV>
2.11183

>  <SCORE.INTRA.SOLV.lig_0>
-53.6586

>  <SCORE.INTRA.VDW>
0.635052

>  <SCORE.INTRA.VDW.0>
-0.556525

>  <SCORE.INTRA.norm>
0.304294

>  <SCORE.RESTR>
0.01826

>  <SCORE.RESTR.CAVITY>
0.01826

>  <SCORE.RESTR.norm>
0.00166

>  <SCORE.SYSTEM>
0

>  <SCORE.SYSTEM.CONST>
0

>  <SCORE.SYSTEM.DIHEDRAL>
0

>  <SCORE.SYSTEM.SOLV>
0

>  <SCORE.SYSTEM.norm>
0

>  <SCORE.heavy>
11

>  <SCORE.norm>
-1.18005

>  <RMSD>
1.936

$$$$

 OpenBabel11021811383D
libRbt.so/2013.1/901 2013/11/27
 11 10  0  0  0  0  0  0  0  0999 V2000
    0.1846   -4.1934    0.9943 N   0  3  0  0  0  0  0  0  0  0  0  0
   -0.6646   -2.9713    0.8637 C   0  0  2  0  0  0  0  0  0  0  0  0
   -1.3317   -2.6558    2.2132 C   0  0  0  0  0  0  0  0  0  0  0  0
   -2.5280   -2.8157    2.3666 O   0  0  0  0  0  0  0  0  0  0  0  0
   -1.7381   -3.2117   -0.2062 C   0  0  0  0  0  0  0  0  0  0  0  0
   -2.3710   -1.8764   -0.6078 C   0  0  0  0  0  0  0  0  0  0  0  0
   -3.6810   -2.1350   -1.3492 C   0  0  0  0  0  0  0  0  0  0  0  0
   -3.3779   -2.5122   -2.7569 N   0  3  0  0  0  0  0  0  0  0  0  0
   -4.3390   -2.8859   -3.5564 C   0  0  0  0  0  0  0  0  0  0  0  0
   -4.6127   -2.1753   -4.6199 N   0  0  0  0  0  0  0  0  0  0  0  0
   -5.0199   -3.9720   -3.2966 N   0  0  0  0  0  0  0  0  0  0  0  0
  2  1  1  1  0  0  0
  2  3  1  0  0  0  0
  2  5  1  0  0  0  0
  3  4  2  0  0  0  0
  5  6  1  0  0  0  0
  6  7  1  0  0  0  0
  7  8  1  0  0  0  0
  8  9  2  0  0  0  0
  9 10  1  0  0  0  0
  9 11  1  0  0  0  0
M  CHG  2   1   1   8   1
M  END
>  <CHROM.1>
69.25678103,-109.34964178,-165.38617230,-163.85487889,-79.22486785,174.45104021
-2.67718958,-2.88997305,-0.91939292,-0.91487152,0.44581947,-1.81309120

>  <Name>


>  <RI>
0

>  <Rbt.Current_Directory>
/home/itssahil/PROJECTS/Mol_Feturizer/New_Systems/rnas/1aju

>  <Rbt.Executable>
rbdock ($Id: //depot/dev/client3/rdock/2013.1/src/exe/rbdock.cxx#4 $)

>  <Rbt.Library>
libRbt.so (2013.1, Build901 2013/11/27)

>  <Rbt.Parameter_File>
/export/apps/rDock/src/rDock_2013.1_src/data/scripts/dock_solv.prm

>  <Rbt.Receptor>
prm/pocket_docking_4.prm

>  <SCORE>
-18.4546

>  <SCORE.INTER>
-17.9966

>  <SCORE.INTER.CONST>
1

>  <SCORE.INTER.POLAR>
-3.46338

>  <SCORE.INTER.ROT>
5

>  <SCORE.INTER.SOLV>
16.3455

>  <SCORE.INTER.VDW>
-12.835

>  <SCORE.INTER.norm>
-1.63605

>  <SCORE.INTRA>
-0.477937

>  <SCORE.INTRA.DIHEDRAL>
-3.48213

>  <SCORE.INTRA.DIHEDRAL.0>
9.90185

>  <SCORE.INTRA.POLAR>
0

>  <SCORE.INTRA.POLAR.0>
0

>  <SCORE.INTRA.REPUL>
0

>  <SCORE.INTRA.REPUL.0>
0

>  <SCORE.INTRA.SOLV>
0.580606

>  <SCORE.INTRA.SOLV.lig_0>
-53.6586

>  <SCORE.INTRA.VDW>
0.972826

>  <SCORE.INTRA.VDW.0>
-0.556525

>  <SCORE.INTRA.norm>
-0.0434488

>  <SCORE.RESTR>
0.0198728

>  <SCORE.RESTR.CAVITY>
0.0198728

>  <SCORE.RESTR.norm>
0.00180662

>  <SCORE.SYSTEM>
0

>  <SCORE.SYSTEM.CONST>
0

>  <SCORE.SYSTEM.DIHEDRAL>
0

>  <SCORE.SYSTEM.SOLV>
0

>  <SCORE.SYSTEM.norm>
0

>  <SCORE.heavy>
11

>  <SCORE.norm>
-1.6777

>  <RMSD>
1.938

$$$$

 OpenBabel11021811383D
libRbt.so/2013.1/901 2013/11/27
 11 10  0  0  0  0  0  0  0  0999 V2000
    0.2754   -4.2664    1.0414 N   0  3  0  0  0  0  0  0  0  0  0  0
   -0.3064   -2.9529    0.6315 C   0  0  2  0  0  0  0  0  0  0  0  0
   -0.6039   -2.1047    1.8796 C   0  0  0  0  0  0  0  0  0  0  0  0
   -0.1900   -2.4425    2.9726 O   0  0  0  0  0  0  0  0  0  0  0  0
   -1.6007   -3.1953   -0.1563 C   0  0  0  0  0  0  0  0  0  0  0  0
   -2.0595   -1.8866   -0.8056 C   0  0  0  0  0  0  0  0  0  0  0  0
   -3.4323   -2.0873   -1.4440 C   0  0  0  0  0  0  0  0  0  0  0  0
   -3.2543   -2.4835   -2.8678 N   0  3  0  0  0  0  0  0  0  0  0  0
   -4.2830   -2.8612   -3.5763 C   0  0  0  0  0  0  0  0  0  0  0  0
   -4.6445   -2.1620   -4.6209 N   0  0  0  0  0  0  0  0  0  0  0  0
   -4.9441   -3.9399   -3.2446 N   0  0  0  0  0  0  0  0  0  0  0  0
  2  1  1  1  0  0  0
  2  3  1  0  0  0  0
  2  5  1  0  0  0  0
  3  4  2  0  0  0  0
  5  6  1  0  0  0  0
  6  7  1  0  0  0  0
  7  8  1  0  0  0  0
  8  9  2  0  0  0  0
  9 10  1  0  0  0  0
  9 11  1  0  0  0  0
M  CHG  2   1   1   8   1
M  END
>  <CHROM.1>
-43.40445340,10.79147604,-169.27609561,-173.09663922,-92.11860128,172.01406681
-2.26625103,-2.80085819,-0.92672448,-0.28175298,0.87899850,-2.74946296

>  <Name>


>  <RI>
0

>  <Rbt.Current_Directory>
/home/itssahil/PROJECTS/Mol_Feturizer/New_Systems/rnas/1aju

>  <Rbt.Executable>
rbdock ($Id: //depot/dev/client3/rdock/2013.1/src/exe/rbdock.cxx#4 $)

>  <Rbt.Library>
libRbt.so (2013.1, Build901 2013/11/27)

>  <Rbt.Parameter_File>
/export/apps/rDock/src/rDock_2013.1_src/data/scripts/dock_solv.prm

>  <Rbt.Receptor>
prm/pocket_docking_3.prm

>  <SCORE>
-16.6028

>  <SCORE.INTER>
-16.3806

>  <SCORE.INTER.CONST>
1

>  <SCORE.INTER.POLAR>
-2.96363

>  <SCORE.INTER.ROT>
5

>  <SCORE.INTER.SOLV>
16.6554

>  <SCORE.INTER.VDW>
-13.5267

>  <SCORE.INTER.norm>
-1.48914

>  <SCORE.INTRA>
-0.222244

>  <SCORE.INTRA.DIHEDRAL>
-2.41158

>  <SCORE.INTRA.DIHEDRAL.0>
9.90185

>  <SCORE.INTRA.POLAR>
0

>  <SCORE.INTRA.POLAR.0>
0

>  <SCORE.INTRA.REPUL>
0

>  <SCORE.INTRA.REPUL.0>
0

>  <SCORE.INTRA.SOLV>
1.19434

>  <SCORE.INTRA.SOLV.lig_0>
-53.6586

>  <SCORE.INTRA.VDW>
0.386377

>  <SCORE.INTRA.VDW.0>
-0.556525

>  <SCORE.INTRA.norm>
-0.020204

>  <SCORE.RESTR>
0

>  <SCORE.RESTR.CAVITY>
0

>  <SCORE.RESTR.norm>
0

>  <SCORE.SYSTEM>
0

>  <SCORE.SYSTEM.CONST>
0

>  <SCORE.SYSTEM.DIHEDRAL>
0

>  <SCORE.SYSTEM.SOLV>
0

>  <SCORE.SYSTEM.norm>
0

>  <SCORE.heavy>
11

>  <SCORE.norm>
-1.50935

>  <RMSD>
1.943

$$$$

 OpenBabel11021811383D
libRbt.so/2013.1/901 2013/11/27
 11 10  0  0  0  0  0  0  0  0999 V2000
   -1.0941   -2.4496    2.9097 N   0  3  0  0  0  0  0  0  0  0  0  0
   -0.8487   -2.6315    1.4473 C   0  0  2  0  0  0  0  0  0  0  0  0
    0.4752   -1.9540    1.0548 C   0  0  0  0  0  0  0  0  0  0  0  0
    1.2144   -1.4963    1.9060 O   0  0  0  0  0  0  0  0  0  0  0  0
   -2.0081   -2.0097    0.6574 C   0  0  0  0  0  0  0  0  0  0  0  0
   -1.9259   -2.4495   -0.8071 C   0  0  0  0  0  0  0  0  0  0  0  0
   -3.2320   -2.1023   -1.5184 C   0  0  0  0  0  0  0  0  0  0  0  0
   -3.1430   -2.5360   -2.9396 N   0  3  0  0  0  0  0  0  0  0  0  0
   -4.2229   -2.8700   -3.5915 C   0  0  0  0  0  0  0  0  0  0  0  0
   -4.5943   -2.1727   -4.6339 N   0  0  0  0  0  0  0  0  0  0  0  0
   -4.9256   -3.9035   -3.2058 N   0  0  0  0  0  0  0  0  0  0  0  0
  2  1  1  1  0  0  0
  2  3  1  0  0  0  0
  2  5  1  0  0  0  0
  3  4  2  0  0  0  0
  5  6  1  0  0  0  0
  6  7  1  0  0  0  0
  7  8  1  0  0  0  0
  8  9  2  0  0  0  0
  9 10  1  0  0  0  0
  9 11  1  0  0  0  0
M  CHG  2   1   1   8   1
M  END
>  <CHROM.1>
-61.61426066,7.34389378,-167.81116629,167.22471722,-179.88812897,151.46589579
-2.21657556,-2.41830471,-0.77142677,0.83873737,0.44574865,1.80171181

>  <Name>


>  <RI>
0

>  <Rbt.Current_Directory>
/home/itssahil/PROJECTS/Mol_Feturizer/New_Systems/rnas/1aju

>  <Rbt.Executable>
rbdock ($Id: //depot/dev/client3/rdock/2013.1/src/exe/rbdock.cxx#4 $)

>  <Rbt.Library>
libRbt.so (2013.1, Build901 2013/11/27)

>  <Rbt.Parameter_File>
/export/apps/rDock/src/rDock_2013.1_src/data/scripts/dock_solv.prm

>  <Rbt.Receptor>
prm/pocket_docking_3.prm

>  <SCORE>
-16.9149

>  <SCORE.INTER>
-14.8351

>  <SCORE.INTER.CONST>
1

>  <SCORE.INTER.POLAR>
-2.50359

>  <SCORE.INTER.ROT>
5

>  <SCORE.INTER.SOLV>
13.4079

>  <SCORE.INTER.VDW>
-12.9474

>  <SCORE.INTER.norm>
-1.34865

>  <SCORE.INTRA>
-2.07974

>  <SCORE.INTRA.DIHEDRAL>
-5.62374

>  <SCORE.INTRA.DIHEDRAL.0>
9.90185

>  <SCORE.INTRA.POLAR>
0

>  <SCORE.INTRA.POLAR.0>
0

>  <SCORE.INTRA.REPUL>
0

>  <SCORE.INTRA.REPUL.0>
0

>  <SCORE.INTRA.SOLV>
0.991415

>  <SCORE.INTRA.SOLV.lig_0>
-53.6586

>  <SCORE.INTRA.VDW>
0.236424

>  <SCORE.INTRA.VDW.0>
-0.556525

>  <SCORE.INTRA.norm>
-0.189067

>  <SCORE.RESTR>
0

>  <SCORE.RESTR.CAVITY>
0

>  <SCORE.RESTR.norm>
0

>  <SCORE.SYSTEM>
0

>  <SCORE.SYSTEM.CONST>
0

>  <SCORE.SYSTEM.DIHEDRAL>
0

>  <SCORE.SYSTEM.SOLV>
0

>  <SCORE.SYSTEM.norm>
0

>  <SCORE.heavy>
11

>  <SCORE.norm>
-1.53772

>  <RMSD>
1.950

$$$$

 OpenBabel11021811383D
libRbt.so/2013.1/901 2013/11/27
 11 10  0  0  0  0  0  0  0  0999 V2000
   -1.1320   -3.3806    2.1249 N   0  3  0  0  0  0  0  0  0  0  0  0
   -0.3597   -2.8019    0.9846 C   0  0  2  0  0  0  0  0  0  0  0  0
    0.7614   -1.8969    1.5229 C   0  0  0  0  0  0  0  0  0  0  0  0
    0.9308   -1.7644    2.7204 O   0  0  0  0  0  0  0  0  0  0  0  0
   -1.3061   -1.9871    0.0928 C   0  0  0  0  0  0  0  0  0  0  0  0
   -2.2181   -2.9360   -0.6901 C   0  0  0  0  0  0  0  0  0  0  0  0
   -3.2189   -2.1227   -1.5083 C   0  0  0  0  0  0  0  0  0  0  0  0
   -3.1323   -2.5370   -2.9355 N   0  3  0  0  0  0  0  0  0  0  0  0
   -4.2108   -2.8809   -3.5844 C   0  0  0  0  0  0  0  0  0  0  0  0
   -4.6009   -2.1770   -4.6155 N   0  0  0  0  0  0  0  0  0  0  0  0
   -4.8935   -3.9308   -3.2072 N   0  0  0  0  0  0  0  0  0  0  0  0
  2  1  1  1  0  0  0
  2  3  1  0  0  0  0
  2  5  1  0  0  0  0
  3  4  2  0  0  0  0
  5  6  1  0  0  0  0
  6  7  1  0  0  0  0
  7  8  1  0  0  0  0
  8  9  2  0  0  0  0
  9 10  1  0  0  0  0
  9 11  1  0  0  0  0
M  CHG  2   1   1   8   1
M  END
>  <CHROM.1>
-179.00792213,1.59792493,-72.42726081,176.37767149,125.61389704,128.02870334
-2.14681024,-2.60298287,-0.81021805,0.64037068,0.68281645,2.18169760

>  <Name>


>  <RI>
0

>  <Rbt.Current_Directory>
/home/itssahil/PROJECTS/Mol_Feturizer/New_Systems/rnas/1aju

>  <Rbt.Executable>
rbdock ($Id: //depot/dev/client3/rdock/2013.1/src/exe/rbdock.cxx#4 $)

>  <Rbt.Library>
libRbt.so (2013.1, Build901 2013/11/27)

>  <Rbt.Parameter_File>
/export/apps/rDock/src/rDock_2013.1_src/data/scripts/dock_solv.prm

>  <Rbt.Receptor>
prm/pocket_docking_3.prm

>  <SCORE>
-14.5932

>  <SCORE.INTER>
-14.9784

>  <SCORE.INTER.CONST>
1

>  <SCORE.INTER.POLAR>
-2.51035

>  <SCORE.INTER.ROT>
5

>  <SCORE.INTER.SOLV>
13.1919

>  <SCORE.INTER.VDW>
-12.9484

>  <SCORE.INTER.norm>
-1.36168

>  <SCORE.INTRA>
0.385214

>  <SCORE.INTRA.DIHEDRAL>
-0.946545

>  <SCORE.INTRA.DIHEDRAL.0>
9.90185

>  <SCORE.INTRA.POLAR>
0

>  <SCORE.INTRA.POLAR.0>
0

>  <SCORE.INTRA.REPUL>
0

>  <SCORE.INTRA.REPUL.0>
0

>  <SCORE.INTRA.SOLV>
2.29591

>  <SCORE.INTRA.SOLV.lig_0>
-53.6586

>  <SCORE.INTRA.VDW>
-0.289468

>  <SCORE.INTRA.VDW.0>
-0.556525

>  <SCORE.INTRA.norm>
0.0350195

>  <SCORE.RESTR>
0

>  <SCORE.RESTR.CAVITY>
0

>  <SCORE.RESTR.norm>
0

>  <SCORE.SYSTEM>
0

>  <SCORE.SYSTEM.CONST>
0

>  <SCORE.SYSTEM.DIHEDRAL>
0

>  <SCORE.SYSTEM.SOLV>
0

>  <SCORE.SYSTEM.norm>
0

>  <SCORE.heavy>
11

>  <SCORE.norm>
-1.32666

>  <RMSD>
1.952

$$$$

 OpenBabel11021811383D
libRbt.so/2013.1/901 2013/11/27
 11 10  0  0  0  0  0  0  0  0999 V2000
   -2.0567   -1.5639    2.0660 N   0  3  0  0  0  0  0  0  0  0  0  0
   -1.5728   -2.3863    0.9166 C   0  0  2  0  0  0  0  0  0  0  0  0
   -0.0556   -2.6075    1.0386 C   0  0  0  0  0  0  0  0  0  0  0  0
    0.5214   -2.3865    2.0867 O   0  0  0  0  0  0  0  0  0  0  0  0
   -1.8908   -1.6590   -0.3967 C   0  0  0  0  0  0  0  0  0  0  0  0
   -1.5442   -2.5642   -1.5821 C   0  0  0  0  0  0  0  0  0  0  0  0
   -2.5892   -3.6716   -1.7014 C   0  0  0  0  0  0  0  0  0  0  0  0
   -3.9001   -3.0672   -2.0649 N   0  3  0  0  0  0  0  0  0  0  0  0
   -4.1630   -2.7718   -3.3084 C   0  0  0  0  0  0  0  0  0  0  0  0
   -5.1446   -3.3763   -3.9262 N   0  0  0  0  0  0  0  0  0  0  0  0
   -3.4502   -1.8684   -3.9301 N   0  0  0  0  0  0  0  0  0  0  0  0
  2  1  1  1  0  0  0
  2  3  1  0  0  0  0
  2  5  1  0  0  0  0
  3  4  2  0  0  0  0
  5  6  1  0  0  0  0
  6  7  1  0  0  0  0
  7  8  1  0  0  0  0
  8  9  2  0  0  0  0
  9 10  1  0  0  0  0
  9 11  1  0  0  0  0
M  CHG  2   1   1   8   1
M  END
>  <CHROM.1>
61.46400975,15.17614110,-173.58014000,73.84378545,66.17325082,81.82919893
-2.37106239,-2.51508610,-0.95901601,0.95849536,-0.04707237,1.40215877

>  <Name>


>  <RI>
0

>  <Rbt.Current_Directory>
/home/itssahil/PROJECTS/Mol_Feturizer/New_Systems/rnas/1aju

>  <Rbt.Executable>
rbdock ($Id: //depot/dev/client3/rdock/2013.1/src/exe/rbdock.cxx#4 $)

>  <Rbt.Library>
libRbt.so (2013.1, Build901 2013/11/27)

>  <Rbt.Parameter_File>
/export/apps/rDock/src/rDock_2013.1_src/data/scripts/dock_solv.prm

>  <Rbt.Receptor>
prm/pocket_docking_3.prm

>  <SCORE>
-14.6995

>  <SCORE.INTER>
-13.9976

>  <SCORE.INTER.CONST>
1

>  <SCORE.INTER.POLAR>
-2.68634

>  <SCORE.INTER.ROT>
5

>  <SCORE.INTER.SOLV>
13.7417

>  <SCORE.INTER.VDW>
-11.8911

>  <SCORE.INTER.norm>
-1.27251

>  <SCORE.INTRA>
-0.701943

>  <SCORE.INTRA.DIHEDRAL>
-5.51856

>  <SCORE.INTRA.DIHEDRAL.0>
9.90185

>  <SCORE.INTRA.POLAR>
0

>  <SCORE.INTRA.POLAR.0>
0

>  <SCORE.INTRA.REPUL>
0

>  <SCORE.INTRA.REPUL.0>
0

>  <SCORE.INTRA.SOLV>
2.21955

>  <SCORE.INTRA.SOLV.lig_0>
-53.6586

>  <SCORE.INTRA.VDW>
0.94756

>  <SCORE.INTRA.VDW.0>
-0.556525

>  <SCORE.INTRA.norm>
-0.063813

>  <SCORE.RESTR>
0

>  <SCORE.RESTR.CAVITY>
0

>  <SCORE.RESTR.norm>
0

>  <SCORE.SYSTEM>
0

>  <SCORE.SYSTEM.CONST>
0

>  <SCORE.SYSTEM.DIHEDRAL>
0

>  <SCORE.SYSTEM.SOLV>
0

>  <SCORE.SYSTEM.norm>
0

>  <SCORE.heavy>
11

>  <SCORE.norm>
-1.33632

>  <RMSD>
1.955

$$$$

 OpenBabel11021811383D
libRbt.so/2013.1/901 2013/11/27
 11 10  0  0  0  0  0  0  0  0999 V2000
    0.1849   -5.0895    0.8148 N   0  3  0  0  0  0  0  0  0  0  0  0
   -1.2676   -4.9657    0.4884 C   0  0  2  0  0  0  0  0  0  0  0  0
   -2.0881   -5.8758    1.4181 C   0  0  0  0  0  0  0  0  0  0  0  0
   -3.0017   -5.4229    2.0818 O   0  0  0  0  0  0  0  0  0  0  0  0
   -1.4951   -5.3713   -0.9739 C   0  0  0  0  0  0  0  0  0  0  0  0
   -2.8462   -4.8321   -1.4522 C   0  0  0  0  0  0  0  0  0  0  0  0
   -2.8126   -3.3053   -1.4602 C   0  0  0  0  0  0  0  0  0  0  0  0
   -4.0982   -2.7925   -2.0082 N   0  3  0  0  0  0  0  0  0  0  0  0
   -4.2732   -2.7085   -3.2985 C   0  0  0  0  0  0  0  0  0  0  0  0
   -5.2038   -3.4237   -3.8758 N   0  0  0  0  0  0  0  0  0  0  0  0
   -3.5239   -1.9055   -4.0087 N   0  0  0  0  0  0  0  0  0  0  0  0
  2  1  1  1  0  0  0
  2  3  1  0  0  0  0
  2  5  1  0  0  0  0
  3  4  2  0  0  0  0
  5  6  1  0  0  0  0
  6  7  1  0  0  0  0
  7  8  1  0  0  0  0
  8  9  2  0  0  0  0
  9 10  1  0  0  0  0
  9 11  1  0  0  0  0
M  CHG  2   1   1   8   1
M  END
>  <CHROM.1>
-179.09840447,125.44931124,-161.75648260,65.04485221,176.42774923,-83.13273990
-2.75537811,-4.14221776,-1.11567708,-1.07261984,0.00830062,-1.04397622

>  <Name>


>  <RI>
0

>  <Rbt.Current_Directory>
/home/itssahil/PROJECTS/Mol_Feturizer/New_Systems/rnas/1aju

>  <Rbt.Executable>
rbdock ($Id: //depot/dev/client3/rdock/2013.1/src/exe/rbdock.cxx#4 $)

>  <Rbt.Library>
libRbt.so (2013.1, Build901 2013/11/27)

>  <Rbt.Parameter_File>
/export/apps/rDock/src/rDock_2013.1_src/data/scripts/dock_solv.prm

>  <Rbt.Receptor>
prm/pocket_docking_4.prm

>  <SCORE>
-18.7796

>  <SCORE.INTER>
-16.3544

>  <SCORE.INTER.CONST>
1

>  <SCORE.INTER.POLAR>
-3.73294

>  <SCORE.INTER.ROT>
5

>  <SCORE.INTER.SOLV>
18.6772

>  <SCORE.INTER.VDW>
-11.6189

>  <SCORE.INTER.norm>
-1.48676

>  <SCORE.INTRA>
-2.42706

>  <SCORE.INTRA.DIHEDRAL>
-5.60107

>  <SCORE.INTRA.DIHEDRAL.0>
9.90185

>  <SCORE.INTRA.POLAR>
0

>  <SCORE.INTRA.POLAR.0>
0

>  <SCORE.INTRA.REPUL>
0

>  <SCORE.INTRA.REPUL.0>
0

>  <SCORE.INTRA.SOLV>
0.324634

>  <SCORE.INTRA.SOLV.lig_0>
-53.6586

>  <SCORE.INTRA.VDW>
0.211155

>  <SCORE.INTRA.VDW.0>
-0.556525

>  <SCORE.INTRA.norm>
-0.220642

>  <SCORE.RESTR>
0.00184591

>  <SCORE.RESTR.CAVITY>
0.00184591

>  <SCORE.RESTR.norm>
0.00016781

>  <SCORE.SYSTEM>
0

>  <SCORE.SYSTEM.CONST>
0

>  <SCORE.SYSTEM.DIHEDRAL>
0

>  <SCORE.SYSTEM.SOLV>
0

>  <SCORE.SYSTEM.norm>
0

>  <SCORE.heavy>
11

>  <SCORE.norm>
-1.70724

>  <RMSD>
2.047

$$$$

 OpenBabel11021811383D
libRbt.so/2013.1/901 2013/11/27
 11 10  0  0  0  0  0  0  0  0999 V2000
   -2.5133   -6.0517   -0.1330 N   0  3  0  0  0  0  0  0  0  0  0  0
   -1.9849   -4.6611    0.0036 C   0  0  2  0  0  0  0  0  0  0  0  0
   -0.5488   -4.7028    0.5529 C   0  0  0  0  0  0  0  0  0  0  0  0
   -0.1460   -3.8341    1.3034 O   0  0  0  0  0  0  0  0  0  0  0  0
   -2.8867   -3.8675    0.9585 C   0  0  0  0  0  0  0  0  0  0  0  0
   -4.2118   -3.5432    0.2629 C   0  0  0  0  0  0  0  0  0  0  0  0
   -4.0109   -2.3731   -0.6980 C   0  0  0  0  0  0  0  0  0  0  0  0
   -3.4447   -2.8842   -1.9763 N   0  3  0  0  0  0  0  0  0  0  0  0
   -4.1072   -2.7381   -3.0910 C   0  0  0  0  0  0  0  0  0  0  0  0
   -3.6042   -2.0114   -4.0552 N   0  0  0  0  0  0  0  0  0  0  0  0
   -5.2668   -3.3235   -3.2434 N   0  0  0  0  0  0  0  0  0  0  0  0
  2  1  1  1  0  0  0
  2  3  1  0  0  0  0
  2  5  1  0  0  0  0
  3  4  2  0  0  0  0
  5  6  1  0  0  0  0
  6  7  1  0  0  0  0
  7  8  1  0  0  0  0
  8  9  2  0  0  0  0
  9 10  1  0  0  0  0
  9 11  1  0  0  0  0
M  CHG  2   1   1   8   1
M  END
>  <CHROM.1>
-177.69206958,-145.34519088,-72.91110089,-77.99620976,82.18325104,118.67604683
-2.97795293,-3.66087015,-0.94577760,0.95242584,0.22143192,2.18144035

>  <Name>


>  <RI>
0

>  <Rbt.Current_Directory>
/home/itssahil/PROJECTS/Mol_Feturizer/New_Systems/rnas/1aju

>  <Rbt.Executable>
rbdock ($Id: //depot/dev/client3/rdock/2013.1/src/exe/rbdock.cxx#4 $)

>  <Rbt.Library>
libRbt.so (2013.1, Build901 2013/11/27)

>  <Rbt.Parameter_File>
/export/apps/rDock/src/rDock_2013.1_src/data/scripts/dock_solv.prm

>  <Rbt.Receptor>
prm/pocket_docking_3.prm

>  <SCORE>
-6.79979

>  <SCORE.INTER>
-7.33948

>  <SCORE.INTER.CONST>
1

>  <SCORE.INTER.POLAR>
-1.51208

>  <SCORE.INTER.ROT>
5

>  <SCORE.INTER.SOLV>
12.0847

>  <SCORE.INTER.VDW>
-10.8143

>  <SCORE.INTER.norm>
-0.667226

>  <SCORE.INTRA>
0.539691

>  <SCORE.INTRA.DIHEDRAL>
-2.43289

>  <SCORE.INTRA.DIHEDRAL.0>
9.90185

>  <SCORE.INTRA.POLAR>
0

>  <SCORE.INTRA.POLAR.0>
0

>  <SCORE.INTRA.REPUL>
0

>  <SCORE.INTRA.REPUL.0>
0

>  <SCORE.INTRA.SOLV>
2.78882

>  <SCORE.INTRA.SOLV.lig_0>
-53.6586

>  <SCORE.INTRA.VDW>
0.361724

>  <SCORE.INTRA.VDW.0>
-0.556525

>  <SCORE.INTRA.norm>
0.0490628

>  <SCORE.RESTR>
0

>  <SCORE.RESTR.CAVITY>
0

>  <SCORE.RESTR.norm>
0

>  <SCORE.SYSTEM>
0

>  <SCORE.SYSTEM.CONST>
0

>  <SCORE.SYSTEM.DIHEDRAL>
0

>  <SCORE.SYSTEM.SOLV>
0

>  <SCORE.SYSTEM.norm>
0

>  <SCORE.heavy>
11

>  <SCORE.norm>
-0.618163

>  <RMSD>
2.065

$$$$

 OpenBabel11021811383D
libRbt.so/2013.1/901 2013/11/27
 11 10  0  0  0  0  0  0  0  0999 V2000
    0.0963   -4.1371    1.4852 N   0  3  0  0  0  0  0  0  0  0  0  0
   -0.2304   -2.9683    0.6141 C   0  0  2  0  0  0  0  0  0  0  0  0
   -0.0742   -1.6643    1.4146 C   0  0  0  0  0  0  0  0  0  0  0  0
    0.7020   -0.8014    1.0499 O   0  0  0  0  0  0  0  0  0  0  0  0
   -1.6728   -3.1009    0.1075 C   0  0  0  0  0  0  0  0  0  0  0  0
   -1.9865   -1.9525   -0.8556 C   0  0  0  0  0  0  0  0  0  0  0  0
   -3.3802   -2.1496   -1.4483 C   0  0  0  0  0  0  0  0  0  0  0  0
   -3.2498   -2.5666   -2.8714 N   0  3  0  0  0  0  0  0  0  0  0  0
   -4.3106   -2.8898   -3.5591 C   0  0  0  0  0  0  0  0  0  0  0  0
   -4.6492   -2.1791   -4.6036 N   0  0  0  0  0  0  0  0  0  0  0  0
   -5.0270   -3.9259   -3.2069 N   0  0  0  0  0  0  0  0  0  0  0  0
  2  1  1  1  0  0  0
  2  3  1  0  0  0  0
  2  5  1  0  0  0  0
  3  4  2  0  0  0  0
  5  6  1  0  0  0  0
  6  7  1  0  0  0  0
  7  8  1  0  0  0  0
  8  9  2  0  0  0  0
  9 10  1  0  0  0  0
  9 11  1  0  0  0  0
M  CHG  2   1   1   8   1
M  END
>  <CHROM.1>
177.49377911,121.08564539,-176.50063228,175.31482450,-107.23493064,174.95417722
-2.15407017,-2.60137449,-1.08394045,0.22488459,0.78802382,2.73798143

>  <Name>


>  <RI>
0

>  <Rbt.Current_Directory>
/home/itssahil/PROJECTS/Mol_Feturizer/New_Systems/rnas/1aju

>  <Rbt.Executable>
rbdock ($Id: //depot/dev/client3/rdock/2013.1/src/exe/rbdock.cxx#4 $)

>  <Rbt.Library>
libRbt.so (2013.1, Build901 2013/11/27)

>  <Rbt.Parameter_File>
/export/apps/rDock/src/rDock_2013.1_src/data/scripts/dock_solv.prm

>  <Rbt.Receptor>
prm/pocket_docking_4.prm

>  <SCORE>
-15.6843

>  <SCORE.INTER>
-15.189

>  <SCORE.INTER.CONST>
1

>  <SCORE.INTER.POLAR>
-2.45394

>  <SCORE.INTER.ROT>
5

>  <SCORE.INTER.SOLV>
15.5929

>  <SCORE.INTER.VDW>
-14.0771

>  <SCORE.INTER.norm>
-1.38081

>  <SCORE.INTRA>
-0.560021

>  <SCORE.INTRA.DIHEDRAL>
-1.85881

>  <SCORE.INTRA.DIHEDRAL.0>
9.90185

>  <SCORE.INTRA.POLAR>
0

>  <SCORE.INTRA.POLAR.0>
0

>  <SCORE.INTRA.REPUL>
0

>  <SCORE.INTRA.REPUL.0>
0

>  <SCORE.INTRA.SOLV>
0.0645526

>  <SCORE.INTRA.SOLV.lig_0>
-53.6586

>  <SCORE.INTRA.VDW>
0.337106

>  <SCORE.INTRA.VDW.0>
-0.556525

>  <SCORE.INTRA.norm>
-0.050911

>  <SCORE.RESTR>
0.0647019

>  <SCORE.RESTR.CAVITY>
0.0647019

>  <SCORE.RESTR.norm>
0.00588199

>  <SCORE.SYSTEM>
0

>  <SCORE.SYSTEM.CONST>
0

>  <SCORE.SYSTEM.DIHEDRAL>
0

>  <SCORE.SYSTEM.SOLV>
0

>  <SCORE.SYSTEM.norm>
0

>  <SCORE.heavy>
11

>  <SCORE.norm>
-1.42584

>  <RMSD>
2.065

$$$$

 OpenBabel11021811383D
libRbt.so/2013.1/901 2013/11/27
 11 10  0  0  0  0  0  0  0  0999 V2000
   -1.9277   -3.6755    1.3400 N   0  3  0  0  0  0  0  0  0  0  0  0
   -1.8203   -5.0307    0.7206 C   0  0  2  0  0  0  0  0  0  0  0  0
   -0.3448   -5.4616    0.6667 C   0  0  0  0  0  0  0  0  0  0  0  0
    0.5188   -4.7853    1.1931 O   0  0  0  0  0  0  0  0  0  0  0  0
   -2.4042   -4.9876   -0.6979 C   0  0  0  0  0  0  0  0  0  0  0  0
   -3.9090   -4.7136   -0.6258 C   0  0  0  0  0  0  0  0  0  0  0  0
   -4.5290   -4.9018   -2.0088 C   0  0  0  0  0  0  0  0  0  0  0  0
   -4.9249   -3.5729   -2.5502 N   0  3  0  0  0  0  0  0  0  0  0  0
   -4.0792   -2.8755   -3.2582 C   0  0  0  0  0  0  0  0  0  0  0  0
   -4.3485   -2.6029   -4.5087 N   0  0  0  0  0  0  0  0  0  0  0  0
   -2.9701   -2.4458   -2.7143 N   0  0  0  0  0  0  0  0  0  0  0  0
  2  1  1  6  0  0  0
  2  3  1  0  0  0  0
  2  5  1  0  0  0  0
  3  4  2  0  0  0  0
  5  6  1  0  0  0  0
  6  7  1  0  0  0  0
  7  8  1  0  0  0  0
  8  9  2  0  0  0  0
  9 10  1  0  0  0  0
  9 11  1  0  0  0  0
M  CHG  2   1   1   8   1
M  END
>  <CHROM.1>
62.58670484,6.25077675,-65.88083985,-170.58898896,-109.31934748,89.86349452
-2.77961081,-4.04330969,-1.12263169,0.86060922,0.35534636,2.23433068

>  <Name>


>  <RI>
0

>  <Rbt.Current_Directory>
/home/itssahil/PROJECTS/Mol_Feturizer/New_Systems/rnas/1aju

>  <Rbt.Executable>
rbdock ($Id: //depot/dev/client3/rdock/2013.1/src/exe/rbdock.cxx#4 $)

>  <Rbt.Library>
libRbt.so (2013.1, Build901 2013/11/27)

>  <Rbt.Parameter_File>
/export/apps/rDock/src/rDock_2013.1_src/data/scripts/dock_solv.prm

>  <Rbt.Receptor>
prm/pocket_docking_3.prm

>  <SCORE>
-13.5165

>  <SCORE.INTER>
-14.6918

>  <SCORE.INTER.CONST>
1

>  <SCORE.INTER.POLAR>
-2.97219

>  <SCORE.INTER.ROT>
5

>  <SCORE.INTER.SOLV>
12.4842

>  <SCORE.INTER.VDW>
-10.982

>  <SCORE.INTER.norm>
-1.33562

>  <SCORE.INTRA>
1.17534

>  <SCORE.INTRA.DIHEDRAL>
-1.3282

>  <SCORE.INTRA.DIHEDRAL.0>
9.90185

>  <SCORE.INTRA.POLAR>
0

>  <SCORE.INTRA.POLAR.0>
0

>  <SCORE.INTRA.REPUL>
0

>  <SCORE.INTRA.REPUL.0>
0

>  <SCORE.INTRA.SOLV>
3.95252

>  <SCORE.INTRA.SOLV.lig_0>
-53.6586

>  <SCORE.INTRA.VDW>
-0.136822

>  <SCORE.INTRA.VDW.0>
-0.556525

>  <SCORE.INTRA.norm>
0.106849

>  <SCORE.RESTR>
0

>  <SCORE.RESTR.CAVITY>
0

>  <SCORE.RESTR.norm>
0

>  <SCORE.SYSTEM>
0

>  <SCORE.SYSTEM.CONST>
0

>  <SCORE.SYSTEM.DIHEDRAL>
0

>  <SCORE.SYSTEM.SOLV>
0

>  <SCORE.SYSTEM.norm>
0

>  <SCORE.heavy>
11

>  <SCORE.norm>
-1.22877

>  <RMSD>
2.067

$$$$

 OpenBabel11021811383D
libRbt.so/2013.1/901 2013/11/27
 11 10  0  0  0  0  0  0  0  0999 V2000
   -1.2281   -6.5475   -1.1052 N   0  3  0  0  0  0  0  0  0  0  0  0
   -0.9926   -5.1090   -0.7778 C   0  0  2  0  0  0  0  0  0  0  0  0
   -0.2831   -4.9954    0.5821 C   0  0  0  0  0  0  0  0  0  0  0  0
    0.0517   -5.9931    1.1927 O   0  0  0  0  0  0  0  0  0  0  0  0
   -2.3384   -4.3734   -0.7281 C   0  0  0  0  0  0  0  0  0  0  0  0
   -2.0976   -2.8612   -0.7325 C   0  0  0  0  0  0  0  0  0  0  0  0
   -3.2138   -2.1688   -1.5117 C   0  0  0  0  0  0  0  0  0  0  0  0
   -3.1345   -2.5755   -2.9414 N   0  3  0  0  0  0  0  0  0  0  0  0
   -4.2186   -2.9001   -3.5913 C   0  0  0  0  0  0  0  0  0  0  0  0
   -4.5997   -2.1843   -4.6175 N   0  0  0  0  0  0  0  0  0  0  0  0
   -4.9157   -3.9424   -3.2197 N   0  0  0  0  0  0  0  0  0  0  0  0
  2  1  1  1  0  0  0
  2  3  1  0  0  0  0
  2  5  1  0  0  0  0
  3  4  2  0  0  0  0
  5  6  1  0  0  0  0
  6  7  1  0  0  0  0
  7  8  1  0  0  0  0
  8  9  2  0  0  0  0
  9 10  1  0  0  0  0
  9 11  1  0  0  0  0
M  CHG  2   1   1   8   1
M  END
>  <CHROM.1>
-64.99029703,3.12803563,-166.40199235,145.26439667,-65.58358868,135.62913533
-2.46103984,-4.01819597,-1.61062066,0.35191397,0.86449100,-2.93746843

>  <Name>


>  <RI>
0

>  <Rbt.Current_Directory>
/home/itssahil/PROJECTS/Mol_Feturizer/New_Systems/rnas/1aju

>  <Rbt.Executable>
rbdock ($Id: //depot/dev/client3/rdock/2013.1/src/exe/rbdock.cxx#4 $)

>  <Rbt.Library>
libRbt.so (2013.1, Build901 2013/11/27)

>  <Rbt.Parameter_File>
/export/apps/rDock/src/rDock_2013.1_src/data/scripts/dock_solv.prm

>  <Rbt.Receptor>
prm/pocket_docking_3.prm

>  <SCORE>
-15.3177

>  <SCORE.INTER>
-15.0292

>  <SCORE.INTER.CONST>
1

>  <SCORE.INTER.POLAR>
-2.4743

>  <SCORE.INTER.ROT>
5

>  <SCORE.INTER.SOLV>
16.7384

>  <SCORE.INTER.VDW>
-14.2846

>  <SCORE.INTER.norm>
-1.36629

>  <SCORE.INTRA>
-0.293664

>  <SCORE.INTRA.DIHEDRAL>
-2.28116

>  <SCORE.INTRA.DIHEDRAL.0>
9.90185

>  <SCORE.INTRA.POLAR>
0

>  <SCORE.INTRA.POLAR.0>
0

>  <SCORE.INTRA.REPUL>
0

>  <SCORE.INTRA.REPUL.0>
0

>  <SCORE.INTRA.SOLV>
1.95907

>  <SCORE.INTRA.SOLV.lig_0>
-53.6586

>  <SCORE.INTRA.VDW>
-0.132615

>  <SCORE.INTRA.VDW.0>
-0.556525

>  <SCORE.INTRA.norm>
-0.0266967

>  <SCORE.RESTR>
0.00516645

>  <SCORE.RESTR.CAVITY>
0.00516645

>  <SCORE.RESTR.norm>
0.000469677

>  <SCORE.SYSTEM>
0

>  <SCORE.SYSTEM.CONST>
0

>  <SCORE.SYSTEM.DIHEDRAL>
0

>  <SCORE.SYSTEM.SOLV>
0

>  <SCORE.SYSTEM.norm>
0

>  <SCORE.heavy>
11

>  <SCORE.norm>
-1.39252

>  <RMSD>
2.087

$$$$

 OpenBabel11021811383D
libRbt.so/2013.1/901 2013/11/27
 11 10  0  0  0  0  0  0  0  0999 V2000
   -1.5386   -4.5742    1.7030 N   0  3  0  0  0  0  0  0  0  0  0  0
   -1.1473   -3.1387    1.5699 C   0  0  2  0  0  0  0  0  0  0  0  0
   -1.0161   -2.5047    2.9651 C   0  0  0  0  0  0  0  0  0  0  0  0
    0.0277   -1.9872    3.3159 O   0  0  0  0  0  0  0  0  0  0  0  0
   -2.2153   -2.3953    0.7565 C   0  0  0  0  0  0  0  0  0  0  0  0
   -2.1345   -2.8248   -0.7111 C   0  0  0  0  0  0  0  0  0  0  0  0
   -3.2344   -2.1270   -1.5084 C   0  0  0  0  0  0  0  0  0  0  0  0
   -3.1471   -2.5508   -2.9328 N   0  3  0  0  0  0  0  0  0  0  0  0
   -4.2281   -2.8783   -3.5862 C   0  0  0  0  0  0  0  0  0  0  0  0
   -4.5991   -2.1731   -4.6233 N   0  0  0  0  0  0  0  0  0  0  0  0
   -4.9322   -3.9134   -3.2073 N   0  0  0  0  0  0  0  0  0  0  0  0
  2  1  1  1  0  0  0
  2  3  1  0  0  0  0
  2  5  1  0  0  0  0
  3  4  2  0  0  0  0
  5  6  1  0  0  0  0
  6  7  1  0  0  0  0
  7  8  1  0  0  0  0
  8  9  2  0  0  0  0
  9 10  1  0  0  0  0
  9 11  1  0  0  0  0
M  CHG  2   1   1   8   1
M  END
>  <CHROM.1>
61.86468167,122.54033114,-71.56568446,177.72417457,179.99001919,135.11259825
-2.56696820,-2.85799158,-0.57965913,0.49094098,0.97960972,2.57464929

>  <Name>


>  <RI>
0

>  <Rbt.Current_Directory>
/home/itssahil/PROJECTS/Mol_Feturizer/New_Systems/rnas/1aju

>  <Rbt.Executable>
rbdock ($Id: //depot/dev/client3/rdock/2013.1/src/exe/rbdock.cxx#4 $)

>  <Rbt.Library>
libRbt.so (2013.1, Build901 2013/11/27)

>  <Rbt.Parameter_File>
/export/apps/rDock/src/rDock_2013.1_src/data/scripts/dock_solv.prm

>  <Rbt.Receptor>
prm/pocket_docking_3.prm

>  <SCORE>
-15.5295

>  <SCORE.INTER>
-12.4941

>  <SCORE.INTER.CONST>
1

>  <SCORE.INTER.POLAR>
-2.48648

>  <SCORE.INTER.ROT>
5

>  <SCORE.INTER.SOLV>
12.7111

>  <SCORE.INTER.VDW>
-11.2115

>  <SCORE.INTER.norm>
-1.13582

>  <SCORE.INTRA>
-3.03541

>  <SCORE.INTRA.DIHEDRAL>
-6.41914

>  <SCORE.INTRA.DIHEDRAL.0>
9.90185

>  <SCORE.INTRA.POLAR>
0

>  <SCORE.INTRA.POLAR.0>
0

>  <SCORE.INTRA.REPUL>
0

>  <SCORE.INTRA.REPUL.0>
0

>  <SCORE.INTRA.SOLV>
1.06037

>  <SCORE.INTRA.SOLV.lig_0>
-53.6586

>  <SCORE.INTRA.VDW>
-0.356023

>  <SCORE.INTRA.VDW.0>
-0.556525

>  <SCORE.INTRA.norm>
-0.275946

>  <SCORE.RESTR>
0

>  <SCORE.RESTR.CAVITY>
0

>  <SCORE.RESTR.norm>
0

>  <SCORE.SYSTEM>
0

>  <SCORE.SYSTEM.CONST>
0

>  <SCORE.SYSTEM.DIHEDRAL>
0

>  <SCORE.SYSTEM.SOLV>
0

>  <SCORE.SYSTEM.norm>
0

>  <SCORE.heavy>
11

>  <SCORE.norm>
-1.41177

>  <RMSD>
2.088

$$$$

 OpenBabel11021811383D
libRbt.so/2013.1/901 2013/11/27
 11 10  0  0  0  0  0  0  0  0999 V2000
   -0.1557   -4.1779    0.7589 N   0  3  0  0  0  0  0  0  0  0  0  0
   -0.8568   -2.9132    0.3838 C   0  0  2  0  0  0  0  0  0  0  0  0
    0.0044   -1.7035    0.7847 C   0  0  0  0  0  0  0  0  0  0  0  0
    0.3080   -0.8586   -0.0364 O   0  0  0  0  0  0  0  0  0  0  0  0
   -2.2111   -2.8517    1.1028 C   0  0  0  0  0  0  0  0  0  0  0  0
   -3.2582   -2.2315    0.1734 C   0  0  0  0  0  0  0  0  0  0  0  0
   -3.5289   -3.1779   -0.9943 C   0  0  0  0  0  0  0  0  0  0  0  0
   -4.6083   -2.6057   -1.8450 N   0  3  0  0  0  0  0  0  0  0  0  0
   -4.4858   -2.6017   -3.1441 C   0  0  0  0  0  0  0  0  0  0  0  0
   -5.3288   -3.2807   -3.8782 N   0  0  0  0  0  0  0  0  0  0  0  0
   -3.5265   -1.9142   -3.7078 N   0  0  0  0  0  0  0  0  0  0  0  0
  2  1  1  1  0  0  0
  2  3  1  0  0  0  0
  2  5  1  0  0  0  0
  3  4  2  0  0  0  0
  5  6  1  0  0  0  0
  6  7  1  0  0  0  0
  7  8  1  0  0  0  0
  8  9  2  0  0  0  0
  9 10  1  0  0  0  0
  9 11  1  0  0  0  0
M  CHG  2   1   1   8   1
M  END
>  <CHROM.1>
174.60136519,125.31882437,-142.49879839,67.57290142,176.49461856,135.04925046
-2.49804941,-2.59012846,-0.97253272,0.55125976,0.51398855,2.17969011

>  <Name>


>  <RI>
0

>  <Rbt.Current_Directory>
/home/itssahil/PROJECTS/Mol_Feturizer/New_Systems/rnas/1aju

>  <Rbt.Executable>
rbdock ($Id: //depot/dev/client3/rdock/2013.1/src/exe/rbdock.cxx#4 $)

>  <Rbt.Library>
libRbt.so (2013.1, Build901 2013/11/27)

>  <Rbt.Parameter_File>
/export/apps/rDock/src/rDock_2013.1_src/data/scripts/dock_solv.prm

>  <Rbt.Receptor>
prm/pocket_docking_4.prm

>  <SCORE>
-24.3784

>  <SCORE.INTER>
-23.0461

>  <SCORE.INTER.CONST>
1

>  <SCORE.INTER.POLAR>
-4.54439

>  <SCORE.INTER.ROT>
5

>  <SCORE.INTER.SOLV>
18.8748

>  <SCORE.INTER.VDW>
-13.441

>  <SCORE.INTER.norm>
-2.0951

>  <SCORE.INTRA>
-1.33228

>  <SCORE.INTRA.DIHEDRAL>
-2.95528

>  <SCORE.INTRA.DIHEDRAL.0>
9.90185

>  <SCORE.INTRA.POLAR>
0

>  <SCORE.INTRA.POLAR.0>
0

>  <SCORE.INTRA.REPUL>
0

>  <SCORE.INTRA.REPUL.0>
0

>  <SCORE.INTRA.SOLV>
0.447431

>  <SCORE.INTRA.SOLV.lig_0>
-53.6586

>  <SCORE.INTRA.VDW>
-0.0783535

>  <SCORE.INTRA.VDW.0>
-0.556525

>  <SCORE.INTRA.norm>
-0.121116

>  <SCORE.RESTR>
0

>  <SCORE.RESTR.CAVITY>
0

>  <SCORE.RESTR.norm>
0

>  <SCORE.SYSTEM>
0

>  <SCORE.SYSTEM.CONST>
0

>  <SCORE.SYSTEM.DIHEDRAL>
0

>  <SCORE.SYSTEM.SOLV>
0

>  <SCORE.SYSTEM.norm>
0

>  <SCORE.heavy>
11

>  <SCORE.norm>
-2.21622

>  <RMSD>
2.106

$$$$

 OpenBabel11021811383D
libRbt.so/2013.1/901 2013/11/27
 11 10  0  0  0  0  0  0  0  0999 V2000
   -0.2264   -2.9687    1.0002 N   0  3  0  0  0  0  0  0  0  0  0  0
   -1.6192   -2.4640    0.8074 C   0  0  2  0  0  0  0  0  0  0  0  0
   -2.2785   -2.2235    2.1761 C   0  0  0  0  0  0  0  0  0  0  0  0
   -1.6578   -2.4116    3.2055 O   0  0  0  0  0  0  0  0  0  0  0  0
   -2.4278   -3.4981    0.0126 C   0  0  0  0  0  0  0  0  0  0  0  0
   -2.0782   -3.3905   -1.4744 C   0  0  0  0  0  0  0  0  0  0  0  0
   -2.7647   -2.1644   -2.0728 C   0  0  0  0  0  0  0  0  0  0  0  0
   -4.2344   -2.3982   -2.1092 N   0  3  0  0  0  0  0  0  0  0  0  0
   -4.7866   -2.9335   -3.1633 C   0  0  0  0  0  0  0  0  0  0  0  0
   -5.3844   -4.0927   -3.0657 N   0  0  0  0  0  0  0  0  0  0  0  0
   -4.7472   -2.3071   -4.3108 N   0  0  0  0  0  0  0  0  0  0  0  0
  2  1  1  1  0  0  0
  2  3  1  0  0  0  0
  2  5  1  0  0  0  0
  3  4  2  0  0  0  0
  5  6  1  0  0  0  0
  6  7  1  0  0  0  0
  7  8  1  0  0  0  0
  8  9  2  0  0  0  0
  9 10  1  0  0  0  0
  9 11  1  0  0  0  0
M  CHG  2   1   1   8   1
M  END
>  <CHROM.1>
60.42865884,1.83974616,-78.67385851,-76.10234822,-68.80316583,-90.91792592
-2.91181448,-2.81774557,-0.81237408,-1.00697985,-0.05071594,-1.60168096

>  <Name>


>  <RI>
0

>  <Rbt.Current_Directory>
/home/itssahil/PROJECTS/Mol_Feturizer/New_Systems/rnas/1aju

>  <Rbt.Executable>
rbdock ($Id: //depot/dev/client3/rdock/2013.1/src/exe/rbdock.cxx#4 $)

>  <Rbt.Library>
libRbt.so (2013.1, Build901 2013/11/27)

>  <Rbt.Parameter_File>
/export/apps/rDock/src/rDock_2013.1_src/data/scripts/dock_solv.prm

>  <Rbt.Receptor>
prm/pocket_docking_3.prm

>  <SCORE>
-16.2216

>  <SCORE.INTER>
-15.1283

>  <SCORE.INTER.CONST>
1

>  <SCORE.INTER.POLAR>
-2.4764

>  <SCORE.INTER.ROT>
5

>  <SCORE.INTER.SOLV>
14.3259

>  <SCORE.INTER.VDW>
-13.5395

>  <SCORE.INTER.norm>
-1.3753

>  <SCORE.INTRA>
-1.09335

>  <SCORE.INTRA.DIHEDRAL>
-4.45296

>  <SCORE.INTRA.DIHEDRAL.0>
9.90185

>  <SCORE.INTRA.POLAR>
0

>  <SCORE.INTRA.POLAR.0>
0

>  <SCORE.INTRA.REPUL>
0

>  <SCORE.INTRA.REPUL.0>
0

>  <SCORE.INTRA.SOLV>
2.80612

>  <SCORE.INTRA.SOLV.lig_0>
-53.6586

>  <SCORE.INTRA.VDW>
-0.269934

>  <SCORE.INTRA.VDW.0>
-0.556525

>  <SCORE.INTRA.norm>
-0.0993956

>  <SCORE.RESTR>
0

>  <SCORE.RESTR.CAVITY>
0

>  <SCORE.RESTR.norm>
0

>  <SCORE.SYSTEM>
0

>  <SCORE.SYSTEM.CONST>
0

>  <SCORE.SYSTEM.DIHEDRAL>
0

>  <SCORE.SYSTEM.SOLV>
0

>  <SCORE.SYSTEM.norm>
0

>  <SCORE.heavy>
11

>  <SCORE.norm>
-1.47469

>  <RMSD>
2.122

$$$$

 OpenBabel11021811383D
libRbt.so/2013.1/901 2013/11/27
 11 10  0  0  0  0  0  0  0  0999 V2000
   -3.2270   -1.8469    2.6290 N   0  3  0  0  0  0  0  0  0  0  0  0
   -2.4602   -2.4359    1.4902 C   0  0  2  0  0  0  0  0  0  0  0  0
   -1.1861   -3.1164    2.0189 C   0  0  0  0  0  0  0  0  0  0  0  0
   -0.8993   -3.0645    3.2001 O   0  0  0  0  0  0  0  0  0  0  0  0
   -2.0864   -1.3235    0.5014 C   0  0  0  0  0  0  0  0  0  0  0  0
   -1.9556   -1.9107   -0.9067 C   0  0  0  0  0  0  0  0  0  0  0  0
   -3.3442   -2.2223   -1.4609 C   0  0  0  0  0  0  0  0  0  0  0  0
   -3.2223   -2.6034   -2.8947 N   0  3  0  0  0  0  0  0  0  0  0  0
   -4.2875   -2.9065   -3.5848 C   0  0  0  0  0  0  0  0  0  0  0  0
   -4.6297   -2.1688   -4.6092 N   0  0  0  0  0  0  0  0  0  0  0  0
   -5.0046   -3.9495   -3.2553 N   0  0  0  0  0  0  0  0  0  0  0  0
  2  1  1  1  0  0  0
  2  3  1  0  0  0  0
  2  5  1  0  0  0  0
  3  4  2  0  0  0  0
  5  6  1  0  0  0  0
  6  7  1  0  0  0  0
  7  8  1  0  0  0  0
  8  9  2  0  0  0  0
  9 10  1  0  0  0  0
  9 11  1  0  0  0  0
M  CHG  2   1   1   8   1
M  END
>  <CHROM.1>
179.95568275,-3.50279529,-152.01877365,73.80647430,171.81945074,-179.56749754
-2.96547408,-2.50391040,-0.60681076,1.09350491,0.55981756,1.78531114

>  <Name>


>  <RI>
0

>  <Rbt.Current_Directory>
/home/itssahil/PROJECTS/Mol_Feturizer/New_Systems/rnas/1aju

>  <Rbt.Executable>
rbdock ($Id: //depot/dev/client3/rdock/2013.1/src/exe/rbdock.cxx#4 $)

>  <Rbt.Library>
libRbt.so (2013.1, Build901 2013/11/27)

>  <Rbt.Parameter_File>
/export/apps/rDock/src/rDock_2013.1_src/data/scripts/dock_solv.prm

>  <Rbt.Receptor>
prm/pocket_docking_7.prm

>  <SCORE>
-15.3356

>  <SCORE.INTER>
-14.5017

>  <SCORE.INTER.CONST>
1

>  <SCORE.INTER.POLAR>
-2.42291

>  <SCORE.INTER.ROT>
5

>  <SCORE.INTER.SOLV>
13.4029

>  <SCORE.INTER.VDW>
-12.9924

>  <SCORE.INTER.norm>
-1.31834

>  <SCORE.INTRA>
-0.833906

>  <SCORE.INTRA.DIHEDRAL>
-3.61748

>  <SCORE.INTRA.DIHEDRAL.0>
9.90185

>  <SCORE.INTRA.POLAR>
0

>  <SCORE.INTRA.POLAR.0>
0

>  <SCORE.INTRA.REPUL>
0

>  <SCORE.INTRA.REPUL.0>
0

>  <SCORE.INTRA.SOLV>
1.19779

>  <SCORE.INTRA.SOLV.lig_0>
-53.6586

>  <SCORE.INTRA.VDW>
0.375941

>  <SCORE.INTRA.VDW.0>
-0.556525

>  <SCORE.INTRA.norm>
-0.0758096

>  <SCORE.RESTR>
0

>  <SCORE.RESTR.CAVITY>
0

>  <SCORE.RESTR.norm>
0

>  <SCORE.SYSTEM>
0

>  <SCORE.SYSTEM.CONST>
0

>  <SCORE.SYSTEM.DIHEDRAL>
0

>  <SCORE.SYSTEM.SOLV>
0

>  <SCORE.SYSTEM.norm>
0

>  <SCORE.heavy>
11

>  <SCORE.norm>
-1.39415

>  <RMSD>
2.160

$$$$

 OpenBabel11021811383D
libRbt.so/2013.1/901 2013/11/27
 11 10  0  0  0  0  0  0  0  0999 V2000
    0.1969   -2.9675    1.2532 N   0  3  0  0  0  0  0  0  0  0  0  0
   -1.2156   -2.4999    1.1199 C   0  0  2  0  0  0  0  0  0  0  0  0
   -1.6620   -1.8174    2.4240 C   0  0  0  0  0  0  0  0  0  0  0  0
   -0.9975   -1.9215    3.4378 O   0  0  0  0  0  0  0  0  0  0  0  0
   -2.1218   -3.7020    0.8225 C   0  0  0  0  0  0  0  0  0  0  0  0
   -3.3854   -3.2264    0.1000 C   0  0  0  0  0  0  0  0  0  0  0  0
   -3.0385   -2.8453   -1.3376 C   0  0  0  0  0  0  0  0  0  0  0  0
   -4.2801   -2.4256   -2.0435 N   0  3  0  0  0  0  0  0  0  0  0  0
   -4.3685   -2.5439   -3.3400 C   0  0  0  0  0  0  0  0  0  0  0  0
   -5.2655   -3.3414   -3.8599 N   0  0  0  0  0  0  0  0  0  0  0  0
   -3.5663   -1.8606   -4.1146 N   0  0  0  0  0  0  0  0  0  0  0  0
  2  1  1  1  0  0  0
  2  3  1  0  0  0  0
  2  5  1  0  0  0  0
  3  4  2  0  0  0  0
  5  6  1  0  0  0  0
  6  7  1  0  0  0  0
  7  8  1  0  0  0  0
  8  9  2  0  0  0  0
  9 10  1  0  0  0  0
  9 11  1  0  0  0  0
M  CHG  2   1   1   8   1
M  END
>  <CHROM.1>
-56.76922252,-12.70517755,-155.44936702,73.02111201,178.22620229,-153.75635729
-2.67152727,-2.65232684,-0.51363615,-1.01497210,-0.15176882,-1.51390524

>  <Name>


>  <RI>
0

>  <Rbt.Current_Directory>
/home/itssahil/PROJECTS/Mol_Feturizer/New_Systems/rnas/1aju

>  <Rbt.Executable>
rbdock ($Id: //depot/dev/client3/rdock/2013.1/src/exe/rbdock.cxx#4 $)

>  <Rbt.Library>
libRbt.so (2013.1, Build901 2013/11/27)

>  <Rbt.Parameter_File>
/export/apps/rDock/src/rDock_2013.1_src/data/scripts/dock_solv.prm

>  <Rbt.Receptor>
prm/pocket_docking_3.prm

>  <SCORE>
-15.8563

>  <SCORE.INTER>
-14.6756

>  <SCORE.INTER.CONST>
1

>  <SCORE.INTER.POLAR>
-3.68708

>  <SCORE.INTER.ROT>
5

>  <SCORE.INTER.SOLV>
17.8242

>  <SCORE.INTER.VDW>
-10.3682

>  <SCORE.INTER.norm>
-1.33415

>  <SCORE.INTRA>
-1.18071

>  <SCORE.INTRA.DIHEDRAL>
-4.14773

>  <SCORE.INTRA.DIHEDRAL.0>
9.90185

>  <SCORE.INTRA.POLAR>
0

>  <SCORE.INTRA.POLAR.0>
0

>  <SCORE.INTRA.REPUL>
0

>  <SCORE.INTRA.REPUL.0>
0

>  <SCORE.INTRA.SOLV>
1.12554

>  <SCORE.INTRA.SOLV.lig_0>
-53.6586

>  <SCORE.INTRA.VDW>
0.330391

>  <SCORE.INTRA.VDW.0>
-0.556525

>  <SCORE.INTRA.norm>
-0.107337

>  <SCORE.RESTR>
0

>  <SCORE.RESTR.CAVITY>
0

>  <SCORE.RESTR.norm>
0

>  <SCORE.SYSTEM>
0

>  <SCORE.SYSTEM.CONST>
0

>  <SCORE.SYSTEM.DIHEDRAL>
0

>  <SCORE.SYSTEM.SOLV>
0

>  <SCORE.SYSTEM.norm>
0

>  <SCORE.heavy>
11

>  <SCORE.norm>
-1.44148

>  <RMSD>
2.168

$$$$

 OpenBabel11021811383D
libRbt.so/2013.1/901 2013/11/27
 11 10  0  0  0  0  0  0  0  0999 V2000
   -0.3699    0.0568    1.4555 N   0  3  0  0  0  0  0  0  0  0  0  0
   -0.6320   -1.3996    1.2508 C   0  0  2  0  0  0  0  0  0  0  0  0
    0.6812   -2.1882    1.3905 C   0  0  0  0  0  0  0  0  0  0  0  0
    1.6618   -1.6759    1.8966 O   0  0  0  0  0  0  0  0  0  0  0  0
   -1.2254   -1.6164   -0.1476 C   0  0  0  0  0  0  0  0  0  0  0  0
   -1.6894   -3.0688   -0.2891 C   0  0  0  0  0  0  0  0  0  0  0  0
   -2.2138   -3.3016   -1.7045 C   0  0  0  0  0  0  0  0  0  0  0  0
   -3.5304   -2.6233   -1.8540 N   0  3  0  0  0  0  0  0  0  0  0  0
   -4.1380   -2.6194   -3.0088 C   0  0  0  0  0  0  0  0  0  0  0  0
   -5.2983   -3.2098   -3.1344 N   0  0  0  0  0  0  0  0  0  0  0  0
   -3.5894   -2.0201   -4.0338 N   0  0  0  0  0  0  0  0  0  0  0  0
  2  1  1  6  0  0  0
  2  3  1  0  0  0  0
  2  5  1  0  0  0  0
  3  4  2  0  0  0  0
  5  6  1  0  0  0  0
  6  7  1  0  0  0  0
  7  8  1  0  0  0  0
  8  9  2  0  0  0  0
  9 10  1  0  0  0  0
  9 11  1  0  0  0  0
M  CHG  2   1   1   8   1
M  END
>  <CHROM.1>
-177.86113801,15.25758590,-171.62896382,-177.11900820,-72.73804116,176.05009770
-1.85266410,-2.10807250,-0.74459968,0.33855406,-0.74163260,0.18071341

>  <Name>


>  <RI>
224

>  <Rbt.Current_Directory>
/home/itssahil/PROJECTS/Mol_Feturizer/New_Systems/rnas/1aju

>  <Rbt.Executable>
rbdock ($Id: //depot/dev/client3/rdock/2013.1/src/exe/rbdock.cxx#4 $)

>  <Rbt.Library>
libRbt.so (2013.1, Build901 2013/11/27)

>  <Rbt.Parameter_File>
/export/apps/rDock/src/rDock_2013.1_src/data/scripts/dock_solv.prm

>  <Rbt.Receptor>
prm/pocket_docking_5.prm

>  <SCORE>
-13.177

>  <SCORE.INTER>
-11.404

>  <SCORE.INTER.CONST>
1

>  <SCORE.INTER.POLAR>
-1.53806

>  <SCORE.INTER.ROT>
5

>  <SCORE.INTER.SOLV>
15.716

>  <SCORE.INTER.VDW>
-14.6478

>  <SCORE.INTER.norm>
-1.03673

>  <SCORE.INTRA>
-1.77295

>  <SCORE.INTRA.DIHEDRAL>
-5.63677

>  <SCORE.INTRA.DIHEDRAL.0>
9.90185

>  <SCORE.INTRA.POLAR>
0

>  <SCORE.INTRA.POLAR.0>
0

>  <SCORE.INTRA.REPUL>
0

>  <SCORE.INTRA.REPUL.0>
0

>  <SCORE.INTRA.SOLV>
1.27263

>  <SCORE.INTRA.SOLV.lig_0>
-53.6586

>  <SCORE.INTRA.VDW>
0.409122

>  <SCORE.INTRA.VDW.0>
-0.556525

>  <SCORE.INTRA.norm>
-0.161177

>  <SCORE.RESTR>
0

>  <SCORE.RESTR.CAVITY>
0

>  <SCORE.RESTR.norm>
0

>  <SCORE.SYSTEM>
0

>  <SCORE.SYSTEM.CONST>
0

>  <SCORE.SYSTEM.DIHEDRAL>
0

>  <SCORE.SYSTEM.SOLV>
0

>  <SCORE.SYSTEM.norm>
0

>  <SCORE.heavy>
11

>  <SCORE.norm>
-1.19791

>  <RMSD>
2.172

$$$$

 OpenBabel11021811383D
libRbt.so/2013.1/901 2013/11/27
 11 10  0  0  0  0  0  0  0  0999 V2000
   -4.0294   -1.9955    2.5677 N   0  3  0  0  0  0  0  0  0  0  0  0
   -3.1388   -2.7206    1.6124 C   0  0  2  0  0  0  0  0  0  0  0  0
   -1.7165   -2.8065    2.1915 C   0  0  0  0  0  0  0  0  0  0  0  0
   -1.1434   -3.8766    2.2735 O   0  0  0  0  0  0  0  0  0  0  0  0
   -3.1135   -1.9707    0.2738 C   0  0  0  0  0  0  0  0  0  0  0  0
   -2.4295   -2.8371   -0.7875 C   0  0  0  0  0  0  0  0  0  0  0  0
   -2.7534   -2.2929   -2.1772 C   0  0  0  0  0  0  0  0  0  0  0  0
   -4.2287   -2.3101   -2.3754 N   0  3  0  0  0  0  0  0  0  0  0  0
   -4.7454   -2.9404   -3.3944 C   0  0  0  0  0  0  0  0  0  0  0  0
   -5.5374   -3.9617   -3.1930 N   0  0  0  0  0  0  0  0  0  0  0  0
   -4.4763   -2.5455   -4.6119 N   0  0  0  0  0  0  0  0  0  0  0  0
  2  1  1  1  0  0  0
  2  3  1  0  0  0  0
  2  5  1  0  0  0  0
  3  4  2  0  0  0  0
  5  6  1  0  0  0  0
  6  7  1  0  0  0  0
  7  8  1  0  0  0  0
  8  9  2  0  0  0  0
  9 10  1  0  0  0  0
  9 11  1  0  0  0  0
M  CHG  2   1   1   8   1
M  END
>  <CHROM.1>
-57.10161088,127.45910372,-169.17494585,163.72392217,-59.40623949,-124.09581298
-3.42692666,-2.75459539,-0.68071648,1.19085850,-0.18484781,1.48026780

>  <Name>


>  <RI>
0

>  <Rbt.Current_Directory>
/home/itssahil/PROJECTS/Mol_Feturizer/New_Systems/rnas/1aju

>  <Rbt.Executable>
rbdock ($Id: //depot/dev/client3/rdock/2013.1/src/exe/rbdock.cxx#4 $)

>  <Rbt.Library>
libRbt.so (2013.1, Build901 2013/11/27)

>  <Rbt.Parameter_File>
/export/apps/rDock/src/rDock_2013.1_src/data/scripts/dock_solv.prm

>  <Rbt.Receptor>
prm/pocket_docking_4.prm

>  <SCORE>
-16.1956

>  <SCORE.INTER>
-13.9259

>  <SCORE.INTER.CONST>
1

>  <SCORE.INTER.POLAR>
-2.46547

>  <SCORE.INTER.ROT>
5

>  <SCORE.INTER.SOLV>
14.4749

>  <SCORE.INTER.VDW>
-12.824

>  <SCORE.INTER.norm>
-1.26599

>  <SCORE.INTRA>
-2.27191

>  <SCORE.INTRA.DIHEDRAL>
-5.38551

>  <SCORE.INTRA.DIHEDRAL.0>
9.90185

>  <SCORE.INTRA.POLAR>
0

>  <SCORE.INTRA.POLAR.0>
0

>  <SCORE.INTRA.REPUL>
0

>  <SCORE.INTRA.REPUL.0>
0

>  <SCORE.INTRA.SOLV>
0.402894

>  <SCORE.INTRA.SOLV.lig_0>
-53.6586

>  <SCORE.INTRA.VDW>
0.219396

>  <SCORE.INTRA.VDW.0>
-0.556525

>  <SCORE.INTRA.norm>
-0.206538

>  <SCORE.RESTR>
0.00217223

>  <SCORE.RESTR.CAVITY>
0.00217223

>  <SCORE.RESTR.norm>
0.000197476

>  <SCORE.SYSTEM>
0

>  <SCORE.SYSTEM.CONST>
0

>  <SCORE.SYSTEM.DIHEDRAL>
0

>  <SCORE.SYSTEM.SOLV>
0

>  <SCORE.SYSTEM.norm>
0

>  <SCORE.heavy>
11

>  <SCORE.norm>
-1.47233

>  <RMSD>
2.176

$$$$

 OpenBabel11021811383D
libRbt.so/2013.1/901 2013/11/27
 11 10  0  0  0  0  0  0  0  0999 V2000
   -1.4127   -2.3850    2.7693 N   0  3  0  0  0  0  0  0  0  0  0  0
   -1.4725   -2.4637    1.2787 C   0  0  2  0  0  0  0  0  0  0  0  0
   -1.1983   -1.0763    0.6740 C   0  0  0  0  0  0  0  0  0  0  0  0
   -0.2500   -0.8989   -0.0673 O   0  0  0  0  0  0  0  0  0  0  0  0
   -2.8626   -2.9542    0.8523 C   0  0  0  0  0  0  0  0  0  0  0  0
   -2.8320   -3.3657   -0.6224 C   0  0  0  0  0  0  0  0  0  0  0  0
   -3.2589   -2.1842   -1.4910 C   0  0  0  0  0  0  0  0  0  0  0  0
   -3.1592   -2.5725   -2.9246 N   0  3  0  0  0  0  0  0  0  0  0  0
   -4.2321   -2.9022   -3.5901 C   0  0  0  0  0  0  0  0  0  0  0  0
   -4.6110   -2.1786   -4.6118 N   0  0  0  0  0  0  0  0  0  0  0  0
   -4.9204   -3.9574   -3.2388 N   0  0  0  0  0  0  0  0  0  0  0  0
  2  1  1  1  0  0  0
  2  3  1  0  0  0  0
  2  5  1  0  0  0  0
  3  4  2  0  0  0  0
  5  6  1  0  0  0  0
  6  7  1  0  0  0  0
  7  8  1  0  0  0  0
  8  9  2  0  0  0  0
  9 10  1  0  0  0  0
  9 11  1  0  0  0  0
M  CHG  2   1   1   8   1
M  END
>  <CHROM.1>
58.57793220,119.35146713,-166.18267269,-93.35572233,177.14621789,101.30032839
-2.74183434,-2.44897698,-0.99193556,0.81681210,0.73550891,1.95717681

>  <Name>


>  <RI>
0

>  <Rbt.Current_Directory>
/home/itssahil/PROJECTS/Mol_Feturizer/New_Systems/rnas/1aju

>  <Rbt.Executable>
rbdock ($Id: //depot/dev/client3/rdock/2013.1/src/exe/rbdock.cxx#4 $)

>  <Rbt.Library>
libRbt.so (2013.1, Build901 2013/11/27)

>  <Rbt.Parameter_File>
/export/apps/rDock/src/rDock_2013.1_src/data/scripts/dock_solv.prm

>  <Rbt.Receptor>
prm/pocket_docking_3.prm

>  <SCORE>
-19.4448

>  <SCORE.INTER>
-18.1243

>  <SCORE.INTER.CONST>
1

>  <SCORE.INTER.POLAR>
-3.48925

>  <SCORE.INTER.ROT>
5

>  <SCORE.INTER.SOLV>
13.8308

>  <SCORE.INTER.VDW>
-11.9956

>  <SCORE.INTER.norm>
-1.64766

>  <SCORE.INTRA>
-1.32162

>  <SCORE.INTRA.DIHEDRAL>
-2.71946

>  <SCORE.INTRA.DIHEDRAL.0>
9.90185

>  <SCORE.INTRA.POLAR>
0

>  <SCORE.INTRA.POLAR.0>
0

>  <SCORE.INTRA.REPUL>
0

>  <SCORE.INTRA.REPUL.0>
0

>  <SCORE.INTRA.SOLV>
0.465531

>  <SCORE.INTRA.SOLV.lig_0>
-53.6586

>  <SCORE.INTRA.VDW>
-0.194651

>  <SCORE.INTRA.VDW.0>
-0.556525

>  <SCORE.INTRA.norm>
-0.120147

>  <SCORE.RESTR>
0.00107506

>  <SCORE.RESTR.CAVITY>
0.00107506

>  <SCORE.RESTR.norm>
9.77327e-05

>  <SCORE.SYSTEM>
0

>  <SCORE.SYSTEM.CONST>
0

>  <SCORE.SYSTEM.DIHEDRAL>
0

>  <SCORE.SYSTEM.SOLV>
0

>  <SCORE.SYSTEM.norm>
0

>  <SCORE.heavy>
11

>  <SCORE.norm>
-1.76771

>  <RMSD>
2.201

$$$$

 OpenBabel11021811383D
libRbt.so/2013.1/901 2013/11/27
 11 10  0  0  0  0  0  0  0  0999 V2000
   -1.5047   -4.1236    1.7133 N   0  3  0  0  0  0  0  0  0  0  0  0
   -2.4627   -4.7839    0.7764 C   0  0  2  0  0  0  0  0  0  0  0  0
   -1.7082   -5.2962   -0.4621 C   0  0  0  0  0  0  0  0  0  0  0  0
   -1.4676   -6.4813   -0.5960 O   0  0  0  0  0  0  0  0  0  0  0  0
   -3.5363   -3.7725    0.3529 C   0  0  0  0  0  0  0  0  0  0  0  0
   -4.6996   -4.5088   -0.3174 C   0  0  0  0  0  0  0  0  0  0  0  0
   -4.4313   -4.6300   -1.8161 C   0  0  0  0  0  0  0  0  0  0  0  0
   -4.9107   -3.3966   -2.4981 N   0  3  0  0  0  0  0  0  0  0  0  0
   -4.0859   -2.6798   -3.2112 C   0  0  0  0  0  0  0  0  0  0  0  0
   -4.2900   -2.5401   -4.4956 N   0  0  0  0  0  0  0  0  0  0  0  0
   -3.0634   -2.0981   -2.6396 N   0  0  0  0  0  0  0  0  0  0  0  0
  2  1  1  1  0  0  0
  2  3  1  0  0  0  0
  2  5  1  0  0  0  0
  3  4  2  0  0  0  0
  5  6  1  0  0  0  0
  6  7  1  0  0  0  0
  7  8  1  0  0  0  0
  8  9  2  0  0  0  0
  9 10  1  0  0  0  0
  9 11  1  0  0  0  0
M  CHG  2   1   1   8   1
M  END
>  <CHROM.1>
63.34963582,104.33717305,-166.19473482,-88.93776613,-85.96967973,122.53102973
-3.25410915,-4.00992991,-1.19494682,0.87923741,-0.79656815,1.54036311

>  <Name>


>  <RI>
0

>  <Rbt.Current_Directory>
/home/itssahil/PROJECTS/Mol_Feturizer/New_Systems/rnas/1aju

>  <Rbt.Executable>
rbdock ($Id: //depot/dev/client3/rdock/2013.1/src/exe/rbdock.cxx#4 $)

>  <Rbt.Library>
libRbt.so (2013.1, Build901 2013/11/27)

>  <Rbt.Parameter_File>
/export/apps/rDock/src/rDock_2013.1_src/data/scripts/dock_solv.prm

>  <Rbt.Receptor>
prm/pocket_docking_6.prm

>  <SCORE>
-13.5108

>  <SCORE.INTER>
-13.6281

>  <SCORE.INTER.CONST>
1

>  <SCORE.INTER.POLAR>
-2.82559

>  <SCORE.INTER.ROT>
5

>  <SCORE.INTER.SOLV>
12.9595

>  <SCORE.INTER.VDW>
-10.9199

>  <SCORE.INTER.norm>
-1.23892

>  <SCORE.INTRA>
0.117264

>  <SCORE.INTRA.DIHEDRAL>
-0.775344

>  <SCORE.INTRA.DIHEDRAL.0>
9.90185

>  <SCORE.INTRA.POLAR>
0

>  <SCORE.INTRA.POLAR.0>
0

>  <SCORE.INTRA.REPUL>
0

>  <SCORE.INTRA.REPUL.0>
0

>  <SCORE.INTRA.SOLV>
1.47838

>  <SCORE.INTRA.SOLV.lig_0>
-53.6586

>  <SCORE.INTRA.VDW>
-0.234253

>  <SCORE.INTRA.VDW.0>
-0.556525

>  <SCORE.INTRA.norm>
0.0106604

>  <SCORE.RESTR>
0

>  <SCORE.RESTR.CAVITY>
0

>  <SCORE.RESTR.norm>
0

>  <SCORE.SYSTEM>
0

>  <SCORE.SYSTEM.CONST>
0

>  <SCORE.SYSTEM.DIHEDRAL>
0

>  <SCORE.SYSTEM.SOLV>
0

>  <SCORE.SYSTEM.norm>
0

>  <SCORE.heavy>
11

>  <SCORE.norm>
-1.22826

>  <RMSD>
2.211

$$$$

 OpenBabel11021811383D
libRbt.so/2013.1/901 2013/11/27
 11 10  0  0  0  0  0  0  0  0999 V2000
   -1.9560   -2.7856    2.9256 N   0  3  0  0  0  0  0  0  0  0  0  0
   -1.8775   -2.9056    1.4386 C   0  0  2  0  0  0  0  0  0  0  0  0
   -1.1845   -1.6635    0.8533 C   0  0  0  0  0  0  0  0  0  0  0  0
   -0.5528   -0.9098    1.5698 O   0  0  0  0  0  0  0  0  0  0  0  0
   -3.2949   -3.0324    0.8645 C   0  0  0  0  0  0  0  0  0  0  0  0
   -3.2172   -3.4289   -0.6125 C   0  0  0  0  0  0  0  0  0  0  0  0
   -3.2994   -2.1762   -1.4823 C   0  0  0  0  0  0  0  0  0  0  0  0
   -3.1892   -2.5691   -2.9139 N   0  3  0  0  0  0  0  0  0  0  0  0
   -4.2593   -2.8840   -3.5910 C   0  0  0  0  0  0  0  0  0  0  0  0
   -4.6154   -2.1571   -4.6184 N   0  0  0  0  0  0  0  0  0  0  0  0
   -4.9674   -3.9280   -3.2455 N   0  0  0  0  0  0  0  0  0  0  0  0
  2  1  1  1  0  0  0
  2  3  1  0  0  0  0
  2  5  1  0  0  0  0
  3  4  2  0  0  0  0
  5  6  1  0  0  0  0
  6  7  1  0  0  0  0
  7  8  1  0  0  0  0
  8  9  2  0  0  0  0
  9 10  1  0  0  0  0
  9 11  1  0  0  0  0
M  CHG  2   1   1   8   1
M  END
>  <CHROM.1>
61.24781323,15.33417688,-168.97262018,-95.36085196,178.61356489,88.41389752
-2.94726892,-2.58100565,-0.78196887,0.88102991,0.77932351,1.97015362

>  <Name>


>  <RI>
0

>  <Rbt.Current_Directory>
/home/itssahil/PROJECTS/Mol_Feturizer/New_Systems/rnas/1aju

>  <Rbt.Executable>
rbdock ($Id: //depot/dev/client3/rdock/2013.1/src/exe/rbdock.cxx#4 $)

>  <Rbt.Library>
libRbt.so (2013.1, Build901 2013/11/27)

>  <Rbt.Parameter_File>
/export/apps/rDock/src/rDock_2013.1_src/data/scripts/dock_solv.prm

>  <Rbt.Receptor>
prm/pocket_docking_3.prm

>  <SCORE>
-12.6573

>  <SCORE.INTER>
-12.677

>  <SCORE.INTER.CONST>
1

>  <SCORE.INTER.POLAR>
-2.46302

>  <SCORE.INTER.ROT>
5

>  <SCORE.INTER.SOLV>
12.7952

>  <SCORE.INTER.VDW>
-11.4396

>  <SCORE.INTER.norm>
-1.15245

>  <SCORE.INTRA>
0.0196809

>  <SCORE.INTRA.DIHEDRAL>
-2.24062

>  <SCORE.INTRA.DIHEDRAL.0>
9.90185

>  <SCORE.INTRA.POLAR>
0

>  <SCORE.INTRA.POLAR.0>
0

>  <SCORE.INTRA.REPUL>
0

>  <SCORE.INTRA.REPUL.0>
0

>  <SCORE.INTRA.SOLV>
1.51224

>  <SCORE.INTRA.SOLV.lig_0>
-53.6586

>  <SCORE.INTRA.VDW>
0.383874

>  <SCORE.INTRA.VDW.0>
-0.556525

>  <SCORE.INTRA.norm>
0.00178917

>  <SCORE.RESTR>
0

>  <SCORE.RESTR.CAVITY>
0

>  <SCORE.RESTR.norm>
0

>  <SCORE.SYSTEM>
0

>  <SCORE.SYSTEM.CONST>
0

>  <SCORE.SYSTEM.DIHEDRAL>
0

>  <SCORE.SYSTEM.SOLV>
0

>  <SCORE.SYSTEM.norm>
0

>  <SCORE.heavy>
11

>  <SCORE.norm>
-1.15066

>  <RMSD>
2.235

$$$$

 OpenBabel11021811383D
libRbt.so/2013.1/901 2013/11/27
 11 10  0  0  0  0  0  0  0  0999 V2000
   -4.1047   -2.3061    2.5614 N   0  3  0  0  0  0  0  0  0  0  0  0
   -3.3717   -2.8229    1.3667 C   0  0  2  0  0  0  0  0  0  0  0  0
   -2.4663   -3.9956    1.7803 C   0  0  0  0  0  0  0  0  0  0  0  0
   -2.7173   -5.1303    1.4200 O   0  0  0  0  0  0  0  0  0  0  0  0
   -2.5232   -1.6947    0.7651 C   0  0  0  0  0  0  0  0  0  0  0  0
   -2.2626   -1.9820   -0.7162 C   0  0  0  0  0  0  0  0  0  0  0  0
   -3.5942   -2.1203   -1.4513 C   0  0  0  0  0  0  0  0  0  0  0  0
   -3.3316   -2.4832   -2.8709 N   0  3  0  0  0  0  0  0  0  0  0  0
   -4.3147   -2.8533   -3.6451 C   0  0  0  0  0  0  0  0  0  0  0  0
   -4.6225   -2.1340   -4.6932 N   0  0  0  0  0  0  0  0  0  0  0  0
   -4.9836   -3.9444   -3.3753 N   0  0  0  0  0  0  0  0  0  0  0  0
  2  1  1  1  0  0  0
  2  3  1  0  0  0  0
  2  5  1  0  0  0  0
  3  4  2  0  0  0  0
  5  6  1  0  0  0  0
  6  7  1  0  0  0  0
  7  8  1  0  0  0  0
  8  9  2  0  0  0  0
  9 10  1  0  0  0  0
  9 11  1  0  0  0  0
M  CHG  2   1   1   8   1
M  END
>  <CHROM.1>
81.03002814,110.68822656,-155.82970140,57.88455662,-176.49769271,169.58950812
-3.51409865,-2.87270110,-0.80295216,-0.67242375,-1.28001506,-0.60164254

>  <Name>


>  <RI>
0

>  <Rbt.Current_Directory>
/home/itssahil/PROJECTS/Mol_Feturizer/New_Systems/rnas/1aju

>  <Rbt.Executable>
rbdock ($Id: //depot/dev/client3/rdock/2013.1/src/exe/rbdock.cxx#4 $)

>  <Rbt.Library>
libRbt.so (2013.1, Build901 2013/11/27)

>  <Rbt.Parameter_File>
/export/apps/rDock/src/rDock_2013.1_src/data/scripts/dock_solv.prm

>  <Rbt.Receptor>
prm/pocket_docking_3.prm

>  <SCORE>
-17.8852

>  <SCORE.INTER>
-17.841

>  <SCORE.INTER.CONST>
1

>  <SCORE.INTER.POLAR>
-3.50477

>  <SCORE.INTER.ROT>
5

>  <SCORE.INTER.SOLV>
14.6692

>  <SCORE.INTER.VDW>
-12.0345

>  <SCORE.INTER.norm>
-1.62191

>  <SCORE.INTRA>
-0.822117

>  <SCORE.INTRA.DIHEDRAL>
-3.91788

>  <SCORE.INTRA.DIHEDRAL.0>
9.90185

>  <SCORE.INTRA.POLAR>
0

>  <SCORE.INTRA.POLAR.0>
0

>  <SCORE.INTRA.REPUL>
0

>  <SCORE.INTRA.REPUL.0>
0

>  <SCORE.INTRA.SOLV>
0.278636

>  <SCORE.INTRA.SOLV.lig_0>
-53.6586

>  <SCORE.INTRA.VDW>
0.997505

>  <SCORE.INTRA.VDW.0>
-0.556525

>  <SCORE.INTRA.norm>
-0.0747379

>  <SCORE.RESTR>
0.777931

>  <SCORE.RESTR.CAVITY>
0.777931

>  <SCORE.RESTR.norm>
0.070721

>  <SCORE.SYSTEM>
0

>  <SCORE.SYSTEM.CONST>
0

>  <SCORE.SYSTEM.DIHEDRAL>
0

>  <SCORE.SYSTEM.SOLV>
0

>  <SCORE.SYSTEM.norm>
0

>  <SCORE.heavy>
11

>  <SCORE.norm>
-1.62593

>  <RMSD>
2.240

$$$$

 OpenBabel11021811383D
libRbt.so/2013.1/901 2013/11/27
 11 10  0  0  0  0  0  0  0  0999 V2000
   -2.5978   -0.4858    1.3112 N   0  3  0  0  0  0  0  0  0  0  0  0
   -2.2085   -1.9277    1.2788 C   0  0  2  0  0  0  0  0  0  0  0  0
   -1.8797   -2.4089    2.7022 C   0  0  0  0  0  0  0  0  0  0  0  0
   -0.9377   -3.1520    2.9040 O   0  0  0  0  0  0  0  0  0  0  0  0
   -0.9827   -2.1018    0.3722 C   0  0  0  0  0  0  0  0  0  0  0  0
   -1.4081   -1.9866   -1.0943 C   0  0  0  0  0  0  0  0  0  0  0  0
   -2.4088   -3.0923   -1.4239 C   0  0  0  0  0  0  0  0  0  0  0  0
   -3.7223   -2.4768   -1.7579 N   0  3  0  0  0  0  0  0  0  0  0  0
   -4.2068   -2.5815   -2.9650 C   0  0  0  0  0  0  0  0  0  0  0  0
   -5.3299   -3.2227   -3.1610 N   0  0  0  0  0  0  0  0  0  0  0  0
   -3.5730   -2.0397   -3.9727 N   0  0  0  0  0  0  0  0  0  0  0  0
  2  1  1  1  0  0  0
  2  3  1  0  0  0  0
  2  5  1  0  0  0  0
  3  4  2  0  0  0  0
  5  6  1  0  0  0  0
  6  7  1  0  0  0  0
  7  8  1  0  0  0  0
  8  9  2  0  0  0  0
  9 10  1  0  0  0  0
  9 11  1  0  0  0  0
M  CHG  2   1   1   8   1
M  END
>  <CHROM.1>
65.26681686,-139.48437286,-74.66953395,-61.34044895,115.38066555,114.33048565
-2.68398714,-2.29041068,-0.53670833,1.10052868,0.10841346,1.54394406

>  <Name>


>  <RI>
0

>  <Rbt.Current_Directory>
/home/itssahil/PROJECTS/Mol_Feturizer/New_Systems/rnas/1aju

>  <Rbt.Executable>
rbdock ($Id: //depot/dev/client3/rdock/2013.1/src/exe/rbdock.cxx#4 $)

>  <Rbt.Library>
libRbt.so (2013.1, Build901 2013/11/27)

>  <Rbt.Parameter_File>
/export/apps/rDock/src/rDock_2013.1_src/data/scripts/dock_solv.prm

>  <Rbt.Receptor>
prm/pocket_docking_4.prm

>  <SCORE>
-15.0097

>  <SCORE.INTER>
-16.9931

>  <SCORE.INTER.CONST>
1

>  <SCORE.INTER.POLAR>
-2.72655

>  <SCORE.INTER.ROT>
5

>  <SCORE.INTER.SOLV>
16.4295

>  <SCORE.INTER.VDW>
-14.6501

>  <SCORE.INTER.norm>
-1.54483

>  <SCORE.INTRA>
1.9834

>  <SCORE.INTRA.DIHEDRAL>
-0.0927436

>  <SCORE.INTRA.DIHEDRAL.0>
9.90185

>  <SCORE.INTRA.POLAR>
0

>  <SCORE.INTRA.POLAR.0>
0

>  <SCORE.INTRA.REPUL>
0

>  <SCORE.INTRA.REPUL.0>
0

>  <SCORE.INTRA.SOLV>
2.80497

>  <SCORE.INTRA.SOLV.lig_0>
-53.6586

>  <SCORE.INTRA.VDW>
0.627282

>  <SCORE.INTRA.VDW.0>
-0.556525

>  <SCORE.INTRA.norm>
0.180309

>  <SCORE.RESTR>
0

>  <SCORE.RESTR.CAVITY>
0

>  <SCORE.RESTR.norm>
0

>  <SCORE.SYSTEM>
0

>  <SCORE.SYSTEM.CONST>
0

>  <SCORE.SYSTEM.DIHEDRAL>
0

>  <SCORE.SYSTEM.SOLV>
0

>  <SCORE.SYSTEM.norm>
0

>  <SCORE.heavy>
11

>  <SCORE.norm>
-1.36452

>  <RMSD>
2.247

$$$$

 OpenBabel11021811383D
libRbt.so/2013.1/901 2013/11/27
 11 10  0  0  0  0  0  0  0  0999 V2000
   -1.0460   -2.0601    1.9845 N   0  3  0  0  0  0  0  0  0  0  0  0
   -0.3555   -2.2059    0.6678 C   0  0  2  0  0  0  0  0  0  0  0  0
    0.9037   -1.3230    0.6412 C   0  0  0  0  0  0  0  0  0  0  0  0
    1.1930   -0.6258    1.5954 O   0  0  0  0  0  0  0  0  0  0  0  0
   -1.3123   -1.7853   -0.4558 C   0  0  0  0  0  0  0  0  0  0  0  0
   -2.5204   -2.7259   -0.4805 C   0  0  0  0  0  0  0  0  0  0  0  0
   -3.6111   -2.1326   -1.3698 C   0  0  0  0  0  0  0  0  0  0  0  0
   -3.3309   -2.4886   -2.7877 N   0  3  0  0  0  0  0  0  0  0  0  0
   -4.3006   -2.8780   -3.5693 C   0  0  0  0  0  0  0  0  0  0  0  0
   -4.6155   -2.1640   -4.6190 N   0  0  0  0  0  0  0  0  0  0  0  0
   -4.9489   -3.9828   -3.3054 N   0  0  0  0  0  0  0  0  0  0  0  0
  2  1  1  1  0  0  0
  2  3  1  0  0  0  0
  2  5  1  0  0  0  0
  3  4  2  0  0  0  0
  5  6  1  0  0  0  0
  6  7  1  0  0  0  0
  7  8  1  0  0  0  0
  8  9  2  0  0  0  0
  9 10  1  0  0  0  0
  9 11  1  0  0  0  0
M  CHG  2   1   1   8   1
M  END
>  <CHROM.1>
65.63301373,-1.24362058,-63.16782591,167.24528738,83.83493482,137.16032548
-2.19207436,-2.21435270,-1.04681313,0.63390149,0.57189586,1.91304175

>  <Name>


>  <RI>
0

>  <Rbt.Current_Directory>
/home/itssahil/PROJECTS/Mol_Feturizer/New_Systems/rnas/1aju

>  <Rbt.Executable>
rbdock ($Id: //depot/dev/client3/rdock/2013.1/src/exe/rbdock.cxx#4 $)

>  <Rbt.Library>
libRbt.so (2013.1, Build901 2013/11/27)

>  <Rbt.Parameter_File>
/export/apps/rDock/src/rDock_2013.1_src/data/scripts/dock_solv.prm

>  <Rbt.Receptor>
prm/pocket_docking_4.prm

>  <SCORE>
-16.1022

>  <SCORE.INTER>
-15.2864

>  <SCORE.INTER.CONST>
1

>  <SCORE.INTER.POLAR>
-2.4384

>  <SCORE.INTER.ROT>
5

>  <SCORE.INTER.SOLV>
13.78

>  <SCORE.INTER.VDW>
-13.5896

>  <SCORE.INTER.norm>
-1.38967

>  <SCORE.INTRA>
-0.834831

>  <SCORE.INTRA.DIHEDRAL>
-4.25568

>  <SCORE.INTRA.DIHEDRAL.0>
9.90185

>  <SCORE.INTRA.POLAR>
0

>  <SCORE.INTRA.POLAR.0>
0

>  <SCORE.INTRA.REPUL>
0

>  <SCORE.INTRA.REPUL.0>
0

>  <SCORE.INTRA.SOLV>
2.66946

>  <SCORE.INTRA.SOLV.lig_0>
-53.6586

>  <SCORE.INTRA.VDW>
-0.0417209

>  <SCORE.INTRA.VDW.0>
-0.556525

>  <SCORE.INTRA.norm>
-0.0758937

>  <SCORE.RESTR>
0.0190258

>  <SCORE.RESTR.CAVITY>
0.0190258

>  <SCORE.RESTR.norm>
0.00172962

>  <SCORE.SYSTEM>
0

>  <SCORE.SYSTEM.CONST>
0

>  <SCORE.SYSTEM.DIHEDRAL>
0

>  <SCORE.SYSTEM.SOLV>
0

>  <SCORE.SYSTEM.norm>
0

>  <SCORE.heavy>
11

>  <SCORE.norm>
-1.46384

>  <RMSD>
2.250

$$$$

 OpenBabel11021811383D
libRbt.so/2013.1/901 2013/11/27
 11 10  0  0  0  0  0  0  0  0999 V2000
   -0.0869   -4.9706    0.5321 N   0  3  0  0  0  0  0  0  0  0  0  0
   -1.5161   -4.5576    0.6684 C   0  0  2  0  0  0  0  0  0  0  0  0
   -2.1384   -5.2392    1.8988 C   0  0  0  0  0  0  0  0  0  0  0  0
   -1.4779   -5.9883    2.5937 O   0  0  0  0  0  0  0  0  0  0  0  0
   -2.2838   -4.9622   -0.5972 C   0  0  0  0  0  0  0  0  0  0  0  0
   -3.6626   -4.2962   -0.5964 C   0  0  0  0  0  0  0  0  0  0  0  0
   -4.3967   -4.6407   -1.8906 C   0  0  0  0  0  0  0  0  0  0  0  0
   -4.8675   -3.3833   -2.5332 N   0  3  0  0  0  0  0  0  0  0  0  0
   -4.0467   -2.6680   -3.2525 C   0  0  0  0  0  0  0  0  0  0  0  0
   -4.2811   -2.4962   -4.5278 N   0  0  0  0  0  0  0  0  0  0  0  0
   -2.9977   -2.1200   -2.6958 N   0  0  0  0  0  0  0  0  0  0  0  0
  2  1  1  6  0  0  0
  2  3  1  0  0  0  0
  2  5  1  0  0  0  0
  3  4  2  0  0  0  0
  5  6  1  0  0  0  0
  6  7  1  0  0  0  0
  7  8  1  0  0  0  0
  8  9  2  0  0  0  0
  9 10  1  0  0  0  0
  9 11  1  0  0  0  0
M  CHG  2   1   1   8   1
M  END
>  <CHROM.1>
63.13316148,-0.02796580,-168.37083457,177.05543872,-127.53791162,81.32913577
-2.84243872,-4.11445933,-0.95280264,-1.07989626,-0.21064016,-0.97904043

>  <Name>


>  <RI>
0

>  <Rbt.Current_Directory>
/home/itssahil/PROJECTS/Mol_Feturizer/New_Systems/rnas/1aju

>  <Rbt.Executable>
rbdock ($Id: //depot/dev/client3/rdock/2013.1/src/exe/rbdock.cxx#4 $)

>  <Rbt.Library>
libRbt.so (2013.1, Build901 2013/11/27)

>  <Rbt.Parameter_File>
/export/apps/rDock/src/rDock_2013.1_src/data/scripts/dock_solv.prm

>  <Rbt.Receptor>
prm/pocket_docking_3.prm

>  <SCORE>
-18.0844

>  <SCORE.INTER>
-18.8561

>  <SCORE.INTER.CONST>
1

>  <SCORE.INTER.POLAR>
-3.92435

>  <SCORE.INTER.ROT>
5

>  <SCORE.INTER.SOLV>
17.304

>  <SCORE.INTER.VDW>
-12.1909

>  <SCORE.INTER.norm>
-1.71419

>  <SCORE.INTRA>
0.771712

>  <SCORE.INTRA.DIHEDRAL>
-1.16569

>  <SCORE.INTRA.DIHEDRAL.0>
9.90185

>  <SCORE.INTRA.POLAR>
0

>  <SCORE.INTRA.POLAR.0>
0

>  <SCORE.INTRA.REPUL>
0

>  <SCORE.INTRA.REPUL.0>
0

>  <SCORE.INTRA.SOLV>
2.00449

>  <SCORE.INTRA.SOLV.lig_0>
-53.6586

>  <SCORE.INTRA.VDW>
0.352313

>  <SCORE.INTRA.VDW.0>
-0.556525

>  <SCORE.INTRA.norm>
0.0701556

>  <SCORE.RESTR>
0

>  <SCORE.RESTR.CAVITY>
0

>  <SCORE.RESTR.norm>
0

>  <SCORE.SYSTEM>
0

>  <SCORE.SYSTEM.CONST>
0

>  <SCORE.SYSTEM.DIHEDRAL>
0

>  <SCORE.SYSTEM.SOLV>
0

>  <SCORE.SYSTEM.norm>
0

>  <SCORE.heavy>
11

>  <SCORE.norm>
-1.64403

>  <RMSD>
2.254

$$$$

 OpenBabel11021811383D
libRbt.so/2013.1/901 2013/11/27
 11 10  0  0  0  0  0  0  0  0999 V2000
   -1.6955   -0.6612    2.5244 N   0  3  0  0  0  0  0  0  0  0  0  0
   -1.3784   -1.7138    1.5129 C   0  0  2  0  0  0  0  0  0  0  0  0
    0.1164   -1.6563    1.1549 C   0  0  0  0  0  0  0  0  0  0  0  0
    0.8367   -0.8005    1.6334 O   0  0  0  0  0  0  0  0  0  0  0  0
   -2.2262   -1.4804    0.2553 C   0  0  0  0  0  0  0  0  0  0  0  0
   -2.0318   -2.6459   -0.7187 C   0  0  0  0  0  0  0  0  0  0  0  0
   -2.5906   -2.2654   -2.0881 C   0  0  0  0  0  0  0  0  0  0  0  0
   -4.0742   -2.3836   -2.0589 N   0  3  0  0  0  0  0  0  0  0  0  0
   -4.7090   -2.9153   -3.0674 C   0  0  0  0  0  0  0  0  0  0  0  0
   -5.3901   -4.0189   -2.8975 N   0  0  0  0  0  0  0  0  0  0  0  0
   -4.6684   -2.3404   -4.2415 N   0  0  0  0  0  0  0  0  0  0  0  0
  2  1  1  1  0  0  0
  2  3  1  0  0  0  0
  2  5  1  0  0  0  0
  3  4  2  0  0  0  0
  5  6  1  0  0  0  0
  6  7  1  0  0  0  0
  7  8  1  0  0  0  0
  8  9  2  0  0  0  0
  9 10  1  0  0  0  0
  9 11  1  0  0  0  0
M  CHG  2   1   1   8   1
M  END
>  <CHROM.1>
-61.88713156,-3.08799183,-173.30164297,-166.34210276,-77.81947299,-137.77459539
-2.54718440,-2.05744915,-0.70741152,0.87668184,0.22003026,1.38688369

>  <Name>


>  <RI>
0

>  <Rbt.Current_Directory>
/home/itssahil/PROJECTS/Mol_Feturizer/New_Systems/rnas/1aju

>  <Rbt.Executable>
rbdock ($Id: //depot/dev/client3/rdock/2013.1/src/exe/rbdock.cxx#4 $)

>  <Rbt.Library>
libRbt.so (2013.1, Build901 2013/11/27)

>  <Rbt.Parameter_File>
/export/apps/rDock/src/rDock_2013.1_src/data/scripts/dock_solv.prm

>  <Rbt.Receptor>
prm/pocket_docking_4.prm

>  <SCORE>
-12.9809

>  <SCORE.INTER>
-11.4379

>  <SCORE.INTER.CONST>
1

>  <SCORE.INTER.POLAR>
-1.25416

>  <SCORE.INTER.ROT>
5

>  <SCORE.INTER.SOLV>
12.3855

>  <SCORE.INTER.VDW>
-14.5066

>  <SCORE.INTER.norm>
-1.03981

>  <SCORE.INTRA>
-1.54297

>  <SCORE.INTRA.DIHEDRAL>
-4.94602

>  <SCORE.INTRA.DIHEDRAL.0>
9.90185

>  <SCORE.INTRA.POLAR>
0

>  <SCORE.INTRA.POLAR.0>
0

>  <SCORE.INTRA.REPUL>
0

>  <SCORE.INTRA.REPUL.0>
0

>  <SCORE.INTRA.SOLV>
1.2684

>  <SCORE.INTRA.SOLV.lig_0>
-53.6586

>  <SCORE.INTRA.VDW>
0.295841

>  <SCORE.INTRA.VDW.0>
-0.556525

>  <SCORE.INTRA.norm>
-0.14027

>  <SCORE.RESTR>
0

>  <SCORE.RESTR.CAVITY>
0

>  <SCORE.RESTR.norm>
0

>  <SCORE.SYSTEM>
0

>  <SCORE.SYSTEM.CONST>
0

>  <SCORE.SYSTEM.DIHEDRAL>
0

>  <SCORE.SYSTEM.SOLV>
0

>  <SCORE.SYSTEM.norm>
0

>  <SCORE.heavy>
11

>  <SCORE.norm>
-1.18008

>  <RMSD>
2.257

$$$$

 OpenBabel11021811383D
libRbt.so/2013.1/901 2013/11/27
 11 10  0  0  0  0  0  0  0  0999 V2000
   -0.7651   -1.8041    2.7614 N   0  3  0  0  0  0  0  0  0  0  0  0
   -0.6093   -1.8731    1.2773 C   0  0  2  0  0  0  0  0  0  0  0  0
    0.2968   -0.7270    0.7965 C   0  0  0  0  0  0  0  0  0  0  0  0
    1.3339   -0.9621    0.2053 O   0  0  0  0  0  0  0  0  0  0  0  0
   -1.9897   -1.7602    0.6167 C   0  0  0  0  0  0  0  0  0  0  0  0
   -1.8851   -2.1474   -0.8611 C   0  0  0  0  0  0  0  0  0  0  0  0
   -3.2788   -2.1595   -1.4855 C   0  0  0  0  0  0  0  0  0  0  0  0
   -3.1682   -2.5546   -2.9165 N   0  3  0  0  0  0  0  0  0  0  0  0
   -4.2353   -2.8927   -3.5871 C   0  0  0  0  0  0  0  0  0  0  0  0
   -4.6108   -2.1762   -4.6149 N   0  0  0  0  0  0  0  0  0  0  0  0
   -4.9209   -3.9493   -3.2348 N   0  0  0  0  0  0  0  0  0  0  0  0
  2  1  1  1  0  0  0
  2  3  1  0  0  0  0
  2  5  1  0  0  0  0
  3  4  2  0  0  0  0
  5  6  1  0  0  0  0
  6  7  1  0  0  0  0
  7  8  1  0  0  0  0
  8  9  2  0  0  0  0
  9 10  1  0  0  0  0
  9 11  1  0  0  0  0
M  CHG  2   1   1   8   1
M  END
>  <CHROM.1>
178.74607474,120.28523000,-167.11117915,174.81172546,-179.24797022,166.34468655
-2.16762967,-2.10043747,-0.99568913,0.77222078,0.47753582,1.71898567

>  <Name>


>  <RI>
224

>  <Rbt.Current_Directory>
/home/itssahil/PROJECTS/Mol_Feturizer/New_Systems/rnas/1aju

>  <Rbt.Executable>
rbdock ($Id: //depot/dev/client3/rdock/2013.1/src/exe/rbdock.cxx#4 $)

>  <Rbt.Library>
libRbt.so (2013.1, Build901 2013/11/27)

>  <Rbt.Parameter_File>
/export/apps/rDock/src/rDock_2013.1_src/data/scripts/dock_solv.prm

>  <Rbt.Receptor>
prm/pocket_docking_5.prm

>  <SCORE>
-19.2048

>  <SCORE.INTER>
-16.1536

>  <SCORE.INTER.CONST>
1

>  <SCORE.INTER.POLAR>
-2.48847

>  <SCORE.INTER.ROT>
5

>  <SCORE.INTER.SOLV>
14.5213

>  <SCORE.INTER.VDW>
-14.2479

>  <SCORE.INTER.norm>
-1.46851

>  <SCORE.INTRA>
-3.05124

>  <SCORE.INTRA.DIHEDRAL>
-6.23437

>  <SCORE.INTRA.DIHEDRAL.0>
9.90185

>  <SCORE.INTRA.POLAR>
0

>  <SCORE.INTRA.POLAR.0>
0

>  <SCORE.INTRA.REPUL>
0

>  <SCORE.INTRA.REPUL.0>
0

>  <SCORE.INTRA.SOLV>
-0.0729133

>  <SCORE.INTRA.SOLV.lig_0>
-53.6586

>  <SCORE.INTRA.VDW>
0.102403

>  <SCORE.INTRA.VDW.0>
-0.556525

>  <SCORE.INTRA.norm>
-0.277385

>  <SCORE.RESTR>
0

>  <SCORE.RESTR.CAVITY>
0

>  <SCORE.RESTR.norm>
0

>  <SCORE.SYSTEM>
0

>  <SCORE.SYSTEM.CONST>
0

>  <SCORE.SYSTEM.DIHEDRAL>
0

>  <SCORE.SYSTEM.SOLV>
0

>  <SCORE.SYSTEM.norm>
0

>  <SCORE.heavy>
11

>  <SCORE.norm>
-1.74589

>  <RMSD>
2.262

$$$$

 OpenBabel11021811383D
libRbt.so/2013.1/901 2013/11/27
 11 10  0  0  0  0  0  0  0  0999 V2000
   -1.6864   -1.8877    3.1045 N   0  3  0  0  0  0  0  0  0  0  0  0
   -1.3808   -2.0703    1.6537 C   0  0  2  0  0  0  0  0  0  0  0  0
   -0.4864   -0.9194    1.1625 C   0  0  0  0  0  0  0  0  0  0  0  0
    0.0129   -0.9513    0.0535 O   0  0  0  0  0  0  0  0  0  0  0  0
   -2.6925   -2.0890    0.8576 C   0  0  0  0  0  0  0  0  0  0  0  0
   -2.3984   -2.4157   -0.6093 C   0  0  0  0  0  0  0  0  0  0  0  0
   -3.6570   -2.1905   -1.4446 C   0  0  0  0  0  0  0  0  0  0  0  0
   -3.3660   -2.5282   -2.8649 N   0  3  0  0  0  0  0  0  0  0  0  0
   -4.3341   -2.8781   -3.6667 C   0  0  0  0  0  0  0  0  0  0  0  0
   -4.6156   -2.1375   -4.7074 N   0  0  0  0  0  0  0  0  0  0  0  0
   -5.0144   -3.9703   -3.4320 N   0  0  0  0  0  0  0  0  0  0  0  0
  2  1  1  1  0  0  0
  2  3  1  0  0  0  0
  2  5  1  0  0  0  0
  3  4  2  0  0  0  0
  5  6  1  0  0  0  0
  6  7  1  0  0  0  0
  7  8  1  0  0  0  0
  8  9  2  0  0  0  0
  9 10  1  0  0  0  0
  9 11  1  0  0  0  0
M  CHG  2   1   1   8   1
M  END
>  <CHROM.1>
60.66461477,171.25861525,-174.35934606,-169.95555757,-179.24415995,155.50760776
-2.69905209,-2.18881149,-0.89756610,0.91993193,0.57086449,1.72709806

>  <Name>


>  <RI>
0

>  <Rbt.Current_Directory>
/home/itssahil/PROJECTS/Mol_Feturizer/New_Systems/rnas/1aju

>  <Rbt.Executable>
rbdock ($Id: //depot/dev/client3/rdock/2013.1/src/exe/rbdock.cxx#4 $)

>  <Rbt.Library>
libRbt.so (2013.1, Build901 2013/11/27)

>  <Rbt.Parameter_File>
/export/apps/rDock/src/rDock_2013.1_src/data/scripts/dock_solv.prm

>  <Rbt.Receptor>
prm/pocket_docking_3.prm

>  <SCORE>
-19.8225

>  <SCORE.INTER>
-18.5587

>  <SCORE.INTER.CONST>
1

>  <SCORE.INTER.POLAR>
-3.60188

>  <SCORE.INTER.ROT>
5

>  <SCORE.INTER.SOLV>
14.4505

>  <SCORE.INTER.VDW>
-12.1164

>  <SCORE.INTER.norm>
-1.68716

>  <SCORE.INTRA>
-1.27422

>  <SCORE.INTRA.DIHEDRAL>
-3.77357

>  <SCORE.INTRA.DIHEDRAL.0>
9.90185

>  <SCORE.INTRA.POLAR>
0

>  <SCORE.INTRA.POLAR.0>
0

>  <SCORE.INTRA.REPUL>
0

>  <SCORE.INTRA.REPUL.0>
0

>  <SCORE.INTRA.SOLV>
-0.14143

>  <SCORE.INTRA.SOLV.lig_0>
-53.6586

>  <SCORE.INTRA.VDW>
0.683285

>  <SCORE.INTRA.VDW.0>
-0.556525

>  <SCORE.INTRA.norm>
-0.115838

>  <SCORE.RESTR>
0.0104944

>  <SCORE.RESTR.CAVITY>
0.0104944

>  <SCORE.RESTR.norm>
0.000954035

>  <SCORE.SYSTEM>
0

>  <SCORE.SYSTEM.CONST>
0

>  <SCORE.SYSTEM.DIHEDRAL>
0

>  <SCORE.SYSTEM.SOLV>
0

>  <SCORE.SYSTEM.norm>
0

>  <SCORE.heavy>
11

>  <SCORE.norm>
-1.80204

>  <RMSD>
2.264

$$$$

 OpenBabel11021811383D
libRbt.so/2013.1/901 2013/11/27
 11 10  0  0  0  0  0  0  0  0999 V2000
    0.2006   -2.8642    1.1860 N   0  3  0  0  0  0  0  0  0  0  0  0
   -0.7892   -1.7614    0.9968 C   0  0  2  0  0  0  0  0  0  0  0  0
   -1.3880   -1.3622    2.3562 C   0  0  0  0  0  0  0  0  0  0  0  0
   -1.0638   -1.9468    3.3728 O   0  0  0  0  0  0  0  0  0  0  0  0
   -1.9032   -2.2359    0.0542 C   0  0  0  0  0  0  0  0  0  0  0  0
   -1.4026   -2.1984   -1.3924 C   0  0  0  0  0  0  0  0  0  0  0  0
   -2.3056   -3.0651   -2.2677 C   0  0  0  0  0  0  0  0  0  0  0  0
   -3.6794   -2.4920   -2.2679 N   0  3  0  0  0  0  0  0  0  0  0  0
   -4.5385   -2.8500   -3.1826 C   0  0  0  0  0  0  0  0  0  0  0  0
   -5.6336   -3.4756   -2.8360 N   0  0  0  0  0  0  0  0  0  0  0  0
   -4.3059   -2.5765   -4.4402 N   0  0  0  0  0  0  0  0  0  0  0  0
  2  1  1  1  0  0  0
  2  3  1  0  0  0  0
  2  5  1  0  0  0  0
  3  4  2  0  0  0  0
  5  6  1  0  0  0  0
  6  7  1  0  0  0  0
  7  8  1  0  0  0  0
  8  9  2  0  0  0  0
  9 10  1  0  0  0  0
  9 11  1  0  0  0  0
M  CHG  2   1   1   8   1
M  END
>  <CHROM.1>
58.54445417,-1.83317115,-77.67896966,162.04092499,63.19987220,163.19630456
-2.43360169,-2.46410362,-0.75827678,-0.97236315,-0.03049186,-1.70924177

>  <Name>


>  <RI>
0

>  <Rbt.Current_Directory>
/home/itssahil/PROJECTS/Mol_Feturizer/New_Systems/rnas/1aju

>  <Rbt.Executable>
rbdock ($Id: //depot/dev/client3/rdock/2013.1/src/exe/rbdock.cxx#4 $)

>  <Rbt.Library>
libRbt.so (2013.1, Build901 2013/11/27)

>  <Rbt.Parameter_File>
/export/apps/rDock/src/rDock_2013.1_src/data/scripts/dock_solv.prm

>  <Rbt.Receptor>
prm/pocket_docking_3.prm

>  <SCORE>
-18.1436

>  <SCORE.INTER>
-17.2467

>  <SCORE.INTER.CONST>
1

>  <SCORE.INTER.POLAR>
-2.85207

>  <SCORE.INTER.ROT>
5

>  <SCORE.INTER.SOLV>
15.8936

>  <SCORE.INTER.VDW>
-14.2221

>  <SCORE.INTER.norm>
-1.56788

>  <SCORE.INTRA>
-0.896841

>  <SCORE.INTRA.DIHEDRAL>
-4.58843

>  <SCORE.INTRA.DIHEDRAL.0>
9.90185

>  <SCORE.INTRA.POLAR>
0

>  <SCORE.INTRA.POLAR.0>
0

>  <SCORE.INTRA.REPUL>
0

>  <SCORE.INTRA.REPUL.0>
0

>  <SCORE.INTRA.SOLV>
2.44183

>  <SCORE.INTRA.SOLV.lig_0>
-53.6586

>  <SCORE.INTRA.VDW>
0.176462

>  <SCORE.INTRA.VDW.0>
-0.556525

>  <SCORE.INTRA.norm>
-0.081531

>  <SCORE.RESTR>
0

>  <SCORE.RESTR.CAVITY>
0

>  <SCORE.RESTR.norm>
0

>  <SCORE.SYSTEM>
0

>  <SCORE.SYSTEM.CONST>
0

>  <SCORE.SYSTEM.DIHEDRAL>
0

>  <SCORE.SYSTEM.SOLV>
0

>  <SCORE.SYSTEM.norm>
0

>  <SCORE.heavy>
11

>  <SCORE.norm>
-1.64942

>  <RMSD>
2.267

$$$$

 OpenBabel11021811383D
libRbt.so/2013.1/901 2013/11/27
 11 10  0  0  0  0  0  0  0  0999 V2000
   -4.0989   -2.1269    2.8300 N   0  3  0  0  0  0  0  0  0  0  0  0
   -3.4052   -2.6439    1.6121 C   0  0  2  0  0  0  0  0  0  0  0  0
   -2.3079   -3.6403    2.0231 C   0  0  0  0  0  0  0  0  0  0  0  0
   -2.3053   -4.7757    1.5858 O   0  0  0  0  0  0  0  0  0  0  0  0
   -2.7836   -1.4690    0.8454 C   0  0  0  0  0  0  0  0  0  0  0  0
   -2.4532   -1.9062   -0.5845 C   0  0  0  0  0  0  0  0  0  0  0  0
   -3.7475   -2.1967   -1.3414 C   0  0  0  0  0  0  0  0  0  0  0  0
   -3.4223   -2.5134   -2.7591 N   0  3  0  0  0  0  0  0  0  0  0  0
   -4.3626   -2.9031   -3.5756 C   0  0  0  0  0  0  0  0  0  0  0  0
   -4.6638   -2.1708   -4.6166 N   0  0  0  0  0  0  0  0  0  0  0  0
   -4.9951   -4.0265   -3.3551 N   0  0  0  0  0  0  0  0  0  0  0  0
  2  1  1  1  0  0  0
  2  3  1  0  0  0  0
  2  5  1  0  0  0  0
  3  4  2  0  0  0  0
  5  6  1  0  0  0  0
  6  7  1  0  0  0  0
  7  8  1  0  0  0  0
  8  9  2  0  0  0  0
  9 10  1  0  0  0  0
  9 11  1  0  0  0  0
M  CHG  2   1   1   8   1
M  END
>  <CHROM.1>
68.99171435,123.32366559,-162.80372497,66.54152165,175.45821852,174.38087734
-3.53205382,-2.77337912,-0.66452517,0.28542991,-1.31725693,0.32346579

>  <Name>


>  <RI>
0

>  <Rbt.Current_Directory>
/home/itssahil/PROJECTS/Mol_Feturizer/New_Systems/rnas/1aju

>  <Rbt.Executable>
rbdock ($Id: //depot/dev/client3/rdock/2013.1/src/exe/rbdock.cxx#4 $)

>  <Rbt.Library>
libRbt.so (2013.1, Build901 2013/11/27)

>  <Rbt.Parameter_File>
/export/apps/rDock/src/rDock_2013.1_src/data/scripts/dock_solv.prm

>  <Rbt.Receptor>
prm/pocket_docking_6.prm

>  <SCORE>
-19.2333

>  <SCORE.INTER>
-17.1252

>  <SCORE.INTER.CONST>
1

>  <SCORE.INTER.POLAR>
-3.35131

>  <SCORE.INTER.ROT>
5

>  <SCORE.INTER.SOLV>
14.1816

>  <SCORE.INTER.VDW>
-11.9063

>  <SCORE.INTER.norm>
-1.55683

>  <SCORE.INTRA>
-2.12477

>  <SCORE.INTRA.DIHEDRAL>
-5.48565

>  <SCORE.INTRA.DIHEDRAL.0>
9.90185

>  <SCORE.INTRA.POLAR>
0

>  <SCORE.INTRA.POLAR.0>
0

>  <SCORE.INTRA.REPUL>
0

>  <SCORE.INTRA.REPUL.0>
0

>  <SCORE.INTRA.SOLV>
0.0967134

>  <SCORE.INTRA.SOLV.lig_0>
-53.6586

>  <SCORE.INTRA.VDW>
0.569694

>  <SCORE.INTRA.VDW.0>
-0.556525

>  <SCORE.INTRA.norm>
-0.193161

>  <SCORE.RESTR>
0.0166062

>  <SCORE.RESTR.CAVITY>
0.0166062

>  <SCORE.RESTR.norm>
0.00150966

>  <SCORE.SYSTEM>
0

>  <SCORE.SYSTEM.CONST>
0

>  <SCORE.SYSTEM.DIHEDRAL>
0

>  <SCORE.SYSTEM.SOLV>
0

>  <SCORE.SYSTEM.norm>
0

>  <SCORE.heavy>
11

>  <SCORE.norm>
-1.74849

>  <RMSD>
2.267

$$$$

 OpenBabel11021811383D
libRbt.so/2013.1/901 2013/11/27
 11 10  0  0  0  0  0  0  0  0999 V2000
   -0.1231   -3.7753    1.1462 N   0  3  0  0  0  0  0  0  0  0  0  0
   -0.5010   -2.3333    1.2434 C   0  0  2  0  0  0  0  0  0  0  0  0
   -0.5111   -1.8974    2.7184 C   0  0  0  0  0  0  0  0  0  0  0  0
   -1.0872   -0.8822    3.0615 O   0  0  0  0  0  0  0  0  0  0  0  0
   -1.8926   -2.1312    0.6292 C   0  0  0  0  0  0  0  0  0  0  0  0
   -1.8075   -2.2720   -0.8932 C   0  0  0  0  0  0  0  0  0  0  0  0
   -3.2120   -2.2156   -1.4904 C   0  0  0  0  0  0  0  0  0  0  0  0
   -3.1506   -2.6269   -2.9197 N   0  3  0  0  0  0  0  0  0  0  0  0
   -4.2434   -2.9466   -3.5570 C   0  0  0  0  0  0  0  0  0  0  0  0
   -4.6311   -2.2315   -4.5812 N   0  0  0  0  0  0  0  0  0  0  0  0
   -4.9430   -3.9836   -3.1750 N   0  0  0  0  0  0  0  0  0  0  0  0
  2  1  1  1  0  0  0
  2  3  1  0  0  0  0
  2  5  1  0  0  0  0
  3  4  2  0  0  0  0
  5  6  1  0  0  0  0
  6  7  1  0  0  0  0
  7  8  1  0  0  0  0
  8  9  2  0  0  0  0
  9 10  1  0  0  0  0
  9 11  1  0  0  0  0
M  CHG  2   1   1   8   1
M  END
>  <CHROM.1>
-153.02016339,-162.31985634,-71.76135689,174.15721132,-168.57257874,164.59281532
-2.37792927,-2.50925392,-0.72652304,-0.65411029,0.82993579,-2.47976764

>  <Name>


>  <RI>
0

>  <Rbt.Current_Directory>
/home/itssahil/PROJECTS/Mol_Feturizer/New_Systems/rnas/1aju

>  <Rbt.Executable>
rbdock ($Id: //depot/dev/client3/rdock/2013.1/src/exe/rbdock.cxx#4 $)

>  <Rbt.Library>
libRbt.so (2013.1, Build901 2013/11/27)

>  <Rbt.Parameter_File>
/export/apps/rDock/src/rDock_2013.1_src/data/scripts/dock_solv.prm

>  <Rbt.Receptor>
prm/pocket_docking_4.prm

>  <SCORE>
-18.8981

>  <SCORE.INTER>
-18.952

>  <SCORE.INTER.CONST>
1

>  <SCORE.INTER.POLAR>
-3.45767

>  <SCORE.INTER.ROT>
5

>  <SCORE.INTER.SOLV>
15.048

>  <SCORE.INTER.VDW>
-13.0584

>  <SCORE.INTER.norm>
-1.7229

>  <SCORE.INTRA>
-0.0828996

>  <SCORE.INTRA.DIHEDRAL>
-2.1229

>  <SCORE.INTRA.DIHEDRAL.0>
9.90185

>  <SCORE.INTRA.POLAR>
0

>  <SCORE.INTRA.POLAR.0>
0

>  <SCORE.INTRA.REPUL>
0

>  <SCORE.INTRA.REPUL.0>
0

>  <SCORE.INTRA.SOLV>
0.788884

>  <SCORE.INTRA.SOLV.lig_0>
-53.6586

>  <SCORE.INTRA.VDW>
0.584108

>  <SCORE.INTRA.VDW.0>
-0.556525

>  <SCORE.INTRA.norm>
-0.00753632

>  <SCORE.RESTR>
0.136737

>  <SCORE.RESTR.CAVITY>
0.136737

>  <SCORE.RESTR.norm>
0.0124307

>  <SCORE.SYSTEM>
0

>  <SCORE.SYSTEM.CONST>
0

>  <SCORE.SYSTEM.DIHEDRAL>
0

>  <SCORE.SYSTEM.SOLV>
0

>  <SCORE.SYSTEM.norm>
0

>  <SCORE.heavy>
11

>  <SCORE.norm>
-1.71801

>  <RMSD>
2.289

$$$$

 OpenBabel11021811383D
libRbt.so/2013.1/901 2013/11/27
 11 10  0  0  0  0  0  0  0  0999 V2000
   -2.1063   -4.3419    1.7948 N   0  3  0  0  0  0  0  0  0  0  0  0
   -2.4356   -5.6940    1.2518 C   0  0  2  0  0  0  0  0  0  0  0  0
   -1.2467   -6.2296    0.4360 C   0  0  0  0  0  0  0  0  0  0  0  0
   -0.7410   -7.3024    0.7073 O   0  0  0  0  0  0  0  0  0  0  0  0
   -3.6791   -5.5926    0.3583 C   0  0  0  0  0  0  0  0  0  0  0  0
   -3.4701   -4.4963   -0.6901 C   0  0  0  0  0  0  0  0  0  0  0  0
   -4.2891   -4.8205   -1.9378 C   0  0  0  0  0  0  0  0  0  0  0  0
   -4.7934   -3.5525   -2.5325 N   0  3  0  0  0  0  0  0  0  0  0  0
   -3.9962   -2.7966   -3.2368 C   0  0  0  0  0  0  0  0  0  0  0  0
   -4.2496   -2.5874   -4.5028 N   0  0  0  0  0  0  0  0  0  0  0  0
   -2.9520   -2.2456   -2.6740 N   0  0  0  0  0  0  0  0  0  0  0  0
  2  1  1  6  0  0  0
  2  3  1  0  0  0  0
  2  5  1  0  0  0  0
  3  4  2  0  0  0  0
  5  6  1  0  0  0  0
  6  7  1  0  0  0  0
  7  8  1  0  0  0  0
  8  9  2  0  0  0  0
  9 10  1  0  0  0  0
  9 11  1  0  0  0  0
M  CHG  2   1   1   8   1
M  END
>  <CHROM.1>
173.95996939,124.04035736,52.59959652,152.01572260,144.80663062,77.70971125
-3.06817678,-4.47950842,-0.99799372,0.09515313,-1.15706398,0.72581398

>  <Name>


>  <RI>
0

>  <Rbt.Current_Directory>
/home/itssahil/PROJECTS/Mol_Feturizer/New_Systems/rnas/1aju

>  <Rbt.Executable>
rbdock ($Id: //depot/dev/client3/rdock/2013.1/src/exe/rbdock.cxx#4 $)

>  <Rbt.Library>
libRbt.so (2013.1, Build901 2013/11/27)

>  <Rbt.Parameter_File>
/export/apps/rDock/src/rDock_2013.1_src/data/scripts/dock_solv.prm

>  <Rbt.Receptor>
prm/pocket_docking_3.prm

>  <SCORE>
-13.298

>  <SCORE.INTER>
-15.729

>  <SCORE.INTER.CONST>
1

>  <SCORE.INTER.POLAR>
-3.44478

>  <SCORE.INTER.ROT>
5

>  <SCORE.INTER.SOLV>
12.7889

>  <SCORE.INTER.VDW>
-10.1997

>  <SCORE.INTER.norm>
-1.42991

>  <SCORE.INTRA>
2.43102

>  <SCORE.INTRA.DIHEDRAL>
-0.445175

>  <SCORE.INTRA.DIHEDRAL.0>
9.90185

>  <SCORE.INTRA.POLAR>
0

>  <SCORE.INTRA.POLAR.0>
0

>  <SCORE.INTRA.REPUL>
0

>  <SCORE.INTRA.REPUL.0>
0

>  <SCORE.INTRA.SOLV>
2.1568

>  <SCORE.INTRA.SOLV.lig_0>
-53.6586

>  <SCORE.INTRA.VDW>
1.57521

>  <SCORE.INTRA.VDW.0>
-0.556525

>  <SCORE.INTRA.norm>
0.221002

>  <SCORE.RESTR>
0

>  <SCORE.RESTR.CAVITY>
0

>  <SCORE.RESTR.norm>
0

>  <SCORE.SYSTEM>
0

>  <SCORE.SYSTEM.CONST>
0

>  <SCORE.SYSTEM.DIHEDRAL>
0

>  <SCORE.SYSTEM.SOLV>
0

>  <SCORE.SYSTEM.norm>
0

>  <SCORE.heavy>
11

>  <SCORE.norm>
-1.20891

>  <RMSD>
2.353

$$$$

 OpenBabel11021811383D
libRbt.so/2013.1/901 2013/11/27
 11 10  0  0  0  0  0  0  0  0999 V2000
   -0.5479   -3.4400    0.8766 N   0  3  0  0  0  0  0  0  0  0  0  0
   -1.6947   -3.0828   -0.0115 C   0  0  2  0  0  0  0  0  0  0  0  0
   -1.4035   -1.7521   -0.7258 C   0  0  0  0  0  0  0  0  0  0  0  0
   -1.6043   -1.6318   -1.9198 O   0  0  0  0  0  0  0  0  0  0  0  0
   -2.9694   -2.9544    0.8332 C   0  0  0  0  0  0  0  0  0  0  0  0
   -4.1187   -3.6958    0.1445 C   0  0  0  0  0  0  0  0  0  0  0  0
   -4.6107   -2.8791   -1.0486 C   0  0  0  0  0  0  0  0  0  0  0  0
   -3.7130   -3.1245   -2.2104 N   0  3  0  0  0  0  0  0  0  0  0  0
   -4.0971   -2.8015   -3.4149 C   0  0  0  0  0  0  0  0  0  0  0  0
   -3.4386   -1.8913   -4.0847 N   0  0  0  0  0  0  0  0  0  0  0  0
   -5.1334   -3.3929   -3.9508 N   0  0  0  0  0  0  0  0  0  0  0  0
  2  1  1  1  0  0  0
  2  3  1  0  0  0  0
  2  5  1  0  0  0  0
  3  4  2  0  0  0  0
  5  6  1  0  0  0  0
  6  7  1  0  0  0  0
  7  8  1  0  0  0  0
  8  9  2  0  0  0  0
  9 10  1  0  0  0  0
  9 11  1  0  0  0  0
M  CHG  2   1   1   8   1
M  END
>  <CHROM.1>
63.38938879,133.91283394,-133.93962477,-75.00115542,81.52614801,163.61260634
-2.99788514,-2.78957156,-1.43240147,-0.91065414,-0.37988887,-1.23577091

>  <Name>


>  <RI>
0

>  <Rbt.Current_Directory>
/home/itssahil/PROJECTS/Mol_Feturizer/New_Systems/rnas/1aju

>  <Rbt.Executable>
rbdock ($Id: //depot/dev/client3/rdock/2013.1/src/exe/rbdock.cxx#4 $)

>  <Rbt.Library>
libRbt.so (2013.1, Build901 2013/11/27)

>  <Rbt.Parameter_File>
/export/apps/rDock/src/rDock_2013.1_src/data/scripts/dock_solv.prm

>  <Rbt.Receptor>
prm/pocket_docking_7.prm

>  <SCORE>
-17.0166

>  <SCORE.INTER>
-16.3963

>  <SCORE.INTER.CONST>
1

>  <SCORE.INTER.POLAR>
-3.83553

>  <SCORE.INTER.ROT>
5

>  <SCORE.INTER.SOLV>
15.965

>  <SCORE.INTER.VDW>
-10.4008

>  <SCORE.INTER.norm>
-1.49058

>  <SCORE.INTRA>
-0.620261

>  <SCORE.INTRA.DIHEDRAL>
0.4228

>  <SCORE.INTRA.DIHEDRAL.0>
9.90185

>  <SCORE.INTRA.POLAR>
-0.774917

>  <SCORE.INTRA.POLAR.0>
0

>  <SCORE.INTRA.REPUL>
0

>  <SCORE.INTRA.REPUL.0>
0

>  <SCORE.INTRA.SOLV>
3.43319

>  <SCORE.INTRA.SOLV.lig_0>
-53.6586

>  <SCORE.INTRA.VDW>
0.0864619

>  <SCORE.INTRA.VDW.0>
-0.556525

>  <SCORE.INTRA.norm>
-0.0563873

>  <SCORE.RESTR>
0

>  <SCORE.RESTR.CAVITY>
0

>  <SCORE.RESTR.norm>
0

>  <SCORE.SYSTEM>
0

>  <SCORE.SYSTEM.CONST>
0

>  <SCORE.SYSTEM.DIHEDRAL>
0

>  <SCORE.SYSTEM.SOLV>
0

>  <SCORE.SYSTEM.norm>
0

>  <SCORE.heavy>
11

>  <SCORE.norm>
-1.54696

>  <RMSD>
2.380

$$$$

 OpenBabel11021811383D
libRbt.so/2013.1/901 2013/11/27
 11 10  0  0  0  0  0  0  0  0999 V2000
   -4.6710   -3.3521    2.2932 N   0  3  0  0  0  0  0  0  0  0  0  0
   -3.8130   -3.7702    1.1440 C   0  0  2  0  0  0  0  0  0  0  0  0
   -2.7052   -4.7151    1.6398 C   0  0  0  0  0  0  0  0  0  0  0  0
   -2.6892   -5.1011    2.7935 O   0  0  0  0  0  0  0  0  0  0  0  0
   -3.1883   -2.5260    0.4986 C   0  0  0  0  0  0  0  0  0  0  0  0
   -2.4277   -2.9311   -0.7672 C   0  0  0  0  0  0  0  0  0  0  0  0
   -2.9293   -2.1057   -1.9503 C   0  0  0  0  0  0  0  0  0  0  0  0
   -4.3861   -2.3514   -2.1329 N   0  3  0  0  0  0  0  0  0  0  0  0
   -4.8228   -2.9211   -3.2226 C   0  0  0  0  0  0  0  0  0  0  0  0
   -5.4224   -4.0815   -3.1536 N   0  0  0  0  0  0  0  0  0  0  0  0
   -4.6665   -2.3280   -4.3778 N   0  0  0  0  0  0  0  0  0  0  0  0
  2  1  1  1  0  0  0
  2  3  1  0  0  0  0
  2  5  1  0  0  0  0
  3  4  2  0  0  0  0
  5  6  1  0  0  0  0
  6  7  1  0  0  0  0
  7  8  1  0  0  0  0
  8  9  2  0  0  0  0
  9 10  1  0  0  0  0
  9 11  1  0  0  0  0
M  CHG  2   1   1   8   1
M  END
>  <CHROM.1>
61.04385548,5.92926817,-174.06453222,125.70402606,-59.61973709,-115.86716354
-3.83427342,-3.29687212,-0.63567339,1.30168668,0.55416622,1.96868254

>  <Name>


>  <RI>
0

>  <Rbt.Current_Directory>
/home/itssahil/PROJECTS/Mol_Feturizer/New_Systems/rnas/1aju

>  <Rbt.Executable>
rbdock ($Id: //depot/dev/client3/rdock/2013.1/src/exe/rbdock.cxx#4 $)

>  <Rbt.Library>
libRbt.so (2013.1, Build901 2013/11/27)

>  <Rbt.Parameter_File>
/export/apps/rDock/src/rDock_2013.1_src/data/scripts/dock_solv.prm

>  <Rbt.Receptor>
prm/pocket_docking_4.prm

>  <SCORE>
-13.0989

>  <SCORE.INTER>
-13.9322

>  <SCORE.INTER.CONST>
1

>  <SCORE.INTER.POLAR>
-2.24426

>  <SCORE.INTER.ROT>
5

>  <SCORE.INTER.SOLV>
14.035

>  <SCORE.INTER.VDW>
-13.4189

>  <SCORE.INTER.norm>
-1.26656

>  <SCORE.INTRA>
0.775991

>  <SCORE.INTRA.DIHEDRAL>
-0.761526

>  <SCORE.INTRA.DIHEDRAL.0>
9.90185

>  <SCORE.INTRA.POLAR>
0

>  <SCORE.INTRA.POLAR.0>
0

>  <SCORE.INTRA.REPUL>
0

>  <SCORE.INTRA.REPUL.0>
0

>  <SCORE.INTRA.SOLV>
1.8411

>  <SCORE.INTRA.SOLV.lig_0>
-53.6586

>  <SCORE.INTRA.VDW>
0.236204

>  <SCORE.INTRA.VDW.0>
-0.556525

>  <SCORE.INTRA.norm>
0.0705446

>  <SCORE.RESTR>
0.0573239

>  <SCORE.RESTR.CAVITY>
0.0573239

>  <SCORE.RESTR.norm>
0.00521126

>  <SCORE.SYSTEM>
0

>  <SCORE.SYSTEM.CONST>
0

>  <SCORE.SYSTEM.DIHEDRAL>
0

>  <SCORE.SYSTEM.SOLV>
0

>  <SCORE.SYSTEM.norm>
0

>  <SCORE.heavy>
11

>  <SCORE.norm>
-1.1908

>  <RMSD>
2.402

$$$$

 OpenBabel11021811383D
libRbt.so/2013.1/901 2013/11/27
 11 10  0  0  0  0  0  0  0  0999 V2000
   -1.6854   -4.3925    1.5175 N   0  3  0  0  0  0  0  0  0  0  0  0
   -2.5344   -4.9060    0.4008 C   0  0  2  0  0  0  0  0  0  0  0  0
   -1.7184   -4.9307   -0.9028 C   0  0  0  0  0  0  0  0  0  0  0  0
   -1.4104   -5.9869   -1.4222 O   0  0  0  0  0  0  0  0  0  0  0  0
   -3.7582   -3.9954    0.2340 C   0  0  0  0  0  0  0  0  0  0  0  0
   -4.8797   -4.7658   -0.4685 C   0  0  0  0  0  0  0  0  0  0  0  0
   -4.6202   -4.7859   -1.9734 C   0  0  0  0  0  0  0  0  0  0  0  0
   -4.9911   -3.4643   -2.5495 N   0  3  0  0  0  0  0  0  0  0  0  0
   -4.1275   -2.7950   -3.2628 C   0  0  0  0  0  0  0  0  0  0  0  0
   -4.3783   -2.5472   -4.5224 N   0  0  0  0  0  0  0  0  0  0  0  0
   -3.0189   -2.3682   -2.7155 N   0  0  0  0  0  0  0  0  0  0  0  0
  2  1  1  1  0  0  0
  2  3  1  0  0  0  0
  2  5  1  0  0  0  0
  3  4  2  0  0  0  0
  5  6  1  0  0  0  0
  6  7  1  0  0  0  0
  7  8  1  0  0  0  0
  8  9  2  0  0  0  0
  9 10  1  0  0  0  0
  9 11  1  0  0  0  0
M  CHG  2   1   1   8   1
M  END
>  <CHROM.1>
60.86961108,111.86361748,-157.47480436,-80.38120498,-77.28649171,125.98061754
-3.34105404,-4.06798454,-1.41973355,1.09015114,-0.18962851,1.94789843

>  <Name>


>  <RI>
0

>  <Rbt.Current_Directory>
/home/itssahil/PROJECTS/Mol_Feturizer/New_Systems/rnas/1aju

>  <Rbt.Executable>
rbdock ($Id: //depot/dev/client3/rdock/2013.1/src/exe/rbdock.cxx#4 $)

>  <Rbt.Library>
libRbt.so (2013.1, Build901 2013/11/27)

>  <Rbt.Parameter_File>
/export/apps/rDock/src/rDock_2013.1_src/data/scripts/dock_solv.prm

>  <Rbt.Receptor>
prm/pocket_docking_3.prm

>  <SCORE>
-14.9084

>  <SCORE.INTER>
-14.185

>  <SCORE.INTER.CONST>
1

>  <SCORE.INTER.POLAR>
-2.96583

>  <SCORE.INTER.ROT>
5

>  <SCORE.INTER.SOLV>
12.4674

>  <SCORE.INTER.VDW>
-10.6597

>  <SCORE.INTER.norm>
-1.28955

>  <SCORE.INTRA>
-0.723397

>  <SCORE.INTRA.DIHEDRAL>
-2.58811

>  <SCORE.INTRA.DIHEDRAL.0>
9.90185

>  <SCORE.INTRA.POLAR>
0

>  <SCORE.INTRA.POLAR.0>
0

>  <SCORE.INTRA.REPUL>
0

>  <SCORE.INTRA.REPUL.0>
0

>  <SCORE.INTRA.SOLV>
2.12895

>  <SCORE.INTRA.SOLV.lig_0>
-53.6586

>  <SCORE.INTRA.VDW>
-0.493819

>  <SCORE.INTRA.VDW.0>
-0.556525

>  <SCORE.INTRA.norm>
-0.0657634

>  <SCORE.RESTR>
0

>  <SCORE.RESTR.CAVITY>
0

>  <SCORE.RESTR.norm>
0

>  <SCORE.SYSTEM>
0

>  <SCORE.SYSTEM.CONST>
0

>  <SCORE.SYSTEM.DIHEDRAL>
0

>  <SCORE.SYSTEM.SOLV>
0

>  <SCORE.SYSTEM.norm>
0

>  <SCORE.heavy>
11

>  <SCORE.norm>
-1.35531

>  <RMSD>
2.408

$$$$

 OpenBabel11021811383D
libRbt.so/2013.1/901 2013/11/27
 11 10  0  0  0  0  0  0  0  0999 V2000
   -1.1964    0.0476    2.2015 N   0  3  0  0  0  0  0  0  0  0  0  0
   -1.3767   -1.2781    1.5369 C   0  0  2  0  0  0  0  0  0  0  0  0
   -0.1331   -1.6104    0.6951 C   0  0  0  0  0  0  0  0  0  0  0  0
    0.2652   -0.8370   -0.1556 O   0  0  0  0  0  0  0  0  0  0  0  0
   -2.6189   -1.2296    0.6373 C   0  0  0  0  0  0  0  0  0  0  0  0
   -3.1721   -2.6450    0.4487 C   0  0  0  0  0  0  0  0  0  0  0  0
   -4.2131   -2.6415   -0.6687 C   0  0  0  0  0  0  0  0  0  0  0  0
   -3.5635   -3.0595   -1.9412 N   0  3  0  0  0  0  0  0  0  0  0  0
   -4.1242   -2.7798   -3.0858 C   0  0  0  0  0  0  0  0  0  0  0  0
   -3.5136   -1.9926   -3.9332 N   0  0  0  0  0  0  0  0  0  0  0  0
   -5.2899   -3.2921   -3.3848 N   0  0  0  0  0  0  0  0  0  0  0  0
  2  1  1  6  0  0  0
  2  3  1  0  0  0  0
  2  5  1  0  0  0  0
  3  4  2  0  0  0  0
  5  6  1  0  0  0  0
  6  7  1  0  0  0  0
  7  8  1  0  0  0  0
  8  9  2  0  0  0  0
  9 10  1  0  0  0  0
  9 11  1  0  0  0  0
M  CHG  2   1   1   8   1
M  END
>  <CHROM.1>
-63.17070349,-54.97600559,-155.29993054,-168.07349866,96.30530852,-160.61390449
-2.61914863,-1.90319866,-0.71117471,0.87110589,0.40476476,1.45168780

>  <Name>


>  <RI>
0

>  <Rbt.Current_Directory>
/home/itssahil/PROJECTS/Mol_Feturizer/New_Systems/rnas/1aju

>  <Rbt.Executable>
rbdock ($Id: //depot/dev/client3/rdock/2013.1/src/exe/rbdock.cxx#4 $)

>  <Rbt.Library>
libRbt.so (2013.1, Build901 2013/11/27)

>  <Rbt.Parameter_File>
/export/apps/rDock/src/rDock_2013.1_src/data/scripts/dock_solv.prm

>  <Rbt.Receptor>
prm/pocket_docking_7.prm

>  <SCORE>
-12.9265

>  <SCORE.INTER>
-14.0536

>  <SCORE.INTER.CONST>
1

>  <SCORE.INTER.POLAR>
-2.60087

>  <SCORE.INTER.ROT>
5

>  <SCORE.INTER.SOLV>
14.3515

>  <SCORE.INTER.VDW>
-12.4166

>  <SCORE.INTER.norm>
-1.2776

>  <SCORE.INTRA>
1.12708

>  <SCORE.INTRA.DIHEDRAL>
1.81371

>  <SCORE.INTRA.DIHEDRAL.0>
9.90185

>  <SCORE.INTRA.POLAR>
0

>  <SCORE.INTRA.POLAR.0>
0

>  <SCORE.INTRA.REPUL>
0

>  <SCORE.INTRA.REPUL.0>
0

>  <SCORE.INTRA.SOLV>
0.806271

>  <SCORE.INTRA.SOLV.lig_0>
-53.6586

>  <SCORE.INTRA.VDW>
-0.182907

>  <SCORE.INTRA.VDW.0>
-0.556525

>  <SCORE.INTRA.norm>
0.102462

>  <SCORE.RESTR>
0

>  <SCORE.RESTR.CAVITY>
0

>  <SCORE.RESTR.norm>
0

>  <SCORE.SYSTEM>
0

>  <SCORE.SYSTEM.CONST>
0

>  <SCORE.SYSTEM.DIHEDRAL>
0

>  <SCORE.SYSTEM.SOLV>
0

>  <SCORE.SYSTEM.norm>
0

>  <SCORE.heavy>
11

>  <SCORE.norm>
-1.17514

>  <RMSD>
2.433

$$$$

 OpenBabel11021811383D
libRbt.so/2013.1/901 2013/11/27
 11 10  0  0  0  0  0  0  0  0999 V2000
   -2.5623   -0.8970    1.2527 N   0  3  0  0  0  0  0  0  0  0  0  0
   -1.7408   -1.8914    0.4989 C   0  0  2  0  0  0  0  0  0  0  0  0
   -0.2501   -1.6765    0.8109 C   0  0  0  0  0  0  0  0  0  0  0  0
    0.4441   -0.9925    0.0826 O   0  0  0  0  0  0  0  0  0  0  0  0
   -1.9899   -1.7188   -1.0054 C   0  0  0  0  0  0  0  0  0  0  0  0
   -1.5246   -2.9732   -1.7503 C   0  0  0  0  0  0  0  0  0  0  0  0
   -2.6542   -4.0008   -1.7747 C   0  0  0  0  0  0  0  0  0  0  0  0
   -3.9355   -3.3090   -2.0839 N   0  3  0  0  0  0  0  0  0  0  0  0
   -4.1923   -2.9195   -3.3025 C   0  0  0  0  0  0  0  0  0  0  0  0
   -5.2077   -3.4323   -3.9481 N   0  0  0  0  0  0  0  0  0  0  0  0
   -3.4393   -2.0140   -3.8713 N   0  0  0  0  0  0  0  0  0  0  0  0
  2  1  1  1  0  0  0
  2  3  1  0  0  0  0
  2  5  1  0  0  0  0
  3  4  2  0  0  0  0
  5  6  1  0  0  0  0
  6  7  1  0  0  0  0
  7  8  1  0  0  0  0
  8  9  2  0  0  0  0
  9 10  1  0  0  0  0
  9 11  1  0  0  0  0
M  CHG  2   1   1   8   1
M  END
>  <CHROM.1>
143.15320820,-94.91423686,-162.27473455,86.64078874,43.07198323,75.49637599
-2.48673438,-2.31174237,-1.37163415,0.89912364,0.10566273,1.23557714

>  <Name>


>  <RI>
0

>  <Rbt.Current_Directory>
/home/itssahil/PROJECTS/Mol_Feturizer/New_Systems/rnas/1aju

>  <Rbt.Executable>
rbdock ($Id: //depot/dev/client3/rdock/2013.1/src/exe/rbdock.cxx#4 $)

>  <Rbt.Library>
libRbt.so (2013.1, Build901 2013/11/27)

>  <Rbt.Parameter_File>
/export/apps/rDock/src/rDock_2013.1_src/data/scripts/dock_solv.prm

>  <Rbt.Receptor>
prm/pocket_docking_3.prm

>  <SCORE>
-19.4785

>  <SCORE.INTER>
-24.7724

>  <SCORE.INTER.CONST>
1

>  <SCORE.INTER.POLAR>
-4.84277

>  <SCORE.INTER.ROT>
5

>  <SCORE.INTER.SOLV>
16.8832

>  <SCORE.INTER.VDW>
-12.9334

>  <SCORE.INTER.norm>
-2.25204

>  <SCORE.INTRA>
4.84856

>  <SCORE.INTRA.DIHEDRAL>
1.03939

>  <SCORE.INTRA.DIHEDRAL.0>
9.90185

>  <SCORE.INTRA.POLAR>
0

>  <SCORE.INTRA.POLAR.0>
0

>  <SCORE.INTRA.REPUL>
0

>  <SCORE.INTRA.REPUL.0>
0

>  <SCORE.INTRA.SOLV>
2.088

>  <SCORE.INTRA.SOLV.lig_0>
-53.6586

>  <SCORE.INTRA.VDW>
3.28486

>  <SCORE.INTRA.VDW.0>
-0.556525

>  <SCORE.INTRA.norm>
0.440778

>  <SCORE.RESTR>
0.445395

>  <SCORE.RESTR.CAVITY>
0.445395

>  <SCORE.RESTR.norm>
0.0404905

>  <SCORE.SYSTEM>
0

>  <SCORE.SYSTEM.CONST>
0

>  <SCORE.SYSTEM.DIHEDRAL>
0

>  <SCORE.SYSTEM.SOLV>
0

>  <SCORE.SYSTEM.norm>
0

>  <SCORE.heavy>
11

>  <SCORE.norm>
-1.77077

>  <RMSD>
2.450

$$$$

 OpenBabel11021811383D
libRbt.so/2013.1/901 2013/11/27
 11 10  0  0  0  0  0  0  0  0999 V2000
   -4.0750   -0.9223    1.8211 N   0  3  0  0  0  0  0  0  0  0  0  0
   -3.4676   -2.1078    1.1449 C   0  0  2  0  0  0  0  0  0  0  0  0
   -2.5617   -2.8618    2.1331 C   0  0  0  0  0  0  0  0  0  0  0  0
   -1.8184   -3.7433    1.7450 O   0  0  0  0  0  0  0  0  0  0  0  0
   -2.6458   -1.6370   -0.0625 C   0  0  0  0  0  0  0  0  0  0  0  0
   -2.2410   -2.8457   -0.9111 C   0  0  0  0  0  0  0  0  0  0  0  0
   -3.4740   -3.6963   -1.2087 C   0  0  0  0  0  0  0  0  0  0  0  0
   -4.4972   -2.8517   -1.8837 N   0  3  0  0  0  0  0  0  0  0  0  0
   -4.4319   -2.6465   -3.1707 C   0  0  0  0  0  0  0  0  0  0  0  0
   -5.3938   -3.0750   -3.9465 N   0  0  0  0  0  0  0  0  0  0  0  0
   -3.4102   -2.0078   -3.6795 N   0  0  0  0  0  0  0  0  0  0  0  0
  2  1  1  1  0  0  0
  2  3  1  0  0  0  0
  2  5  1  0  0  0  0
  3  4  2  0  0  0  0
  5  6  1  0  0  0  0
  6  7  1  0  0  0  0
  7  8  1  0  0  0  0
  8  9  2  0  0  0  0
  9 10  1  0  0  0  0
  9 11  1  0  0  0  0
M  CHG  2   1   1   8   1
M  END
>  <CHROM.1>
153.36655377,-169.31191916,-169.36956768,50.73089409,56.79776934,82.96637257
-3.47778199,-2.55690976,-0.73361524,1.13743885,-0.73923402,1.21023515

>  <Name>


>  <RI>
0

>  <Rbt.Current_Directory>
/home/itssahil/PROJECTS/Mol_Feturizer/New_Systems/rnas/1aju

>  <Rbt.Executable>
rbdock ($Id: //depot/dev/client3/rdock/2013.1/src/exe/rbdock.cxx#4 $)

>  <Rbt.Library>
libRbt.so (2013.1, Build901 2013/11/27)

>  <Rbt.Parameter_File>
/export/apps/rDock/src/rDock_2013.1_src/data/scripts/dock_solv.prm

>  <Rbt.Receptor>
prm/pocket_docking_4.prm

>  <SCORE>
-19.4288

>  <SCORE.INTER>
-22.0112

>  <SCORE.INTER.CONST>
1

>  <SCORE.INTER.POLAR>
-4.63864

>  <SCORE.INTER.ROT>
5

>  <SCORE.INTER.SOLV>
17.1738

>  <SCORE.INTER.VDW>
-11.8699

>  <SCORE.INTER.norm>
-2.00101

>  <SCORE.INTRA>
2.58239

>  <SCORE.INTRA.DIHEDRAL>
-2.21733

>  <SCORE.INTRA.DIHEDRAL.0>
9.90185

>  <SCORE.INTRA.POLAR>
0

>  <SCORE.INTRA.POLAR.0>
0

>  <SCORE.INTRA.REPUL>
0

>  <SCORE.INTRA.REPUL.0>
0

>  <SCORE.INTRA.SOLV>
1.74616

>  <SCORE.INTRA.SOLV.lig_0>
-53.6586

>  <SCORE.INTRA.VDW>
2.81797

>  <SCORE.INTRA.VDW.0>
-0.556525

>  <SCORE.INTRA.norm>
0.234762

>  <SCORE.RESTR>
0

>  <SCORE.RESTR.CAVITY>
0

>  <SCORE.RESTR.norm>
0

>  <SCORE.SYSTEM>
0

>  <SCORE.SYSTEM.CONST>
0

>  <SCORE.SYSTEM.DIHEDRAL>
0

>  <SCORE.SYSTEM.SOLV>
0

>  <SCORE.SYSTEM.norm>
0

>  <SCORE.heavy>
11

>  <SCORE.norm>
-1.76625

>  <RMSD>
2.473

$$$$

 OpenBabel11021811383D
libRbt.so/2013.1/901 2013/11/27
 11 10  0  0  0  0  0  0  0  0999 V2000
   -1.7024   -3.5558    2.1121 N   0  3  0  0  0  0  0  0  0  0  0  0
   -2.9440   -4.3529    2.3463 C   0  0  2  0  0  0  0  0  0  0  0  0
   -2.6179   -5.5781    3.2172 C   0  0  0  0  0  0  0  0  0  0  0  0
   -1.4801   -5.7861    3.5945 O   0  0  0  0  0  0  0  0  0  0  0  0
   -3.5162   -4.8083    0.9972 C   0  0  0  0  0  0  0  0  0  0  0  0
   -3.9863   -3.5879    0.2005 C   0  0  0  0  0  0  0  0  0  0  0  0
   -4.5373   -4.0412   -1.1498 C   0  0  0  0  0  0  0  0  0  0  0  0
   -4.8977   -2.8428   -1.9560 N   0  3  0  0  0  0  0  0  0  0  0  0
   -4.0816   -2.4008   -2.8733 C   0  0  0  0  0  0  0  0  0  0  0  0
   -4.4530   -2.3999   -4.1275 N   0  0  0  0  0  0  0  0  0  0  0  0
   -2.8996   -1.9540   -2.5360 N   0  0  0  0  0  0  0  0  0  0  0  0
  2  1  1  6  0  0  0
  2  3  1  0  0  0  0
  2  5  1  0  0  0  0
  3  4  2  0  0  0  0
  5  6  1  0  0  0  0
  6  7  1  0  0  0  0
  7  8  1  0  0  0  0
  8  9  2  0  0  0  0
  9 10  1  0  0  0  0
  9 11  1  0  0  0  0
M  CHG  2   1   1   8   1
M  END
>  <CHROM.1>
-56.85943219,-0.81825775,-65.94043023,179.20785098,-175.84511234,99.22908398
-3.33111632,-3.72484877,-0.02982287,-1.22216703,-0.49228300,-0.99091251

>  <Name>


>  <RI>
0

>  <Rbt.Current_Directory>
/home/itssahil/PROJECTS/Mol_Feturizer/New_Systems/rnas/1aju

>  <Rbt.Executable>
rbdock ($Id: //depot/dev/client3/rdock/2013.1/src/exe/rbdock.cxx#4 $)

>  <Rbt.Library>
libRbt.so (2013.1, Build901 2013/11/27)

>  <Rbt.Parameter_File>
/export/apps/rDock/src/rDock_2013.1_src/data/scripts/dock_solv.prm

>  <Rbt.Receptor>
prm/pocket_docking_4.prm

>  <SCORE>
-14.3302

>  <SCORE.INTER>
-12.0906

>  <SCORE.INTER.CONST>
1

>  <SCORE.INTER.POLAR>
-2.52749

>  <SCORE.INTER.ROT>
5

>  <SCORE.INTER.SOLV>
13.5062

>  <SCORE.INTER.VDW>
-11.0708

>  <SCORE.INTER.norm>
-1.09914

>  <SCORE.INTRA>
-2.23961

>  <SCORE.INTRA.DIHEDRAL>
-6.78377

>  <SCORE.INTRA.DIHEDRAL.0>
9.90185

>  <SCORE.INTRA.POLAR>
0

>  <SCORE.INTRA.POLAR.0>
0

>  <SCORE.INTRA.REPUL>
0

>  <SCORE.INTRA.REPUL.0>
0

>  <SCORE.INTRA.SOLV>
2.66392

>  <SCORE.INTRA.SOLV.lig_0>
-53.6586

>  <SCORE.INTRA.VDW>
-0.179687

>  <SCORE.INTRA.VDW.0>
-0.556525

>  <SCORE.INTRA.norm>
-0.203601

>  <SCORE.RESTR>
0

>  <SCORE.RESTR.CAVITY>
0

>  <SCORE.RESTR.norm>
0

>  <SCORE.SYSTEM>
0

>  <SCORE.SYSTEM.CONST>
0

>  <SCORE.SYSTEM.DIHEDRAL>
0

>  <SCORE.SYSTEM.SOLV>
0

>  <SCORE.SYSTEM.norm>
0

>  <SCORE.heavy>
11

>  <SCORE.norm>
-1.30274

>  <RMSD>
2.475

$$$$

 OpenBabel11021811383D
libRbt.so/2013.1/901 2013/11/27
 11 10  0  0  0  0  0  0  0  0999 V2000
   -2.4176   -0.0892    1.5773 N   0  3  0  0  0  0  0  0  0  0  0  0
   -1.9865   -1.4679    1.1966 C   0  0  2  0  0  0  0  0  0  0  0  0
   -0.6898   -1.8305    1.9402 C   0  0  0  0  0  0  0  0  0  0  0  0
   -0.1501   -1.0252    2.6753 O   0  0  0  0  0  0  0  0  0  0  0  0
   -1.7534   -1.5260   -0.3190 C   0  0  0  0  0  0  0  0  0  0  0  0
   -1.8304   -2.9793   -0.7952 C   0  0  0  0  0  0  0  0  0  0  0  0
   -2.3603   -3.0200   -2.2270 C   0  0  0  0  0  0  0  0  0  0  0  0
   -3.7557   -2.5019   -2.2449 N   0  3  0  0  0  0  0  0  0  0  0  0
   -4.5842   -2.8835   -3.1780 C   0  0  0  0  0  0  0  0  0  0  0  0
   -5.6592   -3.5558   -2.8571 N   0  0  0  0  0  0  0  0  0  0  0  0
   -4.3415   -2.5868   -4.4285 N   0  0  0  0  0  0  0  0  0  0  0  0
  2  1  1  1  0  0  0
  2  3  1  0  0  0  0
  2  5  1  0  0  0  0
  3  4  2  0  0  0  0
  5  6  1  0  0  0  0
  6  7  1  0  0  0  0
  7  8  1  0  0  0  0
  8  9  2  0  0  0  0
  9 10  1  0  0  0  0
  9 11  1  0  0  0  0
M  CHG  2   1   1   8   1
M  END
>  <CHROM.1>
169.98954172,-2.13145491,-158.95588026,149.13373952,-64.11192557,-153.94666854
-2.71336949,-2.09539856,-0.77840272,0.97627165,-0.33506925,1.00478807

>  <Name>


>  <RI>
0

>  <Rbt.Current_Directory>
/home/itssahil/PROJECTS/Mol_Feturizer/New_Systems/rnas/1aju

>  <Rbt.Executable>
rbdock ($Id: //depot/dev/client3/rdock/2013.1/src/exe/rbdock.cxx#4 $)

>  <Rbt.Library>
libRbt.so (2013.1, Build901 2013/11/27)

>  <Rbt.Parameter_File>
/export/apps/rDock/src/rDock_2013.1_src/data/scripts/dock_solv.prm

>  <Rbt.Receptor>
prm/pocket_docking_4.prm

>  <SCORE>
-17.2154

>  <SCORE.INTER>
-17.2785

>  <SCORE.INTER.CONST>
1

>  <SCORE.INTER.POLAR>
-2.89856

>  <SCORE.INTER.ROT>
5

>  <SCORE.INTER.SOLV>
15.9156

>  <SCORE.INTER.VDW>
-14.0956

>  <SCORE.INTER.norm>
-1.57077

>  <SCORE.INTRA>
0.0630694

>  <SCORE.INTRA.DIHEDRAL>
-2.08324

>  <SCORE.INTRA.DIHEDRAL.0>
9.90185

>  <SCORE.INTRA.POLAR>
0

>  <SCORE.INTRA.POLAR.0>
0

>  <SCORE.INTRA.REPUL>
0

>  <SCORE.INTRA.REPUL.0>
0

>  <SCORE.INTRA.SOLV>
1.57771

>  <SCORE.INTRA.SOLV.lig_0>
-53.6586

>  <SCORE.INTRA.VDW>
0.315836

>  <SCORE.INTRA.VDW.0>
-0.556525

>  <SCORE.INTRA.norm>
0.00573358

>  <SCORE.RESTR>
0

>  <SCORE.RESTR.CAVITY>
0

>  <SCORE.RESTR.norm>
0

>  <SCORE.SYSTEM>
0

>  <SCORE.SYSTEM.CONST>
0

>  <SCORE.SYSTEM.DIHEDRAL>
0

>  <SCORE.SYSTEM.SOLV>
0

>  <SCORE.SYSTEM.norm>
0

>  <SCORE.heavy>
11

>  <SCORE.norm>
-1.56504

>  <RMSD>
2.490

$$$$

 OpenBabel11021811383D
libRbt.so/2013.1/901 2013/11/27
 11 10  0  0  0  0  0  0  0  0999 V2000
   -0.3027   -4.6349    0.2420 N   0  3  0  0  0  0  0  0  0  0  0  0
   -1.2322   -4.8883   -0.8997 C   0  0  2  0  0  0  0  0  0  0  0  0
   -0.7816   -6.1425   -1.6677 C   0  0  0  0  0  0  0  0  0  0  0  0
   -1.5254   -7.0979   -1.7867 O   0  0  0  0  0  0  0  0  0  0  0  0
   -1.2283   -3.6726   -1.8362 C   0  0  0  0  0  0  0  0  0  0  0  0
   -2.6427   -3.4320   -2.3714 C   0  0  0  0  0  0  0  0  0  0  0  0
   -3.5528   -2.9893   -1.2276 C   0  0  0  0  0  0  0  0  0  0  0  0
   -4.9381   -2.8193   -1.7452 N   0  3  0  0  0  0  0  0  0  0  0  0
   -5.8086   -3.7827   -1.6160 C   0  0  0  0  0  0  0  0  0  0  0  0
   -6.8827   -3.5952   -0.8936 N   0  0  0  0  0  0  0  0  0  0  0  0
   -5.6085   -4.9286   -2.2139 N   0  0  0  0  0  0  0  0  0  0  0  0
  2  1  1  1  0  0  0
  2  3  1  0  0  0  0
  2  5  1  0  0  0  0
  3  4  2  0  0  0  0
  5  6  1  0  0  0  0
  6  7  1  0  0  0  0
  7  8  1  0  0  0  0
  8  9  2  0  0  0  0
  9 10  1  0  0  0  0
  9 11  1  0  0  0  0
M  CHG  2   1   1   8   1
M  END
>  <CHROM.1>
64.15494233,120.92726405,-142.38490958,67.41213594,-177.39786506,96.56359442
-3.14725520,-4.37984230,-1.42976058,-0.30821465,-0.15099528,0.18797503

>  <Name>


>  <RI>
0

>  <Rbt.Current_Directory>
/home/itssahil/PROJECTS/Mol_Feturizer/New_Systems/rnas/1aju

>  <Rbt.Executable>
rbdock ($Id: //depot/dev/client3/rdock/2013.1/src/exe/rbdock.cxx#4 $)

>  <Rbt.Library>
libRbt.so (2013.1, Build901 2013/11/27)

>  <Rbt.Parameter_File>
/export/apps/rDock/src/rDock_2013.1_src/data/scripts/dock_solv.prm

>  <Rbt.Receptor>
prm/pocket_docking_4.prm

>  <SCORE>
-15.5722

>  <SCORE.INTER>
-14.1958

>  <SCORE.INTER.CONST>
1

>  <SCORE.INTER.POLAR>
-2.27944

>  <SCORE.INTER.ROT>
5

>  <SCORE.INTER.SOLV>
13.5762

>  <SCORE.INTER.VDW>
-13.3245

>  <SCORE.INTER.norm>
-1.29053

>  <SCORE.INTRA>
-1.37634

>  <SCORE.INTRA.DIHEDRAL>
-3.13697

>  <SCORE.INTRA.DIHEDRAL.0>
9.90185

>  <SCORE.INTRA.POLAR>
0

>  <SCORE.INTRA.POLAR.0>
0

>  <SCORE.INTRA.REPUL>
0

>  <SCORE.INTRA.REPUL.0>
0

>  <SCORE.INTRA.SOLV>
0.805754

>  <SCORE.INTRA.SOLV.lig_0>
-53.6586

>  <SCORE.INTRA.VDW>
-0.210735

>  <SCORE.INTRA.VDW.0>
-0.556525

>  <SCORE.INTRA.norm>
-0.125122

>  <SCORE.RESTR>
0

>  <SCORE.RESTR.CAVITY>
0

>  <SCORE.RESTR.norm>
0

>  <SCORE.SYSTEM>
0

>  <SCORE.SYSTEM.CONST>
0

>  <SCORE.SYSTEM.DIHEDRAL>
0

>  <SCORE.SYSTEM.SOLV>
0

>  <SCORE.SYSTEM.norm>
0

>  <SCORE.heavy>
11

>  <SCORE.norm>
-1.41565

>  <RMSD>
2.490

$$$$

 OpenBabel11021811383D
libRbt.so/2013.1/901 2013/11/27
 11 10  0  0  0  0  0  0  0  0999 V2000
   -2.0438   -1.9757    2.8311 N   0  3  0  0  0  0  0  0  0  0  0  0
   -1.9109   -2.4457    1.4193 C   0  0  2  0  0  0  0  0  0  0  0  0
   -1.3623   -1.3073    0.5425 C   0  0  0  0  0  0  0  0  0  0  0  0
   -1.6561   -0.1494    0.7734 O   0  0  0  0  0  0  0  0  0  0  0  0
   -3.2856   -2.8885    0.9008 C   0  0  0  0  0  0  0  0  0  0  0  0
   -3.1675   -3.3199   -0.5638 C   0  0  0  0  0  0  0  0  0  0  0  0
   -3.3669   -2.1073   -1.4707 C   0  0  0  0  0  0  0  0  0  0  0  0
   -3.2311   -2.5333   -2.8905 N   0  3  0  0  0  0  0  0  0  0  0  0
   -4.2898   -2.8554   -3.5820 C   0  0  0  0  0  0  0  0  0  0  0  0
   -4.6192   -2.1493   -4.6325 N   0  0  0  0  0  0  0  0  0  0  0  0
   -5.0131   -3.8859   -3.2276 N   0  0  0  0  0  0  0  0  0  0  0  0
  2  1  1  1  0  0  0
  2  3  1  0  0  0  0
  2  5  1  0  0  0  0
  3  4  2  0  0  0  0
  5  6  1  0  0  0  0
  6  7  1  0  0  0  0
  7  8  1  0  0  0  0
  8  9  2  0  0  0  0
  9 10  1  0  0  0  0
  9 11  1  0  0  0  0
M  CHG  2   1   1   8   1
M  END
>  <CHROM.1>
-56.31202855,-33.84870116,177.78770806,-88.47697578,179.20357748,94.23372227
-3.09596309,-2.31259878,-0.88695755,0.77695573,0.95374963,2.04755712

>  <Name>


>  <RI>
0

>  <Rbt.Current_Directory>
/home/itssahil/PROJECTS/Mol_Feturizer/New_Systems/rnas/1aju

>  <Rbt.Executable>
rbdock ($Id: //depot/dev/client3/rdock/2013.1/src/exe/rbdock.cxx#4 $)

>  <Rbt.Library>
libRbt.so (2013.1, Build901 2013/11/27)

>  <Rbt.Parameter_File>
/export/apps/rDock/src/rDock_2013.1_src/data/scripts/dock_solv.prm

>  <Rbt.Receptor>
prm/pocket_docking_8.prm

>  <SCORE>
-15.9989

>  <SCORE.INTER>
-16.8645

>  <SCORE.INTER.CONST>
1

>  <SCORE.INTER.POLAR>
-3.20559

>  <SCORE.INTER.ROT>
5

>  <SCORE.INTER.SOLV>
13.5204

>  <SCORE.INTER.VDW>
-11.9979

>  <SCORE.INTER.norm>
-1.53314

>  <SCORE.INTRA>
0.865656

>  <SCORE.INTRA.DIHEDRAL>
-2.50274

>  <SCORE.INTRA.DIHEDRAL.0>
9.90185

>  <SCORE.INTRA.POLAR>
0

>  <SCORE.INTRA.POLAR.0>
0

>  <SCORE.INTRA.REPUL>
0

>  <SCORE.INTRA.REPUL.0>
0

>  <SCORE.INTRA.SOLV>
1.53075

>  <SCORE.INTRA.SOLV.lig_0>
-53.6586

>  <SCORE.INTRA.VDW>
1.35165

>  <SCORE.INTRA.VDW.0>
-0.556525

>  <SCORE.INTRA.norm>
0.078696

>  <SCORE.RESTR>
0

>  <SCORE.RESTR.CAVITY>
0

>  <SCORE.RESTR.norm>
0

>  <SCORE.SYSTEM>
0

>  <SCORE.SYSTEM.CONST>
0

>  <SCORE.SYSTEM.DIHEDRAL>
0

>  <SCORE.SYSTEM.SOLV>
0

>  <SCORE.SYSTEM.norm>
0

>  <SCORE.heavy>
11

>  <SCORE.norm>
-1.45444

>  <RMSD>
2.501

$$$$

 OpenBabel11021811383D
libRbt.so/2013.1/901 2013/11/27
 11 10  0  0  0  0  0  0  0  0999 V2000
    0.0566   -2.5388    0.8956 N   0  3  0  0  0  0  0  0  0  0  0  0
   -1.1579   -1.8086    0.4228 C   0  0  2  0  0  0  0  0  0  0  0  0
   -1.5195   -0.6990    1.4247 C   0  0  0  0  0  0  0  0  0  0  0  0
   -2.6139   -0.6749    1.9556 O   0  0  0  0  0  0  0  0  0  0  0  0
   -2.3251   -2.7963    0.2932 C   0  0  0  0  0  0  0  0  0  0  0  0
   -2.1234   -3.6698   -0.9483 C   0  0  0  0  0  0  0  0  0  0  0  0
   -2.3455   -2.8302   -2.2046 C   0  0  0  0  0  0  0  0  0  0  0  0
   -3.7611   -2.3713   -2.2399 N   0  3  0  0  0  0  0  0  0  0  0  0
   -4.5718   -2.8179   -3.1597 C   0  0  0  0  0  0  0  0  0  0  0  0
   -5.6185   -3.5231   -2.8165 N   0  0  0  0  0  0  0  0  0  0  0  0
   -4.3399   -2.5534   -4.4195 N   0  0  0  0  0  0  0  0  0  0  0  0
  2  1  1  1  0  0  0
  2  3  1  0  0  0  0
  2  5  1  0  0  0  0
  3  4  2  0  0  0  0
  5  6  1  0  0  0  0
  6  7  1  0  0  0  0
  7  8  1  0  0  0  0
  8  9  2  0  0  0  0
  9 10  1  0  0  0  0
  9 11  1  0  0  0  0
M  CHG  2   1   1   8   1
M  END
>  <CHROM.1>
-47.33573909,-122.13152980,-74.33166116,-71.22139173,-63.93736289,-112.88618049
-2.75911752,-2.39732446,-0.97820236,-0.91305561,0.34878827,-2.10860766

>  <Name>


>  <RI>
0

>  <Rbt.Current_Directory>
/home/itssahil/PROJECTS/Mol_Feturizer/New_Systems/rnas/1aju

>  <Rbt.Executable>
rbdock ($Id: //depot/dev/client3/rdock/2013.1/src/exe/rbdock.cxx#4 $)

>  <Rbt.Library>
libRbt.so (2013.1, Build901 2013/11/27)

>  <Rbt.Parameter_File>
/export/apps/rDock/src/rDock_2013.1_src/data/scripts/dock_solv.prm

>  <Rbt.Receptor>
prm/pocket_docking_4.prm

>  <SCORE>
-17.4031

>  <SCORE.INTER>
-16.6447

>  <SCORE.INTER.CONST>
1

>  <SCORE.INTER.POLAR>
-2.77938

>  <SCORE.INTER.ROT>
5

>  <SCORE.INTER.SOLV>
15.8727

>  <SCORE.INTER.VDW>
-14.0561

>  <SCORE.INTER.norm>
-1.51316

>  <SCORE.INTRA>
-0.758358

>  <SCORE.INTRA.DIHEDRAL>
-5.28645

>  <SCORE.INTRA.DIHEDRAL.0>
9.90185

>  <SCORE.INTRA.POLAR>
0

>  <SCORE.INTRA.POLAR.0>
0

>  <SCORE.INTRA.REPUL>
0

>  <SCORE.INTRA.REPUL.0>
0

>  <SCORE.INTRA.SOLV>
1.93678

>  <SCORE.INTRA.SOLV.lig_0>
-53.6586

>  <SCORE.INTRA.VDW>
0.916477

>  <SCORE.INTRA.VDW.0>
-0.556525

>  <SCORE.INTRA.norm>
-0.0689417

>  <SCORE.RESTR>
0

>  <SCORE.RESTR.CAVITY>
0

>  <SCORE.RESTR.norm>
0

>  <SCORE.SYSTEM>
0

>  <SCORE.SYSTEM.CONST>
0

>  <SCORE.SYSTEM.DIHEDRAL>
0

>  <SCORE.SYSTEM.SOLV>
0

>  <SCORE.SYSTEM.norm>
0

>  <SCORE.heavy>
11

>  <SCORE.norm>
-1.5821

>  <RMSD>
2.509

$$$$

 OpenBabel11021811383D
libRbt.so/2013.1/901 2013/11/27
 11 10  0  0  0  0  0  0  0  0999 V2000
   -4.4266   -1.3058    1.5478 N   0  3  0  0  0  0  0  0  0  0  0  0
   -3.7690   -2.4419    0.8346 C   0  0  2  0  0  0  0  0  0  0  0  0
   -3.4934   -3.5865    1.8244 C   0  0  0  0  0  0  0  0  0  0  0  0
   -2.4448   -4.2022    1.7846 O   0  0  0  0  0  0  0  0  0  0  0  0
   -2.4510   -1.9574    0.2159 C   0  0  0  0  0  0  0  0  0  0  0  0
   -2.1215   -2.8025   -1.0178 C   0  0  0  0  0  0  0  0  0  0  0  0
   -2.7230   -2.1487   -2.2600 C   0  0  0  0  0  0  0  0  0  0  0  0
   -4.1946   -2.3732   -2.2645 N   0  3  0  0  0  0  0  0  0  0  0  0
   -4.7756   -2.8869   -3.3139 C   0  0  0  0  0  0  0  0  0  0  0  0
   -5.3781   -4.0441   -3.2217 N   0  0  0  0  0  0  0  0  0  0  0  0
   -4.7602   -2.2409   -4.4511 N   0  0  0  0  0  0  0  0  0  0  0  0
  2  1  1  1  0  0  0
  2  3  1  0  0  0  0
  2  5  1  0  0  0  0
  3  4  2  0  0  0  0
  5  6  1  0  0  0  0
  6  7  1  0  0  0  0
  7  8  1  0  0  0  0
  8  9  2  0  0  0  0
  9 10  1  0  0  0  0
  9 11  1  0  0  0  0
M  CHG  2   1   1   8   1
M  END
>  <CHROM.1>
158.65602416,-138.63433769,-152.43809604,90.81980342,-74.60688438,-127.42805676
-3.71758651,-2.71646164,-0.93408883,1.17284204,-0.75982751,1.29817746

>  <Name>


>  <RI>
0

>  <Rbt.Current_Directory>
/home/itssahil/PROJECTS/Mol_Feturizer/New_Systems/rnas/1aju

>  <Rbt.Executable>
rbdock ($Id: //depot/dev/client3/rdock/2013.1/src/exe/rbdock.cxx#4 $)

>  <Rbt.Library>
libRbt.so (2013.1, Build901 2013/11/27)

>  <Rbt.Parameter_File>
/export/apps/rDock/src/rDock_2013.1_src/data/scripts/dock_solv.prm

>  <Rbt.Receptor>
prm/pocket_docking_3.prm

>  <SCORE>
-18.0439

>  <SCORE.INTER>
-20.7977

>  <SCORE.INTER.CONST>
1

>  <SCORE.INTER.POLAR>
-3.6155

>  <SCORE.INTER.ROT>
5

>  <SCORE.INTER.SOLV>
17.3034

>  <SCORE.INTER.VDW>
-14.5146

>  <SCORE.INTER.norm>
-1.8907

>  <SCORE.INTRA>
1.95208

>  <SCORE.INTRA.DIHEDRAL>
0.830083

>  <SCORE.INTRA.DIHEDRAL.0>
9.90185

>  <SCORE.INTRA.POLAR>
0

>  <SCORE.INTRA.POLAR.0>
0

>  <SCORE.INTRA.REPUL>
0

>  <SCORE.INTRA.REPUL.0>
0

>  <SCORE.INTRA.SOLV>
1.74161

>  <SCORE.INTRA.SOLV.lig_0>
-53.6586

>  <SCORE.INTRA.VDW>
0.666232

>  <SCORE.INTRA.VDW.0>
-0.556525

>  <SCORE.INTRA.norm>
0.177462

>  <SCORE.RESTR>
0.801748

>  <SCORE.RESTR.CAVITY>
0.801748

>  <SCORE.RESTR.norm>
0.0728862

>  <SCORE.SYSTEM>
0

>  <SCORE.SYSTEM.CONST>
0

>  <SCORE.SYSTEM.DIHEDRAL>
0

>  <SCORE.SYSTEM.SOLV>
0

>  <SCORE.SYSTEM.norm>
0

>  <SCORE.heavy>
11

>  <SCORE.norm>
-1.64035

>  <RMSD>
2.514

$$$$

 OpenBabel11021811383D
libRbt.so/2013.1/901 2013/11/27
 11 10  0  0  0  0  0  0  0  0999 V2000
   -1.7123   -7.1166    0.2222 N   0  3  0  0  0  0  0  0  0  0  0  0
   -2.1152   -5.7501   -0.2272 C   0  0  2  0  0  0  0  0  0  0  0  0
   -0.9359   -4.7778   -0.0545 C   0  0  0  0  0  0  0  0  0  0  0  0
    0.1090   -5.1521    0.4439 O   0  0  0  0  0  0  0  0  0  0  0  0
   -3.3115   -5.2739    0.6075 C   0  0  0  0  0  0  0  0  0  0  0  0
   -3.8938   -3.9993   -0.0099 C   0  0  0  0  0  0  0  0  0  0  0  0
   -4.5238   -4.3286   -1.3616 C   0  0  0  0  0  0  0  0  0  0  0  0
   -4.9005   -3.0611   -2.0453 N   0  3  0  0  0  0  0  0  0  0  0  0
   -4.0967   -2.5265   -2.9233 C   0  0  0  0  0  0  0  0  0  0  0  0
   -4.4807   -2.4079   -4.1680 N   0  0  0  0  0  0  0  0  0  0  0  0
   -2.9144   -2.1051   -2.5556 N   0  0  0  0  0  0  0  0  0  0  0  0
  2  1  1  1  0  0  0
  2  3  1  0  0  0  0
  2  5  1  0  0  0  0
  3  4  2  0  0  0  0
  5  6  1  0  0  0  0
  6  7  1  0  0  0  0
  7  8  1  0  0  0  0
  8  9  2  0  0  0  0
  9 10  1  0  0  0  0
  9 11  1  0  0  0  0
M  CHG  2   1   1   8   1
M  END
>  <CHROM.1>
177.93550854,-3.11649119,-169.56064440,67.56649969,-171.48238302,96.23851113
-2.95164862,-4.24543996,-1.10598536,1.00214412,0.06900769,2.39104062

>  <Name>


>  <RI>
0

>  <Rbt.Current_Directory>
/home/itssahil/PROJECTS/Mol_Feturizer/New_Systems/rnas/1aju

>  <Rbt.Executable>
rbdock ($Id: //depot/dev/client3/rdock/2013.1/src/exe/rbdock.cxx#4 $)

>  <Rbt.Library>
libRbt.so (2013.1, Build901 2013/11/27)

>  <Rbt.Parameter_File>
/export/apps/rDock/src/rDock_2013.1_src/data/scripts/dock_solv.prm

>  <Rbt.Receptor>
prm/pocket_docking_3.prm

>  <SCORE>
-14.994

>  <SCORE.INTER>
-13.1492

>  <SCORE.INTER.CONST>
1

>  <SCORE.INTER.POLAR>
-2.50864

>  <SCORE.INTER.ROT>
5

>  <SCORE.INTER.SOLV>
15.0051

>  <SCORE.INTER.VDW>
-12.339

>  <SCORE.INTER.norm>
-1.19538

>  <SCORE.INTRA>
-1.84489

>  <SCORE.INTRA.DIHEDRAL>
-6.09207

>  <SCORE.INTRA.DIHEDRAL.0>
9.90185

>  <SCORE.INTRA.POLAR>
0

>  <SCORE.INTRA.POLAR.0>
0

>  <SCORE.INTRA.REPUL>
0

>  <SCORE.INTRA.REPUL.0>
0

>  <SCORE.INTRA.SOLV>
1.80541

>  <SCORE.INTRA.SOLV.lig_0>
-53.6586

>  <SCORE.INTRA.VDW>
0.298441

>  <SCORE.INTRA.VDW.0>
-0.556525

>  <SCORE.INTRA.norm>
-0.167717

>  <SCORE.RESTR>
0

>  <SCORE.RESTR.CAVITY>
0

>  <SCORE.RESTR.norm>
0

>  <SCORE.SYSTEM>
0

>  <SCORE.SYSTEM.CONST>
0

>  <SCORE.SYSTEM.DIHEDRAL>
0

>  <SCORE.SYSTEM.SOLV>
0

>  <SCORE.SYSTEM.norm>
0

>  <SCORE.heavy>
11

>  <SCORE.norm>
-1.3631

>  <RMSD>
2.515

$$$$

 OpenBabel11021811383D
libRbt.so/2013.1/901 2013/11/27
 11 10  0  0  0  0  0  0  0  0999 V2000
   -2.1848   -0.8962    0.9803 N   0  3  0  0  0  0  0  0  0  0  0  0
   -2.7497   -2.0507    1.7417 C   0  0  2  0  0  0  0  0  0  0  0  0
   -1.6228   -2.7764    2.4961 C   0  0  0  0  0  0  0  0  0  0  0  0
   -1.8535   -3.7861    3.1346 O   0  0  0  0  0  0  0  0  0  0  0  0
   -3.4315   -3.0177    0.7646 C   0  0  0  0  0  0  0  0  0  0  0  0
   -4.6300   -2.3255    0.1093 C   0  0  0  0  0  0  0  0  0  0  0  0
   -5.1182   -3.1605   -1.0726 C   0  0  0  0  0  0  0  0  0  0  0  0
   -4.0246   -3.2699   -2.0767 N   0  3  0  0  0  0  0  0  0  0  0  0
   -4.2088   -2.8411   -3.2953 C   0  0  0  0  0  0  0  0  0  0  0  0
   -3.4829   -1.8543   -3.7535 N   0  0  0  0  0  0  0  0  0  0  0  0
   -5.1121   -3.4031   -4.0561 N   0  0  0  0  0  0  0  0  0  0  0  0
  2  1  1  6  0  0  0
  2  3  1  0  0  0  0
  2  5  1  0  0  0  0
  3  4  2  0  0  0  0
  5  6  1  0  0  0  0
  6  7  1  0  0  0  0
  7  8  1  0  0  0  0
  8  9  2  0  0  0  0
  9 10  1  0  0  0  0
  9 11  1  0  0  0  0
M  CHG  2   1   1   8   1
M  END
>  <CHROM.1>
62.12486307,-176.68393662,-64.53289918,167.61923213,-61.21000549,-121.24530924
-3.47154875,-2.65060148,-0.48604110,-0.96647735,-0.84737675,-1.12566254

>  <Name>


>  <RI>
0

>  <Rbt.Current_Directory>
/home/itssahil/PROJECTS/Mol_Feturizer/New_Systems/rnas/1aju

>  <Rbt.Executable>
rbdock ($Id: //depot/dev/client3/rdock/2013.1/src/exe/rbdock.cxx#4 $)

>  <Rbt.Library>
libRbt.so (2013.1, Build901 2013/11/27)

>  <Rbt.Parameter_File>
/export/apps/rDock/src/rDock_2013.1_src/data/scripts/dock_solv.prm

>  <Rbt.Receptor>
prm/pocket_docking_3.prm

>  <SCORE>
-17.8008

>  <SCORE.INTER>
-17.0283

>  <SCORE.INTER.CONST>
1

>  <SCORE.INTER.POLAR>
-3.76068

>  <SCORE.INTER.ROT>
5

>  <SCORE.INTER.SOLV>
17.1904

>  <SCORE.INTER.VDW>
-11.4801

>  <SCORE.INTER.norm>
-1.54803

>  <SCORE.INTRA>
-0.791197

>  <SCORE.INTRA.DIHEDRAL>
-3.53507

>  <SCORE.INTRA.DIHEDRAL.0>
9.90185

>  <SCORE.INTRA.POLAR>
0

>  <SCORE.INTRA.POLAR.0>
0

>  <SCORE.INTRA.REPUL>
0

>  <SCORE.INTRA.REPUL.0>
0

>  <SCORE.INTRA.SOLV>
1.4813

>  <SCORE.INTRA.SOLV.lig_0>
-53.6586

>  <SCORE.INTRA.VDW>
0.235687

>  <SCORE.INTRA.VDW.0>
-0.556525

>  <SCORE.INTRA.norm>
-0.071927

>  <SCORE.RESTR>
0.0186816

>  <SCORE.RESTR.CAVITY>
0.0186816

>  <SCORE.RESTR.norm>
0.00169833

>  <SCORE.SYSTEM>
0

>  <SCORE.SYSTEM.CONST>
0

>  <SCORE.SYSTEM.DIHEDRAL>
0

>  <SCORE.SYSTEM.SOLV>
0

>  <SCORE.SYSTEM.norm>
0

>  <SCORE.heavy>
11

>  <SCORE.norm>
-1.61825

>  <RMSD>
2.523

$$$$

 OpenBabel11021811383D
libRbt.so/2013.1/901 2013/11/27
 11 10  0  0  0  0  0  0  0  0999 V2000
   -4.4578   -3.0121    3.1937 N   0  3  0  0  0  0  0  0  0  0  0  0
   -3.8934   -3.6358    1.9591 C   0  0  2  0  0  0  0  0  0  0  0  0
   -2.5532   -4.3157    2.2870 C   0  0  0  0  0  0  0  0  0  0  0  0
   -2.0977   -4.2780    3.4145 O   0  0  0  0  0  0  0  0  0  0  0  0
   -3.6823   -2.5513    0.8941 C   0  0  0  0  0  0  0  0  0  0  0  0
   -3.4125   -3.2091   -0.4621 C   0  0  0  0  0  0  0  0  0  0  0  0
   -3.2544   -2.1293   -1.5306 C   0  0  0  0  0  0  0  0  0  0  0  0
   -3.3403   -2.7595   -2.8765 N   0  3  0  0  0  0  0  0  0  0  0  0
   -4.4920   -2.8564   -3.4822 C   0  0  0  0  0  0  0  0  0  0  0  0
   -4.6854   -2.2306   -4.6143 N   0  0  0  0  0  0  0  0  0  0  0  0
   -5.4456   -3.5836   -2.9601 N   0  0  0  0  0  0  0  0  0  0  0  0
  2  1  1  1  0  0  0
  2  3  1  0  0  0  0
  2  5  1  0  0  0  0
  3  4  2  0  0  0  0
  5  6  1  0  0  0  0
  6  7  1  0  0  0  0
  7  8  1  0  0  0  0
  8  9  2  0  0  0  0
  9 10  1  0  0  0  0
  9 11  1  0  0  0  0
M  CHG  2   1   1   8   1
M  END
>  <CHROM.1>
57.81666682,-0.89232794,-167.18683039,177.90550629,-165.71941103,91.15808861
-3.77895317,-3.13828129,-0.35910116,1.37465290,-0.11013231,1.70554253

>  <Name>


>  <RI>
0

>  <Rbt.Current_Directory>
/home/itssahil/PROJECTS/Mol_Feturizer/New_Systems/rnas/1aju

>  <Rbt.Executable>
rbdock ($Id: //depot/dev/client3/rdock/2013.1/src/exe/rbdock.cxx#4 $)

>  <Rbt.Library>
libRbt.so (2013.1, Build901 2013/11/27)

>  <Rbt.Parameter_File>
/export/apps/rDock/src/rDock_2013.1_src/data/scripts/dock_solv.prm

>  <Rbt.Receptor>
prm/pocket_docking_4.prm

>  <SCORE>
-16.2581

>  <SCORE.INTER>
-14.715

>  <SCORE.INTER.CONST>
1

>  <SCORE.INTER.POLAR>
-2.91915

>  <SCORE.INTER.ROT>
5

>  <SCORE.INTER.SOLV>
13.7151

>  <SCORE.INTER.VDW>
-11.5846

>  <SCORE.INTER.norm>
-1.33773

>  <SCORE.INTRA>
-2.00285

>  <SCORE.INTRA.DIHEDRAL>
-5.6782

>  <SCORE.INTRA.DIHEDRAL.0>
9.90185

>  <SCORE.INTRA.POLAR>
0

>  <SCORE.INTRA.POLAR.0>
0

>  <SCORE.INTRA.REPUL>
0

>  <SCORE.INTRA.REPUL.0>
0

>  <SCORE.INTRA.SOLV>
1.49048

>  <SCORE.INTRA.SOLV.lig_0>
-53.6586

>  <SCORE.INTRA.VDW>
0.0910172

>  <SCORE.INTRA.VDW.0>
-0.556525

>  <SCORE.INTRA.norm>
-0.182077

>  <SCORE.RESTR>
0.459747

>  <SCORE.RESTR.CAVITY>
0.459747

>  <SCORE.RESTR.norm>
0.0417952

>  <SCORE.SYSTEM>
0

>  <SCORE.SYSTEM.CONST>
0

>  <SCORE.SYSTEM.DIHEDRAL>
0

>  <SCORE.SYSTEM.SOLV>
0

>  <SCORE.SYSTEM.norm>
0

>  <SCORE.heavy>
11

>  <SCORE.norm>
-1.47801

>  <RMSD>
2.535

$$$$

 OpenBabel11021811383D
libRbt.so/2013.1/901 2013/11/27
 11 10  0  0  0  0  0  0  0  0999 V2000
   -0.1704   -0.5271    1.1383 N   0  3  0  0  0  0  0  0  0  0  0  0
   -1.4360   -1.1977    0.7135 C   0  0  2  0  0  0  0  0  0  0  0  0
   -2.1661   -1.7575    1.9461 C   0  0  0  0  0  0  0  0  0  0  0  0
   -3.3163   -1.4397    2.1835 O   0  0  0  0  0  0  0  0  0  0  0  0
   -1.1042   -2.3370   -0.2595 C   0  0  0  0  0  0  0  0  0  0  0  0
   -2.3914   -3.0670   -0.6535 C   0  0  0  0  0  0  0  0  0  0  0  0
   -3.2655   -2.1413   -1.4969 C   0  0  0  0  0  0  0  0  0  0  0  0
   -3.1629   -2.5431   -2.9265 N   0  3  0  0  0  0  0  0  0  0  0  0
   -4.2352   -2.8732   -3.5928 C   0  0  0  0  0  0  0  0  0  0  0  0
   -4.6065   -2.1571   -4.6224 N   0  0  0  0  0  0  0  0  0  0  0  0
   -4.9302   -3.9216   -3.2344 N   0  0  0  0  0  0  0  0  0  0  0  0
  2  1  1  1  0  0  0
  2  3  1  0  0  0  0
  2  5  1  0  0  0  0
  3  4  2  0  0  0  0
  5  6  1  0  0  0  0
  6  7  1  0  0  0  0
  7  8  1  0  0  0  0
  8  9  2  0  0  0  0
  9 10  1  0  0  0  0
  9 11  1  0  0  0  0
M  CHG  2   1   1   8   1
M  END
>  <CHROM.1>
-175.42318600,124.26990668,177.62709528,67.78350272,103.53614576,122.13245558
-2.79552193,-2.16082178,-0.98932698,-1.02670300,-0.40748890,-1.64183849

>  <Name>


>  <RI>
0

>  <Rbt.Current_Directory>
/home/itssahil/PROJECTS/Mol_Feturizer/New_Systems/rnas/1aju

>  <Rbt.Executable>
rbdock ($Id: //depot/dev/client3/rdock/2013.1/src/exe/rbdock.cxx#4 $)

>  <Rbt.Library>
libRbt.so (2013.1, Build901 2013/11/27)

>  <Rbt.Parameter_File>
/export/apps/rDock/src/rDock_2013.1_src/data/scripts/dock_solv.prm

>  <Rbt.Receptor>
prm/pocket_docking_8.prm

>  <SCORE>
-15.1826

>  <SCORE.INTER>
-15.1782

>  <SCORE.INTER.CONST>
1

>  <SCORE.INTER.POLAR>
-2.49417

>  <SCORE.INTER.ROT>
5

>  <SCORE.INTER.SOLV>
15.7448

>  <SCORE.INTER.VDW>
-13.9865

>  <SCORE.INTER.norm>
-1.37983

>  <SCORE.INTRA>
-0.00445717

>  <SCORE.INTRA.DIHEDRAL>
-2.03288

>  <SCORE.INTRA.DIHEDRAL.0>
9.90185

>  <SCORE.INTRA.POLAR>
0

>  <SCORE.INTRA.POLAR.0>
0

>  <SCORE.INTRA.REPUL>
0

>  <SCORE.INTRA.REPUL.0>
0

>  <SCORE.INTRA.SOLV>
0.471106

>  <SCORE.INTRA.SOLV.lig_0>
-53.6586

>  <SCORE.INTRA.VDW>
0.776428

>  <SCORE.INTRA.VDW.0>
-0.556525

>  <SCORE.INTRA.norm>
-0.000405197

>  <SCORE.RESTR>
0

>  <SCORE.RESTR.CAVITY>
0

>  <SCORE.RESTR.norm>
0

>  <SCORE.SYSTEM>
0

>  <SCORE.SYSTEM.CONST>
0

>  <SCORE.SYSTEM.DIHEDRAL>
0

>  <SCORE.SYSTEM.SOLV>
0

>  <SCORE.SYSTEM.norm>
0

>  <SCORE.heavy>
11

>  <SCORE.norm>
-1.38024

>  <RMSD>
2.558

$$$$

 OpenBabel11021811383D
libRbt.so/2013.1/901 2013/11/27
 11 10  0  0  0  0  0  0  0  0999 V2000
   -0.5644   -5.0076    0.0431 N   0  3  0  0  0  0  0  0  0  0  0  0
   -1.7619   -4.1533   -0.2174 C   0  0  2  0  0  0  0  0  0  0  0  0
   -1.5978   -2.7987    0.4924 C   0  0  0  0  0  0  0  0  0  0  0  0
   -2.3014   -2.5057    1.4407 O   0  0  0  0  0  0  0  0  0  0  0  0
   -3.0168   -4.8670    0.3028 C   0  0  0  0  0  0  0  0  0  0  0  0
   -4.2664   -4.1874   -0.2642 C   0  0  0  0  0  0  0  0  0  0  0  0
   -4.4036   -4.5265   -1.7470 C   0  0  0  0  0  0  0  0  0  0  0  0
   -4.8799   -3.3218   -2.4802 N   0  3  0  0  0  0  0  0  0  0  0  0
   -4.0543   -2.6395   -3.2255 C   0  0  0  0  0  0  0  0  0  0  0  0
   -4.2612   -2.5544   -4.5142 N   0  0  0  0  0  0  0  0  0  0  0  0
   -3.0281   -2.0378   -2.6819 N   0  0  0  0  0  0  0  0  0  0  0  0
  2  1  1  1  0  0  0
  2  3  1  0  0  0  0
  2  5  1  0  0  0  0
  3  4  2  0  0  0  0
  5  6  1  0  0  0  0
  6  7  1  0  0  0  0
  7  8  1  0  0  0  0
  8  9  2  0  0  0  0
  9 10  1  0  0  0  0
  9 11  1  0  0  0  0
M  CHG  2   1   1   8   1
M  END
>  <CHROM.1>
-177.83882887,-111.23157266,-165.72049746,72.66876098,-141.12174709,105.42393758
-3.07294241,-3.50345503,-1.17463398,-0.90291277,-0.56420722,-0.89035537

>  <Name>


>  <RI>
0

>  <Rbt.Current_Directory>
/home/itssahil/PROJECTS/Mol_Feturizer/New_Systems/rnas/1aju

>  <Rbt.Executable>
rbdock ($Id: //depot/dev/client3/rdock/2013.1/src/exe/rbdock.cxx#4 $)

>  <Rbt.Library>
libRbt.so (2013.1, Build901 2013/11/27)

>  <Rbt.Parameter_File>
/export/apps/rDock/src/rDock_2013.1_src/data/scripts/dock_solv.prm

>  <Rbt.Receptor>
prm/pocket_docking_4.prm

>  <SCORE>
-18.6387

>  <SCORE.INTER>
-19.4128

>  <SCORE.INTER.CONST>
1

>  <SCORE.INTER.POLAR>
-3.97594

>  <SCORE.INTER.ROT>
5

>  <SCORE.INTER.SOLV>
16.1329

>  <SCORE.INTER.VDW>
-11.9997

>  <SCORE.INTER.norm>
-1.7648

>  <SCORE.INTRA>
0.774146

>  <SCORE.INTRA.DIHEDRAL>
-1.49675

>  <SCORE.INTRA.DIHEDRAL.0>
9.90185

>  <SCORE.INTRA.POLAR>
0

>  <SCORE.INTRA.POLAR.0>
0

>  <SCORE.INTRA.REPUL>
0

>  <SCORE.INTRA.REPUL.0>
0

>  <SCORE.INTRA.SOLV>
2.05274

>  <SCORE.INTRA.SOLV.lig_0>
-53.6586

>  <SCORE.INTRA.VDW>
0.496151

>  <SCORE.INTRA.VDW.0>
-0.556525

>  <SCORE.INTRA.norm>
0.0703769

>  <SCORE.RESTR>
0

>  <SCORE.RESTR.CAVITY>
0

>  <SCORE.RESTR.norm>
0

>  <SCORE.SYSTEM>
0

>  <SCORE.SYSTEM.CONST>
0

>  <SCORE.SYSTEM.DIHEDRAL>
0

>  <SCORE.SYSTEM.SOLV>
0

>  <SCORE.SYSTEM.norm>
0

>  <SCORE.heavy>
11

>  <SCORE.norm>
-1.69443

>  <RMSD>
2.577

$$$$

 OpenBabel11021811383D
libRbt.so/2013.1/901 2013/11/27
 11 10  0  0  0  0  0  0  0  0999 V2000
   -3.3983   -6.4371   -1.0542 N   0  3  0  0  0  0  0  0  0  0  0  0
   -2.5884   -5.2444   -1.4459 C   0  0  2  0  0  0  0  0  0  0  0  0
   -1.1544   -5.6810   -1.7907 C   0  0  0  0  0  0  0  0  0  0  0  0
   -0.2349   -5.4488   -1.0285 O   0  0  0  0  0  0  0  0  0  0  0  0
   -2.5646   -4.2435   -0.2830 C   0  0  0  0  0  0  0  0  0  0  0  0
   -2.0350   -2.8944   -0.7774 C   0  0  0  0  0  0  0  0  0  0  0  0
   -3.1233   -2.1807   -1.5766 C   0  0  0  0  0  0  0  0  0  0  0  0
   -3.2543   -2.8306   -2.9095 N   0  3  0  0  0  0  0  0  0  0  0  0
   -4.4189   -2.8969   -3.4943 C   0  0  0  0  0  0  0  0  0  0  0  0
   -4.6093   -2.2843   -4.6341 N   0  0  0  0  0  0  0  0  0  0  0  0
   -5.3886   -3.5805   -2.9438 N   0  0  0  0  0  0  0  0  0  0  0  0
  2  1  1  1  0  0  0
  2  3  1  0  0  0  0
  2  5  1  0  0  0  0
  3  4  2  0  0  0  0
  5  6  1  0  0  0  0
  6  7  1  0  0  0  0
  7  8  1  0  0  0  0
  8  9  2  0  0  0  0
  9 10  1  0  0  0  0
  9 11  1  0  0  0  0
M  CHG  2   1   1   8   1
M  END
>  <CHROM.1>
58.70699957,-106.18435990,-166.51449670,75.98942591,-74.67427722,146.62845785
-3.00510375,-4.00881956,-2.00500244,0.76256848,0.54807962,2.88405718

>  <Name>


>  <RI>
224

>  <Rbt.Current_Directory>
/home/itssahil/PROJECTS/Mol_Feturizer/New_Systems/rnas/1aju

>  <Rbt.Executable>
rbdock ($Id: //depot/dev/client3/rdock/2013.1/src/exe/rbdock.cxx#4 $)

>  <Rbt.Library>
libRbt.so (2013.1, Build901 2013/11/27)

>  <Rbt.Parameter_File>
/export/apps/rDock/src/rDock_2013.1_src/data/scripts/dock_solv.prm

>  <Rbt.Receptor>
prm/pocket_docking_5.prm

>  <SCORE>
-12.5033

>  <SCORE.INTER>
-12.3058

>  <SCORE.INTER.CONST>
1

>  <SCORE.INTER.POLAR>
-1.87117

>  <SCORE.INTER.ROT>
5

>  <SCORE.INTER.SOLV>
14.0877

>  <SCORE.INTER.VDW>
-13.5959

>  <SCORE.INTER.norm>
-1.11871

>  <SCORE.INTRA>
-0.19748

>  <SCORE.INTRA.DIHEDRAL>
-4.14526

>  <SCORE.INTRA.DIHEDRAL.0>
9.90185

>  <SCORE.INTRA.POLAR>
0

>  <SCORE.INTRA.POLAR.0>
0

>  <SCORE.INTRA.REPUL>
0

>  <SCORE.INTRA.REPUL.0>
0

>  <SCORE.INTRA.SOLV>
3.09751

>  <SCORE.INTRA.SOLV.lig_0>
-53.6586

>  <SCORE.INTRA.VDW>
0.326391

>  <SCORE.INTRA.VDW.0>
-0.556525

>  <SCORE.INTRA.norm>
-0.0179527

>  <SCORE.RESTR>
0

>  <SCORE.RESTR.CAVITY>
0

>  <SCORE.RESTR.norm>
0

>  <SCORE.SYSTEM>
0

>  <SCORE.SYSTEM.CONST>
0

>  <SCORE.SYSTEM.DIHEDRAL>
0

>  <SCORE.SYSTEM.SOLV>
0

>  <SCORE.SYSTEM.norm>
0

>  <SCORE.heavy>
11

>  <SCORE.norm>
-1.13667

>  <RMSD>
2.578

$$$$

 OpenBabel11021811383D
libRbt.so/2013.1/901 2013/11/27
 11 10  0  0  0  0  0  0  0  0999 V2000
   -0.2103   -2.2801    2.3948 N   0  3  0  0  0  0  0  0  0  0  0  0
   -0.3365   -1.6897    1.0283 C   0  0  2  0  0  0  0  0  0  0  0  0
   -0.0147   -0.1865    1.0804 C   0  0  0  0  0  0  0  0  0  0  0  0
    0.6039    0.3472    0.1789 O   0  0  0  0  0  0  0  0  0  0  0  0
   -1.7672   -1.9003    0.5151 C   0  0  0  0  0  0  0  0  0  0  0  0
   -1.7690   -1.8983   -1.0162 C   0  0  0  0  0  0  0  0  0  0  0  0
   -3.1838   -2.1663   -1.5254 C   0  0  0  0  0  0  0  0  0  0  0  0
   -3.1172   -2.5807   -2.9535 N   0  3  0  0  0  0  0  0  0  0  0  0
   -4.2072   -2.9071   -3.5924 C   0  0  0  0  0  0  0  0  0  0  0  0
   -4.5959   -2.1962   -4.6193 N   0  0  0  0  0  0  0  0  0  0  0  0
   -4.9027   -3.9464   -3.2094 N   0  0  0  0  0  0  0  0  0  0  0  0
  2  1  1  1  0  0  0
  2  3  1  0  0  0  0
  2  5  1  0  0  0  0
  3  4  2  0  0  0  0
  5  6  1  0  0  0  0
  6  7  1  0  0  0  0
  7  8  1  0  0  0  0
  8  9  2  0  0  0  0
  9 10  1  0  0  0  0
  9 11  1  0  0  0  0
M  CHG  2   1   1   8   1
M  END
>  <CHROM.1>
-179.65923450,141.76659771,-154.79033081,177.64773750,-162.55397649,177.70013667
-2.13549723,-1.96073198,-1.06270799,0.44025853,0.79573846,2.19736217

>  <Name>


>  <RI>
224

>  <Rbt.Current_Directory>
/home/itssahil/PROJECTS/Mol_Feturizer/New_Systems/rnas/1aju

>  <Rbt.Executable>
rbdock ($Id: //depot/dev/client3/rdock/2013.1/src/exe/rbdock.cxx#4 $)

>  <Rbt.Library>
libRbt.so (2013.1, Build901 2013/11/27)

>  <Rbt.Parameter_File>
/export/apps/rDock/src/rDock_2013.1_src/data/scripts/dock_solv.prm

>  <Rbt.Receptor>
prm/pocket_docking_5.prm

>  <SCORE>
-23.1364

>  <SCORE.INTER>
-21.3857

>  <SCORE.INTER.CONST>
1

>  <SCORE.INTER.POLAR>
-3.48858

>  <SCORE.INTER.ROT>
5

>  <SCORE.INTER.SOLV>
14.6455

>  <SCORE.INTER.VDW>
-14.4437

>  <SCORE.INTER.norm>
-1.94416

>  <SCORE.INTRA>
-1.75065

>  <SCORE.INTRA.DIHEDRAL>
-3.10841

>  <SCORE.INTRA.DIHEDRAL.0>
9.90185

>  <SCORE.INTRA.POLAR>
0

>  <SCORE.INTRA.POLAR.0>
0

>  <SCORE.INTRA.REPUL>
0

>  <SCORE.INTRA.REPUL.0>
0

>  <SCORE.INTRA.SOLV>
-0.192985

>  <SCORE.INTRA.SOLV.lig_0>
-53.6586

>  <SCORE.INTRA.VDW>
-0.0999546

>  <SCORE.INTRA.VDW.0>
-0.556525

>  <SCORE.INTRA.norm>
-0.15915

>  <SCORE.RESTR>
0

>  <SCORE.RESTR.CAVITY>
0

>  <SCORE.RESTR.norm>
0

>  <SCORE.SYSTEM>
0

>  <SCORE.SYSTEM.CONST>
0

>  <SCORE.SYSTEM.DIHEDRAL>
0

>  <SCORE.SYSTEM.SOLV>
0

>  <SCORE.SYSTEM.norm>
0

>  <SCORE.heavy>
11

>  <SCORE.norm>
-2.10331

>  <RMSD>
2.580

$$$$

 OpenBabel11021811383D
libRbt.so/2013.1/901 2013/11/27
 11 10  0  0  0  0  0  0  0  0999 V2000
   -4.1438   -0.8164    1.7987 N   0  3  0  0  0  0  0  0  0  0  0  0
   -3.7381   -2.0587    1.0749 C   0  0  2  0  0  0  0  0  0  0  0  0
   -3.6824   -3.2388    2.0597 C   0  0  0  0  0  0  0  0  0  0  0  0
   -2.7113   -3.9708    2.0967 O   0  0  0  0  0  0  0  0  0  0  0  0
   -2.3593   -1.8459    0.4358 C   0  0  0  0  0  0  0  0  0  0  0  0
   -2.1720   -2.8309   -0.7215 C   0  0  0  0  0  0  0  0  0  0  0  0
   -2.7335   -2.2229   -2.0051 C   0  0  0  0  0  0  0  0  0  0  0  0
   -4.2111   -2.4028   -2.0237 N   0  3  0  0  0  0  0  0  0  0  0  0
   -4.7928   -2.9388   -3.0615 C   0  0  0  0  0  0  0  0  0  0  0  0
   -5.4319   -4.0729   -2.9345 N   0  0  0  0  0  0  0  0  0  0  0  0
   -4.7415   -2.3379   -4.2221 N   0  0  0  0  0  0  0  0  0  0  0  0
  2  1  1  1  0  0  0
  2  3  1  0  0  0  0
  2  5  1  0  0  0  0
  3  4  2  0  0  0  0
  5  6  1  0  0  0  0
  6  7  1  0  0  0  0
  7  8  1  0  0  0  0
  8  9  2  0  0  0  0
  9 10  1  0  0  0  0
  9 11  1  0  0  0  0
M  CHG  2   1   1   8   1
M  END
>  <CHROM.1>
63.49295796,-130.89945357,-157.84447965,87.59444271,-80.72109461,-128.12792980
-3.72954722,-2.59975088,-0.67699783,-0.45971638,-1.26017363,-0.56618672

>  <Name>


>  <RI>
0

>  <Rbt.Current_Directory>
/home/itssahil/PROJECTS/Mol_Feturizer/New_Systems/rnas/1aju

>  <Rbt.Executable>
rbdock ($Id: //depot/dev/client3/rdock/2013.1/src/exe/rbdock.cxx#4 $)

>  <Rbt.Library>
libRbt.so (2013.1, Build901 2013/11/27)

>  <Rbt.Parameter_File>
/export/apps/rDock/src/rDock_2013.1_src/data/scripts/dock_solv.prm

>  <Rbt.Receptor>
prm/pocket_docking_7.prm

>  <SCORE>
-21.1439

>  <SCORE.INTER>
-21.8993

>  <SCORE.INTER.CONST>
1

>  <SCORE.INTER.POLAR>
-3.40674

>  <SCORE.INTER.ROT>
5

>  <SCORE.INTER.SOLV>
15.1481

>  <SCORE.INTER.VDW>
-15.2264

>  <SCORE.INTER.norm>
-1.99084

>  <SCORE.INTRA>
0.755349

>  <SCORE.INTRA.DIHEDRAL>
-1.04097

>  <SCORE.INTRA.DIHEDRAL.0>
9.90185

>  <SCORE.INTRA.POLAR>
0

>  <SCORE.INTRA.POLAR.0>
0

>  <SCORE.INTRA.REPUL>
0

>  <SCORE.INTRA.REPUL.0>
0

>  <SCORE.INTRA.SOLV>
1.4056

>  <SCORE.INTRA.SOLV.lig_0>
-53.6586

>  <SCORE.INTRA.VDW>
0.573034

>  <SCORE.INTRA.VDW.0>
-0.556525

>  <SCORE.INTRA.norm>
0.0686681

>  <SCORE.RESTR>
0

>  <SCORE.RESTR.CAVITY>
0

>  <SCORE.RESTR.norm>
0

>  <SCORE.SYSTEM>
0

>  <SCORE.SYSTEM.CONST>
0

>  <SCORE.SYSTEM.DIHEDRAL>
0

>  <SCORE.SYSTEM.SOLV>
0

>  <SCORE.SYSTEM.norm>
0

>  <SCORE.heavy>
11

>  <SCORE.norm>
-1.92217

>  <RMSD>
2.589

$$$$

 OpenBabel11021811383D
libRbt.so/2013.1/901 2013/11/27
 11 10  0  0  0  0  0  0  0  0999 V2000
   -0.2107   -2.1304    2.4035 N   0  3  0  0  0  0  0  0  0  0  0  0
   -0.3002   -1.6209    1.0020 C   0  0  2  0  0  0  0  0  0  0  0  0
    0.1138   -0.1402    0.9603 C   0  0  0  0  0  0  0  0  0  0  0  0
    0.7255    0.3065    0.0082 O   0  0  0  0  0  0  0  0  0  0  0  0
   -1.7412   -1.7750    0.4975 C   0  0  0  0  0  0  0  0  0  0  0  0
   -1.7404   -1.9000   -1.0286 C   0  0  0  0  0  0  0  0  0  0  0  0
   -3.1593   -2.1819   -1.5184 C   0  0  0  0  0  0  0  0  0  0  0  0
   -3.1084   -2.5940   -2.9479 N   0  3  0  0  0  0  0  0  0  0  0  0
   -4.2050   -2.9216   -3.5747 C   0  0  0  0  0  0  0  0  0  0  0  0
   -4.6069   -2.2099   -4.5959 N   0  0  0  0  0  0  0  0  0  0  0  0
   -4.8940   -3.9629   -3.1854 N   0  0  0  0  0  0  0  0  0  0  0  0
  2  1  1  1  0  0  0
  2  3  1  0  0  0  0
  2  5  1  0  0  0  0
  3  4  2  0  0  0  0
  5  6  1  0  0  0  0
  6  7  1  0  0  0  0
  7  8  1  0  0  0  0
  8  9  2  0  0  0  0
  9 10  1  0  0  0  0
  9 11  1  0  0  0  0
M  CHG  2   1   1   8   1
M  END
>  <CHROM.1>
-59.56992232,144.24754756,-153.58185882,174.81999310,-167.75724671,178.19453109
-2.10254281,-1.93506119,-1.08598538,0.46981998,0.76655430,2.12762511

>  <Name>


>  <RI>
224

>  <Rbt.Current_Directory>
/home/itssahil/PROJECTS/Mol_Feturizer/New_Systems/rnas/1aju

>  <Rbt.Executable>
rbdock ($Id: //depot/dev/client3/rdock/2013.1/src/exe/rbdock.cxx#4 $)

>  <Rbt.Library>
libRbt.so (2013.1, Build901 2013/11/27)

>  <Rbt.Parameter_File>
/export/apps/rDock/src/rDock_2013.1_src/data/scripts/dock_solv.prm

>  <Rbt.Receptor>
prm/pocket_docking_5.prm

>  <SCORE>
-23.32

>  <SCORE.INTER>
-21.4991

>  <SCORE.INTER.CONST>
1

>  <SCORE.INTER.POLAR>
-3.44542

>  <SCORE.INTER.ROT>
5

>  <SCORE.INTER.SOLV>
14.6956

>  <SCORE.INTER.VDW>
-14.6799

>  <SCORE.INTER.norm>
-1.95447

>  <SCORE.INTRA>
-1.82088

>  <SCORE.INTRA.DIHEDRAL>
-3.22179

>  <SCORE.INTRA.DIHEDRAL.0>
9.90185

>  <SCORE.INTRA.POLAR>
0

>  <SCORE.INTRA.POLAR.0>
0

>  <SCORE.INTRA.REPUL>
0

>  <SCORE.INTRA.REPUL.0>
0

>  <SCORE.INTRA.SOLV>
-0.204912

>  <SCORE.INTRA.SOLV.lig_0>
-53.6586

>  <SCORE.INTRA.VDW>
-0.107535

>  <SCORE.INTRA.VDW.0>
-0.556525

>  <SCORE.INTRA.norm>
-0.165535

>  <SCORE.RESTR>
0

>  <SCORE.RESTR.CAVITY>
0

>  <SCORE.RESTR.norm>
0

>  <SCORE.SYSTEM>
0

>  <SCORE.SYSTEM.CONST>
0

>  <SCORE.SYSTEM.DIHEDRAL>
0

>  <SCORE.SYSTEM.SOLV>
0

>  <SCORE.SYSTEM.norm>
0

>  <SCORE.heavy>
11

>  <SCORE.norm>
-2.12

>  <RMSD>
2.596

$$$$

 OpenBabel11021811383D
libRbt.so/2013.1/901 2013/11/27
 11 10  0  0  0  0  0  0  0  0999 V2000
   -4.0801   -0.7285    1.9647 N   0  3  0  0  0  0  0  0  0  0  0  0
   -3.2547   -1.8537    1.4316 C   0  0  2  0  0  0  0  0  0  0  0  0
   -2.6170   -2.6279    2.5977 C   0  0  0  0  0  0  0  0  0  0  0  0
   -2.3233   -3.8023    2.4759 O   0  0  0  0  0  0  0  0  0  0  0  0
   -2.1588   -1.2899    0.5174 C   0  0  0  0  0  0  0  0  0  0  0  0
   -2.0833   -2.1207   -0.7667 C   0  0  0  0  0  0  0  0  0  0  0  0
   -3.4394   -2.0994   -1.4689 C   0  0  0  0  0  0  0  0  0  0  0  0
   -3.2577   -2.4977   -2.8916 N   0  3  0  0  0  0  0  0  0  0  0  0
   -4.2895   -2.8413   -3.6127 C   0  0  0  0  0  0  0  0  0  0  0  0
   -4.6169   -2.1287   -4.6595 N   0  0  0  0  0  0  0  0  0  0  0  0
   -4.9879   -3.8994   -3.2914 N   0  0  0  0  0  0  0  0  0  0  0  0
  2  1  1  1  0  0  0
  2  3  1  0  0  0  0
  2  5  1  0  0  0  0
  3  4  2  0  0  0  0
  5  6  1  0  0  0  0
  6  7  1  0  0  0  0
  7  8  1  0  0  0  0
  8  9  2  0  0  0  0
  9 10  1  0  0  0  0
  9 11  1  0  0  0  0
M  CHG  2   1   1   8   1
M  END
>  <CHROM.1>
-72.77417556,153.39951019,-134.60062024,58.24937549,161.24303640,164.69358631
-3.40556580,-2.35028239,-0.70754503,0.51005297,-1.27852947,0.43186311

>  <Name>


>  <RI>
224

>  <Rbt.Current_Directory>
/home/itssahil/PROJECTS/Mol_Feturizer/New_Systems/rnas/1aju

>  <Rbt.Executable>
rbdock ($Id: //depot/dev/client3/rdock/2013.1/src/exe/rbdock.cxx#4 $)

>  <Rbt.Library>
libRbt.so (2013.1, Build901 2013/11/27)

>  <Rbt.Parameter_File>
/export/apps/rDock/src/rDock_2013.1_src/data/scripts/dock_solv.prm

>  <Rbt.Receptor>
prm/pocket_docking_5.prm

>  <SCORE>
-23.7925

>  <SCORE.INTER>
-25.0348

>  <SCORE.INTER.CONST>
1

>  <SCORE.INTER.POLAR>
-4.65286

>  <SCORE.INTER.ROT>
5

>  <SCORE.INTER.SOLV>
16.3809

>  <SCORE.INTER.VDW>
-13.574

>  <SCORE.INTER.norm>
-2.27589

>  <SCORE.INTRA>
1.24231

>  <SCORE.INTRA.DIHEDRAL>
0.751986

>  <SCORE.INTRA.DIHEDRAL.0>
9.90185

>  <SCORE.INTRA.POLAR>
0

>  <SCORE.INTRA.POLAR.0>
0

>  <SCORE.INTRA.REPUL>
0

>  <SCORE.INTRA.REPUL.0>
0

>  <SCORE.INTRA.SOLV>
0.375327

>  <SCORE.INTRA.SOLV.lig_0>
-53.6586

>  <SCORE.INTRA.VDW>
0.678654

>  <SCORE.INTRA.VDW.0>
-0.556525

>  <SCORE.INTRA.norm>
0.112937

>  <SCORE.RESTR>
0

>  <SCORE.RESTR.CAVITY>
0

>  <SCORE.RESTR.norm>
0

>  <SCORE.SYSTEM>
0

>  <SCORE.SYSTEM.CONST>
0

>  <SCORE.SYSTEM.DIHEDRAL>
0

>  <SCORE.SYSTEM.SOLV>
0

>  <SCORE.SYSTEM.norm>
0

>  <SCORE.heavy>
11

>  <SCORE.norm>
-2.16296

>  <RMSD>
2.596

$$$$

 OpenBabel11021811383D
libRbt.so/2013.1/901 2013/11/27
 11 10  0  0  0  0  0  0  0  0999 V2000
   -2.8996   -0.4507    1.6159 N   0  3  0  0  0  0  0  0  0  0  0  0
   -1.8750   -1.4404    1.1660 C   0  0  2  0  0  0  0  0  0  0  0  0
   -0.4818   -0.7888    1.1811 C   0  0  0  0  0  0  0  0  0  0  0  0
    0.1679   -0.6894    0.1573 O   0  0  0  0  0  0  0  0  0  0  0  0
   -2.2154   -1.9129   -0.2537 C   0  0  0  0  0  0  0  0  0  0  0  0
   -2.2158   -3.4435   -0.2993 C   0  0  0  0  0  0  0  0  0  0  0  0
   -2.6428   -3.9127   -1.6886 C   0  0  0  0  0  0  0  0  0  0  0  0
   -3.9508   -3.2907   -2.0322 N   0  3  0  0  0  0  0  0  0  0  0  0
   -4.1847   -2.8882   -3.2512 C   0  0  0  0  0  0  0  0  0  0  0  0
   -5.1428   -3.4445   -3.9465 N   0  0  0  0  0  0  0  0  0  0  0  0
   -3.4666   -1.9265   -3.7709 N   0  0  0  0  0  0  0  0  0  0  0  0
  2  1  1  6  0  0  0
  2  3  1  0  0  0  0
  2  5  1  0  0  0  0
  3  4  2  0  0  0  0
  5  6  1  0  0  0  0
  6  7  1  0  0  0  0
  7  8  1  0  0  0  0
  8  9  2  0  0  0  0
  9 10  1  0  0  0  0
  9 11  1  0  0  0  0
M  CHG  2   1   1   8   1
M  END
>  <CHROM.1>
79.44274423,-119.07272728,-129.04920236,176.36433881,-54.27859149,141.64638795
-2.65725841,-2.16445267,-1.02350287,0.96946768,0.35796406,1.33874703

>  <Name>


>  <RI>
0

>  <Rbt.Current_Directory>
/home/itssahil/PROJECTS/Mol_Feturizer/New_Systems/rnas/1aju

>  <Rbt.Executable>
rbdock ($Id: //depot/dev/client3/rdock/2013.1/src/exe/rbdock.cxx#4 $)

>  <Rbt.Library>
libRbt.so (2013.1, Build901 2013/11/27)

>  <Rbt.Parameter_File>
/export/apps/rDock/src/rDock_2013.1_src/data/scripts/dock_solv.prm

>  <Rbt.Receptor>
prm/pocket_docking_4.prm

>  <SCORE>
-22.6833

>  <SCORE.INTER>
-23.5835

>  <SCORE.INTER.CONST>
1

>  <SCORE.INTER.POLAR>
-4.75453

>  <SCORE.INTER.ROT>
5

>  <SCORE.INTER.SOLV>
16.7146

>  <SCORE.INTER.VDW>
-12.3787

>  <SCORE.INTER.norm>
-2.14395

>  <SCORE.INTRA>
0.896082

>  <SCORE.INTRA.DIHEDRAL>
-1.01742

>  <SCORE.INTRA.DIHEDRAL.0>
9.90185

>  <SCORE.INTRA.POLAR>
0

>  <SCORE.INTRA.POLAR.0>
0

>  <SCORE.INTRA.REPUL>
0

>  <SCORE.INTRA.REPUL.0>
0

>  <SCORE.INTRA.SOLV>
1.12232

>  <SCORE.INTRA.SOLV.lig_0>
-53.6586

>  <SCORE.INTRA.VDW>
0.843632

>  <SCORE.INTRA.VDW.0>
-0.556525

>  <SCORE.INTRA.norm>
0.081462

>  <SCORE.RESTR>
0.00402956

>  <SCORE.RESTR.CAVITY>
0.00402956

>  <SCORE.RESTR.norm>
0.000366323

>  <SCORE.SYSTEM>
0

>  <SCORE.SYSTEM.CONST>
0

>  <SCORE.SYSTEM.DIHEDRAL>
0

>  <SCORE.SYSTEM.SOLV>
0

>  <SCORE.SYSTEM.norm>
0

>  <SCORE.heavy>
11

>  <SCORE.norm>
-2.06212

>  <RMSD>
2.611

$$$$

 OpenBabel11021811383D
libRbt.so/2013.1/901 2013/11/27
 11 10  0  0  0  0  0  0  0  0999 V2000
   -0.5308   -1.8646    2.6288 N   0  3  0  0  0  0  0  0  0  0  0  0
   -0.4526   -1.7253    1.1435 C   0  0  2  0  0  0  0  0  0  0  0  0
    0.2287   -0.3946    0.7819 C   0  0  0  0  0  0  0  0  0  0  0  0
    0.5690    0.3848    1.6519 O   0  0  0  0  0  0  0  0  0  0  0  0
   -1.8695   -1.7636    0.5553 C   0  0  0  0  0  0  0  0  0  0  0  0
   -1.7944   -2.0531   -0.9465 C   0  0  0  0  0  0  0  0  0  0  0  0
   -3.2071   -2.1619   -1.5165 C   0  0  0  0  0  0  0  0  0  0  0  0
   -3.1253   -2.5611   -2.9483 N   0  3  0  0  0  0  0  0  0  0  0  0
   -4.2072   -2.8898   -3.5996 C   0  0  0  0  0  0  0  0  0  0  0  0
   -4.5934   -2.1717   -4.6222 N   0  0  0  0  0  0  0  0  0  0  0  0
   -4.8972   -3.9388   -3.2330 N   0  0  0  0  0  0  0  0  0  0  0  0
  2  1  1  1  0  0  0
  2  3  1  0  0  0  0
  2  5  1  0  0  0  0
  3  4  2  0  0  0  0
  5  6  1  0  0  0  0
  6  7  1  0  0  0  0
  7  8  1  0  0  0  0
  8  9  2  0  0  0  0
  9 10  1  0  0  0  0
  9 11  1  0  0  0  0
M  CHG  2   1   1   8   1
M  END
>  <CHROM.1>
-179.81244060,-2.62103344,-162.76267179,177.11839180,-175.06876032,170.86712262
-2.17671895,-1.92542281,-0.89741749,0.51389301,0.81450725,2.11835498

>  <Name>


>  <RI>
224

>  <Rbt.Current_Directory>
/home/itssahil/PROJECTS/Mol_Feturizer/New_Systems/rnas/1aju

>  <Rbt.Executable>
rbdock ($Id: //depot/dev/client3/rdock/2013.1/src/exe/rbdock.cxx#4 $)

>  <Rbt.Library>
libRbt.so (2013.1, Build901 2013/11/27)

>  <Rbt.Parameter_File>
/export/apps/rDock/src/rDock_2013.1_src/data/scripts/dock_solv.prm

>  <Rbt.Receptor>
prm/pocket_docking_5.prm

>  <SCORE>
-18.2155

>  <SCORE.INTER>
-16.0073

>  <SCORE.INTER.CONST>
1

>  <SCORE.INTER.POLAR>
-2.48987

>  <SCORE.INTER.ROT>
5

>  <SCORE.INTER.SOLV>
13.7002

>  <SCORE.INTER.VDW>
-13.872

>  <SCORE.INTER.norm>
-1.45521

>  <SCORE.INTRA>
-2.2082

>  <SCORE.INTRA.DIHEDRAL>
-5.81055

>  <SCORE.INTRA.DIHEDRAL.0>
9.90185

>  <SCORE.INTRA.POLAR>
0

>  <SCORE.INTRA.POLAR.0>
0

>  <SCORE.INTRA.REPUL>
0

>  <SCORE.INTRA.REPUL.0>
0

>  <SCORE.INTRA.SOLV>
0.950228

>  <SCORE.INTRA.SOLV.lig_0>
-53.6586

>  <SCORE.INTRA.VDW>
0.221965

>  <SCORE.INTRA.VDW.0>
-0.556525

>  <SCORE.INTRA.norm>
-0.200745

>  <SCORE.RESTR>
0

>  <SCORE.RESTR.CAVITY>
0

>  <SCORE.RESTR.norm>
0

>  <SCORE.SYSTEM>
0

>  <SCORE.SYSTEM.CONST>
0

>  <SCORE.SYSTEM.DIHEDRAL>
0

>  <SCORE.SYSTEM.SOLV>
0

>  <SCORE.SYSTEM.norm>
0

>  <SCORE.heavy>
11

>  <SCORE.norm>
-1.65595

>  <RMSD>
2.612

$$$$

 OpenBabel11021811383D
libRbt.so/2013.1/901 2013/11/27
 11 10  0  0  0  0  0  0  0  0999 V2000
   -3.1679   -2.4922    2.2970 N   0  3  0  0  0  0  0  0  0  0  0  0
   -3.6253   -3.7374    1.6099 C   0  0  2  0  0  0  0  0  0  0  0  0
   -2.4652   -4.7444    1.5335 C   0  0  0  0  0  0  0  0  0  0  0  0
   -2.5908   -5.8706    1.9766 O   0  0  0  0  0  0  0  0  0  0  0  0
   -4.1081   -3.3882    0.1958 C   0  0  0  0  0  0  0  0  0  0  0  0
   -4.7878   -4.6089   -0.4309 C   0  0  0  0  0  0  0  0  0  0  0  0
   -4.4785   -4.6540   -1.9258 C   0  0  0  0  0  0  0  0  0  0  0  0
   -4.9317   -3.3837   -2.5556 N   0  3  0  0  0  0  0  0  0  0  0  0
   -4.1060   -2.6817   -3.2824 C   0  0  0  0  0  0  0  0  0  0  0  0
   -4.3539   -2.4983   -4.5534 N   0  0  0  0  0  0  0  0  0  0  0  0
   -3.0384   -2.1585   -2.7372 N   0  0  0  0  0  0  0  0  0  0  0  0
  2  1  1  6  0  0  0
  2  3  1  0  0  0  0
  2  5  1  0  0  0  0
  3  4  2  0  0  0  0
  5  6  1  0  0  0  0
  6  7  1  0  0  0  0
  7  8  1  0  0  0  0
  8  9  2  0  0  0  0
  9 10  1  0  0  0  0
  9 11  1  0  0  0  0
M  CHG  2   1   1   8   1
M  END
>  <CHROM.1>
-59.86304297,124.91975923,-170.81047295,-144.12850743,-57.28170122,127.11600099
-3.77039633,-3.62093554,-0.70655635,-0.92046731,-1.21848840,-0.67426261

>  <Name>


>  <RI>
0

>  <Rbt.Current_Directory>
/home/itssahil/PROJECTS/Mol_Feturizer/New_Systems/rnas/1aju

>  <Rbt.Executable>
rbdock ($Id: //depot/dev/client3/rdock/2013.1/src/exe/rbdock.cxx#4 $)

>  <Rbt.Library>
libRbt.so (2013.1, Build901 2013/11/27)

>  <Rbt.Parameter_File>
/export/apps/rDock/src/rDock_2013.1_src/data/scripts/dock_solv.prm

>  <Rbt.Receptor>
prm/pocket_docking_3.prm

>  <SCORE>
-14.352

>  <SCORE.INTER>
-13.6875

>  <SCORE.INTER.CONST>
1

>  <SCORE.INTER.POLAR>
-2.85603

>  <SCORE.INTER.ROT>
5

>  <SCORE.INTER.SOLV>
12.9814

>  <SCORE.INTER.VDW>
-10.8653

>  <SCORE.INTER.norm>
-1.24431

>  <SCORE.INTRA>
-0.67119

>  <SCORE.INTRA.DIHEDRAL>
-2.57947

>  <SCORE.INTRA.DIHEDRAL.0>
9.90185

>  <SCORE.INTRA.POLAR>
0

>  <SCORE.INTRA.POLAR.0>
0

>  <SCORE.INTRA.REPUL>
0

>  <SCORE.INTRA.REPUL.0>
0

>  <SCORE.INTRA.SOLV>
1.0755

>  <SCORE.INTRA.SOLV.lig_0>
-53.6586

>  <SCORE.INTRA.VDW>
0.0807956

>  <SCORE.INTRA.VDW.0>
-0.556525

>  <SCORE.INTRA.norm>
-0.0610173

>  <SCORE.RESTR>
0.00659204

>  <SCORE.RESTR.CAVITY>
0.00659204

>  <SCORE.RESTR.norm>
0.000599276

>  <SCORE.SYSTEM>
0

>  <SCORE.SYSTEM.CONST>
0

>  <SCORE.SYSTEM.DIHEDRAL>
0

>  <SCORE.SYSTEM.SOLV>
0

>  <SCORE.SYSTEM.norm>
0

>  <SCORE.heavy>
11

>  <SCORE.norm>
-1.30473

>  <RMSD>
2.635

$$$$

 OpenBabel11021811383D
libRbt.so/2013.1/901 2013/11/27
 11 10  0  0  0  0  0  0  0  0999 V2000
   -3.0359   -1.0091    2.9546 N   0  3  0  0  0  0  0  0  0  0  0  0
   -3.4305   -2.2730    2.2630 C   0  0  2  0  0  0  0  0  0  0  0  0
   -2.2064   -3.1943    2.1265 C   0  0  0  0  0  0  0  0  0  0  0  0
   -2.2007   -4.2985    2.6373 O   0  0  0  0  0  0  0  0  0  0  0  0
   -3.9896   -1.9378    0.8738 C   0  0  0  0  0  0  0  0  0  0  0  0
   -4.9491   -3.0438    0.4257 C   0  0  0  0  0  0  0  0  0  0  0  0
   -5.3769   -2.7941   -1.0190 C   0  0  0  0  0  0  0  0  0  0  0  0
   -4.2234   -3.0597   -1.9216 N   0  3  0  0  0  0  0  0  0  0  0  0
   -4.3057   -2.7723   -3.1917 C   0  0  0  0  0  0  0  0  0  0  0  0
   -3.5085   -1.8726   -3.7073 N   0  0  0  0  0  0  0  0  0  0  0  0
   -5.1786   -3.3887   -3.9459 N   0  0  0  0  0  0  0  0  0  0  0  0
  2  1  1  6  0  0  0
  2  3  1  0  0  0  0
  2  5  1  0  0  0  0
  3  4  2  0  0  0  0
  5  6  1  0  0  0  0
  6  7  1  0  0  0  0
  7  8  1  0  0  0  0
  8  9  2  0  0  0  0
  9 10  1  0  0  0  0
  9 11  1  0  0  0  0
M  CHG  2   1   1   8   1
M  END
>  <CHROM.1>
-60.99036565,119.61839466,-154.32068835,-173.40230936,71.09115029,-172.45835850
-3.83447922,-2.67775793,-0.22682189,0.67431445,-1.21139748,0.67025710

>  <Name>


>  <RI>
0

>  <Rbt.Current_Directory>
/home/itssahil/PROJECTS/Mol_Feturizer/New_Systems/rnas/1aju

>  <Rbt.Executable>
rbdock ($Id: //depot/dev/client3/rdock/2013.1/src/exe/rbdock.cxx#4 $)

>  <Rbt.Library>
libRbt.so (2013.1, Build901 2013/11/27)

>  <Rbt.Parameter_File>
/export/apps/rDock/src/rDock_2013.1_src/data/scripts/dock_solv.prm

>  <Rbt.Receptor>
prm/pocket_docking_4.prm

>  <SCORE>
-14.6554

>  <SCORE.INTER>
-12.4797

>  <SCORE.INTER.CONST>
1

>  <SCORE.INTER.POLAR>
-2.46357

>  <SCORE.INTER.ROT>
5

>  <SCORE.INTER.SOLV>
13.6278

>  <SCORE.INTER.VDW>
-11.5838

>  <SCORE.INTER.norm>
-1.13451

>  <SCORE.INTRA>
-2.20309

>  <SCORE.INTRA.DIHEDRAL>
-4.3412

>  <SCORE.INTRA.DIHEDRAL.0>
9.90185

>  <SCORE.INTRA.POLAR>
0

>  <SCORE.INTRA.POLAR.0>
0

>  <SCORE.INTRA.REPUL>
0

>  <SCORE.INTRA.REPUL.0>
0

>  <SCORE.INTRA.SOLV>
0.360948

>  <SCORE.INTRA.SOLV.lig_0>
-53.6586

>  <SCORE.INTRA.VDW>
-0.212967

>  <SCORE.INTRA.VDW.0>
-0.556525

>  <SCORE.INTRA.norm>
-0.200281

>  <SCORE.RESTR>
0.0273878

>  <SCORE.RESTR.CAVITY>
0.0273878

>  <SCORE.RESTR.norm>
0.0024898

>  <SCORE.SYSTEM>
0

>  <SCORE.SYSTEM.CONST>
0

>  <SCORE.SYSTEM.DIHEDRAL>
0

>  <SCORE.SYSTEM.SOLV>
0

>  <SCORE.SYSTEM.norm>
0

>  <SCORE.heavy>
11

>  <SCORE.norm>
-1.3323

>  <RMSD>
2.636

$$$$

 OpenBabel11021811383D
libRbt.so/2013.1/901 2013/11/27
 11 10  0  0  0  0  0  0  0  0999 V2000
    0.7364   -2.2969    2.3482 N   0  3  0  0  0  0  0  0  0  0  0  0
    0.4519   -1.6939    1.0113 C   0  0  2  0  0  0  0  0  0  0  0  0
    0.8438   -0.2066    1.0184 C   0  0  0  0  0  0  0  0  0  0  0  0
    0.8940    0.4269   -0.0191 O   0  0  0  0  0  0  0  0  0  0  0  0
   -1.0431   -1.8388    0.6974 C   0  0  0  0  0  0  0  0  0  0  0  0
   -1.2371   -2.0062   -0.8123 C   0  0  0  0  0  0  0  0  0  0  0  0
   -2.7279   -1.9732   -1.1422 C   0  0  0  0  0  0  0  0  0  0  0  0
   -2.9096   -2.2108   -2.6004 N   0  3  0  0  0  0  0  0  0  0  0  0
   -3.8754   -2.9794   -3.0236 C   0  0  0  0  0  0  0  0  0  0  0  0
   -4.8234   -2.4788   -3.7729 N   0  0  0  0  0  0  0  0  0  0  0  0
   -3.8890   -4.2476   -2.7038 N   0  0  0  0  0  0  0  0  0  0  0  0
  2  1  1  1  0  0  0
  2  3  1  0  0  0  0
  2  5  1  0  0  0  0
  3  4  2  0  0  0  0
  5  6  1  0  0  0  0
  6  7  1  0  0  0  0
  7  8  1  0  0  0  0
  8  9  2  0  0  0  0
  9 10  1  0  0  0  0
  9 11  1  0  0  0  0
M  CHG  2   1   1   8   1
M  END
>  <CHROM.1>
-178.51625007,168.44324199,-147.68559454,-172.90394389,-176.94161859,138.86541354
-1.59962970,-1.97213762,-0.81579406,0.14645039,0.77485207,2.51026246

>  <Name>


>  <RI>
224

>  <Rbt.Current_Directory>
/home/itssahil/PROJECTS/Mol_Feturizer/New_Systems/rnas/1aju

>  <Rbt.Executable>
rbdock ($Id: //depot/dev/client3/rdock/2013.1/src/exe/rbdock.cxx#4 $)

>  <Rbt.Library>
libRbt.so (2013.1, Build901 2013/11/27)

>  <Rbt.Parameter_File>
/export/apps/rDock/src/rDock_2013.1_src/data/scripts/dock_solv.prm

>  <Rbt.Receptor>
prm/pocket_docking_5.prm

>  <SCORE>
-18.5811

>  <SCORE.INTER>
-17.5395

>  <SCORE.INTER.CONST>
1

>  <SCORE.INTER.POLAR>
-2.79542

>  <SCORE.INTER.ROT>
5

>  <SCORE.INTER.SOLV>
14.2889

>  <SCORE.INTER.VDW>
-14.0712

>  <SCORE.INTER.norm>
-1.5945

>  <SCORE.INTRA>
-1.04162

>  <SCORE.INTRA.DIHEDRAL>
-1.28071

>  <SCORE.INTRA.DIHEDRAL.0>
9.90185

>  <SCORE.INTRA.POLAR>
0

>  <SCORE.INTRA.POLAR.0>
0

>  <SCORE.INTRA.REPUL>
0

>  <SCORE.INTRA.REPUL.0>
0

>  <SCORE.INTRA.SOLV>
-0.0877636

>  <SCORE.INTRA.SOLV.lig_0>
-53.6586

>  <SCORE.INTRA.VDW>
-0.357377

>  <SCORE.INTRA.VDW.0>
-0.556525

>  <SCORE.INTRA.norm>
-0.0946924

>  <SCORE.RESTR>
0

>  <SCORE.RESTR.CAVITY>
0

>  <SCORE.RESTR.norm>
0

>  <SCORE.SYSTEM>
0

>  <SCORE.SYSTEM.CONST>
0

>  <SCORE.SYSTEM.DIHEDRAL>
0

>  <SCORE.SYSTEM.SOLV>
0

>  <SCORE.SYSTEM.norm>
0

>  <SCORE.heavy>
11

>  <SCORE.norm>
-1.68919

>  <RMSD>
2.649

$$$$

 OpenBabel11021811383D
libRbt.so/2013.1/901 2013/11/27
 11 10  0  0  0  0  0  0  0  0999 V2000
   -0.0307   -2.1758    2.2834 N   0  3  0  0  0  0  0  0  0  0  0  0
   -0.2183   -1.5749    0.9286 C   0  0  2  0  0  0  0  0  0  0  0  0
    0.0742   -0.0659    0.9849 C   0  0  0  0  0  0  0  0  0  0  0  0
    0.6764    0.4836    0.0817 O   0  0  0  0  0  0  0  0  0  0  0  0
   -1.6620   -1.8104    0.4649 C   0  0  0  0  0  0  0  0  0  0  0  0
   -1.7071   -1.8681   -1.0647 C   0  0  0  0  0  0  0  0  0  0  0  0
   -3.1224   -2.2165   -1.5208 C   0  0  0  0  0  0  0  0  0  0  0  0
   -3.0872   -2.6196   -2.9533 N   0  3  0  0  0  0  0  0  0  0  0  0
   -4.1915   -2.9369   -3.5719 C   0  0  0  0  0  0  0  0  0  0  0  0
   -4.5988   -2.2164   -4.5847 N   0  0  0  0  0  0  0  0  0  0  0  0
   -4.8828   -3.9767   -3.1828 N   0  0  0  0  0  0  0  0  0  0  0  0
  2  1  1  1  0  0  0
  2  3  1  0  0  0  0
  2  5  1  0  0  0  0
  3  4  2  0  0  0  0
  5  6  1  0  0  0  0
  6  7  1  0  0  0  0
  7  8  1  0  0  0  0
  8  9  2  0  0  0  0
  9 10  1  0  0  0  0
  9 11  1  0  0  0  0
M  CHG  2   1   1   8   1
M  END
>  <CHROM.1>
57.30146086,140.03941835,-151.78845355,175.37628149,-165.28161682,-178.57530893
-2.06650444,-1.92169711,-1.10075552,0.38226012,0.79901652,2.23062993

>  <Name>


>  <RI>
0

>  <Rbt.Current_Directory>
/home/itssahil/PROJECTS/Mol_Feturizer/New_Systems/rnas/1aju

>  <Rbt.Executable>
rbdock ($Id: //depot/dev/client3/rdock/2013.1/src/exe/rbdock.cxx#4 $)

>  <Rbt.Library>
libRbt.so (2013.1, Build901 2013/11/27)

>  <Rbt.Parameter_File>
/export/apps/rDock/src/rDock_2013.1_src/data/scripts/dock_solv.prm

>  <Rbt.Receptor>
prm/pocket_docking_8.prm

>  <SCORE>
-23.0894

>  <SCORE.INTER>
-21.348

>  <SCORE.INTER.CONST>
1

>  <SCORE.INTER.POLAR>
-3.37727

>  <SCORE.INTER.ROT>
5

>  <SCORE.INTER.SOLV>
14.7973

>  <SCORE.INTER.VDW>
-14.8402

>  <SCORE.INTER.norm>
-1.94073

>  <SCORE.INTRA>
-1.74139

>  <SCORE.INTRA.DIHEDRAL>
-3.04258

>  <SCORE.INTRA.DIHEDRAL.0>
9.90185

>  <SCORE.INTRA.POLAR>
0

>  <SCORE.INTRA.POLAR.0>
0

>  <SCORE.INTRA.REPUL>
0

>  <SCORE.INTRA.REPUL.0>
0

>  <SCORE.INTRA.SOLV>
-0.188531

>  <SCORE.INTRA.SOLV.lig_0>
-53.6586

>  <SCORE.INTRA.VDW>
-0.125837

>  <SCORE.INTRA.VDW.0>
-0.556525

>  <SCORE.INTRA.norm>
-0.158309

>  <SCORE.RESTR>
0

>  <SCORE.RESTR.CAVITY>
0

>  <SCORE.RESTR.norm>
0

>  <SCORE.SYSTEM>
0

>  <SCORE.SYSTEM.CONST>
0

>  <SCORE.SYSTEM.DIHEDRAL>
0

>  <SCORE.SYSTEM.SOLV>
0

>  <SCORE.SYSTEM.norm>
0

>  <SCORE.heavy>
11

>  <SCORE.norm>
-2.09904

>  <RMSD>
2.649

$$$$

 OpenBabel11021811383D
libRbt.so/2013.1/901 2013/11/27
 11 10  0  0  0  0  0  0  0  0999 V2000
    0.3214   -2.2350    1.1217 N   0  3  0  0  0  0  0  0  0  0  0  0
   -0.5600   -1.0408    0.9521 C   0  0  2  0  0  0  0  0  0  0  0  0
   -0.6815   -0.2910    2.2896 C   0  0  0  0  0  0  0  0  0  0  0  0
   -0.4233   -0.8489    3.3395 O   0  0  0  0  0  0  0  0  0  0  0  0
   -1.9473   -1.4973    0.4811 C   0  0  0  0  0  0  0  0  0  0  0  0
   -1.8691   -1.9564   -0.9776 C   0  0  0  0  0  0  0  0  0  0  0  0
   -3.2747   -2.2549   -1.4949 C   0  0  0  0  0  0  0  0  0  0  0  0
   -3.1920   -2.6583   -2.9254 N   0  3  0  0  0  0  0  0  0  0  0  0
   -4.2803   -2.9177   -3.5969 C   0  0  0  0  0  0  0  0  0  0  0  0
   -4.6012   -2.1764   -4.6256 N   0  0  0  0  0  0  0  0  0  0  0  0
   -5.0421   -3.9208   -3.2444 N   0  0  0  0  0  0  0  0  0  0  0  0
  2  1  1  1  0  0  0
  2  3  1  0  0  0  0
  2  5  1  0  0  0  0
  3  4  2  0  0  0  0
  5  6  1  0  0  0  0
  6  7  1  0  0  0  0
  7  8  1  0  0  0  0
  8  9  2  0  0  0  0
  9 10  1  0  0  0  0
  9 11  1  0  0  0  0
M  CHG  2   1   1   8   1
M  END
>  <CHROM.1>
-171.58727517,-19.77144173,-72.15235250,-173.42657373,178.21333206,-177.57929185
-2.30993924,-2.01481070,-0.79437083,-0.93969697,0.34881559,-2.11931337

>  <Name>


>  <RI>
224

>  <Rbt.Current_Directory>
/home/itssahil/PROJECTS/Mol_Feturizer/New_Systems/rnas/1aju

>  <Rbt.Executable>
rbdock ($Id: //depot/dev/client3/rdock/2013.1/src/exe/rbdock.cxx#4 $)

>  <Rbt.Library>
libRbt.so (2013.1, Build901 2013/11/27)

>  <Rbt.Parameter_File>
/export/apps/rDock/src/rDock_2013.1_src/data/scripts/dock_solv.prm

>  <Rbt.Receptor>
prm/pocket_docking_5.prm

>  <SCORE>
-20.5472

>  <SCORE.INTER>
-18.8018

>  <SCORE.INTER.CONST>
1

>  <SCORE.INTER.POLAR>
-2.96586

>  <SCORE.INTER.ROT>
5

>  <SCORE.INTER.SOLV>
16.3632

>  <SCORE.INTER.VDW>
-15.0361

>  <SCORE.INTER.norm>
-1.70925

>  <SCORE.INTRA>
-1.7454

>  <SCORE.INTRA.DIHEDRAL>
-5.4335

>  <SCORE.INTRA.DIHEDRAL.0>
9.90185

>  <SCORE.INTRA.POLAR>
0

>  <SCORE.INTRA.POLAR.0>
0

>  <SCORE.INTRA.REPUL>
0

>  <SCORE.INTRA.REPUL.0>
0

>  <SCORE.INTRA.SOLV>
1.8858

>  <SCORE.INTRA.SOLV.lig_0>
-53.6586

>  <SCORE.INTRA.VDW>
0.0284511

>  <SCORE.INTRA.VDW.0>
-0.556525

>  <SCORE.INTRA.norm>
-0.158672

>  <SCORE.RESTR>
0

>  <SCORE.RESTR.CAVITY>
0

>  <SCORE.RESTR.norm>
0

>  <SCORE.SYSTEM>
0

>  <SCORE.SYSTEM.CONST>
0

>  <SCORE.SYSTEM.DIHEDRAL>
0

>  <SCORE.SYSTEM.SOLV>
0

>  <SCORE.SYSTEM.norm>
0

>  <SCORE.heavy>
11

>  <SCORE.norm>
-1.86793

>  <RMSD>
2.676

$$$$

 OpenBabel11021811383D
libRbt.so/2013.1/901 2013/11/27
 11 10  0  0  0  0  0  0  0  0999 V2000
   -4.9437   -3.5331    2.8775 N   0  3  0  0  0  0  0  0  0  0  0  0
   -3.9830   -4.1650    1.9239 C   0  0  2  0  0  0  0  0  0  0  0  0
   -3.2465   -5.3225    2.6194 C   0  0  0  0  0  0  0  0  0  0  0  0
   -3.3483   -6.4615    2.2040 O   0  0  0  0  0  0  0  0  0  0  0  0
   -2.9721   -3.1122    1.4503 C   0  0  0  0  0  0  0  0  0  0  0  0
   -3.5846   -2.2859    0.3158 C   0  0  0  0  0  0  0  0  0  0  0  0
   -3.6452   -3.1303   -0.9554 C   0  0  0  0  0  0  0  0  0  0  0  0
   -4.6908   -2.5765   -1.8587 N   0  3  0  0  0  0  0  0  0  0  0  0
   -4.5196   -2.6018   -3.1520 C   0  0  0  0  0  0  0  0  0  0  0  0
   -5.3356   -3.2964   -3.9020 N   0  0  0  0  0  0  0  0  0  0  0  0
   -3.5386   -1.9280   -3.6946 N   0  0  0  0  0  0  0  0  0  0  0  0
  2  1  1  1  0  0  0
  2  3  1  0  0  0  0
  2  5  1  0  0  0  0
  3  4  2  0  0  0  0
  5  6  1  0  0  0  0
  6  7  1  0  0  0  0
  7  8  1  0  0  0  0
  8  9  2  0  0  0  0
  9 10  1  0  0  0  0
  9 11  1  0  0  0  0
M  CHG  2   1   1   8   1
M  END
>  <CHROM.1>
62.17570055,118.63152678,-82.02286588,-72.92830612,157.34523500,144.60663557
-4.01498773,-3.49225047,-0.20369139,-0.40556993,-1.44981223,-0.04245314

>  <Name>


>  <RI>
0

>  <Rbt.Current_Directory>
/home/itssahil/PROJECTS/Mol_Feturizer/New_Systems/rnas/1aju

>  <Rbt.Executable>
rbdock ($Id: //depot/dev/client3/rdock/2013.1/src/exe/rbdock.cxx#4 $)

>  <Rbt.Library>
libRbt.so (2013.1, Build901 2013/11/27)

>  <Rbt.Parameter_File>
/export/apps/rDock/src/rDock_2013.1_src/data/scripts/dock_solv.prm

>  <Rbt.Receptor>
prm/pocket_docking_7.prm

>  <SCORE>
-15.9676

>  <SCORE.INTER>
-14.8881

>  <SCORE.INTER.CONST>
1

>  <SCORE.INTER.POLAR>
-3.32094

>  <SCORE.INTER.ROT>
5

>  <SCORE.INTER.SOLV>
16.2322

>  <SCORE.INTER.VDW>
-11.1997

>  <SCORE.INTER.norm>
-1.35346

>  <SCORE.INTRA>
-1.07952

>  <SCORE.INTRA.DIHEDRAL>
-2.96908

>  <SCORE.INTRA.DIHEDRAL.0>
9.90185

>  <SCORE.INTRA.POLAR>
0

>  <SCORE.INTRA.POLAR.0>
0

>  <SCORE.INTRA.REPUL>
0

>  <SCORE.INTRA.REPUL.0>
0

>  <SCORE.INTRA.SOLV>
1.06665

>  <SCORE.INTRA.SOLV.lig_0>
-53.6586

>  <SCORE.INTRA.VDW>
-0.128306

>  <SCORE.INTRA.VDW.0>
-0.556525

>  <SCORE.INTRA.norm>
-0.0981382

>  <SCORE.RESTR>
0

>  <SCORE.RESTR.CAVITY>
0

>  <SCORE.RESTR.norm>
0

>  <SCORE.SYSTEM>
0

>  <SCORE.SYSTEM.CONST>
0

>  <SCORE.SYSTEM.DIHEDRAL>
0

>  <SCORE.SYSTEM.SOLV>
0

>  <SCORE.SYSTEM.norm>
0

>  <SCORE.heavy>
11

>  <SCORE.norm>
-1.4516

>  <RMSD>
2.698

$$$$

 OpenBabel11021811383D
libRbt.so/2013.1/901 2013/11/27
 11 10  0  0  0  0  0  0  0  0999 V2000
   -2.7208   -0.0323    1.7785 N   0  3  0  0  0  0  0  0  0  0  0  0
   -1.7065   -1.1282    1.7326 C   0  0  2  0  0  0  0  0  0  0  0  0
   -0.4660   -0.6554    0.9559 C   0  0  0  0  0  0  0  0  0  0  0  0
    0.6363   -0.6841    1.4701 O   0  0  0  0  0  0  0  0  0  0  0  0
   -2.3175   -2.3560    1.0442 C   0  0  0  0  0  0  0  0  0  0  0  0
   -2.7690   -1.9803   -0.3700 C   0  0  0  0  0  0  0  0  0  0  0  0
   -3.5791   -3.1281   -0.9690 C   0  0  0  0  0  0  0  0  0  0  0  0
   -4.6408   -2.5677   -1.8492 N   0  3  0  0  0  0  0  0  0  0  0  0
   -4.4854   -2.5683   -3.1448 C   0  0  0  0  0  0  0  0  0  0  0  0
   -5.3046   -3.2566   -3.8970 N   0  0  0  0  0  0  0  0  0  0  0  0
   -3.5173   -1.8759   -3.6871 N   0  0  0  0  0  0  0  0  0  0  0  0
  2  1  1  6  0  0  0
  2  3  1  0  0  0  0
  2  5  1  0  0  0  0
  3  4  2  0  0  0  0
  5  6  1  0  0  0  0
  6  7  1  0  0  0  0
  7  8  1  0  0  0  0
  8  9  2  0  0  0  0
  9 10  1  0  0  0  0
  9 11  1  0  0  0  0
M  CHG  2   1   1   8   1
M  END
>  <CHROM.1>
-62.10688679,123.52630073,58.65104455,-170.75894000,146.11500512,101.45420731
-2.82319889,-1.80945569,-0.64251252,0.91901245,0.31027458,1.40342342

>  <Name>


>  <RI>
224

>  <Rbt.Current_Directory>
/home/itssahil/PROJECTS/Mol_Feturizer/New_Systems/rnas/1aju

>  <Rbt.Executable>
rbdock ($Id: //depot/dev/client3/rdock/2013.1/src/exe/rbdock.cxx#4 $)

>  <Rbt.Library>
libRbt.so (2013.1, Build901 2013/11/27)

>  <Rbt.Parameter_File>
/export/apps/rDock/src/rDock_2013.1_src/data/scripts/dock_solv.prm

>  <Rbt.Receptor>
prm/pocket_docking_5.prm

>  <SCORE>
-19.0094

>  <SCORE.INTER>
-18.9051

>  <SCORE.INTER.CONST>
1

>  <SCORE.INTER.POLAR>
-3.64259

>  <SCORE.INTER.ROT>
5

>  <SCORE.INTER.SOLV>
17.9399

>  <SCORE.INTER.VDW>
-13.3747

>  <SCORE.INTER.norm>
-1.71865

>  <SCORE.INTRA>
-0.104316

>  <SCORE.INTRA.DIHEDRAL>
-3.28517

>  <SCORE.INTRA.DIHEDRAL.0>
9.90185

>  <SCORE.INTRA.POLAR>
0

>  <SCORE.INTRA.POLAR.0>
0

>  <SCORE.INTRA.REPUL>
0

>  <SCORE.INTRA.REPUL.0>
0

>  <SCORE.INTRA.SOLV>
1.65349

>  <SCORE.INTRA.SOLV.lig_0>
-53.6586

>  <SCORE.INTRA.VDW>
0.711525

>  <SCORE.INTRA.VDW.0>
-0.556525

>  <SCORE.INTRA.norm>
-0.00948327

>  <SCORE.RESTR>
0

>  <SCORE.RESTR.CAVITY>
0

>  <SCORE.RESTR.norm>
0

>  <SCORE.SYSTEM>
0

>  <SCORE.SYSTEM.CONST>
0

>  <SCORE.SYSTEM.DIHEDRAL>
0

>  <SCORE.SYSTEM.SOLV>
0

>  <SCORE.SYSTEM.norm>
0

>  <SCORE.heavy>
11

>  <SCORE.norm>
-1.72813

>  <RMSD>
2.705

$$$$

 OpenBabel11021811383D
libRbt.so/2013.1/901 2013/11/27
 11 10  0  0  0  0  0  0  0  0999 V2000
   -2.4339   -0.0726    1.5346 N   0  3  0  0  0  0  0  0  0  0  0  0
   -2.4192   -1.5090    1.1246 C   0  0  2  0  0  0  0  0  0  0  0  0
   -1.1437   -1.8058    0.3179 C   0  0  0  0  0  0  0  0  0  0  0  0
   -0.4631   -0.8987   -0.1229 O   0  0  0  0  0  0  0  0  0  0  0  0
   -3.6587   -1.8050    0.2697 C   0  0  0  0  0  0  0  0  0  0  0  0
   -3.8831   -3.3181    0.1970 C   0  0  0  0  0  0  0  0  0  0  0  0
   -4.6927   -3.6546   -1.0535 C   0  0  0  0  0  0  0  0  0  0  0  0
   -3.7754   -3.7236   -2.2238 N   0  3  0  0  0  0  0  0  0  0  0  0
   -4.1097   -3.1604   -3.3524 C   0  0  0  0  0  0  0  0  0  0  0  0
   -3.3899   -2.1761   -3.8255 N   0  0  0  0  0  0  0  0  0  0  0  0
   -5.1574   -3.5857   -4.0097 N   0  0  0  0  0  0  0  0  0  0  0  0
  2  1  1  6  0  0  0
  2  3  1  0  0  0  0
  2  5  1  0  0  0  0
  3  4  2  0  0  0  0
  5  6  1  0  0  0  0
  6  7  1  0  0  0  0
  7  8  1  0  0  0  0
  8  9  2  0  0  0  0
  9 10  1  0  0  0  0
  9 11  1  0  0  0  0
M  CHG  2   1   1   8   1
M  END
>  <CHROM.1>
-148.12590461,-14.42344332,-163.11295352,-156.57748681,82.48074575,-135.67117702
-3.17839760,-2.29130688,-1.02972326,0.95128058,0.61527247,1.44641593

>  <Name>


>  <RI>
0

>  <Rbt.Current_Directory>
/home/itssahil/PROJECTS/Mol_Feturizer/New_Systems/rnas/1aju

>  <Rbt.Executable>
rbdock ($Id: //depot/dev/client3/rdock/2013.1/src/exe/rbdock.cxx#4 $)

>  <Rbt.Library>
libRbt.so (2013.1, Build901 2013/11/27)

>  <Rbt.Parameter_File>
/export/apps/rDock/src/rDock_2013.1_src/data/scripts/dock_solv.prm

>  <Rbt.Receptor>
prm/pocket_docking_3.prm

>  <SCORE>
-15.8294

>  <SCORE.INTER>
-17.5138

>  <SCORE.INTER.CONST>
1

>  <SCORE.INTER.POLAR>
-4.56988

>  <SCORE.INTER.ROT>
5

>  <SCORE.INTER.SOLV>
16.4437

>  <SCORE.INTER.VDW>
-8.85754

>  <SCORE.INTER.norm>
-1.59217

>  <SCORE.INTRA>
0.887581

>  <SCORE.INTRA.DIHEDRAL>
0.0241434

>  <SCORE.INTRA.DIHEDRAL.0>
9.90185

>  <SCORE.INTRA.POLAR>
0

>  <SCORE.INTRA.POLAR.0>
0

>  <SCORE.INTRA.REPUL>
0

>  <SCORE.INTRA.REPUL.0>
0

>  <SCORE.INTRA.SOLV>
1.55719

>  <SCORE.INTRA.SOLV.lig_0>
-53.6586

>  <SCORE.INTRA.VDW>
0.0969137

>  <SCORE.INTRA.VDW.0>
-0.556525

>  <SCORE.INTRA.norm>
0.0806892

>  <SCORE.RESTR>
0.796842

>  <SCORE.RESTR.CAVITY>
0.796842

>  <SCORE.RESTR.norm>
0.0724402

>  <SCORE.SYSTEM>
0

>  <SCORE.SYSTEM.CONST>
0

>  <SCORE.SYSTEM.DIHEDRAL>
0

>  <SCORE.SYSTEM.SOLV>
0

>  <SCORE.SYSTEM.norm>
0

>  <SCORE.heavy>
11

>  <SCORE.norm>
-1.43904

>  <RMSD>
2.731

$$$$

 OpenBabel11021811383D
libRbt.so/2013.1/901 2013/11/27
 11 10  0  0  0  0  0  0  0  0999 V2000
   -2.4184   -2.6049    2.1769 N   0  3  0  0  0  0  0  0  0  0  0  0
   -1.5117   -1.6753    1.4385 C   0  0  2  0  0  0  0  0  0  0  0  0
   -1.5001   -0.3020    2.1310 C   0  0  0  0  0  0  0  0  0  0  0  0
   -0.4565    0.1888    2.5186 O   0  0  0  0  0  0  0  0  0  0  0  0
   -2.0050   -1.5274   -0.0071 C   0  0  0  0  0  0  0  0  0  0  0  0
   -1.9185   -2.8798   -0.7201 C   0  0  0  0  0  0  0  0  0  0  0  0
   -2.3688   -2.7217   -2.1709 C   0  0  0  0  0  0  0  0  0  0  0  0
   -3.8156   -2.3722   -2.1966 N   0  3  0  0  0  0  0  0  0  0  0  0
   -4.5887   -2.8510   -3.1324 C   0  0  0  0  0  0  0  0  0  0  0  0
   -5.5782   -3.6450   -2.8145 N   0  0  0  0  0  0  0  0  0  0  0  0
   -4.3767   -2.5305   -4.3826 N   0  0  0  0  0  0  0  0  0  0  0  0
  2  1  1  1  0  0  0
  2  3  1  0  0  0  0
  2  5  1  0  0  0  0
  3  4  2  0  0  0  0
  5  6  1  0  0  0  0
  6  7  1  0  0  0  0
  7  8  1  0  0  0  0
  8  9  2  0  0  0  0
  9 10  1  0  0  0  0
  9 11  1  0  0  0  0
M  CHG  2   1   1   8   1
M  END
>  <CHROM.1>
63.92602094,123.08952241,-63.55567713,-178.25754921,-65.90515702,-143.11132692
-2.80547275,-2.09908283,-0.63804196,0.82119365,0.76331684,1.77839914

>  <Name>


>  <RI>
224

>  <Rbt.Current_Directory>
/home/itssahil/PROJECTS/Mol_Feturizer/New_Systems/rnas/1aju

>  <Rbt.Executable>
rbdock ($Id: //depot/dev/client3/rdock/2013.1/src/exe/rbdock.cxx#4 $)

>  <Rbt.Library>
libRbt.so (2013.1, Build901 2013/11/27)

>  <Rbt.Parameter_File>
/export/apps/rDock/src/rDock_2013.1_src/data/scripts/dock_solv.prm

>  <Rbt.Receptor>
prm/pocket_docking_5.prm

>  <SCORE>
-13.3812

>  <SCORE.INTER>
-10.913

>  <SCORE.INTER.CONST>
1

>  <SCORE.INTER.POLAR>
-1.5472

>  <SCORE.INTER.ROT>
5

>  <SCORE.INTER.SOLV>
12.5935

>  <SCORE.INTER.VDW>
-13.2491

>  <SCORE.INTER.norm>
-0.992089

>  <SCORE.INTRA>
-2.46823

>  <SCORE.INTRA.DIHEDRAL>
-6.75585

>  <SCORE.INTRA.DIHEDRAL.0>
9.90185

>  <SCORE.INTRA.POLAR>
0

>  <SCORE.INTRA.POLAR.0>
0

>  <SCORE.INTRA.REPUL>
0

>  <SCORE.INTRA.REPUL.0>
0

>  <SCORE.INTRA.SOLV>
1.48305

>  <SCORE.INTRA.SOLV.lig_0>
-53.6586

>  <SCORE.INTRA.VDW>
0.168168

>  <SCORE.INTRA.VDW.0>
-0.556525

>  <SCORE.INTRA.norm>
-0.224385

>  <SCORE.RESTR>
0

>  <SCORE.RESTR.CAVITY>
0

>  <SCORE.RESTR.norm>
0

>  <SCORE.SYSTEM>
0

>  <SCORE.SYSTEM.CONST>
0

>  <SCORE.SYSTEM.DIHEDRAL>
0

>  <SCORE.SYSTEM.SOLV>
0

>  <SCORE.SYSTEM.norm>
0

>  <SCORE.heavy>
11

>  <SCORE.norm>
-1.21647

>  <RMSD>
2.732

$$$$

 OpenBabel11021811383D
libRbt.so/2013.1/901 2013/11/27
 11 10  0  0  0  0  0  0  0  0999 V2000
   -3.5009   -3.0382    2.5983 N   0  3  0  0  0  0  0  0  0  0  0  0
   -2.8221   -3.3460    1.3036 C   0  0  2  0  0  0  0  0  0  0  0  0
   -1.9863   -2.1353    0.8548 C   0  0  0  0  0  0  0  0  0  0  0  0
   -2.1072   -1.6792   -0.2666 O   0  0  0  0  0  0  0  0  0  0  0  0
   -3.8803   -3.6729    0.2414 C   0  0  0  0  0  0  0  0  0  0  0  0
   -3.2178   -4.3845   -0.9416 C   0  0  0  0  0  0  0  0  0  0  0  0
   -4.2739   -4.7172   -1.9936 C   0  0  0  0  0  0  0  0  0  0  0  0
   -4.8129   -3.4507   -2.5603 N   0  3  0  0  0  0  0  0  0  0  0  0
   -4.0555   -2.6907   -3.3029 C   0  0  0  0  0  0  0  0  0  0  0  0
   -4.3734   -2.4811   -4.5542 N   0  0  0  0  0  0  0  0  0  0  0  0
   -2.9865   -2.1359   -2.7930 N   0  0  0  0  0  0  0  0  0  0  0  0
  2  1  1  1  0  0  0
  2  3  1  0  0  0  0
  2  5  1  0  0  0  0
  3  4  2  0  0  0  0
  5  6  1  0  0  0  0
  6  7  1  0  0  0  0
  7  8  1  0  0  0  0
  8  9  2  0  0  0  0
  9 10  1  0  0  0  0
  9 11  1  0  0  0  0
M  CHG  2   1   1   8   1
M  END
>  <CHROM.1>
177.32807977,-128.51930635,-163.16370857,179.63415680,65.64277494,68.42439878
-3.46520167,-3.03452156,-1.02992454,1.18290657,0.89746110,1.88490658

>  <Name>


>  <RI>
0

>  <Rbt.Current_Directory>
/home/itssahil/PROJECTS/Mol_Feturizer/New_Systems/rnas/1aju

>  <Rbt.Executable>
rbdock ($Id: //depot/dev/client3/rdock/2013.1/src/exe/rbdock.cxx#4 $)

>  <Rbt.Library>
libRbt.so (2013.1, Build901 2013/11/27)

>  <Rbt.Parameter_File>
/export/apps/rDock/src/rDock_2013.1_src/data/scripts/dock_solv.prm

>  <Rbt.Receptor>
prm/pocket_docking_3.prm

>  <SCORE>
-16.4737

>  <SCORE.INTER>
-13.8452

>  <SCORE.INTER.CONST>
1

>  <SCORE.INTER.POLAR>
-2.72025

>  <SCORE.INTER.ROT>
5

>  <SCORE.INTER.SOLV>
13.0653

>  <SCORE.INTER.VDW>
-11.4511

>  <SCORE.INTER.norm>
-1.25865

>  <SCORE.INTRA>
-2.6285

>  <SCORE.INTRA.DIHEDRAL>
-5.76973

>  <SCORE.INTRA.DIHEDRAL.0>
9.90185

>  <SCORE.INTRA.POLAR>
-1.07587

>  <SCORE.INTRA.POLAR.0>
0

>  <SCORE.INTRA.REPUL>
0

>  <SCORE.INTRA.REPUL.0>
0

>  <SCORE.INTRA.SOLV>
3.11493

>  <SCORE.INTRA.SOLV.lig_0>
-53.6586

>  <SCORE.INTRA.VDW>
2.35687

>  <SCORE.INTRA.VDW.0>
-0.556525

>  <SCORE.INTRA.norm>
-0.238955

>  <SCORE.RESTR>
0

>  <SCORE.RESTR.CAVITY>
0

>  <SCORE.RESTR.norm>
0

>  <SCORE.SYSTEM>
0

>  <SCORE.SYSTEM.CONST>
0

>  <SCORE.SYSTEM.DIHEDRAL>
0

>  <SCORE.SYSTEM.SOLV>
0

>  <SCORE.SYSTEM.norm>
0

>  <SCORE.heavy>
11

>  <SCORE.norm>
-1.49761

>  <RMSD>
2.739

$$$$

 OpenBabel11021811383D
libRbt.so/2013.1/901 2013/11/27
 11 10  0  0  0  0  0  0  0  0999 V2000
   -0.9512   -5.1324    0.4616 N   0  3  0  0  0  0  0  0  0  0  0  0
   -2.1875   -5.8360    0.9177 C   0  0  2  0  0  0  0  0  0  0  0  0
   -1.8126   -7.1866    1.5510 C   0  0  0  0  0  0  0  0  0  0  0  0
   -2.1164   -7.4380    2.7020 O   0  0  0  0  0  0  0  0  0  0  0  0
   -3.1150   -6.0618   -0.2838 C   0  0  0  0  0  0  0  0  0  0  0  0
   -3.7064   -4.7233   -0.7348 C   0  0  0  0  0  0  0  0  0  0  0  0
   -4.5147   -4.9276   -2.0144 C   0  0  0  0  0  0  0  0  0  0  0  0
   -4.9196   -3.5998   -2.5521 N   0  3  0  0  0  0  0  0  0  0  0  0
   -4.0764   -2.8919   -3.2526 C   0  0  0  0  0  0  0  0  0  0  0  0
   -4.3415   -2.6161   -4.5033 N   0  0  0  0  0  0  0  0  0  0  0  0
   -2.9740   -2.4547   -2.7009 N   0  0  0  0  0  0  0  0  0  0  0  0
  2  1  1  6  0  0  0
  2  3  1  0  0  0  0
  2  5  1  0  0  0  0
  3  4  2  0  0  0  0
  5  6  1  0  0  0  0
  6  7  1  0  0  0  0
  7  8  1  0  0  0  0
  8  9  2  0  0  0  0
  9 10  1  0  0  0  0
  9 11  1  0  0  0  0
M  CHG  2   1   1   8   1
M  END
>  <CHROM.1>
65.08555625,121.29834213,-70.76438155,174.27993113,-171.90714993,80.91103459
-3.12444633,-4.77466506,-0.95382347,-1.19295321,-0.39149323,-0.78078088

>  <Name>


>  <RI>
224

>  <Rbt.Current_Directory>
/home/itssahil/PROJECTS/Mol_Feturizer/New_Systems/rnas/1aju

>  <Rbt.Executable>
rbdock ($Id: //depot/dev/client3/rdock/2013.1/src/exe/rbdock.cxx#4 $)

>  <Rbt.Library>
libRbt.so (2013.1, Build901 2013/11/27)

>  <Rbt.Parameter_File>
/export/apps/rDock/src/rDock_2013.1_src/data/scripts/dock_solv.prm

>  <Rbt.Receptor>
prm/pocket_docking_5.prm

>  <SCORE>
-15.2503

>  <SCORE.INTER>
-13.3073

>  <SCORE.INTER.CONST>
1

>  <SCORE.INTER.POLAR>
-2.96715

>  <SCORE.INTER.ROT>
5

>  <SCORE.INTER.SOLV>
12.9228

>  <SCORE.INTER.VDW>
-10.222

>  <SCORE.INTER.norm>
-1.20976

>  <SCORE.INTRA>
-1.94296

>  <SCORE.INTRA.DIHEDRAL>
-6.155

>  <SCORE.INTRA.DIHEDRAL.0>
9.90185

>  <SCORE.INTRA.POLAR>
0

>  <SCORE.INTRA.POLAR.0>
0

>  <SCORE.INTRA.REPUL>
0

>  <SCORE.INTRA.REPUL.0>
0

>  <SCORE.INTRA.SOLV>
2.08116

>  <SCORE.INTRA.SOLV.lig_0>
-53.6586

>  <SCORE.INTRA.VDW>
0.0939644

>  <SCORE.INTRA.VDW.0>
-0.556525

>  <SCORE.INTRA.norm>
-0.176632

>  <SCORE.RESTR>
0

>  <SCORE.RESTR.CAVITY>
0

>  <SCORE.RESTR.norm>
0

>  <SCORE.SYSTEM>
0

>  <SCORE.SYSTEM.CONST>
0

>  <SCORE.SYSTEM.DIHEDRAL>
0

>  <SCORE.SYSTEM.SOLV>
0

>  <SCORE.SYSTEM.norm>
0

>  <SCORE.heavy>
11

>  <SCORE.norm>
-1.38639

>  <RMSD>
2.744

$$$$

 OpenBabel11021811383D
libRbt.so/2013.1/901 2013/11/27
 11 10  0  0  0  0  0  0  0  0999 V2000
    0.3200   -2.5320    1.0756 N   0  3  0  0  0  0  0  0  0  0  0  0
   -0.3665   -1.2985    0.5870 C   0  0  2  0  0  0  0  0  0  0  0  0
   -0.7549   -0.4121    1.7825 C   0  0  0  0  0  0  0  0  0  0  0  0
   -0.3978    0.7497    1.8354 O   0  0  0  0  0  0  0  0  0  0  0  0
   -1.6232   -1.6952   -0.1993 C   0  0  0  0  0  0  0  0  0  0  0  0
   -1.2213   -2.5036   -1.4362 C   0  0  0  0  0  0  0  0  0  0  0  0
   -2.3139   -3.5208   -1.7584 C   0  0  0  0  0  0  0  0  0  0  0  0
   -3.6139   -2.8101   -1.9027 N   0  3  0  0  0  0  0  0  0  0  0  0
   -4.2025   -2.7506   -3.0658 C   0  0  0  0  0  0  0  0  0  0  0  0
   -5.3723   -3.3117   -3.2314 N   0  0  0  0  0  0  0  0  0  0  0  0
   -3.6253   -2.1251   -4.0589 N   0  0  0  0  0  0  0  0  0  0  0  0
  2  1  1  1  0  0  0
  2  3  1  0  0  0  0
  2  5  1  0  0  0  0
  3  4  2  0  0  0  0
  5  6  1  0  0  0  0
  6  7  1  0  0  0  0
  7  8  1  0  0  0  0
  8  9  2  0  0  0  0
  9 10  1  0  0  0  0
  9 11  1  0  0  0  0
M  CHG  2   1   1   8   1
M  END
>  <CHROM.1>
-179.28087832,125.24442988,-63.04029026,148.13669065,54.88010787,112.75460577
-2.10446065,-2.02480094,-0.94261623,-0.68356718,0.64703776,-2.64322870

>  <Name>


>  <RI>
224

>  <Rbt.Current_Directory>
/home/itssahil/PROJECTS/Mol_Feturizer/New_Systems/rnas/1aju

>  <Rbt.Executable>
rbdock ($Id: //depot/dev/client3/rdock/2013.1/src/exe/rbdock.cxx#4 $)

>  <Rbt.Library>
libRbt.so (2013.1, Build901 2013/11/27)

>  <Rbt.Parameter_File>
/export/apps/rDock/src/rDock_2013.1_src/data/scripts/dock_solv.prm

>  <Rbt.Receptor>
prm/pocket_docking_5.prm

>  <SCORE>
-18.0327

>  <SCORE.INTER>
-17.5512

>  <SCORE.INTER.CONST>
1

>  <SCORE.INTER.POLAR>
-2.69093

>  <SCORE.INTER.ROT>
5

>  <SCORE.INTER.SOLV>
16.2635

>  <SCORE.INTER.VDW>
-15.0855

>  <SCORE.INTER.norm>
-1.59556

>  <SCORE.INTRA>
-0.481508

>  <SCORE.INTRA.DIHEDRAL>
-3.42878

>  <SCORE.INTRA.DIHEDRAL.0>
9.90185

>  <SCORE.INTRA.POLAR>
0

>  <SCORE.INTRA.POLAR.0>
0

>  <SCORE.INTRA.REPUL>
0

>  <SCORE.INTRA.REPUL.0>
0

>  <SCORE.INTRA.SOLV>
2.16284

>  <SCORE.INTRA.SOLV.lig_0>
-53.6586

>  <SCORE.INTRA.VDW>
0.151462

>  <SCORE.INTRA.VDW.0>
-0.556525

>  <SCORE.INTRA.norm>
-0.0437735

>  <SCORE.RESTR>
0

>  <SCORE.RESTR.CAVITY>
0

>  <SCORE.RESTR.norm>
0

>  <SCORE.SYSTEM>
0

>  <SCORE.SYSTEM.CONST>
0

>  <SCORE.SYSTEM.DIHEDRAL>
0

>  <SCORE.SYSTEM.SOLV>
0

>  <SCORE.SYSTEM.norm>
0

>  <SCORE.heavy>
11

>  <SCORE.norm>
-1.63933

>  <RMSD>
2.768

$$$$

 OpenBabel11021811383D
libRbt.so/2013.1/901 2013/11/27
 11 10  0  0  0  0  0  0  0  0999 V2000
   -2.7019   -4.0191    2.4837 N   0  3  0  0  0  0  0  0  0  0  0  0
   -2.8047   -2.8034    1.6217 C   0  0  2  0  0  0  0  0  0  0  0  0
   -4.2093   -2.1906    1.7534 C   0  0  0  0  0  0  0  0  0  0  0  0
   -4.9369   -2.0920    0.7833 O   0  0  0  0  0  0  0  0  0  0  0  0
   -2.5397   -3.1933    0.1614 C   0  0  0  0  0  0  0  0  0  0  0  0
   -2.2717   -1.9330   -0.6662 C   0  0  0  0  0  0  0  0  0  0  0  0
   -2.7296   -2.1604   -2.1053 C   0  0  0  0  0  0  0  0  0  0  0  0
   -4.1990   -2.3988   -2.1171 N   0  3  0  0  0  0  0  0  0  0  0  0
   -4.7688   -2.9259   -3.1660 C   0  0  0  0  0  0  0  0  0  0  0  0
   -5.3609   -4.0880   -3.0687 N   0  0  0  0  0  0  0  0  0  0  0  0
   -4.7524   -2.2884   -4.3080 N   0  0  0  0  0  0  0  0  0  0  0  0
  2  1  1  1  0  0  0
  2  3  1  0  0  0  0
  2  5  1  0  0  0  0
  3  4  2  0  0  0  0
  5  6  1  0  0  0  0
  6  7  1  0  0  0  0
  7  8  1  0  0  0  0
  8  9  2  0  0  0  0
  9 10  1  0  0  0  0
  9 11  1  0  0  0  0
M  CHG  2   1   1   8   1
M  END
>  <CHROM.1>
59.41907091,-119.20515883,-164.96841237,-150.22099387,62.61482981,-163.67036567
-3.77846876,-2.76805238,-0.78172118,1.26793695,0.29474879,1.70396244

>  <Name>


>  <RI>
0

>  <Rbt.Current_Directory>
/home/itssahil/PROJECTS/Mol_Feturizer/New_Systems/rnas/1aju

>  <Rbt.Executable>
rbdock ($Id: //depot/dev/client3/rdock/2013.1/src/exe/rbdock.cxx#4 $)

>  <Rbt.Library>
libRbt.so (2013.1, Build901 2013/11/27)

>  <Rbt.Parameter_File>
/export/apps/rDock/src/rDock_2013.1_src/data/scripts/dock_solv.prm

>  <Rbt.Receptor>
prm/pocket_docking_6.prm

>  <SCORE>
-14.4355

>  <SCORE.INTER>
-10.8117

>  <SCORE.INTER.CONST>
1

>  <SCORE.INTER.POLAR>
-1.40211

>  <SCORE.INTER.ROT>
5

>  <SCORE.INTER.SOLV>
12.8468

>  <SCORE.INTER.VDW>
-13.7497

>  <SCORE.INTER.norm>
-0.982881

>  <SCORE.INTRA>
-3.62378

>  <SCORE.INTRA.DIHEDRAL>
-3.18019

>  <SCORE.INTRA.DIHEDRAL.0>
9.90185

>  <SCORE.INTRA.POLAR>
-1.06389

>  <SCORE.INTRA.POLAR.0>
0

>  <SCORE.INTRA.REPUL>
0

>  <SCORE.INTRA.REPUL.0>
0

>  <SCORE.INTRA.SOLV>
1.65374

>  <SCORE.INTRA.SOLV.lig_0>
-53.6586

>  <SCORE.INTRA.VDW>
0.756671

>  <SCORE.INTRA.VDW.0>
-0.556525

>  <SCORE.INTRA.norm>
-0.329434

>  <SCORE.RESTR>
0

>  <SCORE.RESTR.CAVITY>
0

>  <SCORE.RESTR.norm>
0

>  <SCORE.SYSTEM>
0

>  <SCORE.SYSTEM.CONST>
0

>  <SCORE.SYSTEM.DIHEDRAL>
0

>  <SCORE.SYSTEM.SOLV>
0

>  <SCORE.SYSTEM.norm>
0

>  <SCORE.heavy>
11

>  <SCORE.norm>
-1.31231

>  <RMSD>
2.773

$$$$

 OpenBabel11021811383D
libRbt.so/2013.1/901 2013/11/27
 11 10  0  0  0  0  0  0  0  0999 V2000
   -4.0729   -2.0895    2.1034 N   0  3  0  0  0  0  0  0  0  0  0  0
   -3.5283   -3.4630    1.8828 C   0  0  2  0  0  0  0  0  0  0  0  0
   -2.1591   -3.5954    2.5709 C   0  0  0  0  0  0  0  0  0  0  0  0
   -1.9382   -4.5100    3.3423 O   0  0  0  0  0  0  0  0  0  0  0  0
   -3.3823   -3.7147    0.3761 C   0  0  0  0  0  0  0  0  0  0  0  0
   -4.7162   -4.2048   -0.1943 C   0  0  0  0  0  0  0  0  0  0  0  0
   -4.5625   -4.4785   -1.6890 C   0  0  0  0  0  0  0  0  0  0  0  0
   -4.9383   -3.2552   -2.4494 N   0  3  0  0  0  0  0  0  0  0  0  0
   -4.0597   -2.6602   -3.2088 C   0  0  0  0  0  0  0  0  0  0  0  0
   -4.2596   -2.5870   -4.4993 N   0  0  0  0  0  0  0  0  0  0  0  0
   -2.9871   -2.1331   -2.6774 N   0  0  0  0  0  0  0  0  0  0  0  0
  2  1  1  6  0  0  0
  2  3  1  0  0  0  0
  2  5  1  0  0  0  0
  3  4  2  0  0  0  0
  5  6  1  0  0  0  0
  6  7  1  0  0  0  0
  7  8  1  0  0  0  0
  8  9  2  0  0  0  0
  9 10  1  0  0  0  0
  9 11  1  0  0  0  0
M  CHG  2   1   1   8   1
M  END
>  <CHROM.1>
-43.33140286,127.37433372,-84.89466062,-178.99980143,-92.43438158,118.60403796
-3.69288604,-3.29677079,-0.40278421,-1.22909271,-0.81746452,-1.18034902

>  <Name>


>  <RI>
0

>  <Rbt.Current_Directory>
/home/itssahil/PROJECTS/Mol_Feturizer/New_Systems/rnas/1aju

>  <Rbt.Executable>
rbdock ($Id: //depot/dev/client3/rdock/2013.1/src/exe/rbdock.cxx#4 $)

>  <Rbt.Library>
libRbt.so (2013.1, Build901 2013/11/27)

>  <Rbt.Parameter_File>
/export/apps/rDock/src/rDock_2013.1_src/data/scripts/dock_solv.prm

>  <Rbt.Receptor>
prm/pocket_docking_4.prm

>  <SCORE>
-17.979

>  <SCORE.INTER>
-17.5189

>  <SCORE.INTER.CONST>
1

>  <SCORE.INTER.POLAR>
-3.87847

>  <SCORE.INTER.ROT>
5

>  <SCORE.INTER.SOLV>
14.9054

>  <SCORE.INTER.VDW>
-10.6528

>  <SCORE.INTER.norm>
-1.59262

>  <SCORE.INTRA>
-0.460174

>  <SCORE.INTRA.DIHEDRAL>
-1.2084

>  <SCORE.INTRA.DIHEDRAL.0>
9.90185

>  <SCORE.INTRA.POLAR>
0

>  <SCORE.INTRA.POLAR.0>
0

>  <SCORE.INTRA.REPUL>
0

>  <SCORE.INTRA.REPUL.0>
0

>  <SCORE.INTRA.SOLV>
1.62623

>  <SCORE.INTRA.SOLV.lig_0>
-53.6586

>  <SCORE.INTRA.VDW>
-0.66909

>  <SCORE.INTRA.VDW.0>
-0.556525

>  <SCORE.INTRA.norm>
-0.041834

>  <SCORE.RESTR>
0

>  <SCORE.RESTR.CAVITY>
0

>  <SCORE.RESTR.norm>
0

>  <SCORE.SYSTEM>
0

>  <SCORE.SYSTEM.CONST>
0

>  <SCORE.SYSTEM.DIHEDRAL>
0

>  <SCORE.SYSTEM.SOLV>
0

>  <SCORE.SYSTEM.norm>
0

>  <SCORE.heavy>
11

>  <SCORE.norm>
-1.63446

>  <RMSD>
2.781

$$$$

 OpenBabel11021811383D
libRbt.so/2013.1/901 2013/11/27
 11 10  0  0  0  0  0  0  0  0999 V2000
   -5.0360   -3.6625    2.9650 N   0  3  0  0  0  0  0  0  0  0  0  0
   -4.5409   -4.1225    1.6327 C   0  0  2  0  0  0  0  0  0  0  0  0
   -3.3727   -5.1046    1.8235 C   0  0  0  0  0  0  0  0  0  0  0  0
   -3.3958   -6.2048    1.3046 O   0  0  0  0  0  0  0  0  0  0  0  0
   -4.0750   -2.9083    0.8181 C   0  0  0  0  0  0  0  0  0  0  0  0
   -3.8017   -3.3338   -0.6273 C   0  0  0  0  0  0  0  0  0  0  0  0
   -3.4595   -2.1038   -1.4655 C   0  0  0  0  0  0  0  0  0  0  0  0
   -3.2702   -2.5174   -2.8829 N   0  3  0  0  0  0  0  0  0  0  0  0
   -4.3011   -2.8440   -3.6132 C   0  0  0  0  0  0  0  0  0  0  0  0
   -4.6006   -2.1328   -4.6693 N   0  0  0  0  0  0  0  0  0  0  0  0
   -5.0263   -3.8839   -3.2919 N   0  0  0  0  0  0  0  0  0  0  0  0
  2  1  1  1  0  0  0
  2  3  1  0  0  0  0
  2  5  1  0  0  0  0
  3  4  2  0  0  0  0
  5  6  1  0  0  0  0
  6  7  1  0  0  0  0
  7  8  1  0  0  0  0
  8  9  2  0  0  0  0
  9 10  1  0  0  0  0
  9 11  1  0  0  0  0
M  CHG  2   1   1   8   1
M  END
>  <CHROM.1>
61.02088698,126.38869072,-170.00593236,174.96564098,-176.87625622,73.23308517
-4.10291317,-3.53984310,-0.72267103,1.44265159,-1.40203326,1.76753597

>  <Name>


>  <RI>
0

>  <Rbt.Current_Directory>
/home/itssahil/PROJECTS/Mol_Feturizer/New_Systems/rnas/1aju

>  <Rbt.Executable>
rbdock ($Id: //depot/dev/client3/rdock/2013.1/src/exe/rbdock.cxx#4 $)

>  <Rbt.Library>
libRbt.so (2013.1, Build901 2013/11/27)

>  <Rbt.Parameter_File>
/export/apps/rDock/src/rDock_2013.1_src/data/scripts/dock_solv.prm

>  <Rbt.Receptor>
prm/pocket_docking_8.prm

>  <SCORE>
-18.6722

>  <SCORE.INTER>
-16.9202

>  <SCORE.INTER.CONST>
1

>  <SCORE.INTER.POLAR>
-3.39105

>  <SCORE.INTER.ROT>
5

>  <SCORE.INTER.SOLV>
14.3846

>  <SCORE.INTER.VDW>
-11.7048

>  <SCORE.INTER.norm>
-1.5382

>  <SCORE.INTRA>
-1.75198

>  <SCORE.INTRA.DIHEDRAL>
-6.41421

>  <SCORE.INTRA.DIHEDRAL.0>
9.90185

>  <SCORE.INTRA.POLAR>
0

>  <SCORE.INTRA.POLAR.0>
0

>  <SCORE.INTRA.REPUL>
0

>  <SCORE.INTRA.REPUL.0>
0

>  <SCORE.INTRA.SOLV>
0.604073

>  <SCORE.INTRA.SOLV.lig_0>
-53.6586

>  <SCORE.INTRA.VDW>
1.15308

>  <SCORE.INTRA.VDW.0>
-0.556525

>  <SCORE.INTRA.norm>
-0.159271

>  <SCORE.RESTR>
0

>  <SCORE.RESTR.CAVITY>
0

>  <SCORE.RESTR.norm>
0

>  <SCORE.SYSTEM>
0

>  <SCORE.SYSTEM.CONST>
0

>  <SCORE.SYSTEM.DIHEDRAL>
0

>  <SCORE.SYSTEM.SOLV>
0

>  <SCORE.SYSTEM.norm>
0

>  <SCORE.heavy>
11

>  <SCORE.norm>
-1.69747

>  <RMSD>
2.781

$$$$

 OpenBabel11021811383D
libRbt.so/2013.1/901 2013/11/27
 11 10  0  0  0  0  0  0  0  0999 V2000
   -4.1346   -1.0862    1.8413 N   0  3  0  0  0  0  0  0  0  0  0  0
   -3.6756   -2.4494    1.4377 C   0  0  2  0  0  0  0  0  0  0  0  0
   -3.6188   -3.3649    2.6724 C   0  0  0  0  0  0  0  0  0  0  0  0
   -4.2327   -4.4152    2.6949 O   0  0  0  0  0  0  0  0  0  0  0  0
   -2.2843   -2.3474    0.7984 C   0  0  0  0  0  0  0  0  0  0  0  0
   -2.3280   -2.9207   -0.6208 C   0  0  0  0  0  0  0  0  0  0  0  0
   -3.2832   -2.0919   -1.4770 C   0  0  0  0  0  0  0  0  0  0  0  0
   -3.1881   -2.5458   -2.8915 N   0  3  0  0  0  0  0  0  0  0  0  0
   -4.2634   -2.9037   -3.5383 C   0  0  0  0  0  0  0  0  0  0  0  0
   -4.6437   -2.2272   -4.5912 N   0  0  0  0  0  0  0  0  0  0  0  0
   -4.9527   -3.9403   -3.1371 N   0  0  0  0  0  0  0  0  0  0  0  0
  2  1  1  1  0  0  0
  2  3  1  0  0  0  0
  2  5  1  0  0  0  0
  3  4  2  0  0  0  0
  5  6  1  0  0  0  0
  6  7  1  0  0  0  0
  7  8  1  0  0  0  0
  8  9  2  0  0  0  0
  9 10  1  0  0  0  0
  9 11  1  0  0  0  0
M  CHG  2   1   1   8   1
M  END
>  <CHROM.1>
179.54008135,124.23302715,-122.09689569,62.53172225,172.85068008,125.98382521
-3.72579772,-2.74209286,-0.62825943,-1.38675065,-1.00734012,-1.39379372

>  <Name>


>  <RI>
0

>  <Rbt.Current_Directory>
/home/itssahil/PROJECTS/Mol_Feturizer/New_Systems/rnas/1aju

>  <Rbt.Executable>
rbdock ($Id: //depot/dev/client3/rdock/2013.1/src/exe/rbdock.cxx#4 $)

>  <Rbt.Library>
libRbt.so (2013.1, Build901 2013/11/27)

>  <Rbt.Parameter_File>
/export/apps/rDock/src/rDock_2013.1_src/data/scripts/dock_solv.prm

>  <Rbt.Receptor>
prm/pocket_docking_6.prm

>  <SCORE>
-24.1014

>  <SCORE.INTER>
-23.715

>  <SCORE.INTER.CONST>
1

>  <SCORE.INTER.POLAR>
-4.60772

>  <SCORE.INTER.ROT>
5

>  <SCORE.INTER.SOLV>
15.7096

>  <SCORE.INTER.VDW>
-12.6208

>  <SCORE.INTER.norm>
-2.15591

>  <SCORE.INTRA>
-0.386368

>  <SCORE.INTRA.DIHEDRAL>
-1.56755

>  <SCORE.INTRA.DIHEDRAL.0>
9.90185

>  <SCORE.INTRA.POLAR>
0

>  <SCORE.INTRA.POLAR.0>
0

>  <SCORE.INTRA.REPUL>
0

>  <SCORE.INTRA.REPUL.0>
0

>  <SCORE.INTRA.SOLV>
0.920303

>  <SCORE.INTRA.SOLV.lig_0>
-53.6586

>  <SCORE.INTRA.VDW>
-0.0627432

>  <SCORE.INTRA.VDW.0>
-0.556525

>  <SCORE.INTRA.norm>
-0.0351243

>  <SCORE.RESTR>
0

>  <SCORE.RESTR.CAVITY>
0

>  <SCORE.RESTR.norm>
0

>  <SCORE.SYSTEM>
0

>  <SCORE.SYSTEM.CONST>
0

>  <SCORE.SYSTEM.DIHEDRAL>
0

>  <SCORE.SYSTEM.SOLV>
0

>  <SCORE.SYSTEM.norm>
0

>  <SCORE.heavy>
11

>  <SCORE.norm>
-2.19103

>  <RMSD>
2.792

$$$$

 OpenBabel11021811383D
libRbt.so/2013.1/901 2013/11/27
 11 10  0  0  0  0  0  0  0  0999 V2000
    1.0686   -1.3847    1.1088 N   0  3  0  0  0  0  0  0  0  0  0  0
   -0.3036   -1.0127    0.6504 C   0  0  2  0  0  0  0  0  0  0  0  0
   -1.1619   -0.6035    1.8593 C   0  0  0  0  0  0  0  0  0  0  0  0
   -1.7032    0.4855    1.8959 O   0  0  0  0  0  0  0  0  0  0  0  0
   -0.9428   -2.2122   -0.0621 C   0  0  0  0  0  0  0  0  0  0  0  0
   -2.2429   -1.7729   -0.7415 C   0  0  0  0  0  0  0  0  0  0  0  0
   -2.9136   -2.9819   -1.3902 C   0  0  0  0  0  0  0  0  0  0  0  0
   -4.1880   -2.5491   -2.0263 N   0  3  0  0  0  0  0  0  0  0  0  0
   -4.3191   -2.5888   -3.3239 C   0  0  0  0  0  0  0  0  0  0  0  0
   -5.2161   -3.3737   -3.8626 N   0  0  0  0  0  0  0  0  0  0  0  0
   -3.5595   -1.8397   -4.0806 N   0  0  0  0  0  0  0  0  0  0  0  0
  2  1  1  1  0  0  0
  2  3  1  0  0  0  0
  2  5  1  0  0  0  0
  3  4  2  0  0  0  0
  5  6  1  0  0  0  0
  6  7  1  0  0  0  0
  7  8  1  0  0  0  0
  8  9  2  0  0  0  0
  9 10  1  0  0  0  0
  9 11  1  0  0  0  0
M  CHG  2   1   1   8   1
M  END
>  <CHROM.1>
-53.23804980,123.77519731,-170.39029798,-177.16503786,178.98441014,113.53601430
-2.30279589,-1.79413234,-0.91504148,-0.87954458,0.26434841,-2.17431609

>  <Name>


>  <RI>
224

>  <Rbt.Current_Directory>
/home/itssahil/PROJECTS/Mol_Feturizer/New_Systems/rnas/1aju

>  <Rbt.Executable>
rbdock ($Id: //depot/dev/client3/rdock/2013.1/src/exe/rbdock.cxx#4 $)

>  <Rbt.Library>
libRbt.so (2013.1, Build901 2013/11/27)

>  <Rbt.Parameter_File>
/export/apps/rDock/src/rDock_2013.1_src/data/scripts/dock_solv.prm

>  <Rbt.Receptor>
prm/pocket_docking_5.prm

>  <SCORE>
-17.6524

>  <SCORE.INTER>
-14.3083

>  <SCORE.INTER.CONST>
1

>  <SCORE.INTER.POLAR>
-2.60178

>  <SCORE.INTER.ROT>
5

>  <SCORE.INTER.SOLV>
19.6936

>  <SCORE.INTER.VDW>
-14.3641

>  <SCORE.INTER.norm>
-1.30076

>  <SCORE.INTRA>
-3.3441

>  <SCORE.INTRA.DIHEDRAL>
-6.47109

>  <SCORE.INTRA.DIHEDRAL.0>
9.90185

>  <SCORE.INTRA.POLAR>
0

>  <SCORE.INTRA.POLAR.0>
0

>  <SCORE.INTRA.REPUL>
0

>  <SCORE.INTRA.REPUL.0>
0

>  <SCORE.INTRA.SOLV>
0.133915

>  <SCORE.INTRA.SOLV.lig_0>
-53.6586

>  <SCORE.INTRA.VDW>
-0.175513

>  <SCORE.INTRA.VDW.0>
-0.556525

>  <SCORE.INTRA.norm>
-0.304009

>  <SCORE.RESTR>
0

>  <SCORE.RESTR.CAVITY>
0

>  <SCORE.RESTR.norm>
0

>  <SCORE.SYSTEM>
0

>  <SCORE.SYSTEM.CONST>
0

>  <SCORE.SYSTEM.DIHEDRAL>
0

>  <SCORE.SYSTEM.SOLV>
0

>  <SCORE.SYSTEM.norm>
0

>  <SCORE.heavy>
11

>  <SCORE.norm>
-1.60476

>  <RMSD>
2.794

$$$$

 OpenBabel11021811383D
libRbt.so/2013.1/901 2013/11/27
 11 10  0  0  0  0  0  0  0  0999 V2000
   -4.1431   -1.1606    1.6837 N   0  3  0  0  0  0  0  0  0  0  0  0
   -3.6937   -2.5713    1.4848 C   0  0  2  0  0  0  0  0  0  0  0  0
   -3.5840   -3.2783    2.8464 C   0  0  0  0  0  0  0  0  0  0  0  0
   -4.0868   -4.3725    3.0197 O   0  0  0  0  0  0  0  0  0  0  0  0
   -2.3291   -2.5747    0.7828 C   0  0  0  0  0  0  0  0  0  0  0  0
   -2.4814   -3.1373   -0.6332 C   0  0  0  0  0  0  0  0  0  0  0  0
   -3.2461   -2.1389   -1.4997 C   0  0  0  0  0  0  0  0  0  0  0  0
   -3.1506   -2.5576   -2.9250 N   0  3  0  0  0  0  0  0  0  0  0  0
   -4.2256   -2.9002   -3.5805 C   0  0  0  0  0  0  0  0  0  0  0  0
   -4.6064   -2.1982   -4.6163 N   0  0  0  0  0  0  0  0  0  0  0  0
   -4.9141   -3.9470   -3.2051 N   0  0  0  0  0  0  0  0  0  0  0  0
  2  1  1  1  0  0  0
  2  3  1  0  0  0  0
  2  5  1  0  0  0  0
  3  4  2  0  0  0  0
  5  6  1  0  0  0  0
  6  7  1  0  0  0  0
  7  8  1  0  0  0  0
  8  9  2  0  0  0  0
  9 10  1  0  0  0  0
  9 11  1  0  0  0  0
M  CHG  2   1   1   8   1
M  END
>  <CHROM.1>
56.66701288,131.25173212,-111.74574909,70.30587125,168.59362822,116.25860240
-3.71090200,-2.78982935,-0.61561078,-1.36272388,-1.10711723,-1.34433090

>  <Name>


>  <RI>
0

>  <Rbt.Current_Directory>
/home/itssahil/PROJECTS/Mol_Feturizer/New_Systems/rnas/1aju

>  <Rbt.Executable>
rbdock ($Id: //depot/dev/client3/rdock/2013.1/src/exe/rbdock.cxx#4 $)

>  <Rbt.Library>
libRbt.so (2013.1, Build901 2013/11/27)

>  <Rbt.Parameter_File>
/export/apps/rDock/src/rDock_2013.1_src/data/scripts/dock_solv.prm

>  <Rbt.Receptor>
prm/pocket_docking_7.prm

>  <SCORE>
-23.6981

>  <SCORE.INTER>
-23.4732

>  <SCORE.INTER.CONST>
1

>  <SCORE.INTER.POLAR>
-4.60655

>  <SCORE.INTER.ROT>
5

>  <SCORE.INTER.SOLV>
16.1111

>  <SCORE.INTER.VDW>
-12.5974

>  <SCORE.INTER.norm>
-2.13393

>  <SCORE.INTRA>
-0.224855

>  <SCORE.INTRA.DIHEDRAL>
-0.894874

>  <SCORE.INTRA.DIHEDRAL.0>
9.90185

>  <SCORE.INTRA.POLAR>
0

>  <SCORE.INTRA.POLAR.0>
0

>  <SCORE.INTRA.REPUL>
0

>  <SCORE.INTRA.REPUL.0>
0

>  <SCORE.INTRA.SOLV>
1.22407

>  <SCORE.INTRA.SOLV.lig_0>
-53.6586

>  <SCORE.INTRA.VDW>
-0.389455

>  <SCORE.INTRA.VDW.0>
-0.556525

>  <SCORE.INTRA.norm>
-0.0204414

>  <SCORE.RESTR>
0

>  <SCORE.RESTR.CAVITY>
0

>  <SCORE.RESTR.norm>
0

>  <SCORE.SYSTEM>
0

>  <SCORE.SYSTEM.CONST>
0

>  <SCORE.SYSTEM.DIHEDRAL>
0

>  <SCORE.SYSTEM.SOLV>
0

>  <SCORE.SYSTEM.norm>
0

>  <SCORE.heavy>
11

>  <SCORE.norm>
-2.15437

>  <RMSD>
2.813

$$$$

 OpenBabel11021811383D
libRbt.so/2013.1/901 2013/11/27
 11 10  0  0  0  0  0  0  0  0999 V2000
   -0.8194   -2.9255   -1.5140 N   0  3  0  0  0  0  0  0  0  0  0  0
   -1.7565   -2.0501   -0.7476 C   0  0  2  0  0  0  0  0  0  0  0  0
   -0.9670   -1.2114    0.2718 C   0  0  0  0  0  0  0  0  0  0  0  0
    0.1177   -0.7426   -0.0177 O   0  0  0  0  0  0  0  0  0  0  0  0
   -2.7860   -2.9245   -0.0192 C   0  0  0  0  0  0  0  0  0  0  0  0
   -4.1640   -2.2603   -0.0877 C   0  0  0  0  0  0  0  0  0  0  0  0
   -5.0710   -3.0613   -1.0195 C   0  0  0  0  0  0  0  0  0  0  0  0
   -4.2446   -3.6745   -2.0952 N   0  3  0  0  0  0  0  0  0  0  0  0
   -4.3080   -3.2124   -3.3139 C   0  0  0  0  0  0  0  0  0  0  0  0
   -3.2457   -2.6840   -3.8644 N   0  0  0  0  0  0  0  0  0  0  0  0
   -5.4295   -3.2852   -3.9828 N   0  0  0  0  0  0  0  0  0  0  0  0
  2  1  1  1  0  0  0
  2  3  1  0  0  0  0
  2  5  1  0  0  0  0
  3  4  2  0  0  0  0
  5  6  1  0  0  0  0
  6  7  1  0  0  0  0
  7  8  1  0  0  0  0
  8  9  2  0  0  0  0
  9 10  1  0  0  0  0
  9 11  1  0  0  0  0
M  CHG  2   1   1   8   1
M  END
>  <CHROM.1>
-97.45298361,39.16642384,-140.37343639,109.44307154,-31.99570276,-107.71025419
-2.92968652,-2.56058098,-1.53742355,-0.64980072,-0.28967401,-1.73525469

>  <Name>


>  <RI>
0

>  <Rbt.Current_Directory>
/home/itssahil/PROJECTS/Mol_Feturizer/New_Systems/rnas/1aju

>  <Rbt.Executable>
rbdock ($Id: //depot/dev/client3/rdock/2013.1/src/exe/rbdock.cxx#4 $)

>  <Rbt.Library>
libRbt.so (2013.1, Build901 2013/11/27)

>  <Rbt.Parameter_File>
/export/apps/rDock/src/rDock_2013.1_src/data/scripts/dock_solv.prm

>  <Rbt.Receptor>
prm/pocket_docking_7.prm

>  <SCORE>
-13.2235

>  <SCORE.INTER>
-22.3084

>  <SCORE.INTER.CONST>
1

>  <SCORE.INTER.POLAR>
-5.08162

>  <SCORE.INTER.ROT>
5

>  <SCORE.INTER.SOLV>
19.679

>  <SCORE.INTER.VDW>
-11.4265

>  <SCORE.INTER.norm>
-2.02803

>  <SCORE.INTRA>
9.0849

>  <SCORE.INTRA.DIHEDRAL>
9.512

>  <SCORE.INTRA.DIHEDRAL.0>
9.90185

>  <SCORE.INTRA.POLAR>
0

>  <SCORE.INTRA.POLAR.0>
0

>  <SCORE.INTRA.REPUL>
0

>  <SCORE.INTRA.REPUL.0>
0

>  <SCORE.INTRA.SOLV>
6.72349

>  <SCORE.INTRA.SOLV.lig_0>
-53.6586

>  <SCORE.INTRA.VDW>
0.967159

>  <SCORE.INTRA.VDW.0>
-0.556525

>  <SCORE.INTRA.norm>
0.8259

>  <SCORE.RESTR>
0

>  <SCORE.RESTR.CAVITY>
0

>  <SCORE.RESTR.norm>
0

>  <SCORE.SYSTEM>
0

>  <SCORE.SYSTEM.CONST>
0

>  <SCORE.SYSTEM.DIHEDRAL>
0

>  <SCORE.SYSTEM.SOLV>
0

>  <SCORE.SYSTEM.norm>
0

>  <SCORE.heavy>
11

>  <SCORE.norm>
-1.20213

>  <RMSD>
2.818

$$$$

 OpenBabel11021811383D
libRbt.so/2013.1/901 2013/11/27
 11 10  0  0  0  0  0  0  0  0999 V2000
   -3.0988   -7.0504   -0.4145 N   0  3  0  0  0  0  0  0  0  0  0  0
   -2.3383   -6.2057   -1.3840 C   0  0  2  0  0  0  0  0  0  0  0  0
   -0.9183   -6.7694   -1.5614 C   0  0  0  0  0  0  0  0  0  0  0  0
   -0.2308   -6.4330   -2.5072 O   0  0  0  0  0  0  0  0  0  0  0  0
   -2.2671   -4.7667   -0.8557 C   0  0  0  0  0  0  0  0  0  0  0  0
   -1.6264   -3.8627   -1.9127 C   0  0  0  0  0  0  0  0  0  0  0  0
   -1.5950   -2.4236   -1.4024 C   0  0  0  0  0  0  0  0  0  0  0  0
   -2.9857   -1.8951   -1.3493 N   0  3  0  0  0  0  0  0  0  0  0  0
   -3.9080   -2.3991   -2.1227 C   0  0  0  0  0  0  0  0  0  0  0  0
   -4.9411   -3.0022   -1.5938 N   0  0  0  0  0  0  0  0  0  0  0  0
   -3.8006   -2.2936   -3.4219 N   0  0  0  0  0  0  0  0  0  0  0  0
  2  1  1  1  0  0  0
  2  3  1  0  0  0  0
  2  5  1  0  0  0  0
  3  4  2  0  0  0  0
  5  6  1  0  0  0  0
  6  7  1  0  0  0  0
  7  8  1  0  0  0  0
  8  9  2  0  0  0  0
  9 10  1  0  0  0  0
  9 11  1  0  0  0  0
M  CHG  2   1   1   8   1
M  END
>  <CHROM.1>
178.83205610,163.48554636,-173.76658651,178.28581148,-69.26600643,-24.98115912
-2.55375969,-4.30235791,-1.68154627,1.09202507,-0.27965515,2.84666524

>  <Name>


>  <RI>
0

>  <Rbt.Current_Directory>
/home/itssahil/PROJECTS/Mol_Feturizer/New_Systems/rnas/1aju

>  <Rbt.Executable>
rbdock ($Id: //depot/dev/client3/rdock/2013.1/src/exe/rbdock.cxx#4 $)

>  <Rbt.Library>
libRbt.so (2013.1, Build901 2013/11/27)

>  <Rbt.Parameter_File>
/export/apps/rDock/src/rDock_2013.1_src/data/scripts/dock_solv.prm

>  <Rbt.Receptor>
prm/pocket_docking_4.prm

>  <SCORE>
-14.0093

>  <SCORE.INTER>
-14.448

>  <SCORE.INTER.CONST>
1

>  <SCORE.INTER.POLAR>
-1.99811

>  <SCORE.INTER.ROT>
5

>  <SCORE.INTER.SOLV>
11.8211

>  <SCORE.INTER.VDW>
-13.8453

>  <SCORE.INTER.norm>
-1.31345

>  <SCORE.INTRA>
0.438719

>  <SCORE.INTRA.DIHEDRAL>
-4.26782

>  <SCORE.INTRA.DIHEDRAL.0>
9.90185

>  <SCORE.INTRA.POLAR>
0

>  <SCORE.INTRA.POLAR.0>
0

>  <SCORE.INTRA.REPUL>
0

>  <SCORE.INTRA.REPUL.0>
0

>  <SCORE.INTRA.SOLV>
1.36746

>  <SCORE.INTRA.SOLV.lig_0>
-53.6586

>  <SCORE.INTRA.VDW>
1.8889

>  <SCORE.INTRA.VDW.0>
-0.556525

>  <SCORE.INTRA.norm>
0.0398835

>  <SCORE.RESTR>
0

>  <SCORE.RESTR.CAVITY>
0

>  <SCORE.RESTR.norm>
0

>  <SCORE.SYSTEM>
0

>  <SCORE.SYSTEM.CONST>
0

>  <SCORE.SYSTEM.DIHEDRAL>
0

>  <SCORE.SYSTEM.SOLV>
0

>  <SCORE.SYSTEM.norm>
0

>  <SCORE.heavy>
11

>  <SCORE.norm>
-1.27357

>  <RMSD>
2.824

$$$$

 OpenBabel11021811383D
libRbt.so/2013.1/901 2013/11/27
 11 10  0  0  0  0  0  0  0  0999 V2000
   -2.8713   -2.3884    3.1291 N   0  3  0  0  0  0  0  0  0  0  0  0
   -2.6587   -2.2393    1.6579 C   0  0  2  0  0  0  0  0  0  0  0  0
   -2.8065   -0.7612    1.2590 C   0  0  0  0  0  0  0  0  0  0  0  0
   -1.9174   -0.1890    0.6571 O   0  0  0  0  0  0  0  0  0  0  0  0
   -3.6930   -3.0890    0.9075 C   0  0  0  0  0  0  0  0  0  0  0  0
   -3.1941   -3.3695   -0.5128 C   0  0  0  0  0  0  0  0  0  0  0  0
   -3.4930   -2.1671   -1.4057 C   0  0  0  0  0  0  0  0  0  0  0  0
   -3.3114   -2.5607   -2.8298 N   0  3  0  0  0  0  0  0  0  0  0  0
   -4.3466   -2.8725   -3.5604 C   0  0  0  0  0  0  0  0  0  0  0  0
   -4.6477   -2.1448   -4.6047 N   0  0  0  0  0  0  0  0  0  0  0  0
   -5.0746   -3.9142   -3.2513 N   0  0  0  0  0  0  0  0  0  0  0  0
  2  1  1  1  0  0  0
  2  3  1  0  0  0  0
  2  5  1  0  0  0  0
  3  4  2  0  0  0  0
  5  6  1  0  0  0  0
  6  7  1  0  0  0  0
  7  8  1  0  0  0  0
  8  9  2  0  0  0  0
  9 10  1  0  0  0  0
  9 11  1  0  0  0  0
M  CHG  2   1   1   8   1
M  END
>  <CHROM.1>
57.79973420,125.13001900,-159.09639229,-81.57087301,-166.53927644,99.16765430
-3.45812045,-2.33523038,-0.77057481,0.91928350,1.06428600,1.96769573

>  <Name>


>  <RI>
0

>  <Rbt.Current_Directory>
/home/itssahil/PROJECTS/Mol_Feturizer/New_Systems/rnas/1aju

>  <Rbt.Executable>
rbdock ($Id: //depot/dev/client3/rdock/2013.1/src/exe/rbdock.cxx#4 $)

>  <Rbt.Library>
libRbt.so (2013.1, Build901 2013/11/27)

>  <Rbt.Parameter_File>
/export/apps/rDock/src/rDock_2013.1_src/data/scripts/dock_solv.prm

>  <Rbt.Receptor>
prm/pocket_docking_4.prm

>  <SCORE>
-17.4375

>  <SCORE.INTER>
-16.1712

>  <SCORE.INTER.CONST>
1

>  <SCORE.INTER.POLAR>
-3.08722

>  <SCORE.INTER.ROT>
5

>  <SCORE.INTER.SOLV>
13.644

>  <SCORE.INTER.VDW>
-11.9714

>  <SCORE.INTER.norm>
-1.47011

>  <SCORE.INTRA>
-1.28022

>  <SCORE.INTRA.DIHEDRAL>
-3.13138

>  <SCORE.INTRA.DIHEDRAL.0>
9.90185

>  <SCORE.INTRA.POLAR>
0

>  <SCORE.INTRA.POLAR.0>
0

>  <SCORE.INTRA.REPUL>
0

>  <SCORE.INTRA.REPUL.0>
0

>  <SCORE.INTRA.SOLV>
0.56431

>  <SCORE.INTRA.SOLV.lig_0>
-53.6586

>  <SCORE.INTRA.VDW>
0.00331529

>  <SCORE.INTRA.VDW.0>
-0.556525

>  <SCORE.INTRA.norm>
-0.116384

>  <SCORE.RESTR>
0.0139931

>  <SCORE.RESTR.CAVITY>
0.0139931

>  <SCORE.RESTR.norm>
0.0012721

>  <SCORE.SYSTEM>
0

>  <SCORE.SYSTEM.CONST>
0

>  <SCORE.SYSTEM.DIHEDRAL>
0

>  <SCORE.SYSTEM.SOLV>
0

>  <SCORE.SYSTEM.norm>
0

>  <SCORE.heavy>
11

>  <SCORE.norm>
-1.58522

>  <RMSD>
2.832

$$$$

 OpenBabel11021811383D
libRbt.so/2013.1/901 2013/11/27
 11 10  0  0  0  0  0  0  0  0999 V2000
   -3.4060   -1.1768    1.4152 N   0  3  0  0  0  0  0  0  0  0  0  0
   -1.9896   -1.6379    1.5285 C   0  0  2  0  0  0  0  0  0  0  0  0
   -1.0396   -0.4364    1.3889 C   0  0  0  0  0  0  0  0  0  0  0  0
   -0.3087   -0.1133    2.3064 O   0  0  0  0  0  0  0  0  0  0  0  0
   -1.7004   -2.6637    0.4244 C   0  0  0  0  0  0  0  0  0  0  0  0
   -1.8328   -1.9939   -0.9463 C   0  0  0  0  0  0  0  0  0  0  0  0
   -3.2426   -2.2172   -1.4895 C   0  0  0  0  0  0  0  0  0  0  0  0
   -3.1561   -2.6061   -2.9238 N   0  3  0  0  0  0  0  0  0  0  0  0
   -4.2372   -2.9193   -3.5840 C   0  0  0  0  0  0  0  0  0  0  0  0
   -4.6104   -2.1896   -4.6033 N   0  0  0  0  0  0  0  0  0  0  0  0
   -4.9394   -3.9644   -3.2297 N   0  0  0  0  0  0  0  0  0  0  0  0
  2  1  1  6  0  0  0
  2  3  1  0  0  0  0
  2  5  1  0  0  0  0
  3  4  2  0  0  0  0
  5  6  1  0  0  0  0
  6  7  1  0  0  0  0
  7  8  1  0  0  0  0
  8  9  2  0  0  0  0
  9 10  1  0  0  0  0
  9 11  1  0  0  0  0
M  CHG  2   1   1   8   1
M  END
>  <CHROM.1>
-67.74459176,117.40088527,63.57649779,-94.36624970,-135.37186718,176.32074308
-2.80650608,-1.98491153,-0.89087601,0.99703899,0.53207172,1.51745419

>  <Name>


>  <RI>
0

>  <Rbt.Current_Directory>
/home/itssahil/PROJECTS/Mol_Feturizer/New_Systems/rnas/1aju

>  <Rbt.Executable>
rbdock ($Id: //depot/dev/client3/rdock/2013.1/src/exe/rbdock.cxx#4 $)

>  <Rbt.Library>
libRbt.so (2013.1, Build901 2013/11/27)

>  <Rbt.Parameter_File>
/export/apps/rDock/src/rDock_2013.1_src/data/scripts/dock_solv.prm

>  <Rbt.Receptor>
prm/pocket_docking_7.prm

>  <SCORE>
-17.7024

>  <SCORE.INTER>
-21.0401

>  <SCORE.INTER.CONST>
1

>  <SCORE.INTER.POLAR>
-3.6318

>  <SCORE.INTER.ROT>
5

>  <SCORE.INTER.SOLV>
15.7531

>  <SCORE.INTER.VDW>
-14.1051

>  <SCORE.INTER.norm>
-1.91274

>  <SCORE.INTRA>
3.3377

>  <SCORE.INTRA.DIHEDRAL>
1.68621

>  <SCORE.INTRA.DIHEDRAL.0>
9.90185

>  <SCORE.INTRA.POLAR>
0

>  <SCORE.INTRA.POLAR.0>
0

>  <SCORE.INTRA.REPUL>
0

>  <SCORE.INTRA.REPUL.0>
0

>  <SCORE.INTRA.SOLV>
2.50672

>  <SCORE.INTRA.SOLV.lig_0>
-53.6586

>  <SCORE.INTRA.VDW>
1.24123

>  <SCORE.INTRA.VDW.0>
-0.556525

>  <SCORE.INTRA.norm>
0.303427

>  <SCORE.RESTR>
0

>  <SCORE.RESTR.CAVITY>
0

>  <SCORE.RESTR.norm>
0

>  <SCORE.SYSTEM>
0

>  <SCORE.SYSTEM.CONST>
0

>  <SCORE.SYSTEM.DIHEDRAL>
0

>  <SCORE.SYSTEM.SOLV>
0

>  <SCORE.SYSTEM.norm>
0

>  <SCORE.heavy>
11

>  <SCORE.norm>
-1.60931

>  <RMSD>
2.832

$$$$

 OpenBabel11021811383D
libRbt.so/2013.1/901 2013/11/27
 11 10  0  0  0  0  0  0  0  0999 V2000
   -4.1073   -0.9989    1.6761 N   0  3  0  0  0  0  0  0  0  0  0  0
   -3.7598   -2.2106    0.8743 C   0  0  2  0  0  0  0  0  0  0  0  0
   -3.8070   -3.4585    1.7721 C   0  0  0  0  0  0  0  0  0  0  0  0
   -4.0922   -3.3643    2.9511 O   0  0  0  0  0  0  0  0  0  0  0  0
   -2.3524   -2.0429    0.2862 C   0  0  0  0  0  0  0  0  0  0  0  0
   -2.1117   -3.1126   -0.7829 C   0  0  0  0  0  0  0  0  0  0  0  0
   -2.4580   -2.5464   -2.1584 C   0  0  0  0  0  0  0  0  0  0  0  0
   -3.9270   -2.3182   -2.2357 N   0  3  0  0  0  0  0  0  0  0  0  0
   -4.6256   -2.8657   -3.1922 C   0  0  0  0  0  0  0  0  0  0  0  0
   -5.5564   -3.7369   -2.9000 N   0  0  0  0  0  0  0  0  0  0  0  0
   -4.3984   -2.5370   -4.4376 N   0  0  0  0  0  0  0  0  0  0  0  0
  2  1  1  1  0  0  0
  2  3  1  0  0  0  0
  2  5  1  0  0  0  0
  3  4  2  0  0  0  0
  5  6  1  0  0  0  0
  6  7  1  0  0  0  0
  7  8  1  0  0  0  0
  8  9  2  0  0  0  0
  9 10  1  0  0  0  0
  9 11  1  0  0  0  0
M  CHG  2   1   1   8   1
M  END
>  <CHROM.1>
64.68627486,-0.22894926,-167.17224936,94.24003388,-67.88256393,-124.40457685
-3.78413468,-2.63032348,-0.72394754,1.43978104,0.36496910,1.55309328

>  <Name>


>  <RI>
0

>  <Rbt.Current_Directory>
/home/itssahil/PROJECTS/Mol_Feturizer/New_Systems/rnas/1aju

>  <Rbt.Executable>
rbdock ($Id: //depot/dev/client3/rdock/2013.1/src/exe/rbdock.cxx#4 $)

>  <Rbt.Library>
libRbt.so (2013.1, Build901 2013/11/27)

>  <Rbt.Parameter_File>
/export/apps/rDock/src/rDock_2013.1_src/data/scripts/dock_solv.prm

>  <Rbt.Receptor>
prm/pocket_docking_4.prm

>  <SCORE>
-22.0493

>  <SCORE.INTER>
-22.0321

>  <SCORE.INTER.CONST>
1

>  <SCORE.INTER.POLAR>
-3.68725

>  <SCORE.INTER.ROT>
5

>  <SCORE.INTER.SOLV>
15.7031

>  <SCORE.INTER.VDW>
-14.565

>  <SCORE.INTER.norm>
-2.00292

>  <SCORE.INTRA>
-0.0172071

>  <SCORE.INTRA.DIHEDRAL>
-2.38483

>  <SCORE.INTRA.DIHEDRAL.0>
9.90185

>  <SCORE.INTRA.POLAR>
0

>  <SCORE.INTRA.POLAR.0>
0

>  <SCORE.INTRA.REPUL>
0

>  <SCORE.INTRA.REPUL.0>
0

>  <SCORE.INTRA.SOLV>
2.45735

>  <SCORE.INTRA.SOLV.lig_0>
-53.6586

>  <SCORE.INTRA.VDW>
-0.0534695

>  <SCORE.INTRA.VDW.0>
-0.556525

>  <SCORE.INTRA.norm>
-0.00156429

>  <SCORE.RESTR>
0

>  <SCORE.RESTR.CAVITY>
0

>  <SCORE.RESTR.norm>
0

>  <SCORE.SYSTEM>
0

>  <SCORE.SYSTEM.CONST>
0

>  <SCORE.SYSTEM.DIHEDRAL>
0

>  <SCORE.SYSTEM.SOLV>
0

>  <SCORE.SYSTEM.norm>
0

>  <SCORE.heavy>
11

>  <SCORE.norm>
-2.00448

>  <RMSD>
2.834

$$$$

 OpenBabel11021811383D
libRbt.so/2013.1/901 2013/11/27
 11 10  0  0  0  0  0  0  0  0999 V2000
   -4.0263   -1.9797    2.5521 N   0  3  0  0  0  0  0  0  0  0  0  0
   -3.7314   -3.1091    1.6198 C   0  0  2  0  0  0  0  0  0  0  0  0
   -2.2888   -2.9901    1.0999 C   0  0  0  0  0  0  0  0  0  0  0  0
   -2.0662   -2.8650   -0.0896 O   0  0  0  0  0  0  0  0  0  0  0  0
   -4.7160   -3.0660    0.4436 C   0  0  0  0  0  0  0  0  0  0  0  0
   -4.5492   -4.3249   -0.4122 C   0  0  0  0  0  0  0  0  0  0  0  0
   -5.3642   -4.1812   -1.6958 C   0  0  0  0  0  0  0  0  0  0  0  0
   -5.0873   -2.8502   -2.3023 N   0  3  0  0  0  0  0  0  0  0  0  0
   -4.1425   -2.7199   -3.1928 C   0  0  0  0  0  0  0  0  0  0  0  0
   -4.4442   -2.3511   -4.4109 N   0  0  0  0  0  0  0  0  0  0  0  0
   -2.8979   -2.9509   -2.8636 N   0  0  0  0  0  0  0  0  0  0  0  0
  2  1  1  1  0  0  0
  2  3  1  0  0  0  0
  2  5  1  0  0  0  0
  3  4  2  0  0  0  0
  5  6  1  0  0  0  0
  6  7  1  0  0  0  0
  7  8  1  0  0  0  0
  8  9  2  0  0  0  0
  9 10  1  0  0  0  0
  9 11  1  0  0  0  0
M  CHG  2   1   1   8   1
M  END
>  <CHROM.1>
170.84608585,-119.31200418,-172.20479199,-171.08089481,47.94906393,92.26676842
-3.92593840,-2.99587883,-0.84347436,1.41054342,0.25061587,1.58607209

>  <Name>


>  <RI>
0

>  <Rbt.Current_Directory>
/home/itssahil/PROJECTS/Mol_Feturizer/New_Systems/rnas/1aju

>  <Rbt.Executable>
rbdock ($Id: //depot/dev/client3/rdock/2013.1/src/exe/rbdock.cxx#4 $)

>  <Rbt.Library>
libRbt.so (2013.1, Build901 2013/11/27)

>  <Rbt.Parameter_File>
/export/apps/rDock/src/rDock_2013.1_src/data/scripts/dock_solv.prm

>  <Rbt.Receptor>
prm/pocket_docking_4.prm

>  <SCORE>
-21.0646

>  <SCORE.INTER>
-17.2223

>  <SCORE.INTER.CONST>
1

>  <SCORE.INTER.POLAR>
-3.20207

>  <SCORE.INTER.ROT>
5

>  <SCORE.INTER.SOLV>
13.5343

>  <SCORE.INTER.VDW>
-12.2527

>  <SCORE.INTER.norm>
-1.56567

>  <SCORE.INTRA>
-3.84227

>  <SCORE.INTRA.DIHEDRAL>
-5.73005

>  <SCORE.INTRA.DIHEDRAL.0>
9.90185

>  <SCORE.INTRA.POLAR>
-1.08333

>  <SCORE.INTRA.POLAR.0>
0

>  <SCORE.INTRA.REPUL>
0

>  <SCORE.INTRA.REPUL.0>
0

>  <SCORE.INTRA.SOLV>
2.72406

>  <SCORE.INTRA.SOLV.lig_0>
-53.6586

>  <SCORE.INTRA.VDW>
1.34406

>  <SCORE.INTRA.VDW.0>
-0.556525

>  <SCORE.INTRA.norm>
-0.349297

>  <SCORE.RESTR>
0

>  <SCORE.RESTR.CAVITY>
0

>  <SCORE.RESTR.norm>
0

>  <SCORE.SYSTEM>
0

>  <SCORE.SYSTEM.CONST>
0

>  <SCORE.SYSTEM.DIHEDRAL>
0

>  <SCORE.SYSTEM.SOLV>
0

>  <SCORE.SYSTEM.norm>
0

>  <SCORE.heavy>
11

>  <SCORE.norm>
-1.91496

>  <RMSD>
2.856

$$$$

 OpenBabel11021811383D
libRbt.so/2013.1/901 2013/11/27
 11 10  0  0  0  0  0  0  0  0999 V2000
   -2.4464   -0.6201    1.3050 N   0  3  0  0  0  0  0  0  0  0  0  0
   -3.0386   -1.8508    1.9102 C   0  0  2  0  0  0  0  0  0  0  0  0
   -1.9906   -2.5525    2.7905 C   0  0  0  0  0  0  0  0  0  0  0  0
   -2.2171   -2.7786    3.9643 O   0  0  0  0  0  0  0  0  0  0  0  0
   -3.4981   -2.7953    0.7915 C   0  0  0  0  0  0  0  0  0  0  0  0
   -4.7018   -2.1860    0.0670 C   0  0  0  0  0  0  0  0  0  0  0  0
   -5.1597   -3.1287   -1.0439 C   0  0  0  0  0  0  0  0  0  0  0  0
   -4.0630   -3.2777   -2.0394 N   0  3  0  0  0  0  0  0  0  0  0  0
   -4.2331   -2.8706   -3.2674 C   0  0  0  0  0  0  0  0  0  0  0  0
   -3.4874   -1.9063   -3.7413 N   0  0  0  0  0  0  0  0  0  0  0  0
   -5.1423   -3.4318   -4.0218 N   0  0  0  0  0  0  0  0  0  0  0  0
  2  1  1  6  0  0  0
  2  3  1  0  0  0  0
  2  5  1  0  0  0  0
  3  4  2  0  0  0  0
  5  6  1  0  0  0  0
  6  7  1  0  0  0  0
  7  8  1  0  0  0  0
  8  9  2  0  0  0  0
  9 10  1  0  0  0  0
  9 11  1  0  0  0  0
M  CHG  2   1   1   8   1
M  END
>  <CHROM.1>
-174.30793976,123.38663442,-68.99375137,-179.87004429,-62.44889555,-116.66440435
-3.61355426,-2.46258472,-0.31893082,-1.07309952,-0.85503739,-1.30041749

>  <Name>


>  <RI>
0

>  <Rbt.Current_Directory>
/home/itssahil/PROJECTS/Mol_Feturizer/New_Systems/rnas/1aju

>  <Rbt.Executable>
rbdock ($Id: //depot/dev/client3/rdock/2013.1/src/exe/rbdock.cxx#4 $)

>  <Rbt.Library>
libRbt.so (2013.1, Build901 2013/11/27)

>  <Rbt.Parameter_File>
/export/apps/rDock/src/rDock_2013.1_src/data/scripts/dock_solv.prm

>  <Rbt.Receptor>
prm/pocket_docking_6.prm

>  <SCORE>
-19.3419

>  <SCORE.INTER>
-16.6051

>  <SCORE.INTER.CONST>
1

>  <SCORE.INTER.POLAR>
-3.71301

>  <SCORE.INTER.ROT>
5

>  <SCORE.INTER.SOLV>
16.652

>  <SCORE.INTER.VDW>
-11.1773

>  <SCORE.INTER.norm>
-1.50956

>  <SCORE.INTRA>
-2.74176

>  <SCORE.INTRA.DIHEDRAL>
-6.5411

>  <SCORE.INTRA.DIHEDRAL.0>
9.90185

>  <SCORE.INTRA.POLAR>
0

>  <SCORE.INTRA.POLAR.0>
0

>  <SCORE.INTRA.REPUL>
0

>  <SCORE.INTRA.REPUL.0>
0

>  <SCORE.INTRA.SOLV>
1.44825

>  <SCORE.INTRA.SOLV.lig_0>
-53.6586

>  <SCORE.INTRA.VDW>
-0.195335

>  <SCORE.INTRA.VDW.0>
-0.556525

>  <SCORE.INTRA.norm>
-0.249251

>  <SCORE.RESTR>
0.00494746

>  <SCORE.RESTR.CAVITY>
0.00494746

>  <SCORE.RESTR.norm>
0.000449769

>  <SCORE.SYSTEM>
0

>  <SCORE.SYSTEM.CONST>
0

>  <SCORE.SYSTEM.DIHEDRAL>
0

>  <SCORE.SYSTEM.SOLV>
0

>  <SCORE.SYSTEM.norm>
0

>  <SCORE.heavy>
11

>  <SCORE.norm>
-1.75836

>  <RMSD>
2.857

$$$$

 OpenBabel11021811383D
libRbt.so/2013.1/901 2013/11/27
 11 10  0  0  0  0  0  0  0  0999 V2000
   -4.0209   -1.7427    2.6061 N   0  3  0  0  0  0  0  0  0  0  0  0
   -3.9303   -2.5019    1.3227 C   0  0  2  0  0  0  0  0  0  0  0  0
   -4.4024   -3.9494    1.5412 C   0  0  0  0  0  0  0  0  0  0  0  0
   -5.2684   -4.4327    0.8364 O   0  0  0  0  0  0  0  0  0  0  0  0
   -2.4767   -2.4950    0.8310 C   0  0  0  0  0  0  0  0  0  0  0  0
   -2.4232   -2.9797   -0.6205 C   0  0  0  0  0  0  0  0  0  0  0  0
   -3.2695   -2.0593   -1.4975 C   0  0  0  0  0  0  0  0  0  0  0  0
   -3.1683   -2.5071   -2.9136 N   0  3  0  0  0  0  0  0  0  0  0  0
   -4.2421   -2.8515   -3.5701 C   0  0  0  0  0  0  0  0  0  0  0  0
   -4.6081   -2.1661   -4.6223 N   0  0  0  0  0  0  0  0  0  0  0  0
   -4.9442   -3.8835   -3.1792 N   0  0  0  0  0  0  0  0  0  0  0  0
  2  1  1  1  0  0  0
  2  3  1  0  0  0  0
  2  5  1  0  0  0  0
  3  4  2  0  0  0  0
  5  6  1  0  0  0  0
  6  7  1  0  0  0  0
  7  8  1  0  0  0  0
  8  9  2  0  0  0  0
  9 10  1  0  0  0  0
  9 11  1  0  0  0  0
M  CHG  2   1   1   8   1
M  END
>  <CHROM.1>
173.85557202,126.72274119,-167.04390029,59.52297809,177.81172129,121.05828221
-3.91598406,-2.86390106,-0.84066551,-1.49845874,-0.72216303,-1.51038012

>  <Name>


>  <RI>
224

>  <Rbt.Current_Directory>
/home/itssahil/PROJECTS/Mol_Feturizer/New_Systems/rnas/1aju

>  <Rbt.Executable>
rbdock ($Id: //depot/dev/client3/rdock/2013.1/src/exe/rbdock.cxx#4 $)

>  <Rbt.Library>
libRbt.so (2013.1, Build901 2013/11/27)

>  <Rbt.Parameter_File>
/export/apps/rDock/src/rDock_2013.1_src/data/scripts/dock_solv.prm

>  <Rbt.Receptor>
prm/pocket_docking_5.prm

>  <SCORE>
-20.2655

>  <SCORE.INTER>
-17.839

>  <SCORE.INTER.CONST>
1

>  <SCORE.INTER.POLAR>
-3.4116

>  <SCORE.INTER.ROT>
5

>  <SCORE.INTER.SOLV>
13.9054

>  <SCORE.INTER.VDW>
-12.0891

>  <SCORE.INTER.norm>
-1.62172

>  <SCORE.INTRA>
-2.42654

>  <SCORE.INTRA.DIHEDRAL>
-6.1821

>  <SCORE.INTRA.DIHEDRAL.0>
9.90185

>  <SCORE.INTRA.POLAR>
0

>  <SCORE.INTRA.POLAR.0>
0

>  <SCORE.INTRA.REPUL>
0

>  <SCORE.INTRA.REPUL.0>
0

>  <SCORE.INTRA.SOLV>
0.568235

>  <SCORE.INTRA.SOLV.lig_0>
-53.6586

>  <SCORE.INTRA.VDW>
0.380392

>  <SCORE.INTRA.VDW.0>
-0.556525

>  <SCORE.INTRA.norm>
-0.220595

>  <SCORE.RESTR>
0

>  <SCORE.RESTR.CAVITY>
0

>  <SCORE.RESTR.norm>
0

>  <SCORE.SYSTEM>
0

>  <SCORE.SYSTEM.CONST>
0

>  <SCORE.SYSTEM.DIHEDRAL>
0

>  <SCORE.SYSTEM.SOLV>
0

>  <SCORE.SYSTEM.norm>
0

>  <SCORE.heavy>
11

>  <SCORE.norm>
-1.84232

>  <RMSD>
2.864

$$$$

 OpenBabel11021811383D
libRbt.so/2013.1/901 2013/11/27
 11 10  0  0  0  0  0  0  0  0999 V2000
   -0.8495   -2.1101    2.3914 N   0  3  0  0  0  0  0  0  0  0  0  0
   -1.3339   -1.3639    1.1914 C   0  0  2  0  0  0  0  0  0  0  0  0
   -2.3781   -0.3178    1.6169 C   0  0  0  0  0  0  0  0  0  0  0  0
   -2.3929    0.7870    1.1075 O   0  0  0  0  0  0  0  0  0  0  0  0
   -1.9593   -2.3522    0.1980 C   0  0  0  0  0  0  0  0  0  0  0  0
   -1.5843   -1.9504   -1.2313 C   0  0  0  0  0  0  0  0  0  0  0  0
   -2.3576   -2.8155   -2.2243 C   0  0  0  0  0  0  0  0  0  0  0  0
   -3.7777   -2.3701   -2.2558 N   0  3  0  0  0  0  0  0  0  0  0  0
   -4.5830   -2.8136   -3.1817 C   0  0  0  0  0  0  0  0  0  0  0  0
   -5.6231   -3.5331   -2.8481 N   0  0  0  0  0  0  0  0  0  0  0  0
   -4.3524   -2.5319   -4.4380 N   0  0  0  0  0  0  0  0  0  0  0  0
  2  1  1  1  0  0  0
  2  3  1  0  0  0  0
  2  5  1  0  0  0  0
  3  4  2  0  0  0  0
  5  6  1  0  0  0  0
  6  7  1  0  0  0  0
  7  8  1  0  0  0  0
  8  9  2  0  0  0  0
  9 10  1  0  0  0  0
  9 11  1  0  0  0  0
M  CHG  2   1   1   8   1
M  END
>  <CHROM.1>
-59.63921835,140.16132033,-140.96317211,-172.35348990,74.04760547,168.97297339
-2.84658547,-1.94649946,-0.86559856,-0.83694293,0.75387261,-2.48909548

>  <Name>


>  <RI>
0

>  <Rbt.Current_Directory>
/home/itssahil/PROJECTS/Mol_Feturizer/New_Systems/rnas/1aju

>  <Rbt.Executable>
rbdock ($Id: //depot/dev/client3/rdock/2013.1/src/exe/rbdock.cxx#4 $)

>  <Rbt.Library>
libRbt.so (2013.1, Build901 2013/11/27)

>  <Rbt.Parameter_File>
/export/apps/rDock/src/rDock_2013.1_src/data/scripts/dock_solv.prm

>  <Rbt.Receptor>
prm/pocket_docking_7.prm

>  <SCORE>
-17.8962

>  <SCORE.INTER>
-16.9766

>  <SCORE.INTER.CONST>
1

>  <SCORE.INTER.POLAR>
-2.57161

>  <SCORE.INTER.ROT>
5

>  <SCORE.INTER.SOLV>
14.058

>  <SCORE.INTER.VDW>
-14.365

>  <SCORE.INTER.norm>
-1.54333

>  <SCORE.INTRA>
-0.919585

>  <SCORE.INTRA.DIHEDRAL>
-1.52519

>  <SCORE.INTRA.DIHEDRAL.0>
9.90185

>  <SCORE.INTRA.POLAR>
0

>  <SCORE.INTRA.POLAR.0>
0

>  <SCORE.INTRA.REPUL>
0

>  <SCORE.INTRA.REPUL.0>
0

>  <SCORE.INTRA.SOLV>
0.320343

>  <SCORE.INTRA.SOLV.lig_0>
-53.6586

>  <SCORE.INTRA.VDW>
-0.317163

>  <SCORE.INTRA.VDW.0>
-0.556525

>  <SCORE.INTRA.norm>
-0.0835986

>  <SCORE.RESTR>
0

>  <SCORE.RESTR.CAVITY>
0

>  <SCORE.RESTR.norm>
0

>  <SCORE.SYSTEM>
0

>  <SCORE.SYSTEM.CONST>
0

>  <SCORE.SYSTEM.DIHEDRAL>
0

>  <SCORE.SYSTEM.SOLV>
0

>  <SCORE.SYSTEM.norm>
0

>  <SCORE.heavy>
11

>  <SCORE.norm>
-1.62693

>  <RMSD>
2.868

$$$$

 OpenBabel11021811383D
libRbt.so/2013.1/901 2013/11/27
 11 10  0  0  0  0  0  0  0  0999 V2000
   -4.1933   -1.8228    3.4608 N   0  3  0  0  0  0  0  0  0  0  0  0
   -3.9875   -2.9817    2.5409 C   0  0  2  0  0  0  0  0  0  0  0  0
   -2.5906   -3.5839    2.7687 C   0  0  0  0  0  0  0  0  0  0  0  0
   -2.4603   -4.7610    3.0474 O   0  0  0  0  0  0  0  0  0  0  0  0
   -4.1207   -2.5058    1.0881 C   0  0  0  0  0  0  0  0  0  0  0  0
   -5.1328   -3.3865    0.3499 C   0  0  0  0  0  0  0  0  0  0  0  0
   -5.4077   -2.7991   -1.0328 C   0  0  0  0  0  0  0  0  0  0  0  0
   -4.2455   -3.0775   -1.9203 N   0  3  0  0  0  0  0  0  0  0  0  0
   -4.3096   -2.7934   -3.1922 C   0  0  0  0  0  0  0  0  0  0  0  0
   -3.4982   -1.9023   -3.7006 N   0  0  0  0  0  0  0  0  0  0  0  0
   -5.1785   -3.4045   -3.9553 N   0  0  0  0  0  0  0  0  0  0  0  0
  2  1  1  1  0  0  0
  2  3  1  0  0  0  0
  2  5  1  0  0  0  0
  3  4  2  0  0  0  0
  5  6  1  0  0  0  0
  6  7  1  0  0  0  0
  7  8  1  0  0  0  0
  8  9  2  0  0  0  0
  9 10  1  0  0  0  0
  9 11  1  0  0  0  0
M  CHG  2   1   1   8   1
M  END
>  <CHROM.1>
59.58375364,123.93548288,-127.49029311,172.31939080,75.00531326,172.81792267
-4.09407686,-2.98816916,-0.04549571,1.33970082,-0.74539086,1.48447837

>  <Name>


>  <RI>
0

>  <Rbt.Current_Directory>
/home/itssahil/PROJECTS/Mol_Feturizer/New_Systems/rnas/1aju

>  <Rbt.Executable>
rbdock ($Id: //depot/dev/client3/rdock/2013.1/src/exe/rbdock.cxx#4 $)

>  <Rbt.Library>
libRbt.so (2013.1, Build901 2013/11/27)

>  <Rbt.Parameter_File>
/export/apps/rDock/src/rDock_2013.1_src/data/scripts/dock_solv.prm

>  <Rbt.Receptor>
prm/pocket_docking_4.prm

>  <SCORE>
-16.7035

>  <SCORE.INTER>
-16.7546

>  <SCORE.INTER.CONST>
1

>  <SCORE.INTER.POLAR>
-3.35806

>  <SCORE.INTER.ROT>
5

>  <SCORE.INTER.SOLV>
14.5068

>  <SCORE.INTER.VDW>
-11.7451

>  <SCORE.INTER.norm>
-1.52314

>  <SCORE.INTRA>
-0.595002

>  <SCORE.INTRA.DIHEDRAL>
-0.910131

>  <SCORE.INTRA.DIHEDRAL.0>
9.90185

>  <SCORE.INTRA.POLAR>
0

>  <SCORE.INTRA.POLAR.0>
0

>  <SCORE.INTRA.REPUL>
0

>  <SCORE.INTRA.REPUL.0>
0

>  <SCORE.INTRA.SOLV>
0.363118

>  <SCORE.INTRA.SOLV.lig_0>
-53.6586

>  <SCORE.INTRA.VDW>
-0.321495

>  <SCORE.INTRA.VDW.0>
-0.556525

>  <SCORE.INTRA.norm>
-0.0540911

>  <SCORE.RESTR>
0.64601

>  <SCORE.RESTR.CAVITY>
0.64601

>  <SCORE.RESTR.norm>
0.0587282

>  <SCORE.SYSTEM>
0

>  <SCORE.SYSTEM.CONST>
0

>  <SCORE.SYSTEM.DIHEDRAL>
0

>  <SCORE.SYSTEM.SOLV>
0

>  <SCORE.SYSTEM.norm>
0

>  <SCORE.heavy>
11

>  <SCORE.norm>
-1.5185

>  <RMSD>
2.881

$$$$

 OpenBabel11021811383D
libRbt.so/2013.1/901 2013/11/27
 11 10  0  0  0  0  0  0  0  0999 V2000
   -2.0629   -0.4664    1.9954 N   0  3  0  0  0  0  0  0  0  0  0  0
   -2.5432   -1.0703    0.7162 C   0  0  2  0  0  0  0  0  0  0  0  0
   -3.7665   -1.9616    0.9898 C   0  0  0  0  0  0  0  0  0  0  0  0
   -4.2356   -2.0450    2.1093 O   0  0  0  0  0  0  0  0  0  0  0  0
   -1.4159   -1.9063    0.0955 C   0  0  0  0  0  0  0  0  0  0  0  0
   -1.6892   -2.1091   -1.3975 C   0  0  0  0  0  0  0  0  0  0  0  0
   -2.6379   -3.2910   -1.5869 C   0  0  0  0  0  0  0  0  0  0  0  0
   -3.9570   -2.7863   -2.0572 N   0  3  0  0  0  0  0  0  0  0  0  0
   -4.1981   -2.6748   -3.3348 C   0  0  0  0  0  0  0  0  0  0  0  0
   -5.1457   -3.3911   -3.8821 N   0  0  0  0  0  0  0  0  0  0  0  0
   -3.4975   -1.8432   -4.0617 N   0  0  0  0  0  0  0  0  0  0  0  0
  2  1  1  1  0  0  0
  2  3  1  0  0  0  0
  2  5  1  0  0  0  0
  3  4  2  0  0  0  0
  5  6  1  0  0  0  0
  6  7  1  0  0  0  0
  7  8  1  0  0  0  0
  8  9  2  0  0  0  0
  9 10  1  0  0  0  0
  9 11  1  0  0  0  0
M  CHG  2   1   1   8   1
M  END
>  <CHROM.1>
178.90418433,3.11059542,-159.88913361,-83.75369860,110.50312041,90.40134064
-3.21112245,-2.12014758,-0.92512157,-1.28777055,-0.33556086,-1.75807610

>  <Name>


>  <RI>
224

>  <Rbt.Current_Directory>
/home/itssahil/PROJECTS/Mol_Feturizer/New_Systems/rnas/1aju

>  <Rbt.Executable>
rbdock ($Id: //depot/dev/client3/rdock/2013.1/src/exe/rbdock.cxx#4 $)

>  <Rbt.Library>
libRbt.so (2013.1, Build901 2013/11/27)

>  <Rbt.Parameter_File>
/export/apps/rDock/src/rDock_2013.1_src/data/scripts/dock_solv.prm

>  <Rbt.Receptor>
prm/pocket_docking_5.prm

>  <SCORE>
-13.5572

>  <SCORE.INTER>
-15.6531

>  <SCORE.INTER.CONST>
1

>  <SCORE.INTER.POLAR>
-2.71367

>  <SCORE.INTER.ROT>
5

>  <SCORE.INTER.SOLV>
14.7898

>  <SCORE.INTER.VDW>
-13.2531

>  <SCORE.INTER.norm>
-1.42301

>  <SCORE.INTRA>
2.0959

>  <SCORE.INTRA.DIHEDRAL>
1.581

>  <SCORE.INTRA.DIHEDRAL.0>
9.90185

>  <SCORE.INTRA.POLAR>
0

>  <SCORE.INTRA.POLAR.0>
0

>  <SCORE.INTRA.REPUL>
0

>  <SCORE.INTRA.REPUL.0>
0

>  <SCORE.INTRA.SOLV>
2.45467

>  <SCORE.INTRA.SOLV.lig_0>
-53.6586

>  <SCORE.INTRA.VDW>
0.0780673

>  <SCORE.INTRA.VDW.0>
-0.556525

>  <SCORE.INTRA.norm>
0.190537

>  <SCORE.RESTR>
0

>  <SCORE.RESTR.CAVITY>
0

>  <SCORE.RESTR.norm>
0

>  <SCORE.SYSTEM>
0

>  <SCORE.SYSTEM.CONST>
0

>  <SCORE.SYSTEM.DIHEDRAL>
0

>  <SCORE.SYSTEM.SOLV>
0

>  <SCORE.SYSTEM.norm>
0

>  <SCORE.heavy>
11

>  <SCORE.norm>
-1.23247

>  <RMSD>
2.881

$$$$

 OpenBabel11021811383D
libRbt.so/2013.1/901 2013/11/27
 11 10  0  0  0  0  0  0  0  0999 V2000
   -2.0757   -0.7454    2.4743 N   0  3  0  0  0  0  0  0  0  0  0  0
   -2.6743   -1.2383    1.1973 C   0  0  2  0  0  0  0  0  0  0  0  0
   -3.9227   -2.0837    1.5013 C   0  0  0  0  0  0  0  0  0  0  0  0
   -4.9430   -1.9385    0.8545 O   0  0  0  0  0  0  0  0  0  0  0  0
   -1.6391   -2.0863    0.4462 C   0  0  0  0  0  0  0  0  0  0  0  0
   -1.7675   -1.8387   -1.0595 C   0  0  0  0  0  0  0  0  0  0  0  0
   -3.1646   -2.2423   -1.5259 C   0  0  0  0  0  0  0  0  0  0  0  0
   -3.1076   -2.6206   -2.9645 N   0  3  0  0  0  0  0  0  0  0  0  0
   -4.2018   -2.9310   -3.6041 C   0  0  0  0  0  0  0  0  0  0  0  0
   -4.5974   -2.1946   -4.6101 N   0  0  0  0  0  0  0  0  0  0  0  0
   -4.8948   -3.9797   -3.2427 N   0  0  0  0  0  0  0  0  0  0  0  0
  2  1  1  1  0  0  0
  2  3  1  0  0  0  0
  2  5  1  0  0  0  0
  3  4  2  0  0  0  0
  5  6  1  0  0  0  0
  6  7  1  0  0  0  0
  7  8  1  0  0  0  0
  8  9  2  0  0  0  0
  9 10  1  0  0  0  0
  9 11  1  0  0  0  0
M  CHG  2   1   1   8   1
M  END
>  <CHROM.1>
-178.68132990,135.63297812,-142.97481465,-60.76361324,-153.42992266,-176.14330399
-3.37821787,-2.16483108,-0.95347316,-1.27163781,-0.26732073,-1.76921641

>  <Name>


>  <RI>
0

>  <Rbt.Current_Directory>
/home/itssahil/PROJECTS/Mol_Feturizer/New_Systems/rnas/1aju

>  <Rbt.Executable>
rbdock ($Id: //depot/dev/client3/rdock/2013.1/src/exe/rbdock.cxx#4 $)

>  <Rbt.Library>
libRbt.so (2013.1, Build901 2013/11/27)

>  <Rbt.Parameter_File>
/export/apps/rDock/src/rDock_2013.1_src/data/scripts/dock_solv.prm

>  <Rbt.Receptor>
prm/pocket_docking_7.prm

>  <SCORE>
-15.2225

>  <SCORE.INTER>
-15.8544

>  <SCORE.INTER.CONST>
1

>  <SCORE.INTER.POLAR>
-2.41389

>  <SCORE.INTER.ROT>
5

>  <SCORE.INTER.SOLV>
14.1992

>  <SCORE.INTER.VDW>
-14.1897

>  <SCORE.INTER.norm>
-1.44131

>  <SCORE.INTRA>
0.631828

>  <SCORE.INTRA.DIHEDRAL>
-0.754057

>  <SCORE.INTRA.DIHEDRAL.0>
9.90185

>  <SCORE.INTRA.POLAR>
0

>  <SCORE.INTRA.POLAR.0>
0

>  <SCORE.INTRA.REPUL>
0

>  <SCORE.INTRA.REPUL.0>
0

>  <SCORE.INTRA.SOLV>
0.172837

>  <SCORE.INTRA.SOLV.lig_0>
-53.6586

>  <SCORE.INTRA.VDW>
0.922438

>  <SCORE.INTRA.VDW.0>
-0.556525

>  <SCORE.INTRA.norm>
0.0574389

>  <SCORE.RESTR>
0

>  <SCORE.RESTR.CAVITY>
0

>  <SCORE.RESTR.norm>
0

>  <SCORE.SYSTEM>
0

>  <SCORE.SYSTEM.CONST>
0

>  <SCORE.SYSTEM.DIHEDRAL>
0

>  <SCORE.SYSTEM.SOLV>
0

>  <SCORE.SYSTEM.norm>
0

>  <SCORE.heavy>
11

>  <SCORE.norm>
-1.38387

>  <RMSD>
2.914

$$$$

 OpenBabel11021811383D
libRbt.so/2013.1/901 2013/11/27
 11 10  0  0  0  0  0  0  0  0999 V2000
   -2.6690   -1.4251    2.9843 N   0  3  0  0  0  0  0  0  0  0  0  0
   -1.8059   -1.4971    1.7672 C   0  0  2  0  0  0  0  0  0  0  0  0
   -0.8333   -0.3056    1.7491 C   0  0  0  0  0  0  0  0  0  0  0  0
   -0.9937    0.6145    0.9694 O   0  0  0  0  0  0  0  0  0  0  0  0
   -2.6919   -1.4673    0.5147 C   0  0  0  0  0  0  0  0  0  0  0  0
   -3.6341   -2.6744    0.5233 C   0  0  0  0  0  0  0  0  0  0  0  0
   -4.5460   -2.6190   -0.7006 C   0  0  0  0  0  0  0  0  0  0  0  0
   -3.8526   -3.2550   -1.8540 N   0  3  0  0  0  0  0  0  0  0  0  0
   -4.4774   -3.4112   -2.9889 C   0  0  0  0  0  0  0  0  0  0  0  0
   -4.0431   -2.7980   -4.0595 N   0  0  0  0  0  0  0  0  0  0  0  0
   -5.5300   -4.1848   -3.0542 N   0  0  0  0  0  0  0  0  0  0  0  0
  2  1  1  1  0  0  0
  2  3  1  0  0  0  0
  2  5  1  0  0  0  0
  3  4  2  0  0  0  0
  5  6  1  0  0  0  0
  6  7  1  0  0  0  0
  7  8  1  0  0  0  0
  8  9  2  0  0  0  0
  9 10  1  0  0  0  0
  9 11  1  0  0  0  0
M  CHG  2   1   1   8   1
M  END
>  <CHROM.1>
-174.54813028,-107.04088234,-60.86300663,178.18053826,85.90949077,175.06210605
-3.20410731,-2.08989138,-0.37947783,0.85824277,0.77373542,1.59442656

>  <Name>


>  <RI>
0

>  <Rbt.Current_Directory>
/home/itssahil/PROJECTS/Mol_Feturizer/New_Systems/rnas/1aju

>  <Rbt.Executable>
rbdock ($Id: //depot/dev/client3/rdock/2013.1/src/exe/rbdock.cxx#4 $)

>  <Rbt.Library>
libRbt.so (2013.1, Build901 2013/11/27)

>  <Rbt.Parameter_File>
/export/apps/rDock/src/rDock_2013.1_src/data/scripts/dock_solv.prm

>  <Rbt.Receptor>
prm/pocket_docking_7.prm

>  <SCORE>
-13.1717

>  <SCORE.INTER>
-12.8341

>  <SCORE.INTER.CONST>
1

>  <SCORE.INTER.POLAR>
-2.61354

>  <SCORE.INTER.ROT>
5

>  <SCORE.INTER.SOLV>
10.3775

>  <SCORE.INTER.VDW>
-10.2368

>  <SCORE.INTER.norm>
-1.16674

>  <SCORE.INTRA>
-0.337528

>  <SCORE.INTRA.DIHEDRAL>
-4.36484

>  <SCORE.INTRA.DIHEDRAL.0>
9.90185

>  <SCORE.INTRA.POLAR>
0

>  <SCORE.INTRA.POLAR.0>
0

>  <SCORE.INTRA.REPUL>
0

>  <SCORE.INTRA.REPUL.0>
0

>  <SCORE.INTRA.SOLV>
1.65451

>  <SCORE.INTRA.SOLV.lig_0>
-53.6586

>  <SCORE.INTRA.VDW>
1.01763

>  <SCORE.INTRA.VDW.0>
-0.556525

>  <SCORE.INTRA.norm>
-0.0306844

>  <SCORE.RESTR>
0

>  <SCORE.RESTR.CAVITY>
0

>  <SCORE.RESTR.norm>
0

>  <SCORE.SYSTEM>
0

>  <SCORE.SYSTEM.CONST>
0

>  <SCORE.SYSTEM.DIHEDRAL>
0

>  <SCORE.SYSTEM.SOLV>
0

>  <SCORE.SYSTEM.norm>
0

>  <SCORE.heavy>
11

>  <SCORE.norm>
-1.19742

>  <RMSD>
2.922

$$$$

 OpenBabel11021811383D
libRbt.so/2013.1/901 2013/11/27
 11 10  0  0  0  0  0  0  0  0999 V2000
   -2.5160   -6.8435   -0.0153 N   0  3  0  0  0  0  0  0  0  0  0  0
   -2.6961   -6.2197   -1.3606 C   0  0  2  0  0  0  0  0  0  0  0  0
   -1.5526   -5.2270   -1.6301 C   0  0  0  0  0  0  0  0  0  0  0  0
   -1.0499   -5.1444   -2.7350 O   0  0  0  0  0  0  0  0  0  0  0  0
   -4.0443   -5.4880   -1.4039 C   0  0  0  0  0  0  0  0  0  0  0  0
   -4.0657   -4.3874   -0.3394 C   0  0  0  0  0  0  0  0  0  0  0  0
   -3.5909   -3.0727   -0.9548 C   0  0  0  0  0  0  0  0  0  0  0  0
   -4.6567   -2.5393   -1.8467 N   0  3  0  0  0  0  0  0  0  0  0  0
   -4.5084   -2.5812   -3.1424 C   0  0  0  0  0  0  0  0  0  0  0  0
   -5.3323   -3.2921   -3.8680 N   0  0  0  0  0  0  0  0  0  0  0  0
   -3.5424   -1.9076   -3.7116 N   0  0  0  0  0  0  0  0  0  0  0  0
  2  1  1  1  0  0  0
  2  3  1  0  0  0  0
  2  5  1  0  0  0  0
  3  4  2  0  0  0  0
  5  6  1  0  0  0  0
  6  7  1  0  0  0  0
  7  8  1  0  0  0  0
  8  9  2  0  0  0  0
  9 10  1  0  0  0  0
  9 11  1  0  0  0  0
M  CHG  2   1   1   8   1
M  END
>  <CHROM.1>
173.33529734,140.43804166,60.70431565,92.35987852,73.14120061,-107.33547253
-3.40751352,-4.25681909,-1.91847595,1.02714816,-0.50616608,2.29346897

>  <Name>


>  <RI>
0

>  <Rbt.Current_Directory>
/home/itssahil/PROJECTS/Mol_Feturizer/New_Systems/rnas/1aju

>  <Rbt.Executable>
rbdock ($Id: //depot/dev/client3/rdock/2013.1/src/exe/rbdock.cxx#4 $)

>  <Rbt.Library>
libRbt.so (2013.1, Build901 2013/11/27)

>  <Rbt.Parameter_File>
/export/apps/rDock/src/rDock_2013.1_src/data/scripts/dock_solv.prm

>  <Rbt.Receptor>
prm/pocket_docking_4.prm

>  <SCORE>
-14.7882

>  <SCORE.INTER>
-15.5226

>  <SCORE.INTER.CONST>
1

>  <SCORE.INTER.POLAR>
-3.23224

>  <SCORE.INTER.ROT>
5

>  <SCORE.INTER.SOLV>
16.3477

>  <SCORE.INTER.VDW>
-11.9568

>  <SCORE.INTER.norm>
-1.41114

>  <SCORE.INTRA>
0.734375

>  <SCORE.INTRA.DIHEDRAL>
-2.02674

>  <SCORE.INTRA.DIHEDRAL.0>
9.90185

>  <SCORE.INTRA.POLAR>
0

>  <SCORE.INTRA.POLAR.0>
0

>  <SCORE.INTRA.REPUL>
0

>  <SCORE.INTRA.REPUL.0>
0

>  <SCORE.INTRA.SOLV>
2.29554

>  <SCORE.INTRA.SOLV.lig_0>
-53.6586

>  <SCORE.INTRA.VDW>
0.599978

>  <SCORE.INTRA.VDW.0>
-0.556525

>  <SCORE.INTRA.norm>
0.0667613

>  <SCORE.RESTR>
0

>  <SCORE.RESTR.CAVITY>
0

>  <SCORE.RESTR.norm>
0

>  <SCORE.SYSTEM>
0

>  <SCORE.SYSTEM.CONST>
0

>  <SCORE.SYSTEM.DIHEDRAL>
0

>  <SCORE.SYSTEM.SOLV>
0

>  <SCORE.SYSTEM.norm>
0

>  <SCORE.heavy>
11

>  <SCORE.norm>
-1.34438

>  <RMSD>
2.928

$$$$

 OpenBabel11021811383D
libRbt.so/2013.1/901 2013/11/27
 11 10  0  0  0  0  0  0  0  0999 V2000
   -5.4238   -3.9750    1.7427 N   0  3  0  0  0  0  0  0  0  0  0  0
   -3.9313   -3.9174    1.7702 C   0  0  2  0  0  0  0  0  0  0  0  0
   -3.4468   -3.6906    3.2122 C   0  0  0  0  0  0  0  0  0  0  0  0
   -2.6415   -4.4465    3.7224 O   0  0  0  0  0  0  0  0  0  0  0  0
   -3.4515   -2.7700    0.8712 C   0  0  0  0  0  0  0  0  0  0  0  0
   -3.3894   -3.2479   -0.5823 C   0  0  0  0  0  0  0  0  0  0  0  0
   -3.2408   -2.0436   -1.5097 C   0  0  0  0  0  0  0  0  0  0  0  0
   -3.1614   -2.5198   -2.9178 N   0  3  0  0  0  0  0  0  0  0  0  0
   -4.2469   -2.8629   -3.5555 C   0  0  0  0  0  0  0  0  0  0  0  0
   -4.6161   -2.1933   -4.6166 N   0  0  0  0  0  0  0  0  0  0  0  0
   -4.9574   -3.8781   -3.1368 N   0  0  0  0  0  0  0  0  0  0  0  0
  2  1  1  1  0  0  0
  2  3  1  0  0  0  0
  2  5  1  0  0  0  0
  3  4  2  0  0  0  0
  5  6  1  0  0  0  0
  6  7  1  0  0  0  0
  7  8  1  0  0  0  0
  8  9  2  0  0  0  0
  9 10  1  0  0  0  0
  9 11  1  0  0  0  0
M  CHG  2   1   1   8   1
M  END
>  <CHROM.1>
178.69728342,125.73330861,-83.55561225,166.57571063,179.18093435,79.00700029
-3.90070230,-3.25068004,-0.46650351,1.46104108,0.44933354,1.81581000

>  <Name>


>  <RI>
224

>  <Rbt.Current_Directory>
/home/itssahil/PROJECTS/Mol_Feturizer/New_Systems/rnas/1aju

>  <Rbt.Executable>
rbdock ($Id: //depot/dev/client3/rdock/2013.1/src/exe/rbdock.cxx#4 $)

>  <Rbt.Library>
libRbt.so (2013.1, Build901 2013/11/27)

>  <Rbt.Parameter_File>
/export/apps/rDock/src/rDock_2013.1_src/data/scripts/dock_solv.prm

>  <Rbt.Receptor>
prm/pocket_docking_5.prm

>  <SCORE>
-18.0186

>  <SCORE.INTER>
-16.6621

>  <SCORE.INTER.CONST>
1

>  <SCORE.INTER.POLAR>
-3.382

>  <SCORE.INTER.ROT>
5

>  <SCORE.INTER.SOLV>
14.4323

>  <SCORE.INTER.VDW>
-11.5789

>  <SCORE.INTER.norm>
-1.51474

>  <SCORE.INTRA>
-1.35648

>  <SCORE.INTRA.DIHEDRAL>
-4.48757

>  <SCORE.INTRA.DIHEDRAL.0>
9.90185

>  <SCORE.INTRA.POLAR>
0

>  <SCORE.INTRA.POLAR.0>
0

>  <SCORE.INTRA.REPUL>
0

>  <SCORE.INTRA.REPUL.0>
0

>  <SCORE.INTRA.SOLV>
1.52255

>  <SCORE.INTRA.SOLV.lig_0>
-53.6586

>  <SCORE.INTRA.VDW>
0.126031

>  <SCORE.INTRA.VDW.0>
-0.556525

>  <SCORE.INTRA.norm>
-0.123317

>  <SCORE.RESTR>
0

>  <SCORE.RESTR.CAVITY>
0

>  <SCORE.RESTR.norm>
0

>  <SCORE.SYSTEM>
0

>  <SCORE.SYSTEM.CONST>
0

>  <SCORE.SYSTEM.DIHEDRAL>
0

>  <SCORE.SYSTEM.SOLV>
0

>  <SCORE.SYSTEM.norm>
0

>  <SCORE.heavy>
11

>  <SCORE.norm>
-1.63806

>  <RMSD>
2.946

$$$$

 OpenBabel11021811383D
libRbt.so/2013.1/901 2013/11/27
 11 10  0  0  0  0  0  0  0  0999 V2000
   -4.0582   -1.5430    2.9178 N   0  3  0  0  0  0  0  0  0  0  0  0
   -3.2552   -2.6634    2.3417 C   0  0  2  0  0  0  0  0  0  0  0  0
   -1.9145   -2.1241    1.8152 C   0  0  0  0  0  0  0  0  0  0  0  0
   -1.6143   -0.9546    1.9645 O   0  0  0  0  0  0  0  0  0  0  0  0
   -4.0423   -3.3149    1.1968 C   0  0  0  0  0  0  0  0  0  0  0  0
   -4.6126   -2.2275    0.2818 C   0  0  0  0  0  0  0  0  0  0  0  0
   -5.2076   -2.8726   -0.9682 C   0  0  0  0  0  0  0  0  0  0  0  0
   -4.1169   -3.1370   -1.9462 N   0  3  0  0  0  0  0  0  0  0  0  0
   -4.2672   -2.8079   -3.1999 C   0  0  0  0  0  0  0  0  0  0  0  0
   -3.4793   -1.9116   -3.7353 N   0  0  0  0  0  0  0  0  0  0  0  0
   -5.1989   -3.3794   -3.9183 N   0  0  0  0  0  0  0  0  0  0  0  0
  2  1  1  6  0  0  0
  2  3  1  0  0  0  0
  2  5  1  0  0  0  0
  3  4  2  0  0  0  0
  5  6  1  0  0  0  0
  6  7  1  0  0  0  0
  7  8  1  0  0  0  0
  8  9  2  0  0  0  0
  9 10  1  0  0  0  0
  9 11  1  0  0  0  0
M  CHG  2   1   1   8   1
M  END
>  <CHROM.1>
157.53174492,3.81262069,46.40294063,171.29859981,-82.52641121,-133.29175994
-3.79871116,-2.41482771,-0.30047763,1.27401827,0.48528082,1.53850886

>  <Name>


>  <RI>
0

>  <Rbt.Current_Directory>
/home/itssahil/PROJECTS/Mol_Feturizer/New_Systems/rnas/1aju

>  <Rbt.Executable>
rbdock ($Id: //depot/dev/client3/rdock/2013.1/src/exe/rbdock.cxx#4 $)

>  <Rbt.Library>
libRbt.so (2013.1, Build901 2013/11/27)

>  <Rbt.Parameter_File>
/export/apps/rDock/src/rDock_2013.1_src/data/scripts/dock_solv.prm

>  <Rbt.Receptor>
prm/pocket_docking_6.prm

>  <SCORE>
-15.3865

>  <SCORE.INTER>
-16.1653

>  <SCORE.INTER.CONST>
1

>  <SCORE.INTER.POLAR>
-3.37989

>  <SCORE.INTER.ROT>
5

>  <SCORE.INTER.SOLV>
14.543

>  <SCORE.INTER.VDW>
-11.2916

>  <SCORE.INTER.norm>
-1.46958

>  <SCORE.INTRA>
0.771837

>  <SCORE.INTRA.DIHEDRAL>
-3.21356

>  <SCORE.INTRA.DIHEDRAL.0>
9.90185

>  <SCORE.INTRA.POLAR>
0

>  <SCORE.INTRA.POLAR.0>
0

>  <SCORE.INTRA.REPUL>
0

>  <SCORE.INTRA.REPUL.0>
0

>  <SCORE.INTRA.SOLV>
2.95368

>  <SCORE.INTRA.SOLV.lig_0>
-53.6586

>  <SCORE.INTRA.VDW>
0.901775

>  <SCORE.INTRA.VDW.0>
-0.556525

>  <SCORE.INTRA.norm>
0.070167

>  <SCORE.RESTR>
0.0069808

>  <SCORE.RESTR.CAVITY>
0.0069808

>  <SCORE.RESTR.norm>
0.000634618

>  <SCORE.SYSTEM>
0

>  <SCORE.SYSTEM.CONST>
0

>  <SCORE.SYSTEM.DIHEDRAL>
0

>  <SCORE.SYSTEM.SOLV>
0

>  <SCORE.SYSTEM.norm>
0

>  <SCORE.heavy>
11

>  <SCORE.norm>
-1.39878

>  <RMSD>
2.949

$$$$

 OpenBabel11021811383D
libRbt.so/2013.1/901 2013/11/27
 11 10  0  0  0  0  0  0  0  0999 V2000
   -4.5214   -1.8399    1.0159 N   0  3  0  0  0  0  0  0  0  0  0  0
   -3.2811   -2.4968    1.5276 C   0  0  2  0  0  0  0  0  0  0  0  0
   -3.0802   -2.1431    3.0109 C   0  0  0  0  0  0  0  0  0  0  0  0
   -2.2753   -1.2932    3.3427 O   0  0  0  0  0  0  0  0  0  0  0  0
   -2.0768   -2.0149    0.7077 C   0  0  0  0  0  0  0  0  0  0  0  0
   -2.1172   -2.6489   -0.6856 C   0  0  0  0  0  0  0  0  0  0  0  0
   -3.2507   -2.0255   -1.4974 C   0  0  0  0  0  0  0  0  0  0  0  0
   -3.1632   -2.5048   -2.9040 N   0  3  0  0  0  0  0  0  0  0  0  0
   -4.2434   -2.8636   -3.5422 C   0  0  0  0  0  0  0  0  0  0  0  0
   -4.6197   -2.2018   -4.6058 N   0  0  0  0  0  0  0  0  0  0  0  0
   -4.9415   -3.8865   -3.1215 N   0  0  0  0  0  0  0  0  0  0  0  0
  2  1  1  6  0  0  0
  2  3  1  0  0  0  0
  2  5  1  0  0  0  0
  3  4  2  0  0  0  0
  5  6  1  0  0  0  0
  6  7  1  0  0  0  0
  7  8  1  0  0  0  0
  8  9  2  0  0  0  0
  9 10  1  0  0  0  0
  9 11  1  0  0  0  0
M  CHG  2   1   1   8   1
M  END
>  <CHROM.1>
-33.13174901,-101.63384687,-72.84392758,71.45666219,172.10332179,137.01173475
-3.45224744,-2.34472682,-0.63725184,1.32889720,0.21361555,1.46567999

>  <Name>


>  <RI>
0

>  <Rbt.Current_Directory>
/home/itssahil/PROJECTS/Mol_Feturizer/New_Systems/rnas/1aju

>  <Rbt.Executable>
rbdock ($Id: //depot/dev/client3/rdock/2013.1/src/exe/rbdock.cxx#4 $)

>  <Rbt.Library>
libRbt.so (2013.1, Build901 2013/11/27)

>  <Rbt.Parameter_File>
/export/apps/rDock/src/rDock_2013.1_src/data/scripts/dock_solv.prm

>  <Rbt.Receptor>
prm/pocket_docking_6.prm

>  <SCORE>
-21.3371

>  <SCORE.INTER>
-23.6545

>  <SCORE.INTER.CONST>
1

>  <SCORE.INTER.POLAR>
-4.60612

>  <SCORE.INTER.ROT>
5

>  <SCORE.INTER.SOLV>
17.0595

>  <SCORE.INTER.VDW>
-13.0358

>  <SCORE.INTER.norm>
-2.15041

>  <SCORE.INTRA>
2.31168

>  <SCORE.INTRA.DIHEDRAL>
-3.48681

>  <SCORE.INTRA.DIHEDRAL.0>
9.90185

>  <SCORE.INTRA.POLAR>
0

>  <SCORE.INTRA.POLAR.0>
0

>  <SCORE.INTRA.REPUL>
0

>  <SCORE.INTRA.REPUL.0>
0

>  <SCORE.INTRA.SOLV>
3.55646

>  <SCORE.INTRA.SOLV.lig_0>
-53.6586

>  <SCORE.INTRA.VDW>
2.27686

>  <SCORE.INTRA.VDW.0>
-0.556525

>  <SCORE.INTRA.norm>
0.210153

>  <SCORE.RESTR>
0.00577386

>  <SCORE.RESTR.CAVITY>
0.00577386

>  <SCORE.RESTR.norm>
0.000524896

>  <SCORE.SYSTEM>
0

>  <SCORE.SYSTEM.CONST>
0

>  <SCORE.SYSTEM.DIHEDRAL>
0

>  <SCORE.SYSTEM.SOLV>
0

>  <SCORE.SYSTEM.norm>
0

>  <SCORE.heavy>
11

>  <SCORE.norm>
-1.93973

>  <RMSD>
2.974

$$$$

 OpenBabel11021811383D
libRbt.so/2013.1/901 2013/11/27
 11 10  0  0  0  0  0  0  0  0999 V2000
   -5.7712   -4.1922    2.3100 N   0  3  0  0  0  0  0  0  0  0  0  0
   -4.4960   -4.1780    1.5321 C   0  0  2  0  0  0  0  0  0  0  0  0
   -3.3103   -3.9418    2.4829 C   0  0  0  0  0  0  0  0  0  0  0  0
   -2.4355   -4.7787    2.6037 O   0  0  0  0  0  0  0  0  0  0  0  0
   -4.5547   -3.0602    0.4824 C   0  0  0  0  0  0  0  0  0  0  0  0
   -3.4879   -3.3048   -0.5886 C   0  0  0  0  0  0  0  0  0  0  0  0
   -3.3822   -2.0788   -1.4932 C   0  0  0  0  0  0  0  0  0  0  0  0
   -3.2349   -2.5264   -2.9052 N   0  3  0  0  0  0  0  0  0  0  0  0
   -4.2877   -2.8620   -3.5992 C   0  0  0  0  0  0  0  0  0  0  0  0
   -4.6113   -2.1731   -4.6630 N   0  0  0  0  0  0  0  0  0  0  0  0
   -5.0110   -3.8887   -3.2341 N   0  0  0  0  0  0  0  0  0  0  0  0
  2  1  1  1  0  0  0
  2  3  1  0  0  0  0
  2  5  1  0  0  0  0
  3  4  2  0  0  0  0
  5  6  1  0  0  0  0
  6  7  1  0  0  0  0
  7  8  1  0  0  0  0
  8  9  2  0  0  0  0
  9 10  1  0  0  0  0
  9 11  1  0  0  0  0
M  CHG  2   1   1   8   1
M  END
>  <CHROM.1>
-168.04470394,118.25925531,-162.19713763,-170.28088750,-138.88642045,82.15467882
-4.08303540,-3.38127642,-0.64262251,1.52023841,0.18665268,1.83803854

>  <Name>


>  <RI>
0

>  <Rbt.Current_Directory>
/home/itssahil/PROJECTS/Mol_Feturizer/New_Systems/rnas/1aju

>  <Rbt.Executable>
rbdock ($Id: //depot/dev/client3/rdock/2013.1/src/exe/rbdock.cxx#4 $)

>  <Rbt.Library>
libRbt.so (2013.1, Build901 2013/11/27)

>  <Rbt.Parameter_File>
/export/apps/rDock/src/rDock_2013.1_src/data/scripts/dock_solv.prm

>  <Rbt.Receptor>
prm/pocket_docking_7.prm

>  <SCORE>
-17.0683

>  <SCORE.INTER>
-17.1151

>  <SCORE.INTER.CONST>
1

>  <SCORE.INTER.POLAR>
-3.40509

>  <SCORE.INTER.ROT>
5

>  <SCORE.INTER.SOLV>
15.1037

>  <SCORE.INTER.VDW>
-12.0277

>  <SCORE.INTER.norm>
-1.55592

>  <SCORE.INTRA>
0.0467745

>  <SCORE.INTRA.DIHEDRAL>
-0.946374

>  <SCORE.INTRA.DIHEDRAL.0>
9.90185

>  <SCORE.INTRA.POLAR>
0

>  <SCORE.INTRA.POLAR.0>
0

>  <SCORE.INTRA.REPUL>
0

>  <SCORE.INTRA.REPUL.0>
0

>  <SCORE.INTRA.SOLV>
0.78768

>  <SCORE.INTRA.SOLV.lig_0>
-53.6586

>  <SCORE.INTRA.VDW>
0.126121

>  <SCORE.INTRA.VDW.0>
-0.556525

>  <SCORE.INTRA.norm>
0.00425222

>  <SCORE.RESTR>
0

>  <SCORE.RESTR.CAVITY>
0

>  <SCORE.RESTR.norm>
0

>  <SCORE.SYSTEM>
0

>  <SCORE.SYSTEM.CONST>
0

>  <SCORE.SYSTEM.DIHEDRAL>
0

>  <SCORE.SYSTEM.SOLV>
0

>  <SCORE.SYSTEM.norm>
0

>  <SCORE.heavy>
11

>  <SCORE.norm>
-1.55167

>  <RMSD>
2.975

$$$$

 OpenBabel11021811383D
libRbt.so/2013.1/901 2013/11/27
 11 10  0  0  0  0  0  0  0  0999 V2000
   -4.0153   -1.1906    1.7722 N   0  3  0  0  0  0  0  0  0  0  0  0
   -3.8887   -2.0764    0.5759 C   0  0  2  0  0  0  0  0  0  0  0  0
   -4.6540   -3.3885    0.8181 C   0  0  0  0  0  0  0  0  0  0  0  0
   -5.4229   -3.8220   -0.0192 O   0  0  0  0  0  0  0  0  0  0  0  0
   -2.4054   -2.3760    0.3214 C   0  0  0  0  0  0  0  0  0  0  0  0
   -2.2636   -3.2335   -0.9394 C   0  0  0  0  0  0  0  0  0  0  0  0
   -2.5727   -2.3851   -2.1711 C   0  0  0  0  0  0  0  0  0  0  0  0
   -4.0485   -2.2517   -2.3129 N   0  3  0  0  0  0  0  0  0  0  0  0
   -4.6704   -2.8564   -3.2877 C   0  0  0  0  0  0  0  0  0  0  0  0
   -5.5563   -3.7804   -3.0191 N   0  0  0  0  0  0  0  0  0  0  0  0
   -4.4118   -2.5324   -4.5282 N   0  0  0  0  0  0  0  0  0  0  0  0
  2  1  1  1  0  0  0
  2  3  1  0  0  0  0
  2  5  1  0  0  0  0
  3  4  2  0  0  0  0
  5  6  1  0  0  0  0
  6  7  1  0  0  0  0
  7  8  1  0  0  0  0
  8  9  2  0  0  0  0
  9 10  1  0  0  0  0
  9 11  1  0  0  0  0
M  CHG  2   1   1   8   1
M  END
>  <CHROM.1>
-178.92955279,131.51050149,-177.54509549,71.45422424,-78.80018676,-109.83213572
-4.02966885,-2.70422598,-1.15775367,1.39418061,0.42341091,1.49007320

>  <Name>


>  <RI>
224

>  <Rbt.Current_Directory>
/home/itssahil/PROJECTS/Mol_Feturizer/New_Systems/rnas/1aju

>  <Rbt.Executable>
rbdock ($Id: //depot/dev/client3/rdock/2013.1/src/exe/rbdock.cxx#4 $)

>  <Rbt.Library>
libRbt.so (2013.1, Build901 2013/11/27)

>  <Rbt.Parameter_File>
/export/apps/rDock/src/rDock_2013.1_src/data/scripts/dock_solv.prm

>  <Rbt.Receptor>
prm/pocket_docking_5.prm

>  <SCORE>
-20.7777

>  <SCORE.INTER>
-16.5324

>  <SCORE.INTER.CONST>
1

>  <SCORE.INTER.POLAR>
-2.55118

>  <SCORE.INTER.ROT>
5

>  <SCORE.INTER.SOLV>
15.699

>  <SCORE.INTER.VDW>
-14.684

>  <SCORE.INTER.norm>
-1.50295

>  <SCORE.INTRA>
-4.2453

>  <SCORE.INTRA.DIHEDRAL>
-4.88866

>  <SCORE.INTRA.DIHEDRAL.0>
9.90185

>  <SCORE.INTRA.POLAR>
-1.081

>  <SCORE.INTRA.POLAR.0>
0

>  <SCORE.INTRA.REPUL>
0

>  <SCORE.INTRA.REPUL.0>
0

>  <SCORE.INTRA.SOLV>
3.12326

>  <SCORE.INTRA.SOLV.lig_0>
-53.6586

>  <SCORE.INTRA.VDW>
0.31281

>  <SCORE.INTRA.VDW.0>
-0.556525

>  <SCORE.INTRA.norm>
-0.385936

>  <SCORE.RESTR>
0

>  <SCORE.RESTR.CAVITY>
0

>  <SCORE.RESTR.norm>
0

>  <SCORE.SYSTEM>
0

>  <SCORE.SYSTEM.CONST>
0

>  <SCORE.SYSTEM.DIHEDRAL>
0

>  <SCORE.SYSTEM.SOLV>
0

>  <SCORE.SYSTEM.norm>
0

>  <SCORE.heavy>
11

>  <SCORE.norm>
-1.88888

>  <RMSD>
2.989

$$$$

 OpenBabel11021811383D
libRbt.so/2013.1/901 2013/11/27
 11 10  0  0  0  0  0  0  0  0999 V2000
   -4.2431   -0.7802    1.8069 N   0  3  0  0  0  0  0  0  0  0  0  0
   -3.9663   -2.1869    1.3872 C   0  0  2  0  0  0  0  0  0  0  0  0
   -3.7692   -3.0706    2.6307 C   0  0  0  0  0  0  0  0  0  0  0  0
   -4.4921   -4.0282    2.8324 O   0  0  0  0  0  0  0  0  0  0  0  0
   -2.7016   -2.2175    0.5187 C   0  0  0  0  0  0  0  0  0  0  0  0
   -2.5498   -3.6014   -0.1190 C   0  0  0  0  0  0  0  0  0  0  0  0
   -2.5883   -3.4695   -1.6401 C   0  0  0  0  0  0  0  0  0  0  0  0
   -3.9118   -2.9239   -2.0484 N   0  3  0  0  0  0  0  0  0  0  0  0
   -4.1667   -2.6976   -3.3080 C   0  0  0  0  0  0  0  0  0  0  0  0
   -5.1213   -3.3613   -3.9071 N   0  0  0  0  0  0  0  0  0  0  0  0
   -3.4729   -1.8043   -3.9648 N   0  0  0  0  0  0  0  0  0  0  0  0
  2  1  1  1  0  0  0
  2  3  1  0  0  0  0
  2  5  1  0  0  0  0
  3  4  2  0  0  0  0
  5  6  1  0  0  0  0
  6  7  1  0  0  0  0
  7  8  1  0  0  0  0
  8  9  2  0  0  0  0
  9 10  1  0  0  0  0
  9 11  1  0  0  0  0
M  CHG  2   1   1   8   1
M  END
>  <CHROM.1>
47.40006613,120.61402413,-169.96596914,118.90042566,-62.26392695,178.56435397
-3.75975097,-2.70995327,-0.53426492,1.14303874,-1.52580793,1.13293686

>  <Name>


>  <RI>
0

>  <Rbt.Current_Directory>
/home/itssahil/PROJECTS/Mol_Feturizer/New_Systems/rnas/1aju

>  <Rbt.Executable>
rbdock ($Id: //depot/dev/client3/rdock/2013.1/src/exe/rbdock.cxx#4 $)

>  <Rbt.Library>
libRbt.so (2013.1, Build901 2013/11/27)

>  <Rbt.Parameter_File>
/export/apps/rDock/src/rDock_2013.1_src/data/scripts/dock_solv.prm

>  <Rbt.Receptor>
prm/pocket_docking_7.prm

>  <SCORE>
-20.8777

>  <SCORE.INTER>
-21.4397

>  <SCORE.INTER.CONST>
1

>  <SCORE.INTER.POLAR>
-4.7838

>  <SCORE.INTER.ROT>
5

>  <SCORE.INTER.SOLV>
17.4681

>  <SCORE.INTER.VDW>
-11.1032

>  <SCORE.INTER.norm>
-1.94907

>  <SCORE.INTRA>
0.562023

>  <SCORE.INTRA.DIHEDRAL>
-0.0888518

>  <SCORE.INTRA.DIHEDRAL.0>
9.90185

>  <SCORE.INTRA.POLAR>
0

>  <SCORE.INTRA.POLAR.0>
0

>  <SCORE.INTRA.REPUL>
0

>  <SCORE.INTRA.REPUL.0>
0

>  <SCORE.INTRA.SOLV>
0.750439

>  <SCORE.INTRA.SOLV.lig_0>
-53.6586

>  <SCORE.INTRA.VDW>
0.23123

>  <SCORE.INTRA.VDW.0>
-0.556525

>  <SCORE.INTRA.norm>
0.051093

>  <SCORE.RESTR>
0

>  <SCORE.RESTR.CAVITY>
0

>  <SCORE.RESTR.norm>
0

>  <SCORE.SYSTEM>
0

>  <SCORE.SYSTEM.CONST>
0

>  <SCORE.SYSTEM.DIHEDRAL>
0

>  <SCORE.SYSTEM.SOLV>
0

>  <SCORE.SYSTEM.norm>
0

>  <SCORE.heavy>
11

>  <SCORE.norm>
-1.89797

>  <RMSD>
2.989

$$$$

 OpenBabel11021811383D
libRbt.so/2013.1/901 2013/11/27
 11 10  0  0  0  0  0  0  0  0999 V2000
   -4.1689   -0.6580    1.8959 N   0  3  0  0  0  0  0  0  0  0  0  0
   -3.6516   -2.0581    1.9582 C   0  0  2  0  0  0  0  0  0  0  0  0
   -3.4761   -2.4820    3.4263 C   0  0  0  0  0  0  0  0  0  0  0  0
   -2.3760   -2.7617    3.8642 O   0  0  0  0  0  0  0  0  0  0  0  0
   -2.3041   -2.1338    1.2279 C   0  0  0  0  0  0  0  0  0  0  0  0
   -2.5421   -2.1986   -0.2834 C   0  0  0  0  0  0  0  0  0  0  0  0
   -3.2976   -3.4807   -0.6267 C   0  0  0  0  0  0  0  0  0  0  0  0
   -3.2791   -3.6770   -2.1022 N   0  3  0  0  0  0  0  0  0  0  0  0
   -4.2929   -3.2907   -2.8273 C   0  0  0  0  0  0  0  0  0  0  0  0
   -4.1296   -2.3549   -3.7263 N   0  0  0  0  0  0  0  0  0  0  0  0
   -5.4657   -3.8444   -2.6582 N   0  0  0  0  0  0  0  0  0  0  0  0
  2  1  1  1  0  0  0
  2  3  1  0  0  0  0
  2  5  1  0  0  0  0
  3  4  2  0  0  0  0
  5  6  1  0  0  0  0
  6  7  1  0  0  0  0
  7  8  1  0  0  0  0
  8  9  2  0  0  0  0
  9 10  1  0  0  0  0
  9 11  1  0  0  0  0
M  CHG  2   1   1   8   1
M  END
>  <CHROM.1>
-67.75685299,-117.30959306,-79.22925106,-63.36229119,-168.43652424,-96.77797992
-3.56339977,-2.60454241,-0.00120592,1.27380444,-0.79890502,1.16484416

>  <Name>


>  <RI>
0

>  <Rbt.Current_Directory>
/home/itssahil/PROJECTS/Mol_Feturizer/New_Systems/rnas/1aju

>  <Rbt.Executable>
rbdock ($Id: //depot/dev/client3/rdock/2013.1/src/exe/rbdock.cxx#4 $)

>  <Rbt.Library>
libRbt.so (2013.1, Build901 2013/11/27)

>  <Rbt.Parameter_File>
/export/apps/rDock/src/rDock_2013.1_src/data/scripts/dock_solv.prm

>  <Rbt.Receptor>
prm/pocket_docking_8.prm

>  <SCORE>
-18.8133

>  <SCORE.INTER>
-18.0853

>  <SCORE.INTER.CONST>
1

>  <SCORE.INTER.POLAR>
-3.66641

>  <SCORE.INTER.ROT>
5

>  <SCORE.INTER.SOLV>
13.3798

>  <SCORE.INTER.VDW>
-11.2287

>  <SCORE.INTER.norm>
-1.64412

>  <SCORE.INTRA>
-0.727996

>  <SCORE.INTRA.DIHEDRAL>
-5.01697

>  <SCORE.INTRA.DIHEDRAL.0>
9.90185

>  <SCORE.INTRA.POLAR>
0

>  <SCORE.INTRA.POLAR.0>
0

>  <SCORE.INTRA.REPUL>
0

>  <SCORE.INTRA.REPUL.0>
0

>  <SCORE.INTRA.SOLV>
1.34782

>  <SCORE.INTRA.SOLV.lig_0>
-53.6586

>  <SCORE.INTRA.VDW>
1.10658

>  <SCORE.INTRA.VDW.0>
-0.556525

>  <SCORE.INTRA.norm>
-0.0661814

>  <SCORE.RESTR>
0

>  <SCORE.RESTR.CAVITY>
0

>  <SCORE.RESTR.norm>
0

>  <SCORE.SYSTEM>
0

>  <SCORE.SYSTEM.CONST>
0

>  <SCORE.SYSTEM.DIHEDRAL>
0

>  <SCORE.SYSTEM.SOLV>
0

>  <SCORE.SYSTEM.norm>
0

>  <SCORE.heavy>
11

>  <SCORE.norm>
-1.7103

>  <RMSD>
2.997

$$$$

 OpenBabel11021811383D
libRbt.so/2013.1/901 2013/11/27
 11 10  0  0  0  0  0  0  0  0999 V2000
   -5.1520   -3.8291    2.0498 N   0  3  0  0  0  0  0  0  0  0  0  0
   -3.7084   -3.4452    2.0599 C   0  0  2  0  0  0  0  0  0  0  0  0
   -3.3389   -2.8498    3.4291 C   0  0  0  0  0  0  0  0  0  0  0  0
   -2.4474   -3.3379    4.0979 O   0  0  0  0  0  0  0  0  0  0  0  0
   -3.4505   -2.4127    0.9543 C   0  0  0  0  0  0  0  0  0  0  0  0
   -3.4974   -3.1013   -0.4126 C   0  0  0  0  0  0  0  0  0  0  0  0
   -3.2353   -2.0733   -1.5113 C   0  0  0  0  0  0  0  0  0  0  0  0
   -3.3086   -2.7473   -2.8366 N   0  3  0  0  0  0  0  0  0  0  0  0
   -4.4557   -2.8702   -3.4464 C   0  0  0  0  0  0  0  0  0  0  0  0
   -4.6447   -2.2825   -4.5995 N   0  0  0  0  0  0  0  0  0  0  0  0
   -5.4089   -3.5854   -2.9073 N   0  0  0  0  0  0  0  0  0  0  0  0
  2  1  1  1  0  0  0
  2  3  1  0  0  0  0
  2  5  1  0  0  0  0
  3  4  2  0  0  0  0
  5  6  1  0  0  0  0
  6  7  1  0  0  0  0
  7  8  1  0  0  0  0
  8  9  2  0  0  0  0
  9 10  1  0  0  0  0
  9 11  1  0  0  0  0
M  CHG  2   1   1   8   1
M  END
>  <CHROM.1>
-55.54420164,122.62444037,-72.85983064,-179.78274376,-178.93561269,87.02341628
-3.91231984,-2.98004302,-0.29235341,1.40012194,0.46223632,1.72704575

>  <Name>


>  <RI>
0

>  <Rbt.Current_Directory>
/home/itssahil/PROJECTS/Mol_Feturizer/New_Systems/rnas/1aju

>  <Rbt.Executable>
rbdock ($Id: //depot/dev/client3/rdock/2013.1/src/exe/rbdock.cxx#4 $)

>  <Rbt.Library>
libRbt.so (2013.1, Build901 2013/11/27)

>  <Rbt.Parameter_File>
/export/apps/rDock/src/rDock_2013.1_src/data/scripts/dock_solv.prm

>  <Rbt.Receptor>
prm/pocket_docking_4.prm

>  <SCORE>
-17.5392

>  <SCORE.INTER>
-14.9404

>  <SCORE.INTER.CONST>
1

>  <SCORE.INTER.POLAR>
-2.90746

>  <SCORE.INTER.ROT>
5

>  <SCORE.INTER.SOLV>
14.0132

>  <SCORE.INTER.VDW>
-11.8731

>  <SCORE.INTER.norm>
-1.35822

>  <SCORE.INTRA>
-2.59875

>  <SCORE.INTRA.DIHEDRAL>
-6.3779

>  <SCORE.INTRA.DIHEDRAL.0>
9.90185

>  <SCORE.INTRA.POLAR>
0

>  <SCORE.INTRA.POLAR.0>
0

>  <SCORE.INTRA.REPUL>
0

>  <SCORE.INTRA.REPUL.0>
0

>  <SCORE.INTRA.SOLV>
1.60998

>  <SCORE.INTRA.SOLV.lig_0>
-53.6586

>  <SCORE.INTRA.VDW>
-0.214786

>  <SCORE.INTRA.VDW.0>
-0.556525

>  <SCORE.INTRA.norm>
-0.23625

>  <SCORE.RESTR>
0

>  <SCORE.RESTR.CAVITY>
0

>  <SCORE.RESTR.norm>
0

>  <SCORE.SYSTEM>
0

>  <SCORE.SYSTEM.CONST>
0

>  <SCORE.SYSTEM.DIHEDRAL>
0

>  <SCORE.SYSTEM.SOLV>
0

>  <SCORE.SYSTEM.norm>
0

>  <SCORE.heavy>
11

>  <SCORE.norm>
-1.59447

>  <RMSD>
3.001

$$$$

 OpenBabel11021811383D
libRbt.so/2013.1/901 2013/11/27
 11 10  0  0  0  0  0  0  0  0999 V2000
   -3.2630   -1.0611    1.4782 N   0  3  0  0  0  0  0  0  0  0  0  0
   -3.6436   -2.3422    0.8107 C   0  0  2  0  0  0  0  0  0  0  0  0
   -4.7095   -3.0679    1.6492 C   0  0  0  0  0  0  0  0  0  0  0  0
   -4.5186   -3.3016    2.8279 O   0  0  0  0  0  0  0  0  0  0  0  0
   -2.3992   -3.2285    0.6671 C   0  0  0  0  0  0  0  0  0  0  0  0
   -2.6984   -4.3821   -0.2944 C   0  0  0  0  0  0  0  0  0  0  0  0
   -2.6425   -3.8746   -1.7337 C   0  0  0  0  0  0  0  0  0  0  0  0
   -3.9344   -3.2150   -2.0683 N   0  3  0  0  0  0  0  0  0  0  0  0
   -4.1863   -2.8528   -3.2963 C   0  0  0  0  0  0  0  0  0  0  0  0
   -5.1842   -3.3978   -3.9427 N   0  0  0  0  0  0  0  0  0  0  0  0
   -3.4460   -1.9422   -3.8738 N   0  0  0  0  0  0  0  0  0  0  0  0
  2  1  1  1  0  0  0
  2  3  1  0  0  0  0
  2  5  1  0  0  0  0
  3  4  2  0  0  0  0
  5  6  1  0  0  0  0
  6  7  1  0  0  0  0
  7  8  1  0  0  0  0
  8  9  2  0  0  0  0
  9 10  1  0  0  0  0
  9 11  1  0  0  0  0
M  CHG  2   1   1   8   1
M  END
>  <CHROM.1>
-105.67370506,-53.61401566,-166.77781981,77.89856771,-81.44450995,-171.30361423
-3.70386624,-2.92837172,-0.70086520,1.25862273,-1.38601502,1.21867990

>  <Name>


>  <RI>
0

>  <Rbt.Current_Directory>
/home/itssahil/PROJECTS/Mol_Feturizer/New_Systems/rnas/1aju

>  <Rbt.Executable>
rbdock ($Id: //depot/dev/client3/rdock/2013.1/src/exe/rbdock.cxx#4 $)

>  <Rbt.Library>
libRbt.so (2013.1, Build901 2013/11/27)

>  <Rbt.Parameter_File>
/export/apps/rDock/src/rDock_2013.1_src/data/scripts/dock_solv.prm

>  <Rbt.Receptor>
prm/pocket_docking_6.prm

>  <SCORE>
-13.1902

>  <SCORE.INTER>
-16.3911

>  <SCORE.INTER.CONST>
1

>  <SCORE.INTER.POLAR>
-3.8745

>  <SCORE.INTER.ROT>
5

>  <SCORE.INTER.SOLV>
15.4174

>  <SCORE.INTER.VDW>
-10.0849

>  <SCORE.INTER.norm>
-1.4901

>  <SCORE.INTRA>
3.19283

>  <SCORE.INTRA.DIHEDRAL>
2.20177

>  <SCORE.INTRA.DIHEDRAL.0>
9.90185

>  <SCORE.INTRA.POLAR>
0

>  <SCORE.INTRA.POLAR.0>
0

>  <SCORE.INTRA.REPUL>
0

>  <SCORE.INTRA.REPUL.0>
0

>  <SCORE.INTRA.SOLV>
1.79847

>  <SCORE.INTRA.SOLV.lig_0>
-53.6586

>  <SCORE.INTRA.VDW>
1.19271

>  <SCORE.INTRA.VDW.0>
-0.556525

>  <SCORE.INTRA.norm>
0.290257

>  <SCORE.RESTR>
0.00811334

>  <SCORE.RESTR.CAVITY>
0.00811334

>  <SCORE.RESTR.norm>
0.000737576

>  <SCORE.SYSTEM>
0

>  <SCORE.SYSTEM.CONST>
0

>  <SCORE.SYSTEM.DIHEDRAL>
0

>  <SCORE.SYSTEM.SOLV>
0

>  <SCORE.SYSTEM.norm>
0

>  <SCORE.heavy>
11

>  <SCORE.norm>
-1.19911

>  <RMSD>
3.001

$$$$

 OpenBabel11021811383D
libRbt.so/2013.1/901 2013/11/27
 11 10  0  0  0  0  0  0  0  0999 V2000
   -4.2351   -1.9260    2.6245 N   0  3  0  0  0  0  0  0  0  0  0  0
   -4.2136   -3.2240    1.8852 C   0  0  2  0  0  0  0  0  0  0  0  0
   -2.8200   -3.8645    2.0008 C   0  0  0  0  0  0  0  0  0  0  0  0
   -1.9067   -3.2698    2.5417 O   0  0  0  0  0  0  0  0  0  0  0  0
   -4.5525   -2.9729    0.4098 C   0  0  0  0  0  0  0  0  0  0  0  0
   -5.0896   -4.2611   -0.2202 C   0  0  0  0  0  0  0  0  0  0  0  0
   -4.5333   -4.4079   -1.6350 C   0  0  0  0  0  0  0  0  0  0  0  0
   -4.9168   -3.2130   -2.4356 N   0  3  0  0  0  0  0  0  0  0  0  0
   -4.0377   -2.6288   -3.2028 C   0  0  0  0  0  0  0  0  0  0  0  0
   -4.2241   -2.5968   -4.4970 N   0  0  0  0  0  0  0  0  0  0  0  0
   -2.9782   -2.0716   -2.6758 N   0  0  0  0  0  0  0  0  0  0  0  0
  2  1  1  1  0  0  0
  2  3  1  0  0  0  0
  2  5  1  0  0  0  0
  3  4  2  0  0  0  0
  5  6  1  0  0  0  0
  6  7  1  0  0  0  0
  7  8  1  0  0  0  0
  8  9  2  0  0  0  0
  9 10  1  0  0  0  0
  9 11  1  0  0  0  0
M  CHG  2   1   1   8   1
M  END
>  <CHROM.1>
60.44781903,-5.38806393,-157.03142248,-140.22440428,-57.91782911,135.47997204
-3.93859744,-3.08076093,-0.46382612,1.40506211,0.51347251,1.68898709

>  <Name>


>  <RI>
0

>  <Rbt.Current_Directory>
/home/itssahil/PROJECTS/Mol_Feturizer/New_Systems/rnas/1aju

>  <Rbt.Executable>
rbdock ($Id: //depot/dev/client3/rdock/2013.1/src/exe/rbdock.cxx#4 $)

>  <Rbt.Library>
libRbt.so (2013.1, Build901 2013/11/27)

>  <Rbt.Parameter_File>
/export/apps/rDock/src/rDock_2013.1_src/data/scripts/dock_solv.prm

>  <Rbt.Receptor>
prm/pocket_docking_7.prm

>  <SCORE>
-18.7747

>  <SCORE.INTER>
-19.202

>  <SCORE.INTER.CONST>
1

>  <SCORE.INTER.POLAR>
-3.86072

>  <SCORE.INTER.ROT>
5

>  <SCORE.INTER.SOLV>
15.0537

>  <SCORE.INTER.VDW>
-11.8835

>  <SCORE.INTER.norm>
-1.74564

>  <SCORE.INTRA>
0.427354

>  <SCORE.INTRA.DIHEDRAL>
-0.642662

>  <SCORE.INTRA.DIHEDRAL.0>
9.90185

>  <SCORE.INTRA.POLAR>
0

>  <SCORE.INTRA.POLAR.0>
0

>  <SCORE.INTRA.REPUL>
0

>  <SCORE.INTRA.REPUL.0>
0

>  <SCORE.INTRA.SOLV>
1.96311

>  <SCORE.INTRA.SOLV.lig_0>
-53.6586

>  <SCORE.INTRA.VDW>
-0.232869

>  <SCORE.INTRA.VDW.0>
-0.556525

>  <SCORE.INTRA.norm>
0.0388504

>  <SCORE.RESTR>
0

>  <SCORE.RESTR.CAVITY>
0

>  <SCORE.RESTR.norm>
0

>  <SCORE.SYSTEM>
0

>  <SCORE.SYSTEM.CONST>
0

>  <SCORE.SYSTEM.DIHEDRAL>
0

>  <SCORE.SYSTEM.SOLV>
0

>  <SCORE.SYSTEM.norm>
0

>  <SCORE.heavy>
11

>  <SCORE.norm>
-1.70679

>  <RMSD>
3.014

$$$$

 OpenBabel11021811383D
libRbt.so/2013.1/901 2013/11/27
 11 10  0  0  0  0  0  0  0  0999 V2000
   -4.0524   -1.9353    2.4207 N   0  3  0  0  0  0  0  0  0  0  0  0
   -4.1779   -3.3040    1.8354 C   0  0  2  0  0  0  0  0  0  0  0  0
   -3.0299   -4.1930    2.3427 C   0  0  0  0  0  0  0  0  0  0  0  0
   -3.2608   -5.1845    3.0090 O   0  0  0  0  0  0  0  0  0  0  0  0
   -4.1269   -3.2076    0.3047 C   0  0  0  0  0  0  0  0  0  0  0  0
   -4.7714   -4.4531   -0.3101 C   0  0  0  0  0  0  0  0  0  0  0  0
   -4.3951   -4.5462   -1.7874 C   0  0  0  0  0  0  0  0  0  0  0  0
   -4.8804   -3.3277   -2.4914 N   0  3  0  0  0  0  0  0  0  0  0  0
   -4.0642   -2.6318   -3.2346 C   0  0  0  0  0  0  0  0  0  0  0  0
   -4.2881   -2.5224   -4.5186 N   0  0  0  0  0  0  0  0  0  0  0  0
   -3.0306   -2.0408   -2.6934 N   0  0  0  0  0  0  0  0  0  0  0  0
  2  1  1  1  0  0  0
  2  3  1  0  0  0  0
  2  5  1  0  0  0  0
  3  4  2  0  0  0  0
  5  6  1  0  0  0  0
  6  7  1  0  0  0  0
  7  8  1  0  0  0  0
  8  9  2  0  0  0  0
  9 10  1  0  0  0  0
  9 11  1  0  0  0  0
M  CHG  2   1   1   8   1
M  END
>  <CHROM.1>
-164.57870975,117.65838442,-158.46962384,-164.85921833,-59.79150703,128.45552256
-4.00131822,-3.35564556,-0.45731012,-1.13491564,-1.37116964,-0.96115508

>  <Name>


>  <RI>
0

>  <Rbt.Current_Directory>
/home/itssahil/PROJECTS/Mol_Feturizer/New_Systems/rnas/1aju

>  <Rbt.Executable>
rbdock ($Id: //depot/dev/client3/rdock/2013.1/src/exe/rbdock.cxx#4 $)

>  <Rbt.Library>
libRbt.so (2013.1, Build901 2013/11/27)

>  <Rbt.Parameter_File>
/export/apps/rDock/src/rDock_2013.1_src/data/scripts/dock_solv.prm

>  <Rbt.Receptor>
prm/pocket_docking_4.prm

>  <SCORE>
-20.4483

>  <SCORE.INTER>
-18.858

>  <SCORE.INTER.CONST>
1

>  <SCORE.INTER.POLAR>
-3.74291

>  <SCORE.INTER.ROT>
5

>  <SCORE.INTER.SOLV>
14.5905

>  <SCORE.INTER.VDW>
-11.8924

>  <SCORE.INTER.norm>
-1.71436

>  <SCORE.INTRA>
-1.5903

>  <SCORE.INTRA.DIHEDRAL>
-3.98273

>  <SCORE.INTRA.DIHEDRAL.0>
9.90185

>  <SCORE.INTRA.POLAR>
0

>  <SCORE.INTRA.POLAR.0>
0

>  <SCORE.INTRA.REPUL>
0

>  <SCORE.INTRA.REPUL.0>
0

>  <SCORE.INTRA.SOLV>
0.988884

>  <SCORE.INTRA.SOLV.lig_0>
-53.6586

>  <SCORE.INTRA.VDW>
-0.0933774

>  <SCORE.INTRA.VDW.0>
-0.556525

>  <SCORE.INTRA.norm>
-0.144573

>  <SCORE.RESTR>
0

>  <SCORE.RESTR.CAVITY>
0

>  <SCORE.RESTR.norm>
0

>  <SCORE.SYSTEM>
0

>  <SCORE.SYSTEM.CONST>
0

>  <SCORE.SYSTEM.DIHEDRAL>
0

>  <SCORE.SYSTEM.SOLV>
0

>  <SCORE.SYSTEM.norm>
0

>  <SCORE.heavy>
11

>  <SCORE.norm>
-1.85893

>  <RMSD>
3.021

$$$$

 OpenBabel11021811383D
libRbt.so/2013.1/901 2013/11/27
 11 10  0  0  0  0  0  0  0  0999 V2000
   -4.1666   -0.9637    1.7601 N   0  3  0  0  0  0  0  0  0  0  0  0
   -4.0888   -2.2911    1.0792 C   0  0  2  0  0  0  0  0  0  0  0  0
   -4.4682   -3.4055    2.0692 C   0  0  0  0  0  0  0  0  0  0  0  0
   -4.0601   -3.3829    3.2151 O   0  0  0  0  0  0  0  0  0  0  0  0
   -2.6606   -2.5139    0.5640 C   0  0  0  0  0  0  0  0  0  0  0  0
   -2.5834   -3.8546   -0.1718 C   0  0  0  0  0  0  0  0  0  0  0  0
   -2.6091   -3.6118   -1.6794 C   0  0  0  0  0  0  0  0  0  0  0  0
   -3.9281   -3.0344   -2.0573 N   0  3  0  0  0  0  0  0  0  0  0  0
   -4.1935   -2.7700   -3.3073 C   0  0  0  0  0  0  0  0  0  0  0  0
   -5.1656   -3.4020   -3.9127 N   0  0  0  0  0  0  0  0  0  0  0  0
   -3.4929   -1.8704   -3.9479 N   0  0  0  0  0  0  0  0  0  0  0  0
  2  1  1  1  0  0  0
  2  3  1  0  0  0  0
  2  5  1  0  0  0  0
  3  4  2  0  0  0  0
  5  6  1  0  0  0  0
  6  7  1  0  0  0  0
  7  8  1  0  0  0  0
  8  9  2  0  0  0  0
  9 10  1  0  0  0  0
  9 11  1  0  0  0  0
M  CHG  2   1   1   8   1
M  END
>  <CHROM.1>
65.24841742,-42.12741618,-178.32930623,101.73222861,-65.32874028,-178.45358288
-3.78547864,-2.78794571,-0.57415066,1.52276101,-1.05487055,1.49899600

>  <Name>


>  <RI>
0

>  <Rbt.Current_Directory>
/home/itssahil/PROJECTS/Mol_Feturizer/New_Systems/rnas/1aju

>  <Rbt.Executable>
rbdock ($Id: //depot/dev/client3/rdock/2013.1/src/exe/rbdock.cxx#4 $)

>  <Rbt.Library>
libRbt.so (2013.1, Build901 2013/11/27)

>  <Rbt.Parameter_File>
/export/apps/rDock/src/rDock_2013.1_src/data/scripts/dock_solv.prm

>  <Rbt.Receptor>
prm/pocket_docking_4.prm

>  <SCORE>
-19.8317

>  <SCORE.INTER>
-21.5427

>  <SCORE.INTER.CONST>
1

>  <SCORE.INTER.POLAR>
-4.77281

>  <SCORE.INTER.ROT>
5

>  <SCORE.INTER.SOLV>
16.944

>  <SCORE.INTER.VDW>
-11.0338

>  <SCORE.INTER.norm>
-1.95843

>  <SCORE.INTRA>
1.66842

>  <SCORE.INTRA.DIHEDRAL>
0.224097

>  <SCORE.INTRA.DIHEDRAL.0>
9.90185

>  <SCORE.INTRA.POLAR>
0

>  <SCORE.INTRA.POLAR.0>
0

>  <SCORE.INTRA.REPUL>
0

>  <SCORE.INTRA.REPUL.0>
0

>  <SCORE.INTRA.SOLV>
1.80092

>  <SCORE.INTRA.SOLV.lig_0>
-53.6586

>  <SCORE.INTRA.VDW>
0.655916

>  <SCORE.INTRA.VDW.0>
-0.556525

>  <SCORE.INTRA.norm>
0.151675

>  <SCORE.RESTR>
0.0425788

>  <SCORE.RESTR.CAVITY>
0.0425788

>  <SCORE.RESTR.norm>
0.0038708

>  <SCORE.SYSTEM>
0

>  <SCORE.SYSTEM.CONST>
0

>  <SCORE.SYSTEM.DIHEDRAL>
0

>  <SCORE.SYSTEM.SOLV>
0

>  <SCORE.SYSTEM.norm>
0

>  <SCORE.heavy>
11

>  <SCORE.norm>
-1.80288

>  <RMSD>
3.047

$$$$

 OpenBabel11021811383D
libRbt.so/2013.1/901 2013/11/27
 11 10  0  0  0  0  0  0  0  0999 V2000
   -5.4006   -3.9920    1.7707 N   0  3  0  0  0  0  0  0  0  0  0  0
   -3.9079   -3.9437    1.8061 C   0  0  2  0  0  0  0  0  0  0  0  0
   -3.4301   -3.7065    3.2488 C   0  0  0  0  0  0  0  0  0  0  0  0
   -2.9041   -2.6555    3.5634 O   0  0  0  0  0  0  0  0  0  0  0  0
   -3.4156   -2.8079    0.8993 C   0  0  0  0  0  0  0  0  0  0  0  0
   -3.4415   -3.2686   -0.5608 C   0  0  0  0  0  0  0  0  0  0  0  0
   -3.2900   -2.0588   -1.4806 C   0  0  0  0  0  0  0  0  0  0  0  0
   -3.1944   -2.5274   -2.8902 N   0  3  0  0  0  0  0  0  0  0  0  0
   -4.2716   -2.8746   -3.5396 C   0  0  0  0  0  0  0  0  0  0  0  0
   -4.6357   -2.2022   -4.6008 N   0  0  0  0  0  0  0  0  0  0  0  0
   -4.9790   -3.8967   -3.1325 N   0  0  0  0  0  0  0  0  0  0  0  0
  2  1  1  1  0  0  0
  2  3  1  0  0  0  0
  2  5  1  0  0  0  0
  3  4  2  0  0  0  0
  5  6  1  0  0  0  0
  6  7  1  0  0  0  0
  7  8  1  0  0  0  0
  8  9  2  0  0  0  0
  9 10  1  0  0  0  0
  9 11  1  0  0  0  0
M  CHG  2   1   1   8   1
M  END
>  <CHROM.1>
179.81498701,-111.28458343,-79.62933975,166.10796515,175.00700957,78.90389836
-3.93591759,-3.08779779,-0.46090005,1.45643627,0.63152114,1.74070433

>  <Name>


>  <RI>
0

>  <Rbt.Current_Directory>
/home/itssahil/PROJECTS/Mol_Feturizer/New_Systems/rnas/1aju

>  <Rbt.Executable>
rbdock ($Id: //depot/dev/client3/rdock/2013.1/src/exe/rbdock.cxx#4 $)

>  <Rbt.Library>
libRbt.so (2013.1, Build901 2013/11/27)

>  <Rbt.Parameter_File>
/export/apps/rDock/src/rDock_2013.1_src/data/scripts/dock_solv.prm

>  <Rbt.Receptor>
prm/pocket_docking_6.prm

>  <SCORE>
-17.1099

>  <SCORE.INTER>
-16.7852

>  <SCORE.INTER.CONST>
1

>  <SCORE.INTER.POLAR>
-3.39079

>  <SCORE.INTER.ROT>
5

>  <SCORE.INTER.SOLV>
14.2387

>  <SCORE.INTER.VDW>
-11.567

>  <SCORE.INTER.norm>
-1.52592

>  <SCORE.INTRA>
-0.325532

>  <SCORE.INTRA.DIHEDRAL>
-4.74634

>  <SCORE.INTRA.DIHEDRAL.0>
9.90185

>  <SCORE.INTRA.POLAR>
0

>  <SCORE.INTRA.POLAR.0>
0

>  <SCORE.INTRA.REPUL>
0

>  <SCORE.INTRA.REPUL.0>
0

>  <SCORE.INTRA.SOLV>
1.83339

>  <SCORE.INTRA.SOLV.lig_0>
-53.6586

>  <SCORE.INTRA.VDW>
1.13094

>  <SCORE.INTRA.VDW.0>
-0.556525

>  <SCORE.INTRA.norm>
-0.0295938

>  <SCORE.RESTR>
0.000800925

>  <SCORE.RESTR.CAVITY>
0.000800925

>  <SCORE.RESTR.norm>
7.28113e-05

>  <SCORE.SYSTEM>
0

>  <SCORE.SYSTEM.CONST>
0

>  <SCORE.SYSTEM.DIHEDRAL>
0

>  <SCORE.SYSTEM.SOLV>
0

>  <SCORE.SYSTEM.norm>
0

>  <SCORE.heavy>
11

>  <SCORE.norm>
-1.55544

>  <RMSD>
3.048

$$$$

 OpenBabel11021811383D
libRbt.so/2013.1/901 2013/11/27
 11 10  0  0  0  0  0  0  0  0999 V2000
   -2.8933   -4.8370    1.6753 N   0  3  0  0  0  0  0  0  0  0  0  0
   -3.0582   -3.7876    0.6249 C   0  0  2  0  0  0  0  0  0  0  0  0
   -2.3936   -2.4802    1.0883 C   0  0  0  0  0  0  0  0  0  0  0  0
   -2.9692   -1.4150    0.9683 O   0  0  0  0  0  0  0  0  0  0  0  0
   -4.5536   -3.5529    0.3730 C   0  0  0  0  0  0  0  0  0  0  0  0
   -5.1278   -4.7205   -0.4344 C   0  0  0  0  0  0  0  0  0  0  0  0
   -4.5593   -4.6896   -1.8515 C   0  0  0  0  0  0  0  0  0  0  0  0
   -4.9480   -3.4096   -2.5046 N   0  3  0  0  0  0  0  0  0  0  0  0
   -4.0830   -2.7553   -3.2301 C   0  0  0  0  0  0  0  0  0  0  0  0
   -4.3068   -2.5793   -4.5067 N   0  0  0  0  0  0  0  0  0  0  0  0
   -3.0002   -2.2719   -2.6783 N   0  0  0  0  0  0  0  0  0  0  0  0
  2  1  1  1  0  0  0
  2  3  1  0  0  0  0
  2  5  1  0  0  0  0
  3  4  2  0  0  0  0
  5  6  1  0  0  0  0
  6  7  1  0  0  0  0
  7  8  1  0  0  0  0
  8  9  2  0  0  0  0
  9 10  1  0  0  0  0
  9 11  1  0  0  0  0
M  CHG  2   1   1   8   1
M  END
>  <CHROM.1>
-60.94049076,-134.18548819,-74.71885000,-68.91464865,-60.70612941,138.12322490
-3.79521834,-3.31006244,-0.94707648,1.14881442,0.95695777,2.05443037

>  <Name>


>  <RI>
0

>  <Rbt.Current_Directory>
/home/itssahil/PROJECTS/Mol_Feturizer/New_Systems/rnas/1aju

>  <Rbt.Executable>
rbdock ($Id: //depot/dev/client3/rdock/2013.1/src/exe/rbdock.cxx#4 $)

>  <Rbt.Library>
libRbt.so (2013.1, Build901 2013/11/27)

>  <Rbt.Parameter_File>
/export/apps/rDock/src/rDock_2013.1_src/data/scripts/dock_solv.prm

>  <Rbt.Receptor>
prm/pocket_docking_3.prm

>  <SCORE>
-15.3437

>  <SCORE.INTER>
-14.654

>  <SCORE.INTER.CONST>
1

>  <SCORE.INTER.POLAR>
-2.98014

>  <SCORE.INTER.ROT>
5

>  <SCORE.INTER.SOLV>
12.5223

>  <SCORE.INTER.VDW>
-10.943

>  <SCORE.INTER.norm>
-1.33218

>  <SCORE.INTRA>
-0.689741

>  <SCORE.INTRA.DIHEDRAL>
-5.5059

>  <SCORE.INTRA.DIHEDRAL.0>
9.90185

>  <SCORE.INTRA.POLAR>
0

>  <SCORE.INTRA.POLAR.0>
0

>  <SCORE.INTRA.REPUL>
0

>  <SCORE.INTRA.REPUL.0>
0

>  <SCORE.INTRA.SOLV>
3.28165

>  <SCORE.INTRA.SOLV.lig_0>
-53.6586

>  <SCORE.INTRA.VDW>
0.422382

>  <SCORE.INTRA.VDW.0>
-0.556525

>  <SCORE.INTRA.norm>
-0.0627038

>  <SCORE.RESTR>
0

>  <SCORE.RESTR.CAVITY>
0

>  <SCORE.RESTR.norm>
0

>  <SCORE.SYSTEM>
0

>  <SCORE.SYSTEM.CONST>
0

>  <SCORE.SYSTEM.DIHEDRAL>
0

>  <SCORE.SYSTEM.SOLV>
0

>  <SCORE.SYSTEM.norm>
0

>  <SCORE.heavy>
11

>  <SCORE.norm>
-1.39489

>  <RMSD>
3.065

$$$$

 OpenBabel11021811383D
libRbt.so/2013.1/901 2013/11/27
 11 10  0  0  0  0  0  0  0  0999 V2000
   -1.5310   -7.7213   -0.9323 N   0  3  0  0  0  0  0  0  0  0  0  0
   -2.0649   -6.3750   -1.2982 C   0  0  2  0  0  0  0  0  0  0  0  0
   -0.9207   -5.3472   -1.3061 C   0  0  0  0  0  0  0  0  0  0  0  0
    0.2391   -5.7092   -1.2429 O   0  0  0  0  0  0  0  0  0  0  0  0
   -3.1338   -5.9591   -0.2788 C   0  0  0  0  0  0  0  0  0  0  0  0
   -3.7791   -4.6422   -0.7195 C   0  0  0  0  0  0  0  0  0  0  0  0
   -4.4877   -4.8436   -2.0574 C   0  0  0  0  0  0  0  0  0  0  0  0
   -4.9148   -3.5194   -2.5866 N   0  3  0  0  0  0  0  0  0  0  0  0
   -4.0771   -2.7836   -3.2644 C   0  0  0  0  0  0  0  0  0  0  0  0
   -4.3276   -2.4993   -4.5162 N   0  0  0  0  0  0  0  0  0  0  0  0
   -2.9947   -2.3273   -2.6891 N   0  0  0  0  0  0  0  0  0  0  0  0
  2  1  1  1  0  0  0
  2  3  1  0  0  0  0
  2  5  1  0  0  0  0
  3  4  2  0  0  0  0
  5  6  1  0  0  0  0
  6  7  1  0  0  0  0
  7  8  1  0  0  0  0
  8  9  2  0  0  0  0
  9 10  1  0  0  0  0
  9 11  1  0  0  0  0
M  CHG  2   1   1   8   1
M  END
>  <CHROM.1>
61.33827563,11.34155892,-174.70229005,62.74626726,-170.68794786,84.27568065
-2.87751968,-4.71702365,-1.91069563,0.97109055,-0.05885337,2.52600625

>  <Name>


>  <RI>
0

>  <Rbt.Current_Directory>
/home/itssahil/PROJECTS/Mol_Feturizer/New_Systems/rnas/1aju

>  <Rbt.Executable>
rbdock ($Id: //depot/dev/client3/rdock/2013.1/src/exe/rbdock.cxx#4 $)

>  <Rbt.Library>
libRbt.so (2013.1, Build901 2013/11/27)

>  <Rbt.Parameter_File>
/export/apps/rDock/src/rDock_2013.1_src/data/scripts/dock_solv.prm

>  <Rbt.Receptor>
prm/pocket_docking_4.prm

>  <SCORE>
-16.6904

>  <SCORE.INTER>
-15.5731

>  <SCORE.INTER.CONST>
1

>  <SCORE.INTER.POLAR>
-2.83123

>  <SCORE.INTER.ROT>
5

>  <SCORE.INTER.SOLV>
16.0021

>  <SCORE.INTER.VDW>
-13.212

>  <SCORE.INTER.norm>
-1.41573

>  <SCORE.INTRA>
-1.14172

>  <SCORE.INTRA.DIHEDRAL>
-6.30388

>  <SCORE.INTRA.DIHEDRAL.0>
9.90185

>  <SCORE.INTRA.POLAR>
0

>  <SCORE.INTRA.POLAR.0>
0

>  <SCORE.INTRA.REPUL>
0

>  <SCORE.INTRA.REPUL.0>
0

>  <SCORE.INTRA.SOLV>
1.96813

>  <SCORE.INTRA.SOLV.lig_0>
-53.6586

>  <SCORE.INTRA.VDW>
1.02616

>  <SCORE.INTRA.VDW.0>
-0.556525

>  <SCORE.INTRA.norm>
-0.103792

>  <SCORE.RESTR>
0.0244224

>  <SCORE.RESTR.CAVITY>
0.0244224

>  <SCORE.RESTR.norm>
0.00222022

>  <SCORE.SYSTEM>
0

>  <SCORE.SYSTEM.CONST>
0

>  <SCORE.SYSTEM.DIHEDRAL>
0

>  <SCORE.SYSTEM.SOLV>
0

>  <SCORE.SYSTEM.norm>
0

>  <SCORE.heavy>
11

>  <SCORE.norm>
-1.51731

>  <RMSD>
3.067

$$$$

 OpenBabel11021811383D
libRbt.so/2013.1/901 2013/11/27
 11 10  0  0  0  0  0  0  0  0999 V2000
   -1.9086   -2.7666    1.9298 N   0  3  0  0  0  0  0  0  0  0  0  0
   -3.1100   -1.9931    1.4938 C   0  0  2  0  0  0  0  0  0  0  0  0
   -3.7739   -1.3333    2.7143 C   0  0  0  0  0  0  0  0  0  0  0  0
   -3.2173   -1.3279    3.7962 O   0  0  0  0  0  0  0  0  0  0  0  0
   -4.1024   -2.9417    0.8083 C   0  0  0  0  0  0  0  0  0  0  0  0
   -3.5754   -3.3218   -0.5783 C   0  0  0  0  0  0  0  0  0  0  0  0
   -3.5535   -2.0843   -1.4730 C   0  0  0  0  0  0  0  0  0  0  0  0
   -3.3125   -2.5049   -2.8805 N   0  3  0  0  0  0  0  0  0  0  0  0
   -4.3114   -2.8771   -3.6331 C   0  0  0  0  0  0  0  0  0  0  0  0
   -4.6098   -2.1884   -4.7042 N   0  0  0  0  0  0  0  0  0  0  0  0
   -5.0055   -3.9402   -3.3188 N   0  0  0  0  0  0  0  0  0  0  0  0
  2  1  1  1  0  0  0
  2  3  1  0  0  0  0
  2  5  1  0  0  0  0
  3  4  2  0  0  0  0
  5  6  1  0  0  0  0
  6  7  1  0  0  0  0
  7  8  1  0  0  0  0
  8  9  2  0  0  0  0
  9 10  1  0  0  0  0
  9 11  1  0  0  0  0
M  CHG  2   1   1   8   1
M  END
>  <CHROM.1>
-176.57635826,9.99914426,-73.54530171,-66.03999725,-168.46705665,85.18444196
-3.65569693,-2.49624817,-0.53135609,-0.95390766,1.21662266,-2.30604867

>  <Name>


>  <RI>
224

>  <Rbt.Current_Directory>
/home/itssahil/PROJECTS/Mol_Feturizer/New_Systems/rnas/1aju

>  <Rbt.Executable>
rbdock ($Id: //depot/dev/client3/rdock/2013.1/src/exe/rbdock.cxx#4 $)

>  <Rbt.Library>
libRbt.so (2013.1, Build901 2013/11/27)

>  <Rbt.Parameter_File>
/export/apps/rDock/src/rDock_2013.1_src/data/scripts/dock_solv.prm

>  <Rbt.Receptor>
prm/pocket_docking_5.prm

>  <SCORE>
-13.392

>  <SCORE.INTER>
-12.6252

>  <SCORE.INTER.CONST>
1

>  <SCORE.INTER.POLAR>
-2.5867

>  <SCORE.INTER.ROT>
5

>  <SCORE.INTER.SOLV>
12.692

>  <SCORE.INTER.VDW>
-10.9585

>  <SCORE.INTER.norm>
-1.14775

>  <SCORE.INTRA>
-0.766834

>  <SCORE.INTRA.DIHEDRAL>
-5.52863

>  <SCORE.INTRA.DIHEDRAL.0>
9.90185

>  <SCORE.INTRA.POLAR>
0

>  <SCORE.INTRA.POLAR.0>
0

>  <SCORE.INTRA.REPUL>
0

>  <SCORE.INTRA.REPUL.0>
0

>  <SCORE.INTRA.SOLV>
2.87354

>  <SCORE.INTRA.SOLV.lig_0>
-53.6586

>  <SCORE.INTRA.VDW>
0.560711

>  <SCORE.INTRA.VDW.0>
-0.556525

>  <SCORE.INTRA.norm>
-0.0697122

>  <SCORE.RESTR>
0

>  <SCORE.RESTR.CAVITY>
0

>  <SCORE.RESTR.norm>
0

>  <SCORE.SYSTEM>
0

>  <SCORE.SYSTEM.CONST>
0

>  <SCORE.SYSTEM.DIHEDRAL>
0

>  <SCORE.SYSTEM.SOLV>
0

>  <SCORE.SYSTEM.norm>
0

>  <SCORE.heavy>
11

>  <SCORE.norm>
-1.21746

>  <RMSD>
3.080

$$$$

 OpenBabel11021811383D
libRbt.so/2013.1/901 2013/11/27
 11 10  0  0  0  0  0  0  0  0999 V2000
   -4.2484   -2.0825    2.5649 N   0  3  0  0  0  0  0  0  0  0  0  0
   -4.3893   -3.4113    1.8970 C   0  0  2  0  0  0  0  0  0  0  0  0
   -3.2454   -4.3392    2.3401 C   0  0  0  0  0  0  0  0  0  0  0  0
   -3.4828   -5.4346    2.8132 O   0  0  0  0  0  0  0  0  0  0  0  0
   -4.3477   -3.2207    0.3749 C   0  0  0  0  0  0  0  0  0  0  0  0
   -4.9261   -4.4600   -0.3139 C   0  0  0  0  0  0  0  0  0  0  0  0
   -4.4315   -4.5192   -1.7576 C   0  0  0  0  0  0  0  0  0  0  0  0
   -4.8834   -3.2973   -2.4779 N   0  3  0  0  0  0  0  0  0  0  0  0
   -4.0469   -2.6303   -3.2250 C   0  0  0  0  0  0  0  0  0  0  0  0
   -4.2622   -2.5302   -4.5112 N   0  0  0  0  0  0  0  0  0  0  0  0
   -3.0015   -2.0587   -2.6855 N   0  0  0  0  0  0  0  0  0  0  0  0
  2  1  1  1  0  0  0
  2  3  1  0  0  0  0
  2  5  1  0  0  0  0
  3  4  2  0  0  0  0
  5  6  1  0  0  0  0
  6  7  1  0  0  0  0
  7  8  1  0  0  0  0
  8  9  2  0  0  0  0
  9 10  1  0  0  0  0
  9 11  1  0  0  0  0
M  CHG  2   1   1   8   1
M  END
>  <CHROM.1>
-169.39802863,125.76381156,-162.03285447,-159.10719432,-60.28852975,133.71319152
-4.10834334,-3.41603186,-0.44451330,-1.30338925,-1.41795248,-1.10067238

>  <Name>


>  <RI>
0

>  <Rbt.Current_Directory>
/home/itssahil/PROJECTS/Mol_Feturizer/New_Systems/rnas/1aju

>  <Rbt.Executable>
rbdock ($Id: //depot/dev/client3/rdock/2013.1/src/exe/rbdock.cxx#4 $)

>  <Rbt.Library>
libRbt.so (2013.1, Build901 2013/11/27)

>  <Rbt.Parameter_File>
/export/apps/rDock/src/rDock_2013.1_src/data/scripts/dock_solv.prm

>  <Rbt.Receptor>
prm/pocket_docking_6.prm

>  <SCORE>
-20.6907

>  <SCORE.INTER>
-18.9348

>  <SCORE.INTER.CONST>
1

>  <SCORE.INTER.POLAR>
-3.78192

>  <SCORE.INTER.ROT>
5

>  <SCORE.INTER.SOLV>
14.8798

>  <SCORE.INTER.VDW>
-11.9101

>  <SCORE.INTER.norm>
-1.72135

>  <SCORE.INTRA>
-1.75588

>  <SCORE.INTRA.DIHEDRAL>
-3.86838

>  <SCORE.INTRA.DIHEDRAL.0>
9.90185

>  <SCORE.INTRA.POLAR>
0

>  <SCORE.INTRA.POLAR.0>
0

>  <SCORE.INTRA.REPUL>
0

>  <SCORE.INTRA.REPUL.0>
0

>  <SCORE.INTRA.SOLV>
0.829617

>  <SCORE.INTRA.SOLV.lig_0>
-53.6586

>  <SCORE.INTRA.VDW>
-0.236504

>  <SCORE.INTRA.VDW.0>
-0.556525

>  <SCORE.INTRA.norm>
-0.159626

>  <SCORE.RESTR>
0

>  <SCORE.RESTR.CAVITY>
0

>  <SCORE.RESTR.norm>
0

>  <SCORE.SYSTEM>
0

>  <SCORE.SYSTEM.CONST>
0

>  <SCORE.SYSTEM.DIHEDRAL>
0

>  <SCORE.SYSTEM.SOLV>
0

>  <SCORE.SYSTEM.norm>
0

>  <SCORE.heavy>
11

>  <SCORE.norm>
-1.88097

>  <RMSD>
3.116

$$$$

 OpenBabel11021811383D
libRbt.so/2013.1/901 2013/11/27
 11 10  0  0  0  0  0  0  0  0999 V2000
   -4.2715   -1.0703    1.7696 N   0  3  0  0  0  0  0  0  0  0  0  0
   -4.1665   -2.4822    1.2931 C   0  0  2  0  0  0  0  0  0  0  0  0
   -4.5559   -3.4438    2.4287 C   0  0  0  0  0  0  0  0  0  0  0  0
   -5.3094   -4.3763    2.2212 O   0  0  0  0  0  0  0  0  0  0  0  0
   -2.7257   -2.7601    0.8441 C   0  0  0  0  0  0  0  0  0  0  0  0
   -2.7233   -3.2274   -0.6141 C   0  0  0  0  0  0  0  0  0  0  0  0
   -3.2422   -2.1052   -1.5107 C   0  0  0  0  0  0  0  0  0  0  0  0
   -3.1492   -2.5352   -2.9328 N   0  3  0  0  0  0  0  0  0  0  0  0
   -4.2264   -2.8750   -3.5862 C   0  0  0  0  0  0  0  0  0  0  0  0
   -4.6016   -2.1779   -4.6274 N   0  0  0  0  0  0  0  0  0  0  0  0
   -4.9224   -3.9140   -3.2033 N   0  0  0  0  0  0  0  0  0  0  0  0
  2  1  1  1  0  0  0
  2  3  1  0  0  0  0
  2  5  1  0  0  0  0
  3  4  2  0  0  0  0
  5  6  1  0  0  0  0
  6  7  1  0  0  0  0
  7  8  1  0  0  0  0
  8  9  2  0  0  0  0
  9 10  1  0  0  0  0
  9 11  1  0  0  0  0
M  CHG  2   1   1   8   1
M  END
>  <CHROM.1>
-178.99125812,134.06456964,-122.78302285,63.76770430,176.19313305,105.53069782
-4.01837162,-2.79871622,-0.73052300,-1.61716116,-0.87979749,-1.57476926

>  <Name>


>  <RI>
0

>  <Rbt.Current_Directory>
/home/itssahil/PROJECTS/Mol_Feturizer/New_Systems/rnas/1aju

>  <Rbt.Executable>
rbdock ($Id: //depot/dev/client3/rdock/2013.1/src/exe/rbdock.cxx#4 $)

>  <Rbt.Library>
libRbt.so (2013.1, Build901 2013/11/27)

>  <Rbt.Parameter_File>
/export/apps/rDock/src/rDock_2013.1_src/data/scripts/dock_solv.prm

>  <Rbt.Receptor>
prm/pocket_docking_8.prm

>  <SCORE>
-24.398

>  <SCORE.INTER>
-23.9786

>  <SCORE.INTER.CONST>
1

>  <SCORE.INTER.POLAR>
-4.62365

>  <SCORE.INTER.ROT>
5

>  <SCORE.INTER.SOLV>
16.8427

>  <SCORE.INTER.VDW>
-13.1211

>  <SCORE.INTER.norm>
-2.17987

>  <SCORE.INTRA>
-0.419433

>  <SCORE.INTRA.DIHEDRAL>
-1.40584

>  <SCORE.INTRA.DIHEDRAL.0>
9.90185

>  <SCORE.INTRA.POLAR>
0

>  <SCORE.INTRA.POLAR.0>
0

>  <SCORE.INTRA.REPUL>
0

>  <SCORE.INTRA.REPUL.0>
0

>  <SCORE.INTRA.SOLV>
0.968433

>  <SCORE.INTRA.SOLV.lig_0>
-53.6586

>  <SCORE.INTRA.VDW>
-0.200731

>  <SCORE.INTRA.VDW.0>
-0.556525

>  <SCORE.INTRA.norm>
-0.0381303

>  <SCORE.RESTR>
0

>  <SCORE.RESTR.CAVITY>
0

>  <SCORE.RESTR.norm>
0

>  <SCORE.SYSTEM>
0

>  <SCORE.SYSTEM.CONST>
0

>  <SCORE.SYSTEM.DIHEDRAL>
0

>  <SCORE.SYSTEM.SOLV>
0

>  <SCORE.SYSTEM.norm>
0

>  <SCORE.heavy>
11

>  <SCORE.norm>
-2.218

>  <RMSD>
3.116

$$$$

 OpenBabel11021811383D
libRbt.so/2013.1/901 2013/11/27
 11 10  0  0  0  0  0  0  0  0999 V2000
   -4.0399   -1.7348    1.7067 N   0  3  0  0  0  0  0  0  0  0  0  0
   -4.1526   -2.6842    0.5588 C   0  0  2  0  0  0  0  0  0  0  0  0
   -5.1085   -3.8319    0.9261 C   0  0  0  0  0  0  0  0  0  0  0  0
   -5.9721   -4.1930    0.1489 O   0  0  0  0  0  0  0  0  0  0  0  0
   -2.7638   -3.2466    0.2277 C   0  0  0  0  0  0  0  0  0  0  0  0
   -2.0296   -2.2832   -0.7092 C   0  0  0  0  0  0  0  0  0  0  0  0
   -2.4777   -2.5298   -2.1483 C   0  0  0  0  0  0  0  0  0  0  0  0
   -3.9345   -2.2452   -2.2605 N   0  3  0  0  0  0  0  0  0  0  0  0
   -4.6416   -2.8087   -3.2014 C   0  0  0  0  0  0  0  0  0  0  0  0
   -5.6123   -3.6257   -2.8836 N   0  0  0  0  0  0  0  0  0  0  0  0
   -4.3827   -2.5499   -4.4570 N   0  0  0  0  0  0  0  0  0  0  0  0
  2  1  1  1  0  0  0
  2  3  1  0  0  0  0
  2  5  1  0  0  0  0
  3  4  2  0  0  0  0
  5  6  1  0  0  0  0
  6  7  1  0  0  0  0
  7  8  1  0  0  0  0
  8  9  2  0  0  0  0
  9 10  1  0  0  0  0
  9 11  1  0  0  0  0
M  CHG  2   1   1   8   1
M  END
>  <CHROM.1>
61.32425996,133.83725875,-85.05028844,-82.55123779,62.43134314,-155.53088900
-4.13680747,-2.87140590,-1.09460510,-1.50970757,-0.45140372,-1.53864511

>  <Name>


>  <RI>
0

>  <Rbt.Current_Directory>
/home/itssahil/PROJECTS/Mol_Feturizer/New_Systems/rnas/1aju

>  <Rbt.Executable>
rbdock ($Id: //depot/dev/client3/rdock/2013.1/src/exe/rbdock.cxx#4 $)

>  <Rbt.Library>
libRbt.so (2013.1, Build901 2013/11/27)

>  <Rbt.Parameter_File>
/export/apps/rDock/src/rDock_2013.1_src/data/scripts/dock_solv.prm

>  <Rbt.Receptor>
prm/pocket_docking_7.prm

>  <SCORE>
-20.0985

>  <SCORE.INTER>
-16.5466

>  <SCORE.INTER.CONST>
1

>  <SCORE.INTER.POLAR>
-2.57458

>  <SCORE.INTER.ROT>
5

>  <SCORE.INTER.SOLV>
15.4361

>  <SCORE.INTER.VDW>
-14.5278

>  <SCORE.INTER.norm>
-1.50423

>  <SCORE.INTRA>
-3.55193

>  <SCORE.INTRA.DIHEDRAL>
-2.824

>  <SCORE.INTRA.DIHEDRAL.0>
9.90185

>  <SCORE.INTRA.POLAR>
-1.08333

>  <SCORE.INTRA.POLAR.0>
0

>  <SCORE.INTRA.REPUL>
0

>  <SCORE.INTRA.REPUL.0>
0

>  <SCORE.INTRA.SOLV>
3.92757

>  <SCORE.INTRA.SOLV.lig_0>
-53.6586

>  <SCORE.INTRA.VDW>
-0.420382

>  <SCORE.INTRA.VDW.0>
-0.556525

>  <SCORE.INTRA.norm>
-0.322903

>  <SCORE.RESTR>
0

>  <SCORE.RESTR.CAVITY>
0

>  <SCORE.RESTR.norm>
0

>  <SCORE.SYSTEM>
0

>  <SCORE.SYSTEM.CONST>
0

>  <SCORE.SYSTEM.DIHEDRAL>
0

>  <SCORE.SYSTEM.SOLV>
0

>  <SCORE.SYSTEM.norm>
0

>  <SCORE.heavy>
11

>  <SCORE.norm>
-1.82714

>  <RMSD>
3.117

$$$$

 OpenBabel11021811383D
libRbt.so/2013.1/901 2013/11/27
 11 10  0  0  0  0  0  0  0  0999 V2000
   -5.1928   -3.8438    2.0472 N   0  3  0  0  0  0  0  0  0  0  0  0
   -3.9912   -3.0580    1.6343 C   0  0  2  0  0  0  0  0  0  0  0  0
   -3.3328   -2.4267    2.8728 C   0  0  0  0  0  0  0  0  0  0  0  0
   -2.1539   -2.6107    3.1105 O   0  0  0  0  0  0  0  0  0  0  0  0
   -4.4170   -1.9591    0.6516 C   0  0  0  0  0  0  0  0  0  0  0  0
   -4.5792   -2.5571   -0.7488 C   0  0  0  0  0  0  0  0  0  0  0  0
   -3.2037   -2.7502   -1.3838 C   0  0  0  0  0  0  0  0  0  0  0  0
   -3.3742   -3.2893   -2.7608 N   0  3  0  0  0  0  0  0  0  0  0  0
   -4.5287   -3.1977   -3.3619 C   0  0  0  0  0  0  0  0  0  0  0  0
   -4.6366   -2.4912   -4.4574 N   0  0  0  0  0  0  0  0  0  0  0  0
   -5.5713   -3.8174   -2.8723 N   0  0  0  0  0  0  0  0  0  0  0  0
  2  1  1  1  0  0  0
  2  3  1  0  0  0  0
  2  5  1  0  0  0  0
  3  4  2  0  0  0  0
  5  6  1  0  0  0  0
  6  7  1  0  0  0  0
  7  8  1  0  0  0  0
  8  9  2  0  0  0  0
  9 10  1  0  0  0  0
  9 11  1  0  0  0  0
M  CHG  2   1   1   8   1
M  END
>  <CHROM.1>
-175.24416552,125.80770791,-80.37559078,-77.88615687,-178.14202555,17.69948005
-4.11277246,-2.93566249,-0.48299181,1.38386247,0.37823158,1.60101142

>  <Name>


>  <RI>
0

>  <Rbt.Current_Directory>
/home/itssahil/PROJECTS/Mol_Feturizer/New_Systems/rnas/1aju

>  <Rbt.Executable>
rbdock ($Id: //depot/dev/client3/rdock/2013.1/src/exe/rbdock.cxx#4 $)

>  <Rbt.Library>
libRbt.so (2013.1, Build901 2013/11/27)

>  <Rbt.Parameter_File>
/export/apps/rDock/src/rDock_2013.1_src/data/scripts/dock_solv.prm

>  <Rbt.Receptor>
prm/pocket_docking_4.prm

>  <SCORE>
-11.9676

>  <SCORE.INTER>
-14.8279

>  <SCORE.INTER.CONST>
1

>  <SCORE.INTER.POLAR>
-2.65792

>  <SCORE.INTER.ROT>
5

>  <SCORE.INTER.SOLV>
13.5633

>  <SCORE.INTER.VDW>
-12.4799

>  <SCORE.INTER.norm>
-1.34799

>  <SCORE.INTRA>
2.86024

>  <SCORE.INTRA.DIHEDRAL>
-4.20743

>  <SCORE.INTRA.DIHEDRAL.0>
9.90185

>  <SCORE.INTRA.POLAR>
0

>  <SCORE.INTRA.POLAR.0>
0

>  <SCORE.INTRA.REPUL>
0

>  <SCORE.INTRA.REPUL.0>
0

>  <SCORE.INTRA.SOLV>
2.00211

>  <SCORE.INTRA.SOLV.lig_0>
-53.6586

>  <SCORE.INTRA.VDW>
3.9629

>  <SCORE.INTRA.VDW.0>
-0.556525

>  <SCORE.INTRA.norm>
0.260022

>  <SCORE.RESTR>
0

>  <SCORE.RESTR.CAVITY>
0

>  <SCORE.RESTR.norm>
0

>  <SCORE.SYSTEM>
0

>  <SCORE.SYSTEM.CONST>
0

>  <SCORE.SYSTEM.DIHEDRAL>
0

>  <SCORE.SYSTEM.SOLV>
0

>  <SCORE.SYSTEM.norm>
0

>  <SCORE.heavy>
11

>  <SCORE.norm>
-1.08797

>  <RMSD>
3.125

$$$$

 OpenBabel11021811383D
libRbt.so/2013.1/901 2013/11/27
 11 10  0  0  0  0  0  0  0  0999 V2000
   -4.1911   -1.1040    1.7226 N   0  3  0  0  0  0  0  0  0  0  0  0
   -4.0103   -2.5711    1.5067 C   0  0  2  0  0  0  0  0  0  0  0  0
   -4.0811   -3.3070    2.8555 C   0  0  0  0  0  0  0  0  0  0  0  0
   -4.2479   -2.6903    3.8909 O   0  0  0  0  0  0  0  0  0  0  0  0
   -2.6486   -2.8223    0.8453 C   0  0  0  0  0  0  0  0  0  0  0  0
   -2.8577   -3.3162   -0.5890 C   0  0  0  0  0  0  0  0  0  0  0  0
   -3.2804   -2.1463   -1.4751 C   0  0  0  0  0  0  0  0  0  0  0  0
   -3.1736   -2.5532   -2.9030 N   0  3  0  0  0  0  0  0  0  0  0  0
   -4.2414   -2.9041   -3.5659 C   0  0  0  0  0  0  0  0  0  0  0  0
   -4.6263   -2.1991   -4.5981 N   0  0  0  0  0  0  0  0  0  0  0  0
   -4.9185   -3.9620   -3.2012 N   0  0  0  0  0  0  0  0  0  0  0  0
  2  1  1  1  0  0  0
  2  3  1  0  0  0  0
  2  5  1  0  0  0  0
  3  4  2  0  0  0  0
  5  6  1  0  0  0  0
  6  7  1  0  0  0  0
  7  8  1  0  0  0  0
  8  9  2  0  0  0  0
  9 10  1  0  0  0  0
  9 11  1  0  0  0  0
M  CHG  2   1   1   8   1
M  END
>  <CHROM.1>
57.16932741,-0.75657772,-111.41606145,74.78519051,166.91569772,100.64155207
-3.86667283,-2.65731420,-0.50503496,-1.45090574,-1.22331913,-1.50569936

>  <Name>


>  <RI>
0

>  <Rbt.Current_Directory>
/home/itssahil/PROJECTS/Mol_Feturizer/New_Systems/rnas/1aju

>  <Rbt.Executable>
rbdock ($Id: //depot/dev/client3/rdock/2013.1/src/exe/rbdock.cxx#4 $)

>  <Rbt.Library>
libRbt.so (2013.1, Build901 2013/11/27)

>  <Rbt.Parameter_File>
/export/apps/rDock/src/rDock_2013.1_src/data/scripts/dock_solv.prm

>  <Rbt.Receptor>
prm/pocket_docking_6.prm

>  <SCORE>
-23.0325

>  <SCORE.INTER>
-23.5947

>  <SCORE.INTER.CONST>
1

>  <SCORE.INTER.POLAR>
-4.60475

>  <SCORE.INTER.ROT>
5

>  <SCORE.INTER.SOLV>
16.0994

>  <SCORE.INTER.VDW>
-12.6805

>  <SCORE.INTER.norm>
-2.14498

>  <SCORE.INTRA>
0.562213

>  <SCORE.INTRA.DIHEDRAL>
-0.608412

>  <SCORE.INTRA.DIHEDRAL.0>
9.90185

>  <SCORE.INTRA.POLAR>
0

>  <SCORE.INTRA.POLAR.0>
0

>  <SCORE.INTRA.REPUL>
0

>  <SCORE.INTRA.REPUL.0>
0

>  <SCORE.INTRA.SOLV>
2.41707

>  <SCORE.INTRA.SOLV.lig_0>
-53.6586

>  <SCORE.INTRA.VDW>
-0.342119

>  <SCORE.INTRA.VDW.0>
-0.556525

>  <SCORE.INTRA.norm>
0.0511102

>  <SCORE.RESTR>
0

>  <SCORE.RESTR.CAVITY>
0

>  <SCORE.RESTR.norm>
0

>  <SCORE.SYSTEM>
0

>  <SCORE.SYSTEM.CONST>
0

>  <SCORE.SYSTEM.DIHEDRAL>
0

>  <SCORE.SYSTEM.SOLV>
0

>  <SCORE.SYSTEM.norm>
0

>  <SCORE.heavy>
11

>  <SCORE.norm>
-2.09387

>  <RMSD>
3.141

$$$$

 OpenBabel11021811383D
libRbt.so/2013.1/901 2013/11/27
 11 10  0  0  0  0  0  0  0  0999 V2000
   -4.3231   -0.3565    1.9935 N   0  3  0  0  0  0  0  0  0  0  0  0
   -3.8585   -1.7222    1.6052 C   0  0  2  0  0  0  0  0  0  0  0  0
   -3.9709   -2.6711    2.8104 C   0  0  0  0  0  0  0  0  0  0  0  0
   -4.5076   -3.7571    2.6972 O   0  0  0  0  0  0  0  0  0  0  0  0
   -2.4001   -1.6467    1.1337 C   0  0  0  0  0  0  0  0  0  0  0  0
   -2.3354   -1.8895   -0.3768 C   0  0  0  0  0  0  0  0  0  0  0  0
   -2.8340   -3.2990   -0.6891 C   0  0  0  0  0  0  0  0  0  0  0  0
   -2.8319   -3.5009   -2.1639 N   0  3  0  0  0  0  0  0  0  0  0  0
   -3.8673   -3.1474   -2.8750 C   0  0  0  0  0  0  0  0  0  0  0  0
   -3.7449   -2.2111   -3.7800 N   0  0  0  0  0  0  0  0  0  0  0  0
   -5.0208   -3.7343   -2.6861 N   0  0  0  0  0  0  0  0  0  0  0  0
  2  1  1  1  0  0  0
  2  3  1  0  0  0  0
  2  5  1  0  0  0  0
  3  4  2  0  0  0  0
  5  6  1  0  0  0  0
  6  7  1  0  0  0  0
  7  8  1  0  0  0  0
  8  9  2  0  0  0  0
  9 10  1  0  0  0  0
  9 11  1  0  0  0  0
M  CHG  2   1   1   8   1
M  END
>  <CHROM.1>
178.50882148,130.96737652,-109.96975086,-62.87176118,177.18059105,-86.92451403
-3.64245208,-2.52188336,-0.22352594,-1.62782607,-1.07949036,-1.81358932

>  <Name>


>  <RI>
0

>  <Rbt.Current_Directory>
/home/itssahil/PROJECTS/Mol_Feturizer/New_Systems/rnas/1aju

>  <Rbt.Executable>
rbdock ($Id: //depot/dev/client3/rdock/2013.1/src/exe/rbdock.cxx#4 $)

>  <Rbt.Library>
libRbt.so (2013.1, Build901 2013/11/27)

>  <Rbt.Parameter_File>
/export/apps/rDock/src/rDock_2013.1_src/data/scripts/dock_solv.prm

>  <Rbt.Receptor>
prm/pocket_docking_7.prm

>  <SCORE>
-19.9133

>  <SCORE.INTER>
-19.1914

>  <SCORE.INTER.CONST>
1

>  <SCORE.INTER.POLAR>
-3.37238

>  <SCORE.INTER.ROT>
5

>  <SCORE.INTER.SOLV>
13.87

>  <SCORE.INTER.VDW>
-13.1097

>  <SCORE.INTER.norm>
-1.74467

>  <SCORE.INTRA>
-0.721929

>  <SCORE.INTRA.DIHEDRAL>
-1.82378

>  <SCORE.INTRA.DIHEDRAL.0>
9.90185

>  <SCORE.INTRA.POLAR>
0

>  <SCORE.INTRA.POLAR.0>
0

>  <SCORE.INTRA.REPUL>
0

>  <SCORE.INTRA.REPUL.0>
0

>  <SCORE.INTRA.SOLV>
0.556631

>  <SCORE.INTRA.SOLV.lig_0>
-53.6586

>  <SCORE.INTRA.VDW>
-0.0883527

>  <SCORE.INTRA.VDW.0>
-0.556525

>  <SCORE.INTRA.norm>
-0.0656299

>  <SCORE.RESTR>
0

>  <SCORE.RESTR.CAVITY>
0

>  <SCORE.RESTR.norm>
0

>  <SCORE.SYSTEM>
0

>  <SCORE.SYSTEM.CONST>
0

>  <SCORE.SYSTEM.DIHEDRAL>
0

>  <SCORE.SYSTEM.SOLV>
0

>  <SCORE.SYSTEM.norm>
0

>  <SCORE.heavy>
11

>  <SCORE.norm>
-1.8103

>  <RMSD>
3.150

$$$$

 OpenBabel11021811383D
libRbt.so/2013.1/901 2013/11/27
 11 10  0  0  0  0  0  0  0  0999 V2000
   -3.3009   -0.7579    1.6181 N   0  3  0  0  0  0  0  0  0  0  0  0
   -3.9548   -2.0955    1.4962 C   0  0  2  0  0  0  0  0  0  0  0  0
   -3.0339   -3.1791    2.0822 C   0  0  0  0  0  0  0  0  0  0  0  0
   -1.9081   -2.9032    2.4519 O   0  0  0  0  0  0  0  0  0  0  0  0
   -4.2332   -2.3908    0.0163 C   0  0  0  0  0  0  0  0  0  0  0  0
   -5.2262   -3.5509   -0.0980 C   0  0  0  0  0  0  0  0  0  0  0  0
   -5.6771   -3.6957   -1.5500 C   0  0  0  0  0  0  0  0  0  0  0  0
   -4.5734   -4.3008   -2.3448 N   0  3  0  0  0  0  0  0  0  0  0  0
   -3.5466   -3.5768   -2.6971 C   0  0  0  0  0  0  0  0  0  0  0  0
   -2.3545   -3.8803   -2.2526 N   0  0  0  0  0  0  0  0  0  0  0  0
   -3.7109   -2.5559   -3.4980 N   0  0  0  0  0  0  0  0  0  0  0  0
  2  1  1  6  0  0  0
  2  3  1  0  0  0  0
  2  5  1  0  0  0  0
  3  4  2  0  0  0  0
  5  6  1  0  0  0  0
  6  7  1  0  0  0  0
  7  8  1  0  0  0  0
  8  9  2  0  0  0  0
  9 10  1  0  0  0  0
  9 11  1  0  0  0  0
M  CHG  2   1   1   8   1
M  END
>  <CHROM.1>
165.76772233,-6.06653974,-164.65718232,170.83601986,74.21187298,-76.36884586
-3.72792137,-2.95432841,-0.43504889,1.35765839,0.06445955,1.29222397

>  <Name>


>  <RI>
224

>  <Rbt.Current_Directory>
/home/itssahil/PROJECTS/Mol_Feturizer/New_Systems/rnas/1aju

>  <Rbt.Executable>
rbdock ($Id: //depot/dev/client3/rdock/2013.1/src/exe/rbdock.cxx#4 $)

>  <Rbt.Library>
libRbt.so (2013.1, Build901 2013/11/27)

>  <Rbt.Parameter_File>
/export/apps/rDock/src/rDock_2013.1_src/data/scripts/dock_solv.prm

>  <Rbt.Receptor>
prm/pocket_docking_5.prm

>  <SCORE>
-15.0736

>  <SCORE.INTER>
-13.845

>  <SCORE.INTER.CONST>
1

>  <SCORE.INTER.POLAR>
-2.46637

>  <SCORE.INTER.ROT>
5

>  <SCORE.INTER.SOLV>
10.5657

>  <SCORE.INTER.VDW>
-11.464

>  <SCORE.INTER.norm>
-1.25863

>  <SCORE.INTRA>
-1.22865

>  <SCORE.INTRA.DIHEDRAL>
-4.51106

>  <SCORE.INTRA.DIHEDRAL.0>
9.90185

>  <SCORE.INTRA.POLAR>
0

>  <SCORE.INTRA.POLAR.0>
0

>  <SCORE.INTRA.REPUL>
0

>  <SCORE.INTRA.REPUL.0>
0

>  <SCORE.INTRA.SOLV>
2.20505

>  <SCORE.INTRA.SOLV.lig_0>
-53.6586

>  <SCORE.INTRA.VDW>
-0.0756509

>  <SCORE.INTRA.VDW.0>
-0.556525

>  <SCORE.INTRA.norm>
-0.111696

>  <SCORE.RESTR>
0

>  <SCORE.RESTR.CAVITY>
0

>  <SCORE.RESTR.norm>
0

>  <SCORE.SYSTEM>
0

>  <SCORE.SYSTEM.CONST>
0

>  <SCORE.SYSTEM.DIHEDRAL>
0

>  <SCORE.SYSTEM.SOLV>
0

>  <SCORE.SYSTEM.norm>
0

>  <SCORE.heavy>
11

>  <SCORE.norm>
-1.37033

>  <RMSD>
3.153

$$$$

 OpenBabel11021811383D
libRbt.so/2013.1/901 2013/11/27
 11 10  0  0  0  0  0  0  0  0999 V2000
   -4.0685   -0.9660    1.8095 N   0  3  0  0  0  0  0  0  0  0  0  0
   -3.9617   -2.4057    1.4251 C   0  0  2  0  0  0  0  0  0  0  0  0
   -4.1299   -3.2900    2.6723 C   0  0  0  0  0  0  0  0  0  0  0  0
   -4.4495   -2.8024    3.7402 O   0  0  0  0  0  0  0  0  0  0  0  0
   -2.5899   -2.6595    0.7859 C   0  0  0  0  0  0  0  0  0  0  0  0
   -2.5207   -1.9616   -0.5754 C   0  0  0  0  0  0  0  0  0  0  0  0
   -3.7969   -2.2510   -1.3629 C   0  0  0  0  0  0  0  0  0  0  0  0
   -3.4406   -2.5393   -2.7792 N   0  3  0  0  0  0  0  0  0  0  0  0
   -4.3608   -2.9227   -3.6212 C   0  0  0  0  0  0  0  0  0  0  0  0
   -4.6479   -2.1745   -4.6549 N   0  0  0  0  0  0  0  0  0  0  0  0
   -4.9872   -4.0554   -3.4334 N   0  0  0  0  0  0  0  0  0  0  0  0
  2  1  1  1  0  0  0
  2  3  1  0  0  0  0
  2  5  1  0  0  0  0
  3  4  2  0  0  0  0
  5  6  1  0  0  0  0
  6  7  1  0  0  0  0
  7  8  1  0  0  0  0
  8  9  2  0  0  0  0
  9 10  1  0  0  0  0
  9 11  1  0  0  0  0
M  CHG  2   1   1   8   1
M  END
>  <CHROM.1>
173.94727451,7.34787629,-69.04031274,-46.34659673,-137.72514802,174.42388913
-3.92598585,-2.52192540,-0.54719673,-1.47398434,-0.85547817,-1.56519533

>  <Name>


>  <RI>
0

>  <Rbt.Current_Directory>
/home/itssahil/PROJECTS/Mol_Feturizer/New_Systems/rnas/1aju

>  <Rbt.Executable>
rbdock ($Id: //depot/dev/client3/rdock/2013.1/src/exe/rbdock.cxx#4 $)

>  <Rbt.Library>
libRbt.so (2013.1, Build901 2013/11/27)

>  <Rbt.Parameter_File>
/export/apps/rDock/src/rDock_2013.1_src/data/scripts/dock_solv.prm

>  <Rbt.Receptor>
prm/pocket_docking_7.prm

>  <SCORE>
-20.8324

>  <SCORE.INTER>
-23.5461

>  <SCORE.INTER.CONST>
1

>  <SCORE.INTER.POLAR>
-4.60513

>  <SCORE.INTER.ROT>
5

>  <SCORE.INTER.SOLV>
16.2169

>  <SCORE.INTER.VDW>
-12.6859

>  <SCORE.INTER.norm>
-2.14055

>  <SCORE.INTRA>
2.71371

>  <SCORE.INTRA.DIHEDRAL>
-1.30101

>  <SCORE.INTRA.DIHEDRAL.0>
9.90185

>  <SCORE.INTRA.POLAR>
0

>  <SCORE.INTRA.POLAR.0>
0

>  <SCORE.INTRA.REPUL>
0

>  <SCORE.INTRA.REPUL.0>
0

>  <SCORE.INTRA.SOLV>
2.77232

>  <SCORE.INTRA.SOLV.lig_0>
-53.6586

>  <SCORE.INTRA.VDW>
1.97806

>  <SCORE.INTRA.VDW.0>
-0.556525

>  <SCORE.INTRA.norm>
0.246701

>  <SCORE.RESTR>
0

>  <SCORE.RESTR.CAVITY>
0

>  <SCORE.RESTR.norm>
0

>  <SCORE.SYSTEM>
0

>  <SCORE.SYSTEM.CONST>
0

>  <SCORE.SYSTEM.DIHEDRAL>
0

>  <SCORE.SYSTEM.SOLV>
0

>  <SCORE.SYSTEM.norm>
0

>  <SCORE.heavy>
11

>  <SCORE.norm>
-1.89385

>  <RMSD>
3.159

$$$$

 OpenBabel11021811383D
libRbt.so/2013.1/901 2013/11/27
 11 10  0  0  0  0  0  0  0  0999 V2000
   -4.3194   -2.9446    2.7744 N   0  3  0  0  0  0  0  0  0  0  0  0
   -3.5803   -3.0100    1.4778 C   0  0  2  0  0  0  0  0  0  0  0  0
   -3.2164   -1.5889    1.0153 C   0  0  0  0  0  0  0  0  0  0  0  0
   -2.0681   -1.3034    0.7323 O   0  0  0  0  0  0  0  0  0  0  0  0
   -4.4634   -3.6922    0.4245 C   0  0  0  0  0  0  0  0  0  0  0  0
   -3.5805   -4.3142   -0.6611 C   0  0  0  0  0  0  0  0  0  0  0  0
   -4.4325   -4.6443   -1.8849 C   0  0  0  0  0  0  0  0  0  0  0  0
   -4.8843   -3.3762   -2.5203 N   0  3  0  0  0  0  0  0  0  0  0  0
   -4.0617   -2.6852   -3.2609 C   0  0  0  0  0  0  0  0  0  0  0  0
   -4.3213   -2.5103   -4.5309 N   0  0  0  0  0  0  0  0  0  0  0  0
   -2.9856   -2.1642   -2.7307 N   0  0  0  0  0  0  0  0  0  0  0  0
  2  1  1  1  0  0  0
  2  3  1  0  0  0  0
  2  5  1  0  0  0  0
  3  4  2  0  0  0  0
  5  6  1  0  0  0  0
  6  7  1  0  0  0  0
  7  8  1  0  0  0  0
  8  9  2  0  0  0  0
  9 10  1  0  0  0  0
  9 11  1  0  0  0  0
M  CHG  2   1   1   8   1
M  END
>  <CHROM.1>
60.99706199,126.92893863,-155.25167474,-164.36642413,68.40379082,77.58799353
-3.80832240,-2.90389736,-0.81896752,1.39082009,0.93927659,1.65494707

>  <Name>


>  <RI>
0

>  <Rbt.Current_Directory>
/home/itssahil/PROJECTS/Mol_Feturizer/New_Systems/rnas/1aju

>  <Rbt.Executable>
rbdock ($Id: //depot/dev/client3/rdock/2013.1/src/exe/rbdock.cxx#4 $)

>  <Rbt.Library>
libRbt.so (2013.1, Build901 2013/11/27)

>  <Rbt.Parameter_File>
/export/apps/rDock/src/rDock_2013.1_src/data/scripts/dock_solv.prm

>  <Rbt.Receptor>
prm/pocket_docking_4.prm

>  <SCORE>
-20.3555

>  <SCORE.INTER>
-19.6788

>  <SCORE.INTER.CONST>
1

>  <SCORE.INTER.POLAR>
-3.77851

>  <SCORE.INTER.ROT>
5

>  <SCORE.INTER.SOLV>
14.2042

>  <SCORE.INTER.VDW>
-12.1922

>  <SCORE.INTER.norm>
-1.78898

>  <SCORE.INTRA>
-0.924182

>  <SCORE.INTRA.DIHEDRAL>
-3.7917

>  <SCORE.INTRA.DIHEDRAL.0>
9.90185

>  <SCORE.INTRA.POLAR>
0

>  <SCORE.INTRA.POLAR.0>
0

>  <SCORE.INTRA.REPUL>
0

>  <SCORE.INTRA.REPUL.0>
0

>  <SCORE.INTRA.SOLV>
2.05018

>  <SCORE.INTRA.SOLV.lig_0>
-53.6586

>  <SCORE.INTRA.VDW>
-0.053424

>  <SCORE.INTRA.VDW.0>
-0.556525

>  <SCORE.INTRA.norm>
-0.0840165

>  <SCORE.RESTR>
0.247451

>  <SCORE.RESTR.CAVITY>
0.247451

>  <SCORE.RESTR.norm>
0.0224956

>  <SCORE.SYSTEM>
0

>  <SCORE.SYSTEM.CONST>
0

>  <SCORE.SYSTEM.DIHEDRAL>
0

>  <SCORE.SYSTEM.SOLV>
0

>  <SCORE.SYSTEM.norm>
0

>  <SCORE.heavy>
11

>  <SCORE.norm>
-1.8505

>  <RMSD>
3.170

$$$$

 OpenBabel11021811383D
libRbt.so/2013.1/901 2013/11/27
 11 10  0  0  0  0  0  0  0  0999 V2000
   -4.3848   -1.4217    1.5834 N   0  3  0  0  0  0  0  0  0  0  0  0
   -4.0911   -2.8731    1.3859 C   0  0  2  0  0  0  0  0  0  0  0  0
   -2.8205   -3.0345    0.5343 C   0  0  0  0  0  0  0  0  0  0  0  0
   -1.8775   -3.6852    0.9438 O   0  0  0  0  0  0  0  0  0  0  0  0
   -5.2803   -3.5398    0.6816 C   0  0  0  0  0  0  0  0  0  0  0  0
   -5.6904   -2.7054   -0.5351 C   0  0  0  0  0  0  0  0  0  0  0  0
   -5.7430   -3.5990   -1.7726 C   0  0  0  0  0  0  0  0  0  0  0  0
   -4.3592   -3.8146   -2.2771 N   0  3  0  0  0  0  0  0  0  0  0  0
   -3.8025   -2.9318   -3.0603 C   0  0  0  0  0  0  0  0  0  0  0  0
   -2.7307   -2.2957   -2.6638 N   0  0  0  0  0  0  0  0  0  0  0  0
   -4.3127   -2.6913   -4.2403 N   0  0  0  0  0  0  0  0  0  0  0  0
  2  1  1  6  0  0  0
  2  3  1  0  0  0  0
  2  5  1  0  0  0  0
  3  4  2  0  0  0  0
  5  6  1  0  0  0  0
  6  7  1  0  0  0  0
  7  8  1  0  0  0  0
  8  9  2  0  0  0  0
  9 10  1  0  0  0  0
  9 11  1  0  0  0  0
M  CHG  2   1   1   8   1
M  END
>  <CHROM.1>
-71.40420149,124.21577487,48.61559538,127.51649319,-79.13036793,-83.78087190
-4.07179442,-2.93150692,-0.85825591,1.48720689,0.00354300,1.52328049

>  <Name>


>  <RI>
0

>  <Rbt.Current_Directory>
/home/itssahil/PROJECTS/Mol_Feturizer/New_Systems/rnas/1aju

>  <Rbt.Executable>
rbdock ($Id: //depot/dev/client3/rdock/2013.1/src/exe/rbdock.cxx#4 $)

>  <Rbt.Library>
libRbt.so (2013.1, Build901 2013/11/27)

>  <Rbt.Parameter_File>
/export/apps/rDock/src/rDock_2013.1_src/data/scripts/dock_solv.prm

>  <Rbt.Receptor>
prm/pocket_docking_6.prm

>  <SCORE>
-19.2241

>  <SCORE.INTER>
-21.8694

>  <SCORE.INTER.CONST>
1

>  <SCORE.INTER.POLAR>
-4.26535

>  <SCORE.INTER.ROT>
5

>  <SCORE.INTER.SOLV>
15.8125

>  <SCORE.INTER.VDW>
-12.5659

>  <SCORE.INTER.norm>
-1.98812

>  <SCORE.INTRA>
2.64528

>  <SCORE.INTRA.DIHEDRAL>
1.03954

>  <SCORE.INTRA.DIHEDRAL.0>
9.90185

>  <SCORE.INTRA.POLAR>
0

>  <SCORE.INTRA.POLAR.0>
0

>  <SCORE.INTRA.REPUL>
0

>  <SCORE.INTRA.REPUL.0>
0

>  <SCORE.INTRA.SOLV>
3.73832

>  <SCORE.INTRA.SOLV.lig_0>
-53.6586

>  <SCORE.INTRA.VDW>
0.256349

>  <SCORE.INTRA.VDW.0>
-0.556525

>  <SCORE.INTRA.norm>
0.24048

>  <SCORE.RESTR>
0

>  <SCORE.RESTR.CAVITY>
0

>  <SCORE.RESTR.norm>
0

>  <SCORE.SYSTEM>
0

>  <SCORE.SYSTEM.CONST>
0

>  <SCORE.SYSTEM.DIHEDRAL>
0

>  <SCORE.SYSTEM.SOLV>
0

>  <SCORE.SYSTEM.norm>
0

>  <SCORE.heavy>
11

>  <SCORE.norm>
-1.74764

>  <RMSD>
3.181

$$$$

 OpenBabel11021811383D
libRbt.so/2013.1/901 2013/11/27
 11 10  0  0  0  0  0  0  0  0999 V2000
   -4.2866   -1.4554    1.3989 N   0  3  0  0  0  0  0  0  0  0  0  0
   -2.9020   -1.8003    1.8411 C   0  0  2  0  0  0  0  0  0  0  0  0
   -2.3664   -0.7020    2.7752 C   0  0  0  0  0  0  0  0  0  0  0  0
   -2.6002    0.4710    2.5519 O   0  0  0  0  0  0  0  0  0  0  0  0
   -1.9939   -1.9284    0.6107 C   0  0  0  0  0  0  0  0  0  0  0  0
   -2.1594   -3.3196   -0.0072 C   0  0  0  0  0  0  0  0  0  0  0  0
   -2.3416   -3.1888   -1.5179 C   0  0  0  0  0  0  0  0  0  0  0  0
   -3.6493   -2.5342   -1.7960 N   0  3  0  0  0  0  0  0  0  0  0  0
   -4.1741   -2.5995   -2.9890 C   0  0  0  0  0  0  0  0  0  0  0  0
   -5.3183   -3.2086   -3.1629 N   0  0  0  0  0  0  0  0  0  0  0  0
   -3.5590   -2.0503   -4.0042 N   0  0  0  0  0  0  0  0  0  0  0  0
  2  1  1  6  0  0  0
  2  3  1  0  0  0  0
  2  5  1  0  0  0  0
  3  4  2  0  0  0  0
  5  6  1  0  0  0  0
  6  7  1  0  0  0  0
  7  8  1  0  0  0  0
  8  9  2  0  0  0  0
  9 10  1  0  0  0  0
  9 11  1  0  0  0  0
M  CHG  2   1   1   8   1
M  END
>  <CHROM.1>
57.81200934,-39.23120476,-82.19650028,132.79563274,-67.65731606,-163.53046077
-3.26632473,-2.00364072,-0.41365711,1.30394786,-0.47003943,1.09569469

>  <Name>


>  <RI>
224

>  <Rbt.Current_Directory>
/home/itssahil/PROJECTS/Mol_Feturizer/New_Systems/rnas/1aju

>  <Rbt.Executable>
rbdock ($Id: //depot/dev/client3/rdock/2013.1/src/exe/rbdock.cxx#4 $)

>  <Rbt.Library>
libRbt.so (2013.1, Build901 2013/11/27)

>  <Rbt.Parameter_File>
/export/apps/rDock/src/rDock_2013.1_src/data/scripts/dock_solv.prm

>  <Rbt.Receptor>
prm/pocket_docking_5.prm

>  <SCORE>
-14.5751

>  <SCORE.INTER>
-18.0693

>  <SCORE.INTER.CONST>
1

>  <SCORE.INTER.POLAR>
-3.32624

>  <SCORE.INTER.ROT>
5

>  <SCORE.INTER.SOLV>
16.1034

>  <SCORE.INTER.VDW>
-13.2598

>  <SCORE.INTER.norm>
-1.64266

>  <SCORE.INTRA>
3.49414

>  <SCORE.INTRA.DIHEDRAL>
2.23325

>  <SCORE.INTRA.DIHEDRAL.0>
9.90185

>  <SCORE.INTRA.POLAR>
0

>  <SCORE.INTRA.POLAR.0>
0

>  <SCORE.INTRA.REPUL>
0

>  <SCORE.INTRA.REPUL.0>
0

>  <SCORE.INTRA.SOLV>
4.95447

>  <SCORE.INTRA.SOLV.lig_0>
-53.6586

>  <SCORE.INTRA.VDW>
-0.0997138

>  <SCORE.INTRA.VDW.0>
-0.556525

>  <SCORE.INTRA.norm>
0.31765

>  <SCORE.RESTR>
0

>  <SCORE.RESTR.CAVITY>
0

>  <SCORE.RESTR.norm>
0

>  <SCORE.SYSTEM>
0

>  <SCORE.SYSTEM.CONST>
0

>  <SCORE.SYSTEM.DIHEDRAL>
0

>  <SCORE.SYSTEM.SOLV>
0

>  <SCORE.SYSTEM.norm>
0

>  <SCORE.heavy>
11

>  <SCORE.norm>
-1.32501

>  <RMSD>
3.209

$$$$

 OpenBabel11021811383D
libRbt.so/2013.1/901 2013/11/27
 11 10  0  0  0  0  0  0  0  0999 V2000
   -4.2735   -1.8160    2.5773 N   0  3  0  0  0  0  0  0  0  0  0  0
   -4.2513   -2.4343    1.2176 C   0  0  2  0  0  0  0  0  0  0  0  0
   -5.1360   -3.6924    1.2047 C   0  0  0  0  0  0  0  0  0  0  0  0
   -6.0530   -3.7981    0.4121 O   0  0  0  0  0  0  0  0  0  0  0  0
   -2.8079   -2.8067    0.8534 C   0  0  0  0  0  0  0  0  0  0  0  0
   -2.7457   -3.2498   -0.6111 C   0  0  0  0  0  0  0  0  0  0  0  0
   -3.2241   -2.1113   -1.5096 C   0  0  0  0  0  0  0  0  0  0  0  0
   -3.1407   -2.5447   -2.9312 N   0  3  0  0  0  0  0  0  0  0  0  0
   -4.2232   -2.8790   -3.5788 C   0  0  0  0  0  0  0  0  0  0  0  0
   -4.5991   -2.1816   -4.6195 N   0  0  0  0  0  0  0  0  0  0  0  0
   -4.9239   -3.9128   -3.1904 N   0  0  0  0  0  0  0  0  0  0  0  0
  2  1  1  1  0  0  0
  2  3  1  0  0  0  0
  2  5  1  0  0  0  0
  3  4  2  0  0  0  0
  5  6  1  0  0  0  0
  6  7  1  0  0  0  0
  7  8  1  0  0  0  0
  8  9  2  0  0  0  0
  9 10  1  0  0  0  0
  9 11  1  0  0  0  0
M  CHG  2   1   1   8   1
M  END
>  <CHROM.1>
57.87555085,123.38041951,-171.77866724,59.69012619,179.16647932,103.91613637
-4.15296743,-2.84804968,-0.92308211,-1.59975365,-0.45546327,-1.59991794

>  <Name>


>  <RI>
0

>  <Rbt.Current_Directory>
/home/itssahil/PROJECTS/Mol_Feturizer/New_Systems/rnas/1aju

>  <Rbt.Executable>
rbdock ($Id: //depot/dev/client3/rdock/2013.1/src/exe/rbdock.cxx#4 $)

>  <Rbt.Library>
libRbt.so (2013.1, Build901 2013/11/27)

>  <Rbt.Parameter_File>
/export/apps/rDock/src/rDock_2013.1_src/data/scripts/dock_solv.prm

>  <Rbt.Receptor>
prm/pocket_docking_7.prm

>  <SCORE>
-21.1859

>  <SCORE.INTER>
-18.6436

>  <SCORE.INTER.CONST>
1

>  <SCORE.INTER.POLAR>
-3.39228

>  <SCORE.INTER.ROT>
5

>  <SCORE.INTER.SOLV>
15.2509

>  <SCORE.INTER.VDW>
-13.1385

>  <SCORE.INTER.norm>
-1.69488

>  <SCORE.INTRA>
-2.5423

>  <SCORE.INTRA.DIHEDRAL>
-6.71876

>  <SCORE.INTRA.DIHEDRAL.0>
9.90185

>  <SCORE.INTRA.POLAR>
0

>  <SCORE.INTRA.POLAR.0>
0

>  <SCORE.INTRA.REPUL>
0

>  <SCORE.INTRA.REPUL.0>
0

>  <SCORE.INTRA.SOLV>
0.841215

>  <SCORE.INTRA.SOLV.lig_0>
-53.6586

>  <SCORE.INTRA.VDW>
0.396469

>  <SCORE.INTRA.VDW.0>
-0.556525

>  <SCORE.INTRA.norm>
-0.231118

>  <SCORE.RESTR>
0

>  <SCORE.RESTR.CAVITY>
0

>  <SCORE.RESTR.norm>
0

>  <SCORE.SYSTEM>
0

>  <SCORE.SYSTEM.CONST>
0

>  <SCORE.SYSTEM.DIHEDRAL>
0

>  <SCORE.SYSTEM.SOLV>
0

>  <SCORE.SYSTEM.norm>
0

>  <SCORE.heavy>
11

>  <SCORE.norm>
-1.92599

>  <RMSD>
3.213

$$$$

 OpenBabel11021811383D
libRbt.so/2013.1/901 2013/11/27
 11 10  0  0  0  0  0  0  0  0999 V2000
   -4.9421   -3.2567    2.7525 N   0  3  0  0  0  0  0  0  0  0  0  0
   -3.9586   -3.5077    1.6564 C   0  0  2  0  0  0  0  0  0  0  0  0
   -3.1009   -2.2511    1.4306 C   0  0  0  0  0  0  0  0  0  0  0  0
   -2.8921   -1.8361    0.3060 O   0  0  0  0  0  0  0  0  0  0  0  0
   -4.7139   -3.8631    0.3688 C   0  0  0  0  0  0  0  0  0  0  0  0
   -3.7467   -4.4952   -0.6361 C   0  0  0  0  0  0  0  0  0  0  0  0
   -4.4773   -4.7591   -1.9511 C   0  0  0  0  0  0  0  0  0  0  0  0
   -4.9002   -3.4602   -2.5426 N   0  3  0  0  0  0  0  0  0  0  0  0
   -4.0603   -2.7605   -3.2552 C   0  0  0  0  0  0  0  0  0  0  0  0
   -4.3108   -2.5354   -4.5191 N   0  0  0  0  0  0  0  0  0  0  0  0
   -2.9760   -2.2810   -2.7029 N   0  0  0  0  0  0  0  0  0  0  0  0
  2  1  1  1  0  0  0
  2  3  1  0  0  0  0
  2  5  1  0  0  0  0
  3  4  2  0  0  0  0
  5  6  1  0  0  0  0
  6  7  1  0  0  0  0
  7  8  1  0  0  0  0
  8  9  2  0  0  0  0
  9 10  1  0  0  0  0
  9 11  1  0  0  0  0
M  CHG  2   1   1   8   1
M  END
>  <CHROM.1>
56.23388099,-133.91636454,-164.27226260,-176.09158567,64.16002807,83.34522177
-4.01887909,-3.15214472,-0.82250886,1.58184697,0.92386469,1.60028993

>  <Name>


>  <RI>
0

>  <Rbt.Current_Directory>
/home/itssahil/PROJECTS/Mol_Feturizer/New_Systems/rnas/1aju

>  <Rbt.Executable>
rbdock ($Id: //depot/dev/client3/rdock/2013.1/src/exe/rbdock.cxx#4 $)

>  <Rbt.Library>
libRbt.so (2013.1, Build901 2013/11/27)

>  <Rbt.Parameter_File>
/export/apps/rDock/src/rDock_2013.1_src/data/scripts/dock_solv.prm

>  <Rbt.Receptor>
prm/pocket_docking_7.prm

>  <SCORE>
-23.784

>  <SCORE.INTER>
-19.3219

>  <SCORE.INTER.CONST>
1

>  <SCORE.INTER.POLAR>
-3.80367

>  <SCORE.INTER.ROT>
5

>  <SCORE.INTER.SOLV>
14.4978

>  <SCORE.INTER.VDW>
-11.9683

>  <SCORE.INTER.norm>
-1.75654

>  <SCORE.INTRA>
-4.46208

>  <SCORE.INTRA.DIHEDRAL>
-5.67218

>  <SCORE.INTRA.DIHEDRAL.0>
9.90185

>  <SCORE.INTRA.POLAR>
-1.08333

>  <SCORE.INTRA.POLAR.0>
0

>  <SCORE.INTRA.REPUL>
0

>  <SCORE.INTRA.REPUL.0>
0

>  <SCORE.INTRA.SOLV>
2.3991

>  <SCORE.INTRA.SOLV.lig_0>
-53.6586

>  <SCORE.INTRA.VDW>
0.857796

>  <SCORE.INTRA.VDW.0>
-0.556525

>  <SCORE.INTRA.norm>
-0.405643

>  <SCORE.RESTR>
0

>  <SCORE.RESTR.CAVITY>
0

>  <SCORE.RESTR.norm>
0

>  <SCORE.SYSTEM>
0

>  <SCORE.SYSTEM.CONST>
0

>  <SCORE.SYSTEM.DIHEDRAL>
0

>  <SCORE.SYSTEM.SOLV>
0

>  <SCORE.SYSTEM.norm>
0

>  <SCORE.heavy>
11

>  <SCORE.norm>
-2.16218

>  <RMSD>
3.253

$$$$

 OpenBabel11021811383D
libRbt.so/2013.1/901 2013/11/27
 11 10  0  0  0  0  0  0  0  0999 V2000
   -5.8717   -4.1523    2.3704 N   0  3  0  0  0  0  0  0  0  0  0  0
   -4.6066   -4.1764    1.5763 C   0  0  2  0  0  0  0  0  0  0  0  0
   -3.4004   -4.0103    2.5161 C   0  0  0  0  0  0  0  0  0  0  0  0
   -3.5614   -3.8739    3.7143 O   0  0  0  0  0  0  0  0  0  0  0  0
   -4.6303   -3.0358    0.5501 C   0  0  0  0  0  0  0  0  0  0  0  0
   -3.6343   -3.3353   -0.5738 C   0  0  0  0  0  0  0  0  0  0  0  0
   -3.4709   -2.0981   -1.4543 C   0  0  0  0  0  0  0  0  0  0  0  0
   -3.2867   -2.5270   -2.8678 N   0  3  0  0  0  0  0  0  0  0  0  0
   -4.3204   -2.8577   -3.5921 C   0  0  0  0  0  0  0  0  0  0  0  0
   -4.6204   -2.1565   -4.6547 N   0  0  0  0  0  0  0  0  0  0  0  0
   -5.0482   -3.8919   -3.2582 N   0  0  0  0  0  0  0  0  0  0  0  0
  2  1  1  1  0  0  0
  2  3  1  0  0  0  0
  2  5  1  0  0  0  0
  3  4  2  0  0  0  0
  5  6  1  0  0  0  0
  6  7  1  0  0  0  0
  7  8  1  0  0  0  0
  8  9  2  0  0  0  0
  9 10  1  0  0  0  0
  9 11  1  0  0  0  0
M  CHG  2   1   1   8   1
M  END
>  <CHROM.1>
-44.70788067,-0.60855828,-159.58141946,-169.81894157,-144.42859339,80.53407016
-4.26139361,-3.29248751,-0.50583354,1.57794758,0.43402178,1.76733920

>  <Name>


>  <RI>
0

>  <Rbt.Current_Directory>
/home/itssahil/PROJECTS/Mol_Feturizer/New_Systems/rnas/1aju

>  <Rbt.Executable>
rbdock ($Id: //depot/dev/client3/rdock/2013.1/src/exe/rbdock.cxx#4 $)

>  <Rbt.Library>
libRbt.so (2013.1, Build901 2013/11/27)

>  <Rbt.Parameter_File>
/export/apps/rDock/src/rDock_2013.1_src/data/scripts/dock_solv.prm

>  <Rbt.Receptor>
prm/pocket_docking_7.prm

>  <SCORE>
-16.4239

>  <SCORE.INTER>
-17.2405

>  <SCORE.INTER.CONST>
1

>  <SCORE.INTER.POLAR>
-3.38106

>  <SCORE.INTER.ROT>
5

>  <SCORE.INTER.SOLV>
15.4186

>  <SCORE.INTER.VDW>
-12.2963

>  <SCORE.INTER.norm>
-1.56732

>  <SCORE.INTRA>
0.816545

>  <SCORE.INTRA.DIHEDRAL>
-1.13312

>  <SCORE.INTRA.DIHEDRAL.0>
9.90185

>  <SCORE.INTRA.POLAR>
0

>  <SCORE.INTRA.POLAR.0>
0

>  <SCORE.INTRA.REPUL>
0

>  <SCORE.INTRA.REPUL.0>
0

>  <SCORE.INTRA.SOLV>
1.80449

>  <SCORE.INTRA.SOLV.lig_0>
-53.6586

>  <SCORE.INTRA.VDW>
0.48086

>  <SCORE.INTRA.VDW.0>
-0.556525

>  <SCORE.INTRA.norm>
0.0742314

>  <SCORE.RESTR>
0

>  <SCORE.RESTR.CAVITY>
0

>  <SCORE.RESTR.norm>
0

>  <SCORE.SYSTEM>
0

>  <SCORE.SYSTEM.CONST>
0

>  <SCORE.SYSTEM.DIHEDRAL>
0

>  <SCORE.SYSTEM.SOLV>
0

>  <SCORE.SYSTEM.norm>
0

>  <SCORE.heavy>
11

>  <SCORE.norm>
-1.49309

>  <RMSD>
3.256

$$$$

 OpenBabel11021811383D
libRbt.so/2013.1/901 2013/11/27
 11 10  0  0  0  0  0  0  0  0999 V2000
   -4.3613   -0.2914    2.0055 N   0  3  0  0  0  0  0  0  0  0  0  0
   -3.0853   -1.0673    1.9699 C   0  0  2  0  0  0  0  0  0  0  0  0
   -1.9191   -0.1699    2.4177 C   0  0  0  0  0  0  0  0  0  0  0  0
   -1.1517   -0.5374    3.2874 O   0  0  0  0  0  0  0  0  0  0  0  0
   -2.8380   -1.5716    0.5419 C   0  0  0  0  0  0  0  0  0  0  0  0
   -3.4390   -2.9708    0.3801 C   0  0  0  0  0  0  0  0  0  0  0  0
   -3.3606   -3.3936   -1.0854 C   0  0  0  0  0  0  0  0  0  0  0  0
   -4.4861   -2.7692   -1.8334 N   0  3  0  0  0  0  0  0  0  0  0  0
   -4.4264   -2.6555   -3.1320 C   0  0  0  0  0  0  0  0  0  0  0  0
   -5.2962   -3.2839   -3.8799 N   0  0  0  0  0  0  0  0  0  0  0  0
   -3.5032   -1.9090   -3.6807 N   0  0  0  0  0  0  0  0  0  0  0  0
  2  1  1  6  0  0  0
  2  3  1  0  0  0  0
  2  5  1  0  0  0  0
  3  4  2  0  0  0  0
  5  6  1  0  0  0  0
  6  7  1  0  0  0  0
  7  8  1  0  0  0  0
  8  9  2  0  0  0  0
  9 10  1  0  0  0  0
  9 11  1  0  0  0  0
M  CHG  2   1   1   8   1
M  END
>  <CHROM.1>
-163.98471206,128.71943982,-92.00233345,172.40538537,-80.77399075,160.17613566
-3.47158238,-1.85182847,-0.28204487,1.24341827,-0.02457923,1.19087924

>  <Name>


>  <RI>
0

>  <Rbt.Current_Directory>
/home/itssahil/PROJECTS/Mol_Feturizer/New_Systems/rnas/1aju

>  <Rbt.Executable>
rbdock ($Id: //depot/dev/client3/rdock/2013.1/src/exe/rbdock.cxx#4 $)

>  <Rbt.Library>
libRbt.so (2013.1, Build901 2013/11/27)

>  <Rbt.Parameter_File>
/export/apps/rDock/src/rDock_2013.1_src/data/scripts/dock_solv.prm

>  <Rbt.Receptor>
prm/pocket_docking_6.prm

>  <SCORE>
-23.4378

>  <SCORE.INTER>
-22.6913

>  <SCORE.INTER.CONST>
1

>  <SCORE.INTER.POLAR>
-4.53864

>  <SCORE.INTER.ROT>
5

>  <SCORE.INTER.SOLV>
18.1238

>  <SCORE.INTER.VDW>
-12.9733

>  <SCORE.INTER.norm>
-2.06285

>  <SCORE.INTRA>
-0.74646

>  <SCORE.INTRA.DIHEDRAL>
-1.61738

>  <SCORE.INTRA.DIHEDRAL.0>
9.90185

>  <SCORE.INTRA.POLAR>
0

>  <SCORE.INTRA.POLAR.0>
0

>  <SCORE.INTRA.REPUL>
0

>  <SCORE.INTRA.REPUL.0>
0

>  <SCORE.INTRA.SOLV>
0.920066

>  <SCORE.INTRA.SOLV.lig_0>
-53.6586

>  <SCORE.INTRA.VDW>
-0.397804

>  <SCORE.INTRA.VDW.0>
-0.556525

>  <SCORE.INTRA.norm>
-0.06786

>  <SCORE.RESTR>
0

>  <SCORE.RESTR.CAVITY>
0

>  <SCORE.RESTR.norm>
0

>  <SCORE.SYSTEM>
0

>  <SCORE.SYSTEM.CONST>
0

>  <SCORE.SYSTEM.DIHEDRAL>
0

>  <SCORE.SYSTEM.SOLV>
0

>  <SCORE.SYSTEM.norm>
0

>  <SCORE.heavy>
11

>  <SCORE.norm>
-2.13071

>  <RMSD>
3.290

$$$$

 OpenBabel11021811383D
libRbt.so/2013.1/901 2013/11/27
 11 10  0  0  0  0  0  0  0  0999 V2000
   -4.9869   -3.2645    2.7901 N   0  3  0  0  0  0  0  0  0  0  0  0
   -4.0019   -3.4558    1.6835 C   0  0  2  0  0  0  0  0  0  0  0  0
   -3.2098   -2.1559    1.4628 C   0  0  0  0  0  0  0  0  0  0  0  0
   -2.9520   -1.7697    0.3382 O   0  0  0  0  0  0  0  0  0  0  0  0
   -4.7500   -3.8363    0.3988 C   0  0  0  0  0  0  0  0  0  0  0  0
   -3.7744   -4.4751   -0.5937 C   0  0  0  0  0  0  0  0  0  0  0  0
   -4.4993   -4.7675   -1.9057 C   0  0  0  0  0  0  0  0  0  0  0  0
   -4.9327   -3.4826   -2.5197 N   0  3  0  0  0  0  0  0  0  0  0  0
   -4.0935   -2.7802   -3.2304 C   0  0  0  0  0  0  0  0  0  0  0  0
   -4.3304   -2.5750   -4.5003 N   0  0  0  0  0  0  0  0  0  0  0  0
   -3.0235   -2.2781   -2.6703 N   0  0  0  0  0  0  0  0  0  0  0  0
  2  1  1  1  0  0  0
  2  3  1  0  0  0  0
  2  5  1  0  0  0  0
  3  4  2  0  0  0  0
  5  6  1  0  0  0  0
  6  7  1  0  0  0  0
  7  8  1  0  0  0  0
  8  9  2  0  0  0  0
  9 10  1  0  0  0  0
  9 11  1  0  0  0  0
M  CHG  2   1   1   8   1
M  END
>  <CHROM.1>
-59.54330597,-139.05824536,-161.42760079,-176.23335805,64.20026842,82.63499267
-4.06180202,-3.13859224,-0.79106113,1.59023735,0.94560522,1.58141809

>  <Name>


>  <RI>
0

>  <Rbt.Current_Directory>
/home/itssahil/PROJECTS/Mol_Feturizer/New_Systems/rnas/1aju

>  <Rbt.Executable>
rbdock ($Id: //depot/dev/client3/rdock/2013.1/src/exe/rbdock.cxx#4 $)

>  <Rbt.Library>
libRbt.so (2013.1, Build901 2013/11/27)

>  <Rbt.Parameter_File>
/export/apps/rDock/src/rDock_2013.1_src/data/scripts/dock_solv.prm

>  <Rbt.Receptor>
prm/pocket_docking_8.prm

>  <SCORE>
-23.8016

>  <SCORE.INTER>
-19.4588

>  <SCORE.INTER.CONST>
1

>  <SCORE.INTER.POLAR>
-3.81142

>  <SCORE.INTER.ROT>
5

>  <SCORE.INTER.SOLV>
14.5144

>  <SCORE.INTER.VDW>
-12.0393

>  <SCORE.INTER.norm>
-1.76898

>  <SCORE.INTRA>
-4.3428

>  <SCORE.INTRA.DIHEDRAL>
-5.13203

>  <SCORE.INTRA.DIHEDRAL.0>
9.90185

>  <SCORE.INTRA.POLAR>
-1.08333

>  <SCORE.INTRA.POLAR.0>
0

>  <SCORE.INTRA.REPUL>
0

>  <SCORE.INTRA.REPUL.0>
0

>  <SCORE.INTRA.SOLV>
2.37398

>  <SCORE.INTRA.SOLV.lig_0>
-53.6586

>  <SCORE.INTRA.VDW>
0.719562

>  <SCORE.INTRA.VDW.0>
-0.556525

>  <SCORE.INTRA.norm>
-0.3948

>  <SCORE.RESTR>
0

>  <SCORE.RESTR.CAVITY>
0

>  <SCORE.RESTR.norm>
0

>  <SCORE.SYSTEM>
0

>  <SCORE.SYSTEM.CONST>
0

>  <SCORE.SYSTEM.DIHEDRAL>
0

>  <SCORE.SYSTEM.SOLV>
0

>  <SCORE.SYSTEM.norm>
0

>  <SCORE.heavy>
11

>  <SCORE.norm>
-2.16378

>  <RMSD>
3.295

$$$$

 OpenBabel11021811383D
libRbt.so/2013.1/901 2013/11/27
 11 10  0  0  0  0  0  0  0  0999 V2000
   -4.7413   -2.9068    2.6602 N   0  3  0  0  0  0  0  0  0  0  0  0
   -4.9769   -4.1227    1.8249 C   0  0  2  0  0  0  0  0  0  0  0  0
   -4.0891   -5.2754    2.3239 C   0  0  0  0  0  0  0  0  0  0  0  0
   -3.1201   -5.6350    1.6820 O   0  0  0  0  0  0  0  0  0  0  0  0
   -4.6456   -3.8041    0.3608 C   0  0  0  0  0  0  0  0  0  0  0  0
   -5.2111   -4.9021   -0.5444 C   0  0  0  0  0  0  0  0  0  0  0  0
   -4.5882   -4.7890   -1.9342 C   0  0  0  0  0  0  0  0  0  0  0  0
   -4.9700   -3.4812   -2.5342 N   0  3  0  0  0  0  0  0  0  0  0  0
   -4.1047   -2.8072   -3.2411 C   0  0  0  0  0  0  0  0  0  0  0  0
   -4.3370   -2.5800   -4.5081 N   0  0  0  0  0  0  0  0  0  0  0  0
   -3.0131   -2.3554   -2.6801 N   0  0  0  0  0  0  0  0  0  0  0  0
  2  1  1  1  0  0  0
  2  3  1  0  0  0  0
  2  5  1  0  0  0  0
  3  4  2  0  0  0  0
  5  6  1  0  0  0  0
  6  7  1  0  0  0  0
  7  8  1  0  0  0  0
  8  9  2  0  0  0  0
  9 10  1  0  0  0  0
  9 11  1  0  0  0  0
M  CHG  2   1   1   8   1
M  END
>  <CHROM.1>
-176.36943823,-107.07735437,-165.68891056,-165.49280224,-62.85671838,141.25633892
-4.32594433,-3.83621133,-0.59577023,2.37075564,-1.53888184,2.64637903

>  <Name>


>  <RI>
0

>  <Rbt.Current_Directory>
/home/itssahil/PROJECTS/Mol_Feturizer/New_Systems/rnas/1aju

>  <Rbt.Executable>
rbdock ($Id: //depot/dev/client3/rdock/2013.1/src/exe/rbdock.cxx#4 $)

>  <Rbt.Library>
libRbt.so (2013.1, Build901 2013/11/27)

>  <Rbt.Parameter_File>
/export/apps/rDock/src/rDock_2013.1_src/data/scripts/dock_solv.prm

>  <Rbt.Receptor>
prm/pocket_docking_8.prm

>  <SCORE>
-19.7323

>  <SCORE.INTER>
-18.5117

>  <SCORE.INTER.CONST>
1

>  <SCORE.INTER.POLAR>
-3.87745

>  <SCORE.INTER.ROT>
5

>  <SCORE.INTER.SOLV>
14.287

>  <SCORE.INTER.VDW>
-11.112

>  <SCORE.INTER.norm>
-1.68288

>  <SCORE.INTRA>
-1.22052

>  <SCORE.INTRA.DIHEDRAL>
-5.00299

>  <SCORE.INTRA.DIHEDRAL.0>
9.90185

>  <SCORE.INTRA.POLAR>
0

>  <SCORE.INTRA.POLAR.0>
0

>  <SCORE.INTRA.REPUL>
0

>  <SCORE.INTRA.REPUL.0>
0

>  <SCORE.INTRA.SOLV>
1.07161

>  <SCORE.INTRA.SOLV.lig_0>
-53.6586

>  <SCORE.INTRA.VDW>
0.745171

>  <SCORE.INTRA.VDW.0>
-0.556525

>  <SCORE.INTRA.norm>
-0.110957

>  <SCORE.RESTR>
0

>  <SCORE.RESTR.CAVITY>
0

>  <SCORE.RESTR.norm>
0

>  <SCORE.SYSTEM>
0

>  <SCORE.SYSTEM.CONST>
0

>  <SCORE.SYSTEM.DIHEDRAL>
0

>  <SCORE.SYSTEM.SOLV>
0

>  <SCORE.SYSTEM.norm>
0

>  <SCORE.heavy>
11

>  <SCORE.norm>
-1.79384

>  <RMSD>
3.316

$$$$

 OpenBabel11021811383D
libRbt.so/2013.1/901 2013/11/27
 11 10  0  0  0  0  0  0  0  0999 V2000
   -2.6589   -2.5547    2.8392 N   0  3  0  0  0  0  0  0  0  0  0  0
   -3.1633   -2.0093    1.5432 C   0  0  2  0  0  0  0  0  0  0  0  0
   -4.0632   -0.7903    1.8079 C   0  0  0  0  0  0  0  0  0  0  0  0
   -4.2291   -0.3755    2.9395 O   0  0  0  0  0  0  0  0  0  0  0  0
   -3.9596   -3.0974    0.8107 C   0  0  0  0  0  0  0  0  0  0  0  0
   -3.3108   -3.3828   -0.5467 C   0  0  0  0  0  0  0  0  0  0  0  0
   -3.4261   -2.1475   -1.4373 C   0  0  0  0  0  0  0  0  0  0  0  0
   -3.2764   -2.5573   -2.8606 N   0  3  0  0  0  0  0  0  0  0  0  0
   -4.3284   -2.8706   -3.5661 C   0  0  0  0  0  0  0  0  0  0  0  0
   -4.6470   -2.1522   -4.6117 N   0  0  0  0  0  0  0  0  0  0  0  0
   -5.0559   -3.9045   -3.2307 N   0  0  0  0  0  0  0  0  0  0  0  0
  2  1  1  1  0  0  0
  2  3  1  0  0  0  0
  2  5  1  0  0  0  0
  3  4  2  0  0  0  0
  5  6  1  0  0  0  0
  6  7  1  0  0  0  0
  7  8  1  0  0  0  0
  8  9  2  0  0  0  0
  9 10  1  0  0  0  0
  9 11  1  0  0  0  0
M  CHG  2   1   1   8   1
M  END
>  <CHROM.1>
60.26585943,2.85791055,-120.18759103,-65.50525052,-159.10404581,91.23736281
-3.82761111,-2.35651750,-0.55512576,-1.20635412,1.17679217,-2.11572708

>  <Name>


>  <RI>
0

>  <Rbt.Current_Directory>
/home/itssahil/PROJECTS/Mol_Feturizer/New_Systems/rnas/1aju

>  <Rbt.Executable>
rbdock ($Id: //depot/dev/client3/rdock/2013.1/src/exe/rbdock.cxx#4 $)

>  <Rbt.Library>
libRbt.so (2013.1, Build901 2013/11/27)

>  <Rbt.Parameter_File>
/export/apps/rDock/src/rDock_2013.1_src/data/scripts/dock_solv.prm

>  <Rbt.Receptor>
prm/pocket_docking_6.prm

>  <SCORE>
-13.0691

>  <SCORE.INTER>
-14.1013

>  <SCORE.INTER.CONST>
1

>  <SCORE.INTER.POLAR>
-2.44188

>  <SCORE.INTER.ROT>
5

>  <SCORE.INTER.SOLV>
12.7462

>  <SCORE.INTER.VDW>
-12.4434

>  <SCORE.INTER.norm>
-1.28194

>  <SCORE.INTRA>
1.02056

>  <SCORE.INTRA.DIHEDRAL>
-0.236294

>  <SCORE.INTRA.DIHEDRAL.0>
9.90185

>  <SCORE.INTRA.POLAR>
0

>  <SCORE.INTRA.POLAR.0>
0

>  <SCORE.INTRA.REPUL>
0

>  <SCORE.INTRA.REPUL.0>
0

>  <SCORE.INTRA.SOLV>
1.84984

>  <SCORE.INTRA.SOLV.lig_0>
-53.6586

>  <SCORE.INTRA.VDW>
0.213784

>  <SCORE.INTRA.VDW.0>
-0.556525

>  <SCORE.INTRA.norm>
0.0927779

>  <SCORE.RESTR>
0.0117111

>  <SCORE.RESTR.CAVITY>
0.0117111

>  <SCORE.RESTR.norm>
0.00106464

>  <SCORE.SYSTEM>
0

>  <SCORE.SYSTEM.CONST>
0

>  <SCORE.SYSTEM.DIHEDRAL>
0

>  <SCORE.SYSTEM.SOLV>
0

>  <SCORE.SYSTEM.norm>
0

>  <SCORE.heavy>
11

>  <SCORE.norm>
-1.1881

>  <RMSD>
3.317

$$$$

 OpenBabel11021811383D
libRbt.so/2013.1/901 2013/11/27
 11 10  0  0  0  0  0  0  0  0999 V2000
   -3.8057   -5.1041    1.8525 N   0  3  0  0  0  0  0  0  0  0  0  0
   -4.0762   -5.4735    0.4306 C   0  0  2  0  0  0  0  0  0  0  0  0
   -2.8610   -5.1118   -0.4401 C   0  0  0  0  0  0  0  0  0  0  0  0
   -2.2629   -5.9718   -1.0590 O   0  0  0  0  0  0  0  0  0  0  0  0
   -5.3164   -4.7166   -0.0630 C   0  0  0  0  0  0  0  0  0  0  0  0
   -5.9373   -5.4641   -1.2464 C   0  0  0  0  0  0  0  0  0  0  0  0
   -5.1271   -5.1822   -2.5100 C   0  0  0  0  0  0  0  0  0  0  0  0
   -5.5588   -3.8787   -3.0848 N   0  3  0  0  0  0  0  0  0  0  0  0
   -4.6763   -2.9539   -3.3470 C   0  0  0  0  0  0  0  0  0  0  0  0
   -4.4960   -2.5591   -4.5809 N   0  0  0  0  0  0  0  0  0  0  0  0
   -3.9809   -2.4203   -2.3763 N   0  0  0  0  0  0  0  0  0  0  0  0
  2  1  1  1  0  0  0
  2  3  1  0  0  0  0
  2  5  1  0  0  0  0
  3  4  2  0  0  0  0
  5  6  1  0  0  0  0
  6  7  1  0  0  0  0
  7  8  1  0  0  0  0
  8  9  2  0  0  0  0
  9 10  1  0  0  0  0
  9 11  1  0  0  0  0
M  CHG  2   1   1   8   1
M  END
>  <CHROM.1>
-58.03643423,119.42961233,-157.07999770,-78.05903574,-82.19870225,126.97677659
-4.34814541,-4.41976553,-1.47596164,1.36514350,0.11998793,2.10188165

>  <Name>


>  <RI>
224

>  <Rbt.Current_Directory>
/home/itssahil/PROJECTS/Mol_Feturizer/New_Systems/rnas/1aju

>  <Rbt.Executable>
rbdock ($Id: //depot/dev/client3/rdock/2013.1/src/exe/rbdock.cxx#4 $)

>  <Rbt.Library>
libRbt.so (2013.1, Build901 2013/11/27)

>  <Rbt.Parameter_File>
/export/apps/rDock/src/rDock_2013.1_src/data/scripts/dock_solv.prm

>  <Rbt.Receptor>
prm/pocket_docking_5.prm

>  <SCORE>
-12.6312

>  <SCORE.INTER>
-11.9101

>  <SCORE.INTER.CONST>
1

>  <SCORE.INTER.POLAR>
-2.63518

>  <SCORE.INTER.ROT>
5

>  <SCORE.INTER.SOLV>
12.7787

>  <SCORE.INTER.VDW>
-10.3491

>  <SCORE.INTER.norm>
-1.08274

>  <SCORE.INTRA>
-0.721081

>  <SCORE.INTRA.DIHEDRAL>
-2.35174

>  <SCORE.INTRA.DIHEDRAL.0>
9.90185

>  <SCORE.INTRA.POLAR>
0

>  <SCORE.INTRA.POLAR.0>
0

>  <SCORE.INTRA.REPUL>
0

>  <SCORE.INTRA.REPUL.0>
0

>  <SCORE.INTRA.SOLV>
1.86271

>  <SCORE.INTRA.SOLV.lig_0>
-53.6586

>  <SCORE.INTRA.VDW>
-0.476565

>  <SCORE.INTRA.VDW.0>
-0.556525

>  <SCORE.INTRA.norm>
-0.0655528

>  <SCORE.RESTR>
0

>  <SCORE.RESTR.CAVITY>
0

>  <SCORE.RESTR.norm>
0

>  <SCORE.SYSTEM>
0

>  <SCORE.SYSTEM.CONST>
0

>  <SCORE.SYSTEM.DIHEDRAL>
0

>  <SCORE.SYSTEM.SOLV>
0

>  <SCORE.SYSTEM.norm>
0

>  <SCORE.heavy>
11

>  <SCORE.norm>
-1.14829

>  <RMSD>
3.332

$$$$

 OpenBabel11021811383D
libRbt.so/2013.1/901 2013/11/27
 11 10  0  0  0  0  0  0  0  0999 V2000
   -4.4776   -0.8925    1.8744 N   0  3  0  0  0  0  0  0  0  0  0  0
   -3.7499   -2.1972    1.8663 C   0  0  2  0  0  0  0  0  0  0  0  0
   -2.2933   -1.9821    2.3111 C   0  0  0  0  0  0  0  0  0  0  0  0
   -2.0074   -1.0929    3.0908 O   0  0  0  0  0  0  0  0  0  0  0  0
   -3.7820   -2.7868    0.4499 C   0  0  0  0  0  0  0  0  0  0  0  0
   -5.1278   -3.4774    0.2115 C   0  0  0  0  0  0  0  0  0  0  0  0
   -5.2460   -3.8709   -1.2595 C   0  0  0  0  0  0  0  0  0  0  0  0
   -5.0865   -2.6551   -2.1034 N   0  3  0  0  0  0  0  0  0  0  0  0
   -4.1856   -2.6262   -3.0470 C   0  0  0  0  0  0  0  0  0  0  0  0
   -4.5560   -2.5015   -4.2952 N   0  0  0  0  0  0  0  0  0  0  0  0
   -2.9169   -2.7146   -2.7419 N   0  0  0  0  0  0  0  0  0  0  0  0
  2  1  1  6  0  0  0
  2  3  1  0  0  0  0
  2  5  1  0  0  0  0
  3  4  2  0  0  0  0
  5  6  1  0  0  0  0
  6  7  1  0  0  0  0
  7  8  1  0  0  0  0
  8  9  2  0  0  0  0
  9 10  1  0  0  0  0
  9 11  1  0  0  0  0
M  CHG  2   1   1   8   1
M  END
>  <CHROM.1>
-51.21450441,30.23361795,-80.66155776,171.21545458,-57.10936781,125.36310147
-3.94707630,-2.38737818,-0.33787422,1.30601198,0.40697122,1.45208035

>  <Name>


>  <RI>
0

>  <Rbt.Current_Directory>
/home/itssahil/PROJECTS/Mol_Feturizer/New_Systems/rnas/1aju

>  <Rbt.Executable>
rbdock ($Id: //depot/dev/client3/rdock/2013.1/src/exe/rbdock.cxx#4 $)

>  <Rbt.Library>
libRbt.so (2013.1, Build901 2013/11/27)

>  <Rbt.Parameter_File>
/export/apps/rDock/src/rDock_2013.1_src/data/scripts/dock_solv.prm

>  <Rbt.Receptor>
prm/pocket_docking_6.prm

>  <SCORE>
-23.3752

>  <SCORE.INTER>
-22.8965

>  <SCORE.INTER.CONST>
1

>  <SCORE.INTER.POLAR>
-4.54352

>  <SCORE.INTER.ROT>
5

>  <SCORE.INTER.SOLV>
17.008

>  <SCORE.INTER.VDW>
-12.7219

>  <SCORE.INTER.norm>
-2.0815

>  <SCORE.INTRA>
-0.478721

>  <SCORE.INTRA.DIHEDRAL>
-3.64912

>  <SCORE.INTRA.DIHEDRAL.0>
9.90185

>  <SCORE.INTRA.POLAR>
0

>  <SCORE.INTRA.POLAR.0>
0

>  <SCORE.INTRA.REPUL>
0

>  <SCORE.INTRA.REPUL.0>
0

>  <SCORE.INTRA.SOLV>
2.8737

>  <SCORE.INTRA.SOLV.lig_0>
-53.6586

>  <SCORE.INTRA.VDW>
-0.0910096

>  <SCORE.INTRA.VDW.0>
-0.556525

>  <SCORE.INTRA.norm>
-0.0435201

>  <SCORE.RESTR>
0

>  <SCORE.RESTR.CAVITY>
0

>  <SCORE.RESTR.norm>
0

>  <SCORE.SYSTEM>
0

>  <SCORE.SYSTEM.CONST>
0

>  <SCORE.SYSTEM.DIHEDRAL>
0

>  <SCORE.SYSTEM.SOLV>
0

>  <SCORE.SYSTEM.norm>
0

>  <SCORE.heavy>
11

>  <SCORE.norm>
-2.12502

>  <RMSD>
3.332

$$$$

 OpenBabel11021811383D
libRbt.so/2013.1/901 2013/11/27
 11 10  0  0  0  0  0  0  0  0999 V2000
   -4.4111   -0.8828    2.6302 N   0  3  0  0  0  0  0  0  0  0  0  0
   -3.3045   -1.6424    1.9743 C   0  0  2  0  0  0  0  0  0  0  0  0
   -2.0065   -0.8189    2.0277 C   0  0  0  0  0  0  0  0  0  0  0  0
   -1.6819   -0.1110    1.0929 O   0  0  0  0  0  0  0  0  0  0  0  0
   -3.6818   -1.9290    0.5147 C   0  0  0  0  0  0  0  0  0  0  0  0
   -4.5438   -3.1928    0.4457 C   0  0  0  0  0  0  0  0  0  0  0  0
   -4.5554   -3.7252   -0.9857 C   0  0  0  0  0  0  0  0  0  0  0  0
   -4.9132   -2.6182   -1.9144 N   0  3  0  0  0  0  0  0  0  0  0  0
   -4.0889   -2.2666   -2.8628 C   0  0  0  0  0  0  0  0  0  0  0  0
   -4.4452   -2.3966   -4.1146 N   0  0  0  0  0  0  0  0  0  0  0  0
   -2.9136   -1.7791   -2.5596 N   0  0  0  0  0  0  0  0  0  0  0  0
  2  1  1  6  0  0  0
  2  3  1  0  0  0  0
  2  5  1  0  0  0  0
  3  4  2  0  0  0  0
  5  6  1  0  0  0  0
  6  7  1  0  0  0  0
  7  8  1  0  0  0  0
  8  9  2  0  0  0  0
  9 10  1  0  0  0  0
  9 11  1  0  0  0  0
M  CHG  2   1   1   8   1
M  END
>  <CHROM.1>
-65.09171152,-94.74343097,-84.29585349,-162.39558940,-51.06361250,120.77735894
-3.69659713,-1.90432318,-0.35084348,1.27203700,0.68098614,1.45659865

>  <Name>


>  <RI>
0

>  <Rbt.Current_Directory>
/home/itssahil/PROJECTS/Mol_Feturizer/New_Systems/rnas/1aju

>  <Rbt.Executable>
rbdock ($Id: //depot/dev/client3/rdock/2013.1/src/exe/rbdock.cxx#4 $)

>  <Rbt.Library>
libRbt.so (2013.1, Build901 2013/11/27)

>  <Rbt.Parameter_File>
/export/apps/rDock/src/rDock_2013.1_src/data/scripts/dock_solv.prm

>  <Rbt.Receptor>
prm/pocket_docking_8.prm

>  <SCORE>
-21.687

>  <SCORE.INTER>
-23.0429

>  <SCORE.INTER.CONST>
1

>  <SCORE.INTER.POLAR>
-4.2187

>  <SCORE.INTER.ROT>
5

>  <SCORE.INTER.SOLV>
17.4507

>  <SCORE.INTER.VDW>
-14.0499

>  <SCORE.INTER.norm>
-2.09481

>  <SCORE.INTRA>
1.35592

>  <SCORE.INTRA.DIHEDRAL>
-2.53376

>  <SCORE.INTRA.DIHEDRAL.0>
9.90185

>  <SCORE.INTRA.POLAR>
0

>  <SCORE.INTRA.POLAR.0>
0

>  <SCORE.INTRA.REPUL>
0

>  <SCORE.INTRA.REPUL.0>
0

>  <SCORE.INTRA.SOLV>
2.55796

>  <SCORE.INTRA.SOLV.lig_0>
-53.6586

>  <SCORE.INTRA.VDW>
1.34382

>  <SCORE.INTRA.VDW.0>
-0.556525

>  <SCORE.INTRA.norm>
0.123265

>  <SCORE.RESTR>
0

>  <SCORE.RESTR.CAVITY>
0

>  <SCORE.RESTR.norm>
0

>  <SCORE.SYSTEM>
0

>  <SCORE.SYSTEM.CONST>
0

>  <SCORE.SYSTEM.DIHEDRAL>
0

>  <SCORE.SYSTEM.SOLV>
0

>  <SCORE.SYSTEM.norm>
0

>  <SCORE.heavy>
11

>  <SCORE.norm>
-1.97155

>  <RMSD>
3.337

$$$$

 OpenBabel11021811383D
libRbt.so/2013.1/901 2013/11/27
 11 10  0  0  0  0  0  0  0  0999 V2000
   -4.4252   -0.9020    1.9579 N   0  3  0  0  0  0  0  0  0  0  0  0
   -4.4160   -2.3596    1.6307 C   0  0  2  0  0  0  0  0  0  0  0  0
   -4.2394   -3.1801    2.9197 C   0  0  0  0  0  0  0  0  0  0  0  0
   -4.2996   -2.6435    4.0100 O   0  0  0  0  0  0  0  0  0  0  0  0
   -3.2632   -2.6545    0.6616 C   0  0  0  0  0  0  0  0  0  0  0  0
   -3.6931   -2.3113   -0.7674 C   0  0  0  0  0  0  0  0  0  0  0  0
   -2.4782   -2.3599   -1.6916 C   0  0  0  0  0  0  0  0  0  0  0  0
   -2.8725   -2.9880   -2.9822 N   0  3  0  0  0  0  0  0  0  0  0  0
   -4.1342   -3.1181   -3.2890 C   0  0  0  0  0  0  0  0  0  0  0  0
   -4.6167   -2.4948   -4.3327 N   0  0  0  0  0  0  0  0  0  0  0  0
   -4.9097   -3.8758   -2.5574 N   0  0  0  0  0  0  0  0  0  0  0  0
  2  1  1  1  0  0  0
  2  3  1  0  0  0  0
  2  5  1  0  0  0  0
  3  4  2  0  0  0  0
  5  6  1  0  0  0  0
  6  7  1  0  0  0  0
  7  8  1  0  0  0  0
  8  9  2  0  0  0  0
  9 10  1  0  0  0  0
  9 11  1  0  0  0  0
M  CHG  2   1   1   8   1
M  END
>  <CHROM.1>
44.95559163,9.26000516,-81.79759012,169.74208531,139.73721548,15.34758885
-3.96251848,-2.59841561,-0.39817399,-1.62011248,-0.56978580,-1.69893042

>  <Name>


>  <RI>
0

>  <Rbt.Current_Directory>
/home/itssahil/PROJECTS/Mol_Feturizer/New_Systems/rnas/1aju

>  <Rbt.Executable>
rbdock ($Id: //depot/dev/client3/rdock/2013.1/src/exe/rbdock.cxx#4 $)

>  <Rbt.Library>
libRbt.so (2013.1, Build901 2013/11/27)

>  <Rbt.Parameter_File>
/export/apps/rDock/src/rDock_2013.1_src/data/scripts/dock_solv.prm

>  <Rbt.Receptor>
prm/pocket_docking_8.prm

>  <SCORE>
-12.708

>  <SCORE.INTER>
-18.025

>  <SCORE.INTER.CONST>
1

>  <SCORE.INTER.POLAR>
-3.27783

>  <SCORE.INTER.ROT>
5

>  <SCORE.INTER.SOLV>
14.7067

>  <SCORE.INTER.VDW>
-12.9261

>  <SCORE.INTER.norm>
-1.63863

>  <SCORE.INTRA>
5.31702

>  <SCORE.INTRA.DIHEDRAL>
-0.130088

>  <SCORE.INTRA.DIHEDRAL.0>
9.90185

>  <SCORE.INTRA.POLAR>
0

>  <SCORE.INTRA.POLAR.0>
0

>  <SCORE.INTRA.REPUL>
0

>  <SCORE.INTRA.REPUL.0>
0

>  <SCORE.INTRA.SOLV>
3.08802

>  <SCORE.INTRA.SOLV.lig_0>
-53.6586

>  <SCORE.INTRA.VDW>
3.83805

>  <SCORE.INTRA.VDW.0>
-0.556525

>  <SCORE.INTRA.norm>
0.483365

>  <SCORE.RESTR>
0

>  <SCORE.RESTR.CAVITY>
0

>  <SCORE.RESTR.norm>
0

>  <SCORE.SYSTEM>
0

>  <SCORE.SYSTEM.CONST>
0

>  <SCORE.SYSTEM.DIHEDRAL>
0

>  <SCORE.SYSTEM.SOLV>
0

>  <SCORE.SYSTEM.norm>
0

>  <SCORE.heavy>
11

>  <SCORE.norm>
-1.15527

>  <RMSD>
3.346

$$$$

 OpenBabel11021811383D
libRbt.so/2013.1/901 2013/11/27
 11 10  0  0  0  0  0  0  0  0999 V2000
   -1.1443   -0.2726    1.4423 N   0  3  0  0  0  0  0  0  0  0  0  0
   -2.5067   -0.7879    1.1109 C   0  0  2  0  0  0  0  0  0  0  0  0
   -3.4647   -0.5139    2.2826 C   0  0  0  0  0  0  0  0  0  0  0  0
   -4.4504    0.1825    2.1284 O   0  0  0  0  0  0  0  0  0  0  0  0
   -2.4269   -2.2968    0.8432 C   0  0  0  0  0  0  0  0  0  0  0  0
   -2.1920   -2.5418   -0.6500 C   0  0  0  0  0  0  0  0  0  0  0  0
   -3.4239   -2.1034   -1.4392 C   0  0  0  0  0  0  0  0  0  0  0  0
   -3.2484   -2.4842   -2.8675 N   0  3  0  0  0  0  0  0  0  0  0  0
   -4.2782   -2.8548   -3.5780 C   0  0  0  0  0  0  0  0  0  0  0  0
   -4.6420   -2.1446   -4.6144 N   0  0  0  0  0  0  0  0  0  0  0  0
   -4.9382   -3.9374   -3.2568 N   0  0  0  0  0  0  0  0  0  0  0  0
  2  1  1  1  0  0  0
  2  3  1  0  0  0  0
  2  5  1  0  0  0  0
  3  4  2  0  0  0  0
  5  6  1  0  0  0  0
  6  7  1  0  0  0  0
  7  8  1  0  0  0  0
  8  9  2  0  0  0  0
  9 10  1  0  0  0  0
  9 11  1  0  0  0  0
M  CHG  2   1   1   8   1
M  END
>  <CHROM.1>
178.38612570,119.39272765,-91.33626439,-67.05713911,-173.73585562,145.32930057
-3.33188658,-1.77864386,-0.79621549,-1.29432011,0.21782090,-2.04662393

>  <Name>


>  <RI>
0

>  <Rbt.Current_Directory>
/home/itssahil/PROJECTS/Mol_Feturizer/New_Systems/rnas/1aju

>  <Rbt.Executable>
rbdock ($Id: //depot/dev/client3/rdock/2013.1/src/exe/rbdock.cxx#4 $)

>  <Rbt.Library>
libRbt.so (2013.1, Build901 2013/11/27)

>  <Rbt.Parameter_File>
/export/apps/rDock/src/rDock_2013.1_src/data/scripts/dock_solv.prm

>  <Rbt.Receptor>
prm/pocket_docking_6.prm

>  <SCORE>
-16.8814

>  <SCORE.INTER>
-15.4298

>  <SCORE.INTER.CONST>
1

>  <SCORE.INTER.POLAR>
-2.53263

>  <SCORE.INTER.ROT>
5

>  <SCORE.INTER.SOLV>
15.6133

>  <SCORE.INTER.VDW>
-13.9822

>  <SCORE.INTER.norm>
-1.40271

>  <SCORE.INTRA>
-1.46604

>  <SCORE.INTRA.DIHEDRAL>
-3.80292

>  <SCORE.INTRA.DIHEDRAL.0>
9.90185

>  <SCORE.INTRA.POLAR>
0

>  <SCORE.INTRA.POLAR.0>
0

>  <SCORE.INTRA.REPUL>
0

>  <SCORE.INTRA.REPUL.0>
0

>  <SCORE.INTRA.SOLV>
0.854075

>  <SCORE.INTRA.SOLV.lig_0>
-53.6586

>  <SCORE.INTRA.VDW>
0.00838261

>  <SCORE.INTRA.VDW.0>
-0.556525

>  <SCORE.INTRA.norm>
-0.133276

>  <SCORE.RESTR>
0.0144097

>  <SCORE.RESTR.CAVITY>
0.0144097

>  <SCORE.RESTR.norm>
0.00130997

>  <SCORE.SYSTEM>
0

>  <SCORE.SYSTEM.CONST>
0

>  <SCORE.SYSTEM.DIHEDRAL>
0

>  <SCORE.SYSTEM.SOLV>
0

>  <SCORE.SYSTEM.norm>
0

>  <SCORE.heavy>
11

>  <SCORE.norm>
-1.53467

>  <RMSD>
3.348

$$$$

 OpenBabel11021811383D
libRbt.so/2013.1/901 2013/11/27
 11 10  0  0  0  0  0  0  0  0999 V2000
   -4.8887   -3.5985    1.8929 N   0  3  0  0  0  0  0  0  0  0  0  0
   -3.6555   -2.7631    2.0066 C   0  0  2  0  0  0  0  0  0  0  0  0
   -3.6267   -2.0636    3.3761 C   0  0  0  0  0  0  0  0  0  0  0  0
   -3.5573   -0.8513    3.4524 O   0  0  0  0  0  0  0  0  0  0  0  0
   -3.6471   -1.7161    0.8848 C   0  0  0  0  0  0  0  0  0  0  0  0
   -2.7235   -2.1810   -0.2447 C   0  0  0  0  0  0  0  0  0  0  0  0
   -3.4125   -3.2832   -1.0465 C   0  0  0  0  0  0  0  0  0  0  0  0
   -4.5229   -2.6875   -1.8391 N   0  3  0  0  0  0  0  0  0  0  0  0
   -4.4416   -2.6301   -3.1402 C   0  0  0  0  0  0  0  0  0  0  0  0
   -5.3020   -3.2869   -3.8744 N   0  0  0  0  0  0  0  0  0  0  0  0
   -3.5063   -1.9115   -3.7054 N   0  0  0  0  0  0  0  0  0  0  0  0
  2  1  1  1  0  0  0
  2  3  1  0  0  0  0
  2  5  1  0  0  0  0
  3  4  2  0  0  0  0
  5  6  1  0  0  0  0
  6  7  1  0  0  0  0
  7  8  1  0  0  0  0
  8  9  2  0  0  0  0
  9 10  1  0  0  0  0
  9 11  1  0  0  0  0
M  CHG  2   1   1   8   1
M  END
>  <CHROM.1>
179.32539063,-122.65581981,-100.44179370,75.44153993,71.12911796,111.48831475
-3.97091038,-2.45840007,-0.22186562,1.42517420,0.83339291,1.56479603

>  <Name>


>  <RI>
0

>  <Rbt.Current_Directory>
/home/itssahil/PROJECTS/Mol_Feturizer/New_Systems/rnas/1aju

>  <Rbt.Executable>
rbdock ($Id: //depot/dev/client3/rdock/2013.1/src/exe/rbdock.cxx#4 $)

>  <Rbt.Library>
libRbt.so (2013.1, Build901 2013/11/27)

>  <Rbt.Parameter_File>
/export/apps/rDock/src/rDock_2013.1_src/data/scripts/dock_solv.prm

>  <Rbt.Receptor>
prm/pocket_docking_7.prm

>  <SCORE>
-15.8626

>  <SCORE.INTER>
-17.1109

>  <SCORE.INTER.CONST>
1

>  <SCORE.INTER.POLAR>
-3.33385

>  <SCORE.INTER.ROT>
5

>  <SCORE.INTER.SOLV>
15.5035

>  <SCORE.INTER.VDW>
-12.3956

>  <SCORE.INTER.norm>
-1.55554

>  <SCORE.INTRA>
1.24831

>  <SCORE.INTRA.DIHEDRAL>
-1.66582

>  <SCORE.INTRA.DIHEDRAL.0>
9.90185

>  <SCORE.INTRA.POLAR>
0

>  <SCORE.INTRA.POLAR.0>
0

>  <SCORE.INTRA.REPUL>
0

>  <SCORE.INTRA.REPUL.0>
0

>  <SCORE.INTRA.SOLV>
3.10622

>  <SCORE.INTRA.SOLV.lig_0>
-53.6586

>  <SCORE.INTRA.VDW>
0.528116

>  <SCORE.INTRA.VDW.0>
-0.556525

>  <SCORE.INTRA.norm>
0.113483

>  <SCORE.RESTR>
0

>  <SCORE.RESTR.CAVITY>
0

>  <SCORE.RESTR.norm>
0

>  <SCORE.SYSTEM>
0

>  <SCORE.SYSTEM.CONST>
0

>  <SCORE.SYSTEM.DIHEDRAL>
0

>  <SCORE.SYSTEM.SOLV>
0

>  <SCORE.SYSTEM.norm>
0

>  <SCORE.heavy>
11

>  <SCORE.norm>
-1.44206

>  <RMSD>
3.364

$$$$

 OpenBabel11021811383D
libRbt.so/2013.1/901 2013/11/27
 11 10  0  0  0  0  0  0  0  0999 V2000
   -4.4410   -1.3040    1.5878 N   0  3  0  0  0  0  0  0  0  0  0  0
   -4.5282   -2.6859    1.0271 C   0  0  2  0  0  0  0  0  0  0  0  0
   -3.1282   -3.3220    0.9938 C   0  0  0  0  0  0  0  0  0  0  0  0
   -2.5673   -3.5325   -0.0652 O   0  0  0  0  0  0  0  0  0  0  0  0
   -5.1068   -2.6215   -0.3927 C   0  0  0  0  0  0  0  0  0  0  0  0
   -5.8270   -3.9342   -0.7138 C   0  0  0  0  0  0  0  0  0  0  0  0
   -5.8607   -4.1411   -2.2266 C   0  0  0  0  0  0  0  0  0  0  0  0
   -4.4657   -4.2476   -2.7349 N   0  3  0  0  0  0  0  0  0  0  0  0
   -3.8930   -3.2187   -3.2972 C   0  0  0  0  0  0  0  0  0  0  0  0
   -2.8312   -2.6864   -2.7493 N   0  0  0  0  0  0  0  0  0  0  0  0
   -4.3771   -2.7280   -4.4087 N   0  0  0  0  0  0  0  0  0  0  0  0
  2  1  1  6  0  0  0
  2  3  1  0  0  0  0
  2  5  1  0  0  0  0
  3  4  2  0  0  0  0
  5  6  1  0  0  0  0
  6  7  1  0  0  0  0
  7  8  1  0  0  0  0
  8  9  2  0  0  0  0
  9 10  1  0  0  0  0
  9 11  1  0  0  0  0
M  CHG  2   1   1   8   1
M  END
>  <CHROM.1>
-43.90793991,-110.80691365,-152.44126449,-155.35421280,62.06379828,-100.28795416
-4.24577428,-3.09122109,-1.18427896,1.52283581,0.25905811,1.38696280

>  <Name>


>  <RI>
0

>  <Rbt.Current_Directory>
/home/itssahil/PROJECTS/Mol_Feturizer/New_Systems/rnas/1aju

>  <Rbt.Executable>
rbdock ($Id: //depot/dev/client3/rdock/2013.1/src/exe/rbdock.cxx#4 $)

>  <Rbt.Library>
libRbt.so (2013.1, Build901 2013/11/27)

>  <Rbt.Parameter_File>
/export/apps/rDock/src/rDock_2013.1_src/data/scripts/dock_solv.prm

>  <Rbt.Receptor>
prm/pocket_docking_4.prm

>  <SCORE>
-25.5724

>  <SCORE.INTER>
-22.5885

>  <SCORE.INTER.CONST>
1

>  <SCORE.INTER.POLAR>
-4.32301

>  <SCORE.INTER.ROT>
5

>  <SCORE.INTER.SOLV>
15.8408

>  <SCORE.INTER.VDW>
-12.8625

>  <SCORE.INTER.norm>
-2.0535

>  <SCORE.INTRA>
-3.04029

>  <SCORE.INTRA.DIHEDRAL>
-1.67082

>  <SCORE.INTRA.DIHEDRAL.0>
9.90185

>  <SCORE.INTRA.POLAR>
-1.0865

>  <SCORE.INTRA.POLAR.0>
0

>  <SCORE.INTRA.REPUL>
0

>  <SCORE.INTRA.REPUL.0>
0

>  <SCORE.INTRA.SOLV>
3.1988

>  <SCORE.INTRA.SOLV.lig_0>
-53.6586

>  <SCORE.INTRA.VDW>
-0.110171

>  <SCORE.INTRA.VDW.0>
-0.556525

>  <SCORE.INTRA.norm>
-0.27639

>  <SCORE.RESTR>
0.0563805

>  <SCORE.RESTR.CAVITY>
0.0563805

>  <SCORE.RESTR.norm>
0.0051255

>  <SCORE.SYSTEM>
0

>  <SCORE.SYSTEM.CONST>
0

>  <SCORE.SYSTEM.DIHEDRAL>
0

>  <SCORE.SYSTEM.SOLV>
0

>  <SCORE.SYSTEM.norm>
0

>  <SCORE.heavy>
11

>  <SCORE.norm>
-2.32476

>  <RMSD>
3.365

$$$$

 OpenBabel11021811383D
libRbt.so/2013.1/901 2013/11/27
 11 10  0  0  0  0  0  0  0  0999 V2000
   -4.4283   -1.2675    1.6229 N   0  3  0  0  0  0  0  0  0  0  0  0
   -4.4976   -2.6359    1.0278 C   0  0  2  0  0  0  0  0  0  0  0  0
   -3.0840   -3.2356    0.9386 C   0  0  0  0  0  0  0  0  0  0  0  0
   -2.5174   -3.3322   -0.1338 O   0  0  0  0  0  0  0  0  0  0  0  0
   -5.1175   -2.5488   -0.3733 C   0  0  0  0  0  0  0  0  0  0  0  0
   -5.8397   -3.8595   -0.6977 C   0  0  0  0  0  0  0  0  0  0  0  0
   -5.8549   -4.0731   -2.2099 C   0  0  0  0  0  0  0  0  0  0  0  0
   -4.4541   -4.1934   -2.6990 N   0  3  0  0  0  0  0  0  0  0  0  0
   -3.8751   -3.1807   -3.2836 C   0  0  0  0  0  0  0  0  0  0  0  0
   -2.8198   -2.6325   -2.7390 N   0  0  0  0  0  0  0  0  0  0  0  0
   -4.3464   -2.7220   -4.4141 N   0  0  0  0  0  0  0  0  0  0  0  0
  2  1  1  6  0  0  0
  2  3  1  0  0  0  0
  2  5  1  0  0  0  0
  3  4  2  0  0  0  0
  5  6  1  0  0  0  0
  6  7  1  0  0  0  0
  7  8  1  0  0  0  0
  8  9  2  0  0  0  0
  9 10  1  0  0  0  0
  9 11  1  0  0  0  0
M  CHG  2   1   1   8   1
M  END
>  <CHROM.1>
75.02363137,-106.51061763,-151.25114755,-152.54981894,62.26844072,-101.74326373
-4.22831838,-3.02359386,-1.18216010,1.52648319,0.26476250,1.37525919

>  <Name>


>  <RI>
224

>  <Rbt.Current_Directory>
/home/itssahil/PROJECTS/Mol_Feturizer/New_Systems/rnas/1aju

>  <Rbt.Executable>
rbdock ($Id: //depot/dev/client3/rdock/2013.1/src/exe/rbdock.cxx#4 $)

>  <Rbt.Library>
libRbt.so (2013.1, Build901 2013/11/27)

>  <Rbt.Parameter_File>
/export/apps/rDock/src/rDock_2013.1_src/data/scripts/dock_solv.prm

>  <Rbt.Receptor>
prm/pocket_docking_5.prm

>  <SCORE>
-25.7366

>  <SCORE.INTER>
-23.0691

>  <SCORE.INTER.CONST>
1

>  <SCORE.INTER.POLAR>
-4.39766

>  <SCORE.INTER.ROT>
5

>  <SCORE.INTER.SOLV>
15.8652

>  <SCORE.INTER.VDW>
-12.9423

>  <SCORE.INTER.norm>
-2.09719

>  <SCORE.INTRA>
-2.66745

>  <SCORE.INTRA.DIHEDRAL>
-0.970721

>  <SCORE.INTRA.DIHEDRAL.0>
9.90185

>  <SCORE.INTRA.POLAR>
-1.0899

>  <SCORE.INTRA.POLAR.0>
0

>  <SCORE.INTRA.REPUL>
0

>  <SCORE.INTRA.REPUL.0>
0

>  <SCORE.INTRA.SOLV>
3.38419

>  <SCORE.INTRA.SOLV.lig_0>
-53.6586

>  <SCORE.INTRA.VDW>
-0.16853

>  <SCORE.INTRA.VDW.0>
-0.556525

>  <SCORE.INTRA.norm>
-0.242496

>  <SCORE.RESTR>
0

>  <SCORE.RESTR.CAVITY>
0

>  <SCORE.RESTR.norm>
0

>  <SCORE.SYSTEM>
0

>  <SCORE.SYSTEM.CONST>
0

>  <SCORE.SYSTEM.DIHEDRAL>
0

>  <SCORE.SYSTEM.SOLV>
0

>  <SCORE.SYSTEM.norm>
0

>  <SCORE.heavy>
11

>  <SCORE.norm>
-2.33969

>  <RMSD>
3.366

$$$$

 OpenBabel11021811383D
libRbt.so/2013.1/901 2013/11/27
 11 10  0  0  0  0  0  0  0  0999 V2000
   -4.6384    0.0926    2.2057 N   0  3  0  0  0  0  0  0  0  0  0  0
   -3.8947   -1.1969    2.0802 C   0  0  2  0  0  0  0  0  0  0  0  0
   -3.4339   -1.6679    3.4700 C   0  0  0  0  0  0  0  0  0  0  0  0
   -3.5337   -2.8364    3.7939 O   0  0  0  0  0  0  0  0  0  0  0  0
   -2.6781   -0.9938    1.1674 C   0  0  0  0  0  0  0  0  0  0  0  0
   -2.4916   -2.2265    0.2783 C   0  0  0  0  0  0  0  0  0  0  0  0
   -3.7376   -2.4290   -0.5814 C   0  0  0  0  0  0  0  0  0  0  0  0
   -3.3367   -3.0135   -1.8904 N   0  3  0  0  0  0  0  0  0  0  0  0
   -4.1028   -2.8652   -2.9363 C   0  0  0  0  0  0  0  0  0  0  0  0
   -3.6641   -2.2009   -3.9740 N   0  0  0  0  0  0  0  0  0  0  0  0
   -5.3023   -3.3866   -2.9467 N   0  0  0  0  0  0  0  0  0  0  0  0
  2  1  1  1  0  0  0
  2  3  1  0  0  0  0
  2  5  1  0  0  0  0
  3  4  2  0  0  0  0
  5  6  1  0  0  0  0
  6  7  1  0  0  0  0
  7  8  1  0  0  0  0
  8  9  2  0  0  0  0
  9 10  1  0  0  0  0
  9 11  1  0  0  0  0
M  CHG  2   1   1   8   1
M  END
>  <CHROM.1>
40.37209921,137.15422859,-141.24792242,60.17360066,147.37745734,-156.73654153
-3.73972055,-2.05350730,0.04558972,1.34922935,-1.22350747,1.13984645

>  <Name>


>  <RI>
0

>  <Rbt.Current_Directory>
/home/itssahil/PROJECTS/Mol_Feturizer/New_Systems/rnas/1aju

>  <Rbt.Executable>
rbdock ($Id: //depot/dev/client3/rdock/2013.1/src/exe/rbdock.cxx#4 $)

>  <Rbt.Library>
libRbt.so (2013.1, Build901 2013/11/27)

>  <Rbt.Parameter_File>
/export/apps/rDock/src/rDock_2013.1_src/data/scripts/dock_solv.prm

>  <Rbt.Receptor>
prm/pocket_docking_6.prm

>  <SCORE>
-17.6128

>  <SCORE.INTER>
-19.0374

>  <SCORE.INTER.CONST>
1

>  <SCORE.INTER.POLAR>
-3.36498

>  <SCORE.INTER.ROT>
5

>  <SCORE.INTER.SOLV>
15.7014

>  <SCORE.INTER.VDW>
-13.6421

>  <SCORE.INTER.norm>
-1.73067

>  <SCORE.INTRA>
1.42462

>  <SCORE.INTRA.DIHEDRAL>
1.23231

>  <SCORE.INTRA.DIHEDRAL.0>
9.90185

>  <SCORE.INTRA.POLAR>
0

>  <SCORE.INTRA.POLAR.0>
0

>  <SCORE.INTRA.REPUL>
0

>  <SCORE.INTRA.REPUL.0>
0

>  <SCORE.INTRA.SOLV>
0.228223

>  <SCORE.INTRA.SOLV.lig_0>
-53.6586

>  <SCORE.INTRA.VDW>
0.694347

>  <SCORE.INTRA.VDW.0>
-0.556525

>  <SCORE.INTRA.norm>
0.12951

>  <SCORE.RESTR>
0

>  <SCORE.RESTR.CAVITY>
0

>  <SCORE.RESTR.norm>
0

>  <SCORE.SYSTEM>
0

>  <SCORE.SYSTEM.CONST>
0

>  <SCORE.SYSTEM.DIHEDRAL>
0

>  <SCORE.SYSTEM.SOLV>
0

>  <SCORE.SYSTEM.norm>
0

>  <SCORE.heavy>
11

>  <SCORE.norm>
-1.60116

>  <RMSD>
3.378

$$$$

 OpenBabel11021811383D
libRbt.so/2013.1/901 2013/11/27
 11 10  0  0  0  0  0  0  0  0999 V2000
   -5.6084   -3.9112    3.1633 N   0  3  0  0  0  0  0  0  0  0  0  0
   -4.1986   -4.1771    2.7469 C   0  0  2  0  0  0  0  0  0  0  0  0
   -3.3620   -2.8953    2.8980 C   0  0  0  0  0  0  0  0  0  0  0  0
   -2.2291   -2.9421    3.3390 O   0  0  0  0  0  0  0  0  0  0  0  0
   -4.1810   -4.6431    1.2849 C   0  0  0  0  0  0  0  0  0  0  0  0
   -4.7153   -3.5265    0.3835 C   0  0  0  0  0  0  0  0  0  0  0  0
   -4.5491   -3.9288   -1.0805 C   0  0  0  0  0  0  0  0  0  0  0  0
   -4.9048   -2.7719   -1.9470 N   0  3  0  0  0  0  0  0  0  0  0  0
   -4.0769   -2.3660   -2.8704 C   0  0  0  0  0  0  0  0  0  0  0  0
   -4.4274   -2.4260   -4.1291 N   0  0  0  0  0  0  0  0  0  0  0  0
   -2.9040   -1.8945   -2.5348 N   0  0  0  0  0  0  0  0  0  0  0  0
  2  1  1  6  0  0  0
  2  3  1  0  0  0  0
  2  5  1  0  0  0  0
  3  4  2  0  0  0  0
  5  6  1  0  0  0  0
  6  7  1  0  0  0  0
  7  8  1  0  0  0  0
  8  9  2  0  0  0  0
  9 10  1  0  0  0  0
  9 11  1  0  0  0  0
M  CHG  2   1   1   8   1
M  END
>  <CHROM.1>
175.44559624,139.14699513,62.84853202,173.57842152,-172.71358540,127.82063422
-4.11638361,-3.20657642,0.11389911,1.54126121,0.49460417,1.77913037

>  <Name>


>  <RI>
224

>  <Rbt.Current_Directory>
/home/itssahil/PROJECTS/Mol_Feturizer/New_Systems/rnas/1aju

>  <Rbt.Executable>
rbdock ($Id: //depot/dev/client3/rdock/2013.1/src/exe/rbdock.cxx#4 $)

>  <Rbt.Library>
libRbt.so (2013.1, Build901 2013/11/27)

>  <Rbt.Parameter_File>
/export/apps/rDock/src/rDock_2013.1_src/data/scripts/dock_solv.prm

>  <Rbt.Receptor>
prm/pocket_docking_5.prm

>  <SCORE>
-19.3938

>  <SCORE.INTER>
-17.838

>  <SCORE.INTER.CONST>
1

>  <SCORE.INTER.POLAR>
-3.43367

>  <SCORE.INTER.ROT>
5

>  <SCORE.INTER.SOLV>
15.8651

>  <SCORE.INTER.VDW>
-12.6682

>  <SCORE.INTER.norm>
-1.62164

>  <SCORE.INTRA>
-1.56425

>  <SCORE.INTRA.DIHEDRAL>
-5.84317

>  <SCORE.INTRA.DIHEDRAL.0>
9.90185

>  <SCORE.INTRA.POLAR>
0

>  <SCORE.INTRA.POLAR.0>
0

>  <SCORE.INTRA.REPUL>
0

>  <SCORE.INTRA.REPUL.0>
0

>  <SCORE.INTRA.SOLV>
1.21898

>  <SCORE.INTRA.SOLV.lig_0>
-53.6586

>  <SCORE.INTRA.VDW>
0.747843

>  <SCORE.INTRA.VDW.0>
-0.556525

>  <SCORE.INTRA.norm>
-0.142205

>  <SCORE.RESTR>
0.00843733

>  <SCORE.RESTR.CAVITY>
0.00843733

>  <SCORE.RESTR.norm>
0.00076703

>  <SCORE.SYSTEM>
0

>  <SCORE.SYSTEM.CONST>
0

>  <SCORE.SYSTEM.DIHEDRAL>
0

>  <SCORE.SYSTEM.SOLV>
0

>  <SCORE.SYSTEM.norm>
0

>  <SCORE.heavy>
11

>  <SCORE.norm>
-1.76308

>  <RMSD>
3.389

$$$$

 OpenBabel11021811383D
libRbt.so/2013.1/901 2013/11/27
 11 10  0  0  0  0  0  0  0  0999 V2000
   -0.9605   -2.7814   -0.7370 N   0  3  0  0  0  0  0  0  0  0  0  0
   -1.8338   -3.9138   -1.1690 C   0  0  2  0  0  0  0  0  0  0  0  0
   -0.9637   -5.1170   -1.5700 C   0  0  0  0  0  0  0  0  0  0  0  0
   -0.9132   -6.1083   -0.8664 O   0  0  0  0  0  0  0  0  0  0  0  0
   -2.6900   -3.4674   -2.3617 C   0  0  0  0  0  0  0  0  0  0  0  0
   -3.7901   -2.5186   -1.8777 C   0  0  0  0  0  0  0  0  0  0  0  0
   -4.8693   -3.3174   -1.1498 C   0  0  0  0  0  0  0  0  0  0  0  0
   -5.4304   -2.4874   -0.0487 N   0  3  0  0  0  0  0  0  0  0  0  0
   -4.8338   -2.4478    1.1111 C   0  0  0  0  0  0  0  0  0  0  0  0
   -4.3426   -1.3182    1.5508 N   0  0  0  0  0  0  0  0  0  0  0  0
   -4.7354   -3.5343    1.8327 N   0  0  0  0  0  0  0  0  0  0  0  0
  2  1  1  6  0  0  0
  2  3  1  0  0  0  0
  2  5  1  0  0  0  0
  3  4  2  0  0  0  0
  5  6  1  0  0  0  0
  6  7  1  0  0  0  0
  7  8  1  0  0  0  0
  8  9  2  0  0  0  0
  9 10  1  0  0  0  0
  9 11  1  0  0  0  0
M  CHG  2   1   1   8   1
M  END
>  <CHROM.1>
-137.51634966,108.27508271,-73.54365547,-74.28713862,146.26955760,-84.41340318
-3.19184253,-3.34727955,-0.43558533,-0.37043106,-0.63326018,1.74548107

>  <Name>


>  <RI>
0

>  <Rbt.Current_Directory>
/home/itssahil/PROJECTS/Mol_Feturizer/New_Systems/rnas/1aju

>  <Rbt.Executable>
rbdock ($Id: //depot/dev/client3/rdock/2013.1/src/exe/rbdock.cxx#4 $)

>  <Rbt.Library>
libRbt.so (2013.1, Build901 2013/11/27)

>  <Rbt.Parameter_File>
/export/apps/rDock/src/rDock_2013.1_src/data/scripts/dock_solv.prm

>  <Rbt.Receptor>
prm/pocket_docking_4.prm

>  <SCORE>
-18.7938

>  <SCORE.INTER>
-20.4332

>  <SCORE.INTER.CONST>
1

>  <SCORE.INTER.POLAR>
-3.57907

>  <SCORE.INTER.ROT>
5

>  <SCORE.INTER.SOLV>
11.3085

>  <SCORE.INTER.VDW>
-12.3947

>  <SCORE.INTER.norm>
-1.85756

>  <SCORE.INTRA>
1.63936

>  <SCORE.INTRA.DIHEDRAL>
0.965353

>  <SCORE.INTRA.DIHEDRAL.0>
9.90185

>  <SCORE.INTRA.POLAR>
0

>  <SCORE.INTRA.POLAR.0>
0

>  <SCORE.INTRA.REPUL>
0.0192981

>  <SCORE.INTRA.REPUL.0>
0

>  <SCORE.INTRA.SOLV>
1.97758

>  <SCORE.INTRA.SOLV.lig_0>
-53.6586

>  <SCORE.INTRA.VDW>
0.0714012

>  <SCORE.INTRA.VDW.0>
-0.556525

>  <SCORE.INTRA.norm>
0.149033

>  <SCORE.RESTR>
0

>  <SCORE.RESTR.CAVITY>
0

>  <SCORE.RESTR.norm>
0

>  <SCORE.SYSTEM>
0

>  <SCORE.SYSTEM.CONST>
0

>  <SCORE.SYSTEM.DIHEDRAL>
0

>  <SCORE.SYSTEM.SOLV>
0

>  <SCORE.SYSTEM.norm>
0

>  <SCORE.heavy>
11

>  <SCORE.norm>
-1.70853

>  <RMSD>
3.395

$$$$

 OpenBabel11021811383D
libRbt.so/2013.1/901 2013/11/27
 11 10  0  0  0  0  0  0  0  0999 V2000
   -3.7199   -1.1047    2.8369 N   0  3  0  0  0  0  0  0  0  0  0  0
   -4.3732   -2.3627    2.3655 C   0  0  2  0  0  0  0  0  0  0  0  0
   -3.8207   -3.5619    3.1545 C   0  0  0  0  0  0  0  0  0  0  0  0
   -4.5743   -4.3470    3.6986 O   0  0  0  0  0  0  0  0  0  0  0  0
   -4.0937   -2.5490    0.8682 C   0  0  0  0  0  0  0  0  0  0  0  0
   -4.9415   -3.7038    0.3273 C   0  0  0  0  0  0  0  0  0  0  0  0
   -4.5744   -3.9668   -1.1317 C   0  0  0  0  0  0  0  0  0  0  0  0
   -4.9182   -2.7679   -1.9443 N   0  3  0  0  0  0  0  0  0  0  0  0
   -4.0967   -2.3427   -2.8646 C   0  0  0  0  0  0  0  0  0  0  0  0
   -4.4689   -2.3435   -4.1185 N   0  0  0  0  0  0  0  0  0  0  0  0
   -2.9081   -1.9109   -2.5306 N   0  0  0  0  0  0  0  0  0  0  0  0
  2  1  1  1  0  0  0
  2  3  1  0  0  0  0
  2  5  1  0  0  0  0
  3  4  2  0  0  0  0
  5  6  1  0  0  0  0
  6  7  1  0  0  0  0
  7  8  1  0  0  0  0
  8  9  2  0  0  0  0
  9 10  1  0  0  0  0
  9 11  1  0  0  0  0
M  CHG  2   1   1   8   1
M  END
>  <CHROM.1>
-58.51988259,128.22996328,-170.84097443,-175.13493498,-63.59974003,137.72315028
-4.21385297,-2.77753997,0.06171753,-1.58152330,-1.11479825,-1.48647738

>  <Name>


>  <RI>
224

>  <Rbt.Current_Directory>
/home/itssahil/PROJECTS/Mol_Feturizer/New_Systems/rnas/1aju

>  <Rbt.Executable>
rbdock ($Id: //depot/dev/client3/rdock/2013.1/src/exe/rbdock.cxx#4 $)

>  <Rbt.Library>
libRbt.so (2013.1, Build901 2013/11/27)

>  <Rbt.Parameter_File>
/export/apps/rDock/src/rDock_2013.1_src/data/scripts/dock_solv.prm

>  <Rbt.Receptor>
prm/pocket_docking_5.prm

>  <SCORE>
-17.6315

>  <SCORE.INTER>
-14.7142

>  <SCORE.INTER.CONST>
1

>  <SCORE.INTER.POLAR>
-2.5314

>  <SCORE.INTER.ROT>
5

>  <SCORE.INTER.SOLV>
14.809

>  <SCORE.INTER.VDW>
-13.2411

>  <SCORE.INTER.norm>
-1.33765

>  <SCORE.INTRA>
-2.91738

>  <SCORE.INTRA.DIHEDRAL>
-6.33743

>  <SCORE.INTRA.DIHEDRAL.0>
9.90185

>  <SCORE.INTRA.POLAR>
0

>  <SCORE.INTRA.POLAR.0>
0

>  <SCORE.INTRA.REPUL>
0

>  <SCORE.INTRA.REPUL.0>
0

>  <SCORE.INTRA.SOLV>
0.723358

>  <SCORE.INTRA.SOLV.lig_0>
-53.6586

>  <SCORE.INTRA.VDW>
-0.110345

>  <SCORE.INTRA.VDW.0>
-0.556525

>  <SCORE.INTRA.norm>
-0.265216

>  <SCORE.RESTR>
0

>  <SCORE.RESTR.CAVITY>
0

>  <SCORE.RESTR.norm>
0

>  <SCORE.SYSTEM>
0

>  <SCORE.SYSTEM.CONST>
0

>  <SCORE.SYSTEM.DIHEDRAL>
0

>  <SCORE.SYSTEM.SOLV>
0

>  <SCORE.SYSTEM.norm>
0

>  <SCORE.heavy>
11

>  <SCORE.norm>
-1.60287

>  <RMSD>
3.395

$$$$

 OpenBabel11021811383D
libRbt.so/2013.1/901 2013/11/27
 11 10  0  0  0  0  0  0  0  0999 V2000
   -4.4516   -1.3024    1.6089 N   0  3  0  0  0  0  0  0  0  0  0  0
   -4.5437   -2.6552    0.9818 C   0  0  2  0  0  0  0  0  0  0  0  0
   -3.1312   -3.2226    0.7613 C   0  0  0  0  0  0  0  0  0  0  0  0
   -2.8347   -4.3276    1.1752 O   0  0  0  0  0  0  0  0  0  0  0  0
   -5.2771   -2.5426   -0.3614 C   0  0  0  0  0  0  0  0  0  0  0  0
   -5.8911   -3.8971   -0.7265 C   0  0  0  0  0  0  0  0  0  0  0  0
   -5.8756   -4.0723   -2.2436 C   0  0  0  0  0  0  0  0  0  0  0  0
   -4.4653   -4.1820   -2.7069 N   0  3  0  0  0  0  0  0  0  0  0  0
   -3.8838   -3.1653   -3.2824 C   0  0  0  0  0  0  0  0  0  0  0  0
   -2.8430   -2.6081   -2.7194 N   0  0  0  0  0  0  0  0  0  0  0  0
   -4.3382   -2.7118   -4.4219 N   0  0  0  0  0  0  0  0  0  0  0  0
  2  1  1  6  0  0  0
  2  3  1  0  0  0  0
  2  5  1  0  0  0  0
  3  4  2  0  0  0  0
  5  6  1  0  0  0  0
  6  7  1  0  0  0  0
  7  8  1  0  0  0  0
  8  9  2  0  0  0  0
  9 10  1  0  0  0  0
  9 11  1  0  0  0  0
M  CHG  2   1   1   8   1
M  END
>  <CHROM.1>
-48.95405054,127.45617786,-156.42083557,-146.93938446,66.86571067,-103.36151301
-4.29341450,-3.12422592,-1.07471618,1.50294582,0.13173479,1.46508096

>  <Name>


>  <RI>
224

>  <Rbt.Current_Directory>
/home/itssahil/PROJECTS/Mol_Feturizer/New_Systems/rnas/1aju

>  <Rbt.Executable>
rbdock ($Id: //depot/dev/client3/rdock/2013.1/src/exe/rbdock.cxx#4 $)

>  <Rbt.Library>
libRbt.so (2013.1, Build901 2013/11/27)

>  <Rbt.Parameter_File>
/export/apps/rDock/src/rDock_2013.1_src/data/scripts/dock_solv.prm

>  <Rbt.Receptor>
prm/pocket_docking_5.prm

>  <SCORE>
-23.8093

>  <SCORE.INTER>
-23.1034

>  <SCORE.INTER.CONST>
1

>  <SCORE.INTER.POLAR>
-4.42694

>  <SCORE.INTER.ROT>
5

>  <SCORE.INTER.SOLV>
16.2359

>  <SCORE.INTER.VDW>
-12.9911

>  <SCORE.INTER.norm>
-2.10031

>  <SCORE.INTRA>
-0.705854

>  <SCORE.INTRA.DIHEDRAL>
-1.06345

>  <SCORE.INTRA.DIHEDRAL.0>
9.90185

>  <SCORE.INTRA.POLAR>
0

>  <SCORE.INTRA.POLAR.0>
0

>  <SCORE.INTRA.REPUL>
0

>  <SCORE.INTRA.REPUL.0>
0

>  <SCORE.INTRA.SOLV>
1.81537

>  <SCORE.INTRA.SOLV.lig_0>
-53.6586

>  <SCORE.INTRA.VDW>
-1.08182

>  <SCORE.INTRA.VDW.0>
-0.556525

>  <SCORE.INTRA.norm>
-0.0641685

>  <SCORE.RESTR>
0

>  <SCORE.RESTR.CAVITY>
0

>  <SCORE.RESTR.norm>
0

>  <SCORE.SYSTEM>
0

>  <SCORE.SYSTEM.CONST>
0

>  <SCORE.SYSTEM.DIHEDRAL>
0

>  <SCORE.SYSTEM.SOLV>
0

>  <SCORE.SYSTEM.norm>
0

>  <SCORE.heavy>
11

>  <SCORE.norm>
-2.16448

>  <RMSD>
3.399

$$$$

 OpenBabel11021811383D
libRbt.so/2013.1/901 2013/11/27
 11 10  0  0  0  0  0  0  0  0999 V2000
   -4.3362   -0.2956    1.9417 N   0  3  0  0  0  0  0  0  0  0  0  0
   -3.1013   -1.1362    1.9491 C   0  0  2  0  0  0  0  0  0  0  0  0
   -1.9119   -0.3073    2.4629 C   0  0  0  0  0  0  0  0  0  0  0  0
   -1.8493    0.0309    3.6300 O   0  0  0  0  0  0  0  0  0  0  0  0
   -2.8165   -1.6316    0.5249 C   0  0  0  0  0  0  0  0  0  0  0  0
   -3.3853   -3.0423    0.3484 C   0  0  0  0  0  0  0  0  0  0  0  0
   -3.3316   -3.4335   -1.1269 C   0  0  0  0  0  0  0  0  0  0  0  0
   -4.4655   -2.7882   -1.8437 N   0  3  0  0  0  0  0  0  0  0  0  0
   -4.4208   -2.6372   -3.1390 C   0  0  0  0  0  0  0  0  0  0  0  0
   -5.2993   -3.2441   -3.8945 N   0  0  0  0  0  0  0  0  0  0  0  0
   -3.5039   -1.8752   -3.6768 N   0  0  0  0  0  0  0  0  0  0  0  0
  2  1  1  6  0  0  0
  2  3  1  0  0  0  0
  2  5  1  0  0  0  0
  3  4  2  0  0  0  0
  5  6  1  0  0  0  0
  6  7  1  0  0  0  0
  7  8  1  0  0  0  0
  8  9  2  0  0  0  0
  9 10  1  0  0  0  0
  9 11  1  0  0  0  0
M  CHG  2   1   1   8   1
M  END
>  <CHROM.1>
-43.21949401,69.66561674,-96.45697489,169.72112363,-78.97284118,159.65193532
-3.52808235,-1.81996517,-0.26314776,1.05909203,-0.96321669,0.75174911

>  <Name>


>  <RI>
0

>  <Rbt.Current_Directory>
/home/itssahil/PROJECTS/Mol_Feturizer/New_Systems/rnas/1aju

>  <Rbt.Executable>
rbdock ($Id: //depot/dev/client3/rdock/2013.1/src/exe/rbdock.cxx#4 $)

>  <Rbt.Library>
libRbt.so (2013.1, Build901 2013/11/27)

>  <Rbt.Parameter_File>
/export/apps/rDock/src/rDock_2013.1_src/data/scripts/dock_solv.prm

>  <Rbt.Receptor>
prm/pocket_docking_7.prm

>  <SCORE>
-21.4807

>  <SCORE.INTER>
-22.4953

>  <SCORE.INTER.CONST>
1

>  <SCORE.INTER.POLAR>
-4.54306

>  <SCORE.INTER.ROT>
5

>  <SCORE.INTER.SOLV>
18.2955

>  <SCORE.INTER.VDW>
-12.8852

>  <SCORE.INTER.norm>
-2.04503

>  <SCORE.INTRA>
1.01461

>  <SCORE.INTRA.DIHEDRAL>
1.40409

>  <SCORE.INTRA.DIHEDRAL.0>
9.90185

>  <SCORE.INTRA.POLAR>
0

>  <SCORE.INTRA.POLAR.0>
0

>  <SCORE.INTRA.REPUL>
0

>  <SCORE.INTRA.REPUL.0>
0

>  <SCORE.INTRA.SOLV>
1.42202

>  <SCORE.INTRA.SOLV.lig_0>
-53.6586

>  <SCORE.INTRA.VDW>
-0.398444

>  <SCORE.INTRA.VDW.0>
-0.556525

>  <SCORE.INTRA.norm>
0.0922374

>  <SCORE.RESTR>
0

>  <SCORE.RESTR.CAVITY>
0

>  <SCORE.RESTR.norm>
0

>  <SCORE.SYSTEM>
0

>  <SCORE.SYSTEM.CONST>
0

>  <SCORE.SYSTEM.DIHEDRAL>
0

>  <SCORE.SYSTEM.SOLV>
0

>  <SCORE.SYSTEM.norm>
0

>  <SCORE.heavy>
11

>  <SCORE.norm>
-1.95279

>  <RMSD>
3.404

$$$$

 OpenBabel11021811383D
libRbt.so/2013.1/901 2013/11/27
 11 10  0  0  0  0  0  0  0  0999 V2000
   -4.4652   -2.2669    3.4620 N   0  3  0  0  0  0  0  0  0  0  0  0
   -3.4043   -2.1052    2.4228 C   0  0  2  0  0  0  0  0  0  0  0  0
   -2.9087   -0.6492    2.4088 C   0  0  0  0  0  0  0  0  0  0  0  0
   -2.9432    0.0278    3.4192 O   0  0  0  0  0  0  0  0  0  0  0  0
   -3.9796   -2.4745    1.0489 C   0  0  0  0  0  0  0  0  0  0  0  0
   -2.8469   -2.5505    0.0213 C   0  0  0  0  0  0  0  0  0  0  0  0
   -3.2709   -3.4466   -1.1404 C   0  0  0  0  0  0  0  0  0  0  0  0
   -4.4227   -2.8192   -1.8444 N   0  3  0  0  0  0  0  0  0  0  0  0
   -4.3918   -2.6610   -3.1393 C   0  0  0  0  0  0  0  0  0  0  0  0
   -5.2649   -3.2805   -3.8906 N   0  0  0  0  0  0  0  0  0  0  0  0
   -3.4939   -1.8790   -3.6807 N   0  0  0  0  0  0  0  0  0  0  0  0
  2  1  1  1  0  0  0
  2  3  1  0  0  0  0
  2  5  1  0  0  0  0
  3  4  2  0  0  0  0
  5  6  1  0  0  0  0
  6  7  1  0  0  0  0
  7  8  1  0  0  0  0
  8  9  2  0  0  0  0
  9 10  1  0  0  0  0
  9 11  1  0  0  0  0
M  CHG  2   1   1   8   1
M  END
>  <CHROM.1>
61.86761603,28.75460692,-170.12025017,156.49230699,64.36581017,128.86384692
-3.79469029,-2.18141592,-0.06789789,1.34628598,0.92485218,1.51178220

>  <Name>


>  <RI>
224

>  <Rbt.Current_Directory>
/home/itssahil/PROJECTS/Mol_Feturizer/New_Systems/rnas/1aju

>  <Rbt.Executable>
rbdock ($Id: //depot/dev/client3/rdock/2013.1/src/exe/rbdock.cxx#4 $)

>  <Rbt.Library>
libRbt.so (2013.1, Build901 2013/11/27)

>  <Rbt.Parameter_File>
/export/apps/rDock/src/rDock_2013.1_src/data/scripts/dock_solv.prm

>  <Rbt.Receptor>
prm/pocket_docking_5.prm

>  <SCORE>
-17.0574

>  <SCORE.INTER>
-16.3901

>  <SCORE.INTER.CONST>
1

>  <SCORE.INTER.POLAR>
-3.33385

>  <SCORE.INTER.ROT>
5

>  <SCORE.INTER.SOLV>
15.1336

>  <SCORE.INTER.VDW>
-11.7918

>  <SCORE.INTER.norm>
-1.49001

>  <SCORE.INTRA>
-0.667284

>  <SCORE.INTRA.DIHEDRAL>
-3.18217

>  <SCORE.INTRA.DIHEDRAL.0>
9.90185

>  <SCORE.INTRA.POLAR>
0

>  <SCORE.INTRA.POLAR.0>
0

>  <SCORE.INTRA.REPUL>
0

>  <SCORE.INTRA.REPUL.0>
0

>  <SCORE.INTRA.SOLV>
1.36087

>  <SCORE.INTRA.SOLV.lig_0>
-53.6586

>  <SCORE.INTRA.VDW>
0.243366

>  <SCORE.INTRA.VDW.0>
-0.556525

>  <SCORE.INTRA.norm>
-0.0606622

>  <SCORE.RESTR>
0

>  <SCORE.RESTR.CAVITY>
0

>  <SCORE.RESTR.norm>
0

>  <SCORE.SYSTEM>
0

>  <SCORE.SYSTEM.CONST>
0

>  <SCORE.SYSTEM.DIHEDRAL>
0

>  <SCORE.SYSTEM.SOLV>
0

>  <SCORE.SYSTEM.norm>
0

>  <SCORE.heavy>
11

>  <SCORE.norm>
-1.55067

>  <RMSD>
3.427

$$$$

 OpenBabel11021811383D
libRbt.so/2013.1/901 2013/11/27
 11 10  0  0  0  0  0  0  0  0999 V2000
   -4.3895   -2.0781    2.9927 N   0  3  0  0  0  0  0  0  0  0  0  0
   -3.3766   -1.9245    1.9055 C   0  0  2  0  0  0  0  0  0  0  0  0
   -2.7063   -0.5442    2.0114 C   0  0  0  0  0  0  0  0  0  0  0  0
   -2.3382    0.0451    1.0127 O   0  0  0  0  0  0  0  0  0  0  0  0
   -4.0692   -2.0660    0.5435 C   0  0  0  0  0  0  0  0  0  0  0  0
   -4.6280   -3.4840    0.3962 C   0  0  0  0  0  0  0  0  0  0  0  0
   -4.4950   -3.9368   -1.0563 C   0  0  0  0  0  0  0  0  0  0  0  0
   -4.8840   -2.8147   -1.9539 N   0  3  0  0  0  0  0  0  0  0  0  0
   -4.0633   -2.4029   -2.8810 C   0  0  0  0  0  0  0  0  0  0  0  0
   -4.4013   -2.5060   -4.1404 N   0  0  0  0  0  0  0  0  0  0  0  0
   -2.9103   -1.8823   -2.5488 N   0  0  0  0  0  0  0  0  0  0  0  0
  2  1  1  1  0  0  0
  2  3  1  0  0  0  0
  2  5  1  0  0  0  0
  3  4  2  0  0  0  0
  5  6  1  0  0  0  0
  6  7  1  0  0  0  0
  7  8  1  0  0  0  0
  8  9  2  0  0  0  0
  9 10  1  0  0  0  0
  9 11  1  0  0  0  0
M  CHG  2   1   1   8   1
M  END
>  <CHROM.1>
76.15043315,-147.15012271,-64.45182157,-144.19310328,-42.73875896,125.33461066
-3.84891037,-2.12625097,-0.33977057,1.34516571,0.90074856,1.50845699

>  <Name>


>  <RI>
0

>  <Rbt.Current_Directory>
/home/itssahil/PROJECTS/Mol_Feturizer/New_Systems/rnas/1aju

>  <Rbt.Executable>
rbdock ($Id: //depot/dev/client3/rdock/2013.1/src/exe/rbdock.cxx#4 $)

>  <Rbt.Library>
libRbt.so (2013.1, Build901 2013/11/27)

>  <Rbt.Parameter_File>
/export/apps/rDock/src/rDock_2013.1_src/data/scripts/dock_solv.prm

>  <Rbt.Receptor>
prm/pocket_docking_8.prm

>  <SCORE>
-21.9314

>  <SCORE.INTER>
-24.3162

>  <SCORE.INTER.CONST>
1

>  <SCORE.INTER.POLAR>
-4.30798

>  <SCORE.INTER.ROT>
5

>  <SCORE.INTER.SOLV>
16.0682

>  <SCORE.INTER.VDW>
-14.1402

>  <SCORE.INTER.norm>
-2.21056

>  <SCORE.INTRA>
2.38476

>  <SCORE.INTRA.DIHEDRAL>
-0.0798526

>  <SCORE.INTRA.DIHEDRAL.0>
9.90185

>  <SCORE.INTRA.POLAR>
0

>  <SCORE.INTRA.POLAR.0>
0

>  <SCORE.INTRA.REPUL>
0

>  <SCORE.INTRA.REPUL.0>
0

>  <SCORE.INTRA.SOLV>
2.4824

>  <SCORE.INTRA.SOLV.lig_0>
-53.6586

>  <SCORE.INTRA.VDW>
1.18349

>  <SCORE.INTRA.VDW.0>
-0.556525

>  <SCORE.INTRA.norm>
0.216797

>  <SCORE.RESTR>
0

>  <SCORE.RESTR.CAVITY>
0

>  <SCORE.RESTR.norm>
0

>  <SCORE.SYSTEM>
0

>  <SCORE.SYSTEM.CONST>
0

>  <SCORE.SYSTEM.DIHEDRAL>
0

>  <SCORE.SYSTEM.SOLV>
0

>  <SCORE.SYSTEM.norm>
0

>  <SCORE.heavy>
11

>  <SCORE.norm>
-1.99376

>  <RMSD>
3.444

$$$$

 OpenBabel11021811383D
libRbt.so/2013.1/901 2013/11/27
 11 10  0  0  0  0  0  0  0  0999 V2000
   -4.2996   -0.3951    2.0583 N   0  3  0  0  0  0  0  0  0  0  0  0
   -3.3690   -1.5091    1.7051 C   0  0  2  0  0  0  0  0  0  0  0  0
   -1.9309   -0.9727    1.6061 C   0  0  0  0  0  0  0  0  0  0  0  0
   -1.6803    0.0110    0.9353 O   0  0  0  0  0  0  0  0  0  0  0  0
   -3.7933   -2.1177    0.3618 C   0  0  0  0  0  0  0  0  0  0  0  0
   -5.0735   -2.9365    0.5504 C   0  0  0  0  0  0  0  0  0  0  0  0
   -5.6429   -3.3154   -0.8151 C   0  0  0  0  0  0  0  0  0  0  0  0
   -4.5618   -3.9153   -1.6442 N   0  3  0  0  0  0  0  0  0  0  0  0
   -4.0475   -3.2422   -2.6368 C   0  0  0  0  0  0  0  0  0  0  0  0
   -2.7827   -2.9101   -2.6103 N   0  0  0  0  0  0  0  0  0  0  0  0
   -4.7951   -2.9085   -3.6568 N   0  0  0  0  0  0  0  0  0  0  0  0
  2  1  1  6  0  0  0
  2  3  1  0  0  0  0
  2  5  1  0  0  0  0
  3  4  2  0  0  0  0
  5  6  1  0  0  0  0
  6  7  1  0  0  0  0
  7  8  1  0  0  0  0
  8  9  2  0  0  0  0
  9 10  1  0  0  0  0
  9 11  1  0  0  0  0
M  CHG  2   1   1   8   1
M  END
>  <CHROM.1>
-50.23693454,-50.36816704,-72.86016445,169.16320735,50.23673848,-107.14002909
-3.81396423,-2.16477494,-0.39067757,1.23263756,0.49145577,1.17874414

>  <Name>


>  <RI>
0

>  <Rbt.Current_Directory>
/home/itssahil/PROJECTS/Mol_Feturizer/New_Systems/rnas/1aju

>  <Rbt.Executable>
rbdock ($Id: //depot/dev/client3/rdock/2013.1/src/exe/rbdock.cxx#4 $)

>  <Rbt.Library>
libRbt.so (2013.1, Build901 2013/11/27)

>  <Rbt.Parameter_File>
/export/apps/rDock/src/rDock_2013.1_src/data/scripts/dock_solv.prm

>  <Rbt.Receptor>
prm/pocket_docking_6.prm

>  <SCORE>
-24.4193

>  <SCORE.INTER>
-24.3434

>  <SCORE.INTER.CONST>
1

>  <SCORE.INTER.POLAR>
-4.23184

>  <SCORE.INTER.ROT>
5

>  <SCORE.INTER.SOLV>
13.0892

>  <SCORE.INTER.VDW>
-13.4192

>  <SCORE.INTER.norm>
-2.21304

>  <SCORE.INTRA>
-0.0759165

>  <SCORE.INTRA.DIHEDRAL>
-2.7398

>  <SCORE.INTRA.DIHEDRAL.0>
9.90185

>  <SCORE.INTRA.POLAR>
0

>  <SCORE.INTRA.POLAR.0>
0

>  <SCORE.INTRA.REPUL>
0

>  <SCORE.INTRA.REPUL.0>
0

>  <SCORE.INTRA.SOLV>
2.83213

>  <SCORE.INTRA.SOLV.lig_0>
-53.6586

>  <SCORE.INTRA.VDW>
-0.122077

>  <SCORE.INTRA.VDW.0>
-0.556525

>  <SCORE.INTRA.norm>
-0.0069015

>  <SCORE.RESTR>
0

>  <SCORE.RESTR.CAVITY>
0

>  <SCORE.RESTR.norm>
0

>  <SCORE.SYSTEM>
0

>  <SCORE.SYSTEM.CONST>
0

>  <SCORE.SYSTEM.DIHEDRAL>
0

>  <SCORE.SYSTEM.SOLV>
0

>  <SCORE.SYSTEM.norm>
0

>  <SCORE.heavy>
11

>  <SCORE.norm>
-2.21994

>  <RMSD>
3.452

$$$$

 OpenBabel11021811383D
libRbt.so/2013.1/901 2013/11/27
 11 10  0  0  0  0  0  0  0  0999 V2000
   -3.9439    0.3193    2.1039 N   0  3  0  0  0  0  0  0  0  0  0  0
   -4.0466   -1.1669    1.9925 C   0  0  2  0  0  0  0  0  0  0  0  0
   -3.4307   -1.8249    3.2390 C   0  0  0  0  0  0  0  0  0  0  0  0
   -2.9689   -1.1445    4.1357 O   0  0  0  0  0  0  0  0  0  0  0  0
   -3.3029   -1.6337    0.7340 C   0  0  0  0  0  0  0  0  0  0  0  0
   -3.6687   -3.0897    0.4317 C   0  0  0  0  0  0  0  0  0  0  0  0
   -3.4426   -3.3754   -1.0515 C   0  0  0  0  0  0  0  0  0  0  0  0
   -4.5257   -2.7298   -1.8426 N   0  3  0  0  0  0  0  0  0  0  0  0
   -4.4278   -2.6463   -3.1412 C   0  0  0  0  0  0  0  0  0  0  0  0
   -5.2986   -3.2611   -3.8992 N   0  0  0  0  0  0  0  0  0  0  0  0
   -3.4653   -1.9436   -3.6800 N   0  0  0  0  0  0  0  0  0  0  0  0
  2  1  1  1  0  0  0
  2  3  1  0  0  0  0
  2  5  1  0  0  0  0
  3  4  2  0  0  0  0
  5  6  1  0  0  0  0
  6  7  1  0  0  0  0
  7  8  1  0  0  0  0
  8  9  2  0  0  0  0
  9 10  1  0  0  0  0
  9 11  1  0  0  0  0
M  CHG  2   1   1   8   1
M  END
>  <CHROM.1>
49.80974903,0.82041845,-166.94985732,156.30008536,-74.16283357,168.64840539
-3.87163543,-1.99795735,-0.09725394,0.58614442,-1.39488156,0.31776092

>  <Name>


>  <RI>
0

>  <Rbt.Current_Directory>
/home/itssahil/PROJECTS/Mol_Feturizer/New_Systems/rnas/1aju

>  <Rbt.Executable>
rbdock ($Id: //depot/dev/client3/rdock/2013.1/src/exe/rbdock.cxx#4 $)

>  <Rbt.Library>
libRbt.so (2013.1, Build901 2013/11/27)

>  <Rbt.Parameter_File>
/export/apps/rDock/src/rDock_2013.1_src/data/scripts/dock_solv.prm

>  <Rbt.Receptor>
prm/pocket_docking_6.prm

>  <SCORE>
-19.2425

>  <SCORE.INTER>
-18.5866

>  <SCORE.INTER.CONST>
1

>  <SCORE.INTER.POLAR>
-3.63763

>  <SCORE.INTER.ROT>
5

>  <SCORE.INTER.SOLV>
16.8729

>  <SCORE.INTER.VDW>
-12.8232

>  <SCORE.INTER.norm>
-1.68969

>  <SCORE.INTRA>
-0.655982

>  <SCORE.INTRA.DIHEDRAL>
-3.30058

>  <SCORE.INTRA.DIHEDRAL.0>
9.90185

>  <SCORE.INTRA.POLAR>
0

>  <SCORE.INTRA.POLAR.0>
0

>  <SCORE.INTRA.REPUL>
0

>  <SCORE.INTRA.REPUL.0>
0

>  <SCORE.INTRA.SOLV>
1.45831

>  <SCORE.INTRA.SOLV.lig_0>
-53.6586

>  <SCORE.INTRA.VDW>
0.265151

>  <SCORE.INTRA.VDW.0>
-0.556525

>  <SCORE.INTRA.norm>
-0.0596347

>  <SCORE.RESTR>
0

>  <SCORE.RESTR.CAVITY>
0

>  <SCORE.RESTR.norm>
0

>  <SCORE.SYSTEM>
0

>  <SCORE.SYSTEM.CONST>
0

>  <SCORE.SYSTEM.DIHEDRAL>
0

>  <SCORE.SYSTEM.SOLV>
0

>  <SCORE.SYSTEM.norm>
0

>  <SCORE.heavy>
11

>  <SCORE.norm>
-1.74932

>  <RMSD>
3.478

$$$$

 OpenBabel11021811383D
libRbt.so/2013.1/901 2013/11/27
 11 10  0  0  0  0  0  0  0  0999 V2000
   -5.3983   -3.8667    2.5122 N   0  3  0  0  0  0  0  0  0  0  0  0
   -5.0972   -4.3350    1.1260 C   0  0  2  0  0  0  0  0  0  0  0  0
   -3.9970   -5.4091    1.1682 C   0  0  0  0  0  0  0  0  0  0  0  0
   -4.1183   -6.4465    0.5441 O   0  0  0  0  0  0  0  0  0  0  0  0
   -4.6320   -3.1436    0.2781 C   0  0  0  0  0  0  0  0  0  0  0  0
   -5.7357   -2.7538   -0.7092 C   0  0  0  0  0  0  0  0  0  0  0  0
   -5.7714   -3.7595   -1.8581 C   0  0  0  0  0  0  0  0  0  0  0  0
   -4.3884   -3.9641   -2.3695 N   0  3  0  0  0  0  0  0  0  0  0  0
   -3.8231   -3.0524   -3.1124 C   0  0  0  0  0  0  0  0  0  0  0  0
   -2.7468   -2.4431   -2.6868 N   0  0  0  0  0  0  0  0  0  0  0  0
   -4.3291   -2.7562   -4.2816 N   0  0  0  0  0  0  0  0  0  0  0  0
  2  1  1  1  0  0  0
  2  3  1  0  0  0  0
  2  5  1  0  0  0  0
  3  4  2  0  0  0  0
  5  6  1  0  0  0  0
  6  7  1  0  0  0  0
  7  8  1  0  0  0  0
  8  9  2  0  0  0  0
  9 10  1  0  0  0  0
  9 11  1  0  0  0  0
M  CHG  2   1   1   8   1
M  END
>  <CHROM.1>
-68.36499435,132.88216899,-107.16420714,-76.00454751,-48.29560684,-75.38745560
-4.53789115,-3.81104637,-0.84092849,1.85761601,-0.97701076,2.17467979

>  <Name>


>  <RI>
0

>  <Rbt.Current_Directory>
/home/itssahil/PROJECTS/Mol_Feturizer/New_Systems/rnas/1aju

>  <Rbt.Executable>
rbdock ($Id: //depot/dev/client3/rdock/2013.1/src/exe/rbdock.cxx#4 $)

>  <Rbt.Library>
libRbt.so (2013.1, Build901 2013/11/27)

>  <Rbt.Parameter_File>
/export/apps/rDock/src/rDock_2013.1_src/data/scripts/dock_solv.prm

>  <Rbt.Receptor>
prm/pocket_docking_8.prm

>  <SCORE>
-15.3838

>  <SCORE.INTER>
-15.8968

>  <SCORE.INTER.CONST>
1

>  <SCORE.INTER.POLAR>
-3.14438

>  <SCORE.INTER.ROT>
5

>  <SCORE.INTER.SOLV>
13.4782

>  <SCORE.INTER.VDW>
-11.5427

>  <SCORE.INTER.norm>
-1.44516

>  <SCORE.INTRA>
0.512965

>  <SCORE.INTRA.DIHEDRAL>
-0.354958

>  <SCORE.INTRA.DIHEDRAL.0>
9.90185

>  <SCORE.INTRA.POLAR>
0

>  <SCORE.INTRA.POLAR.0>
0

>  <SCORE.INTRA.REPUL>
0

>  <SCORE.INTRA.REPUL.0>
0

>  <SCORE.INTRA.SOLV>
2.04412

>  <SCORE.INTRA.SOLV.lig_0>
-53.6586

>  <SCORE.INTRA.VDW>
-0.331616

>  <SCORE.INTRA.VDW.0>
-0.556525

>  <SCORE.INTRA.norm>
0.0466331

>  <SCORE.RESTR>
0

>  <SCORE.RESTR.CAVITY>
0

>  <SCORE.RESTR.norm>
0

>  <SCORE.SYSTEM>
0

>  <SCORE.SYSTEM.CONST>
0

>  <SCORE.SYSTEM.DIHEDRAL>
0

>  <SCORE.SYSTEM.SOLV>
0

>  <SCORE.SYSTEM.norm>
0

>  <SCORE.heavy>
11

>  <SCORE.norm>
-1.39853

>  <RMSD>
3.520

$$$$

 OpenBabel11021811383D
libRbt.so/2013.1/901 2013/11/27
 11 10  0  0  0  0  0  0  0  0999 V2000
   -5.3065   -3.5665    2.7935 N   0  3  0  0  0  0  0  0  0  0  0  0
   -3.9947   -2.8847    2.5786 C   0  0  2  0  0  0  0  0  0  0  0  0
   -3.9117   -1.6283    3.4619 C   0  0  0  0  0  0  0  0  0  0  0  0
   -3.6042   -0.5527    2.9836 O   0  0  0  0  0  0  0  0  0  0  0  0
   -3.8624   -2.4940    1.1006 C   0  0  0  0  0  0  0  0  0  0  0  0
   -3.6196   -3.7489    0.2573 C   0  0  0  0  0  0  0  0  0  0  0  0
   -3.2116   -3.3424   -1.1572 C   0  0  0  0  0  0  0  0  0  0  0  0
   -4.3946   -2.7770   -1.8620 N   0  3  0  0  0  0  0  0  0  0  0  0
   -4.3952   -2.6751   -3.1629 C   0  0  0  0  0  0  0  0  0  0  0  0
   -5.2668   -3.3498   -3.8670 N   0  0  0  0  0  0  0  0  0  0  0  0
   -3.5305   -1.8945   -3.7575 N   0  0  0  0  0  0  0  0  0  0  0  0
  2  1  1  6  0  0  0
  2  3  1  0  0  0  0
  2  5  1  0  0  0  0
  3  4  2  0  0  0  0
  5  6  1  0  0  0  0
  6  7  1  0  0  0  0
  7  8  1  0  0  0  0
  8  9  2  0  0  0  0
  9 10  1  0  0  0  0
  9 11  1  0  0  0  0
M  CHG  2   1   1   8   1
M  END
>  <CHROM.1>
64.25196807,-129.01988641,-72.56343067,-168.72933984,-71.27409350,-162.56975959
-4.13450030,-2.62606142,-0.07284286,1.51698234,1.06304812,1.51901925

>  <Name>


>  <RI>
0

>  <Rbt.Current_Directory>
/home/itssahil/PROJECTS/Mol_Feturizer/New_Systems/rnas/1aju

>  <Rbt.Executable>
rbdock ($Id: //depot/dev/client3/rdock/2013.1/src/exe/rbdock.cxx#4 $)

>  <Rbt.Library>
libRbt.so (2013.1, Build901 2013/11/27)

>  <Rbt.Parameter_File>
/export/apps/rDock/src/rDock_2013.1_src/data/scripts/dock_solv.prm

>  <Rbt.Receptor>
prm/pocket_docking_6.prm

>  <SCORE>
-16.6522

>  <SCORE.INTER>
-15.494

>  <SCORE.INTER.CONST>
1

>  <SCORE.INTER.POLAR>
-3.33146

>  <SCORE.INTER.ROT>
5

>  <SCORE.INTER.SOLV>
16.0021

>  <SCORE.INTER.VDW>
-11.4918

>  <SCORE.INTER.norm>
-1.40855

>  <SCORE.INTRA>
-1.16372

>  <SCORE.INTRA.DIHEDRAL>
-5.28571

>  <SCORE.INTRA.DIHEDRAL.0>
9.90185

>  <SCORE.INTRA.POLAR>
0

>  <SCORE.INTRA.POLAR.0>
0

>  <SCORE.INTRA.REPUL>
0

>  <SCORE.INTRA.REPUL.0>
0

>  <SCORE.INTRA.SOLV>
1.23656

>  <SCORE.INTRA.SOLV.lig_0>
-53.6586

>  <SCORE.INTRA.VDW>
0.860861

>  <SCORE.INTRA.VDW.0>
-0.556525

>  <SCORE.INTRA.norm>
-0.105792

>  <SCORE.RESTR>
0.00553205

>  <SCORE.RESTR.CAVITY>
0.00553205

>  <SCORE.RESTR.norm>
0.000502914

>  <SCORE.SYSTEM>
0

>  <SCORE.SYSTEM.CONST>
0

>  <SCORE.SYSTEM.DIHEDRAL>
0

>  <SCORE.SYSTEM.SOLV>
0

>  <SCORE.SYSTEM.norm>
0

>  <SCORE.heavy>
11

>  <SCORE.norm>
-1.51384

>  <RMSD>
3.532

$$$$

 OpenBabel11021811383D
libRbt.so/2013.1/901 2013/11/27
 11 10  0  0  0  0  0  0  0  0999 V2000
   -3.2734   -1.1836    1.4875 N   0  3  0  0  0  0  0  0  0  0  0  0
   -4.1681   -2.2363    2.0558 C   0  0  2  0  0  0  0  0  0  0  0  0
   -3.4654   -2.9357    3.2317 C   0  0  0  0  0  0  0  0  0  0  0  0
   -3.9820   -2.9683    4.3328 O   0  0  0  0  0  0  0  0  0  0  0  0
   -4.5036   -3.2606    0.9636 C   0  0  0  0  0  0  0  0  0  0  0  0
   -5.4416   -2.6247   -0.0663 C   0  0  0  0  0  0  0  0  0  0  0  0
   -5.8497   -3.6720   -1.1002 C   0  0  0  0  0  0  0  0  0  0  0  0
   -4.6460   -4.0935   -1.8680 N   0  3  0  0  0  0  0  0  0  0  0  0
   -4.0967   -3.2772   -2.7252 C   0  0  0  0  0  0  0  0  0  0  0  0
   -2.8734   -2.8573   -2.5304 N   0  0  0  0  0  0  0  0  0  0  0  0
   -4.7672   -2.8877   -3.7785 N   0  0  0  0  0  0  0  0  0  0  0  0
  2  1  1  6  0  0  0
  2  3  1  0  0  0  0
  2  5  1  0  0  0  0
  3  4  2  0  0  0  0
  5  6  1  0  0  0  0
  6  7  1  0  0  0  0
  7  8  1  0  0  0  0
  8  9  2  0  0  0  0
  9 10  1  0  0  0  0
  9 11  1  0  0  0  0
M  CHG  2   1   1   8   1
M  END
>  <CHROM.1>
61.91254336,123.37366332,-70.80091071,-176.20158311,-65.06532452,-71.37593481
-4.24620887,-2.88018325,-0.01330848,-1.45636932,-0.60303413,-1.61893881

>  <Name>


>  <RI>
0

>  <Rbt.Current_Directory>
/home/itssahil/PROJECTS/Mol_Feturizer/New_Systems/rnas/1aju

>  <Rbt.Executable>
rbdock ($Id: //depot/dev/client3/rdock/2013.1/src/exe/rbdock.cxx#4 $)

>  <Rbt.Library>
libRbt.so (2013.1, Build901 2013/11/27)

>  <Rbt.Parameter_File>
/export/apps/rDock/src/rDock_2013.1_src/data/scripts/dock_solv.prm

>  <Rbt.Receptor>
prm/pocket_docking_6.prm

>  <SCORE>
-17.2463

>  <SCORE.INTER>
-14.5921

>  <SCORE.INTER.CONST>
1

>  <SCORE.INTER.POLAR>
-2.45709

>  <SCORE.INTER.ROT>
5

>  <SCORE.INTER.SOLV>
11.3774

>  <SCORE.INTER.VDW>
-12.2635

>  <SCORE.INTER.norm>
-1.32655

>  <SCORE.INTRA>
-2.65427

>  <SCORE.INTRA.DIHEDRAL>
-6.33653

>  <SCORE.INTRA.DIHEDRAL.0>
9.90185

>  <SCORE.INTRA.POLAR>
0

>  <SCORE.INTRA.POLAR.0>
0

>  <SCORE.INTRA.REPUL>
0

>  <SCORE.INTRA.REPUL.0>
0

>  <SCORE.INTRA.SOLV>
2.02894

>  <SCORE.INTRA.SOLV.lig_0>
-53.6586

>  <SCORE.INTRA.VDW>
-0.500467

>  <SCORE.INTRA.VDW.0>
-0.556525

>  <SCORE.INTRA.norm>
-0.241297

>  <SCORE.RESTR>
0

>  <SCORE.RESTR.CAVITY>
0

>  <SCORE.RESTR.norm>
0

>  <SCORE.SYSTEM>
0

>  <SCORE.SYSTEM.CONST>
0

>  <SCORE.SYSTEM.DIHEDRAL>
0

>  <SCORE.SYSTEM.SOLV>
0

>  <SCORE.SYSTEM.norm>
0

>  <SCORE.heavy>
11

>  <SCORE.norm>
-1.56785

>  <RMSD>
3.563

$$$$

 OpenBabel11021811383D
libRbt.so/2013.1/901 2013/11/27
 11 10  0  0  0  0  0  0  0  0999 V2000
   -5.0307   -3.7155    2.6464 N   0  3  0  0  0  0  0  0  0  0  0  0
   -4.7245   -4.2653    1.2915 C   0  0  2  0  0  0  0  0  0  0  0  0
   -3.4441   -5.1153    1.3533 C   0  0  0  0  0  0  0  0  0  0  0  0
   -2.8657   -5.2902    2.4093 O   0  0  0  0  0  0  0  0  0  0  0  0
   -4.5346   -3.1055    0.3047 C   0  0  0  0  0  0  0  0  0  0  0  0
   -4.4069   -3.6574   -1.1179 C   0  0  0  0  0  0  0  0  0  0  0  0
   -4.2484   -2.5003   -2.1020 C   0  0  0  0  0  0  0  0  0  0  0  0
   -2.7991   -2.2602   -2.3423 N   0  3  0  0  0  0  0  0  0  0  0  0
   -1.9514   -2.3247   -1.3524 C   0  0  0  0  0  0  0  0  0  0  0  0
   -1.0113   -3.2341   -1.3603 N   0  0  0  0  0  0  0  0  0  0  0  0
   -2.0395   -1.4768   -0.3605 N   0  0  0  0  0  0  0  0  0  0  0  0
  2  1  1  1  0  0  0
  2  3  1  0  0  0  0
  2  5  1  0  0  0  0
  3  4  2  0  0  0  0
  5  6  1  0  0  0  0
  6  7  1  0  0  0  0
  7  8  1  0  0  0  0
  8  9  2  0  0  0  0
  9 10  1  0  0  0  0
  9 11  1  0  0  0  0
M  CHG  2   1   1   8   1
M  END
>  <CHROM.1>
-60.77529798,2.25953352,-172.47650031,178.78177945,94.10001271,-40.31196877
-3.34829019,-3.35023559,-0.00647174,1.95522259,-0.07229639,2.10881205

>  <Name>


>  <RI>
0

>  <Rbt.Current_Directory>
/home/itssahil/PROJECTS/Mol_Feturizer/New_Systems/rnas/1aju

>  <Rbt.Executable>
rbdock ($Id: //depot/dev/client3/rdock/2013.1/src/exe/rbdock.cxx#4 $)

>  <Rbt.Library>
libRbt.so (2013.1, Build901 2013/11/27)

>  <Rbt.Parameter_File>
/export/apps/rDock/src/rDock_2013.1_src/data/scripts/dock_solv.prm

>  <Rbt.Receptor>
prm/pocket_docking_8.prm

>  <SCORE>
-20.2433

>  <SCORE.INTER>
-20.5286

>  <SCORE.INTER.CONST>
1

>  <SCORE.INTER.POLAR>
-3.81481

>  <SCORE.INTER.ROT>
5

>  <SCORE.INTER.SOLV>
10.1432

>  <SCORE.INTER.VDW>
-11.2841

>  <SCORE.INTER.norm>
-1.86623

>  <SCORE.INTRA>
0.285302

>  <SCORE.INTRA.DIHEDRAL>
-3.43156

>  <SCORE.INTRA.DIHEDRAL.0>
9.90185

>  <SCORE.INTRA.POLAR>
0

>  <SCORE.INTRA.POLAR.0>
0

>  <SCORE.INTRA.REPUL>
0

>  <SCORE.INTRA.REPUL.0>
0

>  <SCORE.INTRA.SOLV>
2.54755

>  <SCORE.INTRA.SOLV.lig_0>
-53.6586

>  <SCORE.INTRA.VDW>
0.727305

>  <SCORE.INTRA.VDW.0>
-0.556525

>  <SCORE.INTRA.norm>
0.0259365

>  <SCORE.RESTR>
0

>  <SCORE.RESTR.CAVITY>
0

>  <SCORE.RESTR.norm>
0

>  <SCORE.SYSTEM>
0

>  <SCORE.SYSTEM.CONST>
0

>  <SCORE.SYSTEM.DIHEDRAL>
0

>  <SCORE.SYSTEM.SOLV>
0

>  <SCORE.SYSTEM.norm>
0

>  <SCORE.heavy>
11

>  <SCORE.norm>
-1.8403

>  <RMSD>
3.591

$$$$

 OpenBabel11021811383D
libRbt.so/2013.1/901 2013/11/27
 11 10  0  0  0  0  0  0  0  0999 V2000
   -0.4732   -3.0067   -1.9770 N   0  3  0  0  0  0  0  0  0  0  0  0
   -1.6669   -2.4708   -1.2562 C   0  0  2  0  0  0  0  0  0  0  0  0
   -1.5458   -2.7749    0.2467 C   0  0  0  0  0  0  0  0  0  0  0  0
   -0.5754   -3.3641    0.6844 O   0  0  0  0  0  0  0  0  0  0  0  0
   -2.9356   -3.1238   -1.8207 C   0  0  0  0  0  0  0  0  0  0  0  0
   -4.1608   -2.6069   -1.0613 C   0  0  0  0  0  0  0  0  0  0  0  0
   -5.3872   -3.4296   -1.4507 C   0  0  0  0  0  0  0  0  0  0  0  0
   -6.4592   -3.2139   -0.4407 N   0  3  0  0  0  0  0  0  0  0  0  0
   -6.8632   -4.2039    0.3073 C   0  0  0  0  0  0  0  0  0  0  0  0
   -6.6994   -4.1476    1.6038 N   0  0  0  0  0  0  0  0  0  0  0  0
   -7.4364   -5.2445   -0.2397 N   0  0  0  0  0  0  0  0  0  0  0  0
  2  1  1  6  0  0  0
  2  3  1  0  0  0  0
  2  5  1  0  0  0  0
  3  4  2  0  0  0  0
  5  6  1  0  0  0  0
  6  7  1  0  0  0  0
  7  8  1  0  0  0  0
  8  9  2  0  0  0  0
  9 10  1  0  0  0  0
  9 11  1  0  0  0  0
M  CHG  2   1   1   8   1
M  END
>  <CHROM.1>
64.39107401,0.41306422,178.50976211,-170.15962207,163.11167260,-115.11343583
-3.99445494,-3.44077925,-0.48385262,0.21768993,-0.18167097,-1.35791101

>  <Name>


>  <RI>
224

>  <Rbt.Current_Directory>
/home/itssahil/PROJECTS/Mol_Feturizer/New_Systems/rnas/1aju

>  <Rbt.Executable>
rbdock ($Id: //depot/dev/client3/rdock/2013.1/src/exe/rbdock.cxx#4 $)

>  <Rbt.Library>
libRbt.so (2013.1, Build901 2013/11/27)

>  <Rbt.Parameter_File>
/export/apps/rDock/src/rDock_2013.1_src/data/scripts/dock_solv.prm

>  <Rbt.Receptor>
prm/pocket_docking_5.prm

>  <SCORE>
-17.3029

>  <SCORE.INTER>
-15.6293

>  <SCORE.INTER.CONST>
1

>  <SCORE.INTER.POLAR>
-2.72599

>  <SCORE.INTER.ROT>
5

>  <SCORE.INTER.SOLV>
18.081

>  <SCORE.INTER.VDW>
-14.2933

>  <SCORE.INTER.norm>
-1.42085

>  <SCORE.INTRA>
-1.67357

>  <SCORE.INTRA.DIHEDRAL>
-5.47658

>  <SCORE.INTRA.DIHEDRAL.0>
9.90185

>  <SCORE.INTRA.POLAR>
0

>  <SCORE.INTRA.POLAR.0>
0

>  <SCORE.INTRA.REPUL>
0

>  <SCORE.INTRA.REPUL.0>
0

>  <SCORE.INTRA.SOLV>
1.00904

>  <SCORE.INTRA.SOLV.lig_0>
-53.6586

>  <SCORE.INTRA.VDW>
0.560196

>  <SCORE.INTRA.VDW.0>
-0.556525

>  <SCORE.INTRA.norm>
-0.152143

>  <SCORE.RESTR>
0

>  <SCORE.RESTR.CAVITY>
0

>  <SCORE.RESTR.norm>
0

>  <SCORE.SYSTEM>
0

>  <SCORE.SYSTEM.CONST>
0

>  <SCORE.SYSTEM.DIHEDRAL>
0

>  <SCORE.SYSTEM.SOLV>
0

>  <SCORE.SYSTEM.norm>
0

>  <SCORE.heavy>
11

>  <SCORE.norm>
-1.57299

>  <RMSD>
3.650

$$$$

 OpenBabel11021811383D
libRbt.so/2013.1/901 2013/11/27
 11 10  0  0  0  0  0  0  0  0999 V2000
   -6.1390   -4.1190    1.6999 N   0  3  0  0  0  0  0  0  0  0  0  0
   -5.3095   -3.8151    0.4952 C   0  0  2  0  0  0  0  0  0  0  0  0
   -5.4285   -4.9641   -0.5204 C   0  0  0  0  0  0  0  0  0  0  0  0
   -6.1856   -5.8948   -0.3186 O   0  0  0  0  0  0  0  0  0  0  0  0
   -3.8448   -3.6416    0.9187 C   0  0  0  0  0  0  0  0  0  0  0  0
   -3.2277   -2.4620    0.1620 C   0  0  0  0  0  0  0  0  0  0  0  0
   -3.0731   -2.8264   -1.3130 C   0  0  0  0  0  0  0  0  0  0  0  0
   -4.3059   -2.4268   -2.0454 N   0  3  0  0  0  0  0  0  0  0  0  0
   -4.3735   -2.5692   -3.3407 C   0  0  0  0  0  0  0  0  0  0  0  0
   -5.2579   -3.3811   -3.8598 N   0  0  0  0  0  0  0  0  0  0  0  0
   -3.5632   -1.8954   -4.1153 N   0  0  0  0  0  0  0  0  0  0  0  0
  2  1  1  1  0  0  0
  2  3  1  0  0  0  0
  2  5  1  0  0  0  0
  3  4  2  0  0  0  0
  5  6  1  0  0  0  0
  6  7  1  0  0  0  0
  7  8  1  0  0  0  0
  8  9  2  0  0  0  0
  9 10  1  0  0  0  0
  9 11  1  0  0  0  0
M  CHG  2   1   1   8   1
M  END
>  <CHROM.1>
-168.33763480,4.53820872,-138.71049089,-69.63792180,90.43542122,176.00445778
-4.65341090,-3.46904207,-1.11096536,-1.98175044,-0.75244809,-1.41939413

>  <Name>


>  <RI>
224

>  <Rbt.Current_Directory>
/home/itssahil/PROJECTS/Mol_Feturizer/New_Systems/rnas/1aju

>  <Rbt.Executable>
rbdock ($Id: //depot/dev/client3/rdock/2013.1/src/exe/rbdock.cxx#4 $)

>  <Rbt.Library>
libRbt.so (2013.1, Build901 2013/11/27)

>  <Rbt.Parameter_File>
/export/apps/rDock/src/rDock_2013.1_src/data/scripts/dock_solv.prm

>  <Rbt.Receptor>
prm/pocket_docking_5.prm

>  <SCORE>
-13.0885

>  <SCORE.INTER>
-14.6633

>  <SCORE.INTER.CONST>
1

>  <SCORE.INTER.POLAR>
-3.18125

>  <SCORE.INTER.ROT>
5

>  <SCORE.INTER.SOLV>
17.8393

>  <SCORE.INTER.VDW>
-12.0511

>  <SCORE.INTER.norm>
-1.33303

>  <SCORE.INTRA>
1.5748

>  <SCORE.INTRA.DIHEDRAL>
0.631295

>  <SCORE.INTRA.DIHEDRAL.0>
9.90185

>  <SCORE.INTRA.POLAR>
0

>  <SCORE.INTRA.POLAR.0>
0

>  <SCORE.INTRA.REPUL>
0

>  <SCORE.INTRA.REPUL.0>
0

>  <SCORE.INTRA.SOLV>
2.78208

>  <SCORE.INTRA.SOLV.lig_0>
-53.6586

>  <SCORE.INTRA.VDW>
-0.131889

>  <SCORE.INTRA.VDW.0>
-0.556525

>  <SCORE.INTRA.norm>
0.143163

>  <SCORE.RESTR>
0

>  <SCORE.RESTR.CAVITY>
0

>  <SCORE.RESTR.norm>
0

>  <SCORE.SYSTEM>
0

>  <SCORE.SYSTEM.CONST>
0

>  <SCORE.SYSTEM.DIHEDRAL>
0

>  <SCORE.SYSTEM.SOLV>
0

>  <SCORE.SYSTEM.norm>
0

>  <SCORE.heavy>
11

>  <SCORE.norm>
-1.18987

>  <RMSD>
3.686

$$$$

 OpenBabel11021811383D
libRbt.so/2013.1/901 2013/11/27
 11 10  0  0  0  0  0  0  0  0999 V2000
   -5.4688   -4.0461    2.4887 N   0  3  0  0  0  0  0  0  0  0  0  0
   -4.9665   -4.5892    1.1908 C   0  0  2  0  0  0  0  0  0  0  0  0
   -3.6269   -3.9235    0.8330 C   0  0  0  0  0  0  0  0  0  0  0  0
   -3.0831   -3.1646    1.6131 O   0  0  0  0  0  0  0  0  0  0  0  0
   -5.9992   -4.3099    0.0907 C   0  0  0  0  0  0  0  0  0  0  0  0
   -5.8014   -5.2981   -1.0622 C   0  0  0  0  0  0  0  0  0  0  0  0
   -4.6553   -4.8216   -1.9521 C   0  0  0  0  0  0  0  0  0  0  0  0
   -5.0114   -3.5009   -2.5395 N   0  3  0  0  0  0  0  0  0  0  0  0
   -4.1325   -2.8366   -3.2388 C   0  0  0  0  0  0  0  0  0  0  0  0
   -4.3588   -2.5925   -4.5037 N   0  0  0  0  0  0  0  0  0  0  0  0
   -3.0331   -2.4112   -2.6721 N   0  0  0  0  0  0  0  0  0  0  0  0
  2  1  1  1  0  0  0
  2  3  1  0  0  0  0
  2  5  1  0  0  0  0
  3  4  2  0  0  0  0
  5  6  1  0  0  0  0
  6  7  1  0  0  0  0
  7  8  1  0  0  0  0
  8  9  2  0  0  0  0
  9 10  1  0  0  0  0
  9 11  1  0  0  0  0
M  CHG  2   1   1   8   1
M  END
>  <CHROM.1>
-55.11198248,5.59705843,-157.47220431,-80.76257242,-62.17385246,173.66239269
-4.55051332,-3.73425829,-0.86111043,1.71165559,0.63689934,1.70929243

>  <Name>


>  <RI>
224

>  <Rbt.Current_Directory>
/home/itssahil/PROJECTS/Mol_Feturizer/New_Systems/rnas/1aju

>  <Rbt.Executable>
rbdock ($Id: //depot/dev/client3/rdock/2013.1/src/exe/rbdock.cxx#4 $)

>  <Rbt.Library>
libRbt.so (2013.1, Build901 2013/11/27)

>  <Rbt.Parameter_File>
/export/apps/rDock/src/rDock_2013.1_src/data/scripts/dock_solv.prm

>  <Rbt.Receptor>
prm/pocket_docking_5.prm

>  <SCORE>
-19.7569

>  <SCORE.INTER>
-19.4571

>  <SCORE.INTER.CONST>
1

>  <SCORE.INTER.POLAR>
-3.90574

>  <SCORE.INTER.ROT>
5

>  <SCORE.INTER.SOLV>
14.0671

>  <SCORE.INTER.VDW>
-11.5746

>  <SCORE.INTER.norm>
-1.76883

>  <SCORE.INTRA>
-0.299809

>  <SCORE.INTRA.DIHEDRAL>
-3.56713

>  <SCORE.INTRA.DIHEDRAL.0>
9.90185

>  <SCORE.INTRA.POLAR>
0

>  <SCORE.INTRA.POLAR.0>
0

>  <SCORE.INTRA.REPUL>
0

>  <SCORE.INTRA.REPUL.0>
0

>  <SCORE.INTRA.SOLV>
2.25894

>  <SCORE.INTRA.SOLV.lig_0>
-53.6586

>  <SCORE.INTRA.VDW>
0.354287

>  <SCORE.INTRA.VDW.0>
-0.556525

>  <SCORE.INTRA.norm>
-0.0272554

>  <SCORE.RESTR>
0

>  <SCORE.RESTR.CAVITY>
0

>  <SCORE.RESTR.norm>
0

>  <SCORE.SYSTEM>
0

>  <SCORE.SYSTEM.CONST>
0

>  <SCORE.SYSTEM.DIHEDRAL>
0

>  <SCORE.SYSTEM.SOLV>
0

>  <SCORE.SYSTEM.norm>
0

>  <SCORE.heavy>
11

>  <SCORE.norm>
-1.79608

>  <RMSD>
3.696

$$$$

 OpenBabel11021811383D
libRbt.so/2013.1/901 2013/11/27
 11 10  0  0  0  0  0  0  0  0999 V2000
   -6.1717   -4.2597    2.8915 N   0  3  0  0  0  0  0  0  0  0  0  0
   -4.8952   -4.6472    2.2192 C   0  0  2  0  0  0  0  0  0  0  0  0
   -3.7477   -4.6459    3.2435 C   0  0  0  0  0  0  0  0  0  0  0  0
   -3.9735   -4.4850    4.4281 O   0  0  0  0  0  0  0  0  0  0  0  0
   -4.5918   -3.6495    1.0934 C   0  0  0  0  0  0  0  0  0  0  0  0
   -5.6697   -3.7535    0.0108 C   0  0  0  0  0  0  0  0  0  0  0  0
   -5.4586   -2.6531   -1.0271 C   0  0  0  0  0  0  0  0  0  0  0  0
   -4.2986   -3.0118   -1.8883 N   0  3  0  0  0  0  0  0  0  0  0  0
   -4.3320   -2.7636   -3.1689 C   0  0  0  0  0  0  0  0  0  0  0  0
   -3.4730   -1.9268   -3.6911 N   0  0  0  0  0  0  0  0  0  0  0  0
   -5.2180   -3.3566   -3.9266 N   0  0  0  0  0  0  0  0  0  0  0  0
  2  1  1  1  0  0  0
  2  3  1  0  0  0  0
  2  5  1  0  0  0  0
  3  4  2  0  0  0  0
  5  6  1  0  0  0  0
  6  7  1  0  0  0  0
  7  8  1  0  0  0  0
  8  9  2  0  0  0  0
  9 10  1  0  0  0  0
  9 11  1  0  0  0  0
M  CHG  2   1   1   8   1
M  END
>  <CHROM.1>
-38.67703402,7.19518929,-64.94507778,173.50219241,74.86880786,141.11634116
-4.72876249,-3.55375690,0.02318048,1.60876226,0.19148453,1.82348160

>  <Name>


>  <RI>
0

>  <Rbt.Current_Directory>
/home/itssahil/PROJECTS/Mol_Feturizer/New_Systems/rnas/1aju

>  <Rbt.Executable>
rbdock ($Id: //depot/dev/client3/rdock/2013.1/src/exe/rbdock.cxx#4 $)

>  <Rbt.Library>
libRbt.so (2013.1, Build901 2013/11/27)

>  <Rbt.Parameter_File>
/export/apps/rDock/src/rDock_2013.1_src/data/scripts/dock_solv.prm

>  <Rbt.Receptor>
prm/pocket_docking_6.prm

>  <SCORE>
-16.9341

>  <SCORE.INTER>
-15.9753

>  <SCORE.INTER.CONST>
1

>  <SCORE.INTER.POLAR>
-3.3151

>  <SCORE.INTER.ROT>
5

>  <SCORE.INTER.SOLV>
15.9582

>  <SCORE.INTER.VDW>
-11.8526

>  <SCORE.INTER.norm>
-1.4523

>  <SCORE.INTRA>
-0.958812

>  <SCORE.INTRA.DIHEDRAL>
-4.73894

>  <SCORE.INTRA.DIHEDRAL.0>
9.90185

>  <SCORE.INTRA.POLAR>
0

>  <SCORE.INTRA.POLAR.0>
0

>  <SCORE.INTRA.REPUL>
0

>  <SCORE.INTRA.REPUL.0>
0

>  <SCORE.INTRA.SOLV>
2.60762

>  <SCORE.INTRA.SOLV.lig_0>
-53.6586

>  <SCORE.INTRA.VDW>
0.106848

>  <SCORE.INTRA.VDW.0>
-0.556525

>  <SCORE.INTRA.norm>
-0.0871647

>  <SCORE.RESTR>
0

>  <SCORE.RESTR.CAVITY>
0

>  <SCORE.RESTR.norm>
0

>  <SCORE.SYSTEM>
0

>  <SCORE.SYSTEM.CONST>
0

>  <SCORE.SYSTEM.DIHEDRAL>
0

>  <SCORE.SYSTEM.SOLV>
0

>  <SCORE.SYSTEM.norm>
0

>  <SCORE.heavy>
11

>  <SCORE.norm>
-1.53946

>  <RMSD>
3.725

$$$$

 OpenBabel11021811383D
libRbt.so/2013.1/901 2013/11/27
 11 10  0  0  0  0  0  0  0  0999 V2000
   -3.6410   -1.7073    1.1493 N   0  3  0  0  0  0  0  0  0  0  0  0
   -4.7103   -2.7065    1.4495 C   0  0  2  0  0  0  0  0  0  0  0  0
   -4.3364   -3.5042    2.7104 C   0  0  0  0  0  0  0  0  0  0  0  0
   -5.0861   -3.5385    3.6680 O   0  0  0  0  0  0  0  0  0  0  0  0
   -4.8646   -3.6582    0.2557 C   0  0  0  0  0  0  0  0  0  0  0  0
   -5.7827   -3.0229   -0.7922 C   0  0  0  0  0  0  0  0  0  0  0  0
   -5.8381   -3.9152   -2.0305 C   0  0  0  0  0  0  0  0  0  0  0  0
   -4.4581   -4.1079   -2.5542 N   0  3  0  0  0  0  0  0  0  0  0  0
   -3.8683   -3.1496   -3.2148 C   0  0  0  0  0  0  0  0  0  0  0  0
   -2.7800   -2.6046   -2.7359 N   0  0  0  0  0  0  0  0  0  0  0  0
   -4.3620   -2.7425   -4.3555 N   0  0  0  0  0  0  0  0  0  0  0  0
  2  1  1  6  0  0  0
  2  3  1  0  0  0  0
  2  5  1  0  0  0  0
  3  4  2  0  0  0  0
  5  6  1  0  0  0  0
  6  7  1  0  0  0  0
  7  8  1  0  0  0  0
  8  9  2  0  0  0  0
  9 10  1  0  0  0  0
  9 11  1  0  0  0  0
M  CHG  2   1   1   8   1
M  END
>  <CHROM.1>
-179.42812157,123.41834611,-83.75754479,175.09326684,-57.52148892,-75.88904393
-4.48473640,-3.11940979,-0.59129673,-1.67133191,-0.61208179,-1.63041824

>  <Name>


>  <RI>
0

>  <Rbt.Current_Directory>
/home/itssahil/PROJECTS/Mol_Feturizer/New_Systems/rnas/1aju

>  <Rbt.Executable>
rbdock ($Id: //depot/dev/client3/rdock/2013.1/src/exe/rbdock.cxx#4 $)

>  <Rbt.Library>
libRbt.so (2013.1, Build901 2013/11/27)

>  <Rbt.Parameter_File>
/export/apps/rDock/src/rDock_2013.1_src/data/scripts/dock_solv.prm

>  <Rbt.Receptor>
prm/pocket_docking_7.prm

>  <SCORE>
-20.1739

>  <SCORE.INTER>
-18.2753

>  <SCORE.INTER.CONST>
1

>  <SCORE.INTER.POLAR>
-3.50454

>  <SCORE.INTER.ROT>
5

>  <SCORE.INTER.SOLV>
13.7303

>  <SCORE.INTER.VDW>
-12.0119

>  <SCORE.INTER.norm>
-1.66139

>  <SCORE.INTRA>
-1.89856

>  <SCORE.INTRA.DIHEDRAL>
-5.02828

>  <SCORE.INTRA.DIHEDRAL.0>
9.90185

>  <SCORE.INTRA.POLAR>
0

>  <SCORE.INTRA.POLAR.0>
0

>  <SCORE.INTRA.REPUL>
0

>  <SCORE.INTRA.REPUL.0>
0

>  <SCORE.INTRA.SOLV>
2.64038

>  <SCORE.INTRA.SOLV.lig_0>
-53.6586

>  <SCORE.INTRA.VDW>
-0.704605

>  <SCORE.INTRA.VDW.0>
-0.556525

>  <SCORE.INTRA.norm>
-0.172596

>  <SCORE.RESTR>
0

>  <SCORE.RESTR.CAVITY>
0

>  <SCORE.RESTR.norm>
0

>  <SCORE.SYSTEM>
0

>  <SCORE.SYSTEM.CONST>
0

>  <SCORE.SYSTEM.DIHEDRAL>
0

>  <SCORE.SYSTEM.SOLV>
0

>  <SCORE.SYSTEM.norm>
0

>  <SCORE.heavy>
11

>  <SCORE.norm>
-1.83399

>  <RMSD>
3.793

$$$$

 OpenBabel11021811383D
libRbt.so/2013.1/901 2013/11/27
 11 10  0  0  0  0  0  0  0  0999 V2000
   -5.1616   -3.6782    1.9511 N   0  3  0  0  0  0  0  0  0  0  0  0
   -4.5313   -3.0604    0.7459 C   0  0  2  0  0  0  0  0  0  0  0  0
   -3.8264   -1.7518    1.1416 C   0  0  0  0  0  0  0  0  0  0  0  0
   -2.6335   -1.6073    0.9507 O   0  0  0  0  0  0  0  0  0  0  0  0
   -5.6148   -2.7738   -0.3024 C   0  0  0  0  0  0  0  0  0  0  0  0
   -6.0994   -4.0916   -0.9135 C   0  0  0  0  0  0  0  0  0  0  0  0
   -5.8816   -4.0639   -2.4249 C   0  0  0  0  0  0  0  0  0  0  0  0
   -4.4202   -4.0298   -2.7060 N   0  3  0  0  0  0  0  0  0  0  0  0
   -3.8766   -2.9603   -3.2193 C   0  0  0  0  0  0  0  0  0  0  0  0
   -2.9771   -2.2982   -2.5388 N   0  0  0  0  0  0  0  0  0  0  0  0
   -4.2270   -2.5583   -4.4136 N   0  0  0  0  0  0  0  0  0  0  0  0
  2  1  1  1  0  0  0
  2  3  1  0  0  0  0
  2  5  1  0  0  0  0
  3  4  2  0  0  0  0
  5  6  1  0  0  0  0
  6  7  1  0  0  0  0
  7  8  1  0  0  0  0
  8  9  2  0  0  0  0
  9 10  1  0  0  0  0
  9 11  1  0  0  0  0
M  CHG  2   1   1   8   1
M  END
>  <CHROM.1>
-59.45686825,121.01747611,-71.76259169,-121.70445323,65.84241613,-111.47999311
-4.45307471,-2.98713100,-1.04910480,1.58330791,0.63711746,1.48380964

>  <Name>


>  <RI>
224

>  <Rbt.Current_Directory>
/home/itssahil/PROJECTS/Mol_Feturizer/New_Systems/rnas/1aju

>  <Rbt.Executable>
rbdock ($Id: //depot/dev/client3/rdock/2013.1/src/exe/rbdock.cxx#4 $)

>  <Rbt.Library>
libRbt.so (2013.1, Build901 2013/11/27)

>  <Rbt.Parameter_File>
/export/apps/rDock/src/rDock_2013.1_src/data/scripts/dock_solv.prm

>  <Rbt.Receptor>
prm/pocket_docking_5.prm

>  <SCORE>
-19.7359

>  <SCORE.INTER>
-19.9896

>  <SCORE.INTER.CONST>
1

>  <SCORE.INTER.POLAR>
-3.12508

>  <SCORE.INTER.ROT>
5

>  <SCORE.INTER.SOLV>
14.5981

>  <SCORE.INTER.VDW>
-14.7089

>  <SCORE.INTER.norm>
-1.81724

>  <SCORE.INTRA>
0.253753

>  <SCORE.INTRA.DIHEDRAL>
-0.22354

>  <SCORE.INTRA.DIHEDRAL.0>
9.90185

>  <SCORE.INTRA.POLAR>
0

>  <SCORE.INTRA.POLAR.0>
0

>  <SCORE.INTRA.REPUL>
0

>  <SCORE.INTRA.REPUL.0>
0

>  <SCORE.INTRA.SOLV>
3.0381

>  <SCORE.INTRA.SOLV.lig_0>
-53.6586

>  <SCORE.INTRA.VDW>
-1.15352

>  <SCORE.INTRA.VDW.0>
-0.556525

>  <SCORE.INTRA.norm>
0.0230685

>  <SCORE.RESTR>
0

>  <SCORE.RESTR.CAVITY>
0

>  <SCORE.RESTR.norm>
0

>  <SCORE.SYSTEM>
0

>  <SCORE.SYSTEM.CONST>
0

>  <SCORE.SYSTEM.DIHEDRAL>
0

>  <SCORE.SYSTEM.SOLV>
0

>  <SCORE.SYSTEM.norm>
0

>  <SCORE.heavy>
11

>  <SCORE.norm>
-1.79417

>  <RMSD>
3.806

$$$$

 OpenBabel11021811383D
libRbt.so/2013.1/901 2013/11/27
 11 10  0  0  0  0  0  0  0  0999 V2000
   -3.4776   -6.4831    2.6939 N   0  3  0  0  0  0  0  0  0  0  0  0
   -4.0974   -5.3188    1.9925 C   0  0  2  0  0  0  0  0  0  0  0  0
   -5.5277   -5.0997    2.5143 C   0  0  0  0  0  0  0  0  0  0  0  0
   -6.4896   -5.3655    1.8183 O   0  0  0  0  0  0  0  0  0  0  0  0
   -4.1283   -5.5938    0.4832 C   0  0  0  0  0  0  0  0  0  0  0  0
   -4.5329   -4.3192   -0.2629 C   0  0  0  0  0  0  0  0  0  0  0  0
   -4.4933   -4.5745   -1.7682 C   0  0  0  0  0  0  0  0  0  0  0  0
   -4.8972   -3.3332   -2.4836 N   0  3  0  0  0  0  0  0  0  0  0  0
   -4.0345   -2.6946   -3.2257 C   0  0  0  0  0  0  0  0  0  0  0  0
   -4.2426   -2.5804   -4.5119 N   0  0  0  0  0  0  0  0  0  0  0  0
   -2.9696   -2.1652   -2.6811 N   0  0  0  0  0  0  0  0  0  0  0  0
  2  1  1  1  0  0  0
  2  3  1  0  0  0  0
  2  5  1  0  0  0  0
  3  4  2  0  0  0  0
  5  6  1  0  0  0  0
  6  7  1  0  0  0  0
  7  8  1  0  0  0  0
  8  9  2  0  0  0  0
  9 10  1  0  0  0  0
  9 11  1  0  0  0  0
M  CHG  2   1   1   8   1
M  END
>  <CHROM.1>
60.20840979,-108.29380493,-170.22837728,177.10685539,179.60744079,113.93209076
-4.43308325,-4.32868585,-0.49525419,-1.68173033,0.02207419,-1.07480042

>  <Name>


>  <RI>
0

>  <Rbt.Current_Directory>
/home/itssahil/PROJECTS/Mol_Feturizer/New_Systems/rnas/1aju

>  <Rbt.Executable>
rbdock ($Id: //depot/dev/client3/rdock/2013.1/src/exe/rbdock.cxx#4 $)

>  <Rbt.Library>
libRbt.so (2013.1, Build901 2013/11/27)

>  <Rbt.Parameter_File>
/export/apps/rDock/src/rDock_2013.1_src/data/scripts/dock_solv.prm

>  <Rbt.Receptor>
prm/pocket_docking_7.prm

>  <SCORE>
-15.3128

>  <SCORE.INTER>
-13.1961

>  <SCORE.INTER.CONST>
1

>  <SCORE.INTER.POLAR>
-2.97417

>  <SCORE.INTER.ROT>
5

>  <SCORE.INTER.SOLV>
12.8876

>  <SCORE.INTER.VDW>
-10.1127

>  <SCORE.INTER.norm>
-1.19964

>  <SCORE.INTRA>
-2.11674

>  <SCORE.INTRA.DIHEDRAL>
-6.34775

>  <SCORE.INTRA.DIHEDRAL.0>
9.90185

>  <SCORE.INTRA.POLAR>
0

>  <SCORE.INTRA.POLAR.0>
0

>  <SCORE.INTRA.REPUL>
0

>  <SCORE.INTRA.REPUL.0>
0

>  <SCORE.INTRA.SOLV>
0.466324

>  <SCORE.INTRA.SOLV.lig_0>
-53.6586

>  <SCORE.INTRA.VDW>
0.823974

>  <SCORE.INTRA.VDW.0>
-0.556525

>  <SCORE.INTRA.norm>
-0.192431

>  <SCORE.RESTR>
0

>  <SCORE.RESTR.CAVITY>
0

>  <SCORE.RESTR.norm>
0

>  <SCORE.SYSTEM>
0

>  <SCORE.SYSTEM.CONST>
0

>  <SCORE.SYSTEM.DIHEDRAL>
0

>  <SCORE.SYSTEM.SOLV>
0

>  <SCORE.SYSTEM.norm>
0

>  <SCORE.heavy>
11

>  <SCORE.norm>
-1.39207

>  <RMSD>
3.835

$$$$

 OpenBabel11021811383D
libRbt.so/2013.1/901 2013/11/27
 11 10  0  0  0  0  0  0  0  0999 V2000
   -5.0834   -3.2710    2.1506 N   0  3  0  0  0  0  0  0  0  0  0  0
   -5.3660   -3.5759    0.7157 C   0  0  2  0  0  0  0  0  0  0  0  0
   -6.6618   -4.3970    0.6047 C   0  0  0  0  0  0  0  0  0  0  0  0
   -6.9850   -4.9065   -0.4518 O   0  0  0  0  0  0  0  0  0  0  0  0
   -4.1925   -4.3691    0.1253 C   0  0  0  0  0  0  0  0  0  0  0  0
   -2.9778   -3.4499   -0.0304 C   0  0  0  0  0  0  0  0  0  0  0  0
   -2.7829   -3.1069   -1.5058 C   0  0  0  0  0  0  0  0  0  0  0  0
   -4.0688   -2.6054   -2.0633 N   0  3  0  0  0  0  0  0  0  0  0  0
   -4.2643   -2.5965   -3.3535 C   0  0  0  0  0  0  0  0  0  0  0  0
   -5.2165   -3.3286   -3.8713 N   0  0  0  0  0  0  0  0  0  0  0  0
   -3.5137   -1.8515   -4.1230 N   0  0  0  0  0  0  0  0  0  0  0  0
  2  1  1  1  0  0  0
  2  3  1  0  0  0  0
  2  5  1  0  0  0  0
  3  4  2  0  0  0  0
  5  6  1  0  0  0  0
  6  7  1  0  0  0  0
  7  8  1  0  0  0  0
  8  9  2  0  0  0  0
  9 10  1  0  0  0  0
  9 11  1  0  0  0  0
M  CHG  2   1   1   8   1
M  END
>  <CHROM.1>
-62.51777380,-170.09803494,-71.25559143,-105.75623997,51.50722777,-161.11836346
-4.66485382,-3.39546286,-1.07302375,-1.92786870,-0.39798401,-1.39930620

>  <Name>


>  <RI>
224

>  <Rbt.Current_Directory>
/home/itssahil/PROJECTS/Mol_Feturizer/New_Systems/rnas/1aju

>  <Rbt.Executable>
rbdock ($Id: //depot/dev/client3/rdock/2013.1/src/exe/rbdock.cxx#4 $)

>  <Rbt.Library>
libRbt.so (2013.1, Build901 2013/11/27)

>  <Rbt.Parameter_File>
/export/apps/rDock/src/rDock_2013.1_src/data/scripts/dock_solv.prm

>  <Rbt.Receptor>
prm/pocket_docking_5.prm

>  <SCORE>
-14.2539

>  <SCORE.INTER>
-16.5341

>  <SCORE.INTER.CONST>
1

>  <SCORE.INTER.POLAR>
-3.6244

>  <SCORE.INTER.ROT>
5

>  <SCORE.INTER.SOLV>
17.2433

>  <SCORE.INTER.VDW>
-11.6225

>  <SCORE.INTER.norm>
-1.5031

>  <SCORE.INTRA>
2.28026

>  <SCORE.INTRA.DIHEDRAL>
1.57679

>  <SCORE.INTRA.DIHEDRAL.0>
9.90185

>  <SCORE.INTRA.POLAR>
0

>  <SCORE.INTRA.POLAR.0>
0

>  <SCORE.INTRA.REPUL>
0

>  <SCORE.INTRA.REPUL.0>
0

>  <SCORE.INTRA.SOLV>
2.35197

>  <SCORE.INTRA.SOLV.lig_0>
-53.6586

>  <SCORE.INTRA.VDW>
0.31588

>  <SCORE.INTRA.VDW.0>
-0.556525

>  <SCORE.INTRA.norm>
0.207296

>  <SCORE.RESTR>
0

>  <SCORE.RESTR.CAVITY>
0

>  <SCORE.RESTR.norm>
0

>  <SCORE.SYSTEM>
0

>  <SCORE.SYSTEM.CONST>
0

>  <SCORE.SYSTEM.DIHEDRAL>
0

>  <SCORE.SYSTEM.SOLV>
0

>  <SCORE.SYSTEM.norm>
0

>  <SCORE.heavy>
11

>  <SCORE.norm>
-1.29581

>  <RMSD>
3.850

$$$$

 OpenBabel11021811383D
libRbt.so/2013.1/901 2013/11/27
 11 10  0  0  0  0  0  0  0  0999 V2000
   -4.6107   -1.8264    1.0728 N   0  3  0  0  0  0  0  0  0  0  0  0
   -5.1309   -3.0724    0.4337 C   0  0  2  0  0  0  0  0  0  0  0  0
   -6.0700   -3.8029    1.4085 C   0  0  0  0  0  0  0  0  0  0  0  0
   -5.6599   -4.7187    2.0965 O   0  0  0  0  0  0  0  0  0  0  0  0
   -3.9523   -3.9824    0.0629 C   0  0  0  0  0  0  0  0  0  0  0  0
   -4.4671   -5.2012   -0.7080 C   0  0  0  0  0  0  0  0  0  0  0  0
   -4.2071   -5.0083   -2.2006 C   0  0  0  0  0  0  0  0  0  0  0  0
   -4.7714   -3.6988   -2.6281 N   0  3  0  0  0  0  0  0  0  0  0  0
   -4.0258   -2.8428   -3.2716 C   0  0  0  0  0  0  0  0  0  0  0  0
   -4.3368   -2.5013   -4.4952 N   0  0  0  0  0  0  0  0  0  0  0  0
   -2.9755   -2.3243   -2.6896 N   0  0  0  0  0  0  0  0  0  0  0  0
  2  1  1  1  0  0  0
  2  3  1  0  0  0  0
  2  5  1  0  0  0  0
  3  4  2  0  0  0  0
  5  6  1  0  0  0  0
  6  7  1  0  0  0  0
  7  8  1  0  0  0  0
  8  9  2  0  0  0  0
  9 10  1  0  0  0  0
  9 11  1  0  0  0  0
M  CHG  2   1   1   8   1
M  END
>  <CHROM.1>
77.70007160,-96.83183396,-174.81009125,101.68951067,-52.87731775,127.51909135
-4.55118300,-3.49780258,-0.98515581,-2.64201226,-1.27146087,-2.44102098

>  <Name>


>  <RI>
224

>  <Rbt.Current_Directory>
/home/itssahil/PROJECTS/Mol_Feturizer/New_Systems/rnas/1aju

>  <Rbt.Executable>
rbdock ($Id: //depot/dev/client3/rdock/2013.1/src/exe/rbdock.cxx#4 $)

>  <Rbt.Library>
libRbt.so (2013.1, Build901 2013/11/27)

>  <Rbt.Parameter_File>
/export/apps/rDock/src/rDock_2013.1_src/data/scripts/dock_solv.prm

>  <Rbt.Receptor>
prm/pocket_docking_5.prm

>  <SCORE>
-21.3522

>  <SCORE.INTER>
-23.6301

>  <SCORE.INTER.CONST>
1

>  <SCORE.INTER.POLAR>
-4.68529

>  <SCORE.INTER.ROT>
5

>  <SCORE.INTER.SOLV>
17.2984

>  <SCORE.INTER.VDW>
-12.8352

>  <SCORE.INTER.norm>
-2.14819

>  <SCORE.INTRA>
2.27792

>  <SCORE.INTRA.DIHEDRAL>
-0.208928

>  <SCORE.INTRA.DIHEDRAL.0>
9.90185

>  <SCORE.INTRA.POLAR>
0

>  <SCORE.INTRA.POLAR.0>
0

>  <SCORE.INTRA.REPUL>
0

>  <SCORE.INTRA.REPUL.0>
0

>  <SCORE.INTRA.SOLV>
2.9361

>  <SCORE.INTRA.SOLV.lig_0>
-53.6586

>  <SCORE.INTRA.VDW>
0.914335

>  <SCORE.INTRA.VDW.0>
-0.556525

>  <SCORE.INTRA.norm>
0.207084

>  <SCORE.RESTR>
0

>  <SCORE.RESTR.CAVITY>
0

>  <SCORE.RESTR.norm>
0

>  <SCORE.SYSTEM>
0

>  <SCORE.SYSTEM.CONST>
0

>  <SCORE.SYSTEM.DIHEDRAL>
0

>  <SCORE.SYSTEM.SOLV>
0

>  <SCORE.SYSTEM.norm>
0

>  <SCORE.heavy>
11

>  <SCORE.norm>
-1.94111

>  <RMSD>
3.889

$$$$

 OpenBabel11021811383D
libRbt.so/2013.1/901 2013/11/27
 11 10  0  0  0  0  0  0  0  0999 V2000
   -5.4267   -3.9433    2.0885 N   0  3  0  0  0  0  0  0  0  0  0  0
   -4.5499   -3.4508    0.9838 C   0  0  2  0  0  0  0  0  0  0  0  0
   -3.6733   -2.2941    1.4930 C   0  0  0  0  0  0  0  0  0  0  0  0
   -3.9175   -1.1448    1.1772 O   0  0  0  0  0  0  0  0  0  0  0  0
   -5.4246   -2.9697   -0.1816 C   0  0  0  0  0  0  0  0  0  0  0  0
   -6.0625   -4.1756   -0.8770 C   0  0  0  0  0  0  0  0  0  0  0  0
   -5.8834   -4.0472   -2.3882 C   0  0  0  0  0  0  0  0  0  0  0  0
   -4.4295   -4.0418   -2.7077 N   0  3  0  0  0  0  0  0  0  0  0  0
   -3.8788   -2.9834   -3.2363 C   0  0  0  0  0  0  0  0  0  0  0  0
   -2.9489   -2.3387   -2.5804 N   0  0  0  0  0  0  0  0  0  0  0  0
   -4.2526   -2.5753   -4.4214 N   0  0  0  0  0  0  0  0  0  0  0  0
  2  1  1  1  0  0  0
  2  3  1  0  0  0  0
  2  5  1  0  0  0  0
  3  4  2  0  0  0  0
  5  6  1  0  0  0  0
  6  7  1  0  0  0  0
  7  8  1  0  0  0  0
  8  9  2  0  0  0  0
  9 10  1  0  0  0  0
  9 11  1  0  0  0  0
M  CHG  2   1   1   8   1
M  END
>  <CHROM.1>
175.87435331,-105.27872549,-71.69854834,-132.41931440,61.73786124,-115.68777389
-4.58072185,-3.07614218,-0.95397606,1.70811659,0.78053055,1.44351613

>  <Name>


>  <RI>
0

>  <Rbt.Current_Directory>
/home/itssahil/PROJECTS/Mol_Feturizer/New_Systems/rnas/1aju

>  <Rbt.Executable>
rbdock ($Id: //depot/dev/client3/rdock/2013.1/src/exe/rbdock.cxx#4 $)

>  <Rbt.Library>
libRbt.so (2013.1, Build901 2013/11/27)

>  <Rbt.Parameter_File>
/export/apps/rDock/src/rDock_2013.1_src/data/scripts/dock_solv.prm

>  <Rbt.Receptor>
prm/pocket_docking_4.prm

>  <SCORE>
-18.1522

>  <SCORE.INTER>
-19.2881

>  <SCORE.INTER.CONST>
1

>  <SCORE.INTER.POLAR>
-3.14218

>  <SCORE.INTER.ROT>
5

>  <SCORE.INTER.SOLV>
14.5025

>  <SCORE.INTER.VDW>
-14.1523

>  <SCORE.INTER.norm>
-1.75347

>  <SCORE.INTRA>
1.13594

>  <SCORE.INTRA.DIHEDRAL>
-0.536399

>  <SCORE.INTRA.DIHEDRAL.0>
9.90185

>  <SCORE.INTRA.POLAR>
0

>  <SCORE.INTRA.POLAR.0>
0

>  <SCORE.INTRA.REPUL>
0

>  <SCORE.INTRA.REPUL.0>
0

>  <SCORE.INTRA.SOLV>
2.73207

>  <SCORE.INTRA.SOLV.lig_0>
-53.6586

>  <SCORE.INTRA.VDW>
0.0381109

>  <SCORE.INTRA.VDW.0>
-0.556525

>  <SCORE.INTRA.norm>
0.103268

>  <SCORE.RESTR>
0

>  <SCORE.RESTR.CAVITY>
0

>  <SCORE.RESTR.norm>
0

>  <SCORE.SYSTEM>
0

>  <SCORE.SYSTEM.CONST>
0

>  <SCORE.SYSTEM.DIHEDRAL>
0

>  <SCORE.SYSTEM.SOLV>
0

>  <SCORE.SYSTEM.norm>
0

>  <SCORE.heavy>
11

>  <SCORE.norm>
-1.6502

>  <RMSD>
3.909

$$$$

 OpenBabel11021811383D
libRbt.so/2013.1/901 2013/11/27
 11 10  0  0  0  0  0  0  0  0999 V2000
   -4.6804   -2.8172    2.3053 N   0  3  0  0  0  0  0  0  0  0  0  0
   -5.2813   -3.9312    1.5118 C   0  0  2  0  0  0  0  0  0  0  0  0
   -5.2563   -5.2289    2.3372 C   0  0  0  0  0  0  0  0  0  0  0  0
   -6.2909   -5.7997    2.6275 O   0  0  0  0  0  0  0  0  0  0  0  0
   -4.4806   -4.1204    0.2165 C   0  0  0  0  0  0  0  0  0  0  0  0
   -5.2386   -5.0628   -0.7228 C   0  0  0  0  0  0  0  0  0  0  0  0
   -4.6940   -4.9158   -2.1420 C   0  0  0  0  0  0  0  0  0  0  0  0
   -5.0224   -3.5562   -2.6515 N   0  3  0  0  0  0  0  0  0  0  0  0
   -4.1301   -2.8711   -3.3126 C   0  0  0  0  0  0  0  0  0  0  0  0
   -4.3518   -2.5495   -4.5609 N   0  0  0  0  0  0  0  0  0  0  0  0
   -3.0217   -2.5024   -2.7242 N   0  0  0  0  0  0  0  0  0  0  0  0
  2  1  1  1  0  0  0
  2  3  1  0  0  0  0
  2  5  1  0  0  0  0
  3  4  2  0  0  0  0
  5  6  1  0  0  0  0
  6  7  1  0  0  0  0
  7  8  1  0  0  0  0
  8  9  2  0  0  0  0
  9 10  1  0  0  0  0
  9 11  1  0  0  0  0
M  CHG  2   1   1   8   1
M  END
>  <CHROM.1>
135.22052075,119.03129035,-169.05936515,162.44222973,-66.69551800,137.33717305
-4.76023583,-3.90035921,-0.63572792,-2.02140462,-1.04827218,-1.67115216

>  <Name>


>  <RI>
0

>  <Rbt.Current_Directory>
/home/itssahil/PROJECTS/Mol_Feturizer/New_Systems/rnas/1aju

>  <Rbt.Executable>
rbdock ($Id: //depot/dev/client3/rdock/2013.1/src/exe/rbdock.cxx#4 $)

>  <Rbt.Library>
libRbt.so (2013.1, Build901 2013/11/27)

>  <Rbt.Parameter_File>
/export/apps/rDock/src/rDock_2013.1_src/data/scripts/dock_solv.prm

>  <Rbt.Receptor>
prm/pocket_docking_8.prm

>  <SCORE>
-18.5317

>  <SCORE.INTER>
-18.4998

>  <SCORE.INTER.CONST>
1

>  <SCORE.INTER.POLAR>
-3.83393

>  <SCORE.INTER.ROT>
5

>  <SCORE.INTER.SOLV>
13.978

>  <SCORE.INTER.VDW>
-11.1461

>  <SCORE.INTER.norm>
-1.6818

>  <SCORE.INTRA>
-0.031917

>  <SCORE.INTRA.DIHEDRAL>
-2.07287

>  <SCORE.INTRA.DIHEDRAL.0>
9.90185

>  <SCORE.INTRA.POLAR>
0

>  <SCORE.INTRA.POLAR.0>
0

>  <SCORE.INTRA.REPUL>
0

>  <SCORE.INTRA.REPUL.0>
0

>  <SCORE.INTRA.SOLV>
0.804085

>  <SCORE.INTRA.SOLV.lig_0>
-53.6586

>  <SCORE.INTRA.VDW>
0.602477

>  <SCORE.INTRA.VDW.0>
-0.556525

>  <SCORE.INTRA.norm>
-0.00290154

>  <SCORE.RESTR>
0

>  <SCORE.RESTR.CAVITY>
0

>  <SCORE.RESTR.norm>
0

>  <SCORE.SYSTEM>
0

>  <SCORE.SYSTEM.CONST>
0

>  <SCORE.SYSTEM.DIHEDRAL>
0

>  <SCORE.SYSTEM.SOLV>
0

>  <SCORE.SYSTEM.norm>
0

>  <SCORE.heavy>
11

>  <SCORE.norm>
-1.6847

>  <RMSD>
3.934

$$$$

 OpenBabel11021811383D
libRbt.so/2013.1/901 2013/11/27
 11 10  0  0  0  0  0  0  0  0999 V2000
   -5.3374   -3.6298    2.7779 N   0  3  0  0  0  0  0  0  0  0  0  0
   -5.7174   -4.5931    1.7012 C   0  0  2  0  0  0  0  0  0  0  0  0
   -5.3071   -6.0178    2.1106 C   0  0  0  0  0  0  0  0  0  0  0  0
   -4.7810   -6.2268    3.1876 O   0  0  0  0  0  0  0  0  0  0  0  0
   -5.0107   -4.2004    0.3969 C   0  0  0  0  0  0  0  0  0  0  0  0
   -5.5281   -5.0728   -0.7503 C   0  0  0  0  0  0  0  0  0  0  0  0
   -4.6844   -4.8267   -1.9994 C   0  0  0  0  0  0  0  0  0  0  0  0
   -5.0268   -3.4923   -2.5634 N   0  3  0  0  0  0  0  0  0  0  0  0
   -4.1413   -2.8251   -3.2514 C   0  0  0  0  0  0  0  0  0  0  0  0
   -4.3654   -2.5566   -4.5117 N   0  0  0  0  0  0  0  0  0  0  0  0
   -3.0373   -2.4212   -2.6780 N   0  0  0  0  0  0  0  0  0  0  0  0
  2  1  1  1  0  0  0
  2  3  1  0  0  0  0
  2  5  1  0  0  0  0
  3  4  2  0  0  0  0
  5  6  1  0  0  0  0
  6  7  1  0  0  0  0
  7  8  1  0  0  0  0
  8  9  2  0  0  0  0
  9 10  1  0  0  0  0
  9 11  1  0  0  0  0
M  CHG  2   1   1   8   1
M  END
>  <CHROM.1>
65.66743623,1.36643549,-172.96037233,-171.72818315,-73.13006053,152.39666142
-4.79498538,-4.13125951,-0.48333440,-2.06668295,-1.21595631,-1.66789319

>  <Name>


>  <RI>
0

>  <Rbt.Current_Directory>
/home/itssahil/PROJECTS/Mol_Feturizer/New_Systems/rnas/1aju

>  <Rbt.Executable>
rbdock ($Id: //depot/dev/client3/rdock/2013.1/src/exe/rbdock.cxx#4 $)

>  <Rbt.Library>
libRbt.so (2013.1, Build901 2013/11/27)

>  <Rbt.Parameter_File>
/export/apps/rDock/src/rDock_2013.1_src/data/scripts/dock_solv.prm

>  <Rbt.Receptor>
prm/pocket_docking_6.prm

>  <SCORE>
-20.6985

>  <SCORE.INTER>
-18.8904

>  <SCORE.INTER.CONST>
1

>  <SCORE.INTER.POLAR>
-3.87915

>  <SCORE.INTER.ROT>
5

>  <SCORE.INTER.SOLV>
14.376

>  <SCORE.INTER.VDW>
-11.3884

>  <SCORE.INTER.norm>
-1.71731

>  <SCORE.INTRA>
-1.80817

>  <SCORE.INTRA.DIHEDRAL>
-5.73368

>  <SCORE.INTRA.DIHEDRAL.0>
9.90185

>  <SCORE.INTRA.POLAR>
0

>  <SCORE.INTRA.POLAR.0>
0

>  <SCORE.INTRA.REPUL>
0

>  <SCORE.INTRA.REPUL.0>
0

>  <SCORE.INTRA.SOLV>
1.55554

>  <SCORE.INTRA.SOLV.lig_0>
-53.6586

>  <SCORE.INTRA.VDW>
0.280904

>  <SCORE.INTRA.VDW.0>
-0.556525

>  <SCORE.INTRA.norm>
-0.164379

>  <SCORE.RESTR>
0

>  <SCORE.RESTR.CAVITY>
0

>  <SCORE.RESTR.norm>
0

>  <SCORE.SYSTEM>
0

>  <SCORE.SYSTEM.CONST>
0

>  <SCORE.SYSTEM.DIHEDRAL>
0

>  <SCORE.SYSTEM.SOLV>
0

>  <SCORE.SYSTEM.norm>
0

>  <SCORE.heavy>
11

>  <SCORE.norm>
-1.88168

>  <RMSD>
3.986

$$$$

 OpenBabel11021811383D
libRbt.so/2013.1/901 2013/11/27
 11 10  0  0  0  0  0  0  0  0999 V2000
   -5.1053   -3.6596    1.9030 N   0  3  0  0  0  0  0  0  0  0  0  0
   -4.5152   -2.9770    0.7124 C   0  0  2  0  0  0  0  0  0  0  0  0
   -3.8975   -1.6339    1.1370 C   0  0  0  0  0  0  0  0  0  0  0  0
   -3.9458   -1.2675    2.2962 O   0  0  0  0  0  0  0  0  0  0  0  0
   -5.6138   -2.7398   -0.3324 C   0  0  0  0  0  0  0  0  0  0  0  0
   -6.0867   -4.0834   -0.8944 C   0  0  0  0  0  0  0  0  0  0  0  0
   -5.8882   -4.1016   -2.4086 C   0  0  0  0  0  0  0  0  0  0  0  0
   -4.4307   -4.0680   -2.7094 N   0  3  0  0  0  0  0  0  0  0  0  0
   -3.8916   -2.9947   -3.2192 C   0  0  0  0  0  0  0  0  0  0  0  0
   -2.9811   -2.3416   -2.5444 N   0  0  0  0  0  0  0  0  0  0  0  0
   -4.2572   -2.5797   -4.4044 N   0  0  0  0  0  0  0  0  0  0  0  0
  2  1  1  1  0  0  0
  2  3  1  0  0  0  0
  2  5  1  0  0  0  0
  3  4  2  0  0  0  0
  5  6  1  0  0  0  0
  6  7  1  0  0  0  0
  7  8  1  0  0  0  0
  8  9  2  0  0  0  0
  9 10  1  0  0  0  0
  9 11  1  0  0  0  0
M  CHG  2   1   1   8   1
M  END
>  <CHROM.1>
-58.35628533,-0.57322184,-67.43244209,-121.81234769,66.33722725,-109.06719334
-4.58735558,-2.94741718,-0.92256540,1.62137636,0.75889141,1.38373482

>  <Name>


>  <RI>
0

>  <Rbt.Current_Directory>
/home/itssahil/PROJECTS/Mol_Feturizer/New_Systems/rnas/1aju

>  <Rbt.Executable>
rbdock ($Id: //depot/dev/client3/rdock/2013.1/src/exe/rbdock.cxx#4 $)

>  <Rbt.Library>
libRbt.so (2013.1, Build901 2013/11/27)

>  <Rbt.Parameter_File>
/export/apps/rDock/src/rDock_2013.1_src/data/scripts/dock_solv.prm

>  <Rbt.Receptor>
prm/pocket_docking_8.prm

>  <SCORE>
-19.288

>  <SCORE.INTER>
-20.1159

>  <SCORE.INTER.CONST>
1

>  <SCORE.INTER.POLAR>
-3.1132

>  <SCORE.INTER.ROT>
5

>  <SCORE.INTER.SOLV>
14.2762

>  <SCORE.INTER.VDW>
-14.7254

>  <SCORE.INTER.norm>
-1.82872

>  <SCORE.INTRA>
0.827931

>  <SCORE.INTRA.DIHEDRAL>
-0.47162

>  <SCORE.INTRA.DIHEDRAL.0>
9.90185

>  <SCORE.INTRA.POLAR>
0

>  <SCORE.INTRA.POLAR.0>
0

>  <SCORE.INTRA.REPUL>
0

>  <SCORE.INTRA.REPUL.0>
0

>  <SCORE.INTRA.SOLV>
3.78745

>  <SCORE.INTRA.SOLV.lig_0>
-53.6586

>  <SCORE.INTRA.VDW>
-0.829985

>  <SCORE.INTRA.VDW.0>
-0.556525

>  <SCORE.INTRA.norm>
0.0752664

>  <SCORE.RESTR>
0

>  <SCORE.RESTR.CAVITY>
0

>  <SCORE.RESTR.norm>
0

>  <SCORE.SYSTEM>
0

>  <SCORE.SYSTEM.CONST>
0

>  <SCORE.SYSTEM.DIHEDRAL>
0

>  <SCORE.SYSTEM.SOLV>
0

>  <SCORE.SYSTEM.norm>
0

>  <SCORE.heavy>
11

>  <SCORE.norm>
-1.75346

>  <RMSD>
4.000

$$$$

 OpenBabel11021811383D
libRbt.so/2013.1/901 2013/11/27
 11 10  0  0  0  0  0  0  0  0999 V2000
   -1.4214    0.7454    3.9564 N   0  3  0  0  0  0  0  0  0  0  0  0
   -2.3060   -0.4485    3.8029 C   0  0  2  0  0  0  0  0  0  0  0  0
   -1.9722   -1.4853    4.8889 C   0  0  0  0  0  0  0  0  0  0  0  0
   -2.8308   -1.8793    5.6556 O   0  0  0  0  0  0  0  0  0  0  0  0
   -2.0936   -1.0616    2.4123 C   0  0  0  0  0  0  0  0  0  0  0  0
   -3.1739   -2.1132    2.1442 C   0  0  0  0  0  0  0  0  0  0  0  0
   -2.8984   -2.7988    0.8076 C   0  0  0  0  0  0  0  0  0  0  0  0
   -2.9885   -1.7913   -0.2845 N   0  3  0  0  0  0  0  0  0  0  0  0
   -2.4026   -2.0119   -1.4293 C   0  0  0  0  0  0  0  0  0  0  0  0
   -3.1211   -2.1179   -2.5171 N   0  0  0  0  0  0  0  0  0  0  0  0
   -1.1003   -2.1191   -1.4869 N   0  0  0  0  0  0  0  0  0  0  0  0
  2  1  1  1  0  0  0
  2  3  1  0  0  0  0
  2  5  1  0  0  0  0
  3  4  2  0  0  0  0
  5  6  1  0  0  0  0
  6  7  1  0  0  0  0
  7  8  1  0  0  0  0
  8  9  2  0  0  0  0
  9 10  1  0  0  0  0
  9 11  1  0  0  0  0
M  CHG  2   1   1   8   1
M  END
>  <CHROM.1>
-60.32688367,122.90203412,-169.34118947,-175.62818387,-63.09279544,158.52146600
-2.37518151,-1.52145302,1.62303475,-1.49991461,-0.94564822,-1.71044656

>  <Name>


>  <RI>
0

>  <Rbt.Current_Directory>
/home/itssahil/PROJECTS/Mol_Feturizer/New_Systems/rnas/1aju

>  <Rbt.Executable>
rbdock ($Id: //depot/dev/client3/rdock/2013.1/src/exe/rbdock.cxx#4 $)

>  <Rbt.Library>
libRbt.so (2013.1, Build901 2013/11/27)

>  <Rbt.Parameter_File>
/export/apps/rDock/src/rDock_2013.1_src/data/scripts/dock_solv.prm

>  <Rbt.Receptor>
prm/pocket_docking_6.prm

>  <SCORE>
-14.7897

>  <SCORE.INTER>
-11.9854

>  <SCORE.INTER.CONST>
1

>  <SCORE.INTER.POLAR>
-3.08888

>  <SCORE.INTER.ROT>
5

>  <SCORE.INTER.SOLV>
10.8326

>  <SCORE.INTER.VDW>
-8.23823

>  <SCORE.INTER.norm>
-1.08959

>  <SCORE.INTRA>
-2.80427

>  <SCORE.INTRA.DIHEDRAL>
-6.3803

>  <SCORE.INTRA.DIHEDRAL.0>
9.90185

>  <SCORE.INTRA.POLAR>
0

>  <SCORE.INTRA.POLAR.0>
0

>  <SCORE.INTRA.REPUL>
0

>  <SCORE.INTRA.REPUL.0>
0

>  <SCORE.INTRA.SOLV>
0.508016

>  <SCORE.INTRA.SOLV.lig_0>
-53.6586

>  <SCORE.INTRA.VDW>
0.131871

>  <SCORE.INTRA.VDW.0>
-0.556525

>  <SCORE.INTRA.norm>
-0.254934

>  <SCORE.RESTR>
0

>  <SCORE.RESTR.CAVITY>
0

>  <SCORE.RESTR.norm>
0

>  <SCORE.SYSTEM>
0

>  <SCORE.SYSTEM.CONST>
0

>  <SCORE.SYSTEM.DIHEDRAL>
0

>  <SCORE.SYSTEM.SOLV>
0

>  <SCORE.SYSTEM.norm>
0

>  <SCORE.heavy>
11

>  <SCORE.norm>
-1.34452

>  <RMSD>
4.013

$$$$

 OpenBabel11021811383D
libRbt.so/2013.1/901 2013/11/27
 11 10  0  0  0  0  0  0  0  0999 V2000
   -4.5969   -1.7036    3.7747 N   0  3  0  0  0  0  0  0  0  0  0  0
   -3.9296   -1.4516    2.4622 C   0  0  2  0  0  0  0  0  0  0  0  0
   -4.1193    0.0200    2.0573 C   0  0  0  0  0  0  0  0  0  0  0  0
   -4.8182    0.7615    2.7221 O   0  0  0  0  0  0  0  0  0  0  0  0
   -4.5433   -2.3699    1.3968 C   0  0  0  0  0  0  0  0  0  0  0  0
   -3.7666   -2.2253    0.0850 C   0  0  0  0  0  0  0  0  0  0  0  0
   -4.5351   -2.9126   -1.0417 C   0  0  0  0  0  0  0  0  0  0  0  0
   -3.6359   -3.0739   -2.2170 N   0  3  0  0  0  0  0  0  0  0  0  0
   -4.0559   -2.7579   -3.4114 C   0  0  0  0  0  0  0  0  0  0  0  0
   -3.4710   -1.7921   -4.0714 N   0  0  0  0  0  0  0  0  0  0  0  0
   -5.0542   -3.4116   -3.9471 N   0  0  0  0  0  0  0  0  0  0  0  0
  2  1  1  1  0  0  0
  2  3  1  0  0  0  0
  2  5  1  0  0  0  0
  3  4  2  0  0  0  0
  5  6  1  0  0  0  0
  6  7  1  0  0  0  0
  7  8  1  0  0  0  0
  8  9  2  0  0  0  0
  9 10  1  0  0  0  0
  9 11  1  0  0  0  0
M  CHG  2   1   1   8   1
M  END
>  <CHROM.1>
-173.76393323,-5.30600360,-174.03231965,-168.67485623,-165.73628145,-133.63772117
-4.24479819,-1.89562141,-0.18575239,1.92763346,1.43584077,0.90970385

>  <Name>


>  <RI>
0

>  <Rbt.Current_Directory>
/home/itssahil/PROJECTS/Mol_Feturizer/New_Systems/rnas/1aju

>  <Rbt.Executable>
rbdock ($Id: //depot/dev/client3/rdock/2013.1/src/exe/rbdock.cxx#4 $)

>  <Rbt.Library>
libRbt.so (2013.1, Build901 2013/11/27)

>  <Rbt.Parameter_File>
/export/apps/rDock/src/rDock_2013.1_src/data/scripts/dock_solv.prm

>  <Rbt.Receptor>
prm/pocket_docking_7.prm

>  <SCORE>
-17.9715

>  <SCORE.INTER>
-16.06

>  <SCORE.INTER.CONST>
1

>  <SCORE.INTER.POLAR>
-3.36394

>  <SCORE.INTER.ROT>
5

>  <SCORE.INTER.SOLV>
15.5914

>  <SCORE.INTER.VDW>
-11.624

>  <SCORE.INTER.norm>
-1.46

>  <SCORE.INTRA>
-1.91144

>  <SCORE.INTRA.DIHEDRAL>
-5.45866

>  <SCORE.INTRA.DIHEDRAL.0>
9.90185

>  <SCORE.INTRA.POLAR>
0

>  <SCORE.INTRA.POLAR.0>
0

>  <SCORE.INTRA.REPUL>
0

>  <SCORE.INTRA.REPUL.0>
0

>  <SCORE.INTRA.SOLV>
0.967869

>  <SCORE.INTRA.SOLV.lig_0>
-53.6586

>  <SCORE.INTRA.VDW>
0.333955

>  <SCORE.INTRA.VDW.0>
-0.556525

>  <SCORE.INTRA.norm>
-0.173767

>  <SCORE.RESTR>
0

>  <SCORE.RESTR.CAVITY>
0

>  <SCORE.RESTR.norm>
0

>  <SCORE.SYSTEM>
0

>  <SCORE.SYSTEM.CONST>
0

>  <SCORE.SYSTEM.DIHEDRAL>
0

>  <SCORE.SYSTEM.SOLV>
0

>  <SCORE.SYSTEM.norm>
0

>  <SCORE.heavy>
11

>  <SCORE.norm>
-1.63377

>  <RMSD>
4.069

$$$$

 OpenBabel11021811383D
libRbt.so/2013.1/901 2013/11/27
 11 10  0  0  0  0  0  0  0  0999 V2000
   -4.1047   -8.4985   -0.0768 N   0  3  0  0  0  0  0  0  0  0  0  0
   -4.1705   -7.0086   -0.1627 C   0  0  2  0  0  0  0  0  0  0  0  0
   -3.5672   -6.3879    1.1088 C   0  0  0  0  0  0  0  0  0  0  0  0
   -3.0663   -7.0919    1.9654 O   0  0  0  0  0  0  0  0  0  0  0  0
   -5.6344   -6.5735   -0.3126 C   0  0  0  0  0  0  0  0  0  0  0  0
   -5.6935   -5.0902   -0.6885 C   0  0  0  0  0  0  0  0  0  0  0  0
   -5.1502   -4.9001   -2.1031 C   0  0  0  0  0  0  0  0  0  0  0  0
   -5.1242   -3.4467   -2.4238 N   0  3  0  0  0  0  0  0  0  0  0  0
   -4.1991   -2.9654   -3.2082 C   0  0  0  0  0  0  0  0  0  0  0  0
   -4.5334   -2.4229   -4.3504 N   0  0  0  0  0  0  0  0  0  0  0  0
   -2.9431   -3.0201   -2.8474 N   0  0  0  0  0  0  0  0  0  0  0  0
  2  1  1  1  0  0  0
  2  3  1  0  0  0  0
  2  5  1  0  0  0  0
  3  4  2  0  0  0  0
  5  6  1  0  0  0  0
  6  7  1  0  0  0  0
  7  8  1  0  0  0  0
  8  9  2  0  0  0  0
  9 10  1  0  0  0  0
  9 11  1  0  0  0  0
M  CHG  2   1   1   8   1
M  END
>  <CHROM.1>
-60.19415937,3.75356196,-168.42473046,68.47998818,-176.13558851,147.67651138
-4.35618210,-5.24024434,-1.19526473,1.50438689,0.38678084,2.41631261

>  <Name>


>  <RI>
0

>  <Rbt.Current_Directory>
/home/itssahil/PROJECTS/Mol_Feturizer/New_Systems/rnas/1aju

>  <Rbt.Executable>
rbdock ($Id: //depot/dev/client3/rdock/2013.1/src/exe/rbdock.cxx#4 $)

>  <Rbt.Library>
libRbt.so (2013.1, Build901 2013/11/27)

>  <Rbt.Parameter_File>
/export/apps/rDock/src/rDock_2013.1_src/data/scripts/dock_solv.prm

>  <Rbt.Receptor>
prm/pocket_docking_6.prm

>  <SCORE>
-12.5031

>  <SCORE.INTER>
-10.5858

>  <SCORE.INTER.CONST>
1

>  <SCORE.INTER.POLAR>
-2.50803

>  <SCORE.INTER.ROT>
5

>  <SCORE.INTER.SOLV>
11.224

>  <SCORE.INTER.VDW>
-9.37174

>  <SCORE.INTER.norm>
-0.962342

>  <SCORE.INTRA>
-1.91735

>  <SCORE.INTRA.DIHEDRAL>
-6.06038

>  <SCORE.INTRA.DIHEDRAL.0>
9.90185

>  <SCORE.INTRA.POLAR>
0

>  <SCORE.INTRA.POLAR.0>
0

>  <SCORE.INTRA.REPUL>
0

>  <SCORE.INTRA.REPUL.0>
0

>  <SCORE.INTRA.SOLV>
1.13005

>  <SCORE.INTRA.SOLV.lig_0>
-53.6586

>  <SCORE.INTRA.VDW>
0.547818

>  <SCORE.INTRA.VDW.0>
-0.556525

>  <SCORE.INTRA.norm>
-0.174304

>  <SCORE.RESTR>
0

>  <SCORE.RESTR.CAVITY>
0

>  <SCORE.RESTR.norm>
0

>  <SCORE.SYSTEM>
0

>  <SCORE.SYSTEM.CONST>
0

>  <SCORE.SYSTEM.DIHEDRAL>
0

>  <SCORE.SYSTEM.SOLV>
0

>  <SCORE.SYSTEM.norm>
0

>  <SCORE.heavy>
11

>  <SCORE.norm>
-1.13665

>  <RMSD>
4.107

$$$$

 OpenBabel11021811383D
libRbt.so/2013.1/901 2013/11/27
 11 10  0  0  0  0  0  0  0  0999 V2000
   -6.3262   -4.3896    1.9479 N   0  3  0  0  0  0  0  0  0  0  0  0
   -5.9832   -3.8067    0.6159 C   0  0  2  0  0  0  0  0  0  0  0  0
   -7.0845   -4.1514   -0.4010 C   0  0  0  0  0  0  0  0  0  0  0  0
   -6.8106   -4.3459   -1.5703 O   0  0  0  0  0  0  0  0  0  0  0  0
   -4.6391   -4.3771    0.1437 C   0  0  0  0  0  0  0  0  0  0  0  0
   -3.5740   -3.2775    0.1784 C   0  0  0  0  0  0  0  0  0  0  0  0
   -3.1613   -2.9214   -1.2483 C   0  0  0  0  0  0  0  0  0  0  0  0
   -4.3613   -2.4685   -2.0038 N   0  3  0  0  0  0  0  0  0  0  0  0
   -4.3978   -2.5802   -3.3034 C   0  0  0  0  0  0  0  0  0  0  0  0
   -5.2915   -3.3532   -3.8642 N   0  0  0  0  0  0  0  0  0  0  0  0
   -3.5469   -1.9144   -4.0406 N   0  0  0  0  0  0  0  0  0  0  0  0
  2  1  1  1  0  0  0
  2  3  1  0  0  0  0
  2  5  1  0  0  0  0
  3  4  2  0  0  0  0
  5  6  1  0  0  0  0
  6  7  1  0  0  0  0
  7  8  1  0  0  0  0
  8  9  2  0  0  0  0
  9 10  1  0  0  0  0
  9 11  1  0  0  0  0
M  CHG  2   1   1   8   1
M  END
>  <CHROM.1>
176.88833764,-146.36125817,-110.32902687,-111.49383073,58.66806948,-154.64923968
-5.03907677,-3.42535185,-1.23666160,-1.99903639,-0.37735309,-1.35704470

>  <Name>


>  <RI>
224

>  <Rbt.Current_Directory>
/home/itssahil/PROJECTS/Mol_Feturizer/New_Systems/rnas/1aju

>  <Rbt.Executable>
rbdock ($Id: //depot/dev/client3/rdock/2013.1/src/exe/rbdock.cxx#4 $)

>  <Rbt.Library>
libRbt.so (2013.1, Build901 2013/11/27)

>  <Rbt.Parameter_File>
/export/apps/rDock/src/rDock_2013.1_src/data/scripts/dock_solv.prm

>  <Rbt.Receptor>
prm/pocket_docking_5.prm

>  <SCORE>
-14.1306

>  <SCORE.INTER>
-14.0315

>  <SCORE.INTER.CONST>
1

>  <SCORE.INTER.POLAR>
-2.55754

>  <SCORE.INTER.ROT>
5

>  <SCORE.INTER.SOLV>
17.9653

>  <SCORE.INTER.VDW>
-13.751

>  <SCORE.INTER.norm>
-1.27559

>  <SCORE.INTRA>
-0.0990358

>  <SCORE.INTRA.DIHEDRAL>
4.75359

>  <SCORE.INTRA.DIHEDRAL.0>
9.90185

>  <SCORE.INTRA.POLAR>
-1.07001

>  <SCORE.INTRA.POLAR.0>
0

>  <SCORE.INTRA.REPUL>
0

>  <SCORE.INTRA.REPUL.0>
0

>  <SCORE.INTRA.SOLV>
3.21469

>  <SCORE.INTRA.SOLV.lig_0>
-53.6586

>  <SCORE.INTRA.VDW>
-0.445155

>  <SCORE.INTRA.VDW.0>
-0.556525

>  <SCORE.INTRA.norm>
-0.00900325

>  <SCORE.RESTR>
0

>  <SCORE.RESTR.CAVITY>
0

>  <SCORE.RESTR.norm>
0

>  <SCORE.SYSTEM>
0

>  <SCORE.SYSTEM.CONST>
0

>  <SCORE.SYSTEM.DIHEDRAL>
0

>  <SCORE.SYSTEM.SOLV>
0

>  <SCORE.SYSTEM.norm>
0

>  <SCORE.heavy>
11

>  <SCORE.norm>
-1.2846

>  <RMSD>
4.253

$$$$

 OpenBabel11021811383D
libRbt.so/2013.1/901 2013/11/27
 11 10  0  0  0  0  0  0  0  0999 V2000
   -4.3111   -1.9943    0.8852 N   0  3  0  0  0  0  0  0  0  0  0  0
   -4.2782   -3.0940   -0.1254 C   0  0  2  0  0  0  0  0  0  0  0  0
   -2.8702   -3.1963   -0.7359 C   0  0  0  0  0  0  0  0  0  0  0  0
   -2.2526   -4.2439   -0.6995 O   0  0  0  0  0  0  0  0  0  0  0  0
   -5.3055   -2.8011   -1.2271 C   0  0  0  0  0  0  0  0  0  0  0  0
   -5.6641   -4.1006   -1.9535 C   0  0  0  0  0  0  0  0  0  0  0  0
   -6.5495   -4.9605   -1.0540 C   0  0  0  0  0  0  0  0  0  0  0  0
   -7.0830   -6.1034   -1.8447 N   0  3  0  0  0  0  0  0  0  0  0  0
   -8.1161   -5.9354   -2.6240 C   0  0  0  0  0  0  0  0  0  0  0  0
   -7.9902   -6.1037   -3.9149 N   0  0  0  0  0  0  0  0  0  0  0  0
   -9.2740   -5.6067   -2.1122 N   0  0  0  0  0  0  0  0  0  0  0  0
  2  1  1  1  0  0  0
  2  3  1  0  0  0  0
  2  5  1  0  0  0  0
  3  4  2  0  0  0  0
  5  6  1  0  0  0  0
  6  7  1  0  0  0  0
  7  8  1  0  0  0  0
  8  9  2  0  0  0  0
  9 10  1  0  0  0  0
  9 11  1  0  0  0  0
M  CHG  2   1   1   8   1
M  END
>  <CHROM.1>
178.63491783,123.98507825,-158.91141595,73.35924656,170.36492555,-80.87742225
-5.79888491,-4.37343138,-1.38773594,0.67818163,0.00996311,0.73410203

>  <Name>


>  <RI>
224

>  <Rbt.Current_Directory>
/home/itssahil/PROJECTS/Mol_Feturizer/New_Systems/rnas/1aju

>  <Rbt.Executable>
rbdock ($Id: //depot/dev/client3/rdock/2013.1/src/exe/rbdock.cxx#4 $)

>  <Rbt.Library>
libRbt.so (2013.1, Build901 2013/11/27)

>  <Rbt.Parameter_File>
/export/apps/rDock/src/rDock_2013.1_src/data/scripts/dock_solv.prm

>  <Rbt.Receptor>
prm/pocket_docking_5.prm

>  <SCORE>
-19.3092

>  <SCORE.INTER>
-17.1914

>  <SCORE.INTER.CONST>
1

>  <SCORE.INTER.POLAR>
-3.28892

>  <SCORE.INTER.ROT>
5

>  <SCORE.INTER.SOLV>
10.2904

>  <SCORE.INTER.VDW>
-10.8613

>  <SCORE.INTER.norm>
-1.56285

>  <SCORE.INTRA>
-2.12466

>  <SCORE.INTRA.DIHEDRAL>
-4.392

>  <SCORE.INTRA.DIHEDRAL.0>
9.90185

>  <SCORE.INTRA.POLAR>
0

>  <SCORE.INTRA.POLAR.0>
0

>  <SCORE.INTRA.REPUL>
0

>  <SCORE.INTRA.REPUL.0>
0

>  <SCORE.INTRA.SOLV>
0.324618

>  <SCORE.INTRA.SOLV.lig_0>
-53.6586

>  <SCORE.INTRA.VDW>
-0.0909668

>  <SCORE.INTRA.VDW.0>
-0.556525

>  <SCORE.INTRA.norm>
-0.193151

>  <SCORE.RESTR>
0.00682593

>  <SCORE.RESTR.CAVITY>
0.00682593

>  <SCORE.RESTR.norm>
0.000620539

>  <SCORE.SYSTEM>
0

>  <SCORE.SYSTEM.CONST>
0

>  <SCORE.SYSTEM.DIHEDRAL>
0

>  <SCORE.SYSTEM.SOLV>
0

>  <SCORE.SYSTEM.norm>
0

>  <SCORE.heavy>
11

>  <SCORE.norm>
-1.75538

>  <RMSD>
4.425

$$$$

 OpenBabel11021811383D
libRbt.so/2013.1/901 2013/11/27
 11 10  0  0  0  0  0  0  0  0999 V2000
   -5.0070   -3.2409    1.4864 N   0  3  0  0  0  0  0  0  0  0  0  0
   -5.8094   -4.1271    0.5906 C   0  0  2  0  0  0  0  0  0  0  0  0
   -7.0861   -4.5817    1.3179 C   0  0  0  0  0  0  0  0  0  0  0  0
   -7.0911   -4.7366    2.5247 O   0  0  0  0  0  0  0  0  0  0  0  0
   -4.9675   -5.3491    0.1998 C   0  0  0  0  0  0  0  0  0  0  0  0
   -3.9688   -4.9567   -0.8927 C   0  0  0  0  0  0  0  0  0  0  0  0
   -4.6579   -5.0034   -2.2548 C   0  0  0  0  0  0  0  0  0  0  0  0
   -4.9995   -3.6170   -2.6758 N   0  3  0  0  0  0  0  0  0  0  0  0
   -4.1277   -2.8963   -3.3263 C   0  0  0  0  0  0  0  0  0  0  0  0
   -4.3896   -2.5047   -4.5465 N   0  0  0  0  0  0  0  0  0  0  0  0
   -2.9997   -2.5620   -2.7549 N   0  0  0  0  0  0  0  0  0  0  0  0
  2  1  1  1  0  0  0
  2  3  1  0  0  0  0
  2  5  1  0  0  0  0
  3  4  2  0  0  0  0
  5  6  1  0  0  0  0
  6  7  1  0  0  0  0
  7  8  1  0  0  0  0
  8  9  2  0  0  0  0
  9 10  1  0  0  0  0
  9 11  1  0  0  0  0
M  CHG  2   1   1   8   1
M  END
>  <CHROM.1>
-57.26279117,-31.65253476,-77.96822916,-83.00534541,101.75091031,87.33579506
-4.99318815,-3.91844604,-0.92103401,-2.35755552,-0.98674350,-1.98419658

>  <Name>


>  <RI>
0

>  <Rbt.Current_Directory>
/home/itssahil/PROJECTS/Mol_Feturizer/New_Systems/rnas/1aju

>  <Rbt.Executable>
rbdock ($Id: //depot/dev/client3/rdock/2013.1/src/exe/rbdock.cxx#4 $)

>  <Rbt.Library>
libRbt.so (2013.1, Build901 2013/11/27)

>  <Rbt.Parameter_File>
/export/apps/rDock/src/rDock_2013.1_src/data/scripts/dock_solv.prm

>  <Rbt.Receptor>
prm/pocket_docking_6.prm

>  <SCORE>
-17.4645

>  <SCORE.INTER>
-19.5951

>  <SCORE.INTER.CONST>
1

>  <SCORE.INTER.POLAR>
-3.78411

>  <SCORE.INTER.ROT>
5

>  <SCORE.INTER.SOLV>
14.968

>  <SCORE.INTER.VDW>
-12.3723

>  <SCORE.INTER.norm>
-1.78137

>  <SCORE.INTRA>
2.12904

>  <SCORE.INTRA.DIHEDRAL>
1.85801

>  <SCORE.INTRA.DIHEDRAL.0>
9.90185

>  <SCORE.INTRA.POLAR>
0

>  <SCORE.INTRA.POLAR.0>
0

>  <SCORE.INTRA.REPUL>
0

>  <SCORE.INTRA.REPUL.0>
0

>  <SCORE.INTRA.SOLV>
3.28739

>  <SCORE.INTRA.SOLV.lig_0>
-53.6586

>  <SCORE.INTRA.VDW>
-0.443664

>  <SCORE.INTRA.VDW.0>
-0.556525

>  <SCORE.INTRA.norm>
0.193549

>  <SCORE.RESTR>
0.0015379

>  <SCORE.RESTR.CAVITY>
0.0015379

>  <SCORE.RESTR.norm>
0.000139809

>  <SCORE.SYSTEM>
0

>  <SCORE.SYSTEM.CONST>
0

>  <SCORE.SYSTEM.DIHEDRAL>
0

>  <SCORE.SYSTEM.SOLV>
0

>  <SCORE.SYSTEM.norm>
0

>  <SCORE.heavy>
11

>  <SCORE.norm>
-1.58768

>  <RMSD>
4.435

$$$$

 OpenBabel11021811383D
libRbt.so/2013.1/901 2013/11/27
 11 10  0  0  0  0  0  0  0  0999 V2000
   -0.5230   -3.3543    0.1649 N   0  3  0  0  0  0  0  0  0  0  0  0
   -0.5927   -3.5369    1.6459 C   0  0  2  0  0  0  0  0  0  0  0  0
   -0.3672   -5.0171    1.9979 C   0  0  0  0  0  0  0  0  0  0  0  0
    0.5921   -5.3573    2.6644 O   0  0  0  0  0  0  0  0  0  0  0  0
   -1.9702   -3.0844    2.1484 C   0  0  0  0  0  0  0  0  0  0  0  0
   -2.1544   -1.5906    1.8665 C   0  0  0  0  0  0  0  0  0  0  0  0
   -3.5720   -1.1700    2.2488 C   0  0  0  0  0  0  0  0  0  0  0  0
   -3.8662    0.1578    1.6434 N   0  3  0  0  0  0  0  0  0  0  0  0
   -4.3212    1.1298    2.3856 C   0  0  0  0  0  0  0  0  0  0  0  0
   -3.6125    2.2187    2.5364 N   0  0  0  0  0  0  0  0  0  0  0  0
   -5.4859    1.0157    2.9698 N   0  0  0  0  0  0  0  0  0  0  0  0
  2  1  1  6  0  0  0
  2  3  1  0  0  0  0
  2  5  1  0  0  0  0
  3  4  2  0  0  0  0
  5  6  1  0  0  0  0
  6  7  1  0  0  0  0
  7  8  1  0  0  0  0
  8  9  2  0  0  0  0
  9 10  1  0  0  0  0
  9 11  1  0  0  0  0
M  CHG  2   1   1   8   1
M  END
>  <CHROM.1>
-175.43368363,117.05962149,-62.76169732,174.81680561,-164.78634558,-128.33503520
-2.34531611,-1.66893835,2.00249336,-0.58586927,0.77662684,-0.68920034

>  <Name>


>  <RI>
0

>  <Rbt.Current_Directory>
/home/itssahil/PROJECTS/Mol_Feturizer/New_Systems/rnas/1aju

>  <Rbt.Executable>
rbdock ($Id: //depot/dev/client3/rdock/2013.1/src/exe/rbdock.cxx#4 $)

>  <Rbt.Library>
libRbt.so (2013.1, Build901 2013/11/27)

>  <Rbt.Parameter_File>
/export/apps/rDock/src/rDock_2013.1_src/data/scripts/dock_solv.prm

>  <Rbt.Receptor>
prm/pocket_docking_8.prm

>  <SCORE>
-22.2169

>  <SCORE.INTER>
-19.7425

>  <SCORE.INTER.CONST>
1

>  <SCORE.INTER.POLAR>
-4.45541

>  <SCORE.INTER.ROT>
5

>  <SCORE.INTER.SOLV>
12.5731

>  <SCORE.INTER.VDW>
-9.43467

>  <SCORE.INTER.norm>
-1.79477

>  <SCORE.INTRA>
-2.4744

>  <SCORE.INTRA.DIHEDRAL>
-5.94037

>  <SCORE.INTRA.DIHEDRAL.0>
9.90185

>  <SCORE.INTRA.POLAR>
0

>  <SCORE.INTRA.POLAR.0>
0

>  <SCORE.INTRA.REPUL>
0

>  <SCORE.INTRA.REPUL.0>
0

>  <SCORE.INTRA.SOLV>
1.19048

>  <SCORE.INTRA.SOLV.lig_0>
-53.6586

>  <SCORE.INTRA.VDW>
-0.0994589

>  <SCORE.INTRA.VDW.0>
-0.556525

>  <SCORE.INTRA.norm>
-0.224946

>  <SCORE.RESTR>
0

>  <SCORE.RESTR.CAVITY>
0

>  <SCORE.RESTR.norm>
0

>  <SCORE.SYSTEM>
0

>  <SCORE.SYSTEM.CONST>
0

>  <SCORE.SYSTEM.DIHEDRAL>
0

>  <SCORE.SYSTEM.SOLV>
0

>  <SCORE.SYSTEM.norm>
0

>  <SCORE.heavy>
11

>  <SCORE.norm>
-2.01972

>  <RMSD>
4.469

$$$$

 OpenBabel11021811383D
libRbt.so/2013.1/901 2013/11/27
 11 10  0  0  0  0  0  0  0  0999 V2000
   -0.7152   -3.7886    0.0597 N   0  3  0  0  0  0  0  0  0  0  0  0
   -0.4919   -3.4495    1.4974 C   0  0  2  0  0  0  0  0  0  0  0  0
    0.0352   -4.6851    2.2466 C   0  0  0  0  0  0  0  0  0  0  0  0
    1.1398   -4.6772    2.7564 O   0  0  0  0  0  0  0  0  0  0  0  0
   -1.8153   -2.9857    2.1205 C   0  0  0  0  0  0  0  0  0  0  0  0
   -2.2448   -1.6597    1.4862 C   0  0  0  0  0  0  0  0  0  0  0  0
   -3.4488   -1.0995    2.2404 C   0  0  0  0  0  0  0  0  0  0  0  0
   -3.8172    0.2203    1.6586 N   0  3  0  0  0  0  0  0  0  0  0  0
   -4.2998    1.1614    2.4228 C   0  0  0  0  0  0  0  0  0  0  0  0
   -3.6386    2.2801    2.5720 N   0  0  0  0  0  0  0  0  0  0  0  0
   -5.4447    0.9867    3.0306 N   0  0  0  0  0  0  0  0  0  0  0  0
  2  1  1  6  0  0  0
  2  3  1  0  0  0  0
  2  5  1  0  0  0  0
  3  4  2  0  0  0  0
  5  6  1  0  0  0  0
  6  7  1  0  0  0  0
  7  8  1  0  0  0  0
  8  9  2  0  0  0  0
  9 10  1  0  0  0  0
  9 11  1  0  0  0  0
M  CHG  2   1   1   8   1
M  END
>  <CHROM.1>
58.31474054,117.05851391,-66.48109679,-171.98479895,177.27639457,-146.45136965
-2.24761745,-1.59520398,1.98629099,0.40481463,0.81885946,-1.96367267

>  <Name>


>  <RI>
0

>  <Rbt.Current_Directory>
/home/itssahil/PROJECTS/Mol_Feturizer/New_Systems/rnas/1aju

>  <Rbt.Executable>
rbdock ($Id: //depot/dev/client3/rdock/2013.1/src/exe/rbdock.cxx#4 $)

>  <Rbt.Library>
libRbt.so (2013.1, Build901 2013/11/27)

>  <Rbt.Parameter_File>
/export/apps/rDock/src/rDock_2013.1_src/data/scripts/dock_solv.prm

>  <Rbt.Receptor>
prm/pocket_docking_7.prm

>  <SCORE>
-22.7892

>  <SCORE.INTER>
-20.0238

>  <SCORE.INTER.CONST>
1

>  <SCORE.INTER.POLAR>
-4.42832

>  <SCORE.INTER.ROT>
5

>  <SCORE.INTER.SOLV>
11.8057

>  <SCORE.INTER.VDW>
-9.45671

>  <SCORE.INTER.norm>
-1.82035

>  <SCORE.INTRA>
-2.77216

>  <SCORE.INTRA.DIHEDRAL>
-6.54413

>  <SCORE.INTRA.DIHEDRAL.0>
9.90185

>  <SCORE.INTRA.POLAR>
0

>  <SCORE.INTRA.POLAR.0>
0

>  <SCORE.INTRA.REPUL>
0

>  <SCORE.INTRA.REPUL.0>
0

>  <SCORE.INTRA.SOLV>
1.037

>  <SCORE.INTRA.SOLV.lig_0>
-53.6586

>  <SCORE.INTRA.VDW>
-0.018591

>  <SCORE.INTRA.VDW.0>
-0.556525

>  <SCORE.INTRA.norm>
-0.252014

>  <SCORE.RESTR>
0.00679058

>  <SCORE.RESTR.CAVITY>
0.00679058

>  <SCORE.RESTR.norm>
0.000617326

>  <SCORE.SYSTEM>
0

>  <SCORE.SYSTEM.CONST>
0

>  <SCORE.SYSTEM.DIHEDRAL>
0

>  <SCORE.SYSTEM.SOLV>
0

>  <SCORE.SYSTEM.norm>
0

>  <SCORE.heavy>
11

>  <SCORE.norm>
-2.07174

>  <RMSD>
4.510

$$$$

 OpenBabel11021811383D
libRbt.so/2013.1/901 2013/11/27
 11 10  0  0  0  0  0  0  0  0999 V2000
   -6.5928   -5.1339    2.8938 N   0  3  0  0  0  0  0  0  0  0  0  0
   -6.2970   -4.3773    1.6401 C   0  0  2  0  0  0  0  0  0  0  0  0
   -6.9967   -5.0529    0.4485 C   0  0  0  0  0  0  0  0  0  0  0  0
   -7.6018   -6.0982    0.5954 O   0  0  0  0  0  0  0  0  0  0  0  0
   -4.7802   -4.3517    1.4092 C   0  0  0  0  0  0  0  0  0  0  0  0
   -4.4332   -3.2566    0.3966 C   0  0  0  0  0  0  0  0  0  0  0  0
   -4.5881   -3.8044   -1.0206 C   0  0  0  0  0  0  0  0  0  0  0  0
   -4.9242   -2.6843   -1.9418 N   0  3  0  0  0  0  0  0  0  0  0  0
   -4.0794   -2.3218   -2.8678 C   0  0  0  0  0  0  0  0  0  0  0  0
   -4.4094   -2.4344   -4.1284 N   0  0  0  0  0  0  0  0  0  0  0  0
   -2.9099   -1.8409   -2.5334 N   0  0  0  0  0  0  0  0  0  0  0  0
  2  1  1  1  0  0  0
  2  3  1  0  0  0  0
  2  5  1  0  0  0  0
  3  4  2  0  0  0  0
  5  6  1  0  0  0  0
  6  7  1  0  0  0  0
  7  8  1  0  0  0  0
  8  9  2  0  0  0  0
  9 10  1  0  0  0  0
  9 11  1  0  0  0  0
M  CHG  2   1   1   8   1
M  END
>  <CHROM.1>
-58.27530676,-4.53793668,-163.19083780,-84.91115795,152.05147301,113.73523459
-5.25038770,-3.77186480,-0.45609693,-2.14552694,-0.61364525,-1.37723742

>  <Name>


>  <RI>
0

>  <Rbt.Current_Directory>
/home/itssahil/PROJECTS/Mol_Feturizer/New_Systems/rnas/1aju

>  <Rbt.Executable>
rbdock ($Id: //depot/dev/client3/rdock/2013.1/src/exe/rbdock.cxx#4 $)

>  <Rbt.Library>
libRbt.so (2013.1, Build901 2013/11/27)

>  <Rbt.Parameter_File>
/export/apps/rDock/src/rDock_2013.1_src/data/scripts/dock_solv.prm

>  <Rbt.Receptor>
prm/pocket_docking_7.prm

>  <SCORE>
-14.5634

>  <SCORE.INTER>
-14.8301

>  <SCORE.INTER.CONST>
1

>  <SCORE.INTER.POLAR>
-2.52122

>  <SCORE.INTER.ROT>
5

>  <SCORE.INTER.SOLV>
15.2935

>  <SCORE.INTER.VDW>
-13.5138

>  <SCORE.INTER.norm>
-1.34819

>  <SCORE.INTRA>
0.266664

>  <SCORE.INTRA.DIHEDRAL>
-1.27351

>  <SCORE.INTRA.DIHEDRAL.0>
9.90185

>  <SCORE.INTRA.POLAR>
0

>  <SCORE.INTRA.POLAR.0>
0

>  <SCORE.INTRA.REPUL>
0

>  <SCORE.INTRA.REPUL.0>
0

>  <SCORE.INTRA.SOLV>
1.50389

>  <SCORE.INTRA.SOLV.lig_0>
-53.6586

>  <SCORE.INTRA.VDW>
0.151473

>  <SCORE.INTRA.VDW.0>
-0.556525

>  <SCORE.INTRA.norm>
0.0242422

>  <SCORE.RESTR>
0

>  <SCORE.RESTR.CAVITY>
0

>  <SCORE.RESTR.norm>
0

>  <SCORE.SYSTEM>
0

>  <SCORE.SYSTEM.CONST>
0

>  <SCORE.SYSTEM.DIHEDRAL>
0

>  <SCORE.SYSTEM.SOLV>
0

>  <SCORE.SYSTEM.norm>
0

>  <SCORE.heavy>
11

>  <SCORE.norm>
-1.32395

>  <RMSD>
4.569

$$$$

 OpenBabel11021811383D
libRbt.so/2013.1/901 2013/11/27
 11 10  0  0  0  0  0  0  0  0999 V2000
   -5.2460   -2.0002    0.4357 N   0  3  0  0  0  0  0  0  0  0  0  0
   -4.8581   -3.4169    0.1631 C   0  0  2  0  0  0  0  0  0  0  0  0
   -3.3377   -3.5801    0.3293 C   0  0  0  0  0  0  0  0  0  0  0  0
   -2.8820   -4.2897    1.2063 O   0  0  0  0  0  0  0  0  0  0  0  0
   -5.2703   -3.7892   -1.2674 C   0  0  0  0  0  0  0  0  0  0  0  0
   -5.2999   -5.3133   -1.4131 C   0  0  0  0  0  0  0  0  0  0  0  0
   -5.6172   -5.6815   -2.8610 C   0  0  0  0  0  0  0  0  0  0  0  0
   -7.0260   -5.3062   -3.1616 N   0  3  0  0  0  0  0  0  0  0  0  0
   -7.8632   -6.2044   -3.6033 C   0  0  0  0  0  0  0  0  0  0  0  0
   -8.9131   -6.5204   -2.8900 N   0  0  0  0  0  0  0  0  0  0  0  0
   -7.6545   -6.7798   -4.7591 N   0  0  0  0  0  0  0  0  0  0  0  0
  2  1  1  6  0  0  0
  2  3  1  0  0  0  0
  2  5  1  0  0  0  0
  3  4  2  0  0  0  0
  5  6  1  0  0  0  0
  6  7  1  0  0  0  0
  7  8  1  0  0  0  0
  8  9  2  0  0  0  0
  9 10  1  0  0  0  0
  9 11  1  0  0  0  0
M  CHG  2   1   1   8   1
M  END
>  <CHROM.1>
-80.94303948,115.34470859,-161.93382683,-176.17695913,-68.75006465,-123.90593473
-5.84097835,-4.78850038,-1.60974354,0.88025160,-0.37199088,0.66344559

>  <Name>


>  <RI>
0

>  <Rbt.Current_Directory>
/home/itssahil/PROJECTS/Mol_Feturizer/New_Systems/rnas/1aju

>  <Rbt.Executable>
rbdock ($Id: //depot/dev/client3/rdock/2013.1/src/exe/rbdock.cxx#4 $)

>  <Rbt.Library>
libRbt.so (2013.1, Build901 2013/11/27)

>  <Rbt.Parameter_File>
/export/apps/rDock/src/rDock_2013.1_src/data/scripts/dock_solv.prm

>  <Rbt.Receptor>
prm/pocket_docking_6.prm

>  <SCORE>
-16.4501

>  <SCORE.INTER>
-14.425

>  <SCORE.INTER.CONST>
1

>  <SCORE.INTER.POLAR>
-3.50767

>  <SCORE.INTER.ROT>
5

>  <SCORE.INTER.SOLV>
14.7004

>  <SCORE.INTER.VDW>
-9.75793

>  <SCORE.INTER.norm>
-1.31137

>  <SCORE.INTRA>
-2.02508

>  <SCORE.INTRA.DIHEDRAL>
-4.53802

>  <SCORE.INTRA.DIHEDRAL.0>
9.90185

>  <SCORE.INTRA.POLAR>
0

>  <SCORE.INTRA.POLAR.0>
0

>  <SCORE.INTRA.REPUL>
0

>  <SCORE.INTRA.REPUL.0>
0

>  <SCORE.INTRA.SOLV>
0.383607

>  <SCORE.INTRA.SOLV.lig_0>
-53.6586

>  <SCORE.INTRA.VDW>
0.0521283

>  <SCORE.INTRA.VDW.0>
-0.556525

>  <SCORE.INTRA.norm>
-0.184098

>  <SCORE.RESTR>
0

>  <SCORE.RESTR.CAVITY>
0

>  <SCORE.RESTR.norm>
0

>  <SCORE.SYSTEM>
0

>  <SCORE.SYSTEM.CONST>
0

>  <SCORE.SYSTEM.DIHEDRAL>
0

>  <SCORE.SYSTEM.SOLV>
0

>  <SCORE.SYSTEM.norm>
0

>  <SCORE.heavy>
11

>  <SCORE.norm>
-1.49547

>  <RMSD>
4.615

$$$$

 OpenBabel11021811383D
libRbt.so/2013.1/901 2013/11/27
 11 10  0  0  0  0  0  0  0  0999 V2000
   -5.1661   -3.3359    1.8831 N   0  3  0  0  0  0  0  0  0  0  0  0
   -5.8346   -3.9605    0.7022 C   0  0  2  0  0  0  0  0  0  0  0  0
   -7.1799   -4.5713    1.1299 C   0  0  0  0  0  0  0  0  0  0  0  0
   -8.1630   -4.4650    0.4210 O   0  0  0  0  0  0  0  0  0  0  0  0
   -4.9252   -5.0527    0.1236 C   0  0  0  0  0  0  0  0  0  0  0  0
   -5.5110   -5.5629   -1.1961 C   0  0  0  0  0  0  0  0  0  0  0  0
   -4.6295   -5.1056   -2.3564 C   0  0  0  0  0  0  0  0  0  0  0  0
   -4.9858   -3.7059   -2.7167 N   0  3  0  0  0  0  0  0  0  0  0  0
   -4.1259   -2.9522   -3.3453 C   0  0  0  0  0  0  0  0  0  0  0  0
   -4.4026   -2.5129   -4.5458 N   0  0  0  0  0  0  0  0  0  0  0  0
   -2.9948   -2.6327   -2.7714 N   0  0  0  0  0  0  0  0  0  0  0  0
  2  1  1  1  0  0  0
  2  3  1  0  0  0  0
  2  5  1  0  0  0  0
  3  4  2  0  0  0  0
  5  6  1  0  0  0  0
  6  7  1  0  0  0  0
  7  8  1  0  0  0  0
  8  9  2  0  0  0  0
  9 10  1  0  0  0  0
  9 11  1  0  0  0  0
M  CHG  2   1   1   8   1
M  END
>  <CHROM.1>
-57.43191074,139.26327696,-172.19213033,109.97484479,-82.09294745,157.49602349
-5.25567778,-3.94462570,-1.14262790,-2.15524767,-0.55146829,-1.62072468

>  <Name>


>  <RI>
0

>  <Rbt.Current_Directory>
/home/itssahil/PROJECTS/Mol_Feturizer/New_Systems/rnas/1aju

>  <Rbt.Executable>
rbdock ($Id: //depot/dev/client3/rdock/2013.1/src/exe/rbdock.cxx#4 $)

>  <Rbt.Library>
libRbt.so (2013.1, Build901 2013/11/27)

>  <Rbt.Parameter_File>
/export/apps/rDock/src/rDock_2013.1_src/data/scripts/dock_solv.prm

>  <Rbt.Receptor>
prm/pocket_docking_6.prm

>  <SCORE>
-18.4843

>  <SCORE.INTER>
-19.2373

>  <SCORE.INTER.CONST>
1

>  <SCORE.INTER.POLAR>
-3.73127

>  <SCORE.INTER.ROT>
5

>  <SCORE.INTER.SOLV>
15.566

>  <SCORE.INTER.VDW>
-12.5093

>  <SCORE.INTER.norm>
-1.74885

>  <SCORE.INTRA>
0.752983

>  <SCORE.INTRA.DIHEDRAL>
1.33137

>  <SCORE.INTRA.DIHEDRAL.0>
9.90185

>  <SCORE.INTRA.POLAR>
0

>  <SCORE.INTRA.POLAR.0>
0

>  <SCORE.INTRA.REPUL>
0

>  <SCORE.INTRA.REPUL.0>
0

>  <SCORE.INTRA.SOLV>
0.655075

>  <SCORE.INTRA.SOLV.lig_0>
-53.6586

>  <SCORE.INTRA.VDW>
-0.240239

>  <SCORE.INTRA.VDW.0>
-0.556525

>  <SCORE.INTRA.norm>
0.068453

>  <SCORE.RESTR>
0

>  <SCORE.RESTR.CAVITY>
0

>  <SCORE.RESTR.norm>
0

>  <SCORE.SYSTEM>
0

>  <SCORE.SYSTEM.CONST>
0

>  <SCORE.SYSTEM.DIHEDRAL>
0

>  <SCORE.SYSTEM.SOLV>
0

>  <SCORE.SYSTEM.norm>
0

>  <SCORE.heavy>
11

>  <SCORE.norm>
-1.6804

>  <RMSD>
4.661

$$$$

 OpenBabel11021811383D
libRbt.so/2013.1/901 2013/11/27
 11 10  0  0  0  0  0  0  0  0999 V2000
   -3.6684   -2.5074   -3.4681 N   0  3  0  0  0  0  0  0  0  0  0  0
   -3.4178   -2.6617   -2.0035 C   0  0  2  0  0  0  0  0  0  0  0  0
   -2.0444   -2.0683   -1.6463 C   0  0  0  0  0  0  0  0  0  0  0  0
   -1.9081   -1.3687   -0.6603 O   0  0  0  0  0  0  0  0  0  0  0  0
   -3.4547   -4.1513   -1.6368 C   0  0  0  0  0  0  0  0  0  0  0  0
   -4.6591   -4.4279   -0.7325 C   0  0  0  0  0  0  0  0  0  0  0  0
   -5.9485   -4.1223   -1.4918 C   0  0  0  0  0  0  0  0  0  0  0  0
   -6.9965   -3.7005   -0.5225 N   0  3  0  0  0  0  0  0  0  0  0  0
   -7.9666   -4.5156   -0.2106 C   0  0  0  0  0  0  0  0  0  0  0  0
   -8.0902   -4.9372    1.0214 N   0  0  0  0  0  0  0  0  0  0  0  0
   -8.8153   -4.9023   -1.1276 N   0  0  0  0  0  0  0  0  0  0  0  0
  2  1  1  6  0  0  0
  2  3  1  0  0  0  0
  2  5  1  0  0  0  0
  3  4  2  0  0  0  0
  5  6  1  0  0  0  0
  6  7  1  0  0  0  0
  7  8  1  0  0  0  0
  8  9  2  0  0  0  0
  9 10  1  0  0  0  0
  9 11  1  0  0  0  0
M  CHG  2   1   1   8   1
M  END
>  <CHROM.1>
152.58787544,135.93735928,-113.52260460,62.87734864,-150.84332893,-105.58189656
-5.20447551,-3.56637806,-1.14683556,0.26544529,-0.41719647,-1.56078050

>  <Name>


>  <RI>
0

>  <Rbt.Current_Directory>
/home/itssahil/PROJECTS/Mol_Feturizer/New_Systems/rnas/1aju

>  <Rbt.Executable>
rbdock ($Id: //depot/dev/client3/rdock/2013.1/src/exe/rbdock.cxx#4 $)

>  <Rbt.Library>
libRbt.so (2013.1, Build901 2013/11/27)

>  <Rbt.Parameter_File>
/export/apps/rDock/src/rDock_2013.1_src/data/scripts/dock_solv.prm

>  <Rbt.Receptor>
prm/pocket_docking_6.prm

>  <SCORE>
-16.2373

>  <SCORE.INTER>
-18.4863

>  <SCORE.INTER.CONST>
1

>  <SCORE.INTER.POLAR>
-2.9753

>  <SCORE.INTER.ROT>
5

>  <SCORE.INTER.SOLV>
18.8784

>  <SCORE.INTER.VDW>
-15.6327

>  <SCORE.INTER.norm>
-1.68057

>  <SCORE.INTRA>
2.24897

>  <SCORE.INTRA.DIHEDRAL>
2.74749

>  <SCORE.INTRA.DIHEDRAL.0>
9.90185

>  <SCORE.INTRA.POLAR>
0

>  <SCORE.INTRA.POLAR.0>
0

>  <SCORE.INTRA.REPUL>
0

>  <SCORE.INTRA.REPUL.0>
0

>  <SCORE.INTRA.SOLV>
1.19155

>  <SCORE.INTRA.SOLV.lig_0>
-53.6586

>  <SCORE.INTRA.VDW>
0.279447

>  <SCORE.INTRA.VDW.0>
-0.556525

>  <SCORE.INTRA.norm>
0.204452

>  <SCORE.RESTR>
0

>  <SCORE.RESTR.CAVITY>
0

>  <SCORE.RESTR.norm>
0

>  <SCORE.SYSTEM>
0

>  <SCORE.SYSTEM.CONST>
0

>  <SCORE.SYSTEM.DIHEDRAL>
0

>  <SCORE.SYSTEM.SOLV>
0

>  <SCORE.SYSTEM.norm>
0

>  <SCORE.heavy>
11

>  <SCORE.norm>
-1.47612

>  <RMSD>
4.677

$$$$

 OpenBabel11021811383D
libRbt.so/2013.1/901 2013/11/27
 11 10  0  0  0  0  0  0  0  0999 V2000
   -5.4485   -3.6976    1.8264 N   0  3  0  0  0  0  0  0  0  0  0  0
   -5.8112   -4.1344    0.4446 C   0  0  2  0  0  0  0  0  0  0  0  0
   -7.3386   -4.2731    0.3280 C   0  0  0  0  0  0  0  0  0  0  0  0
   -7.9161   -3.9383   -0.6892 O   0  0  0  0  0  0  0  0  0  0  0  0
   -5.1399   -5.4817    0.1462 C   0  0  0  0  0  0  0  0  0  0  0  0
   -5.2451   -5.7875   -1.3506 C   0  0  0  0  0  0  0  0  0  0  0  0
   -4.1749   -5.0044   -2.1080 C   0  0  0  0  0  0  0  0  0  0  0  0
   -4.7584   -3.7223   -2.5893 N   0  3  0  0  0  0  0  0  0  0  0  0
   -4.0121   -2.8600   -3.2235 C   0  0  0  0  0  0  0  0  0  0  0  0
   -4.2833   -2.5562   -4.4664 N   0  0  0  0  0  0  0  0  0  0  0  0
   -3.0011   -2.2976   -2.6133 N   0  0  0  0  0  0  0  0  0  0  0  0
  2  1  1  1  0  0  0
  2  3  1  0  0  0  0
  2  5  1  0  0  0  0
  3  4  2  0  0  0  0
  5  6  1  0  0  0  0
  6  7  1  0  0  0  0
  7  8  1  0  0  0  0
  8  9  2  0  0  0  0
  9 10  1  0  0  0  0
  9 11  1  0  0  0  0
M  CHG  2   1   1   8   1
M  END
>  <CHROM.1>
179.71470616,141.75666785,-167.57783357,79.66357393,-93.96280687,177.42880448
-5.18890313,-3.93551139,-1.29020961,-2.09728311,-0.13037774,-1.29151258

>  <Name>


>  <RI>
224

>  <Rbt.Current_Directory>
/home/itssahil/PROJECTS/Mol_Feturizer/New_Systems/rnas/1aju

>  <Rbt.Executable>
rbdock ($Id: //depot/dev/client3/rdock/2013.1/src/exe/rbdock.cxx#4 $)

>  <Rbt.Library>
libRbt.so (2013.1, Build901 2013/11/27)

>  <Rbt.Parameter_File>
/export/apps/rDock/src/rDock_2013.1_src/data/scripts/dock_solv.prm

>  <Rbt.Receptor>
prm/pocket_docking_5.prm

>  <SCORE>
-18.8909

>  <SCORE.INTER>
-18.7728

>  <SCORE.INTER.CONST>
1

>  <SCORE.INTER.POLAR>
-3.51794

>  <SCORE.INTER.ROT>
5

>  <SCORE.INTER.SOLV>
16.4908

>  <SCORE.INTER.VDW>
-13.219

>  <SCORE.INTER.norm>
-1.70662

>  <SCORE.INTRA>
-0.118052

>  <SCORE.INTRA.DIHEDRAL>
-0.799928

>  <SCORE.INTRA.DIHEDRAL.0>
9.90185

>  <SCORE.INTRA.POLAR>
0

>  <SCORE.INTRA.POLAR.0>
0

>  <SCORE.INTRA.REPUL>
0

>  <SCORE.INTRA.REPUL.0>
0

>  <SCORE.INTRA.SOLV>
1.10943

>  <SCORE.INTRA.SOLV.lig_0>
-53.6586

>  <SCORE.INTRA.VDW>
-0.2728

>  <SCORE.INTRA.VDW.0>
-0.556525

>  <SCORE.INTRA.norm>
-0.010732

>  <SCORE.RESTR>
0

>  <SCORE.RESTR.CAVITY>
0

>  <SCORE.RESTR.norm>
0

>  <SCORE.SYSTEM>
0

>  <SCORE.SYSTEM.CONST>
0

>  <SCORE.SYSTEM.DIHEDRAL>
0

>  <SCORE.SYSTEM.SOLV>
0

>  <SCORE.SYSTEM.norm>
0

>  <SCORE.heavy>
11

>  <SCORE.norm>
-1.71735

>  <RMSD>
4.720

$$$$

 OpenBabel11021811383D
libRbt.so/2013.1/901 2013/11/27
 11 10  0  0  0  0  0  0  0  0999 V2000
   -3.1614   -2.4415   -2.3578 N   0  3  0  0  0  0  0  0  0  0  0  0
   -2.1927   -2.6675   -1.2433 C   0  0  2  0  0  0  0  0  0  0  0  0
   -0.9893   -3.4760   -1.7572 C   0  0  0  0  0  0  0  0  0  0  0  0
   -0.7738   -4.5993   -1.3425 O   0  0  0  0  0  0  0  0  0  0  0  0
   -2.8913   -3.4327   -0.1115 C   0  0  0  0  0  0  0  0  0  0  0  0
   -3.9574   -2.5402    0.5302 C   0  0  0  0  0  0  0  0  0  0  0  0
   -3.2892   -1.5511    1.4828 C   0  0  0  0  0  0  0  0  0  0  0  0
   -4.2696   -0.4945    1.8546 N   0  3  0  0  0  0  0  0  0  0  0  0
   -3.8533    0.6501    2.3228 C   0  0  0  0  0  0  0  0  0  0  0  0
   -4.0900    1.7498    1.6555 N   0  0  0  0  0  0  0  0  0  0  0  0
   -3.2079    0.6952    3.4595 N   0  0  0  0  0  0  0  0  0  0  0  0
  2  1  1  6  0  0  0
  2  3  1  0  0  0  0
  2  5  1  0  0  0  0
  3  4  2  0  0  0  0
  5  6  1  0  0  0  0
  6  7  1  0  0  0  0
  7  8  1  0  0  0  0
  8  9  2  0  0  0  0
  9 10  1  0  0  0  0
  9 11  1  0  0  0  0
M  CHG  2   1   1   8   1
M  END
>  <CHROM.1>
63.71091589,-114.57163062,-67.66539466,-78.68441314,166.93310122,-159.85698563
-2.98663362,-1.62433399,0.39408286,0.95254712,0.96378422,-1.87432470

>  <Name>


>  <RI>
0

>  <Rbt.Current_Directory>
/home/itssahil/PROJECTS/Mol_Feturizer/New_Systems/rnas/1aju

>  <Rbt.Executable>
rbdock ($Id: //depot/dev/client3/rdock/2013.1/src/exe/rbdock.cxx#4 $)

>  <Rbt.Library>
libRbt.so (2013.1, Build901 2013/11/27)

>  <Rbt.Parameter_File>
/export/apps/rDock/src/rDock_2013.1_src/data/scripts/dock_solv.prm

>  <Rbt.Receptor>
prm/pocket_docking_8.prm

>  <SCORE>
-17.8292

>  <SCORE.INTER>
-17.2594

>  <SCORE.INTER.CONST>
1

>  <SCORE.INTER.POLAR>
-3.28648

>  <SCORE.INTER.ROT>
5

>  <SCORE.INTER.SOLV>
14.2073

>  <SCORE.INTER.VDW>
-12.2205

>  <SCORE.INTER.norm>
-1.56904

>  <SCORE.INTRA>
-0.569767

>  <SCORE.INTRA.DIHEDRAL>
-4.72991

>  <SCORE.INTRA.DIHEDRAL.0>
9.90185

>  <SCORE.INTRA.POLAR>
0

>  <SCORE.INTRA.POLAR.0>
0

>  <SCORE.INTRA.REPUL>
0

>  <SCORE.INTRA.REPUL.0>
0

>  <SCORE.INTRA.SOLV>
1.3925

>  <SCORE.INTRA.SOLV.lig_0>
-53.6586

>  <SCORE.INTRA.VDW>
1.09894

>  <SCORE.INTRA.VDW.0>
-0.556525

>  <SCORE.INTRA.norm>
-0.051797

>  <SCORE.RESTR>
0

>  <SCORE.RESTR.CAVITY>
0

>  <SCORE.RESTR.norm>
0

>  <SCORE.SYSTEM>
0

>  <SCORE.SYSTEM.CONST>
0

>  <SCORE.SYSTEM.DIHEDRAL>
0

>  <SCORE.SYSTEM.SOLV>
0

>  <SCORE.SYSTEM.norm>
0

>  <SCORE.heavy>
11

>  <SCORE.norm>
-1.62084

>  <RMSD>
4.724

$$$$

 OpenBabel11021811383D
libRbt.so/2013.1/901 2013/11/27
 11 10  0  0  0  0  0  0  0  0999 V2000
   -0.5684   -2.9637   -0.1373 N   0  3  0  0  0  0  0  0  0  0  0  0
   -0.2771   -2.6196    1.2870 C   0  0  2  0  0  0  0  0  0  0  0  0
    0.4654   -3.7856    1.9615 C   0  0  0  0  0  0  0  0  0  0  0  0
   -0.1507   -4.6697    2.5264 O   0  0  0  0  0  0  0  0  0  0  0  0
   -1.5958   -2.3448    2.0221 C   0  0  0  0  0  0  0  0  0  0  0  0
   -2.1809   -1.0121    1.5464 C   0  0  0  0  0  0  0  0  0  0  0  0
   -3.5048   -0.7514    2.2619 C   0  0  0  0  0  0  0  0  0  0  0  0
   -3.9721    0.6238    1.9361 N   0  3  0  0  0  0  0  0  0  0  0  0
   -4.5631    1.3478    2.8467 C   0  0  0  0  0  0  0  0  0  0  0  0
   -4.0116    2.4637    3.2484 N   0  0  0  0  0  0  0  0  0  0  0  0
   -5.7068    0.9600    3.3490 N   0  0  0  0  0  0  0  0  0  0  0  0
  2  1  1  6  0  0  0
  2  3  1  0  0  0  0
  2  5  1  0  0  0  0
  3  4  2  0  0  0  0
  5  6  1  0  0  0  0
  6  7  1  0  0  0  0
  7  8  1  0  0  0  0
  8  9  2  0  0  0  0
  9 10  1  0  0  0  0
  9 11  1  0  0  0  0
M  CHG  2   1   1   8   1
M  END
>  <CHROM.1>
-52.22988684,-90.31451449,-71.57402245,179.06238944,172.34532903,-142.68530058
-2.38705418,-1.15526705,2.05909796,-0.28380894,0.82774548,-0.90848584

>  <Name>


>  <RI>
0

>  <Rbt.Current_Directory>
/home/itssahil/PROJECTS/Mol_Feturizer/New_Systems/rnas/1aju

>  <Rbt.Executable>
rbdock ($Id: //depot/dev/client3/rdock/2013.1/src/exe/rbdock.cxx#4 $)

>  <Rbt.Library>
libRbt.so (2013.1, Build901 2013/11/27)

>  <Rbt.Parameter_File>
/export/apps/rDock/src/rDock_2013.1_src/data/scripts/dock_solv.prm

>  <Rbt.Receptor>
prm/pocket_docking_8.prm

>  <SCORE>
-24.4157

>  <SCORE.INTER>
-23.0411

>  <SCORE.INTER.CONST>
1

>  <SCORE.INTER.POLAR>
-4.90569

>  <SCORE.INTER.ROT>
5

>  <SCORE.INTER.SOLV>
14.5404

>  <SCORE.INTER.VDW>
-10.7886

>  <SCORE.INTER.norm>
-2.09465

>  <SCORE.INTRA>
-1.3746

>  <SCORE.INTRA.DIHEDRAL>
-4.8194

>  <SCORE.INTRA.DIHEDRAL.0>
9.90185

>  <SCORE.INTRA.POLAR>
0

>  <SCORE.INTRA.POLAR.0>
0

>  <SCORE.INTRA.REPUL>
0

>  <SCORE.INTRA.REPUL.0>
0

>  <SCORE.INTRA.SOLV>
1.31793

>  <SCORE.INTRA.SOLV.lig_0>
-53.6586

>  <SCORE.INTRA.VDW>
0.376141

>  <SCORE.INTRA.VDW.0>
-0.556525

>  <SCORE.INTRA.norm>
-0.124963

>  <SCORE.RESTR>
0

>  <SCORE.RESTR.CAVITY>
0

>  <SCORE.RESTR.norm>
0

>  <SCORE.SYSTEM>
0

>  <SCORE.SYSTEM.CONST>
0

>  <SCORE.SYSTEM.DIHEDRAL>
0

>  <SCORE.SYSTEM.SOLV>
0

>  <SCORE.SYSTEM.norm>
0

>  <SCORE.heavy>
11

>  <SCORE.norm>
-2.21961

>  <RMSD>
4.788

$$$$

 OpenBabel11021811383D
libRbt.so/2013.1/901 2013/11/27
 11 10  0  0  0  0  0  0  0  0999 V2000
   -3.6288   -2.5527   -3.2620 N   0  3  0  0  0  0  0  0  0  0  0  0
   -3.0699   -2.7979   -1.8985 C   0  0  2  0  0  0  0  0  0  0  0  0
   -1.8531   -3.7336   -1.9966 C   0  0  0  0  0  0  0  0  0  0  0  0
   -1.4517   -4.1182   -3.0788 O   0  0  0  0  0  0  0  0  0  0  0  0
   -4.1500   -3.4364   -1.0150 C   0  0  0  0  0  0  0  0  0  0  0  0
   -4.5798   -2.4437    0.0689 C   0  0  0  0  0  0  0  0  0  0  0  0
   -3.4147   -2.1953    1.0246 C   0  0  0  0  0  0  0  0  0  0  0  0
   -3.8827   -1.3440    2.1525 N   0  3  0  0  0  0  0  0  0  0  0  0
   -3.9224   -0.0464    2.0211 C   0  0  0  0  0  0  0  0  0  0  0  0
   -5.0692    0.5788    2.0894 N   0  0  0  0  0  0  0  0  0  0  0  0
   -2.8165    0.6251    1.8291 N   0  0  0  0  0  0  0  0  0  0  0  0
  2  1  1  6  0  0  0
  2  3  1  0  0  0  0
  2  5  1  0  0  0  0
  3  4  2  0  0  0  0
  5  6  1  0  0  0  0
  6  7  1  0  0  0  0
  7  8  1  0  0  0  0
  8  9  2  0  0  0  0
  9 10  1  0  0  0  0
  9 11  1  0  0  0  0
M  CHG  2   1   1   8   1
M  END
>  <CHROM.1>
-177.34494925,2.67250846,-111.35660462,-66.33019159,-174.11305303,-83.76540376
-3.44494312,-1.92466094,-0.21992930,1.31713329,-0.04605625,-2.22142664

>  <Name>


>  <RI>
0

>  <Rbt.Current_Directory>
/home/itssahil/PROJECTS/Mol_Feturizer/New_Systems/rnas/1aju

>  <Rbt.Executable>
rbdock ($Id: //depot/dev/client3/rdock/2013.1/src/exe/rbdock.cxx#4 $)

>  <Rbt.Library>
libRbt.so (2013.1, Build901 2013/11/27)

>  <Rbt.Parameter_File>
/export/apps/rDock/src/rDock_2013.1_src/data/scripts/dock_solv.prm

>  <Rbt.Receptor>
prm/pocket_docking_6.prm

>  <SCORE>
-20.5665

>  <SCORE.INTER>
-20.5289

>  <SCORE.INTER.CONST>
1

>  <SCORE.INTER.POLAR>
-3.53085

>  <SCORE.INTER.ROT>
5

>  <SCORE.INTER.SOLV>
16.9464

>  <SCORE.INTER.VDW>
-14.4986

>  <SCORE.INTER.norm>
-1.86626

>  <SCORE.INTRA>
-0.0375929

>  <SCORE.INTRA.DIHEDRAL>
-1.70352

>  <SCORE.INTRA.DIHEDRAL.0>
9.90185

>  <SCORE.INTRA.POLAR>
0

>  <SCORE.INTRA.POLAR.0>
0

>  <SCORE.INTRA.REPUL>
0

>  <SCORE.INTRA.REPUL.0>
0

>  <SCORE.INTRA.SOLV>
1.56467

>  <SCORE.INTRA.SOLV.lig_0>
-53.6586

>  <SCORE.INTRA.VDW>
0.0318299

>  <SCORE.INTRA.VDW.0>
-0.556525

>  <SCORE.INTRA.norm>
-0.00341754

>  <SCORE.RESTR>
0

>  <SCORE.RESTR.CAVITY>
0

>  <SCORE.RESTR.norm>
0

>  <SCORE.SYSTEM>
0

>  <SCORE.SYSTEM.CONST>
0

>  <SCORE.SYSTEM.DIHEDRAL>
0

>  <SCORE.SYSTEM.SOLV>
0

>  <SCORE.SYSTEM.norm>
0

>  <SCORE.heavy>
11

>  <SCORE.norm>
-1.86968

>  <RMSD>
4.811

$$$$

 OpenBabel11021811383D
libRbt.so/2013.1/901 2013/11/27
 11 10  0  0  0  0  0  0  0  0999 V2000
    0.1766   -3.8777    1.1776 N   0  3  0  0  0  0  0  0  0  0  0  0
   -1.1257   -3.1928    0.9197 C   0  0  2  0  0  0  0  0  0  0  0  0
   -0.8919   -1.9400    0.0584 C   0  0  0  0  0  0  0  0  0  0  0  0
    0.2281   -1.4879   -0.0882 O   0  0  0  0  0  0  0  0  0  0  0  0
   -1.7634   -2.7954    2.2576 C   0  0  0  0  0  0  0  0  0  0  0  0
   -3.1754   -2.2556    2.0133 C   0  0  0  0  0  0  0  0  0  0  0  0
   -3.6596   -1.5116    3.2562 C   0  0  0  0  0  0  0  0  0  0  0  0
   -4.6891   -0.5136    2.8563 N   0  3  0  0  0  0  0  0  0  0  0  0
   -4.5212    0.7495    3.1378 C   0  0  0  0  0  0  0  0  0  0  0  0
   -4.4124    1.6220    2.1694 N   0  0  0  0  0  0  0  0  0  0  0  0
   -4.4694    1.1397    4.3851 N   0  0  0  0  0  0  0  0  0  0  0  0
  2  1  1  1  0  0  0
  2  3  1  0  0  0  0
  2  5  1  0  0  0  0
  3  4  2  0  0  0  0
  5  6  1  0  0  0  0
  6  7  1  0  0  0  0
  7  8  1  0  0  0  0
  8  9  2  0  0  0  0
  9 10  1  0  0  0  0
  9 11  1  0  0  0  0
M  CHG  2   1   1   8   1
M  END
>  <CHROM.1>
-175.33234938,-14.59635919,-172.83126808,-164.42971083,155.06528320,-122.73404282
-2.54037180,-1.26691518,2.01261285,0.38991634,-0.73326475,2.73921870

>  <Name>


>  <RI>
0

>  <Rbt.Current_Directory>
/home/itssahil/PROJECTS/Mol_Feturizer/New_Systems/rnas/1aju

>  <Rbt.Executable>
rbdock ($Id: //depot/dev/client3/rdock/2013.1/src/exe/rbdock.cxx#4 $)

>  <Rbt.Library>
libRbt.so (2013.1, Build901 2013/11/27)

>  <Rbt.Parameter_File>
/export/apps/rDock/src/rDock_2013.1_src/data/scripts/dock_solv.prm

>  <Rbt.Receptor>
prm/pocket_docking_8.prm

>  <SCORE>
-21.1859

>  <SCORE.INTER>
-20.1221

>  <SCORE.INTER.CONST>
1

>  <SCORE.INTER.POLAR>
-4.85642

>  <SCORE.INTER.ROT>
5

>  <SCORE.INTER.SOLV>
11.9978

>  <SCORE.INTER.VDW>
-8.15928

>  <SCORE.INTER.norm>
-1.82928

>  <SCORE.INTRA>
-1.06377

>  <SCORE.INTRA.DIHEDRAL>
-3.35507

>  <SCORE.INTRA.DIHEDRAL.0>
9.90185

>  <SCORE.INTRA.POLAR>
0

>  <SCORE.INTRA.POLAR.0>
0

>  <SCORE.INTRA.REPUL>
0

>  <SCORE.INTRA.REPUL.0>
0

>  <SCORE.INTRA.SOLV>
0.975534

>  <SCORE.INTRA.SOLV.lig_0>
-53.6586

>  <SCORE.INTRA.VDW>
0.125994

>  <SCORE.INTRA.VDW.0>
-0.556525

>  <SCORE.INTRA.norm>
-0.0967066

>  <SCORE.RESTR>
0

>  <SCORE.RESTR.CAVITY>
0

>  <SCORE.RESTR.norm>
0

>  <SCORE.SYSTEM>
0

>  <SCORE.SYSTEM.CONST>
0

>  <SCORE.SYSTEM.DIHEDRAL>
0

>  <SCORE.SYSTEM.SOLV>
0

>  <SCORE.SYSTEM.norm>
0

>  <SCORE.heavy>
11

>  <SCORE.norm>
-1.92599

>  <RMSD>
4.924

$$$$

 OpenBabel11021811383D
libRbt.so/2013.1/901 2013/11/27
 11 10  0  0  0  0  0  0  0  0999 V2000
   -7.7016   -4.9006   -1.1123 N   0  3  0  0  0  0  0  0  0  0  0  0
   -6.2730   -5.2995   -0.9344 C   0  0  2  0  0  0  0  0  0  0  0  0
   -6.0643   -5.8660    0.4803 C   0  0  0  0  0  0  0  0  0  0  0  0
   -5.6887   -7.0121    0.6407 O   0  0  0  0  0  0  0  0  0  0  0  0
   -5.3743   -4.0735   -1.1441 C   0  0  0  0  0  0  0  0  0  0  0  0
   -5.2285   -3.7939   -2.6426 C   0  0  0  0  0  0  0  0  0  0  0  0
   -4.6175   -2.4091   -2.8464 C   0  0  0  0  0  0  0  0  0  0  0  0
   -3.1335   -2.5226   -2.8195 N   0  3  0  0  0  0  0  0  0  0  0  0
   -2.5203   -2.8351   -1.7109 C   0  0  0  0  0  0  0  0  0  0  0  0
   -1.8344   -3.9464   -1.6388 N   0  0  0  0  0  0  0  0  0  0  0  0
   -2.5872   -2.0341   -0.6791 N   0  0  0  0  0  0  0  0  0  0  0  0
  2  1  1  1  0  0  0
  2  3  1  0  0  0  0
  2  5  1  0  0  0  0
  3  4  2  0  0  0  0
  5  6  1  0  0  0  0
  6  7  1  0  0  0  0
  7  8  1  0  0  0  0
  8  9  2  0  0  0  0
  9 10  1  0  0  0  0
  9 11  1  0  0  0  0
M  CHG  2   1   1   8   1
M  END
>  <CHROM.1>
-179.84671777,118.81790107,-77.98490187,166.91997271,87.03623756,-67.94774776
-4.64646166,-4.07389200,-1.29683062,2.41264569,0.23369482,2.38643784

>  <Name>


>  <RI>
0

>  <Rbt.Current_Directory>
/home/itssahil/PROJECTS/Mol_Feturizer/New_Systems/rnas/1aju

>  <Rbt.Executable>
rbdock ($Id: //depot/dev/client3/rdock/2013.1/src/exe/rbdock.cxx#4 $)

>  <Rbt.Library>
libRbt.so (2013.1, Build901 2013/11/27)

>  <Rbt.Parameter_File>
/export/apps/rDock/src/rDock_2013.1_src/data/scripts/dock_solv.prm

>  <Rbt.Receptor>
prm/pocket_docking_8.prm

>  <SCORE>
-20.9523

>  <SCORE.INTER>
-19.8316

>  <SCORE.INTER.CONST>
1

>  <SCORE.INTER.POLAR>
-3.4274

>  <SCORE.INTER.ROT>
5

>  <SCORE.INTER.SOLV>
11.6622

>  <SCORE.INTER.VDW>
-12.6171

>  <SCORE.INTER.norm>
-1.80287

>  <SCORE.INTRA>
-1.12067

>  <SCORE.INTRA.DIHEDRAL>
-2.85342

>  <SCORE.INTRA.DIHEDRAL.0>
9.90185

>  <SCORE.INTRA.POLAR>
0

>  <SCORE.INTRA.POLAR.0>
0

>  <SCORE.INTRA.REPUL>
0

>  <SCORE.INTRA.REPUL.0>
0

>  <SCORE.INTRA.SOLV>
1.96824

>  <SCORE.INTRA.SOLV.lig_0>
-53.6586

>  <SCORE.INTRA.VDW>
-0.678079

>  <SCORE.INTRA.VDW.0>
-0.556525

>  <SCORE.INTRA.norm>
-0.101879

>  <SCORE.RESTR>
0

>  <SCORE.RESTR.CAVITY>
0

>  <SCORE.RESTR.norm>
0

>  <SCORE.SYSTEM>
0

>  <SCORE.SYSTEM.CONST>
0

>  <SCORE.SYSTEM.DIHEDRAL>
0

>  <SCORE.SYSTEM.SOLV>
0

>  <SCORE.SYSTEM.norm>
0

>  <SCORE.heavy>
11

>  <SCORE.norm>
-1.90475

>  <RMSD>
4.963

$$$$

 OpenBabel11021811383D
libRbt.so/2013.1/901 2013/11/27
 11 10  0  0  0  0  0  0  0  0999 V2000
   -3.2174   -2.4465   -2.7457 N   0  3  0  0  0  0  0  0  0  0  0  0
   -2.3432   -2.1708   -1.5661 C   0  0  2  0  0  0  0  0  0  0  0  0
   -1.1635   -3.1576   -1.5520 C   0  0  0  0  0  0  0  0  0  0  0  0
   -0.9765   -3.9145   -2.4860 O   0  0  0  0  0  0  0  0  0  0  0  0
   -3.1656   -2.3212   -0.2793 C   0  0  0  0  0  0  0  0  0  0  0  0
   -2.3943   -1.7157    0.8968 C   0  0  0  0  0  0  0  0  0  0  0  0
   -3.1279   -2.0229    2.2007 C   0  0  0  0  0  0  0  0  0  0  0  0
   -4.3282   -1.1482    2.3021 N   0  3  0  0  0  0  0  0  0  0  0  0
   -4.2417    0.0183    2.8806 C   0  0  0  0  0  0  0  0  0  0  0  0
   -4.4630    1.1052    2.1874 N   0  0  0  0  0  0  0  0  0  0  0  0
   -3.9416    0.0968    4.1512 N   0  0  0  0  0  0  0  0  0  0  0  0
  2  1  1  6  0  0  0
  2  3  1  0  0  0  0
  2  5  1  0  0  0  0
  3  4  2  0  0  0  0
  5  6  1  0  0  0  0
  6  7  1  0  0  0  0
  7  8  1  0  0  0  0
  8  9  2  0  0  0  0
  9 10  1  0  0  0  0
  9 11  1  0  0  0  0
M  CHG  2   1   1   8   1
M  END
>  <CHROM.1>
-62.73853852,7.21145180,-166.17427215,-172.81032863,-74.97832000,-90.17479235
-3.05804424,-1.59796849,0.51401597,1.03492427,0.82254493,-1.69600637

>  <Name>


>  <RI>
0

>  <Rbt.Current_Directory>
/home/itssahil/PROJECTS/Mol_Feturizer/New_Systems/rnas/1aju

>  <Rbt.Executable>
rbdock ($Id: //depot/dev/client3/rdock/2013.1/src/exe/rbdock.cxx#4 $)

>  <Rbt.Library>
libRbt.so (2013.1, Build901 2013/11/27)

>  <Rbt.Parameter_File>
/export/apps/rDock/src/rDock_2013.1_src/data/scripts/dock_solv.prm

>  <Rbt.Receptor>
prm/pocket_docking_8.prm

>  <SCORE>
-22.7313

>  <SCORE.INTER>
-20.7961

>  <SCORE.INTER.CONST>
1

>  <SCORE.INTER.POLAR>
-3.84437

>  <SCORE.INTER.ROT>
5

>  <SCORE.INTER.SOLV>
14.444

>  <SCORE.INTER.VDW>
-12.7975

>  <SCORE.INTER.norm>
-1.89056

>  <SCORE.INTRA>
-1.93515

>  <SCORE.INTRA.DIHEDRAL>
-5.1158

>  <SCORE.INTRA.DIHEDRAL.0>
9.90185

>  <SCORE.INTRA.POLAR>
0

>  <SCORE.INTRA.POLAR.0>
0

>  <SCORE.INTRA.REPUL>
0

>  <SCORE.INTRA.REPUL.0>
0

>  <SCORE.INTRA.SOLV>
1.50866

>  <SCORE.INTRA.SOLV.lig_0>
-53.6586

>  <SCORE.INTRA.VDW>
-0.131576

>  <SCORE.INTRA.VDW.0>
-0.556525

>  <SCORE.INTRA.norm>
-0.175923

>  <SCORE.RESTR>
0

>  <SCORE.RESTR.CAVITY>
0

>  <SCORE.RESTR.norm>
0

>  <SCORE.SYSTEM>
0

>  <SCORE.SYSTEM.CONST>
0

>  <SCORE.SYSTEM.DIHEDRAL>
0

>  <SCORE.SYSTEM.SOLV>
0

>  <SCORE.SYSTEM.norm>
0

>  <SCORE.heavy>
11

>  <SCORE.norm>
-2.06648

>  <RMSD>
4.969

$$$$

 OpenBabel11021811383D
libRbt.so/2013.1/901 2013/11/27
 11 10  0  0  0  0  0  0  0  0999 V2000
   -3.0667   -2.2765   -2.0152 N   0  3  0  0  0  0  0  0  0  0  0  0
   -1.9952   -2.4028   -0.9818 C   0  0  2  0  0  0  0  0  0  0  0  0
   -2.0274   -3.8137   -0.3702 C   0  0  0  0  0  0  0  0  0  0  0  0
   -1.1201   -4.5986   -0.5728 O   0  0  0  0  0  0  0  0  0  0  0  0
   -2.2215   -1.3529    0.1142 C   0  0  0  0  0  0  0  0  0  0  0  0
   -3.4891   -1.6972    0.9014 C   0  0  0  0  0  0  0  0  0  0  0  0
   -3.5160   -0.8962    2.2015 C   0  0  0  0  0  0  0  0  0  0  0  0
   -3.9894    0.4852    1.9128 N   0  3  0  0  0  0  0  0  0  0  0  0
   -4.5865    1.1806    2.8416 C   0  0  0  0  0  0  0  0  0  0  0  0
   -4.0417    2.2876    3.2758 N   0  0  0  0  0  0  0  0  0  0  0  0
   -5.7295    0.7732    3.3298 N   0  0  0  0  0  0  0  0  0  0  0  0
  2  1  1  6  0  0  0
  2  3  1  0  0  0  0
  2  5  1  0  0  0  0
  3  4  2  0  0  0  0
  5  6  1  0  0  0  0
  6  7  1  0  0  0  0
  7  8  1  0  0  0  0
  8  9  2  0  0  0  0
  9 10  1  0  0  0  0
  9 11  1  0  0  0  0
M  CHG  2   1   1   8   1
M  END
>  <CHROM.1>
-10.70494686,111.89895187,68.22001472,164.92387801,80.01107655,153.15623806
-3.27398874,-1.10534302,0.94750801,0.48250480,1.09796983,-1.39857136

>  <Name>


>  <RI>
0

>  <Rbt.Current_Directory>
/home/itssahil/PROJECTS/Mol_Feturizer/New_Systems/rnas/1aju

>  <Rbt.Executable>
rbdock ($Id: //depot/dev/client3/rdock/2013.1/src/exe/rbdock.cxx#4 $)

>  <Rbt.Library>
libRbt.so (2013.1, Build901 2013/11/27)

>  <Rbt.Parameter_File>
/export/apps/rDock/src/rDock_2013.1_src/data/scripts/dock_solv.prm

>  <Rbt.Receptor>
prm/pocket_docking_8.prm

>  <SCORE>
-24.4093

>  <SCORE.INTER>
-26.8885

>  <SCORE.INTER.CONST>
1

>  <SCORE.INTER.POLAR>
-4.98479

>  <SCORE.INTER.ROT>
5

>  <SCORE.INTER.SOLV>
17.0622

>  <SCORE.INTER.VDW>
-13.9304

>  <SCORE.INTER.norm>
-2.44441

>  <SCORE.INTRA>
2.47917

>  <SCORE.INTRA.DIHEDRAL>
-0.936963

>  <SCORE.INTRA.DIHEDRAL.0>
9.90185

>  <SCORE.INTRA.POLAR>
0

>  <SCORE.INTRA.POLAR.0>
0

>  <SCORE.INTRA.REPUL>
0

>  <SCORE.INTRA.REPUL.0>
0

>  <SCORE.INTRA.SOLV>
1.52793

>  <SCORE.INTRA.SOLV.lig_0>
-53.6586

>  <SCORE.INTRA.VDW>
2.18369

>  <SCORE.INTRA.VDW.0>
-0.556525

>  <SCORE.INTRA.norm>
0.225379

>  <SCORE.RESTR>
0

>  <SCORE.RESTR.CAVITY>
0

>  <SCORE.RESTR.norm>
0

>  <SCORE.SYSTEM>
0

>  <SCORE.SYSTEM.CONST>
0

>  <SCORE.SYSTEM.DIHEDRAL>
0

>  <SCORE.SYSTEM.SOLV>
0

>  <SCORE.SYSTEM.norm>
0

>  <SCORE.heavy>
11

>  <SCORE.norm>
-2.21903

>  <RMSD>
5.023

$$$$

 OpenBabel11021811383D
libRbt.so/2013.1/901 2013/11/27
 11 10  0  0  0  0  0  0  0  0999 V2000
   -3.0469   -4.0567   -0.5189 N   0  3  0  0  0  0  0  0  0  0  0  0
   -2.5471   -2.7269   -0.9812 C   0  0  2  0  0  0  0  0  0  0  0  0
   -1.2255   -2.9066   -1.7473 C   0  0  0  0  0  0  0  0  0  0  0  0
   -1.0379   -3.8897   -2.4391 O   0  0  0  0  0  0  0  0  0  0  0  0
   -2.3267   -1.8173    0.2348 C   0  0  0  0  0  0  0  0  0  0  0  0
   -3.6389   -1.6693    1.0101 C   0  0  0  0  0  0  0  0  0  0  0  0
   -3.4135   -0.7781    2.2297 C   0  0  0  0  0  0  0  0  0  0  0  0
   -3.8958    0.5967    1.9243 N   0  3  0  0  0  0  0  0  0  0  0  0
   -4.5095    1.2942    2.8405 C   0  0  0  0  0  0  0  0  0  0  0  0
   -3.9795    2.4095    3.2717 N   0  0  0  0  0  0  0  0  0  0  0  0
   -5.6544    0.8807    3.3190 N   0  0  0  0  0  0  0  0  0  0  0  0
  2  1  1  1  0  0  0
  2  3  1  0  0  0  0
  2  5  1  0  0  0  0
  3  4  2  0  0  0  0
  5  6  1  0  0  0  0
  6  7  1  0  0  0  0
  7  8  1  0  0  0  0
  8  9  2  0  0  0  0
  9 10  1  0  0  0  0
  9 11  1  0  0  0  0
M  CHG  2   1   1   8   1
M  END
>  <CHROM.1>
66.70464192,34.91845760,-58.22670426,179.28730042,99.93272946,141.43196158
-3.22595066,-1.16879232,0.83688222,1.07258370,-0.64402657,-2.70518239

>  <Name>


>  <RI>
0

>  <Rbt.Current_Directory>
/home/itssahil/PROJECTS/Mol_Feturizer/New_Systems/rnas/1aju

>  <Rbt.Executable>
rbdock ($Id: //depot/dev/client3/rdock/2013.1/src/exe/rbdock.cxx#4 $)

>  <Rbt.Library>
libRbt.so (2013.1, Build901 2013/11/27)

>  <Rbt.Parameter_File>
/export/apps/rDock/src/rDock_2013.1_src/data/scripts/dock_solv.prm

>  <Rbt.Receptor>
prm/pocket_docking_8.prm

>  <SCORE>
-22.2287

>  <SCORE.INTER>
-23.0739

>  <SCORE.INTER.CONST>
1

>  <SCORE.INTER.POLAR>
-3.99998

>  <SCORE.INTER.ROT>
5

>  <SCORE.INTER.SOLV>
12.0001

>  <SCORE.INTER.VDW>
-12.9827

>  <SCORE.INTER.norm>
-2.09763

>  <SCORE.INTRA>
0.84523

>  <SCORE.INTRA.DIHEDRAL>
-0.923311

>  <SCORE.INTRA.DIHEDRAL.0>
9.90185

>  <SCORE.INTRA.POLAR>
0

>  <SCORE.INTRA.POLAR.0>
0

>  <SCORE.INTRA.REPUL>
0

>  <SCORE.INTRA.REPUL.0>
0

>  <SCORE.INTRA.SOLV>
2.41287

>  <SCORE.INTRA.SOLV.lig_0>
-53.6586

>  <SCORE.INTRA.VDW>
0.100452

>  <SCORE.INTRA.VDW.0>
-0.556525

>  <SCORE.INTRA.norm>
0.0768391

>  <SCORE.RESTR>
0

>  <SCORE.RESTR.CAVITY>
0

>  <SCORE.RESTR.norm>
0

>  <SCORE.SYSTEM>
0

>  <SCORE.SYSTEM.CONST>
0

>  <SCORE.SYSTEM.DIHEDRAL>
0

>  <SCORE.SYSTEM.SOLV>
0

>  <SCORE.SYSTEM.norm>
0

>  <SCORE.heavy>
11

>  <SCORE.norm>
-2.02079

>  <RMSD>
5.083

$$$$

 OpenBabel11021811383D
libRbt.so/2013.1/901 2013/11/27
 11 10  0  0  0  0  0  0  0  0999 V2000
   -4.3718   -2.1578   -4.5180 N   0  3  0  0  0  0  0  0  0  0  0  0
   -3.9747   -2.4785   -3.1140 C   0  0  2  0  0  0  0  0  0  0  0  0
   -2.7517   -3.4112   -3.1204 C   0  0  0  0  0  0  0  0  0  0  0  0
   -1.8642   -3.2764   -2.2993 O   0  0  0  0  0  0  0  0  0  0  0  0
   -5.1483   -3.1606   -2.3983 C   0  0  0  0  0  0  0  0  0  0  0  0
   -4.7657   -3.4481   -0.9438 C   0  0  0  0  0  0  0  0  0  0  0  0
   -5.7677   -4.4278   -0.3365 C   0  0  0  0  0  0  0  0  0  0  0  0
   -7.1396   -3.8651   -0.4672 N   0  3  0  0  0  0  0  0  0  0  0  0
   -8.1596   -4.6598   -0.6427 C   0  0  0  0  0  0  0  0  0  0  0  0
   -9.1035   -4.7146    0.2611 N   0  0  0  0  0  0  0  0  0  0  0  0
   -8.2387   -5.3925   -1.7232 N   0  0  0  0  0  0  0  0  0  0  0  0
  2  1  1  6  0  0  0
  2  3  1  0  0  0  0
  2  5  1  0  0  0  0
  3  4  2  0  0  0  0
  5  6  1  0  0  0  0
  6  7  1  0  0  0  0
  7  8  1  0  0  0  0
  8  9  2  0  0  0  0
  9 10  1  0  0  0  0
  9 11  1  0  0  0  0
M  CHG  2   1   1   8   1
M  END
>  <CHROM.1>
-160.69850518,141.34331635,-178.03079991,-165.65903095,-56.30473572,147.04333278
-5.59294090,-3.71984398,-1.78334865,0.55269000,-0.16438128,-1.22136419

>  <Name>


>  <RI>
224

>  <Rbt.Current_Directory>
/home/itssahil/PROJECTS/Mol_Feturizer/New_Systems/rnas/1aju

>  <Rbt.Executable>
rbdock ($Id: //depot/dev/client3/rdock/2013.1/src/exe/rbdock.cxx#4 $)

>  <Rbt.Library>
libRbt.so (2013.1, Build901 2013/11/27)

>  <Rbt.Parameter_File>
/export/apps/rDock/src/rDock_2013.1_src/data/scripts/dock_solv.prm

>  <Rbt.Receptor>
prm/pocket_docking_5.prm

>  <SCORE>
-22.1217

>  <SCORE.INTER>
-20.948

>  <SCORE.INTER.CONST>
1

>  <SCORE.INTER.POLAR>
-4.04788

>  <SCORE.INTER.ROT>
5

>  <SCORE.INTER.SOLV>
22.7762

>  <SCORE.INTER.VDW>
-14.9978

>  <SCORE.INTER.norm>
-1.90436

>  <SCORE.INTRA>
-1.17719

>  <SCORE.INTRA.DIHEDRAL>
-4.38769

>  <SCORE.INTRA.DIHEDRAL.0>
9.90185

>  <SCORE.INTRA.POLAR>
0

>  <SCORE.INTRA.POLAR.0>
0

>  <SCORE.INTRA.REPUL>
0

>  <SCORE.INTRA.REPUL.0>
0

>  <SCORE.INTRA.SOLV>
0.621161

>  <SCORE.INTRA.SOLV.lig_0>
-53.6586

>  <SCORE.INTRA.VDW>
0.70608

>  <SCORE.INTRA.VDW.0>
-0.556525

>  <SCORE.INTRA.norm>
-0.107017

>  <SCORE.RESTR>
0.00350756

>  <SCORE.RESTR.CAVITY>
0.00350756

>  <SCORE.RESTR.norm>
0.000318869

>  <SCORE.SYSTEM>
0

>  <SCORE.SYSTEM.CONST>
0

>  <SCORE.SYSTEM.DIHEDRAL>
0

>  <SCORE.SYSTEM.SOLV>
0

>  <SCORE.SYSTEM.norm>
0

>  <SCORE.heavy>
11

>  <SCORE.norm>
-2.01106

>  <RMSD>
5.094

$$$$

 OpenBabel11021811383D
libRbt.so/2013.1/901 2013/11/27
 11 10  0  0  0  0  0  0  0  0999 V2000
   -4.3410   -2.1981   -4.4918 N   0  3  0  0  0  0  0  0  0  0  0  0
   -4.0603   -2.5849   -3.0765 C   0  0  2  0  0  0  0  0  0  0  0  0
   -2.7814   -3.4372   -3.0149 C   0  0  0  0  0  0  0  0  0  0  0  0
   -1.9139   -3.1962   -2.1965 O   0  0  0  0  0  0  0  0  0  0  0  0
   -5.2481   -3.3842   -2.5242 C   0  0  0  0  0  0  0  0  0  0  0  0
   -5.6260   -2.8517   -1.1391 C   0  0  0  0  0  0  0  0  0  0  0  0
   -4.5175   -3.1869   -0.1434 C   0  0  0  0  0  0  0  0  0  0  0  0
   -4.4992   -2.1562    0.9305 N   0  3  0  0  0  0  0  0  0  0  0  0
   -3.3759   -1.8366    1.5126 C   0  0  0  0  0  0  0  0  0  0  0  0
   -2.9109   -0.6190    1.4032 N   0  0  0  0  0  0  0  0  0  0  0  0
   -2.7231   -2.7311    2.2086 N   0  0  0  0  0  0  0  0  0  0  0  0
  2  1  1  6  0  0  0
  2  3  1  0  0  0  0
  2  5  1  0  0  0  0
  3  4  2  0  0  0  0
  5  6  1  0  0  0  0
  6  7  1  0  0  0  0
  7  8  1  0  0  0  0
  8  9  2  0  0  0  0
  9 10  1  0  0  0  0
  9 11  1  0  0  0  0
M  CHG  2   1   1   8   1
M  END
>  <CHROM.1>
-155.80539471,132.57459088,-133.29371578,-68.53975275,151.26372363,-148.59754231
-3.79527243,-2.53577583,-0.96494171,1.71638533,-0.04503184,-1.74185728

>  <Name>


>  <RI>
0

>  <Rbt.Current_Directory>
/home/itssahil/PROJECTS/Mol_Feturizer/New_Systems/rnas/1aju

>  <Rbt.Executable>
rbdock ($Id: //depot/dev/client3/rdock/2013.1/src/exe/rbdock.cxx#4 $)

>  <Rbt.Library>
libRbt.so (2013.1, Build901 2013/11/27)

>  <Rbt.Parameter_File>
/export/apps/rDock/src/rDock_2013.1_src/data/scripts/dock_solv.prm

>  <Rbt.Receptor>
prm/pocket_docking_7.prm

>  <SCORE>
-20.9311

>  <SCORE.INTER>
-22.2336

>  <SCORE.INTER.CONST>
1

>  <SCORE.INTER.POLAR>
-4.22986

>  <SCORE.INTER.ROT>
5

>  <SCORE.INTER.SOLV>
18.8211

>  <SCORE.INTER.VDW>
-13.9299

>  <SCORE.INTER.norm>
-2.02124

>  <SCORE.INTRA>
1.30254

>  <SCORE.INTRA.DIHEDRAL>
1.96898

>  <SCORE.INTRA.DIHEDRAL.0>
9.90185

>  <SCORE.INTRA.POLAR>
0

>  <SCORE.INTRA.POLAR.0>
0

>  <SCORE.INTRA.REPUL>
0

>  <SCORE.INTRA.REPUL.0>
0

>  <SCORE.INTRA.SOLV>
0.303985

>  <SCORE.INTRA.SOLV.lig_0>
-53.6586

>  <SCORE.INTRA.VDW>
0.166055

>  <SCORE.INTRA.VDW.0>
-0.556525

>  <SCORE.INTRA.norm>
0.118413

>  <SCORE.RESTR>
0

>  <SCORE.RESTR.CAVITY>
0

>  <SCORE.RESTR.norm>
0

>  <SCORE.SYSTEM>
0

>  <SCORE.SYSTEM.CONST>
0

>  <SCORE.SYSTEM.DIHEDRAL>
0

>  <SCORE.SYSTEM.SOLV>
0

>  <SCORE.SYSTEM.norm>
0

>  <SCORE.heavy>
11

>  <SCORE.norm>
-1.90283

>  <RMSD>
5.102

$$$$

 OpenBabel11021811383D
libRbt.so/2013.1/901 2013/11/27
 11 10  0  0  0  0  0  0  0  0999 V2000
   -3.5091   -2.6287   -3.2484 N   0  3  0  0  0  0  0  0  0  0  0  0
   -2.8215   -2.4349   -1.9364 C   0  0  2  0  0  0  0  0  0  0  0  0
   -1.6888   -3.4645   -1.7867 C   0  0  0  0  0  0  0  0  0  0  0  0
   -1.2827   -4.0851   -2.7512 O   0  0  0  0  0  0  0  0  0  0  0  0
   -3.8385   -2.6081   -0.8004 C   0  0  0  0  0  0  0  0  0  0  0  0
   -3.2915   -1.9712    0.4802 C   0  0  0  0  0  0  0  0  0  0  0  0
   -4.3219   -2.1087    1.5991 C   0  0  0  0  0  0  0  0  0  0  0  0
   -3.9167   -1.2469    2.7432 N   0  3  0  0  0  0  0  0  0  0  0  0
   -4.6257   -0.1970    3.0558 C   0  0  0  0  0  0  0  0  0  0  0  0
   -5.2171   -0.1358    4.2208 N   0  0  0  0  0  0  0  0  0  0  0  0
   -4.7370    0.7925    2.2078 N   0  0  0  0  0  0  0  0  0  0  0  0
  2  1  1  6  0  0  0
  2  3  1  0  0  0  0
  2  5  1  0  0  0  0
  3  4  2  0  0  0  0
  5  6  1  0  0  0  0
  6  7  1  0  0  0  0
  7  8  1  0  0  0  0
  8  9  2  0  0  0  0
  9 10  1  0  0  0  0
  9 11  1  0  0  0  0
M  CHG  2   1   1   8   1
M  END
>  <CHROM.1>
176.57144596,15.28191153,-161.26082571,178.37073353,-168.08960394,111.93907326
-3.58077561,-1.81540562,0.31758723,1.00767662,0.86043943,-1.61568795

>  <Name>


>  <RI>
0

>  <Rbt.Current_Directory>
/home/itssahil/PROJECTS/Mol_Feturizer/New_Systems/rnas/1aju

>  <Rbt.Executable>
rbdock ($Id: //depot/dev/client3/rdock/2013.1/src/exe/rbdock.cxx#4 $)

>  <Rbt.Library>
libRbt.so (2013.1, Build901 2013/11/27)

>  <Rbt.Parameter_File>
/export/apps/rDock/src/rDock_2013.1_src/data/scripts/dock_solv.prm

>  <Rbt.Receptor>
prm/pocket_docking_8.prm

>  <SCORE>
-22.1639

>  <SCORE.INTER>
-20.0965

>  <SCORE.INTER.CONST>
1

>  <SCORE.INTER.POLAR>
-3.32057

>  <SCORE.INTER.ROT>
5

>  <SCORE.INTER.SOLV>
15.878

>  <SCORE.INTER.VDW>
-14.5551

>  <SCORE.INTER.norm>
-1.82695

>  <SCORE.INTRA>
-2.06741

>  <SCORE.INTRA.DIHEDRAL>
-4.84998

>  <SCORE.INTRA.DIHEDRAL.0>
9.90185

>  <SCORE.INTRA.POLAR>
0

>  <SCORE.INTRA.POLAR.0>
0

>  <SCORE.INTRA.REPUL>
0

>  <SCORE.INTRA.REPUL.0>
0

>  <SCORE.INTRA.SOLV>
1.2035

>  <SCORE.INTRA.SOLV.lig_0>
-53.6586

>  <SCORE.INTRA.VDW>
-0.244167

>  <SCORE.INTRA.VDW.0>
-0.556525

>  <SCORE.INTRA.norm>
-0.187946

>  <SCORE.RESTR>
0

>  <SCORE.RESTR.CAVITY>
0

>  <SCORE.RESTR.norm>
0

>  <SCORE.SYSTEM>
0

>  <SCORE.SYSTEM.CONST>
0

>  <SCORE.SYSTEM.DIHEDRAL>
0

>  <SCORE.SYSTEM.SOLV>
0

>  <SCORE.SYSTEM.norm>
0

>  <SCORE.heavy>
11

>  <SCORE.norm>
-2.0149

>  <RMSD>
5.117

$$$$

 OpenBabel11021811383D
libRbt.so/2013.1/901 2013/11/27
 11 10  0  0  0  0  0  0  0  0999 V2000
   -4.0189   -2.3661   -3.9096 N   0  3  0  0  0  0  0  0  0  0  0  0
   -4.4202   -2.5672   -2.4847 C   0  0  2  0  0  0  0  0  0  0  0  0
   -3.2696   -2.1428   -1.5563 C   0  0  0  0  0  0  0  0  0  0  0  0
   -2.1824   -1.8428   -2.0127 O   0  0  0  0  0  0  0  0  0  0  0  0
   -4.7569   -4.0468   -2.2567 C   0  0  0  0  0  0  0  0  0  0  0  0
   -5.8108   -4.1695   -1.1526 C   0  0  0  0  0  0  0  0  0  0  0  0
   -6.7429   -5.3386   -1.4643 C   0  0  0  0  0  0  0  0  0  0  0  0
   -7.1824   -5.2462   -2.8835 N   0  3  0  0  0  0  0  0  0  0  0  0
   -7.2373   -6.3196   -3.6234 C   0  0  0  0  0  0  0  0  0  0  0  0
   -8.3867   -6.7214   -4.1010 N   0  0  0  0  0  0  0  0  0  0  0  0
   -6.1437   -6.9854   -3.8909 N   0  0  0  0  0  0  0  0  0  0  0  0
  2  1  1  6  0  0  0
  2  3  1  0  0  0  0
  2  5  1  0  0  0  0
  3  4  2  0  0  0  0
  5  6  1  0  0  0  0
  6  7  1  0  0  0  0
  7  8  1  0  0  0  0
  8  9  2  0  0  0  0
  9 10  1  0  0  0  0
  9 11  1  0  0  0  0
M  CHG  2   1   1   8   1
M  END
>  <CHROM.1>
151.76482589,-7.22696931,-150.32687897,145.25554087,-47.77190918,137.93861120
-5.45436962,-4.33982083,-2.72492622,-0.36893305,-0.73920263,-1.81026411

>  <Name>


>  <RI>
0

>  <Rbt.Current_Directory>
/home/itssahil/PROJECTS/Mol_Feturizer/New_Systems/rnas/1aju

>  <Rbt.Executable>
rbdock ($Id: //depot/dev/client3/rdock/2013.1/src/exe/rbdock.cxx#4 $)

>  <Rbt.Library>
libRbt.so (2013.1, Build901 2013/11/27)

>  <Rbt.Parameter_File>
/export/apps/rDock/src/rDock_2013.1_src/data/scripts/dock_solv.prm

>  <Rbt.Receptor>
prm/pocket_docking_4.prm

>  <SCORE>
-15.625

>  <SCORE.INTER>
-18.6858

>  <SCORE.INTER.CONST>
1

>  <SCORE.INTER.POLAR>
-2.96478

>  <SCORE.INTER.ROT>
5

>  <SCORE.INTER.SOLV>
18.7422

>  <SCORE.INTER.VDW>
-15.7553

>  <SCORE.INTER.norm>
-1.69871

>  <SCORE.INTRA>
2.36907

>  <SCORE.INTRA.DIHEDRAL>
1.69563

>  <SCORE.INTRA.DIHEDRAL.0>
9.90185

>  <SCORE.INTRA.POLAR>
0

>  <SCORE.INTRA.POLAR.0>
0

>  <SCORE.INTRA.REPUL>
0

>  <SCORE.INTRA.REPUL.0>
0

>  <SCORE.INTRA.SOLV>
2.17961

>  <SCORE.INTRA.SOLV.lig_0>
-53.6586

>  <SCORE.INTRA.VDW>
0.43145

>  <SCORE.INTRA.VDW.0>
-0.556525

>  <SCORE.INTRA.norm>
0.21537

>  <SCORE.RESTR>
0.691679

>  <SCORE.RESTR.CAVITY>
0.691679

>  <SCORE.RESTR.norm>
0.0628799

>  <SCORE.SYSTEM>
0

>  <SCORE.SYSTEM.CONST>
0

>  <SCORE.SYSTEM.DIHEDRAL>
0

>  <SCORE.SYSTEM.SOLV>
0

>  <SCORE.SYSTEM.norm>
0

>  <SCORE.heavy>
11

>  <SCORE.norm>
-1.42046

>  <RMSD>
5.131

$$$$

 OpenBabel11021811383D
libRbt.so/2013.1/901 2013/11/27
 11 10  0  0  0  0  0  0  0  0999 V2000
   -1.5786   -1.9195   -1.5497 N   0  3  0  0  0  0  0  0  0  0  0  0
   -2.3101   -2.9251   -0.7219 C   0  0  2  0  0  0  0  0  0  0  0  0
   -3.1301   -3.8520   -1.6353 C   0  0  0  0  0  0  0  0  0  0  0  0
   -3.0243   -5.0610   -1.5484 O   0  0  0  0  0  0  0  0  0  0  0  0
   -3.2424   -2.1961    0.2550 C   0  0  0  0  0  0  0  0  0  0  0  0
   -2.4226   -1.6156    1.4108 C   0  0  0  0  0  0  0  0  0  0  0  0
   -3.3644   -1.1222    2.5072 C   0  0  0  0  0  0  0  0  0  0  0  0
   -3.8822    0.2230    2.1357 N   0  3  0  0  0  0  0  0  0  0  0  0
   -4.5032    0.9534    3.0209 C   0  0  0  0  0  0  0  0  0  0  0  0
   -3.9956    2.1019    3.3871 N   0  0  0  0  0  0  0  0  0  0  0  0
   -5.6331    0.5392    3.5331 N   0  0  0  0  0  0  0  0  0  0  0  0
  2  1  1  6  0  0  0
  2  3  1  0  0  0  0
  2  5  1  0  0  0  0
  3  4  2  0  0  0  0
  5  6  1  0  0  0  0
  6  7  1  0  0  0  0
  7  8  1  0  0  0  0
  8  9  2  0  0  0  0
  9 10  1  0  0  0  0
  9 11  1  0  0  0  0
M  CHG  2   1   1   8   1
M  END
>  <CHROM.1>
179.34154892,127.57441520,-76.34821283,-169.49059019,-80.86121646,-167.23305990
-3.36562160,-1.32544652,0.96791819,-1.20675792,0.65505373,0.54636222

>  <Name>


>  <RI>
0

>  <Rbt.Current_Directory>
/home/itssahil/PROJECTS/Mol_Feturizer/New_Systems/rnas/1aju

>  <Rbt.Executable>
rbdock ($Id: //depot/dev/client3/rdock/2013.1/src/exe/rbdock.cxx#4 $)

>  <Rbt.Library>
libRbt.so (2013.1, Build901 2013/11/27)

>  <Rbt.Parameter_File>
/export/apps/rDock/src/rDock_2013.1_src/data/scripts/dock_solv.prm

>  <Rbt.Receptor>
prm/pocket_docking_7.prm

>  <SCORE>
-20.3891

>  <SCORE.INTER>
-18.6947

>  <SCORE.INTER.CONST>
1

>  <SCORE.INTER.POLAR>
-3.77065

>  <SCORE.INTER.ROT>
5

>  <SCORE.INTER.SOLV>
18.2537

>  <SCORE.INTER.VDW>
-12.9122

>  <SCORE.INTER.norm>
-1.69952

>  <SCORE.INTRA>
-1.75844

>  <SCORE.INTRA.DIHEDRAL>
-4.05131

>  <SCORE.INTRA.DIHEDRAL.0>
9.90185

>  <SCORE.INTRA.POLAR>
0

>  <SCORE.INTRA.POLAR.0>
0

>  <SCORE.INTRA.REPUL>
0

>  <SCORE.INTRA.REPUL.0>
0

>  <SCORE.INTRA.SOLV>
0.992908

>  <SCORE.INTRA.SOLV.lig_0>
-53.6586

>  <SCORE.INTRA.VDW>
-0.229243

>  <SCORE.INTRA.VDW.0>
-0.556525

>  <SCORE.INTRA.norm>
-0.159859

>  <SCORE.RESTR>
0.0640259

>  <SCORE.RESTR.CAVITY>
0.0640259

>  <SCORE.RESTR.norm>
0.00582054

>  <SCORE.SYSTEM>
0

>  <SCORE.SYSTEM.CONST>
0

>  <SCORE.SYSTEM.DIHEDRAL>
0

>  <SCORE.SYSTEM.SOLV>
0

>  <SCORE.SYSTEM.norm>
0

>  <SCORE.heavy>
11

>  <SCORE.norm>
-1.85356

>  <RMSD>
5.140

$$$$

 OpenBabel11021811383D
libRbt.so/2013.1/901 2013/11/27
 11 10  0  0  0  0  0  0  0  0999 V2000
   -7.5316   -6.2015   -1.9334 N   0  3  0  0  0  0  0  0  0  0  0  0
   -6.1281   -5.8088   -1.6055 C   0  0  2  0  0  0  0  0  0  0  0  0
   -5.8681   -6.0165   -0.1038 C   0  0  0  0  0  0  0  0  0  0  0  0
   -4.9372   -6.7018    0.2758 O   0  0  0  0  0  0  0  0  0  0  0  0
   -5.9149   -4.3344   -1.9736 C   0  0  0  0  0  0  0  0  0  0  0  0
   -4.4155   -4.0255   -2.0090 C   0  0  0  0  0  0  0  0  0  0  0  0
   -4.2075   -2.5155   -2.1035 C   0  0  0  0  0  0  0  0  0  0  0  0
   -2.7658   -2.2366   -2.3481 N   0  3  0  0  0  0  0  0  0  0  0  0
   -1.9106   -2.2979   -1.3645 C   0  0  0  0  0  0  0  0  0  0  0  0
   -0.9492   -3.1842   -1.3937 N   0  0  0  0  0  0  0  0  0  0  0  0
   -2.0127   -1.4695   -0.3574 N   0  0  0  0  0  0  0  0  0  0  0  0
  2  1  1  1  0  0  0
  2  3  1  0  0  0  0
  2  5  1  0  0  0  0
  3  4  2  0  0  0  0
  5  6  1  0  0  0  0
  6  7  1  0  0  0  0
  7  8  1  0  0  0  0
  8  9  2  0  0  0  0
  9 10  1  0  0  0  0
  9 11  1  0  0  0  0
M  CHG  2   1   1   8   1
M  END
>  <CHROM.1>
-59.07135013,125.23552577,-164.56576098,-169.02488910,-171.35730223,-78.13040838
-4.23980211,-4.08928733,-1.34962224,2.58246584,0.46203405,2.47371058

>  <Name>


>  <RI>
0

>  <Rbt.Current_Directory>
/home/itssahil/PROJECTS/Mol_Feturizer/New_Systems/rnas/1aju

>  <Rbt.Executable>
rbdock ($Id: //depot/dev/client3/rdock/2013.1/src/exe/rbdock.cxx#4 $)

>  <Rbt.Library>
libRbt.so (2013.1, Build901 2013/11/27)

>  <Rbt.Parameter_File>
/export/apps/rDock/src/rDock_2013.1_src/data/scripts/dock_solv.prm

>  <Rbt.Receptor>
prm/pocket_docking_8.prm

>  <SCORE>
-19.6689

>  <SCORE.INTER>
-16.8185

>  <SCORE.INTER.CONST>
1

>  <SCORE.INTER.POLAR>
-2.93626

>  <SCORE.INTER.ROT>
5

>  <SCORE.INTER.SOLV>
10.5322

>  <SCORE.INTER.VDW>
-11.8689

>  <SCORE.INTER.norm>
-1.52895

>  <SCORE.INTRA>
-2.85039

>  <SCORE.INTRA.DIHEDRAL>
-5.28778

>  <SCORE.INTRA.DIHEDRAL.0>
9.90185

>  <SCORE.INTRA.POLAR>
0

>  <SCORE.INTRA.POLAR.0>
0

>  <SCORE.INTRA.REPUL>
0

>  <SCORE.INTRA.REPUL.0>
0

>  <SCORE.INTRA.SOLV>
0.114479

>  <SCORE.INTRA.SOLV.lig_0>
-53.6586

>  <SCORE.INTRA.VDW>
-0.263735

>  <SCORE.INTRA.VDW.0>
-0.556525

>  <SCORE.INTRA.norm>
-0.259126

>  <SCORE.RESTR>
0

>  <SCORE.RESTR.CAVITY>
0

>  <SCORE.RESTR.norm>
0

>  <SCORE.SYSTEM>
0

>  <SCORE.SYSTEM.CONST>
0

>  <SCORE.SYSTEM.DIHEDRAL>
0

>  <SCORE.SYSTEM.SOLV>
0

>  <SCORE.SYSTEM.norm>
0

>  <SCORE.heavy>
11

>  <SCORE.norm>
-1.78808

>  <RMSD>
5.152

$$$$

 OpenBabel11021811383D
libRbt.so/2013.1/901 2013/11/27
 11 10  0  0  0  0  0  0  0  0999 V2000
   -4.2967   -2.2353   -4.3094 N   0  3  0  0  0  0  0  0  0  0  0  0
   -3.6092   -2.3453   -2.9876 C   0  0  2  0  0  0  0  0  0  0  0  0
   -2.6938   -3.5813   -2.9797 C   0  0  0  0  0  0  0  0  0  0  0  0
   -1.6071   -3.5451   -2.4338 O   0  0  0  0  0  0  0  0  0  0  0  0
   -4.6615   -2.4672   -1.8774 C   0  0  0  0  0  0  0  0  0  0  0  0
   -3.9773   -2.3839   -0.5100 C   0  0  0  0  0  0  0  0  0  0  0  0
   -5.0370   -2.3307    0.5886 C   0  0  0  0  0  0  0  0  0  0  0  0
   -4.3844   -1.9740    1.8781 N   0  3  0  0  0  0  0  0  0  0  0  0
   -4.0633   -0.7344    2.1290 C   0  0  0  0  0  0  0  0  0  0  0  0
   -4.6263   -0.1070    3.1291 N   0  0  0  0  0  0  0  0  0  0  0  0
   -3.1757   -0.1261    1.3855 N   0  0  0  0  0  0  0  0  0  0  0  0
  2  1  1  6  0  0  0
  2  3  1  0  0  0  0
  2  5  1  0  0  0  0
  3  4  2  0  0  0  0
  5  6  1  0  0  0  0
  6  7  1  0  0  0  0
  7  8  1  0  0  0  0
  8  9  2  0  0  0  0
  9 10  1  0  0  0  0
  9 11  1  0  0  0  0
M  CHG  2   1   1   8   1
M  END
>  <CHROM.1>
65.78957821,141.49681326,-172.16196690,173.02432435,-168.62024352,78.44603131
-3.82265567,-1.96329498,-0.55671319,1.40117269,0.33803376,-1.88682955

>  <Name>


>  <RI>
0

>  <Rbt.Current_Directory>
/home/itssahil/PROJECTS/Mol_Feturizer/New_Systems/rnas/1aju

>  <Rbt.Executable>
rbdock ($Id: //depot/dev/client3/rdock/2013.1/src/exe/rbdock.cxx#4 $)

>  <Rbt.Library>
libRbt.so (2013.1, Build901 2013/11/27)

>  <Rbt.Parameter_File>
/export/apps/rDock/src/rDock_2013.1_src/data/scripts/dock_solv.prm

>  <Rbt.Receptor>
prm/pocket_docking_7.prm

>  <SCORE>
-14.2454

>  <SCORE.INTER>
-12.6276

>  <SCORE.INTER.CONST>
1

>  <SCORE.INTER.POLAR>
-2.34633

>  <SCORE.INTER.ROT>
5

>  <SCORE.INTER.SOLV>
18.8412

>  <SCORE.INTER.VDW>
-13.811

>  <SCORE.INTER.norm>
-1.14796

>  <SCORE.INTRA>
-1.61776

>  <SCORE.INTRA.DIHEDRAL>
-5.2299

>  <SCORE.INTRA.DIHEDRAL.0>
9.90185

>  <SCORE.INTRA.POLAR>
0

>  <SCORE.INTRA.POLAR.0>
0

>  <SCORE.INTRA.REPUL>
0

>  <SCORE.INTRA.REPUL.0>
0

>  <SCORE.INTRA.SOLV>
0.513849

>  <SCORE.INTRA.SOLV.lig_0>
-53.6586

>  <SCORE.INTRA.VDW>
0.740261

>  <SCORE.INTRA.VDW.0>
-0.556525

>  <SCORE.INTRA.norm>
-0.147069

>  <SCORE.RESTR>
0

>  <SCORE.RESTR.CAVITY>
0

>  <SCORE.RESTR.norm>
0

>  <SCORE.SYSTEM>
0

>  <SCORE.SYSTEM.CONST>
0

>  <SCORE.SYSTEM.DIHEDRAL>
0

>  <SCORE.SYSTEM.SOLV>
0

>  <SCORE.SYSTEM.norm>
0

>  <SCORE.heavy>
11

>  <SCORE.norm>
-1.29503

>  <RMSD>
5.187

$$$$

 OpenBabel11021811383D
libRbt.so/2013.1/901 2013/11/27
 11 10  0  0  0  0  0  0  0  0999 V2000
   -4.4094   -2.1745   -4.5304 N   0  3  0  0  0  0  0  0  0  0  0  0
   -4.0607   -2.4941   -3.1134 C   0  0  2  0  0  0  0  0  0  0  0  0
   -2.8166   -3.3978   -3.0760 C   0  0  0  0  0  0  0  0  0  0  0  0
   -2.7402   -4.3159   -2.2814 O   0  0  0  0  0  0  0  0  0  0  0  0
   -5.2452   -3.2080   -2.4483 C   0  0  0  0  0  0  0  0  0  0  0  0
   -4.9628   -3.3883   -0.9541 C   0  0  0  0  0  0  0  0  0  0  0  0
   -4.2435   -2.1525   -0.4177 C   0  0  0  0  0  0  0  0  0  0  0  0
   -4.2834   -2.1730    1.0702 N   0  3  0  0  0  0  0  0  0  0  0  0
   -3.7579   -1.1932    1.7532 C   0  0  0  0  0  0  0  0  0  0  0  0
   -4.5194   -0.4494    2.5132 N   0  0  0  0  0  0  0  0  0  0  0  0
   -2.4725   -0.9625    1.6816 N   0  0  0  0  0  0  0  0  0  0  0  0
  2  1  1  6  0  0  0
  2  3  1  0  0  0  0
  2  5  1  0  0  0  0
  3  4  2  0  0  0  0
  5  6  1  0  0  0  0
  6  7  1  0  0  0  0
  7  8  1  0  0  0  0
  8  9  2  0  0  0  0
  9 10  1  0  0  0  0
  9 11  1  0  0  0  0
M  CHG  2   1   1   8   1
M  END
>  <CHROM.1>
81.66960538,-140.35827859,-173.23567320,37.98395988,165.60637941,-178.24886011
-3.95044115,-2.33976285,-0.89547362,1.59878908,0.40433171,-1.94637579

>  <Name>


>  <RI>
0

>  <Rbt.Current_Directory>
/home/itssahil/PROJECTS/Mol_Feturizer/New_Systems/rnas/1aju

>  <Rbt.Executable>
rbdock ($Id: //depot/dev/client3/rdock/2013.1/src/exe/rbdock.cxx#4 $)

>  <Rbt.Library>
libRbt.so (2013.1, Build901 2013/11/27)

>  <Rbt.Parameter_File>
/export/apps/rDock/src/rDock_2013.1_src/data/scripts/dock_solv.prm

>  <Rbt.Receptor>
prm/pocket_docking_8.prm

>  <SCORE>
-14.0066

>  <SCORE.INTER>
-17.957

>  <SCORE.INTER.CONST>
1

>  <SCORE.INTER.POLAR>
-3.71647

>  <SCORE.INTER.ROT>
5

>  <SCORE.INTER.SOLV>
17.8276

>  <SCORE.INTER.VDW>
-12.459

>  <SCORE.INTER.norm>
-1.63246

>  <SCORE.INTRA>
3.95046

>  <SCORE.INTRA.DIHEDRAL>
-2.49057

>  <SCORE.INTRA.DIHEDRAL.0>
9.90185

>  <SCORE.INTRA.POLAR>
0

>  <SCORE.INTRA.POLAR.0>
0

>  <SCORE.INTRA.REPUL>
0

>  <SCORE.INTRA.REPUL.0>
0

>  <SCORE.INTRA.SOLV>
0.218266

>  <SCORE.INTRA.SOLV.lig_0>
-53.6586

>  <SCORE.INTRA.VDW>
5.08662

>  <SCORE.INTRA.VDW.0>
-0.556525

>  <SCORE.INTRA.norm>
0.359133

>  <SCORE.RESTR>
0

>  <SCORE.RESTR.CAVITY>
0

>  <SCORE.RESTR.norm>
0

>  <SCORE.SYSTEM>
0

>  <SCORE.SYSTEM.CONST>
0

>  <SCORE.SYSTEM.DIHEDRAL>
0

>  <SCORE.SYSTEM.SOLV>
0

>  <SCORE.SYSTEM.norm>
0

>  <SCORE.heavy>
11

>  <SCORE.norm>
-1.27332

>  <RMSD>
5.187

$$$$

 OpenBabel11021811383D
libRbt.so/2013.1/901 2013/11/27
 11 10  0  0  0  0  0  0  0  0999 V2000
   -3.8725    1.2030    4.7708 N   0  3  0  0  0  0  0  0  0  0  0  0
   -3.2261    1.1444    3.4252 C   0  0  2  0  0  0  0  0  0  0  0  0
   -4.2771    1.4035    2.3325 C   0  0  0  0  0  0  0  0  0  0  0  0
   -5.4585    1.2100    2.5495 O   0  0  0  0  0  0  0  0  0  0  0  0
   -2.5951   -0.2400    3.2255 C   0  0  0  0  0  0  0  0  0  0  0  0
   -1.6464   -0.2036    2.0241 C   0  0  0  0  0  0  0  0  0  0  0  0
   -1.8472   -1.4584    1.1769 C   0  0  0  0  0  0  0  0  0  0  0  0
   -3.1398   -1.3513    0.4464 N   0  3  0  0  0  0  0  0  0  0  0  0
   -3.7781   -2.4298    0.0828 C   0  0  0  0  0  0  0  0  0  0  0  0
   -4.9637   -2.6802    0.5752 N   0  0  0  0  0  0  0  0  0  0  0  0
   -3.2347   -3.2522   -0.7769 N   0  0  0  0  0  0  0  0  0  0  0  0
  2  1  1  1  0  0  0
  2  3  1  0  0  0  0
  2  5  1  0  0  0  0
  3  4  2  0  0  0  0
  5  6  1  0  0  0  0
  6  7  1  0  0  0  0
  7  8  1  0  0  0  0
  8  9  2  0  0  0  0
  9 10  1  0  0  0  0
  9 11  1  0  0  0  0
M  CHG  2   1   1   8   1
M  END
>  <CHROM.1>
-64.97874477,-22.73629692,-166.06551320,-136.80335474,72.98326666,-153.85665180
-3.50514520,-0.61212276,1.82291588,1.64538226,-0.12386283,0.78218435

>  <Name>


>  <RI>
0

>  <Rbt.Current_Directory>
/home/itssahil/PROJECTS/Mol_Feturizer/New_Systems/rnas/1aju

>  <Rbt.Executable>
rbdock ($Id: //depot/dev/client3/rdock/2013.1/src/exe/rbdock.cxx#4 $)

>  <Rbt.Library>
libRbt.so (2013.1, Build901 2013/11/27)

>  <Rbt.Parameter_File>
/export/apps/rDock/src/rDock_2013.1_src/data/scripts/dock_solv.prm

>  <Rbt.Receptor>
prm/pocket_docking_7.prm

>  <SCORE>
-14.8044

>  <SCORE.INTER>
-15.5381

>  <SCORE.INTER.CONST>
1

>  <SCORE.INTER.POLAR>
-3.28906

>  <SCORE.INTER.ROT>
5

>  <SCORE.INTER.SOLV>
8.53764

>  <SCORE.INTER.VDW>
-9.17439

>  <SCORE.INTER.norm>
-1.41255

>  <SCORE.INTRA>
0.733678

>  <SCORE.INTRA.DIHEDRAL>
0.186656

>  <SCORE.INTRA.DIHEDRAL.0>
9.90185

>  <SCORE.INTRA.POLAR>
0

>  <SCORE.INTRA.POLAR.0>
0

>  <SCORE.INTRA.REPUL>
0

>  <SCORE.INTRA.REPUL.0>
0

>  <SCORE.INTRA.SOLV>
2.15319

>  <SCORE.INTRA.SOLV.lig_0>
-53.6586

>  <SCORE.INTRA.VDW>
-0.436243

>  <SCORE.INTRA.VDW.0>
-0.556525

>  <SCORE.INTRA.norm>
0.066698

>  <SCORE.RESTR>
0

>  <SCORE.RESTR.CAVITY>
0

>  <SCORE.RESTR.norm>
0

>  <SCORE.SYSTEM>
0

>  <SCORE.SYSTEM.CONST>
0

>  <SCORE.SYSTEM.DIHEDRAL>
0

>  <SCORE.SYSTEM.SOLV>
0

>  <SCORE.SYSTEM.norm>
0

>  <SCORE.heavy>
11

>  <SCORE.norm>
-1.34586

>  <RMSD>
5.190

$$$$

 OpenBabel11021811383D
libRbt.so/2013.1/901 2013/11/27
 11 10  0  0  0  0  0  0  0  0999 V2000
   -8.4770   -5.3928    1.1111 N   0  3  0  0  0  0  0  0  0  0  0  0
   -6.9867   -5.3335    1.0269 C   0  0  2  0  0  0  0  0  0  0  0  0
   -6.4446   -4.3642    2.0910 C   0  0  0  0  0  0  0  0  0  0  0  0
   -7.1028   -4.0953    3.0783 O   0  0  0  0  0  0  0  0  0  0  0  0
   -6.5765   -4.8557   -0.3725 C   0  0  0  0  0  0  0  0  0  0  0  0
   -5.0534   -4.9272   -0.5136 C   0  0  0  0  0  0  0  0  0  0  0  0
   -4.6752   -4.8840   -1.9927 C   0  0  0  0  0  0  0  0  0  0  0  0
   -5.0366   -3.5515   -2.5492 N   0  3  0  0  0  0  0  0  0  0  0  0
   -4.1620   -2.8697   -3.2370 C   0  0  0  0  0  0  0  0  0  0  0  0
   -4.3939   -2.5981   -4.4953 N   0  0  0  0  0  0  0  0  0  0  0  0
   -3.0614   -2.4544   -2.6653 N   0  0  0  0  0  0  0  0  0  0  0  0
  2  1  1  6  0  0  0
  2  3  1  0  0  0  0
  2  5  1  0  0  0  0
  3  4  2  0  0  0  0
  5  6  1  0  0  0  0
  6  7  1  0  0  0  0
  7  8  1  0  0  0  0
  8  9  2  0  0  0  0
  9 10  1  0  0  0  0
  9 11  1  0  0  0  0
M  CHG  2   1   1   8   1
M  END
>  <CHROM.1>
172.57881737,22.34135142,-174.32299234,162.33733624,66.28366378,130.14306760
-5.66685919,-4.10209717,-0.77285617,2.24828673,0.61512094,1.48568041

>  <Name>


>  <RI>
0

>  <Rbt.Current_Directory>
/home/itssahil/PROJECTS/Mol_Feturizer/New_Systems/rnas/1aju

>  <Rbt.Executable>
rbdock ($Id: //depot/dev/client3/rdock/2013.1/src/exe/rbdock.cxx#4 $)

>  <Rbt.Library>
libRbt.so (2013.1, Build901 2013/11/27)

>  <Rbt.Parameter_File>
/export/apps/rDock/src/rDock_2013.1_src/data/scripts/dock_solv.prm

>  <Rbt.Receptor>
prm/pocket_docking_8.prm

>  <SCORE>
-20.8453

>  <SCORE.INTER>
-19.7278

>  <SCORE.INTER.CONST>
1

>  <SCORE.INTER.POLAR>
-3.70356

>  <SCORE.INTER.ROT>
5

>  <SCORE.INTER.SOLV>
15.1522

>  <SCORE.INTER.VDW>
-12.7907

>  <SCORE.INTER.norm>
-1.79344

>  <SCORE.INTRA>
-1.11753

>  <SCORE.INTRA.DIHEDRAL>
-4.47091

>  <SCORE.INTRA.DIHEDRAL.0>
9.90185

>  <SCORE.INTRA.POLAR>
0

>  <SCORE.INTRA.POLAR.0>
0

>  <SCORE.INTRA.REPUL>
0

>  <SCORE.INTRA.REPUL.0>
0

>  <SCORE.INTRA.SOLV>
1.39192

>  <SCORE.INTRA.SOLV.lig_0>
-53.6586

>  <SCORE.INTRA.VDW>
0.421965

>  <SCORE.INTRA.VDW.0>
-0.556525

>  <SCORE.INTRA.norm>
-0.101594

>  <SCORE.RESTR>
0

>  <SCORE.RESTR.CAVITY>
0

>  <SCORE.RESTR.norm>
0

>  <SCORE.SYSTEM>
0

>  <SCORE.SYSTEM.CONST>
0

>  <SCORE.SYSTEM.DIHEDRAL>
0

>  <SCORE.SYSTEM.SOLV>
0

>  <SCORE.SYSTEM.norm>
0

>  <SCORE.heavy>
11

>  <SCORE.norm>
-1.89503

>  <RMSD>
5.208

$$$$

 OpenBabel11021811383D
libRbt.so/2013.1/901 2013/11/27
 11 10  0  0  0  0  0  0  0  0999 V2000
   -3.2041   -2.5387   -2.2919 N   0  3  0  0  0  0  0  0  0  0  0  0
   -2.3432   -1.9634   -1.2151 C   0  0  2  0  0  0  0  0  0  0  0  0
   -1.1013   -2.8484   -1.0148 C   0  0  0  0  0  0  0  0  0  0  0  0
   -0.8777   -3.7822   -1.7619 O   0  0  0  0  0  0  0  0  0  0  0  0
   -3.1466   -1.8874    0.0901 C   0  0  0  0  0  0  0  0  0  0  0  0
   -2.3411   -1.1241    1.1453 C   0  0  0  0  0  0  0  0  0  0  0  0
   -3.2628   -0.7114    2.2911 C   0  0  0  0  0  0  0  0  0  0  0  0
   -3.9132    0.5836    1.9508 N   0  3  0  0  0  0  0  0  0  0  0  0
   -4.5226    1.2736    2.8757 C   0  0  0  0  0  0  0  0  0  0  0  0
   -4.0826    2.4633    3.1946 N   0  0  0  0  0  0  0  0  0  0  0  0
   -5.5739    0.7775    3.4749 N   0  0  0  0  0  0  0  0  0  0  0  0
  2  1  1  6  0  0  0
  2  3  1  0  0  0  0
  2  5  1  0  0  0  0
  3  4  2  0  0  0  0
  5  6  1  0  0  0  0
  6  7  1  0  0  0  0
  7  8  1  0  0  0  0
  8  9  2  0  0  0  0
  9 10  1  0  0  0  0
  9 11  1  0  0  0  0
M  CHG  2   1   1   8   1
M  END
>  <CHROM.1>
179.16268982,6.44433666,-172.22219685,164.43155195,-85.93815069,-165.75810988
-3.15214819,-0.88720972,0.76720638,1.14150870,0.31940918,-2.17212403

>  <Name>


>  <RI>
0

>  <Rbt.Current_Directory>
/home/itssahil/PROJECTS/Mol_Feturizer/New_Systems/rnas/1aju

>  <Rbt.Executable>
rbdock ($Id: //depot/dev/client3/rdock/2013.1/src/exe/rbdock.cxx#4 $)

>  <Rbt.Library>
libRbt.so (2013.1, Build901 2013/11/27)

>  <Rbt.Parameter_File>
/export/apps/rDock/src/rDock_2013.1_src/data/scripts/dock_solv.prm

>  <Rbt.Receptor>
prm/pocket_docking_8.prm

>  <SCORE>
-29.7126

>  <SCORE.INTER>
-28.8855

>  <SCORE.INTER.CONST>
1

>  <SCORE.INTER.POLAR>
-5.07272

>  <SCORE.INTER.ROT>
5

>  <SCORE.INTER.SOLV>
17.1254

>  <SCORE.INTER.VDW>
-14.9898

>  <SCORE.INTER.norm>
-2.62596

>  <SCORE.INTRA>
-0.827105

>  <SCORE.INTRA.DIHEDRAL>
-3.5537

>  <SCORE.INTRA.DIHEDRAL.0>
9.90185

>  <SCORE.INTRA.POLAR>
0

>  <SCORE.INTRA.POLAR.0>
0

>  <SCORE.INTRA.REPUL>
0

>  <SCORE.INTRA.REPUL.0>
0

>  <SCORE.INTRA.SOLV>
1.19601

>  <SCORE.INTRA.SOLV.lig_0>
-53.6586

>  <SCORE.INTRA.VDW>
0.351738

>  <SCORE.INTRA.VDW.0>
-0.556525

>  <SCORE.INTRA.norm>
-0.0751913

>  <SCORE.RESTR>
0

>  <SCORE.RESTR.CAVITY>
0

>  <SCORE.RESTR.norm>
0

>  <SCORE.SYSTEM>
0

>  <SCORE.SYSTEM.CONST>
0

>  <SCORE.SYSTEM.DIHEDRAL>
0

>  <SCORE.SYSTEM.SOLV>
0

>  <SCORE.SYSTEM.norm>
0

>  <SCORE.heavy>
11

>  <SCORE.norm>
-2.70115

>  <RMSD>
5.219

$$$$

 OpenBabel11021811383D
libRbt.so/2013.1/901 2013/11/27
 11 10  0  0  0  0  0  0  0  0999 V2000
   -3.6833   -2.6334   -2.8527 N   0  3  0  0  0  0  0  0  0  0  0  0
   -2.9174   -2.6005   -1.5705 C   0  0  2  0  0  0  0  0  0  0  0  0
   -2.2030   -3.9459   -1.3576 C   0  0  0  0  0  0  0  0  0  0  0  0
   -0.9999   -3.9886   -1.1815 O   0  0  0  0  0  0  0  0  0  0  0  0
   -3.8841   -2.3327   -0.4092 C   0  0  0  0  0  0  0  0  0  0  0  0
   -3.1031   -1.8060    0.7981 C   0  0  0  0  0  0  0  0  0  0  0  0
   -4.0772   -1.2354    1.8267 C   0  0  0  0  0  0  0  0  0  0  0  0
   -3.3426   -0.3103    2.7326 N   0  3  0  0  0  0  0  0  0  0  0  0
   -3.7504    0.9200    2.8835 C   0  0  0  0  0  0  0  0  0  0  0  0
   -4.1553    1.3308    4.0574 N   0  0  0  0  0  0  0  0  0  0  0  0
   -3.7463    1.7393    1.8641 N   0  0  0  0  0  0  0  0  0  0  0  0
  2  1  1  6  0  0  0
  2  3  1  0  0  0  0
  2  5  1  0  0  0  0
  3  4  2  0  0  0  0
  5  6  1  0  0  0  0
  6  7  1  0  0  0  0
  7  8  1  0  0  0  0
  8  9  2  0  0  0  0
  9 10  1  0  0  0  0
  9 11  1  0  0  0  0
M  CHG  2   1   1   8   1
M  END
>  <CHROM.1>
163.22219453,124.46411823,-159.88264836,166.84057538,-159.79997905,124.69646493
-3.26096366,-1.32997589,0.59749939,1.24088605,0.88662841,-2.04242103

>  <Name>


>  <RI>
0

>  <Rbt.Current_Directory>
/home/itssahil/PROJECTS/Mol_Feturizer/New_Systems/rnas/1aju

>  <Rbt.Executable>
rbdock ($Id: //depot/dev/client3/rdock/2013.1/src/exe/rbdock.cxx#4 $)

>  <Rbt.Library>
libRbt.so (2013.1, Build901 2013/11/27)

>  <Rbt.Parameter_File>
/export/apps/rDock/src/rDock_2013.1_src/data/scripts/dock_solv.prm

>  <Rbt.Receptor>
prm/pocket_docking_8.prm

>  <SCORE>
-19.4414

>  <SCORE.INTER>
-17.8353

>  <SCORE.INTER.CONST>
1

>  <SCORE.INTER.POLAR>
-3.53253

>  <SCORE.INTER.ROT>
5

>  <SCORE.INTER.SOLV>
14.3559

>  <SCORE.INTER.VDW>
-11.8337

>  <SCORE.INTER.norm>
-1.62139

>  <SCORE.INTRA>
-1.60612

>  <SCORE.INTRA.DIHEDRAL>
-2.84999

>  <SCORE.INTRA.DIHEDRAL.0>
9.90185

>  <SCORE.INTRA.POLAR>
0

>  <SCORE.INTRA.POLAR.0>
0

>  <SCORE.INTRA.REPUL>
0

>  <SCORE.INTRA.REPUL.0>
0

>  <SCORE.INTRA.SOLV>
0.126991

>  <SCORE.INTRA.SOLV.lig_0>
-53.6586

>  <SCORE.INTRA.VDW>
-0.24462

>  <SCORE.INTRA.VDW.0>
-0.556525

>  <SCORE.INTRA.norm>
-0.146011

>  <SCORE.RESTR>
0

>  <SCORE.RESTR.CAVITY>
0

>  <SCORE.RESTR.norm>
0

>  <SCORE.SYSTEM>
0

>  <SCORE.SYSTEM.CONST>
0

>  <SCORE.SYSTEM.DIHEDRAL>
0

>  <SCORE.SYSTEM.SOLV>
0

>  <SCORE.SYSTEM.norm>
0

>  <SCORE.heavy>
11

>  <SCORE.norm>
-1.7674

>  <RMSD>
5.225

$$$$

 OpenBabel11021811383D
libRbt.so/2013.1/901 2013/11/27
 11 10  0  0  0  0  0  0  0  0999 V2000
   -7.6953   -5.1130    1.5539 N   0  3  0  0  0  0  0  0  0  0  0  0
   -6.8131   -4.5089    0.5106 C   0  0  2  0  0  0  0  0  0  0  0  0
   -7.5694   -4.4291   -0.8263 C   0  0  0  0  0  0  0  0  0  0  0  0
   -8.7601   -4.6729   -0.8811 O   0  0  0  0  0  0  0  0  0  0  0  0
   -5.5549   -5.3723    0.3484 C   0  0  0  0  0  0  0  0  0  0  0  0
   -4.4704   -4.5689   -0.3749 C   0  0  0  0  0  0  0  0  0  0  0  0
   -4.6091   -4.7665   -1.8830 C   0  0  0  0  0  0  0  0  0  0  0  0
   -4.9783   -3.4691   -2.5125 N   0  3  0  0  0  0  0  0  0  0  0  0
   -4.1059   -2.8186   -3.2325 C   0  0  0  0  0  0  0  0  0  0  0  0
   -4.3341   -2.6174   -4.5046 N   0  0  0  0  0  0  0  0  0  0  0  0
   -3.0112   -2.3640   -2.6796 N   0  0  0  0  0  0  0  0  0  0  0  0
  2  1  1  1  0  0  0
  2  3  1  0  0  0  0
  2  5  1  0  0  0  0
  3  4  2  0  0  0  0
  5  6  1  0  0  0  0
  6  7  1  0  0  0  0
  7  8  1  0  0  0  0
  8  9  2  0  0  0  0
  9 10  1  0  0  0  0
  9 11  1  0  0  0  0
M  CHG  2   1   1   8   1
M  END
>  <CHROM.1>
-63.48350085,8.99044105,-162.81737269,-89.39766895,114.68887906,108.20880169
-5.65700066,-4.05577497,-1.30999934,-2.26815885,-0.08728602,-1.13617756

>  <Name>


>  <RI>
0

>  <Rbt.Current_Directory>
/home/itssahil/PROJECTS/Mol_Feturizer/New_Systems/rnas/1aju

>  <Rbt.Executable>
rbdock ($Id: //depot/dev/client3/rdock/2013.1/src/exe/rbdock.cxx#4 $)

>  <Rbt.Library>
libRbt.so (2013.1, Build901 2013/11/27)

>  <Rbt.Parameter_File>
/export/apps/rDock/src/rDock_2013.1_src/data/scripts/dock_solv.prm

>  <Rbt.Receptor>
prm/pocket_docking_7.prm

>  <SCORE>
-18.406

>  <SCORE.INTER>
-20.5374

>  <SCORE.INTER.CONST>
1

>  <SCORE.INTER.POLAR>
-3.71438

>  <SCORE.INTER.ROT>
5

>  <SCORE.INTER.SOLV>
16.01

>  <SCORE.INTER.VDW>
-13.5804

>  <SCORE.INTER.norm>
-1.86704

>  <SCORE.INTRA>
2.13144

>  <SCORE.INTRA.DIHEDRAL>
2.55089

>  <SCORE.INTRA.DIHEDRAL.0>
9.90185

>  <SCORE.INTRA.POLAR>
0

>  <SCORE.INTRA.POLAR.0>
0

>  <SCORE.INTRA.REPUL>
0

>  <SCORE.INTRA.REPUL.0>
0

>  <SCORE.INTRA.SOLV>
2.17439

>  <SCORE.INTRA.SOLV.lig_0>
-53.6586

>  <SCORE.INTRA.VDW>
-0.231202

>  <SCORE.INTRA.VDW.0>
-0.556525

>  <SCORE.INTRA.norm>
0.193767

>  <SCORE.RESTR>
0

>  <SCORE.RESTR.CAVITY>
0

>  <SCORE.RESTR.norm>
0

>  <SCORE.SYSTEM>
0

>  <SCORE.SYSTEM.CONST>
0

>  <SCORE.SYSTEM.DIHEDRAL>
0

>  <SCORE.SYSTEM.SOLV>
0

>  <SCORE.SYSTEM.norm>
0

>  <SCORE.heavy>
11

>  <SCORE.norm>
-1.67327

>  <RMSD>
5.241

$$$$

 OpenBabel11021811383D
libRbt.so/2013.1/901 2013/11/27
 11 10  0  0  0  0  0  0  0  0999 V2000
   -7.9290   -5.0591   -1.4372 N   0  3  0  0  0  0  0  0  0  0  0  0
   -6.4688   -4.8018   -1.6200 C   0  0  2  0  0  0  0  0  0  0  0  0
   -6.0190   -5.3181   -2.9973 C   0  0  0  0  0  0  0  0  0  0  0  0
   -6.8054   -5.8794   -3.7367 O   0  0  0  0  0  0  0  0  0  0  0  0
   -5.6851   -5.5181   -0.5120 C   0  0  0  0  0  0  0  0  0  0  0  0
   -4.2407   -5.0099   -0.4939 C   0  0  0  0  0  0  0  0  0  0  0  0
   -4.2126   -3.5698    0.0138 C   0  0  0  0  0  0  0  0  0  0  0  0
   -4.4793   -2.6470   -1.1233 N   0  3  0  0  0  0  0  0  0  0  0  0
   -3.5476   -2.4071   -2.0049 C   0  0  0  0  0  0  0  0  0  0  0  0
   -3.7286   -2.7552   -3.2526 N   0  0  0  0  0  0  0  0  0  0  0  0
   -2.4404   -1.8140   -1.6403 N   0  0  0  0  0  0  0  0  0  0  0  0
  2  1  1  1  0  0  0
  2  3  1  0  0  0  0
  2  5  1  0  0  0  0
  3  4  2  0  0  0  0
  5  6  1  0  0  0  0
  6  7  1  0  0  0  0
  7  8  1  0  0  0  0
  8  9  2  0  0  0  0
  9 10  1  0  0  0  0
  9 11  1  0  0  0  0
M  CHG  2   1   1   8   1
M  END
>  <CHROM.1>
-65.81278720,-2.19488108,-167.13552246,70.06420158,-84.73477784,-75.65760482
-5.08509722,-4.06411060,-1.73688561,3.10902130,-0.69626644,-1.44822655

>  <Name>


>  <RI>
0

>  <Rbt.Current_Directory>
/home/itssahil/PROJECTS/Mol_Feturizer/New_Systems/rnas/1aju

>  <Rbt.Executable>
rbdock ($Id: //depot/dev/client3/rdock/2013.1/src/exe/rbdock.cxx#4 $)

>  <Rbt.Library>
libRbt.so (2013.1, Build901 2013/11/27)

>  <Rbt.Parameter_File>
/export/apps/rDock/src/rDock_2013.1_src/data/scripts/dock_solv.prm

>  <Rbt.Receptor>
prm/pocket_docking_6.prm

>  <SCORE>
-14.711

>  <SCORE.INTER>
-14.2203

>  <SCORE.INTER.CONST>
1

>  <SCORE.INTER.POLAR>
-2.20671

>  <SCORE.INTER.ROT>
5

>  <SCORE.INTER.SOLV>
15.1012

>  <SCORE.INTER.VDW>
-14.0916

>  <SCORE.INTER.norm>
-1.29276

>  <SCORE.INTRA>
-0.490642

>  <SCORE.INTRA.DIHEDRAL>
-3.83785

>  <SCORE.INTRA.DIHEDRAL.0>
9.90185

>  <SCORE.INTRA.POLAR>
0

>  <SCORE.INTRA.POLAR.0>
0

>  <SCORE.INTRA.REPUL>
0

>  <SCORE.INTRA.REPUL.0>
0

>  <SCORE.INTRA.SOLV>
3.33136

>  <SCORE.INTRA.SOLV.lig_0>
-53.6586

>  <SCORE.INTRA.VDW>
-0.237398

>  <SCORE.INTRA.VDW.0>
-0.556525

>  <SCORE.INTRA.norm>
-0.0446038

>  <SCORE.RESTR>
0

>  <SCORE.RESTR.CAVITY>
0

>  <SCORE.RESTR.norm>
0

>  <SCORE.SYSTEM>
0

>  <SCORE.SYSTEM.CONST>
0

>  <SCORE.SYSTEM.DIHEDRAL>
0

>  <SCORE.SYSTEM.SOLV>
0

>  <SCORE.SYSTEM.norm>
0

>  <SCORE.heavy>
11

>  <SCORE.norm>
-1.33736

>  <RMSD>
5.252

$$$$

 OpenBabel11021811383D
libRbt.so/2013.1/901 2013/11/27
 11 10  0  0  0  0  0  0  0  0999 V2000
   -3.1936   -2.0596   -2.1651 N   0  3  0  0  0  0  0  0  0  0  0  0
   -3.4592   -3.1830   -1.2169 C   0  0  2  0  0  0  0  0  0  0  0  0
   -4.3521   -4.2354   -1.8957 C   0  0  0  0  0  0  0  0  0  0  0  0
   -4.0320   -5.4092   -1.9030 O   0  0  0  0  0  0  0  0  0  0  0  0
   -4.1567   -2.6353    0.0354 C   0  0  0  0  0  0  0  0  0  0  0  0
   -3.1053   -2.1886    1.0551 C   0  0  0  0  0  0  0  0  0  0  0  0
   -3.7718   -1.3440    2.1390 C   0  0  0  0  0  0  0  0  0  0  0  0
   -3.9698    0.0392    1.6259 N   0  3  0  0  0  0  0  0  0  0  0  0
   -4.3788    0.9834    2.4283 C   0  0  0  0  0  0  0  0  0  0  0  0
   -3.6069    2.0115    2.6686 N   0  0  0  0  0  0  0  0  0  0  0  0
   -5.5604    0.9027    2.9834 N   0  0  0  0  0  0  0  0  0  0  0  0
  2  1  1  6  0  0  0
  2  3  1  0  0  0  0
  2  5  1  0  0  0  0
  3  4  2  0  0  0  0
  5  6  1  0  0  0  0
  6  7  1  0  0  0  0
  7  8  1  0  0  0  0
  8  9  2  0  0  0  0
  9 10  1  0  0  0  0
  9 11  1  0  0  0  0
M  CHG  2   1   1   8   1
M  END
>  <CHROM.1>
-63.21307604,128.38083051,-88.09276520,166.35689065,-79.70101091,-171.92210535
-3.95947538,-1.52223679,0.50295928,-1.41483303,1.04856006,0.56996729

>  <Name>


>  <RI>
0

>  <Rbt.Current_Directory>
/home/itssahil/PROJECTS/Mol_Feturizer/New_Systems/rnas/1aju

>  <Rbt.Executable>
rbdock ($Id: //depot/dev/client3/rdock/2013.1/src/exe/rbdock.cxx#4 $)

>  <Rbt.Library>
libRbt.so (2013.1, Build901 2013/11/27)

>  <Rbt.Parameter_File>
/export/apps/rDock/src/rDock_2013.1_src/data/scripts/dock_solv.prm

>  <Rbt.Receptor>
prm/pocket_docking_7.prm

>  <SCORE>
-23.3814

>  <SCORE.INTER>
-22.4002

>  <SCORE.INTER.CONST>
1

>  <SCORE.INTER.POLAR>
-4.40649

>  <SCORE.INTER.ROT>
5

>  <SCORE.INTER.SOLV>
18.2474

>  <SCORE.INTER.VDW>
-13.2609

>  <SCORE.INTER.norm>
-2.03638

>  <SCORE.INTRA>
-0.981227

>  <SCORE.INTRA.DIHEDRAL>
-2.4181

>  <SCORE.INTRA.DIHEDRAL.0>
9.90185

>  <SCORE.INTRA.POLAR>
0

>  <SCORE.INTRA.POLAR.0>
0

>  <SCORE.INTRA.REPUL>
0

>  <SCORE.INTRA.REPUL.0>
0

>  <SCORE.INTRA.SOLV>
1.29894

>  <SCORE.INTRA.SOLV.lig_0>
-53.6586

>  <SCORE.INTRA.VDW>
-0.421648

>  <SCORE.INTRA.VDW.0>
-0.556525

>  <SCORE.INTRA.norm>
-0.0892025

>  <SCORE.RESTR>
0

>  <SCORE.RESTR.CAVITY>
0

>  <SCORE.RESTR.norm>
0

>  <SCORE.SYSTEM>
0

>  <SCORE.SYSTEM.CONST>
0

>  <SCORE.SYSTEM.DIHEDRAL>
0

>  <SCORE.SYSTEM.SOLV>
0

>  <SCORE.SYSTEM.norm>
0

>  <SCORE.heavy>
11

>  <SCORE.norm>
-2.12558

>  <RMSD>
5.266

$$$$

 OpenBabel11021811383D
libRbt.so/2013.1/901 2013/11/27
 11 10  0  0  0  0  0  0  0  0999 V2000
   -3.7077   -2.2020   -3.9317 N   0  3  0  0  0  0  0  0  0  0  0  0
   -3.8232   -3.5179   -3.2340 C   0  0  2  0  0  0  0  0  0  0  0  0
   -5.2874   -3.7666   -2.8336 C   0  0  0  0  0  0  0  0  0  0  0  0
   -5.8667   -4.7740   -3.1939 O   0  0  0  0  0  0  0  0  0  0  0  0
   -2.9340   -3.5086   -1.9834 C   0  0  0  0  0  0  0  0  0  0  0  0
   -3.4072   -2.4122   -1.0248 C   0  0  0  0  0  0  0  0  0  0  0  0
   -4.2903   -3.0277    0.0587 C   0  0  0  0  0  0  0  0  0  0  0  0
   -4.7294   -1.9574    0.9955 N   0  3  0  0  0  0  0  0  0  0  0  0
   -3.8990   -1.4821    1.8827 C   0  0  0  0  0  0  0  0  0  0  0  0
   -3.5461   -0.2236    1.8336 N   0  0  0  0  0  0  0  0  0  0  0  0
   -3.4283   -2.2622    2.8211 N   0  0  0  0  0  0  0  0  0  0  0  0
  2  1  1  1  0  0  0
  2  3  1  0  0  0  0
  2  5  1  0  0  0  0
  3  4  2  0  0  0  0
  5  6  1  0  0  0  0
  6  7  1  0  0  0  0
  7  8  1  0  0  0  0
  8  9  2  0  0  0  0
  9 10  1  0  0  0  0
  9 11  1  0  0  0  0
M  CHG  2   1   1   8   1
M  END
>  <CHROM.1>
-88.02530009,124.24931295,61.42935366,98.32570085,179.22552748,-76.07177269
-4.08532449,-2.61893696,-0.78734642,-1.78566604,0.87088922,1.35158080

>  <Name>


>  <RI>
0

>  <Rbt.Current_Directory>
/home/itssahil/PROJECTS/Mol_Feturizer/New_Systems/rnas/1aju

>  <Rbt.Executable>
rbdock ($Id: //depot/dev/client3/rdock/2013.1/src/exe/rbdock.cxx#4 $)

>  <Rbt.Library>
libRbt.so (2013.1, Build901 2013/11/27)

>  <Rbt.Parameter_File>
/export/apps/rDock/src/rDock_2013.1_src/data/scripts/dock_solv.prm

>  <Rbt.Receptor>
prm/pocket_docking_6.prm

>  <SCORE>
-18.7194

>  <SCORE.INTER>
-20.2098

>  <SCORE.INTER.CONST>
1

>  <SCORE.INTER.POLAR>
-4.00464

>  <SCORE.INTER.ROT>
5

>  <SCORE.INTER.SOLV>
17.2578

>  <SCORE.INTER.VDW>
-12.8103

>  <SCORE.INTER.norm>
-1.83725

>  <SCORE.INTRA>
1.49034

>  <SCORE.INTRA.DIHEDRAL>
-0.905878

>  <SCORE.INTRA.DIHEDRAL.0>
9.90185

>  <SCORE.INTRA.POLAR>
0

>  <SCORE.INTRA.POLAR.0>
0

>  <SCORE.INTRA.REPUL>
0

>  <SCORE.INTRA.REPUL.0>
0

>  <SCORE.INTRA.SOLV>
1.62184

>  <SCORE.INTRA.SOLV.lig_0>
-53.6586

>  <SCORE.INTRA.VDW>
1.13236

>  <SCORE.INTRA.VDW.0>
-0.556525

>  <SCORE.INTRA.norm>
0.135485

>  <SCORE.RESTR>
0

>  <SCORE.RESTR.CAVITY>
0

>  <SCORE.RESTR.norm>
0

>  <SCORE.SYSTEM>
0

>  <SCORE.SYSTEM.CONST>
0

>  <SCORE.SYSTEM.DIHEDRAL>
0

>  <SCORE.SYSTEM.SOLV>
0

>  <SCORE.SYSTEM.norm>
0

>  <SCORE.heavy>
11

>  <SCORE.norm>
-1.70177

>  <RMSD>
5.295

$$$$

 OpenBabel11021811383D
libRbt.so/2013.1/901 2013/11/27
 11 10  0  0  0  0  0  0  0  0999 V2000
   -6.9360   -5.3615   -2.3557 N   0  3  0  0  0  0  0  0  0  0  0  0
   -5.8604   -4.7674   -1.5062 C   0  0  2  0  0  0  0  0  0  0  0  0
   -6.4870   -4.0728   -0.2853 C   0  0  0  0  0  0  0  0  0  0  0  0
   -6.1503   -2.9466    0.0286 O   0  0  0  0  0  0  0  0  0  0  0  0
   -5.0638   -3.7503   -2.3343 C   0  0  0  0  0  0  0  0  0  0  0  0
   -3.7716   -3.3873   -1.5972 C   0  0  0  0  0  0  0  0  0  0  0  0
   -3.0040   -2.3383   -2.3990 C   0  0  0  0  0  0  0  0  0  0  0  0
   -1.8335   -1.8773   -1.6032 N   0  3  0  0  0  0  0  0  0  0  0  0
   -1.7675   -2.1347   -0.3257 C   0  0  0  0  0  0  0  0  0  0  0  0
   -0.8047   -2.8902    0.1359 N   0  0  0  0  0  0  0  0  0  0  0  0
   -2.6584   -1.6317    0.4891 N   0  0  0  0  0  0  0  0  0  0  0  0
  2  1  1  6  0  0  0
  2  3  1  0  0  0  0
  2  5  1  0  0  0  0
  3  4  2  0  0  0  0
  5  6  1  0  0  0  0
  6  7  1  0  0  0  0
  7  8  1  0  0  0  0
  8  9  2  0  0  0  0
  9 10  1  0  0  0  0
  9 11  1  0  0  0  0
M  CHG  2   1   1   8   1
M  END
>  <CHROM.1>
179.40185551,-132.01228365,-166.55567601,-178.02027159,173.52112114,-15.25960028
-4.04165753,-3.20093229,-1.05987281,-2.80160782,0.37027210,1.22091420

>  <Name>


>  <RI>
0

>  <Rbt.Current_Directory>
/home/itssahil/PROJECTS/Mol_Feturizer/New_Systems/rnas/1aju

>  <Rbt.Executable>
rbdock ($Id: //depot/dev/client3/rdock/2013.1/src/exe/rbdock.cxx#4 $)

>  <Rbt.Library>
libRbt.so (2013.1, Build901 2013/11/27)

>  <Rbt.Parameter_File>
/export/apps/rDock/src/rDock_2013.1_src/data/scripts/dock_solv.prm

>  <Rbt.Receptor>
prm/pocket_docking_6.prm

>  <SCORE>
-17.5341

>  <SCORE.INTER>
-18.3091

>  <SCORE.INTER.CONST>
1

>  <SCORE.INTER.POLAR>
-3.09421

>  <SCORE.INTER.ROT>
5

>  <SCORE.INTER.SOLV>
12.5043

>  <SCORE.INTER.VDW>
-12.9935

>  <SCORE.INTER.norm>
-1.66446

>  <SCORE.INTRA>
0.774951

>  <SCORE.INTRA.DIHEDRAL>
-5.94764

>  <SCORE.INTRA.DIHEDRAL.0>
9.90185

>  <SCORE.INTRA.POLAR>
0

>  <SCORE.INTRA.POLAR.0>
0

>  <SCORE.INTRA.REPUL>
0

>  <SCORE.INTRA.REPUL.0>
0

>  <SCORE.INTRA.SOLV>
1.12136

>  <SCORE.INTRA.SOLV.lig_0>
-53.6586

>  <SCORE.INTRA.VDW>
3.18809

>  <SCORE.INTRA.VDW.0>
-0.556525

>  <SCORE.INTRA.norm>
0.0704501

>  <SCORE.RESTR>
0

>  <SCORE.RESTR.CAVITY>
0

>  <SCORE.RESTR.norm>
0

>  <SCORE.SYSTEM>
0

>  <SCORE.SYSTEM.CONST>
0

>  <SCORE.SYSTEM.DIHEDRAL>
0

>  <SCORE.SYSTEM.SOLV>
0

>  <SCORE.SYSTEM.norm>
0

>  <SCORE.heavy>
11

>  <SCORE.norm>
-1.59401

>  <RMSD>
5.296

$$$$

 OpenBabel11021811383D
libRbt.so/2013.1/901 2013/11/27
 11 10  0  0  0  0  0  0  0  0999 V2000
   -8.1992   -5.7397   -2.1872 N   0  3  0  0  0  0  0  0  0  0  0  0
   -6.9864   -5.5947   -1.3271 C   0  0  2  0  0  0  0  0  0  0  0  0
   -6.9510   -6.7250   -0.2845 C   0  0  0  0  0  0  0  0  0  0  0  0
   -5.9937   -7.4723   -0.2117 O   0  0  0  0  0  0  0  0  0  0  0  0
   -7.0256   -4.2331   -0.6206 C   0  0  0  0  0  0  0  0  0  0  0  0
   -5.6706   -3.9564    0.0368 C   0  0  0  0  0  0  0  0  0  0  0  0
   -4.5973   -3.8249   -1.0417 C   0  0  0  0  0  0  0  0  0  0  0  0
   -4.9268   -2.6678   -1.9184 N   0  3  0  0  0  0  0  0  0  0  0  0
   -4.0928   -2.2928   -2.8493 C   0  0  0  0  0  0  0  0  0  0  0  0
   -4.4502   -2.3562   -4.1058 N   0  0  0  0  0  0  0  0  0  0  0  0
   -2.9065   -1.8486   -2.5234 N   0  0  0  0  0  0  0  0  0  0  0  0
  2  1  1  1  0  0  0
  2  3  1  0  0  0  0
  2  5  1  0  0  0  0
  3  4  2  0  0  0  0
  5  6  1  0  0  0  0
  6  7  1  0  0  0  0
  7  8  1  0  0  0  0
  8  9  2  0  0  0  0
  9 10  1  0  0  0  0
  9 11  1  0  0  0  0
M  CHG  2   1   1   8   1
M  END
>  <CHROM.1>
179.92499319,123.03753569,-168.82135629,64.74397214,62.03622053,174.44900895
-5.62755561,-4.24734584,-1.59073909,2.30604714,0.57376482,2.21670677

>  <Name>


>  <RI>
0

>  <Rbt.Current_Directory>
/home/itssahil/PROJECTS/Mol_Feturizer/New_Systems/rnas/1aju

>  <Rbt.Executable>
rbdock ($Id: //depot/dev/client3/rdock/2013.1/src/exe/rbdock.cxx#4 $)

>  <Rbt.Library>
libRbt.so (2013.1, Build901 2013/11/27)

>  <Rbt.Parameter_File>
/export/apps/rDock/src/rDock_2013.1_src/data/scripts/dock_solv.prm

>  <Rbt.Receptor>
prm/pocket_docking_6.prm

>  <SCORE>
-22.4878

>  <SCORE.INTER>
-20.4577

>  <SCORE.INTER.CONST>
1

>  <SCORE.INTER.POLAR>
-3.45647

>  <SCORE.INTER.ROT>
5

>  <SCORE.INTER.SOLV>
19.0172

>  <SCORE.INTER.VDW>
-15.3893

>  <SCORE.INTER.norm>
-1.85979

>  <SCORE.INTRA>
-2.05757

>  <SCORE.INTRA.DIHEDRAL>
-6.3785

>  <SCORE.INTRA.DIHEDRAL.0>
9.90185

>  <SCORE.INTRA.POLAR>
0

>  <SCORE.INTRA.POLAR.0>
0

>  <SCORE.INTRA.REPUL>
0

>  <SCORE.INTRA.REPUL.0>
0

>  <SCORE.INTRA.SOLV>
0.614816

>  <SCORE.INTRA.SOLV.lig_0>
-53.6586

>  <SCORE.INTRA.VDW>
0.824272

>  <SCORE.INTRA.VDW.0>
-0.556525

>  <SCORE.INTRA.norm>
-0.187052

>  <SCORE.RESTR>
0.0274465

>  <SCORE.RESTR.CAVITY>
0.0274465

>  <SCORE.RESTR.norm>
0.00249513

>  <SCORE.SYSTEM>
0

>  <SCORE.SYSTEM.CONST>
0

>  <SCORE.SYSTEM.DIHEDRAL>
0

>  <SCORE.SYSTEM.SOLV>
0

>  <SCORE.SYSTEM.norm>
0

>  <SCORE.heavy>
11

>  <SCORE.norm>
-2.04434

>  <RMSD>
5.337

$$$$

 OpenBabel11021811383D
libRbt.so/2013.1/901 2013/11/27
 11 10  0  0  0  0  0  0  0  0999 V2000
   -4.2443   -2.5566   -4.0951 N   0  3  0  0  0  0  0  0  0  0  0  0
   -4.4762   -3.5486   -3.0025 C   0  0  2  0  0  0  0  0  0  0  0  0
   -5.8122   -4.2744   -3.2351 C   0  0  0  0  0  0  0  0  0  0  0  0
   -6.3759   -4.8450   -2.3202 O   0  0  0  0  0  0  0  0  0  0  0  0
   -4.5061   -2.8188   -1.6529 C   0  0  0  0  0  0  0  0  0  0  0  0
   -3.1347   -2.1968   -1.3749 C   0  0  0  0  0  0  0  0  0  0  0  0
   -2.4199   -3.0007   -0.2908 C   0  0  0  0  0  0  0  0  0  0  0  0
   -2.9860   -2.6386    1.0374 N   0  3  0  0  0  0  0  0  0  0  0  0
   -3.1300   -1.3846    1.3683 C   0  0  0  0  0  0  0  0  0  0  0  0
   -4.3262   -0.9044    1.5903 N   0  0  0  0  0  0  0  0  0  0  0  0
   -2.0791   -0.6145    1.4840 N   0  0  0  0  0  0  0  0  0  0  0  0
  2  1  1  6  0  0  0
  2  3  1  0  0  0  0
  2  5  1  0  0  0  0
  3  4  2  0  0  0  0
  5  6  1  0  0  0  0
  6  7  1  0  0  0  0
  7  8  1  0  0  0  0
  8  9  2  0  0  0  0
  9 10  1  0  0  0  0
  9 11  1  0  0  0  0
M  CHG  2   1   1   8   1
M  END
>  <CHROM.1>
-161.74826248,-160.06092619,-64.21119580,-106.53665190,-77.73535930,-48.47311224
-3.96109160,-2.59014770,-0.95631075,-2.10890868,0.61255183,1.38736417

>  <Name>


>  <RI>
0

>  <Rbt.Current_Directory>
/home/itssahil/PROJECTS/Mol_Feturizer/New_Systems/rnas/1aju

>  <Rbt.Executable>
rbdock ($Id: //depot/dev/client3/rdock/2013.1/src/exe/rbdock.cxx#4 $)

>  <Rbt.Library>
libRbt.so (2013.1, Build901 2013/11/27)

>  <Rbt.Parameter_File>
/export/apps/rDock/src/rDock_2013.1_src/data/scripts/dock_solv.prm

>  <Rbt.Receptor>
prm/pocket_docking_4.prm

>  <SCORE>
-14.3745

>  <SCORE.INTER>
-17.3104

>  <SCORE.INTER.CONST>
1

>  <SCORE.INTER.POLAR>
-3.01604

>  <SCORE.INTER.ROT>
5

>  <SCORE.INTER.SOLV>
16.433

>  <SCORE.INTER.VDW>
-13.8978

>  <SCORE.INTER.norm>
-1.57368

>  <SCORE.INTRA>
2.92132

>  <SCORE.INTRA.DIHEDRAL>
2.3882

>  <SCORE.INTRA.DIHEDRAL.0>
9.90185

>  <SCORE.INTRA.POLAR>
0

>  <SCORE.INTRA.POLAR.0>
0

>  <SCORE.INTRA.REPUL>
0

>  <SCORE.INTRA.REPUL.0>
0

>  <SCORE.INTRA.SOLV>
1.97513

>  <SCORE.INTRA.SOLV.lig_0>
-53.6586

>  <SCORE.INTRA.VDW>
0.739648

>  <SCORE.INTRA.VDW.0>
-0.556525

>  <SCORE.INTRA.norm>
0.265574

>  <SCORE.RESTR>
0.014673

>  <SCORE.RESTR.CAVITY>
0.014673

>  <SCORE.RESTR.norm>
0.00133391

>  <SCORE.SYSTEM>
0

>  <SCORE.SYSTEM.CONST>
0

>  <SCORE.SYSTEM.DIHEDRAL>
0

>  <SCORE.SYSTEM.SOLV>
0

>  <SCORE.SYSTEM.norm>
0

>  <SCORE.heavy>
11

>  <SCORE.norm>
-1.30677

>  <RMSD>
5.378

$$$$

 OpenBabel11021811383D
libRbt.so/2013.1/901 2013/11/27
 11 10  0  0  0  0  0  0  0  0999 V2000
   -3.8641   -5.4343    0.4070 N   0  3  0  0  0  0  0  0  0  0  0  0
   -4.1757   -4.0060    0.0996 C   0  0  2  0  0  0  0  0  0  0  0  0
   -3.5227   -3.6077   -1.2348 C   0  0  0  0  0  0  0  0  0  0  0  0
   -4.1768   -3.0733   -2.1106 O   0  0  0  0  0  0  0  0  0  0  0  0
   -3.6408   -3.1158    1.2293 C   0  0  0  0  0  0  0  0  0  0  0  0
   -4.1795   -1.6924    1.0604 C   0  0  0  0  0  0  0  0  0  0  0  0
   -3.5703   -0.7860    2.1280 C   0  0  0  0  0  0  0  0  0  0  0  0
   -3.9894    0.6191    1.8711 N   0  3  0  0  0  0  0  0  0  0  0  0
   -4.5722    1.3112    2.8114 C   0  0  0  0  0  0  0  0  0  0  0  0
   -3.9929    2.3855    3.2814 N   0  0  0  0  0  0  0  0  0  0  0  0
   -5.7353    0.9334    3.2752 N   0  0  0  0  0  0  0  0  0  0  0  0
  2  1  1  1  0  0  0
  2  3  1  0  0  0  0
  2  5  1  0  0  0  0
  3  4  2  0  0  0  0
  5  6  1  0  0  0  0
  6  7  1  0  0  0  0
  7  8  1  0  0  0  0
  8  9  2  0  0  0  0
  9 10  1  0  0  0  0
  9 11  1  0  0  0  0
M  CHG  2   1   1   8   1
M  END
>  <CHROM.1>
-61.35292813,128.85814643,-169.40855860,-176.11447934,174.25009011,125.62552860
-4.14043970,-1.50505906,1.16908191,0.64004058,-1.45088638,2.77081556

>  <Name>


>  <RI>
0

>  <Rbt.Current_Directory>
/home/itssahil/PROJECTS/Mol_Feturizer/New_Systems/rnas/1aju

>  <Rbt.Executable>
rbdock ($Id: //depot/dev/client3/rdock/2013.1/src/exe/rbdock.cxx#4 $)

>  <Rbt.Library>
libRbt.so (2013.1, Build901 2013/11/27)

>  <Rbt.Parameter_File>
/export/apps/rDock/src/rDock_2013.1_src/data/scripts/dock_solv.prm

>  <Rbt.Receptor>
prm/pocket_docking_8.prm

>  <SCORE>
-21.8185

>  <SCORE.INTER>
-18.5713

>  <SCORE.INTER.CONST>
1

>  <SCORE.INTER.POLAR>
-3.70121

>  <SCORE.INTER.ROT>
5

>  <SCORE.INTER.SOLV>
10.9307

>  <SCORE.INTER.VDW>
-10.6204

>  <SCORE.INTER.norm>
-1.6883

>  <SCORE.INTRA>
-3.24726

>  <SCORE.INTRA.DIHEDRAL>
-6.21078

>  <SCORE.INTRA.DIHEDRAL.0>
9.90185

>  <SCORE.INTRA.POLAR>
0

>  <SCORE.INTRA.POLAR.0>
0

>  <SCORE.INTRA.REPUL>
0

>  <SCORE.INTRA.REPUL.0>
0

>  <SCORE.INTRA.SOLV>
0.0367237

>  <SCORE.INTRA.SOLV.lig_0>
-53.6586

>  <SCORE.INTRA.VDW>
-0.160231

>  <SCORE.INTRA.VDW.0>
-0.556525

>  <SCORE.INTRA.norm>
-0.295206

>  <SCORE.RESTR>
0

>  <SCORE.RESTR.CAVITY>
0

>  <SCORE.RESTR.norm>
0

>  <SCORE.SYSTEM>
0

>  <SCORE.SYSTEM.CONST>
0

>  <SCORE.SYSTEM.DIHEDRAL>
0

>  <SCORE.SYSTEM.SOLV>
0

>  <SCORE.SYSTEM.norm>
0

>  <SCORE.heavy>
11

>  <SCORE.norm>
-1.9835

>  <RMSD>
5.419

$$$$

 OpenBabel11021811383D
libRbt.so/2013.1/901 2013/11/27
 11 10  0  0  0  0  0  0  0  0999 V2000
   -4.4592   -2.1977   -4.4787 N   0  3  0  0  0  0  0  0  0  0  0  0
   -4.4531   -2.4454   -3.0055 C   0  0  2  0  0  0  0  0  0  0  0  0
   -3.0032   -2.5254   -2.4984 C   0  0  0  0  0  0  0  0  0  0  0  0
   -2.6255   -1.8170   -1.5842 O   0  0  0  0  0  0  0  0  0  0  0  0
   -5.1835   -3.7621   -2.7096 C   0  0  0  0  0  0  0  0  0  0  0  0
   -5.8589   -3.6777   -1.3379 C   0  0  0  0  0  0  0  0  0  0  0  0
   -4.7925   -3.6417   -0.2452 C   0  0  0  0  0  0  0  0  0  0  0  0
   -5.4388   -3.3165    1.0558 N   0  3  0  0  0  0  0  0  0  0  0  0
   -5.7199   -4.2678    1.9035 C   0  0  0  0  0  0  0  0  0  0  0  0
   -5.1410   -4.2849    3.0763 N   0  0  0  0  0  0  0  0  0  0  0  0
   -6.5836   -5.1957    1.5815 N   0  0  0  0  0  0  0  0  0  0  0  0
  2  1  1  6  0  0  0
  2  3  1  0  0  0  0
  2  5  1  0  0  0  0
  3  4  2  0  0  0  0
  5  6  1  0  0  0  0
  6  7  1  0  0  0  0
  7  8  1  0  0  0  0
  8  9  2  0  0  0  0
  9 10  1  0  0  0  0
  9 11  1  0  0  0  0
M  CHG  2   1   1   8   1
M  END
>  <CHROM.1>
-111.76929735,125.79667194,-148.93008643,-68.41141038,169.98221696,99.35993046
-4.84208161,-3.36548133,-0.75082292,1.21870369,-0.56626867,-1.40591750

>  <Name>


>  <RI>
0

>  <Rbt.Current_Directory>
/home/itssahil/PROJECTS/Mol_Feturizer/New_Systems/rnas/1aju

>  <Rbt.Executable>
rbdock ($Id: //depot/dev/client3/rdock/2013.1/src/exe/rbdock.cxx#4 $)

>  <Rbt.Library>
libRbt.so (2013.1, Build901 2013/11/27)

>  <Rbt.Parameter_File>
/export/apps/rDock/src/rDock_2013.1_src/data/scripts/dock_solv.prm

>  <Rbt.Receptor>
prm/pocket_docking_8.prm

>  <SCORE>
-17.2046

>  <SCORE.INTER>
-18.653

>  <SCORE.INTER.CONST>
1

>  <SCORE.INTER.POLAR>
-2.89134

>  <SCORE.INTER.ROT>
5

>  <SCORE.INTER.SOLV>
17.8452

>  <SCORE.INTER.VDW>
-15.6793

>  <SCORE.INTER.norm>
-1.69573

>  <SCORE.INTRA>
1.44841

>  <SCORE.INTRA.DIHEDRAL>
-0.12321

>  <SCORE.INTRA.DIHEDRAL.0>
9.90185

>  <SCORE.INTRA.POLAR>
0

>  <SCORE.INTRA.POLAR.0>
0

>  <SCORE.INTRA.REPUL>
0

>  <SCORE.INTRA.REPUL.0>
0

>  <SCORE.INTRA.SOLV>
0.576469

>  <SCORE.INTRA.SOLV.lig_0>
-53.6586

>  <SCORE.INTRA.VDW>
1.22178

>  <SCORE.INTRA.VDW.0>
-0.556525

>  <SCORE.INTRA.norm>
0.131674

>  <SCORE.RESTR>
0

>  <SCORE.RESTR.CAVITY>
0

>  <SCORE.RESTR.norm>
0

>  <SCORE.SYSTEM>
0

>  <SCORE.SYSTEM.CONST>
0

>  <SCORE.SYSTEM.DIHEDRAL>
0

>  <SCORE.SYSTEM.SOLV>
0

>  <SCORE.SYSTEM.norm>
0

>  <SCORE.heavy>
11

>  <SCORE.norm>
-1.56405

>  <RMSD>
5.420

$$$$

 OpenBabel11021811383D
libRbt.so/2013.1/901 2013/11/27
 11 10  0  0  0  0  0  0  0  0999 V2000
   -4.4719   -2.3231   -4.4916 N   0  3  0  0  0  0  0  0  0  0  0  0
   -4.3759   -3.2252   -3.3047 C   0  0  2  0  0  0  0  0  0  0  0  0
   -5.6582   -4.0664   -3.1868 C   0  0  0  0  0  0  0  0  0  0  0  0
   -5.6052   -5.2819   -3.1860 O   0  0  0  0  0  0  0  0  0  0  0  0
   -4.1878   -2.3790   -2.0385 C   0  0  0  0  0  0  0  0  0  0  0  0
   -3.9742   -3.2990   -0.8331 C   0  0  0  0  0  0  0  0  0  0  0  0
   -4.0402   -2.4783    0.4533 C   0  0  0  0  0  0  0  0  0  0  0  0
   -2.9830   -1.4310    0.4178 N   0  3  0  0  0  0  0  0  0  0  0  0
   -1.7726   -1.7081    0.8189 C   0  0  0  0  0  0  0  0  0  0  0  0
   -0.7776   -1.6470   -0.0279 N   0  0  0  0  0  0  0  0  0  0  0  0
   -1.5571   -2.0386    2.0659 N   0  0  0  0  0  0  0  0  0  0  0  0
  2  1  1  6  0  0  0
  2  3  1  0  0  0  0
  2  5  1  0  0  0  0
  3  4  2  0  0  0  0
  5  6  1  0  0  0  0
  6  7  1  0  0  0  0
  7  8  1  0  0  0  0
  8  9  2  0  0  0  0
  9 10  1  0  0  0  0
  9 11  1  0  0  0  0
M  CHG  2   1   1   8   1
M  END
>  <CHROM.1>
91.01936106,122.44727645,-175.41462937,-169.81587107,-59.51683702,-85.81752014
-3.56055061,-2.70328751,-1.23583932,-2.42551646,0.74418921,1.82646307

>  <Name>


>  <RI>
0

>  <Rbt.Current_Directory>
/home/itssahil/PROJECTS/Mol_Feturizer/New_Systems/rnas/1aju

>  <Rbt.Executable>
rbdock ($Id: //depot/dev/client3/rdock/2013.1/src/exe/rbdock.cxx#4 $)

>  <Rbt.Library>
libRbt.so (2013.1, Build901 2013/11/27)

>  <Rbt.Parameter_File>
/export/apps/rDock/src/rDock_2013.1_src/data/scripts/dock_solv.prm

>  <Rbt.Receptor>
prm/pocket_docking_6.prm

>  <SCORE>
-20.564

>  <SCORE.INTER>
-19.2668

>  <SCORE.INTER.CONST>
1

>  <SCORE.INTER.POLAR>
-3.42118

>  <SCORE.INTER.ROT>
5

>  <SCORE.INTER.SOLV>
20.0189

>  <SCORE.INTER.VDW>
-15.0469

>  <SCORE.INTER.norm>
-1.75153

>  <SCORE.INTRA>
-1.29719

>  <SCORE.INTRA.DIHEDRAL>
-4.48945

>  <SCORE.INTRA.DIHEDRAL.0>
9.90185

>  <SCORE.INTRA.POLAR>
0

>  <SCORE.INTRA.POLAR.0>
0

>  <SCORE.INTRA.REPUL>
0

>  <SCORE.INTRA.REPUL.0>
0

>  <SCORE.INTRA.SOLV>
0.704434

>  <SCORE.INTRA.SOLV.lig_0>
-53.6586

>  <SCORE.INTRA.VDW>
0.59532

>  <SCORE.INTRA.VDW.0>
-0.556525

>  <SCORE.INTRA.norm>
-0.117926

>  <SCORE.RESTR>
0

>  <SCORE.RESTR.CAVITY>
0

>  <SCORE.RESTR.norm>
0

>  <SCORE.SYSTEM>
0

>  <SCORE.SYSTEM.CONST>
0

>  <SCORE.SYSTEM.DIHEDRAL>
0

>  <SCORE.SYSTEM.SOLV>
0

>  <SCORE.SYSTEM.norm>
0

>  <SCORE.heavy>
11

>  <SCORE.norm>
-1.86946

>  <RMSD>
5.451

$$$$

 OpenBabel11021811383D
libRbt.so/2013.1/901 2013/11/27
 11 10  0  0  0  0  0  0  0  0999 V2000
   -4.3996   -2.1838   -4.6619 N   0  3  0  0  0  0  0  0  0  0  0  0
   -3.9924   -3.0166   -3.4904 C   0  0  2  0  0  0  0  0  0  0  0  0
   -5.2361   -3.6577   -2.8517 C   0  0  0  0  0  0  0  0  0  0  0  0
   -5.3477   -4.8676   -2.7891 O   0  0  0  0  0  0  0  0  0  0  0  0
   -3.2754   -2.1305   -2.4630 C   0  0  0  0  0  0  0  0  0  0  0  0
   -2.4555   -3.0070   -1.5121 C   0  0  0  0  0  0  0  0  0  0  0  0
   -1.8223   -2.1336   -0.4310 C   0  0  0  0  0  0  0  0  0  0  0  0
   -2.8952   -1.5887    0.4453 N   0  3  0  0  0  0  0  0  0  0  0  0
   -2.5862   -0.8691    1.4890 C   0  0  0  0  0  0  0  0  0  0  0  0
   -2.9677    0.3803    1.5528 N   0  0  0  0  0  0  0  0  0  0  0  0
   -1.9034   -1.4003    2.4700 N   0  0  0  0  0  0  0  0  0  0  0  0
  2  1  1  6  0  0  0
  2  3  1  0  0  0  0
  2  5  1  0  0  0  0
  3  4  2  0  0  0  0
  5  6  1  0  0  0  0
  6  7  1  0  0  0  0
  7  8  1  0  0  0  0
  8  9  2  0  0  0  0
  9 10  1  0  0  0  0
  9 11  1  0  0  0  0
M  CHG  2   1   1   8   1
M  END
>  <CHROM.1>
-49.94095220,119.40587692,-161.09031250,-176.02149876,67.60317840,176.24981484
-3.37148985,-2.20715330,-1.12095861,-2.77075525,1.17087379,2.28823122

>  <Name>


>  <RI>
224

>  <Rbt.Current_Directory>
/home/itssahil/PROJECTS/Mol_Feturizer/New_Systems/rnas/1aju

>  <Rbt.Executable>
rbdock ($Id: //depot/dev/client3/rdock/2013.1/src/exe/rbdock.cxx#4 $)

>  <Rbt.Library>
libRbt.so (2013.1, Build901 2013/11/27)

>  <Rbt.Parameter_File>
/export/apps/rDock/src/rDock_2013.1_src/data/scripts/dock_solv.prm

>  <Rbt.Receptor>
prm/pocket_docking_5.prm

>  <SCORE>
-22.7416

>  <SCORE.INTER>
-20.3518

>  <SCORE.INTER.CONST>
1

>  <SCORE.INTER.POLAR>
-3.81357

>  <SCORE.INTER.ROT>
5

>  <SCORE.INTER.SOLV>
19.1234

>  <SCORE.INTER.VDW>
-14.1638

>  <SCORE.INTER.norm>
-1.85016

>  <SCORE.INTRA>
-2.38975

>  <SCORE.INTRA.DIHEDRAL>
-5.25113

>  <SCORE.INTRA.DIHEDRAL.0>
9.90185

>  <SCORE.INTRA.POLAR>
0

>  <SCORE.INTRA.POLAR.0>
0

>  <SCORE.INTRA.REPUL>
0

>  <SCORE.INTRA.REPUL.0>
0

>  <SCORE.INTRA.SOLV>
0.372187

>  <SCORE.INTRA.SOLV.lig_0>
-53.6586

>  <SCORE.INTRA.VDW>
0.0497162

>  <SCORE.INTRA.VDW.0>
-0.556525

>  <SCORE.INTRA.norm>
-0.21725

>  <SCORE.RESTR>
0

>  <SCORE.RESTR.CAVITY>
0

>  <SCORE.RESTR.norm>
0

>  <SCORE.SYSTEM>
0

>  <SCORE.SYSTEM.CONST>
0

>  <SCORE.SYSTEM.DIHEDRAL>
0

>  <SCORE.SYSTEM.SOLV>
0

>  <SCORE.SYSTEM.norm>
0

>  <SCORE.heavy>
11

>  <SCORE.norm>
-2.06741

>  <RMSD>
5.468

$$$$

 OpenBabel11021811383D
libRbt.so/2013.1/901 2013/11/27
 11 10  0  0  0  0  0  0  0  0999 V2000
   -4.4671   -2.2647   -4.6223 N   0  3  0  0  0  0  0  0  0  0  0  0
   -4.3594   -3.1337   -3.4120 C   0  0  2  0  0  0  0  0  0  0  0  0
   -5.6658   -3.9229   -3.2215 C   0  0  0  0  0  0  0  0  0  0  0  0
   -5.6601   -5.1395   -3.2119 O   0  0  0  0  0  0  0  0  0  0  0  0
   -4.0939   -2.2575   -2.1806 C   0  0  0  0  0  0  0  0  0  0  0  0
   -4.0395   -3.1358   -0.9274 C   0  0  0  0  0  0  0  0  0  0  0  0
   -2.7044   -3.8759   -0.8804 C   0  0  0  0  0  0  0  0  0  0  0  0
   -1.6033   -2.8855   -0.7298 N   0  3  0  0  0  0  0  0  0  0  0  0
   -1.1889   -2.5423    0.4590 C   0  0  0  0  0  0  0  0  0  0  0  0
    0.0402   -2.8065    0.8200 N   0  0  0  0  0  0  0  0  0  0  0  0
   -2.0001   -1.9298    1.2821 N   0  0  0  0  0  0  0  0  0  0  0  0
  2  1  1  6  0  0  0
  2  3  1  0  0  0  0
  2  5  1  0  0  0  0
  3  4  2  0  0  0  0
  5  6  1  0  0  0  0
  6  7  1  0  0  0  0
  7  8  1  0  0  0  0
  8  9  2  0  0  0  0
  9 10  1  0  0  0  0
  9 11  1  0  0  0  0
M  CHG  2   1   1   8   1
M  END
>  <CHROM.1>
87.81559035,120.93854344,177.69156620,76.12850495,64.60517169,90.97250716
-3.23462801,-3.06551865,-1.52870997,-2.66232685,0.70139075,2.23194405

>  <Name>


>  <RI>
224

>  <Rbt.Current_Directory>
/home/itssahil/PROJECTS/Mol_Feturizer/New_Systems/rnas/1aju

>  <Rbt.Executable>
rbdock ($Id: //depot/dev/client3/rdock/2013.1/src/exe/rbdock.cxx#4 $)

>  <Rbt.Library>
libRbt.so (2013.1, Build901 2013/11/27)

>  <Rbt.Parameter_File>
/export/apps/rDock/src/rDock_2013.1_src/data/scripts/dock_solv.prm

>  <Rbt.Receptor>
prm/pocket_docking_5.prm

>  <SCORE>
-17.9241

>  <SCORE.INTER>
-17.4815

>  <SCORE.INTER.CONST>
1

>  <SCORE.INTER.POLAR>
-3.53325

>  <SCORE.INTER.ROT>
5

>  <SCORE.INTER.SOLV>
18.7966

>  <SCORE.INTER.VDW>
-13.0757

>  <SCORE.INTER.norm>
-1.58922

>  <SCORE.INTRA>
-0.442612

>  <SCORE.INTRA.DIHEDRAL>
-4.27799

>  <SCORE.INTRA.DIHEDRAL.0>
9.90185

>  <SCORE.INTRA.POLAR>
0

>  <SCORE.INTRA.POLAR.0>
0

>  <SCORE.INTRA.REPUL>
0

>  <SCORE.INTRA.REPUL.0>
0

>  <SCORE.INTRA.SOLV>
1.16361

>  <SCORE.INTRA.SOLV.lig_0>
-53.6586

>  <SCORE.INTRA.VDW>
1.11458

>  <SCORE.INTRA.VDW.0>
-0.556525

>  <SCORE.INTRA.norm>
-0.0402375

>  <SCORE.RESTR>
0

>  <SCORE.RESTR.CAVITY>
0

>  <SCORE.RESTR.norm>
0

>  <SCORE.SYSTEM>
0

>  <SCORE.SYSTEM.CONST>
0

>  <SCORE.SYSTEM.DIHEDRAL>
0

>  <SCORE.SYSTEM.SOLV>
0

>  <SCORE.SYSTEM.norm>
0

>  <SCORE.heavy>
11

>  <SCORE.norm>
-1.62946

>  <RMSD>
5.508

$$$$

 OpenBabel11021811383D
libRbt.so/2013.1/901 2013/11/27
 11 10  0  0  0  0  0  0  0  0999 V2000
   -6.9719   -3.9565   -0.2135 N   0  3  0  0  0  0  0  0  0  0  0  0
   -6.7403   -4.5525   -1.5636 C   0  0  2  0  0  0  0  0  0  0  0  0
   -7.2064   -6.0183   -1.5711 C   0  0  0  0  0  0  0  0  0  0  0  0
   -7.9287   -6.4352   -2.4570 O   0  0  0  0  0  0  0  0  0  0  0  0
   -5.2452   -4.4780   -1.9012 C   0  0  0  0  0  0  0  0  0  0  0  0
   -4.7604   -3.0314   -1.7694 C   0  0  0  0  0  0  0  0  0  0  0  0
   -3.4185   -2.8758   -2.4819 C   0  0  0  0  0  0  0  0  0  0  0  0
   -2.4957   -3.9498   -2.0226 N   0  3  0  0  0  0  0  0  0  0  0  0
   -1.3873   -3.6420   -1.4068 C   0  0  0  0  0  0  0  0  0  0  0  0
   -1.2045   -4.0227   -0.1689 N   0  0  0  0  0  0  0  0  0  0  0  0
   -0.4608   -2.9611   -2.0303 N   0  0  0  0  0  0  0  0  0  0  0  0
  2  1  1  1  0  0  0
  2  3  1  0  0  0  0
  2  5  1  0  0  0  0
  3  4  2  0  0  0  0
  5  6  1  0  0  0  0
  6  7  1  0  0  0  0
  7  8  1  0  0  0  0
  8  9  2  0  0  0  0
  9 10  1  0  0  0  0
  9 11  1  0  0  0  0
M  CHG  2   1   1   8   1
M  END
>  <CHROM.1>
-158.45139560,130.94271132,-54.49461950,-163.53998092,-50.36315219,-118.17981097
-4.34290014,-4.17484177,-1.56843107,2.94168548,-0.24338920,-2.20962850

>  <Name>


>  <RI>
0

>  <Rbt.Current_Directory>
/home/itssahil/PROJECTS/Mol_Feturizer/New_Systems/rnas/1aju

>  <Rbt.Executable>
rbdock ($Id: //depot/dev/client3/rdock/2013.1/src/exe/rbdock.cxx#4 $)

>  <Rbt.Library>
libRbt.so (2013.1, Build901 2013/11/27)

>  <Rbt.Parameter_File>
/export/apps/rDock/src/rDock_2013.1_src/data/scripts/dock_solv.prm

>  <Rbt.Receptor>
prm/pocket_docking_8.prm

>  <SCORE>
-13.0447

>  <SCORE.INTER>
-12.6921

>  <SCORE.INTER.CONST>
1

>  <SCORE.INTER.POLAR>
-2.06403

>  <SCORE.INTER.ROT>
5

>  <SCORE.INTER.SOLV>
14.9446

>  <SCORE.INTER.VDW>
-13.4962

>  <SCORE.INTER.norm>
-1.15383

>  <SCORE.INTRA>
-0.352569

>  <SCORE.INTRA.DIHEDRAL>
-4.17273

>  <SCORE.INTRA.DIHEDRAL.0>
9.90185

>  <SCORE.INTRA.POLAR>
0

>  <SCORE.INTRA.POLAR.0>
0

>  <SCORE.INTRA.REPUL>
0

>  <SCORE.INTRA.REPUL.0>
0

>  <SCORE.INTRA.SOLV>
1.75477

>  <SCORE.INTRA.SOLV.lig_0>
-53.6586

>  <SCORE.INTRA.VDW>
0.856411

>  <SCORE.INTRA.VDW.0>
-0.556525

>  <SCORE.INTRA.norm>
-0.0320517

>  <SCORE.RESTR>
0

>  <SCORE.RESTR.CAVITY>
0

>  <SCORE.RESTR.norm>
0

>  <SCORE.SYSTEM>
0

>  <SCORE.SYSTEM.CONST>
0

>  <SCORE.SYSTEM.DIHEDRAL>
0

>  <SCORE.SYSTEM.SOLV>
0

>  <SCORE.SYSTEM.norm>
0

>  <SCORE.heavy>
11

>  <SCORE.norm>
-1.18588

>  <RMSD>
5.515

$$$$

 OpenBabel11021811383D
libRbt.so/2013.1/901 2013/11/27
 11 10  0  0  0  0  0  0  0  0999 V2000
   -9.2658   -4.6242   -0.1379 N   0  3  0  0  0  0  0  0  0  0  0  0
   -7.9149   -4.4704   -0.7567 C   0  0  2  0  0  0  0  0  0  0  0  0
   -7.5632   -5.7360   -1.5569 C   0  0  0  0  0  0  0  0  0  0  0  0
   -6.9857   -5.6545   -2.6247 O   0  0  0  0  0  0  0  0  0  0  0  0
   -6.8739   -4.2445    0.3479 C   0  0  0  0  0  0  0  0  0  0  0  0
   -5.4680   -4.2696   -0.2584 C   0  0  0  0  0  0  0  0  0  0  0  0
   -5.1921   -2.9429   -0.9628 C   0  0  0  0  0  0  0  0  0  0  0  0
   -4.0774   -3.1283   -1.9317 N   0  3  0  0  0  0  0  0  0  0  0  0
   -4.2447   -2.8223   -3.1892 C   0  0  0  0  0  0  0  0  0  0  0  0
   -3.5263   -1.8710   -3.7274 N   0  0  0  0  0  0  0  0  0  0  0  0
   -5.1235   -3.4713   -3.9082 N   0  0  0  0  0  0  0  0  0  0  0  0
  2  1  1  1  0  0  0
  2  3  1  0  0  0  0
  2  5  1  0  0  0  0
  3  4  2  0  0  0  0
  5  6  1  0  0  0  0
  6  7  1  0  0  0  0
  7  8  1  0  0  0  0
  8  9  2  0  0  0  0
  9 10  1  0  0  0  0
  9 11  1  0  0  0  0
M  CHG  2   1   1   8   1
M  END
>  <CHROM.1>
-69.01947210,140.80510179,172.61947591,77.40377028,-160.19909091,124.31062623
-6.04178414,-3.92897339,-1.72628986,-2.74047529,-0.60410767,-1.79544508

>  <Name>


>  <RI>
0

>  <Rbt.Current_Directory>
/home/itssahil/PROJECTS/Mol_Feturizer/New_Systems/rnas/1aju

>  <Rbt.Executable>
rbdock ($Id: //depot/dev/client3/rdock/2013.1/src/exe/rbdock.cxx#4 $)

>  <Rbt.Library>
libRbt.so (2013.1, Build901 2013/11/27)

>  <Rbt.Parameter_File>
/export/apps/rDock/src/rDock_2013.1_src/data/scripts/dock_solv.prm

>  <Rbt.Receptor>
prm/pocket_docking_6.prm

>  <SCORE>
-22.3659

>  <SCORE.INTER>
-18.3422

>  <SCORE.INTER.CONST>
1

>  <SCORE.INTER.POLAR>
-3.1464

>  <SCORE.INTER.ROT>
5

>  <SCORE.INTER.SOLV>
18.6246

>  <SCORE.INTER.VDW>
-14.8817

>  <SCORE.INTER.norm>
-1.66747

>  <SCORE.INTRA>
-4.05273

>  <SCORE.INTRA.DIHEDRAL>
-3.27537

>  <SCORE.INTRA.DIHEDRAL.0>
9.90185

>  <SCORE.INTRA.POLAR>
-1.08333

>  <SCORE.INTRA.POLAR.0>
0

>  <SCORE.INTRA.REPUL>
0

>  <SCORE.INTRA.REPUL.0>
0

>  <SCORE.INTRA.SOLV>
1.57794

>  <SCORE.INTRA.SOLV.lig_0>
-53.6586

>  <SCORE.INTRA.VDW>
0.479312

>  <SCORE.INTRA.VDW.0>
-0.556525

>  <SCORE.INTRA.norm>
-0.36843

>  <SCORE.RESTR>
0.0290268

>  <SCORE.RESTR.CAVITY>
0.0290268

>  <SCORE.RESTR.norm>
0.0026388

>  <SCORE.SYSTEM>
0

>  <SCORE.SYSTEM.CONST>
0

>  <SCORE.SYSTEM.DIHEDRAL>
0

>  <SCORE.SYSTEM.SOLV>
0

>  <SCORE.SYSTEM.norm>
0

>  <SCORE.heavy>
11

>  <SCORE.norm>
-2.03326

>  <RMSD>
5.535

$$$$

 OpenBabel11021811383D
libRbt.so/2013.1/901 2013/11/27
 11 10  0  0  0  0  0  0  0  0999 V2000
   -4.4499   -2.3677   -4.3865 N   0  3  0  0  0  0  0  0  0  0  0  0
   -4.3263   -3.2913   -3.2189 C   0  0  2  0  0  0  0  0  0  0  0  0
   -5.6475   -4.0524   -3.0166 C   0  0  0  0  0  0  0  0  0  0  0  0
   -5.6828   -5.2660   -3.0952 O   0  0  0  0  0  0  0  0  0  0  0  0
   -3.9945   -2.4770   -1.9612 C   0  0  0  0  0  0  0  0  0  0  0  0
   -2.5011   -2.1385   -1.9477 C   0  0  0  0  0  0  0  0  0  0  0  0
   -1.8557   -2.7270   -0.6948 C   0  0  0  0  0  0  0  0  0  0  0  0
   -2.4996   -2.1341    0.5093 N   0  3  0  0  0  0  0  0  0  0  0  0
   -1.8622   -1.2472    1.2233 C   0  0  0  0  0  0  0  0  0  0  0  0
   -2.3355   -0.0320    1.3236 N   0  0  0  0  0  0  0  0  0  0  0  0
   -0.7578   -1.5772    1.8414 N   0  0  0  0  0  0  0  0  0  0  0  0
  2  1  1  6  0  0  0
  2  3  1  0  0  0  0
  2  5  1  0  0  0  0
  3  4  2  0  0  0  0
  5  6  1  0  0  0  0
  6  7  1  0  0  0  0
  7  8  1  0  0  0  0
  8  9  2  0  0  0  0
  9 10  1  0  0  0  0
  9 11  1  0  0  0  0
M  CHG  2   1   1   8   1
M  END
>  <CHROM.1>
83.96232175,118.92228354,-79.64075627,-120.23750813,-60.68690334,-106.28156735
-3.26853396,-2.46489627,-1.22917004,-2.89022908,0.98405922,2.33882359

>  <Name>


>  <RI>
0

>  <Rbt.Current_Directory>
/home/itssahil/PROJECTS/Mol_Feturizer/New_Systems/rnas/1aju

>  <Rbt.Executable>
rbdock ($Id: //depot/dev/client3/rdock/2013.1/src/exe/rbdock.cxx#4 $)

>  <Rbt.Library>
libRbt.so (2013.1, Build901 2013/11/27)

>  <Rbt.Parameter_File>
/export/apps/rDock/src/rDock_2013.1_src/data/scripts/dock_solv.prm

>  <Rbt.Receptor>
prm/pocket_docking_4.prm

>  <SCORE>
-17.8625

>  <SCORE.INTER>
-19.2019

>  <SCORE.INTER.CONST>
1

>  <SCORE.INTER.POLAR>
-3.25649

>  <SCORE.INTER.ROT>
5

>  <SCORE.INTER.SOLV>
17.3101

>  <SCORE.INTER.VDW>
-14.6496

>  <SCORE.INTER.norm>
-1.74563

>  <SCORE.INTRA>
1.33943

>  <SCORE.INTRA.DIHEDRAL>
1.68447

>  <SCORE.INTRA.DIHEDRAL.0>
9.90185

>  <SCORE.INTRA.POLAR>
0

>  <SCORE.INTRA.POLAR.0>
0

>  <SCORE.INTRA.REPUL>
0

>  <SCORE.INTRA.REPUL.0>
0

>  <SCORE.INTRA.SOLV>
1.30787

>  <SCORE.INTRA.SOLV.lig_0>
-53.6586

>  <SCORE.INTRA.VDW>
-0.156744

>  <SCORE.INTRA.VDW.0>
-0.556525

>  <SCORE.INTRA.norm>
0.121766

>  <SCORE.RESTR>
0

>  <SCORE.RESTR.CAVITY>
0

>  <SCORE.RESTR.norm>
0

>  <SCORE.SYSTEM>
0

>  <SCORE.SYSTEM.CONST>
0

>  <SCORE.SYSTEM.DIHEDRAL>
0

>  <SCORE.SYSTEM.SOLV>
0

>  <SCORE.SYSTEM.norm>
0

>  <SCORE.heavy>
11

>  <SCORE.norm>
-1.62386

>  <RMSD>
5.543

$$$$

 OpenBabel11021811383D
libRbt.so/2013.1/901 2013/11/27
 11 10  0  0  0  0  0  0  0  0999 V2000
   -9.0333   -4.8865   -0.0348 N   0  3  0  0  0  0  0  0  0  0  0  0
   -7.7404   -5.2724    0.6064 C   0  0  2  0  0  0  0  0  0  0  0  0
   -7.9828   -5.6501    2.0776 C   0  0  0  0  0  0  0  0  0  0  0  0
   -7.5590   -4.9481    2.9764 O   0  0  0  0  0  0  0  0  0  0  0  0
   -6.7617   -4.0934    0.5241 C   0  0  0  0  0  0  0  0  0  0  0  0
   -6.0244   -4.1307   -0.8175 C   0  0  0  0  0  0  0  0  0  0  0  0
   -5.1910   -2.8609   -0.9775 C   0  0  0  0  0  0  0  0  0  0  0  0
   -4.1031   -3.1129   -1.9617 N   0  3  0  0  0  0  0  0  0  0  0  0
   -4.2535   -2.7606   -3.2091 C   0  0  0  0  0  0  0  0  0  0  0  0
   -3.4620   -1.8587   -3.7295 N   0  0  0  0  0  0  0  0  0  0  0  0
   -5.1890   -3.3146   -3.9362 N   0  0  0  0  0  0  0  0  0  0  0  0
  2  1  1  1  0  0  0
  2  3  1  0  0  0  0
  2  5  1  0  0  0  0
  3  4  2  0  0  0  0
  5  6  1  0  0  0  0
  6  7  1  0  0  0  0
  7  8  1  0  0  0  0
  8  9  2  0  0  0  0
  9 10  1  0  0  0  0
  9 11  1  0  0  0  0
M  CHG  2   1   1   8   1
M  END
>  <CHROM.1>
56.70043324,-111.53892590,-85.88232613,172.52492465,158.03170370,96.84507444
-6.13608838,-3.88687583,-0.79761410,2.25514988,0.44249013,1.70863575

>  <Name>


>  <RI>
0

>  <Rbt.Current_Directory>
/home/itssahil/PROJECTS/Mol_Feturizer/New_Systems/rnas/1aju

>  <Rbt.Executable>
rbdock ($Id: //depot/dev/client3/rdock/2013.1/src/exe/rbdock.cxx#4 $)

>  <Rbt.Library>
libRbt.so (2013.1, Build901 2013/11/27)

>  <Rbt.Parameter_File>
/export/apps/rDock/src/rDock_2013.1_src/data/scripts/dock_solv.prm

>  <Rbt.Receptor>
prm/pocket_docking_7.prm

>  <SCORE>
-18.8193

>  <SCORE.INTER>
-18.3609

>  <SCORE.INTER.CONST>
1

>  <SCORE.INTER.POLAR>
-3.23816

>  <SCORE.INTER.ROT>
5

>  <SCORE.INTER.SOLV>
18.317

>  <SCORE.INTER.VDW>
-14.4857

>  <SCORE.INTER.norm>
-1.66917

>  <SCORE.INTRA>
-0.467024

>  <SCORE.INTRA.DIHEDRAL>
-2.96196

>  <SCORE.INTRA.DIHEDRAL.0>
9.90185

>  <SCORE.INTRA.POLAR>
0

>  <SCORE.INTRA.POLAR.0>
0

>  <SCORE.INTRA.REPUL>
0

>  <SCORE.INTRA.REPUL.0>
0

>  <SCORE.INTRA.SOLV>
1.27939

>  <SCORE.INTRA.SOLV.lig_0>
-53.6586

>  <SCORE.INTRA.VDW>
0.374263

>  <SCORE.INTRA.VDW.0>
-0.556525

>  <SCORE.INTRA.norm>
-0.0424568

>  <SCORE.RESTR>
0.00861253

>  <SCORE.RESTR.CAVITY>
0.00861253

>  <SCORE.RESTR.norm>
0.000782957

>  <SCORE.SYSTEM>
0

>  <SCORE.SYSTEM.CONST>
0

>  <SCORE.SYSTEM.DIHEDRAL>
0

>  <SCORE.SYSTEM.SOLV>
0

>  <SCORE.SYSTEM.norm>
0

>  <SCORE.heavy>
11

>  <SCORE.norm>
-1.71085

>  <RMSD>
5.564

$$$$

 OpenBabel11021811383D
libRbt.so/2013.1/901 2013/11/27
 11 10  0  0  0  0  0  0  0  0999 V2000
   -4.2326   -2.5574   -4.0769 N   0  3  0  0  0  0  0  0  0  0  0  0
   -4.4704   -3.6177   -3.0518 C   0  0  2  0  0  0  0  0  0  0  0  0
   -5.8637   -4.2358   -3.2575 C   0  0  0  0  0  0  0  0  0  0  0  0
   -5.9910   -5.4316   -3.4419 O   0  0  0  0  0  0  0  0  0  0  0  0
   -4.3750   -2.9990   -1.6507 C   0  0  0  0  0  0  0  0  0  0  0  0
   -2.9577   -2.4670   -1.4197 C   0  0  0  0  0  0  0  0  0  0  0  0
   -2.6230   -2.5360    0.0688 C   0  0  0  0  0  0  0  0  0  0  0  0
   -3.5019   -1.5907    0.8102 N   0  3  0  0  0  0  0  0  0  0  0  0
   -2.9965   -0.8007    1.7175 C   0  0  0  0  0  0  0  0  0  0  0  0
   -3.0465    0.4956    1.5510 N   0  0  0  0  0  0  0  0  0  0  0  0
   -2.4488   -1.3063    2.7923 N   0  0  0  0  0  0  0  0  0  0  0  0
  2  1  1  6  0  0  0
  2  3  1  0  0  0  0
  2  5  1  0  0  0  0
  3  4  2  0  0  0  0
  5  6  1  0  0  0  0
  6  7  1  0  0  0  0
  7  8  1  0  0  0  0
  8  9  2  0  0  0  0
  9 10  1  0  0  0  0
  9 11  1  0  0  0  0
M  CHG  2   1   1   8   1
M  END
>  <CHROM.1>
-168.29691450,122.75897810,-63.18026301,-150.54829166,-66.15077096,-134.31465297
-3.86451821,-2.43441578,-0.91488618,-2.50347139,1.10818659,1.88573924

>  <Name>


>  <RI>
224

>  <Rbt.Current_Directory>
/home/itssahil/PROJECTS/Mol_Feturizer/New_Systems/rnas/1aju

>  <Rbt.Executable>
rbdock ($Id: //depot/dev/client3/rdock/2013.1/src/exe/rbdock.cxx#4 $)

>  <Rbt.Library>
libRbt.so (2013.1, Build901 2013/11/27)

>  <Rbt.Parameter_File>
/export/apps/rDock/src/rDock_2013.1_src/data/scripts/dock_solv.prm

>  <Rbt.Receptor>
prm/pocket_docking_5.prm

>  <SCORE>
-18.984

>  <SCORE.INTER>
-18.0023

>  <SCORE.INTER.CONST>
1

>  <SCORE.INTER.POLAR>
-3.13436

>  <SCORE.INTER.ROT>
5

>  <SCORE.INTER.SOLV>
16.3362

>  <SCORE.INTER.VDW>
-13.9324

>  <SCORE.INTER.norm>
-1.63657

>  <SCORE.INTRA>
-0.981776

>  <SCORE.INTRA.DIHEDRAL>
-3.4942

>  <SCORE.INTRA.DIHEDRAL.0>
9.90185

>  <SCORE.INTRA.POLAR>
0

>  <SCORE.INTRA.POLAR.0>
0

>  <SCORE.INTRA.REPUL>
0

>  <SCORE.INTRA.REPUL.0>
0

>  <SCORE.INTRA.SOLV>
1.38108

>  <SCORE.INTRA.SOLV.lig_0>
-53.6586

>  <SCORE.INTRA.VDW>
0.0747891

>  <SCORE.INTRA.VDW.0>
-0.556525

>  <SCORE.INTRA.norm>
-0.0892523

>  <SCORE.RESTR>
0

>  <SCORE.RESTR.CAVITY>
0

>  <SCORE.RESTR.norm>
0

>  <SCORE.SYSTEM>
0

>  <SCORE.SYSTEM.CONST>
0

>  <SCORE.SYSTEM.DIHEDRAL>
0

>  <SCORE.SYSTEM.SOLV>
0

>  <SCORE.SYSTEM.norm>
0

>  <SCORE.heavy>
11

>  <SCORE.norm>
-1.72582

>  <RMSD>
5.583

$$$$

 OpenBabel11021811383D
libRbt.so/2013.1/901 2013/11/27
 11 10  0  0  0  0  0  0  0  0999 V2000
   -4.2660   -2.3464   -4.3346 N   0  3  0  0  0  0  0  0  0  0  0  0
   -3.9623   -3.1655   -3.1229 C   0  0  2  0  0  0  0  0  0  0  0  0
   -5.2206   -3.9357   -2.6879 C   0  0  0  0  0  0  0  0  0  0  0  0
   -5.2294   -5.1522   -2.6730 O   0  0  0  0  0  0  0  0  0  0  0  0
   -3.4974   -2.2414   -1.9894 C   0  0  0  0  0  0  0  0  0  0  0  0
   -2.0254   -2.5189   -1.6715 C   0  0  0  0  0  0  0  0  0  0  0  0
   -1.9159   -3.7864   -0.8266 C   0  0  0  0  0  0  0  0  0  0  0  0
   -0.5928   -3.8044   -0.1446 N   0  3  0  0  0  0  0  0  0  0  0  0
   -0.4782   -4.3182    1.0494 C   0  0  0  0  0  0  0  0  0  0  0  0
    0.2781   -5.3691    1.2347 N   0  0  0  0  0  0  0  0  0  0  0  0
   -1.1131   -3.7775    2.0571 N   0  0  0  0  0  0  0  0  0  0  0  0
  2  1  1  6  0  0  0
  2  3  1  0  0  0  0
  2  5  1  0  0  0  0
  3  4  2  0  0  0  0
  5  6  1  0  0  0  0
  6  7  1  0  0  0  0
  7  8  1  0  0  0  0
  8  9  2  0  0  0  0
  9 10  1  0  0  0  0
  9 11  1  0  0  0  0
M  CHG  2   1   1   8   1
M  END
>  <CHROM.1>
-43.13969135,118.36103716,-113.34838832,-78.20143419,-161.04644857,145.68516015
-2.54373265,-3.68063633,-1.20084079,-2.53264394,0.61683816,2.50365163

>  <Name>


>  <RI>
0

>  <Rbt.Current_Directory>
/home/itssahil/PROJECTS/Mol_Feturizer/New_Systems/rnas/1aju

>  <Rbt.Executable>
rbdock ($Id: //depot/dev/client3/rdock/2013.1/src/exe/rbdock.cxx#4 $)

>  <Rbt.Library>
libRbt.so (2013.1, Build901 2013/11/27)

>  <Rbt.Parameter_File>
/export/apps/rDock/src/rDock_2013.1_src/data/scripts/dock_solv.prm

>  <Rbt.Receptor>
prm/pocket_docking_3.prm

>  <SCORE>
-18.2195

>  <SCORE.INTER>
-18.8907

>  <SCORE.INTER.CONST>
1

>  <SCORE.INTER.POLAR>
-3.33225

>  <SCORE.INTER.ROT>
5

>  <SCORE.INTER.SOLV>
18.527

>  <SCORE.INTER.VDW>
-14.5953

>  <SCORE.INTER.norm>
-1.71734

>  <SCORE.INTRA>
0.671234

>  <SCORE.INTRA.DIHEDRAL>
1.27541

>  <SCORE.INTRA.DIHEDRAL.0>
9.90185

>  <SCORE.INTRA.POLAR>
0

>  <SCORE.INTRA.POLAR.0>
0

>  <SCORE.INTRA.REPUL>
0

>  <SCORE.INTRA.REPUL.0>
0

>  <SCORE.INTRA.SOLV>
0.433321

>  <SCORE.INTRA.SOLV.lig_0>
-53.6586

>  <SCORE.INTRA.VDW>
-0.18313

>  <SCORE.INTRA.VDW.0>
-0.556525

>  <SCORE.INTRA.norm>
0.0610213

>  <SCORE.RESTR>
0

>  <SCORE.RESTR.CAVITY>
0

>  <SCORE.RESTR.norm>
0

>  <SCORE.SYSTEM>
0

>  <SCORE.SYSTEM.CONST>
0

>  <SCORE.SYSTEM.DIHEDRAL>
0

>  <SCORE.SYSTEM.SOLV>
0

>  <SCORE.SYSTEM.norm>
0

>  <SCORE.heavy>
11

>  <SCORE.norm>
-1.65632

>  <RMSD>
5.611

$$$$

 OpenBabel11021811383D
libRbt.so/2013.1/901 2013/11/27
 11 10  0  0  0  0  0  0  0  0999 V2000
   -5.9363   -3.1647   -0.6814 N   0  3  0  0  0  0  0  0  0  0  0  0
   -4.6631   -2.4281   -0.9423 C   0  0  2  0  0  0  0  0  0  0  0  0
   -4.0173   -2.9498   -2.2371 C   0  0  0  0  0  0  0  0  0  0  0  0
   -4.5559   -3.8231   -2.8910 O   0  0  0  0  0  0  0  0  0  0  0  0
   -3.7061   -2.6353    0.2392 C   0  0  0  0  0  0  0  0  0  0  0  0
   -4.3880   -2.1915    1.5364 C   0  0  0  0  0  0  0  0  0  0  0  0
   -3.5373   -1.1236    2.2208 C   0  0  0  0  0  0  0  0  0  0  0  0
   -3.8548    0.2051    1.6294 N   0  3  0  0  0  0  0  0  0  0  0  0
   -4.3171    1.1643    2.3836 C   0  0  0  0  0  0  0  0  0  0  0  0
   -3.6222    2.2616    2.5380 N   0  0  0  0  0  0  0  0  0  0  0  0
   -5.4752    1.0290    2.9762 N   0  0  0  0  0  0  0  0  0  0  0  0
  2  1  1  1  0  0  0
  2  3  1  0  0  0  0
  2  5  1  0  0  0  0
  3  4  2  0  0  0  0
  5  6  1  0  0  0  0
  6  7  1  0  0  0  0
  7  8  1  0  0  0  0
  8  9  2  0  0  0  0
  9 10  1  0  0  0  0
  9 11  1  0  0  0  0
M  CHG  2   1   1   8   1
M  END
>  <CHROM.1>
-31.87572080,1.01052824,-56.13916912,-123.17615019,84.05321956,120.22293842
-4.41115324,-1.23812924,0.61187718,1.66398414,-0.76092830,-2.31080008

>  <Name>


>  <RI>
0

>  <Rbt.Current_Directory>
/home/itssahil/PROJECTS/Mol_Feturizer/New_Systems/rnas/1aju

>  <Rbt.Executable>
rbdock ($Id: //depot/dev/client3/rdock/2013.1/src/exe/rbdock.cxx#4 $)

>  <Rbt.Library>
libRbt.so (2013.1, Build901 2013/11/27)

>  <Rbt.Parameter_File>
/export/apps/rDock/src/rDock_2013.1_src/data/scripts/dock_solv.prm

>  <Rbt.Receptor>
prm/pocket_docking_8.prm

>  <SCORE>
-22.1855

>  <SCORE.INTER>
-25.1224

>  <SCORE.INTER.CONST>
1

>  <SCORE.INTER.POLAR>
-4.37025

>  <SCORE.INTER.ROT>
5

>  <SCORE.INTER.SOLV>
15.9821

>  <SCORE.INTER.VDW>
-14.4415

>  <SCORE.INTER.norm>
-2.28386

>  <SCORE.INTRA>
2.93694

>  <SCORE.INTRA.DIHEDRAL>
2.7219

>  <SCORE.INTRA.DIHEDRAL.0>
9.90185

>  <SCORE.INTRA.POLAR>
0

>  <SCORE.INTRA.POLAR.0>
0

>  <SCORE.INTRA.REPUL>
0

>  <SCORE.INTRA.REPUL.0>
0

>  <SCORE.INTRA.SOLV>
2.9844

>  <SCORE.INTRA.SOLV.lig_0>
-53.6586

>  <SCORE.INTRA.VDW>
0.0837941

>  <SCORE.INTRA.VDW.0>
-0.556525

>  <SCORE.INTRA.norm>
0.266995

>  <SCORE.RESTR>
0

>  <SCORE.RESTR.CAVITY>
0

>  <SCORE.RESTR.norm>
0

>  <SCORE.SYSTEM>
0

>  <SCORE.SYSTEM.CONST>
0

>  <SCORE.SYSTEM.DIHEDRAL>
0

>  <SCORE.SYSTEM.SOLV>
0

>  <SCORE.SYSTEM.norm>
0

>  <SCORE.heavy>
11

>  <SCORE.norm>
-2.01686

>  <RMSD>
5.615

$$$$

 OpenBabel11021811383D
libRbt.so/2013.1/901 2013/11/27
 11 10  0  0  0  0  0  0  0  0999 V2000
   -4.1957   -2.5959   -3.9800 N   0  3  0  0  0  0  0  0  0  0  0  0
   -4.5390   -3.6013   -2.9297 C   0  0  2  0  0  0  0  0  0  0  0  0
   -5.8709   -4.2855   -3.2813 C   0  0  0  0  0  0  0  0  0  0  0  0
   -5.9319   -5.4933   -3.4144 O   0  0  0  0  0  0  0  0  0  0  0  0
   -4.6563   -2.8961   -1.5718 C   0  0  0  0  0  0  0  0  0  0  0  0
   -3.4156   -3.1989   -0.7270 C   0  0  0  0  0  0  0  0  0  0  0  0
   -3.6597   -2.7579    0.7147 C   0  0  0  0  0  0  0  0  0  0  0  0
   -3.5790   -1.2735    0.7904 N   0  3  0  0  0  0  0  0  0  0  0  0
   -3.3976   -0.6851    1.9409 C   0  0  0  0  0  0  0  0  0  0  0  0
   -2.3139    0.0175    2.1476 N   0  0  0  0  0  0  0  0  0  0  0  0
   -4.3016   -0.7933    2.8799 N   0  0  0  0  0  0  0  0  0  0  0  0
  2  1  1  6  0  0  0
  2  3  1  0  0  0  0
  2  5  1  0  0  0  0
  3  4  2  0  0  0  0
  5  6  1  0  0  0  0
  6  7  1  0  0  0  0
  7  8  1  0  0  0  0
  8  9  2  0  0  0  0
  9 10  1  0  0  0  0
  9 11  1  0  0  0  0
M  CHG  2   1   1   8   1
M  END
>  <CHROM.1>
82.50552547,122.12181178,-104.58596292,-167.87562602,-74.72960205,-161.71411333
-4.16108317,-2.47799604,-0.68933843,-2.02872863,0.88311549,1.37155975

>  <Name>


>  <RI>
0

>  <Rbt.Current_Directory>
/home/itssahil/PROJECTS/Mol_Feturizer/New_Systems/rnas/1aju

>  <Rbt.Executable>
rbdock ($Id: //depot/dev/client3/rdock/2013.1/src/exe/rbdock.cxx#4 $)

>  <Rbt.Library>
libRbt.so (2013.1, Build901 2013/11/27)

>  <Rbt.Parameter_File>
/export/apps/rDock/src/rDock_2013.1_src/data/scripts/dock_solv.prm

>  <Rbt.Receptor>
prm/pocket_docking_6.prm

>  <SCORE>
-22.3484

>  <SCORE.INTER>
-22.5017

>  <SCORE.INTER.CONST>
1

>  <SCORE.INTER.POLAR>
-4.39875

>  <SCORE.INTER.ROT>
5

>  <SCORE.INTER.SOLV>
16.089

>  <SCORE.INTER.VDW>
-12.635

>  <SCORE.INTER.norm>
-2.04561

>  <SCORE.INTRA>
0.153279

>  <SCORE.INTRA.DIHEDRAL>
-0.155991

>  <SCORE.INTRA.DIHEDRAL.0>
9.90185

>  <SCORE.INTRA.POLAR>
0

>  <SCORE.INTRA.POLAR.0>
0

>  <SCORE.INTRA.REPUL>
0

>  <SCORE.INTRA.REPUL.0>
0

>  <SCORE.INTRA.SOLV>
0.571194

>  <SCORE.INTRA.SOLV.lig_0>
-53.6586

>  <SCORE.INTRA.VDW>
-0.0543221

>  <SCORE.INTRA.VDW.0>
-0.556525

>  <SCORE.INTRA.norm>
0.0139345

>  <SCORE.RESTR>
0

>  <SCORE.RESTR.CAVITY>
0

>  <SCORE.RESTR.norm>
0

>  <SCORE.SYSTEM>
0

>  <SCORE.SYSTEM.CONST>
0

>  <SCORE.SYSTEM.DIHEDRAL>
0

>  <SCORE.SYSTEM.SOLV>
0

>  <SCORE.SYSTEM.norm>
0

>  <SCORE.heavy>
11

>  <SCORE.norm>
-2.03167

>  <RMSD>
5.633

$$$$

 OpenBabel11021811383D
libRbt.so/2013.1/901 2013/11/27
 11 10  0  0  0  0  0  0  0  0999 V2000
   -4.5920   -4.4557   -0.8006 N   0  3  0  0  0  0  0  0  0  0  0  0
   -4.6228   -3.0042   -1.1527 C   0  0  2  0  0  0  0  0  0  0  0  0
   -4.0840   -2.8044   -2.5794 C   0  0  0  0  0  0  0  0  0  0  0  0
   -4.7826   -2.3074   -3.4426 O   0  0  0  0  0  0  0  0  0  0  0  0
   -3.7598   -2.2217   -0.1539 C   0  0  0  0  0  0  0  0  0  0  0  0
   -4.4149   -2.2581    1.2298 C   0  0  0  0  0  0  0  0  0  0  0  0
   -3.7158   -1.2615    2.1520 C   0  0  0  0  0  0  0  0  0  0  0  0
   -3.9466    0.1181    1.6428 N   0  3  0  0  0  0  0  0  0  0  0  0
   -4.3747    1.0508    2.4488 C   0  0  0  0  0  0  0  0  0  0  0  0
   -3.6255    2.0956    2.6895 N   0  0  0  0  0  0  0  0  0  0  0  0
   -5.5524    0.9420    3.0071 N   0  0  0  0  0  0  0  0  0  0  0  0
  2  1  1  1  0  0  0
  2  3  1  0  0  0  0
  2  5  1  0  0  0  0
  3  4  2  0  0  0  0
  5  6  1  0  0  0  0
  6  7  1  0  0  0  0
  7  8  1  0  0  0  0
  8  9  2  0  0  0  0
  9 10  1  0  0  0  0
  9 11  1  0  0  0  0
M  CHG  2   1   1   8   1
M  END
>  <CHROM.1>
63.35476411,119.91550640,-67.65039515,-168.85478221,65.15837853,129.96596546
-4.33061710,-1.28556859,0.45706345,2.36500699,-1.53910562,-1.52405816

>  <Name>


>  <RI>
0

>  <Rbt.Current_Directory>
/home/itssahil/PROJECTS/Mol_Feturizer/New_Systems/rnas/1aju

>  <Rbt.Executable>
rbdock ($Id: //depot/dev/client3/rdock/2013.1/src/exe/rbdock.cxx#4 $)

>  <Rbt.Library>
libRbt.so (2013.1, Build901 2013/11/27)

>  <Rbt.Parameter_File>
/export/apps/rDock/src/rDock_2013.1_src/data/scripts/dock_solv.prm

>  <Rbt.Receptor>
prm/pocket_docking_7.prm

>  <SCORE>
-23.6117

>  <SCORE.INTER>
-21.2564

>  <SCORE.INTER.CONST>
1

>  <SCORE.INTER.POLAR>
-3.25631

>  <SCORE.INTER.ROT>
5

>  <SCORE.INTER.SOLV>
11.1666

>  <SCORE.INTER.VDW>
-13.9721

>  <SCORE.INTER.norm>
-1.9324

>  <SCORE.INTRA>
-2.35534

>  <SCORE.INTRA.DIHEDRAL>
-6.0919

>  <SCORE.INTRA.DIHEDRAL.0>
9.90185

>  <SCORE.INTRA.POLAR>
0

>  <SCORE.INTRA.POLAR.0>
0

>  <SCORE.INTRA.REPUL>
0

>  <SCORE.INTRA.REPUL.0>
0

>  <SCORE.INTRA.SOLV>
1.59727

>  <SCORE.INTRA.SOLV.lig_0>
-53.6586

>  <SCORE.INTRA.VDW>
-0.108026

>  <SCORE.INTRA.VDW.0>
-0.556525

>  <SCORE.INTRA.norm>
-0.214122

>  <SCORE.RESTR>
0

>  <SCORE.RESTR.CAVITY>
0

>  <SCORE.RESTR.norm>
0

>  <SCORE.SYSTEM>
0

>  <SCORE.SYSTEM.CONST>
0

>  <SCORE.SYSTEM.DIHEDRAL>
0

>  <SCORE.SYSTEM.SOLV>
0

>  <SCORE.SYSTEM.norm>
0

>  <SCORE.heavy>
11

>  <SCORE.norm>
-2.14652

>  <RMSD>
5.644

$$$$

 OpenBabel11021811383D
libRbt.so/2013.1/901 2013/11/27
 11 10  0  0  0  0  0  0  0  0999 V2000
   -7.3194   -5.5810   -2.3064 N   0  3  0  0  0  0  0  0  0  0  0  0
   -6.0531   -5.6605   -3.0949 C   0  0  2  0  0  0  0  0  0  0  0  0
   -5.6606   -7.1335   -3.2997 C   0  0  0  0  0  0  0  0  0  0  0  0
   -5.5551   -7.5977   -4.4194 O   0  0  0  0  0  0  0  0  0  0  0  0
   -4.9388   -4.9229   -2.3405 C   0  0  0  0  0  0  0  0  0  0  0  0
   -5.2321   -3.4200   -2.3321 C   0  0  0  0  0  0  0  0  0  0  0  0
   -4.0666   -2.6761   -1.6834 C   0  0  0  0  0  0  0  0  0  0  0  0
   -3.8983   -3.1588   -0.2853 N   0  3  0  0  0  0  0  0  0  0  0  0
   -4.7020   -2.7403    0.6535 C   0  0  0  0  0  0  0  0  0  0  0  0
   -5.4776   -3.5924    1.2724 N   0  0  0  0  0  0  0  0  0  0  0  0
   -4.7246   -1.4733    0.9775 N   0  0  0  0  0  0  0  0  0  0  0  0
  2  1  1  1  0  0  0
  2  3  1  0  0  0  0
  2  5  1  0  0  0  0
  3  4  2  0  0  0  0
  5  6  1  0  0  0  0
  6  7  1  0  0  0  0
  7  8  1  0  0  0  0
  8  9  2  0  0  0  0
  9 10  1  0  0  0  0
  9 11  1  0  0  0  0
M  CHG  2   1   1   8   1
M  END
>  <CHROM.1>
-168.27241390,120.20366827,-68.32818349,-175.33649922,-60.08356641,-77.81273814
-5.27398586,-4.36601499,-1.50589986,1.85110464,-0.69851288,-2.19604646

>  <Name>


>  <RI>
0

>  <Rbt.Current_Directory>
/home/itssahil/PROJECTS/Mol_Feturizer/New_Systems/rnas/1aju

>  <Rbt.Executable>
rbdock ($Id: //depot/dev/client3/rdock/2013.1/src/exe/rbdock.cxx#4 $)

>  <Rbt.Library>
libRbt.so (2013.1, Build901 2013/11/27)

>  <Rbt.Parameter_File>
/export/apps/rDock/src/rDock_2013.1_src/data/scripts/dock_solv.prm

>  <Rbt.Receptor>
prm/pocket_docking_6.prm

>  <SCORE>
-17.9598

>  <SCORE.INTER>
-15.4971

>  <SCORE.INTER.CONST>
1

>  <SCORE.INTER.POLAR>
-2.90883

>  <SCORE.INTER.ROT>
5

>  <SCORE.INTER.SOLV>
10.0357

>  <SCORE.INTER.VDW>
-10.9139

>  <SCORE.INTER.norm>
-1.40883

>  <SCORE.INTRA>
-2.46263

>  <SCORE.INTRA.DIHEDRAL>
-6.25049

>  <SCORE.INTRA.DIHEDRAL.0>
9.90185

>  <SCORE.INTRA.POLAR>
0

>  <SCORE.INTRA.POLAR.0>
0

>  <SCORE.INTRA.REPUL>
0

>  <SCORE.INTRA.REPUL.0>
0

>  <SCORE.INTRA.SOLV>
2.09473

>  <SCORE.INTRA.SOLV.lig_0>
-53.6586

>  <SCORE.INTRA.VDW>
-0.384747

>  <SCORE.INTRA.VDW.0>
-0.556525

>  <SCORE.INTRA.norm>
-0.223875

>  <SCORE.RESTR>
0

>  <SCORE.RESTR.CAVITY>
0

>  <SCORE.RESTR.norm>
0

>  <SCORE.SYSTEM>
0

>  <SCORE.SYSTEM.CONST>
0

>  <SCORE.SYSTEM.DIHEDRAL>
0

>  <SCORE.SYSTEM.SOLV>
0

>  <SCORE.SYSTEM.norm>
0

>  <SCORE.heavy>
11

>  <SCORE.norm>
-1.63271

>  <RMSD>
5.646

$$$$

 OpenBabel11021811383D
libRbt.so/2013.1/901 2013/11/27
 11 10  0  0  0  0  0  0  0  0999 V2000
    1.2366   -0.2869    1.9386 N   0  3  0  0  0  0  0  0  0  0  0  0
   -0.2422   -0.3731    2.1319 C   0  0  2  0  0  0  0  0  0  0  0  0
   -0.8939   -0.9913    0.8834 C   0  0  0  0  0  0  0  0  0  0  0  0
   -0.3092   -0.9969   -0.1835 O   0  0  0  0  0  0  0  0  0  0  0  0
   -0.8050    1.0340    2.3727 C   0  0  0  0  0  0  0  0  0  0  0  0
   -2.2548    0.9317    2.8550 C   0  0  0  0  0  0  0  0  0  0  0  0
   -2.8866    2.3220    2.8713 C   0  0  0  0  0  0  0  0  0  0  0  0
   -4.2820    2.2171    3.3790 N   0  3  0  0  0  0  0  0  0  0  0  0
   -4.9953    1.1556    3.1200 C   0  0  0  0  0  0  0  0  0  0  0  0
   -5.4024    0.3913    4.1002 N   0  0  0  0  0  0  0  0  0  0  0  0
   -5.3067    0.8634    1.8837 N   0  0  0  0  0  0  0  0  0  0  0  0
  2  1  1  6  0  0  0
  2  3  1  0  0  0  0
  2  5  1  0  0  0  0
  3  4  2  0  0  0  0
  5  6  1  0  0  0  0
  6  7  1  0  0  0  0
  7  8  1  0  0  0  0
  8  9  2  0  0  0  0
  9 10  1  0  0  0  0
  9 11  1  0  0  0  0
M  CHG  2   1   1   8   1
M  END
>  <CHROM.1>
-59.00286506,-19.93127265,-168.39701274,-170.64314344,-178.35874955,-33.58168266
-2.35845057,0.55425898,2.29210036,-0.47710807,0.01319009,0.81979878

>  <Name>


>  <RI>
0

>  <Rbt.Current_Directory>
/home/itssahil/PROJECTS/Mol_Feturizer/New_Systems/rnas/1aju

>  <Rbt.Executable>
rbdock ($Id: //depot/dev/client3/rdock/2013.1/src/exe/rbdock.cxx#4 $)

>  <Rbt.Library>
libRbt.so (2013.1, Build901 2013/11/27)

>  <Rbt.Parameter_File>
/export/apps/rDock/src/rDock_2013.1_src/data/scripts/dock_solv.prm

>  <Rbt.Receptor>
prm/pocket_docking_8.prm

>  <SCORE>
-21.5119

>  <SCORE.INTER>
-20.789

>  <SCORE.INTER.CONST>
1

>  <SCORE.INTER.POLAR>
-3.9229

>  <SCORE.INTER.ROT>
5

>  <SCORE.INTER.SOLV>
13.3781

>  <SCORE.INTER.VDW>
-12.1757

>  <SCORE.INTER.norm>
-1.88991

>  <SCORE.INTRA>
-0.722938

>  <SCORE.INTRA.DIHEDRAL>
-5.49826

>  <SCORE.INTRA.DIHEDRAL.0>
9.90185

>  <SCORE.INTRA.POLAR>
0

>  <SCORE.INTRA.POLAR.0>
0

>  <SCORE.INTRA.REPUL>
0

>  <SCORE.INTRA.REPUL.0>
0

>  <SCORE.INTRA.SOLV>
1.53018

>  <SCORE.INTRA.SOLV.lig_0>
-53.6586

>  <SCORE.INTRA.VDW>
1.2611

>  <SCORE.INTRA.VDW.0>
-0.556525

>  <SCORE.INTRA.norm>
-0.0657217

>  <SCORE.RESTR>
0

>  <SCORE.RESTR.CAVITY>
0

>  <SCORE.RESTR.norm>
0

>  <SCORE.SYSTEM>
0

>  <SCORE.SYSTEM.CONST>
0

>  <SCORE.SYSTEM.DIHEDRAL>
0

>  <SCORE.SYSTEM.SOLV>
0

>  <SCORE.SYSTEM.norm>
0

>  <SCORE.heavy>
11

>  <SCORE.norm>
-1.95563

>  <RMSD>
5.661

$$$$

 OpenBabel11021811383D
libRbt.so/2013.1/901 2013/11/27
 11 10  0  0  0  0  0  0  0  0999 V2000
   -4.2678   -2.4356   -4.1890 N   0  3  0  0  0  0  0  0  0  0  0  0
   -4.4976   -3.4103   -3.0805 C   0  0  2  0  0  0  0  0  0  0  0  0
   -5.7624   -4.2365   -3.3695 C   0  0  0  0  0  0  0  0  0  0  0  0
   -6.4505   -4.6570   -2.4584 O   0  0  0  0  0  0  0  0  0  0  0  0
   -4.6629   -2.6466   -1.7598 C   0  0  0  0  0  0  0  0  0  0  0  0
   -4.1886   -3.5229   -0.5970 C   0  0  0  0  0  0  0  0  0  0  0  0
   -4.5444   -2.8502    0.7272 C   0  0  0  0  0  0  0  0  0  0  0  0
   -3.9041   -1.5074    0.7790 N   0  3  0  0  0  0  0  0  0  0  0  0
   -3.3528   -1.0867    1.8844 C   0  0  0  0  0  0  0  0  0  0  0  0
   -2.0674   -0.8476    1.9193 N   0  0  0  0  0  0  0  0  0  0  0  0
   -4.0871   -0.8988    2.9504 N   0  0  0  0  0  0  0  0  0  0  0  0
  2  1  1  6  0  0  0
  2  3  1  0  0  0  0
  2  5  1  0  0  0  0
  3  4  2  0  0  0  0
  5  6  1  0  0  0  0
  6  7  1  0  0  0  0
  7  8  1  0  0  0  0
  8  9  2  0  0  0  0
  9 10  1  0  0  0  0
  9 11  1  0  0  0  0
M  CHG  2   1   1   8   1
M  END
>  <CHROM.1>
82.34428602,-149.26872925,-151.08946442,-171.60550355,-58.45642138,-138.67744601
-4.33320697,-2.52239081,-0.66096439,-2.00526339,0.74058346,1.42728567

>  <Name>


>  <RI>
224

>  <Rbt.Current_Directory>
/home/itssahil/PROJECTS/Mol_Feturizer/New_Systems/rnas/1aju

>  <Rbt.Executable>
rbdock ($Id: //depot/dev/client3/rdock/2013.1/src/exe/rbdock.cxx#4 $)

>  <Rbt.Library>
libRbt.so (2013.1, Build901 2013/11/27)

>  <Rbt.Parameter_File>
/export/apps/rDock/src/rDock_2013.1_src/data/scripts/dock_solv.prm

>  <Rbt.Receptor>
prm/pocket_docking_5.prm

>  <SCORE>
-21.2973

>  <SCORE.INTER>
-21.6832

>  <SCORE.INTER.CONST>
1

>  <SCORE.INTER.POLAR>
-4.14197

>  <SCORE.INTER.ROT>
5

>  <SCORE.INTER.SOLV>
17.0935

>  <SCORE.INTER.VDW>
-13.2801

>  <SCORE.INTER.norm>
-1.9712

>  <SCORE.INTRA>
0.385906

>  <SCORE.INTRA.DIHEDRAL>
-1.86643

>  <SCORE.INTRA.DIHEDRAL.0>
9.90185

>  <SCORE.INTRA.POLAR>
0

>  <SCORE.INTRA.POLAR.0>
0

>  <SCORE.INTRA.REPUL>
0

>  <SCORE.INTRA.REPUL.0>
0

>  <SCORE.INTRA.SOLV>
0.440489

>  <SCORE.INTRA.SOLV.lig_0>
-53.6586

>  <SCORE.INTRA.VDW>
1.09888

>  <SCORE.INTRA.VDW.0>
-0.556525

>  <SCORE.INTRA.norm>
0.0350824

>  <SCORE.RESTR>
0

>  <SCORE.RESTR.CAVITY>
0

>  <SCORE.RESTR.norm>
0

>  <SCORE.SYSTEM>
0

>  <SCORE.SYSTEM.CONST>
0

>  <SCORE.SYSTEM.DIHEDRAL>
0

>  <SCORE.SYSTEM.SOLV>
0

>  <SCORE.SYSTEM.norm>
0

>  <SCORE.heavy>
11

>  <SCORE.norm>
-1.93612

>  <RMSD>
5.671

$$$$

 OpenBabel11021811383D
libRbt.so/2013.1/901 2013/11/27
 11 10  0  0  0  0  0  0  0  0999 V2000
   -8.7147   -5.6054   -1.7418 N   0  3  0  0  0  0  0  0  0  0  0  0
   -7.2860   -5.6930   -1.3141 C   0  0  2  0  0  0  0  0  0  0  0  0
   -7.1102   -6.8590   -0.3265 C   0  0  0  0  0  0  0  0  0  0  0  0
   -8.0610   -7.5442    0.0003 O   0  0  0  0  0  0  0  0  0  0  0  0
   -6.8754   -4.3747   -0.6446 C   0  0  0  0  0  0  0  0  0  0  0  0
   -5.3705   -4.3891   -0.3621 C   0  0  0  0  0  0  0  0  0  0  0  0
   -4.6033   -4.3991   -1.6827 C   0  0  0  0  0  0  0  0  0  0  0  0
   -4.9546   -3.1788   -2.4594 N   0  3  0  0  0  0  0  0  0  0  0  0
   -4.0597   -2.6023   -3.2140 C   0  0  0  0  0  0  0  0  0  0  0  0
   -4.2435   -2.5394   -4.5075 N   0  0  0  0  0  0  0  0  0  0  0  0
   -2.9868   -2.0835   -2.6751 N   0  0  0  0  0  0  0  0  0  0  0  0
  2  1  1  1  0  0  0
  2  3  1  0  0  0  0
  2  5  1  0  0  0  0
  3  4  2  0  0  0  0
  5  6  1  0  0  0  0
  6  7  1  0  0  0  0
  7  8  1  0  0  0  0
  8  9  2  0  0  0  0
  9 10  1  0  0  0  0
  9 11  1  0  0  0  0
M  CHG  2   1   1   8   1
M  END
>  <CHROM.1>
60.30889168,-0.40668595,-172.94489858,66.04101558,60.00025248,145.97996376
-5.87568057,-4.47126173,-1.74878716,2.38355752,0.47379732,2.10734730

>  <Name>


>  <RI>
0

>  <Rbt.Current_Directory>
/home/itssahil/PROJECTS/Mol_Feturizer/New_Systems/rnas/1aju

>  <Rbt.Executable>
rbdock ($Id: //depot/dev/client3/rdock/2013.1/src/exe/rbdock.cxx#4 $)

>  <Rbt.Library>
libRbt.so (2013.1, Build901 2013/11/27)

>  <Rbt.Parameter_File>
/export/apps/rDock/src/rDock_2013.1_src/data/scripts/dock_solv.prm

>  <Rbt.Receptor>
prm/pocket_docking_6.prm

>  <SCORE>
-21.5544

>  <SCORE.INTER>
-20.3347

>  <SCORE.INTER.CONST>
1

>  <SCORE.INTER.POLAR>
-3.91949

>  <SCORE.INTER.ROT>
5

>  <SCORE.INTER.SOLV>
17.5343

>  <SCORE.INTER.VDW>
-13.2696

>  <SCORE.INTER.norm>
-1.84861

>  <SCORE.INTRA>
-1.21966

>  <SCORE.INTRA.DIHEDRAL>
-6.57551

>  <SCORE.INTRA.DIHEDRAL.0>
9.90185

>  <SCORE.INTRA.POLAR>
0

>  <SCORE.INTRA.POLAR.0>
0

>  <SCORE.INTRA.REPUL>
0

>  <SCORE.INTRA.REPUL.0>
0

>  <SCORE.INTRA.SOLV>
1.73997

>  <SCORE.INTRA.SOLV.lig_0>
-53.6586

>  <SCORE.INTRA.VDW>
1.19811

>  <SCORE.INTRA.VDW.0>
-0.556525

>  <SCORE.INTRA.norm>
-0.110878

>  <SCORE.RESTR>
0

>  <SCORE.RESTR.CAVITY>
0

>  <SCORE.RESTR.norm>
0

>  <SCORE.SYSTEM>
0

>  <SCORE.SYSTEM.CONST>
0

>  <SCORE.SYSTEM.DIHEDRAL>
0

>  <SCORE.SYSTEM.SOLV>
0

>  <SCORE.SYSTEM.norm>
0

>  <SCORE.heavy>
11

>  <SCORE.norm>
-1.95949

>  <RMSD>
5.677

$$$$

 OpenBabel11021811383D
libRbt.so/2013.1/901 2013/11/27
 11 10  0  0  0  0  0  0  0  0999 V2000
   -6.9369   -5.7377   -3.1823 N   0  3  0  0  0  0  0  0  0  0  0  0
   -6.3434   -5.6756   -1.8128 C   0  0  2  0  0  0  0  0  0  0  0  0
   -7.3748   -6.1555   -0.7776 C   0  0  0  0  0  0  0  0  0  0  0  0
   -7.8692   -5.3747    0.0137 O   0  0  0  0  0  0  0  0  0  0  0  0
   -5.9278   -4.2308   -1.5053 C   0  0  0  0  0  0  0  0  0  0  0  0
   -4.5868   -3.9275   -2.1795 C   0  0  0  0  0  0  0  0  0  0  0  0
   -4.2343   -2.4555   -1.9757 C   0  0  0  0  0  0  0  0  0  0  0  0
   -2.7931   -2.2519   -2.2879 N   0  3  0  0  0  0  0  0  0  0  0  0
   -1.9049   -2.2845   -1.3325 C   0  0  0  0  0  0  0  0  0  0  0  0
   -0.9800   -3.2092   -1.3365 N   0  0  0  0  0  0  0  0  0  0  0  0
   -1.9376   -1.3896   -0.3792 N   0  0  0  0  0  0  0  0  0  0  0  0
  2  1  1  6  0  0  0
  2  3  1  0  0  0  0
  2  5  1  0  0  0  0
  3  4  2  0  0  0  0
  5  6  1  0  0  0  0
  6  7  1  0  0  0  0
  7  8  1  0  0  0  0
  8  9  2  0  0  0  0
  9 10  1  0  0  0  0
  9 11  1  0  0  0  0
M  CHG  2   1   1   8   1
M  END
>  <CHROM.1>
65.21636999,-110.93202259,-79.74290295,175.06551026,164.42304077,-94.66425174
-4.62192451,-3.87882756,-1.53615874,-2.96960814,0.54832821,1.28933537

>  <Name>


>  <RI>
224

>  <Rbt.Current_Directory>
/home/itssahil/PROJECTS/Mol_Feturizer/New_Systems/rnas/1aju

>  <Rbt.Executable>
rbdock ($Id: //depot/dev/client3/rdock/2013.1/src/exe/rbdock.cxx#4 $)

>  <Rbt.Library>
libRbt.so (2013.1, Build901 2013/11/27)

>  <Rbt.Parameter_File>
/export/apps/rDock/src/rDock_2013.1_src/data/scripts/dock_solv.prm

>  <Rbt.Receptor>
prm/pocket_docking_5.prm

>  <SCORE>
-24.3362

>  <SCORE.INTER>
-23.0014

>  <SCORE.INTER.CONST>
1

>  <SCORE.INTER.POLAR>
-3.93202

>  <SCORE.INTER.ROT>
5

>  <SCORE.INTER.SOLV>
13.804

>  <SCORE.INTER.VDW>
-13.7622

>  <SCORE.INTER.norm>
-2.09103

>  <SCORE.INTRA>
-1.33483

>  <SCORE.INTRA.DIHEDRAL>
-4.46021

>  <SCORE.INTRA.DIHEDRAL.0>
9.90185

>  <SCORE.INTRA.POLAR>
0

>  <SCORE.INTRA.POLAR.0>
0

>  <SCORE.INTRA.REPUL>
0

>  <SCORE.INTRA.REPUL.0>
0

>  <SCORE.INTRA.SOLV>
1.14272

>  <SCORE.INTRA.SOLV.lig_0>
-53.6586

>  <SCORE.INTRA.VDW>
0.323913

>  <SCORE.INTRA.VDW.0>
-0.556525

>  <SCORE.INTRA.norm>
-0.121348

>  <SCORE.RESTR>
0

>  <SCORE.RESTR.CAVITY>
0

>  <SCORE.RESTR.norm>
0

>  <SCORE.SYSTEM>
0

>  <SCORE.SYSTEM.CONST>
0

>  <SCORE.SYSTEM.DIHEDRAL>
0

>  <SCORE.SYSTEM.SOLV>
0

>  <SCORE.SYSTEM.norm>
0

>  <SCORE.heavy>
11

>  <SCORE.norm>
-2.21238

>  <RMSD>
5.682

$$$$

 OpenBabel11021811383D
libRbt.so/2013.1/901 2013/11/27
 11 10  0  0  0  0  0  0  0  0999 V2000
   -6.4201   -8.5884    0.5131 N   0  3  0  0  0  0  0  0  0  0  0  0
   -6.7188   -7.2114    0.0166 C   0  0  2  0  0  0  0  0  0  0  0  0
   -7.9341   -7.2513   -0.9254 C   0  0  0  0  0  0  0  0  0  0  0  0
   -8.8507   -6.4630   -0.7895 O   0  0  0  0  0  0  0  0  0  0  0  0
   -5.4953   -6.6656   -0.7317 C   0  0  0  0  0  0  0  0  0  0  0  0
   -5.7261   -5.1946   -1.0892 C   0  0  0  0  0  0  0  0  0  0  0  0
   -4.5587   -4.6850   -1.9319 C   0  0  0  0  0  0  0  0  0  0  0  0
   -4.9354   -3.3841   -2.5498 N   0  3  0  0  0  0  0  0  0  0  0  0
   -4.0637   -2.7176   -3.2560 C   0  0  0  0  0  0  0  0  0  0  0  0
   -4.2842   -2.5045   -4.5275 N   0  0  0  0  0  0  0  0  0  0  0  0
   -2.9775   -2.2591   -2.6899 N   0  0  0  0  0  0  0  0  0  0  0  0
  2  1  1  6  0  0  0
  2  3  1  0  0  0  0
  2  5  1  0  0  0  0
  3  4  2  0  0  0  0
  5  6  1  0  0  0  0
  6  7  1  0  0  0  0
  7  8  1  0  0  0  0
  8  9  2  0  0  0  0
  9 10  1  0  0  0  0
  9 11  1  0  0  0  0
M  CHG  2   1   1   8   1
M  END
>  <CHROM.1>
-58.45321745,131.70093467,-172.88467131,-175.42106540,166.26203362,176.09044798
-5.63207610,-5.17979211,-1.63197159,-2.10520613,-0.18411294,-0.68233946

>  <Name>


>  <RI>
0

>  <Rbt.Current_Directory>
/home/itssahil/PROJECTS/Mol_Feturizer/New_Systems/rnas/1aju

>  <Rbt.Executable>
rbdock ($Id: //depot/dev/client3/rdock/2013.1/src/exe/rbdock.cxx#4 $)

>  <Rbt.Library>
libRbt.so (2013.1, Build901 2013/11/27)

>  <Rbt.Parameter_File>
/export/apps/rDock/src/rDock_2013.1_src/data/scripts/dock_solv.prm

>  <Rbt.Receptor>
prm/pocket_docking_6.prm

>  <SCORE>
-15.5384

>  <SCORE.INTER>
-12.9004

>  <SCORE.INTER.CONST>
1

>  <SCORE.INTER.POLAR>
-2.92476

>  <SCORE.INTER.ROT>
5

>  <SCORE.INTER.SOLV>
12.7216

>  <SCORE.INTER.VDW>
-10.0249

>  <SCORE.INTER.norm>
-1.17276

>  <SCORE.INTRA>
-2.63812

>  <SCORE.INTRA.DIHEDRAL>
-5.73065

>  <SCORE.INTRA.DIHEDRAL.0>
9.90185

>  <SCORE.INTRA.POLAR>
0

>  <SCORE.INTRA.POLAR.0>
0

>  <SCORE.INTRA.REPUL>
0

>  <SCORE.INTRA.REPUL.0>
0

>  <SCORE.INTRA.SOLV>
-0.163719

>  <SCORE.INTRA.SOLV.lig_0>
-53.6586

>  <SCORE.INTRA.VDW>
0.309067

>  <SCORE.INTRA.VDW.0>
-0.556525

>  <SCORE.INTRA.norm>
-0.239829

>  <SCORE.RESTR>
9.89892e-05

>  <SCORE.RESTR.CAVITY>
9.89892e-05

>  <SCORE.RESTR.norm>
8.99902e-06

>  <SCORE.SYSTEM>
0

>  <SCORE.SYSTEM.CONST>
0

>  <SCORE.SYSTEM.DIHEDRAL>
0

>  <SCORE.SYSTEM.SOLV>
0

>  <SCORE.SYSTEM.norm>
0

>  <SCORE.heavy>
11

>  <SCORE.norm>
-1.41258

>  <RMSD>
5.686

$$$$

 OpenBabel11021811383D
libRbt.so/2013.1/901 2013/11/27
 11 10  0  0  0  0  0  0  0  0999 V2000
   -9.5045   -5.3651    0.5933 N   0  3  0  0  0  0  0  0  0  0  0  0
   -8.0390   -5.5034    0.3385 C   0  0  2  0  0  0  0  0  0  0  0  0
   -7.2635   -5.3185    1.6539 C   0  0  0  0  0  0  0  0  0  0  0  0
   -6.5303   -4.3607    1.8125 O   0  0  0  0  0  0  0  0  0  0  0  0
   -7.5993   -4.4438   -0.6807 C   0  0  0  0  0  0  0  0  0  0  0  0
   -6.1702   -4.7393   -1.1446 C   0  0  0  0  0  0  0  0  0  0  0  0
   -5.9032   -4.0200   -2.4652 C   0  0  0  0  0  0  0  0  0  0  0  0
   -4.4373   -4.0034   -2.7232 N   0  3  0  0  0  0  0  0  0  0  0  0
   -3.8727   -2.9403   -3.2271 C   0  0  0  0  0  0  0  0  0  0  0  0
   -2.9760   -2.2896   -2.5320 N   0  0  0  0  0  0  0  0  0  0  0  0
   -4.1993   -2.5334   -4.4265 N   0  0  0  0  0  0  0  0  0  0  0  0
  2  1  1  1  0  0  0
  2  3  1  0  0  0  0
  2  5  1  0  0  0  0
  3  4  2  0  0  0  0
  5  6  1  0  0  0  0
  6  7  1  0  0  0  0
  7  8  1  0  0  0  0
  8  9  2  0  0  0  0
  9 10  1  0  0  0  0
  9 11  1  0  0  0  0
M  CHG  2   1   1   8   1
M  END
>  <CHROM.1>
178.24835252,-113.58193763,-169.48373450,160.59629964,164.95466312,-140.31810625
-6.05206969,-4.11822206,-1.16260196,2.36437309,0.39353540,1.69776641

>  <Name>


>  <RI>
0

>  <Rbt.Current_Directory>
/home/itssahil/PROJECTS/Mol_Feturizer/New_Systems/rnas/1aju

>  <Rbt.Executable>
rbdock ($Id: //depot/dev/client3/rdock/2013.1/src/exe/rbdock.cxx#4 $)

>  <Rbt.Library>
libRbt.so (2013.1, Build901 2013/11/27)

>  <Rbt.Parameter_File>
/export/apps/rDock/src/rDock_2013.1_src/data/scripts/dock_solv.prm

>  <Rbt.Receptor>
prm/pocket_docking_6.prm

>  <SCORE>
-18.3345

>  <SCORE.INTER>
-17.4053

>  <SCORE.INTER.CONST>
1

>  <SCORE.INTER.POLAR>
-2.97077

>  <SCORE.INTER.ROT>
5

>  <SCORE.INTER.SOLV>
15.0597

>  <SCORE.INTER.VDW>
-13.6542

>  <SCORE.INTER.norm>
-1.5823

>  <SCORE.INTRA>
-0.929173

>  <SCORE.INTRA.DIHEDRAL>
-4.26813

>  <SCORE.INTRA.DIHEDRAL.0>
9.90185

>  <SCORE.INTRA.POLAR>
0

>  <SCORE.INTRA.POLAR.0>
0

>  <SCORE.INTRA.REPUL>
0

>  <SCORE.INTRA.REPUL.0>
0

>  <SCORE.INTRA.SOLV>
0.132769

>  <SCORE.INTRA.SOLV.lig_0>
-53.6586

>  <SCORE.INTRA.VDW>
1.13851

>  <SCORE.INTRA.VDW.0>
-0.556525

>  <SCORE.INTRA.norm>
-0.0844702

>  <SCORE.RESTR>
0

>  <SCORE.RESTR.CAVITY>
0

>  <SCORE.RESTR.norm>
0

>  <SCORE.SYSTEM>
0

>  <SCORE.SYSTEM.CONST>
0

>  <SCORE.SYSTEM.DIHEDRAL>
0

>  <SCORE.SYSTEM.SOLV>
0

>  <SCORE.SYSTEM.norm>
0

>  <SCORE.heavy>
11

>  <SCORE.norm>
-1.66677

>  <RMSD>
5.686

$$$$

 OpenBabel11021811383D
libRbt.so/2013.1/901 2013/11/27
 11 10  0  0  0  0  0  0  0  0999 V2000
   -4.2525   -2.5122   -4.1196 N   0  3  0  0  0  0  0  0  0  0  0  0
   -4.4601   -3.5258   -3.0420 C   0  0  2  0  0  0  0  0  0  0  0  0
   -5.8594   -4.1494   -3.1783 C   0  0  0  0  0  0  0  0  0  0  0  0
   -5.9914   -5.3473   -3.3457 O   0  0  0  0  0  0  0  0  0  0  0  0
   -4.3221   -2.8461   -1.6731 C   0  0  0  0  0  0  0  0  0  0  0  0
   -4.1509   -3.9109   -0.5860 C   0  0  0  0  0  0  0  0  0  0  0  0
   -3.7772   -3.2380    0.7332 C   0  0  0  0  0  0  0  0  0  0  0  0
   -4.9972   -3.1075    1.5762 N   0  3  0  0  0  0  0  0  0  0  0  0
   -5.3158   -4.0522    2.4181 C   0  0  0  0  0  0  0  0  0  0  0  0
   -5.3416   -3.7978    3.7008 N   0  0  0  0  0  0  0  0  0  0  0  0
   -5.6150   -5.2467    1.9772 N   0  0  0  0  0  0  0  0  0  0  0  0
  2  1  1  6  0  0  0
  2  3  1  0  0  0  0
  2  5  1  0  0  0  0
  3  4  2  0  0  0  0
  5  6  1  0  0  0  0
  6  7  1  0  0  0  0
  7  8  1  0  0  0  0
  8  9  2  0  0  0  0
  9 10  1  0  0  0  0
  9 11  1  0  0  0  0
M  CHG  2   1   1   8   1
M  END
>  <CHROM.1>
70.42460567,120.56236625,-164.66993343,170.42321851,99.05168533,90.99953466
-4.92807706,-3.79417117,-0.51532634,-1.49676893,0.93577530,1.57351306

>  <Name>


>  <RI>
0

>  <Rbt.Current_Directory>
/home/itssahil/PROJECTS/Mol_Feturizer/New_Systems/rnas/1aju

>  <Rbt.Executable>
rbdock ($Id: //depot/dev/client3/rdock/2013.1/src/exe/rbdock.cxx#4 $)

>  <Rbt.Library>
libRbt.so (2013.1, Build901 2013/11/27)

>  <Rbt.Parameter_File>
/export/apps/rDock/src/rDock_2013.1_src/data/scripts/dock_solv.prm

>  <Rbt.Receptor>
prm/pocket_docking_6.prm

>  <SCORE>
-15.2504

>  <SCORE.INTER>
-14.5881

>  <SCORE.INTER.CONST>
1

>  <SCORE.INTER.POLAR>
-2.95085

>  <SCORE.INTER.ROT>
5

>  <SCORE.INTER.SOLV>
15.4824

>  <SCORE.INTER.VDW>
-11.9834

>  <SCORE.INTER.norm>
-1.32619

>  <SCORE.INTRA>
-0.662303

>  <SCORE.INTRA.DIHEDRAL>
-1.55672

>  <SCORE.INTRA.DIHEDRAL.0>
9.90185

>  <SCORE.INTRA.POLAR>
0

>  <SCORE.INTRA.POLAR.0>
0

>  <SCORE.INTRA.REPUL>
0

>  <SCORE.INTRA.REPUL.0>
0

>  <SCORE.INTRA.SOLV>
0.582355

>  <SCORE.INTRA.SOLV.lig_0>
-53.6586

>  <SCORE.INTRA.VDW>
-0.17512

>  <SCORE.INTRA.VDW.0>
-0.556525

>  <SCORE.INTRA.norm>
-0.0602094

>  <SCORE.RESTR>
0

>  <SCORE.RESTR.CAVITY>
0

>  <SCORE.RESTR.norm>
0

>  <SCORE.SYSTEM>
0

>  <SCORE.SYSTEM.CONST>
0

>  <SCORE.SYSTEM.DIHEDRAL>
0

>  <SCORE.SYSTEM.SOLV>
0

>  <SCORE.SYSTEM.norm>
0

>  <SCORE.heavy>
11

>  <SCORE.norm>
-1.3864

>  <RMSD>
5.696

$$$$

 OpenBabel11021811383D
libRbt.so/2013.1/901 2013/11/27
 11 10  0  0  0  0  0  0  0  0999 V2000
   -2.7529   -1.9130    0.0680 N   0  3  0  0  0  0  0  0  0  0  0  0
   -2.7606   -1.9209    1.5618 C   0  0  2  0  0  0  0  0  0  0  0  0
   -2.7331   -3.3711    2.0736 C   0  0  0  0  0  0  0  0  0  0  0  0
   -1.8397   -3.7541    2.8054 O   0  0  0  0  0  0  0  0  0  0  0  0
   -4.0252   -1.2128    2.0661 C   0  0  0  0  0  0  0  0  0  0  0  0
   -3.8277   -0.7848    3.5231 C   0  0  0  0  0  0  0  0  0  0  0  0
   -4.8688    0.2704    3.8907 C   0  0  0  0  0  0  0  0  0  0  0  0
   -4.8506    1.3504    2.8664 N   0  3  0  0  0  0  0  0  0  0  0  0
   -3.7945    2.1042    2.7280 C   0  0  0  0  0  0  0  0  0  0  0  0
   -3.1271    2.0874    1.6033 N   0  0  0  0  0  0  0  0  0  0  0  0
   -3.4112    2.8785    3.7100 N   0  0  0  0  0  0  0  0  0  0  0  0
  2  1  1  6  0  0  0
  2  3  1  0  0  0  0
  2  5  1  0  0  0  0
  3  4  2  0  0  0  0
  5  6  1  0  0  0  0
  6  7  1  0  0  0  0
  7  8  1  0  0  0  0
  8  9  2  0  0  0  0
  9 10  1  0  0  0  0
  9 11  1  0  0  0  0
M  CHG  2   1   1   8   1
M  END
>  <CHROM.1>
170.43826960,121.84086497,-160.55226659,162.66717131,-51.06776147,-65.22589886
-3.42925132,-0.37396944,2.40626279,-0.84115199,1.17465177,-0.44919893

>  <Name>


>  <RI>
0

>  <Rbt.Current_Directory>
/home/itssahil/PROJECTS/Mol_Feturizer/New_Systems/rnas/1aju

>  <Rbt.Executable>
rbdock ($Id: //depot/dev/client3/rdock/2013.1/src/exe/rbdock.cxx#4 $)

>  <Rbt.Library>
libRbt.so (2013.1, Build901 2013/11/27)

>  <Rbt.Parameter_File>
/export/apps/rDock/src/rDock_2013.1_src/data/scripts/dock_solv.prm

>  <Rbt.Receptor>
prm/pocket_docking_8.prm

>  <SCORE>
-19.7463

>  <SCORE.INTER>
-18.6852

>  <SCORE.INTER.CONST>
1

>  <SCORE.INTER.POLAR>
-3.81166

>  <SCORE.INTER.ROT>
5

>  <SCORE.INTER.SOLV>
10.8901

>  <SCORE.INTER.VDW>
-10.3146

>  <SCORE.INTER.norm>
-1.69866

>  <SCORE.INTRA>
-1.06108

>  <SCORE.INTRA.DIHEDRAL>
-4.01584

>  <SCORE.INTRA.DIHEDRAL.0>
9.90185

>  <SCORE.INTRA.POLAR>
0

>  <SCORE.INTRA.POLAR.0>
0

>  <SCORE.INTRA.REPUL>
0

>  <SCORE.INTRA.REPUL.0>
0

>  <SCORE.INTRA.SOLV>
1.99797

>  <SCORE.INTRA.SOLV.lig_0>
-53.6586

>  <SCORE.INTRA.VDW>
-0.0521467

>  <SCORE.INTRA.VDW.0>
-0.556525

>  <SCORE.INTRA.norm>
-0.0964619

>  <SCORE.RESTR>
0

>  <SCORE.RESTR.CAVITY>
0

>  <SCORE.RESTR.norm>
0

>  <SCORE.SYSTEM>
0

>  <SCORE.SYSTEM.CONST>
0

>  <SCORE.SYSTEM.DIHEDRAL>
0

>  <SCORE.SYSTEM.SOLV>
0

>  <SCORE.SYSTEM.norm>
0

>  <SCORE.heavy>
11

>  <SCORE.norm>
-1.79512

>  <RMSD>
5.707

$$$$

 OpenBabel11021811383D
libRbt.so/2013.1/901 2013/11/27
 11 10  0  0  0  0  0  0  0  0999 V2000
   -4.3384   -2.2173   -4.5669 N   0  3  0  0  0  0  0  0  0  0  0  0
   -3.9515   -2.9969   -3.3528 C   0  0  2  0  0  0  0  0  0  0  0  0
   -5.2150   -3.5010   -2.6349 C   0  0  0  0  0  0  0  0  0  0  0  0
   -5.3575   -4.6834   -2.3863 O   0  0  0  0  0  0  0  0  0  0  0  0
   -3.1387   -2.0986   -2.4109 C   0  0  0  0  0  0  0  0  0  0  0  0
   -2.1822   -2.9582   -1.5797 C   0  0  0  0  0  0  0  0  0  0  0  0
   -1.4208   -2.0705   -0.5975 C   0  0  0  0  0  0  0  0  0  0  0  0
   -0.2766   -2.8376   -0.0335 N   0  3  0  0  0  0  0  0  0  0  0  0
   -0.1156   -2.9188    1.2588 C   0  0  0  0  0  0  0  0  0  0  0  0
   -0.1863   -4.0831    1.8505 N   0  0  0  0  0  0  0  0  0  0  0  0
    0.1227   -1.8386    1.9567 N   0  0  0  0  0  0  0  0  0  0  0  0
  2  1  1  6  0  0  0
  2  3  1  0  0  0  0
  2  5  1  0  0  0  0
  3  4  2  0  0  0  0
  5  6  1  0  0  0  0
  6  7  1  0  0  0  0
  7  8  1  0  0  0  0
  8  9  2  0  0  0  0
  9 10  1  0  0  0  0
  9 11  1  0  0  0  0
M  CHG  2   1   1   8   1
M  END
>  <CHROM.1>
-177.00243381,125.55406057,-152.00452154,-177.38581292,-166.43198990,-127.54508360
-2.36904794,-2.93213848,-1.14292842,-2.61858140,0.65192428,2.31428645

>  <Name>


>  <RI>
0

>  <Rbt.Current_Directory>
/home/itssahil/PROJECTS/Mol_Feturizer/New_Systems/rnas/1aju

>  <Rbt.Executable>
rbdock ($Id: //depot/dev/client3/rdock/2013.1/src/exe/rbdock.cxx#4 $)

>  <Rbt.Library>
libRbt.so (2013.1, Build901 2013/11/27)

>  <Rbt.Parameter_File>
/export/apps/rDock/src/rDock_2013.1_src/data/scripts/dock_solv.prm

>  <Rbt.Receptor>
prm/pocket_docking_3.prm

>  <SCORE>
-22.6715

>  <SCORE.INTER>
-20.2956

>  <SCORE.INTER.CONST>
1

>  <SCORE.INTER.POLAR>
-3.87535

>  <SCORE.INTER.ROT>
5

>  <SCORE.INTER.SOLV>
17.9143

>  <SCORE.INTER.VDW>
-13.5173

>  <SCORE.INTER.norm>
-1.84506

>  <SCORE.INTRA>
-2.37584

>  <SCORE.INTRA.DIHEDRAL>
-3.89231

>  <SCORE.INTRA.DIHEDRAL.0>
9.90185

>  <SCORE.INTRA.POLAR>
0

>  <SCORE.INTRA.POLAR.0>
0

>  <SCORE.INTRA.REPUL>
0

>  <SCORE.INTRA.REPUL.0>
0

>  <SCORE.INTRA.SOLV>
-0.0579987

>  <SCORE.INTRA.SOLV.lig_0>
-53.6586

>  <SCORE.INTRA.VDW>
-0.400688

>  <SCORE.INTRA.VDW.0>
-0.556525

>  <SCORE.INTRA.norm>
-0.215986

>  <SCORE.RESTR>
0

>  <SCORE.RESTR.CAVITY>
0

>  <SCORE.RESTR.norm>
0

>  <SCORE.SYSTEM>
0

>  <SCORE.SYSTEM.CONST>
0

>  <SCORE.SYSTEM.DIHEDRAL>
0

>  <SCORE.SYSTEM.SOLV>
0

>  <SCORE.SYSTEM.norm>
0

>  <SCORE.heavy>
11

>  <SCORE.norm>
-2.06104

>  <RMSD>
5.728

$$$$

 OpenBabel11021811383D
libRbt.so/2013.1/901 2013/11/27
 11 10  0  0  0  0  0  0  0  0999 V2000
   -9.4315   -4.4746   -0.6731 N   0  3  0  0  0  0  0  0  0  0  0  0
   -8.1457   -5.2250   -0.5490 C   0  0  2  0  0  0  0  0  0  0  0  0
   -8.1476   -6.0471    0.7510 C   0  0  0  0  0  0  0  0  0  0  0  0
   -7.2901   -5.8733    1.5963 O   0  0  0  0  0  0  0  0  0  0  0  0
   -6.9772   -4.2305   -0.5366 C   0  0  0  0  0  0  0  0  0  0  0  0
   -5.7250   -4.9022   -1.1071 C   0  0  0  0  0  0  0  0  0  0  0  0
   -4.5618   -3.9126   -1.0893 C   0  0  0  0  0  0  0  0  0  0  0  0
   -4.9086   -2.7379   -1.9353 N   0  3  0  0  0  0  0  0  0  0  0  0
   -4.0847   -2.3321   -2.8622 C   0  0  0  0  0  0  0  0  0  0  0  0
   -4.4501   -2.3685   -4.1175 N   0  0  0  0  0  0  0  0  0  0  0  0
   -2.9007   -1.8840   -2.5334 N   0  0  0  0  0  0  0  0  0  0  0  0
  2  1  1  1  0  0  0
  2  3  1  0  0  0  0
  2  5  1  0  0  0  0
  3  4  2  0  0  0  0
  5  6  1  0  0  0  0
  6  7  1  0  0  0  0
  7  8  1  0  0  0  0
  8  9  2  0  0  0  0
  9 10  1  0  0  0  0
  9 11  1  0  0  0  0
M  CHG  2   1   1   8   1
M  END
>  <CHROM.1>
177.24118687,-121.27810903,-151.64168168,-179.79729952,-60.80791561,-128.59989123
-6.07434193,-3.96859001,-1.20018949,2.35311907,0.16389498,2.16346065

>  <Name>


>  <RI>
0

>  <Rbt.Current_Directory>
/home/itssahil/PROJECTS/Mol_Feturizer/New_Systems/rnas/1aju

>  <Rbt.Executable>
rbdock ($Id: //depot/dev/client3/rdock/2013.1/src/exe/rbdock.cxx#4 $)

>  <Rbt.Library>
libRbt.so (2013.1, Build901 2013/11/27)

>  <Rbt.Parameter_File>
/export/apps/rDock/src/rDock_2013.1_src/data/scripts/dock_solv.prm

>  <Rbt.Receptor>
prm/pocket_docking_7.prm

>  <SCORE>
-24.1098

>  <SCORE.INTER>
-23.0045

>  <SCORE.INTER.CONST>
1

>  <SCORE.INTER.POLAR>
-3.9504

>  <SCORE.INTER.ROT>
5

>  <SCORE.INTER.SOLV>
21.2132

>  <SCORE.INTER.VDW>
-16.1728

>  <SCORE.INTER.norm>
-2.09132

>  <SCORE.INTRA>
-1.10531

>  <SCORE.INTRA.DIHEDRAL>
-4.60292

>  <SCORE.INTRA.DIHEDRAL.0>
9.90185

>  <SCORE.INTRA.POLAR>
0

>  <SCORE.INTRA.POLAR.0>
0

>  <SCORE.INTRA.REPUL>
0

>  <SCORE.INTRA.REPUL.0>
0

>  <SCORE.INTRA.SOLV>
0.585682

>  <SCORE.INTRA.SOLV.lig_0>
-53.6586

>  <SCORE.INTRA.VDW>
0.903305

>  <SCORE.INTRA.VDW.0>
-0.556525

>  <SCORE.INTRA.norm>
-0.100483

>  <SCORE.RESTR>
0

>  <SCORE.RESTR.CAVITY>
0

>  <SCORE.RESTR.norm>
0

>  <SCORE.SYSTEM>
0

>  <SCORE.SYSTEM.CONST>
0

>  <SCORE.SYSTEM.DIHEDRAL>
0

>  <SCORE.SYSTEM.SOLV>
0

>  <SCORE.SYSTEM.norm>
0

>  <SCORE.heavy>
11

>  <SCORE.norm>
-2.1918

>  <RMSD>
5.736

$$$$

 OpenBabel11021811383D
libRbt.so/2013.1/901 2013/11/27
 11 10  0  0  0  0  0  0  0  0999 V2000
   -4.3505   -2.1936   -4.5820 N   0  3  0  0  0  0  0  0  0  0  0  0
   -3.9892   -3.0020   -3.3788 C   0  0  2  0  0  0  0  0  0  0  0  0
   -5.2682   -3.5039   -2.6873 C   0  0  0  0  0  0  0  0  0  0  0  0
   -5.5040   -4.6949   -2.6076 O   0  0  0  0  0  0  0  0  0  0  0  0
   -3.1775   -2.1329   -2.4089 C   0  0  0  0  0  0  0  0  0  0  0  0
   -2.1783   -3.0088   -1.6478 C   0  0  0  0  0  0  0  0  0  0  0  0
   -1.4660   -2.1690   -0.5896 C   0  0  0  0  0  0  0  0  0  0  0  0
   -0.3284   -2.9505   -0.0319 N   0  3  0  0  0  0  0  0  0  0  0  0
   -0.2245   -3.1275    1.2567 C   0  0  0  0  0  0  0  0  0  0  0  0
   -0.2907   -4.3354    1.7540 N   0  0  0  0  0  0  0  0  0  0  0  0
   -0.0474   -2.0992    2.0453 N   0  0  0  0  0  0  0  0  0  0  0  0
  2  1  1  6  0  0  0
  2  3  1  0  0  0  0
  2  5  1  0  0  0  0
  3  4  2  0  0  0  0
  5  6  1  0  0  0  0
  6  7  1  0  0  0  0
  7  8  1  0  0  0  0
  8  9  2  0  0  0  0
  9 10  1  0  0  0  0
  9 11  1  0  0  0  0
M  CHG  2   1   1   8   1
M  END
>  <CHROM.1>
-175.51160707,116.67214078,-148.33973695,-174.59764634,-169.53634529,-126.18749306
-2.43973854,-3.02493064,-1.17887305,-2.59856617,0.65122812,2.33345776

>  <Name>


>  <RI>
0

>  <Rbt.Current_Directory>
/home/itssahil/PROJECTS/Mol_Feturizer/New_Systems/rnas/1aju

>  <Rbt.Executable>
rbdock ($Id: //depot/dev/client3/rdock/2013.1/src/exe/rbdock.cxx#4 $)

>  <Rbt.Library>
libRbt.so (2013.1, Build901 2013/11/27)

>  <Rbt.Parameter_File>
/export/apps/rDock/src/rDock_2013.1_src/data/scripts/dock_solv.prm

>  <Rbt.Receptor>
prm/pocket_docking_3.prm

>  <SCORE>
-22.6361

>  <SCORE.INTER>
-20.4412

>  <SCORE.INTER.CONST>
1

>  <SCORE.INTER.POLAR>
-3.91738

>  <SCORE.INTER.ROT>
5

>  <SCORE.INTER.SOLV>
17.9499

>  <SCORE.INTER.VDW>
-13.4861

>  <SCORE.INTER.norm>
-1.85829

>  <SCORE.INTRA>
-2.19494

>  <SCORE.INTRA.DIHEDRAL>
-3.58225

>  <SCORE.INTRA.DIHEDRAL.0>
9.90185

>  <SCORE.INTRA.POLAR>
0

>  <SCORE.INTRA.POLAR.0>
0

>  <SCORE.INTRA.REPUL>
0

>  <SCORE.INTRA.REPUL.0>
0

>  <SCORE.INTRA.SOLV>
0.0149794

>  <SCORE.INTRA.SOLV.lig_0>
-53.6586

>  <SCORE.INTRA.VDW>
-0.411308

>  <SCORE.INTRA.VDW.0>
-0.556525

>  <SCORE.INTRA.norm>
-0.19954

>  <SCORE.RESTR>
0

>  <SCORE.RESTR.CAVITY>
0

>  <SCORE.RESTR.norm>
0

>  <SCORE.SYSTEM>
0

>  <SCORE.SYSTEM.CONST>
0

>  <SCORE.SYSTEM.DIHEDRAL>
0

>  <SCORE.SYSTEM.SOLV>
0

>  <SCORE.SYSTEM.norm>
0

>  <SCORE.heavy>
11

>  <SCORE.norm>
-2.05783

>  <RMSD>
5.738

$$$$

 OpenBabel11021811383D
libRbt.so/2013.1/901 2013/11/27
 11 10  0  0  0  0  0  0  0  0999 V2000
   -9.2744   -5.1282    0.8196 N   0  3  0  0  0  0  0  0  0  0  0  0
   -8.3196   -5.1412   -0.3293 C   0  0  2  0  0  0  0  0  0  0  0  0
   -7.7961   -6.5701   -0.5532 C   0  0  0  0  0  0  0  0  0  0  0  0
   -7.9861   -7.1421   -1.6101 O   0  0  0  0  0  0  0  0  0  0  0  0
   -7.1484   -4.1972   -0.0261 C   0  0  0  0  0  0  0  0  0  0  0  0
   -6.1919   -4.1650   -1.2215 C   0  0  0  0  0  0  0  0  0  0  0  0
   -5.2054   -3.0111   -1.0549 C   0  0  0  0  0  0  0  0  0  0  0  0
   -4.0938   -3.1757   -2.0312 N   0  3  0  0  0  0  0  0  0  0  0  0
   -4.2411   -2.7774   -3.2650 C   0  0  0  0  0  0  0  0  0  0  0  0
   -3.4809   -1.8221   -3.7345 N   0  0  0  0  0  0  0  0  0  0  0  0
   -5.1418   -3.3384   -4.0296 N   0  0  0  0  0  0  0  0  0  0  0  0
  2  1  1  1  0  0  0
  2  3  1  0  0  0  0
  2  5  1  0  0  0  0
  3  4  2  0  0  0  0
  5  6  1  0  0  0  0
  6  7  1  0  0  0  0
  7  8  1  0  0  0  0
  8  9  2  0  0  0  0
  9 10  1  0  0  0  0
  9 11  1  0  0  0  0
M  CHG  2   1   1   8   1
M  END
>  <CHROM.1>
-64.45194076,119.61603417,-177.88910839,167.62048164,166.69616521,82.28503294
-6.27982004,-4.22814185,-1.55759092,-3.09573930,-0.80039305,-2.26860203

>  <Name>


>  <RI>
0

>  <Rbt.Current_Directory>
/home/itssahil/PROJECTS/Mol_Feturizer/New_Systems/rnas/1aju

>  <Rbt.Executable>
rbdock ($Id: //depot/dev/client3/rdock/2013.1/src/exe/rbdock.cxx#4 $)

>  <Rbt.Library>
libRbt.so (2013.1, Build901 2013/11/27)

>  <Rbt.Parameter_File>
/export/apps/rDock/src/rDock_2013.1_src/data/scripts/dock_solv.prm

>  <Rbt.Receptor>
prm/pocket_docking_7.prm

>  <SCORE>
-19.4214

>  <SCORE.INTER>
-17.5685

>  <SCORE.INTER.CONST>
1

>  <SCORE.INTER.POLAR>
-3.26683

>  <SCORE.INTER.ROT>
5

>  <SCORE.INTER.SOLV>
16.7456

>  <SCORE.INTER.VDW>
-13.3381

>  <SCORE.INTER.norm>
-1.59714

>  <SCORE.INTRA>
-1.86285

>  <SCORE.INTRA.DIHEDRAL>
-5.67204

>  <SCORE.INTRA.DIHEDRAL.0>
9.90185

>  <SCORE.INTRA.POLAR>
0

>  <SCORE.INTRA.POLAR.0>
0

>  <SCORE.INTRA.REPUL>
0

>  <SCORE.INTRA.REPUL.0>
0

>  <SCORE.INTRA.SOLV>
0.489079

>  <SCORE.INTRA.SOLV.lig_0>
-53.6586

>  <SCORE.INTRA.VDW>
0.728628

>  <SCORE.INTRA.VDW.0>
-0.556525

>  <SCORE.INTRA.norm>
-0.16935

>  <SCORE.RESTR>
0.00993769

>  <SCORE.RESTR.CAVITY>
0.00993769

>  <SCORE.RESTR.norm>
0.000903426

>  <SCORE.SYSTEM>
0

>  <SCORE.SYSTEM.CONST>
0

>  <SCORE.SYSTEM.DIHEDRAL>
0

>  <SCORE.SYSTEM.SOLV>
0

>  <SCORE.SYSTEM.norm>
0

>  <SCORE.heavy>
11

>  <SCORE.norm>
-1.76558

>  <RMSD>
5.757

$$$$

 OpenBabel11021811383D
libRbt.so/2013.1/901 2013/11/27
 11 10  0  0  0  0  0  0  0  0999 V2000
   -4.4815   -2.1332   -4.5620 N   0  3  0  0  0  0  0  0  0  0  0  0
   -4.6952   -2.5749   -3.1510 C   0  0  2  0  0  0  0  0  0  0  0  0
   -3.3510   -2.5941   -2.4037 C   0  0  0  0  0  0  0  0  0  0  0  0
   -3.1995   -1.9501   -1.3825 O   0  0  0  0  0  0  0  0  0  0  0  0
   -5.3151   -3.9786   -3.1474 C   0  0  0  0  0  0  0  0  0  0  0  0
   -5.7483   -4.3451   -1.7251 C   0  0  0  0  0  0  0  0  0  0  0  0
   -6.5047   -5.6717   -1.7478 C   0  0  0  0  0  0  0  0  0  0  0  0
   -7.7797   -5.4929   -2.4950 N   0  3  0  0  0  0  0  0  0  0  0  0
   -8.9009   -5.9315   -1.9919 C   0  0  0  0  0  0  0  0  0  0  0  0
   -9.8547   -5.0867   -1.6961 N   0  0  0  0  0  0  0  0  0  0  0  0
   -9.0704   -7.2129   -1.7919 N   0  0  0  0  0  0  0  0  0  0  0  0
  2  1  1  6  0  0  0
  2  3  1  0  0  0  0
  2  5  1  0  0  0  0
  3  4  2  0  0  0  0
  5  6  1  0  0  0  0
  6  7  1  0  0  0  0
  7  8  1  0  0  0  0
  8  9  2  0  0  0  0
  9 10  1  0  0  0  0
  9 11  1  0  0  0  0
M  CHG  2   1   1   8   1
M  END
>  <CHROM.1>
-104.68585585,123.44454032,-170.78268595,173.69157398,-66.01121920,-132.06032615
-6.28111061,-4.25345611,-2.39522565,0.43553480,-0.50094849,-1.05306094

>  <Name>


>  <RI>
0

>  <Rbt.Current_Directory>
/home/itssahil/PROJECTS/Mol_Feturizer/New_Systems/rnas/1aju

>  <Rbt.Executable>
rbdock ($Id: //depot/dev/client3/rdock/2013.1/src/exe/rbdock.cxx#4 $)

>  <Rbt.Library>
libRbt.so (2013.1, Build901 2013/11/27)

>  <Rbt.Parameter_File>
/export/apps/rDock/src/rDock_2013.1_src/data/scripts/dock_solv.prm

>  <Rbt.Receptor>
prm/pocket_docking_7.prm

>  <SCORE>
-21.7427

>  <SCORE.INTER>
-21.26

>  <SCORE.INTER.CONST>
1

>  <SCORE.INTER.POLAR>
-3.41053

>  <SCORE.INTER.ROT>
5

>  <SCORE.INTER.SOLV>
21.0149

>  <SCORE.INTER.VDW>
-16.7432

>  <SCORE.INTER.norm>
-1.93272

>  <SCORE.INTRA>
-0.482677

>  <SCORE.INTRA.DIHEDRAL>
-3.31581

>  <SCORE.INTRA.DIHEDRAL.0>
9.90185

>  <SCORE.INTRA.POLAR>
0

>  <SCORE.INTRA.POLAR.0>
0

>  <SCORE.INTRA.REPUL>
0

>  <SCORE.INTRA.REPUL.0>
0

>  <SCORE.INTRA.SOLV>
0.354906

>  <SCORE.INTRA.SOLV.lig_0>
-53.6586

>  <SCORE.INTRA.VDW>
0.997775

>  <SCORE.INTRA.VDW.0>
-0.556525

>  <SCORE.INTRA.norm>
-0.0438797

>  <SCORE.RESTR>
0

>  <SCORE.RESTR.CAVITY>
0

>  <SCORE.RESTR.norm>
0

>  <SCORE.SYSTEM>
0

>  <SCORE.SYSTEM.CONST>
0

>  <SCORE.SYSTEM.DIHEDRAL>
0

>  <SCORE.SYSTEM.SOLV>
0

>  <SCORE.SYSTEM.norm>
0

>  <SCORE.heavy>
11

>  <SCORE.norm>
-1.9766

>  <RMSD>
5.784

$$$$

 OpenBabel11021811383D
libRbt.so/2013.1/901 2013/11/27
 11 10  0  0  0  0  0  0  0  0999 V2000
   -5.9592   -3.2325   -0.6363 N   0  3  0  0  0  0  0  0  0  0  0  0
   -4.6805   -2.4630   -0.5697 C   0  0  2  0  0  0  0  0  0  0  0  0
   -3.8562   -2.7143   -1.8437 C   0  0  0  0  0  0  0  0  0  0  0  0
   -4.3531   -3.2712   -2.8046 O   0  0  0  0  0  0  0  0  0  0  0  0
   -3.8843   -2.9083    0.6642 C   0  0  0  0  0  0  0  0  0  0  0  0
   -3.1200   -1.7133    1.2410 C   0  0  0  0  0  0  0  0  0  0  0  0
   -4.0700   -0.8521    2.0706 C   0  0  0  0  0  0  0  0  0  0  0  0
   -3.8466    0.5810    1.7354 N   0  3  0  0  0  0  0  0  0  0  0  0
   -3.6660    1.4558    2.6866 C   0  0  0  0  0  0  0  0  0  0  0  0
   -2.5298    2.0982    2.7713 N   0  0  0  0  0  0  0  0  0  0  0  0
   -4.6224    1.6926    3.5468 N   0  0  0  0  0  0  0  0  0  0  0  0
  2  1  1  6  0  0  0
  2  3  1  0  0  0  0
  2  5  1  0  0  0  0
  3  4  2  0  0  0  0
  5  6  1  0  0  0  0
  6  7  1  0  0  0  0
  7  8  1  0  0  0  0
  8  9  2  0  0  0  0
  9 10  1  0  0  0  0
  9 11  1  0  0  0  0
M  CHG  2   1   1   8   1
M  END
>  <CHROM.1>
-26.59591662,11.71257926,-145.77644242,79.50509681,-135.20183031,-129.84789331
-4.08652099,-1.02480662,0.79840427,1.76273760,-0.56842279,-2.27835578

>  <Name>


>  <RI>
0

>  <Rbt.Current_Directory>
/home/itssahil/PROJECTS/Mol_Feturizer/New_Systems/rnas/1aju

>  <Rbt.Executable>
rbdock ($Id: //depot/dev/client3/rdock/2013.1/src/exe/rbdock.cxx#4 $)

>  <Rbt.Library>
libRbt.so (2013.1, Build901 2013/11/27)

>  <Rbt.Parameter_File>
/export/apps/rDock/src/rDock_2013.1_src/data/scripts/dock_solv.prm

>  <Rbt.Receptor>
prm/pocket_docking_7.prm

>  <SCORE>
-13.9168

>  <SCORE.INTER>
-17.5108

>  <SCORE.INTER.CONST>
1

>  <SCORE.INTER.POLAR>
-3.02406

>  <SCORE.INTER.ROT>
5

>  <SCORE.INTER.SOLV>
12.8209

>  <SCORE.INTER.VDW>
-12.8006

>  <SCORE.INTER.norm>
-1.59189

>  <SCORE.INTRA>
3.40649

>  <SCORE.INTRA.DIHEDRAL>
4.68483

>  <SCORE.INTRA.DIHEDRAL.0>
9.90185

>  <SCORE.INTRA.POLAR>
0

>  <SCORE.INTRA.POLAR.0>
0

>  <SCORE.INTRA.REPUL>
0

>  <SCORE.INTRA.REPUL.0>
0

>  <SCORE.INTRA.SOLV>
1.48741

>  <SCORE.INTRA.SOLV.lig_0>
-53.6586

>  <SCORE.INTRA.VDW>
0.320369

>  <SCORE.INTRA.VDW.0>
-0.556525

>  <SCORE.INTRA.norm>
0.309681

>  <SCORE.RESTR>
0.187424

>  <SCORE.RESTR.CAVITY>
0.187424

>  <SCORE.RESTR.norm>
0.0170385

>  <SCORE.SYSTEM>
0

>  <SCORE.SYSTEM.CONST>
0

>  <SCORE.SYSTEM.DIHEDRAL>
0

>  <SCORE.SYSTEM.SOLV>
0

>  <SCORE.SYSTEM.norm>
0

>  <SCORE.heavy>
11

>  <SCORE.norm>
-1.26517

>  <RMSD>
5.786

$$$$

 OpenBabel11021811383D
libRbt.so/2013.1/901 2013/11/27
 11 10  0  0  0  0  0  0  0  0999 V2000
   -7.7806   -6.0579   -3.2656 N   0  3  0  0  0  0  0  0  0  0  0  0
   -6.7108   -6.5273   -2.3345 C   0  0  2  0  0  0  0  0  0  0  0  0
   -6.7312   -8.0630   -2.2521 C   0  0  0  0  0  0  0  0  0  0  0  0
   -5.7818   -8.7179   -2.6394 O   0  0  0  0  0  0  0  0  0  0  0  0
   -6.9499   -5.9261   -0.9430 C   0  0  0  0  0  0  0  0  0  0  0  0
   -6.6695   -4.4211   -0.9787 C   0  0  0  0  0  0  0  0  0  0  0  0
   -5.1767   -4.1851   -1.1990 C   0  0  0  0  0  0  0  0  0  0  0  0
   -4.9669   -2.7827   -1.6520 N   0  3  0  0  0  0  0  0  0  0  0  0
   -3.8385   -2.4359   -2.2082 C   0  0  0  0  0  0  0  0  0  0  0  0
   -3.8260   -2.0213   -3.4486 N   0  0  0  0  0  0  0  0  0  0  0  0
   -2.7263   -2.4967   -1.5226 N   0  0  0  0  0  0  0  0  0  0  0  0
  2  1  1  6  0  0  0
  2  3  1  0  0  0  0
  2  5  1  0  0  0  0
  3  4  2  0  0  0  0
  5  6  1  0  0  0  0
  6  7  1  0  0  0  0
  7  8  1  0  0  0  0
  8  9  2  0  0  0  0
  9 10  1  0  0  0  0
  9 11  1  0  0  0  0
M  CHG  2   1   1   8   1
M  END
>  <CHROM.1>
-60.69942259,116.19271943,-70.07722368,-67.85728876,162.50565518,-163.46144243
-5.55453582,-4.85955353,-2.08013994,2.14091076,-0.28021106,-2.92164971

>  <Name>


>  <RI>
0

>  <Rbt.Current_Directory>
/home/itssahil/PROJECTS/Mol_Feturizer/New_Systems/rnas/1aju

>  <Rbt.Executable>
rbdock ($Id: //depot/dev/client3/rdock/2013.1/src/exe/rbdock.cxx#4 $)

>  <Rbt.Library>
libRbt.so (2013.1, Build901 2013/11/27)

>  <Rbt.Parameter_File>
/export/apps/rDock/src/rDock_2013.1_src/data/scripts/dock_solv.prm

>  <Rbt.Receptor>
prm/pocket_docking_6.prm

>  <SCORE>
-14.8298

>  <SCORE.INTER>
-13.171

>  <SCORE.INTER.CONST>
1

>  <SCORE.INTER.POLAR>
-2.20671

>  <SCORE.INTER.ROT>
5

>  <SCORE.INTER.SOLV>
15.677

>  <SCORE.INTER.VDW>
-13.584

>  <SCORE.INTER.norm>
-1.19736

>  <SCORE.INTRA>
-1.65879

>  <SCORE.INTRA.DIHEDRAL>
-5.28428

>  <SCORE.INTRA.DIHEDRAL.0>
9.90185

>  <SCORE.INTRA.POLAR>
0

>  <SCORE.INTRA.POLAR.0>
0

>  <SCORE.INTRA.REPUL>
0

>  <SCORE.INTRA.REPUL.0>
0

>  <SCORE.INTRA.SOLV>
1.29006

>  <SCORE.INTRA.SOLV.lig_0>
-53.6586

>  <SCORE.INTRA.VDW>
0.338322

>  <SCORE.INTRA.VDW.0>
-0.556525

>  <SCORE.INTRA.norm>
-0.150799

>  <SCORE.RESTR>
0

>  <SCORE.RESTR.CAVITY>
0

>  <SCORE.RESTR.norm>
0

>  <SCORE.SYSTEM>
0

>  <SCORE.SYSTEM.CONST>
0

>  <SCORE.SYSTEM.DIHEDRAL>
0

>  <SCORE.SYSTEM.SOLV>
0

>  <SCORE.SYSTEM.norm>
0

>  <SCORE.heavy>
11

>  <SCORE.norm>
-1.34816

>  <RMSD>
5.829

$$$$

 OpenBabel11021811383D
libRbt.so/2013.1/901 2013/11/27
 11 10  0  0  0  0  0  0  0  0999 V2000
   -3.8060   -2.2133   -4.0900 N   0  3  0  0  0  0  0  0  0  0  0  0
   -4.0322   -3.3496   -3.1471 C   0  0  2  0  0  0  0  0  0  0  0  0
   -5.5038   -3.7925   -3.2110 C   0  0  0  0  0  0  0  0  0  0  0  0
   -5.7931   -4.9590   -3.4004 O   0  0  0  0  0  0  0  0  0  0  0  0
   -3.6826   -2.9027   -1.7213 C   0  0  0  0  0  0  0  0  0  0  0  0
   -2.1609   -2.8496   -1.5583 C   0  0  0  0  0  0  0  0  0  0  0  0
   -1.8142   -2.5012   -0.1123 C   0  0  0  0  0  0  0  0  0  0  0  0
   -0.3428   -2.6215    0.0785 N   0  3  0  0  0  0  0  0  0  0  0  0
    0.2406   -2.0127    1.0743 C   0  0  0  0  0  0  0  0  0  0  0  0
    0.8420   -2.7127    2.0012 N   0  0  0  0  0  0  0  0  0  0  0  0
    0.2285   -0.7064    1.1389 N   0  0  0  0  0  0  0  0  0  0  0  0
  2  1  1  6  0  0  0
  2  3  1  0  0  0  0
  2  5  1  0  0  0  0
  3  4  2  0  0  0  0
  5  6  1  0  0  0  0
  6  7  1  0  0  0  0
  7  8  1  0  0  0  0
  8  9  2  0  0  0  0
  9 10  1  0  0  0  0
  9 11  1  0  0  0  0
M  CHG  2   1   1   8   1
M  END
>  <CHROM.1>
169.64327518,127.68012138,-75.64085231,-176.01141766,172.86545037,159.64110950
-2.32815291,-2.76741942,-1.18928741,-2.90973378,0.73025291,2.44459728

>  <Name>


>  <RI>
0

>  <Rbt.Current_Directory>
/home/itssahil/PROJECTS/Mol_Feturizer/New_Systems/rnas/1aju

>  <Rbt.Executable>
rbdock ($Id: //depot/dev/client3/rdock/2013.1/src/exe/rbdock.cxx#4 $)

>  <Rbt.Library>
libRbt.so (2013.1, Build901 2013/11/27)

>  <Rbt.Parameter_File>
/export/apps/rDock/src/rDock_2013.1_src/data/scripts/dock_solv.prm

>  <Rbt.Receptor>
prm/pocket_docking_4.prm

>  <SCORE>
-20.248

>  <SCORE.INTER>
-17.8768

>  <SCORE.INTER.CONST>
1

>  <SCORE.INTER.POLAR>
-3.12363

>  <SCORE.INTER.ROT>
5

>  <SCORE.INTER.SOLV>
18.7133

>  <SCORE.INTER.VDW>
-14.6769

>  <SCORE.INTER.norm>
-1.62517

>  <SCORE.INTRA>
-2.37113

>  <SCORE.INTRA.DIHEDRAL>
-5.47103

>  <SCORE.INTRA.DIHEDRAL.0>
9.90185

>  <SCORE.INTRA.POLAR>
0

>  <SCORE.INTRA.POLAR.0>
0

>  <SCORE.INTRA.REPUL>
0

>  <SCORE.INTRA.REPUL.0>
0

>  <SCORE.INTRA.SOLV>
0.875769

>  <SCORE.INTRA.SOLV.lig_0>
-53.6586

>  <SCORE.INTRA.VDW>
-0.073503

>  <SCORE.INTRA.VDW.0>
-0.556525

>  <SCORE.INTRA.norm>
-0.215557

>  <SCORE.RESTR>
0

>  <SCORE.RESTR.CAVITY>
0

>  <SCORE.RESTR.norm>
0

>  <SCORE.SYSTEM>
0

>  <SCORE.SYSTEM.CONST>
0

>  <SCORE.SYSTEM.DIHEDRAL>
0

>  <SCORE.SYSTEM.SOLV>
0

>  <SCORE.SYSTEM.norm>
0

>  <SCORE.heavy>
11

>  <SCORE.norm>
-1.84072

>  <RMSD>
5.839

$$$$

 OpenBabel11021811383D
libRbt.so/2013.1/901 2013/11/27
 11 10  0  0  0  0  0  0  0  0999 V2000
   -9.4188   -4.9655    0.6510 N   0  3  0  0  0  0  0  0  0  0  0  0
   -8.4513   -4.9479   -0.4871 C   0  0  2  0  0  0  0  0  0  0  0  0
   -8.0551   -6.3881   -0.8541 C   0  0  0  0  0  0  0  0  0  0  0  0
   -8.2045   -6.8030   -1.9881 O   0  0  0  0  0  0  0  0  0  0  0  0
   -7.2047   -4.1506   -0.0807 C   0  0  0  0  0  0  0  0  0  0  0  0
   -6.1839   -4.1765   -1.2217 C   0  0  0  0  0  0  0  0  0  0  0  0
   -5.1944   -3.0262   -1.0477 C   0  0  0  0  0  0  0  0  0  0  0  0
   -4.0835   -3.1870   -2.0254 N   0  3  0  0  0  0  0  0  0  0  0  0
   -4.2358   -2.7944   -3.2605 C   0  0  0  0  0  0  0  0  0  0  0  0
   -3.4831   -1.8358   -3.7350 N   0  0  0  0  0  0  0  0  0  0  0  0
   -5.1342   -3.3644   -4.0212 N   0  0  0  0  0  0  0  0  0  0  0  0
  2  1  1  1  0  0  0
  2  3  1  0  0  0  0
  2  5  1  0  0  0  0
  3  4  2  0  0  0  0
  5  6  1  0  0  0  0
  6  7  1  0  0  0  0
  7  8  1  0  0  0  0
  8  9  2  0  0  0  0
  9 10  1  0  0  0  0
  9 11  1  0  0  0  0
M  CHG  2   1   1   8   1
M  END
>  <CHROM.1>
177.34333001,124.12876621,177.69430470,160.25881407,170.90748565,81.47543366
-6.35014319,-4.15116188,-1.65308212,-3.00820991,-0.73150318,-2.13589187

>  <Name>


>  <RI>
0

>  <Rbt.Current_Directory>
/home/itssahil/PROJECTS/Mol_Feturizer/New_Systems/rnas/1aju

>  <Rbt.Executable>
rbdock ($Id: //depot/dev/client3/rdock/2013.1/src/exe/rbdock.cxx#4 $)

>  <Rbt.Library>
libRbt.so (2013.1, Build901 2013/11/27)

>  <Rbt.Parameter_File>
/export/apps/rDock/src/rDock_2013.1_src/data/scripts/dock_solv.prm

>  <Rbt.Receptor>
prm/pocket_docking_8.prm

>  <SCORE>
-19.5306

>  <SCORE.INTER>
-18.1991

>  <SCORE.INTER.CONST>
1

>  <SCORE.INTER.POLAR>
-3.2666

>  <SCORE.INTER.ROT>
5

>  <SCORE.INTER.SOLV>
17.1692

>  <SCORE.INTER.VDW>
-13.9005

>  <SCORE.INTER.norm>
-1.65446

>  <SCORE.INTRA>
-1.33253

>  <SCORE.INTRA.DIHEDRAL>
-5.12842

>  <SCORE.INTRA.DIHEDRAL.0>
9.90185

>  <SCORE.INTRA.POLAR>
0

>  <SCORE.INTRA.POLAR.0>
0

>  <SCORE.INTRA.REPUL>
0

>  <SCORE.INTRA.REPUL.0>
0

>  <SCORE.INTRA.SOLV>
0.483506

>  <SCORE.INTRA.SOLV.lig_0>
-53.6586

>  <SCORE.INTRA.VDW>
0.989923

>  <SCORE.INTRA.VDW.0>
-0.556525

>  <SCORE.INTRA.norm>
-0.121139

>  <SCORE.RESTR>
0.00101737

>  <SCORE.RESTR.CAVITY>
0.00101737

>  <SCORE.RESTR.norm>
9.24878e-05

>  <SCORE.SYSTEM>
0

>  <SCORE.SYSTEM.CONST>
0

>  <SCORE.SYSTEM.DIHEDRAL>
0

>  <SCORE.SYSTEM.SOLV>
0

>  <SCORE.SYSTEM.norm>
0

>  <SCORE.heavy>
11

>  <SCORE.norm>
-1.77551

>  <RMSD>
5.867

$$$$

 OpenBabel11021811383D
libRbt.so/2013.1/901 2013/11/27
 11 10  0  0  0  0  0  0  0  0999 V2000
   -3.8015   -2.1520   -4.0097 N   0  3  0  0  0  0  0  0  0  0  0  0
   -3.7807   -3.4162   -3.2141 C   0  0  2  0  0  0  0  0  0  0  0  0
   -5.1963   -3.7305   -2.7014 C   0  0  0  0  0  0  0  0  0  0  0  0
   -5.7572   -4.7619   -3.0208 O   0  0  0  0  0  0  0  0  0  0  0  0
   -2.8198   -3.2536   -2.0287 C   0  0  0  0  0  0  0  0  0  0  0  0
   -2.3049   -4.6283   -1.5927 C   0  0  0  0  0  0  0  0  0  0  0  0
   -1.1281   -4.4524   -0.6352 C   0  0  0  0  0  0  0  0  0  0  0  0
   -0.5622   -5.7898   -0.3080 N   0  3  0  0  0  0  0  0  0  0  0  0
   -0.3281   -6.1161    0.9335 C   0  0  0  0  0  0  0  0  0  0  0  0
   -0.9760   -7.1145    1.4761 N   0  0  0  0  0  0  0  0  0  0  0  0
    0.5573   -5.4499    1.6285 N   0  0  0  0  0  0  0  0  0  0  0  0
  2  1  1  1  0  0  0
  2  3  1  0  0  0  0
  2  5  1  0  0  0  0
  3  4  2  0  0  0  0
  5  6  1  0  0  0  0
  6  7  1  0  0  0  0
  7  8  1  0  0  0  0
  8  9  2  0  0  0  0
  9 10  1  0  0  0  0
  9 11  1  0  0  0  0
M  CHG  2   1   1   8   1
M  END
>  <CHROM.1>
28.53524133,119.52274397,-154.89820903,167.49882515,-175.26043568,-131.51027175
-2.37274617,-4.62252289,-1.23171268,-2.34099189,0.40549543,2.49277951

>  <Name>


>  <RI>
0

>  <Rbt.Current_Directory>
/home/itssahil/PROJECTS/Mol_Feturizer/New_Systems/rnas/1aju

>  <Rbt.Executable>
rbdock ($Id: //depot/dev/client3/rdock/2013.1/src/exe/rbdock.cxx#4 $)

>  <Rbt.Library>
libRbt.so (2013.1, Build901 2013/11/27)

>  <Rbt.Parameter_File>
/export/apps/rDock/src/rDock_2013.1_src/data/scripts/dock_solv.prm

>  <Rbt.Receptor>
prm/pocket_docking_4.prm

>  <SCORE>
-11.0107

>  <SCORE.INTER>
-9.96675

>  <SCORE.INTER.CONST>
1

>  <SCORE.INTER.POLAR>
-1.86116

>  <SCORE.INTER.ROT>
5

>  <SCORE.INTER.SOLV>
18.8538

>  <SCORE.INTER.VDW>
-13.6585

>  <SCORE.INTER.norm>
-0.906068

>  <SCORE.INTRA>
-1.044

>  <SCORE.INTRA.DIHEDRAL>
-2.41309

>  <SCORE.INTRA.DIHEDRAL.0>
9.90185

>  <SCORE.INTRA.POLAR>
0

>  <SCORE.INTRA.POLAR.0>
0

>  <SCORE.INTRA.REPUL>
0

>  <SCORE.INTRA.REPUL.0>
0

>  <SCORE.INTRA.SOLV>
-0.0441716

>  <SCORE.INTRA.SOLV.lig_0>
-53.6586

>  <SCORE.INTRA.VDW>
0.184635

>  <SCORE.INTRA.VDW.0>
-0.556525

>  <SCORE.INTRA.norm>
-0.0949088

>  <SCORE.RESTR>
0

>  <SCORE.RESTR.CAVITY>
0

>  <SCORE.RESTR.norm>
0

>  <SCORE.SYSTEM>
0

>  <SCORE.SYSTEM.CONST>
0

>  <SCORE.SYSTEM.DIHEDRAL>
0

>  <SCORE.SYSTEM.SOLV>
0

>  <SCORE.SYSTEM.norm>
0

>  <SCORE.heavy>
11

>  <SCORE.norm>
-1.00098

>  <RMSD>
5.891

$$$$

 OpenBabel11021811383D
libRbt.so/2013.1/901 2013/11/27
 11 10  0  0  0  0  0  0  0  0999 V2000
   -6.3296   -7.2510   -5.1582 N   0  3  0  0  0  0  0  0  0  0  0  0
   -5.7578   -7.0152   -3.7984 C   0  0  2  0  0  0  0  0  0  0  0  0
   -5.7293   -8.3360   -3.0108 C   0  0  0  0  0  0  0  0  0  0  0  0
   -4.6922   -8.7464   -2.5247 O   0  0  0  0  0  0  0  0  0  0  0  0
   -6.6196   -5.9838   -3.0578 C   0  0  0  0  0  0  0  0  0  0  0  0
   -5.9567   -5.6223   -1.7256 C   0  0  0  0  0  0  0  0  0  0  0  0
   -4.6742   -4.8363   -1.9903 C   0  0  0  0  0  0  0  0  0  0  0  0
   -5.0262   -3.5093   -2.5657 N   0  3  0  0  0  0  0  0  0  0  0  0
   -4.1428   -2.8378   -3.2523 C   0  0  0  0  0  0  0  0  0  0  0  0
   -4.3612   -2.5800   -4.5159 N   0  0  0  0  0  0  0  0  0  0  0  0
   -3.0468   -2.4190   -2.6743 N   0  0  0  0  0  0  0  0  0  0  0  0
  2  1  1  6  0  0  0
  2  3  1  0  0  0  0
  2  5  1  0  0  0  0
  3  4  2  0  0  0  0
  5  6  1  0  0  0  0
  6  7  1  0  0  0  0
  7  8  1  0  0  0  0
  8  9  2  0  0  0  0
  9 10  1  0  0  0  0
  9 11  1  0  0  0  0
M  CHG  2   1   1   8   1
M  END
>  <CHROM.1>
-61.83060883,125.00454356,-173.85668167,68.78549414,67.72220840,-158.46806566
-5.11144929,-5.36802481,-3.15848108,2.38117076,1.10952749,2.42896448

>  <Name>


>  <RI>
0

>  <Rbt.Current_Directory>
/home/itssahil/PROJECTS/Mol_Feturizer/New_Systems/rnas/1aju

>  <Rbt.Executable>
rbdock ($Id: //depot/dev/client3/rdock/2013.1/src/exe/rbdock.cxx#4 $)

>  <Rbt.Library>
libRbt.so (2013.1, Build901 2013/11/27)

>  <Rbt.Parameter_File>
/export/apps/rDock/src/rDock_2013.1_src/data/scripts/dock_solv.prm

>  <Rbt.Receptor>
prm/pocket_docking_7.prm

>  <SCORE>
-19.2242

>  <SCORE.INTER>
-16.8755

>  <SCORE.INTER.CONST>
1

>  <SCORE.INTER.POLAR>
-2.98544

>  <SCORE.INTER.ROT>
5

>  <SCORE.INTER.SOLV>
16.5934

>  <SCORE.INTER.VDW>
-13.7634

>  <SCORE.INTER.norm>
-1.53414

>  <SCORE.INTRA>
-2.3487

>  <SCORE.INTRA.DIHEDRAL>
-6.26755

>  <SCORE.INTRA.DIHEDRAL.0>
9.90185

>  <SCORE.INTRA.POLAR>
0

>  <SCORE.INTRA.POLAR.0>
0

>  <SCORE.INTRA.REPUL>
0

>  <SCORE.INTRA.REPUL.0>
0

>  <SCORE.INTRA.SOLV>
0.501407

>  <SCORE.INTRA.SOLV.lig_0>
-53.6586

>  <SCORE.INTRA.VDW>
0.534372

>  <SCORE.INTRA.VDW.0>
-0.556525

>  <SCORE.INTRA.norm>
-0.213518

>  <SCORE.RESTR>
0

>  <SCORE.RESTR.CAVITY>
0

>  <SCORE.RESTR.norm>
0

>  <SCORE.SYSTEM>
0

>  <SCORE.SYSTEM.CONST>
0

>  <SCORE.SYSTEM.DIHEDRAL>
0

>  <SCORE.SYSTEM.SOLV>
0

>  <SCORE.SYSTEM.norm>
0

>  <SCORE.heavy>
11

>  <SCORE.norm>
-1.74766

>  <RMSD>
5.899

$$$$

 OpenBabel11021811383D
libRbt.so/2013.1/901 2013/11/27
 11 10  0  0  0  0  0  0  0  0999 V2000
    0.8918   -0.7526    0.9390 N   0  3  0  0  0  0  0  0  0  0  0  0
    1.0726    0.6878    1.2912 C   0  0  2  0  0  0  0  0  0  0  0  0
    2.5231    0.9346    1.7394 C   0  0  0  0  0  0  0  0  0  0  0  0
    2.7638    1.3745    2.8480 O   0  0  0  0  0  0  0  0  0  0  0  0
    0.1056    1.0582    2.4237 C   0  0  0  0  0  0  0  0  0  0  0  0
   -1.3222    1.1341    1.8755 C   0  0  0  0  0  0  0  0  0  0  0  0
   -2.2855    1.4857    3.0073 C   0  0  0  0  0  0  0  0  0  0  0  0
   -3.6318    1.7587    2.4341 N   0  3  0  0  0  0  0  0  0  0  0  0
   -4.5415    0.8232    2.4237 C   0  0  0  0  0  0  0  0  0  0  0  0
   -5.6483    0.9857    3.1015 N   0  0  0  0  0  0  0  0  0  0  0  0
   -4.3474   -0.2692    1.7312 N   0  0  0  0  0  0  0  0  0  0  0  0
  2  1  1  1  0  0  0
  2  3  1  0  0  0  0
  2  5  1  0  0  0  0
  3  4  2  0  0  0  0
  5  6  1  0  0  0  0
  6  7  1  0  0  0  0
  7  8  1  0  0  0  0
  8  9  2  0  0  0  0
  9 10  1  0  0  0  0
  9 11  1  0  0  0  0
M  CHG  2   1   1   8   1
M  END
>  <CHROM.1>
-172.42121973,-120.85115152,-72.97600735,179.29829061,171.54126977,97.34205736
-1.33056290,0.80411809,2.15928216,0.07660026,-0.06366601,-2.47070885

>  <Name>


>  <RI>
0

>  <Rbt.Current_Directory>
/home/itssahil/PROJECTS/Mol_Feturizer/New_Systems/rnas/1aju

>  <Rbt.Executable>
rbdock ($Id: //depot/dev/client3/rdock/2013.1/src/exe/rbdock.cxx#4 $)

>  <Rbt.Library>
libRbt.so (2013.1, Build901 2013/11/27)

>  <Rbt.Parameter_File>
/export/apps/rDock/src/rDock_2013.1_src/data/scripts/dock_solv.prm

>  <Rbt.Receptor>
prm/pocket_docking_7.prm

>  <SCORE>
-19.0481

>  <SCORE.INTER>
-17.2748

>  <SCORE.INTER.CONST>
1

>  <SCORE.INTER.POLAR>
-3.64056

>  <SCORE.INTER.ROT>
5

>  <SCORE.INTER.SOLV>
14.7104

>  <SCORE.INTER.VDW>
-11.2182

>  <SCORE.INTER.norm>
-1.57044

>  <SCORE.INTRA>
-1.77331

>  <SCORE.INTRA.DIHEDRAL>
-6.02354

>  <SCORE.INTRA.DIHEDRAL.0>
9.90185

>  <SCORE.INTRA.POLAR>
0

>  <SCORE.INTRA.POLAR.0>
0

>  <SCORE.INTRA.REPUL>
0

>  <SCORE.INTRA.REPUL.0>
0

>  <SCORE.INTRA.SOLV>
1.4206

>  <SCORE.INTRA.SOLV.lig_0>
-53.6586

>  <SCORE.INTRA.VDW>
0.528154

>  <SCORE.INTRA.VDW.0>
-0.556525

>  <SCORE.INTRA.norm>
-0.16121

>  <SCORE.RESTR>
0

>  <SCORE.RESTR.CAVITY>
0

>  <SCORE.RESTR.norm>
0

>  <SCORE.SYSTEM>
0

>  <SCORE.SYSTEM.CONST>
0

>  <SCORE.SYSTEM.DIHEDRAL>
0

>  <SCORE.SYSTEM.SOLV>
0

>  <SCORE.SYSTEM.norm>
0

>  <SCORE.heavy>
11

>  <SCORE.norm>
-1.73165

>  <RMSD>
5.906

$$$$

 OpenBabel11021811383D
libRbt.so/2013.1/901 2013/11/27
 11 10  0  0  0  0  0  0  0  0999 V2000
   -9.5790   -4.9368   -0.0993 N   0  3  0  0  0  0  0  0  0  0  0  0
   -8.3667   -4.7159   -0.9439 C   0  0  2  0  0  0  0  0  0  0  0  0
   -8.3171   -5.7666   -2.0660 C   0  0  0  0  0  0  0  0  0  0  0  0
   -7.2771   -6.3373   -2.3362 O   0  0  0  0  0  0  0  0  0  0  0  0
   -7.1115   -4.8270   -0.0681 C   0  0  0  0  0  0  0  0  0  0  0  0
   -6.1627   -3.6665   -0.3809 C   0  0  0  0  0  0  0  0  0  0  0  0
   -5.4568   -3.9283   -1.7097 C   0  0  0  0  0  0  0  0  0  0  0  0
   -4.7516   -2.6897   -2.1391 N   0  3  0  0  0  0  0  0  0  0  0  0
   -3.8975   -2.7303   -3.1248 C   0  0  0  0  0  0  0  0  0  0  0  0
   -4.1327   -2.0497   -4.2167 N   0  0  0  0  0  0  0  0  0  0  0  0
   -2.8072   -3.4445   -3.0155 N   0  0  0  0  0  0  0  0  0  0  0  0
  2  1  1  1  0  0  0
  2  3  1  0  0  0  0
  2  5  1  0  0  0  0
  3  4  2  0  0  0  0
  5  6  1  0  0  0  0
  6  7  1  0  0  0  0
  7  8  1  0  0  0  0
  8  9  2  0  0  0  0
  9 10  1  0  0  0  0
  9 11  1  0  0  0  0
M  CHG  2   1   1   8   1
M  END
>  <CHROM.1>
-60.92939646,-135.52389427,-134.17045818,-75.77348993,168.81642430,168.48887866
-6.17428770,-4.09877476,-1.83352677,-3.05504492,-0.62684006,-2.19883070

>  <Name>


>  <RI>
0

>  <Rbt.Current_Directory>
/home/itssahil/PROJECTS/Mol_Feturizer/New_Systems/rnas/1aju

>  <Rbt.Executable>
rbdock ($Id: //depot/dev/client3/rdock/2013.1/src/exe/rbdock.cxx#4 $)

>  <Rbt.Library>
libRbt.so (2013.1, Build901 2013/11/27)

>  <Rbt.Parameter_File>
/export/apps/rDock/src/rDock_2013.1_src/data/scripts/dock_solv.prm

>  <Rbt.Receptor>
prm/pocket_docking_7.prm

>  <SCORE>
-16.3635

>  <SCORE.INTER>
-17.0944

>  <SCORE.INTER.CONST>
1

>  <SCORE.INTER.POLAR>
-2.41962

>  <SCORE.INTER.ROT>
5

>  <SCORE.INTER.SOLV>
16.9319

>  <SCORE.INTER.VDW>
-15.9082

>  <SCORE.INTER.norm>
-1.55404

>  <SCORE.INTRA>
0.730915

>  <SCORE.INTRA.DIHEDRAL>
-0.595766

>  <SCORE.INTRA.DIHEDRAL.0>
9.90185

>  <SCORE.INTRA.POLAR>
0

>  <SCORE.INTRA.POLAR.0>
0

>  <SCORE.INTRA.REPUL>
0

>  <SCORE.INTRA.REPUL.0>
0

>  <SCORE.INTRA.SOLV>
0.318948

>  <SCORE.INTRA.SOLV.lig_0>
-53.6586

>  <SCORE.INTRA.VDW>
0.869325

>  <SCORE.INTRA.VDW.0>
-0.556525

>  <SCORE.INTRA.norm>
0.0664469

>  <SCORE.RESTR>
0

>  <SCORE.RESTR.CAVITY>
0

>  <SCORE.RESTR.norm>
0

>  <SCORE.SYSTEM>
0

>  <SCORE.SYSTEM.CONST>
0

>  <SCORE.SYSTEM.DIHEDRAL>
0

>  <SCORE.SYSTEM.SOLV>
0

>  <SCORE.SYSTEM.norm>
0

>  <SCORE.heavy>
11

>  <SCORE.norm>
-1.48759

>  <RMSD>
5.938

$$$$

 OpenBabel11021811383D
libRbt.so/2013.1/901 2013/11/27
 11 10  0  0  0  0  0  0  0  0999 V2000
   -4.2644   -3.1557   -1.8799 N   0  3  0  0  0  0  0  0  0  0  0  0
   -4.6017   -3.2091   -0.4255 C   0  0  2  0  0  0  0  0  0  0  0  0
   -6.1267   -3.1278   -0.2427 C   0  0  0  0  0  0  0  0  0  0  0  0
   -6.7308   -4.0134    0.3326 O   0  0  0  0  0  0  0  0  0  0  0  0
   -3.9257   -2.0350    0.2952 C   0  0  0  0  0  0  0  0  0  0  0  0
   -4.2165   -2.1178    1.7963 C   0  0  0  0  0  0  0  0  0  0  0  0
   -3.4195   -1.0417    2.5308 C   0  0  0  0  0  0  0  0  0  0  0  0
   -3.9244    0.2992    2.1270 N   0  3  0  0  0  0  0  0  0  0  0  0
   -4.5499    1.0511    2.9908 C   0  0  0  0  0  0  0  0  0  0  0  0
   -4.0385    2.2033    3.3396 N   0  0  0  0  0  0  0  0  0  0  0  0
   -5.6879    0.6544    3.4989 N   0  0  0  0  0  0  0  0  0  0  0  0
  2  1  1  6  0  0  0
  2  3  1  0  0  0  0
  2  5  1  0  0  0  0
  3  4  2  0  0  0  0
  5  6  1  0  0  0  0
  6  7  1  0  0  0  0
  7  8  1  0  0  0  0
  8  9  2  0  0  0  0
  9 10  1  0  0  0  0
  9 11  1  0  0  0  0
M  CHG  2   1   1   8   1
M  END
>  <CHROM.1>
58.09869604,121.76521071,-177.53810783,173.79636870,66.18236838,112.28364793
-4.69153531,-1.30733611,1.28309042,-1.72379593,0.47126107,0.76600869

>  <Name>


>  <RI>
0

>  <Rbt.Current_Directory>
/home/itssahil/PROJECTS/Mol_Feturizer/New_Systems/rnas/1aju

>  <Rbt.Executable>
rbdock ($Id: //depot/dev/client3/rdock/2013.1/src/exe/rbdock.cxx#4 $)

>  <Rbt.Library>
libRbt.so (2013.1, Build901 2013/11/27)

>  <Rbt.Parameter_File>
/export/apps/rDock/src/rDock_2013.1_src/data/scripts/dock_solv.prm

>  <Rbt.Receptor>
prm/pocket_docking_8.prm

>  <SCORE>
-24.4572

>  <SCORE.INTER>
-21.6079

>  <SCORE.INTER.CONST>
1

>  <SCORE.INTER.POLAR>
-3.78063

>  <SCORE.INTER.ROT>
5

>  <SCORE.INTER.SOLV>
14.2832

>  <SCORE.INTER.VDW>
-13.4976

>  <SCORE.INTER.norm>
-1.96436

>  <SCORE.INTRA>
-2.84928

>  <SCORE.INTRA.DIHEDRAL>
-6.63331

>  <SCORE.INTRA.DIHEDRAL.0>
9.90185

>  <SCORE.INTRA.POLAR>
0

>  <SCORE.INTRA.POLAR.0>
0

>  <SCORE.INTRA.REPUL>
0

>  <SCORE.INTRA.REPUL.0>
0

>  <SCORE.INTRA.SOLV>
0.593424

>  <SCORE.INTRA.SOLV.lig_0>
-53.6586

>  <SCORE.INTRA.VDW>
0.170668

>  <SCORE.INTRA.VDW.0>
-0.556525

>  <SCORE.INTRA.norm>
-0.259025

>  <SCORE.RESTR>
0

>  <SCORE.RESTR.CAVITY>
0

>  <SCORE.RESTR.norm>
0

>  <SCORE.SYSTEM>
0

>  <SCORE.SYSTEM.CONST>
0

>  <SCORE.SYSTEM.DIHEDRAL>
0

>  <SCORE.SYSTEM.SOLV>
0

>  <SCORE.SYSTEM.norm>
0

>  <SCORE.heavy>
11

>  <SCORE.norm>
-2.22338

>  <RMSD>
5.951

$$$$

 OpenBabel11021811383D
libRbt.so/2013.1/901 2013/11/27
 11 10  0  0  0  0  0  0  0  0999 V2000
   -5.4716   -9.7223   -2.6136 N   0  3  0  0  0  0  0  0  0  0  0  0
   -5.6326   -8.3812   -3.2517 C   0  0  2  0  0  0  0  0  0  0  0  0
   -4.9809   -8.3874   -4.6449 C   0  0  0  0  0  0  0  0  0  0  0  0
   -5.6111   -8.0412   -5.6264 O   0  0  0  0  0  0  0  0  0  0  0  0
   -4.9682   -7.3164   -2.3688 C   0  0  0  0  0  0  0  0  0  0  0  0
   -5.4709   -5.9276   -2.7727 C   0  0  0  0  0  0  0  0  0  0  0  0
   -4.6726   -4.8593   -2.0284 C   0  0  0  0  0  0  0  0  0  0  0  0
   -5.0223   -3.5200   -2.5759 N   0  3  0  0  0  0  0  0  0  0  0  0
   -4.1413   -2.8405   -3.2576 C   0  0  0  0  0  0  0  0  0  0  0  0
   -4.3692   -2.5580   -4.5142 N   0  0  0  0  0  0  0  0  0  0  0  0
   -3.0380   -2.4383   -2.6816 N   0  0  0  0  0  0  0  0  0  0  0  0
  2  1  1  1  0  0  0
  2  3  1  0  0  0  0
  2  5  1  0  0  0  0
  3  4  2  0  0  0  0
  5  6  1  0  0  0  0
  6  7  1  0  0  0  0
  7  8  1  0  0  0  0
  8  9  2  0  0  0  0
  9 10  1  0  0  0  0
  9 11  1  0  0  0  0
M  CHG  2   1   1   8   1
M  END
>  <CHROM.1>
-59.57300330,126.68210752,-163.25660475,-172.34573933,171.50567852,-111.40381669
-4.84999835,-5.82661349,-3.31382529,-2.93965025,-1.33648583,-1.28480968

>  <Name>


>  <RI>
0

>  <Rbt.Current_Directory>
/home/itssahil/PROJECTS/Mol_Feturizer/New_Systems/rnas/1aju

>  <Rbt.Executable>
rbdock ($Id: //depot/dev/client3/rdock/2013.1/src/exe/rbdock.cxx#4 $)

>  <Rbt.Library>
libRbt.so (2013.1, Build901 2013/11/27)

>  <Rbt.Parameter_File>
/export/apps/rDock/src/rDock_2013.1_src/data/scripts/dock_solv.prm

>  <Rbt.Receptor>
prm/pocket_docking_7.prm

>  <SCORE>
-18.8357

>  <SCORE.INTER>
-15.7932

>  <SCORE.INTER.CONST>
1

>  <SCORE.INTER.POLAR>
-2.96117

>  <SCORE.INTER.ROT>
5

>  <SCORE.INTER.SOLV>
12.4752

>  <SCORE.INTER.VDW>
-11.7499

>  <SCORE.INTER.norm>
-1.43574

>  <SCORE.INTRA>
-3.04249

>  <SCORE.INTRA.DIHEDRAL>
-5.40498

>  <SCORE.INTRA.DIHEDRAL.0>
9.90185

>  <SCORE.INTRA.POLAR>
0

>  <SCORE.INTRA.POLAR.0>
0

>  <SCORE.INTRA.REPUL>
0

>  <SCORE.INTRA.REPUL.0>
0

>  <SCORE.INTRA.SOLV>
-0.0577574

>  <SCORE.INTRA.SOLV.lig_0>
-53.6586

>  <SCORE.INTRA.VDW>
-0.311116

>  <SCORE.INTRA.VDW.0>
-0.556525

>  <SCORE.INTRA.norm>
-0.27659

>  <SCORE.RESTR>
0

>  <SCORE.RESTR.CAVITY>
0

>  <SCORE.RESTR.norm>
0

>  <SCORE.SYSTEM>
0

>  <SCORE.SYSTEM.CONST>
0

>  <SCORE.SYSTEM.DIHEDRAL>
0

>  <SCORE.SYSTEM.SOLV>
0

>  <SCORE.SYSTEM.norm>
0

>  <SCORE.heavy>
11

>  <SCORE.norm>
-1.71233

>  <RMSD>
6.042

$$$$

 OpenBabel11021811383D
libRbt.so/2013.1/901 2013/11/27
 11 10  0  0  0  0  0  0  0  0999 V2000
   -6.5025   -7.7080   -2.0958 N   0  3  0  0  0  0  0  0  0  0  0  0
   -6.9656   -6.4494   -2.7540 C   0  0  2  0  0  0  0  0  0  0  0  0
   -7.2978   -6.7271   -4.2299 C   0  0  0  0  0  0  0  0  0  0  0  0
   -8.4535   -6.8121   -4.6004 O   0  0  0  0  0  0  0  0  0  0  0  0
   -5.8594   -5.3902   -2.6577 C   0  0  0  0  0  0  0  0  0  0  0  0
   -5.6902   -4.9554   -1.1992 C   0  0  0  0  0  0  0  0  0  0  0  0
   -4.5636   -3.9289   -1.1001 C   0  0  0  0  0  0  0  0  0  0  0  0
   -4.9084   -2.7451   -1.9341 N   0  3  0  0  0  0  0  0  0  0  0  0
   -4.0854   -2.3334   -2.8591 C   0  0  0  0  0  0  0  0  0  0  0  0
   -4.4540   -2.3566   -4.1139 N   0  0  0  0  0  0  0  0  0  0  0  0
   -2.8990   -1.8926   -2.5291 N   0  0  0  0  0  0  0  0  0  0  0  0
  2  1  1  6  0  0  0
  2  3  1  0  0  0  0
  2  5  1  0  0  0  0
  3  4  2  0  0  0  0
  5  6  1  0  0  0  0
  6  7  1  0  0  0  0
  7  8  1  0  0  0  0
  8  9  2  0  0  0  0
  9 10  1  0  0  0  0
  9 11  1  0  0  0  0
M  CHG  2   1   1   8   1
M  END
>  <CHROM.1>
-55.90929645,104.12477595,-68.52572153,178.49525380,60.18589198,-124.84942906
-5.60606039,-4.67764534,-2.74420213,-2.80254969,-0.88667551,-0.97021362

>  <Name>


>  <RI>
224

>  <Rbt.Current_Directory>
/home/itssahil/PROJECTS/Mol_Feturizer/New_Systems/rnas/1aju

>  <Rbt.Executable>
rbdock ($Id: //depot/dev/client3/rdock/2013.1/src/exe/rbdock.cxx#4 $)

>  <Rbt.Library>
libRbt.so (2013.1, Build901 2013/11/27)

>  <Rbt.Parameter_File>
/export/apps/rDock/src/rDock_2013.1_src/data/scripts/dock_solv.prm

>  <Rbt.Receptor>
prm/pocket_docking_5.prm

>  <SCORE>
-19.737

>  <SCORE.INTER>
-17.1624

>  <SCORE.INTER.CONST>
1

>  <SCORE.INTER.POLAR>
-2.52522

>  <SCORE.INTER.ROT>
5

>  <SCORE.INTER.SOLV>
14.7119

>  <SCORE.INTER.VDW>
-14.8615

>  <SCORE.INTER.norm>
-1.56022

>  <SCORE.INTRA>
-2.57497

>  <SCORE.INTRA.DIHEDRAL>
-6.22792

>  <SCORE.INTRA.DIHEDRAL.0>
9.90185

>  <SCORE.INTRA.POLAR>
0

>  <SCORE.INTRA.POLAR.0>
0

>  <SCORE.INTRA.REPUL>
0

>  <SCORE.INTRA.REPUL.0>
0

>  <SCORE.INTRA.SOLV>
1.8722

>  <SCORE.INTRA.SOLV.lig_0>
-53.6586

>  <SCORE.INTRA.VDW>
-0.397105

>  <SCORE.INTRA.VDW.0>
-0.556525

>  <SCORE.INTRA.norm>
-0.234088

>  <SCORE.RESTR>
0.000410783

>  <SCORE.RESTR.CAVITY>
0.000410783

>  <SCORE.RESTR.norm>
3.73439e-05

>  <SCORE.SYSTEM>
0

>  <SCORE.SYSTEM.CONST>
0

>  <SCORE.SYSTEM.DIHEDRAL>
0

>  <SCORE.SYSTEM.SOLV>
0

>  <SCORE.SYSTEM.norm>
0

>  <SCORE.heavy>
11

>  <SCORE.norm>
-1.79427

>  <RMSD>
6.074

$$$$

 OpenBabel11021811383D
libRbt.so/2013.1/901 2013/11/27
 11 10  0  0  0  0  0  0  0  0999 V2000
   -7.0775   -8.6870   -2.3701 N   0  3  0  0  0  0  0  0  0  0  0  0
   -5.9587   -8.3382   -3.2965 C   0  0  2  0  0  0  0  0  0  0  0  0
   -5.1677   -9.6072   -3.6565 C   0  0  0  0  0  0  0  0  0  0  0  0
   -4.9310   -9.8824   -4.8177 O   0  0  0  0  0  0  0  0  0  0  0  0
   -5.0335   -7.3218   -2.6141 C   0  0  0  0  0  0  0  0  0  0  0  0
   -5.6348   -5.9186   -2.7339 C   0  0  0  0  0  0  0  0  0  0  0  0
   -4.6864   -4.9013   -2.1028 C   0  0  0  0  0  0  0  0  0  0  0  0
   -5.0239   -3.5421   -2.6076 N   0  3  0  0  0  0  0  0  0  0  0  0
   -4.1413   -2.8552   -3.2798 C   0  0  0  0  0  0  0  0  0  0  0  0
   -4.3795   -2.5336   -4.5251 N   0  0  0  0  0  0  0  0  0  0  0  0
   -3.0262   -2.4846   -2.7054 N   0  0  0  0  0  0  0  0  0  0  0  0
  2  1  1  1  0  0  0
  2  3  1  0  0  0  0
  2  5  1  0  0  0  0
  3  4  2  0  0  0  0
  5  6  1  0  0  0  0
  6  7  1  0  0  0  0
  7  8  1  0  0  0  0
  8  9  2  0  0  0  0
  9 10  1  0  0  0  0
  9 11  1  0  0  0  0
M  CHG  2   1   1   8   1
M  END
>  <CHROM.1>
-58.45727777,129.27918158,-80.78170762,-177.78484003,161.14614592,-118.78197716
-5.02130758,-6.00031889,-3.16172875,1.99114669,-0.88240340,-2.76384742

>  <Name>


>  <RI>
0

>  <Rbt.Current_Directory>
/home/itssahil/PROJECTS/Mol_Feturizer/New_Systems/rnas/1aju

>  <Rbt.Executable>
rbdock ($Id: //depot/dev/client3/rdock/2013.1/src/exe/rbdock.cxx#4 $)

>  <Rbt.Library>
libRbt.so (2013.1, Build901 2013/11/27)

>  <Rbt.Parameter_File>
/export/apps/rDock/src/rDock_2013.1_src/data/scripts/dock_solv.prm

>  <Rbt.Receptor>
prm/pocket_docking_7.prm

>  <SCORE>
-16.7546

>  <SCORE.INTER>
-14.5178

>  <SCORE.INTER.CONST>
1

>  <SCORE.INTER.POLAR>
-2.94347

>  <SCORE.INTER.ROT>
5

>  <SCORE.INTER.SOLV>
11.8705

>  <SCORE.INTER.VDW>
-10.7571

>  <SCORE.INTER.norm>
-1.3198

>  <SCORE.INTRA>
-2.23678

>  <SCORE.INTRA.DIHEDRAL>
-4.15074

>  <SCORE.INTRA.DIHEDRAL.0>
9.90185

>  <SCORE.INTRA.POLAR>
0

>  <SCORE.INTRA.POLAR.0>
0

>  <SCORE.INTRA.REPUL>
0

>  <SCORE.INTRA.REPUL.0>
0

>  <SCORE.INTRA.SOLV>
0.715363

>  <SCORE.INTRA.SOLV.lig_0>
-53.6586

>  <SCORE.INTRA.VDW>
-0.519088

>  <SCORE.INTRA.VDW.0>
-0.556525

>  <SCORE.INTRA.norm>
-0.203343

>  <SCORE.RESTR>
0

>  <SCORE.RESTR.CAVITY>
0

>  <SCORE.RESTR.norm>
0

>  <SCORE.SYSTEM>
0

>  <SCORE.SYSTEM.CONST>
0

>  <SCORE.SYSTEM.DIHEDRAL>
0

>  <SCORE.SYSTEM.SOLV>
0

>  <SCORE.SYSTEM.norm>
0

>  <SCORE.heavy>
11

>  <SCORE.norm>
-1.52315

>  <RMSD>
6.116

$$$$

 OpenBabel11021811383D
libRbt.so/2013.1/901 2013/11/27
 11 10  0  0  0  0  0  0  0  0999 V2000
   -8.0167   -5.8921   -3.4398 N   0  3  0  0  0  0  0  0  0  0  0  0
   -6.5904   -6.2637   -3.6838 C   0  0  2  0  0  0  0  0  0  0  0  0
   -6.5209   -7.4208   -4.6947 C   0  0  0  0  0  0  0  0  0  0  0  0
   -5.8851   -7.3068   -5.7257 O   0  0  0  0  0  0  0  0  0  0  0  0
   -5.9431   -6.6878   -2.3587 C   0  0  0  0  0  0  0  0  0  0  0  0
   -5.7693   -5.4627   -1.4566 C   0  0  0  0  0  0  0  0  0  0  0  0
   -4.5211   -4.6907   -1.8791 C   0  0  0  0  0  0  0  0  0  0  0  0
   -4.9331   -3.4153   -2.5268 N   0  3  0  0  0  0  0  0  0  0  0  0
   -4.0723   -2.7278   -3.2263 C   0  0  0  0  0  0  0  0  0  0  0  0
   -4.2737   -2.5440   -4.5055 N   0  0  0  0  0  0  0  0  0  0  0  0
   -3.0162   -2.2194   -2.6459 N   0  0  0  0  0  0  0  0  0  0  0  0
  2  1  1  1  0  0  0
  2  3  1  0  0  0  0
  2  5  1  0  0  0  0
  3  4  2  0  0  0  0
  5  6  1  0  0  0  0
  6  7  1  0  0  0  0
  7  8  1  0  0  0  0
  8  9  2  0  0  0  0
  9 10  1  0  0  0  0
  9 11  1  0  0  0  0
M  CHG  2   1   1   8   1
M  END
>  <CHROM.1>
82.38828233,123.07385848,-70.43933336,-80.54220854,108.89489240,-165.00665037
-5.43102890,-4.93622414,-3.31226254,2.77788379,-0.93736279,-1.74346804

>  <Name>


>  <RI>
0

>  <Rbt.Current_Directory>
/home/itssahil/PROJECTS/Mol_Feturizer/New_Systems/rnas/1aju

>  <Rbt.Executable>
rbdock ($Id: //depot/dev/client3/rdock/2013.1/src/exe/rbdock.cxx#4 $)

>  <Rbt.Library>
libRbt.so (2013.1, Build901 2013/11/27)

>  <Rbt.Parameter_File>
/export/apps/rDock/src/rDock_2013.1_src/data/scripts/dock_solv.prm

>  <Rbt.Receptor>
prm/pocket_docking_6.prm

>  <SCORE>
-21.0704

>  <SCORE.INTER>
-22.5269

>  <SCORE.INTER.CONST>
1

>  <SCORE.INTER.POLAR>
-3.93402

>  <SCORE.INTER.ROT>
5

>  <SCORE.INTER.SOLV>
19.7152

>  <SCORE.INTER.VDW>
-15.4096

>  <SCORE.INTER.norm>
-2.0479

>  <SCORE.INTRA>
1.45647

>  <SCORE.INTRA.DIHEDRAL>
1.17962

>  <SCORE.INTRA.DIHEDRAL.0>
9.90185

>  <SCORE.INTRA.POLAR>
0

>  <SCORE.INTRA.POLAR.0>
0

>  <SCORE.INTRA.REPUL>
0

>  <SCORE.INTRA.REPUL.0>
0

>  <SCORE.INTRA.SOLV>
2.10367

>  <SCORE.INTRA.SOLV.lig_0>
-53.6586

>  <SCORE.INTRA.VDW>
-0.185179

>  <SCORE.INTRA.VDW.0>
-0.556525

>  <SCORE.INTRA.norm>
0.132406

>  <SCORE.RESTR>
0

>  <SCORE.RESTR.CAVITY>
0

>  <SCORE.RESTR.norm>
0

>  <SCORE.SYSTEM>
0

>  <SCORE.SYSTEM.CONST>
0

>  <SCORE.SYSTEM.DIHEDRAL>
0

>  <SCORE.SYSTEM.SOLV>
0

>  <SCORE.SYSTEM.norm>
0

>  <SCORE.heavy>
11

>  <SCORE.norm>
-1.91549

>  <RMSD>
6.181

$$$$

 OpenBabel11021811383D
libRbt.so/2013.1/901 2013/11/27
 11 10  0  0  0  0  0  0  0  0999 V2000
   -2.3829   -2.4069    4.1606 N   0  3  0  0  0  0  0  0  0  0  0  0
   -2.9018   -1.9187    5.4736 C   0  0  2  0  0  0  0  0  0  0  0  0
   -3.7201   -3.0292    6.1540 C   0  0  0  0  0  0  0  0  0  0  0  0
   -3.8696   -4.1093    5.6142 O   0  0  0  0  0  0  0  0  0  0  0  0
   -3.7853   -0.6854    5.2428 C   0  0  0  0  0  0  0  0  0  0  0  0
   -2.9269    0.4714    4.7234 C   0  0  0  0  0  0  0  0  0  0  0  0
   -3.7883    1.7251    4.5872 C   0  0  0  0  0  0  0  0  0  0  0  0
   -4.8536    1.4770    3.5774 N   0  3  0  0  0  0  0  0  0  0  0  0
   -4.5360    1.0985    2.3697 C   0  0  0  0  0  0  0  0  0  0  0  0
   -4.9245   -0.0712    1.9321 N   0  0  0  0  0  0  0  0  0  0  0  0
   -3.8376    1.8915    1.5989 N   0  0  0  0  0  0  0  0  0  0  0  0
  2  1  1  6  0  0  0
  2  3  1  0  0  0  0
  2  5  1  0  0  0  0
  3  4  2  0  0  0  0
  5  6  1  0  0  0  0
  6  7  1  0  0  0  0
  7  8  1  0  0  0  0
  8  9  2  0  0  0  0
  9 10  1  0  0  0  0
  9 11  1  0  0  0  0
M  CHG  2   1   1   8   1
M  END
>  <CHROM.1>
-176.61046029,-0.39039933,-66.34419389,-176.06813905,-62.85015957,-55.99163980
-3.77044262,-0.53639453,4.07781858,0.87904523,1.29905087,-3.04664066

>  <Name>


>  <RI>
0

>  <Rbt.Current_Directory>
/home/itssahil/PROJECTS/Mol_Feturizer/New_Systems/rnas/1aju

>  <Rbt.Executable>
rbdock ($Id: //depot/dev/client3/rdock/2013.1/src/exe/rbdock.cxx#4 $)

>  <Rbt.Library>
libRbt.so (2013.1, Build901 2013/11/27)

>  <Rbt.Parameter_File>
/export/apps/rDock/src/rDock_2013.1_src/data/scripts/dock_solv.prm

>  <Rbt.Receptor>
prm/pocket_docking_8.prm

>  <SCORE>
-14.6752

>  <SCORE.INTER>
-13.1691

>  <SCORE.INTER.CONST>
1

>  <SCORE.INTER.POLAR>
-3.51855

>  <SCORE.INTER.ROT>
5

>  <SCORE.INTER.SOLV>
10.2668

>  <SCORE.INTER.VDW>
-7.40651

>  <SCORE.INTER.norm>
-1.19719

>  <SCORE.INTRA>
-1.50608

>  <SCORE.INTRA.DIHEDRAL>
-6.69931

>  <SCORE.INTRA.DIHEDRAL.0>
9.90185

>  <SCORE.INTRA.POLAR>
0

>  <SCORE.INTRA.POLAR.0>
0

>  <SCORE.INTRA.REPUL>
0

>  <SCORE.INTRA.REPUL.0>
0

>  <SCORE.INTRA.SOLV>
3.70063

>  <SCORE.INTRA.SOLV.lig_0>
-53.6586

>  <SCORE.INTRA.VDW>
-0.00674297

>  <SCORE.INTRA.VDW.0>
-0.556525

>  <SCORE.INTRA.norm>
-0.136917

>  <SCORE.RESTR>
0

>  <SCORE.RESTR.CAVITY>
0

>  <SCORE.RESTR.norm>
0

>  <SCORE.SYSTEM>
0

>  <SCORE.SYSTEM.CONST>
0

>  <SCORE.SYSTEM.DIHEDRAL>
0

>  <SCORE.SYSTEM.SOLV>
0

>  <SCORE.SYSTEM.norm>
0

>  <SCORE.heavy>
11

>  <SCORE.norm>
-1.33411

>  <RMSD>
6.197

$$$$

 OpenBabel11021811383D
libRbt.so/2013.1/901 2013/11/27
 11 10  0  0  0  0  0  0  0  0999 V2000
   -9.2531   -6.6884   -2.6941 N   0  3  0  0  0  0  0  0  0  0  0  0
   -7.7918   -6.9927   -2.7552 C   0  0  2  0  0  0  0  0  0  0  0  0
   -7.4662   -8.1670   -1.8168 C   0  0  0  0  0  0  0  0  0  0  0  0
   -6.9462   -7.9708   -0.7345 O   0  0  0  0  0  0  0  0  0  0  0  0
   -6.9970   -5.7500   -2.3323 C   0  0  0  0  0  0  0  0  0  0  0  0
   -5.5127   -5.9585   -2.6457 C   0  0  0  0  0  0  0  0  0  0  0  0
   -4.6879   -4.8743   -1.9553 C   0  0  0  0  0  0  0  0  0  0  0  0
   -5.0456   -3.5491   -2.5314 N   0  3  0  0  0  0  0  0  0  0  0  0
   -4.1648   -2.8738   -3.2176 C   0  0  0  0  0  0  0  0  0  0  0  0
   -4.3833   -2.6174   -4.4814 N   0  0  0  0  0  0  0  0  0  0  0  0
   -3.0712   -2.4497   -2.6389 N   0  0  0  0  0  0  0  0  0  0  0  0
  2  1  1  1  0  0  0
  2  3  1  0  0  0  0
  2  5  1  0  0  0  0
  3  4  2  0  0  0  0
  5  6  1  0  0  0  0
  6  7  1  0  0  0  0
  7  8  1  0  0  0  0
  8  9  2  0  0  0  0
  9 10  1  0  0  0  0
  9 11  1  0  0  0  0
M  CHG  2   1   1   8   1
M  END
>  <CHROM.1>
65.09621183,-102.59870115,-169.21227246,-167.57409915,-64.43827967,-113.80969558
-5.96112640,-5.23837078,-2.53091995,2.35773066,0.43857746,2.47182582

>  <Name>


>  <RI>
0

>  <Rbt.Current_Directory>
/home/itssahil/PROJECTS/Mol_Feturizer/New_Systems/rnas/1aju

>  <Rbt.Executable>
rbdock ($Id: //depot/dev/client3/rdock/2013.1/src/exe/rbdock.cxx#4 $)

>  <Rbt.Library>
libRbt.so (2013.1, Build901 2013/11/27)

>  <Rbt.Parameter_File>
/export/apps/rDock/src/rDock_2013.1_src/data/scripts/dock_solv.prm

>  <Rbt.Receptor>
prm/pocket_docking_6.prm

>  <SCORE>
-20.7962

>  <SCORE.INTER>
-19.4089

>  <SCORE.INTER.CONST>
1

>  <SCORE.INTER.POLAR>
-3.75537

>  <SCORE.INTER.ROT>
5

>  <SCORE.INTER.SOLV>
14.2822

>  <SCORE.INTER.VDW>
-12.1154

>  <SCORE.INTER.norm>
-1.76445

>  <SCORE.INTRA>
-1.38726

>  <SCORE.INTRA.DIHEDRAL>
-5.23378

>  <SCORE.INTRA.DIHEDRAL.0>
9.90185

>  <SCORE.INTRA.POLAR>
0

>  <SCORE.INTRA.POLAR.0>
0

>  <SCORE.INTRA.REPUL>
0

>  <SCORE.INTRA.REPUL.0>
0

>  <SCORE.INTRA.SOLV>
0.774111

>  <SCORE.INTRA.SOLV.lig_0>
-53.6586

>  <SCORE.INTRA.VDW>
0.842577

>  <SCORE.INTRA.VDW.0>
-0.556525

>  <SCORE.INTRA.norm>
-0.126115

>  <SCORE.RESTR>
0

>  <SCORE.RESTR.CAVITY>
0

>  <SCORE.RESTR.norm>
0

>  <SCORE.SYSTEM>
0

>  <SCORE.SYSTEM.CONST>
0

>  <SCORE.SYSTEM.DIHEDRAL>
0

>  <SCORE.SYSTEM.SOLV>
0

>  <SCORE.SYSTEM.norm>
0

>  <SCORE.heavy>
11

>  <SCORE.norm>
-1.89056

>  <RMSD>
6.304

$$$$

 OpenBabel11021811383D
libRbt.so/2013.1/901 2013/11/27
 11 10  0  0  0  0  0  0  0  0999 V2000
   -8.4404   -6.9169   -2.0654 N   0  3  0  0  0  0  0  0  0  0  0  0
   -7.9151   -5.8647   -1.1442 C   0  0  2  0  0  0  0  0  0  0  0  0
   -8.9307   -4.7145   -1.0369 C   0  0  0  0  0  0  0  0  0  0  0  0
  -10.1227   -4.9259   -1.1576 O   0  0  0  0  0  0  0  0  0  0  0  0
   -6.5813   -5.3350   -1.6874 C   0  0  0  0  0  0  0  0  0  0  0  0
   -5.8362   -4.5863   -0.5787 C   0  0  0  0  0  0  0  0  0  0  0  0
   -4.5573   -3.9743   -1.1465 C   0  0  0  0  0  0  0  0  0  0  0  0
   -4.9072   -2.7663   -1.9429 N   0  3  0  0  0  0  0  0  0  0  0  0
   -4.0955   -2.3344   -2.8689 C   0  0  0  0  0  0  0  0  0  0  0  0
   -4.4830   -2.3215   -4.1180 N   0  0  0  0  0  0  0  0  0  0  0  0
   -2.9016   -1.9097   -2.5450 N   0  0  0  0  0  0  0  0  0  0  0  0
  2  1  1  6  0  0  0
  2  3  1  0  0  0  0
  2  5  1  0  0  0  0
  3  4  2  0  0  0  0
  5  6  1  0  0  0  0
  6  7  1  0  0  0  0
  7  8  1  0  0  0  0
  8  9  2  0  0  0  0
  9 10  1  0  0  0  0
  9 11  1  0  0  0  0
M  CHG  2   1   1   8   1
M  END
>  <CHROM.1>
64.95648584,30.13192441,-163.17176488,-175.95902555,76.07454180,-157.13170478
-6.27216114,-4.16019880,-1.88205911,-2.57247028,-0.27272973,-0.79310316

>  <Name>


>  <RI>
0

>  <Rbt.Current_Directory>
/home/itssahil/PROJECTS/Mol_Feturizer/New_Systems/rnas/1aju

>  <Rbt.Executable>
rbdock ($Id: //depot/dev/client3/rdock/2013.1/src/exe/rbdock.cxx#4 $)

>  <Rbt.Library>
libRbt.so (2013.1, Build901 2013/11/27)

>  <Rbt.Parameter_File>
/export/apps/rDock/src/rDock_2013.1_src/data/scripts/dock_solv.prm

>  <Rbt.Receptor>
prm/pocket_docking_7.prm

>  <SCORE>
-18.2757

>  <SCORE.INTER>
-16.9851

>  <SCORE.INTER.CONST>
1

>  <SCORE.INTER.POLAR>
-2.52406

>  <SCORE.INTER.ROT>
5

>  <SCORE.INTER.SOLV>
16.0995

>  <SCORE.INTER.VDW>
-15.2097

>  <SCORE.INTER.norm>
-1.5441

>  <SCORE.INTRA>
-1.2906

>  <SCORE.INTRA.DIHEDRAL>
-3.62416

>  <SCORE.INTRA.DIHEDRAL.0>
9.90185

>  <SCORE.INTRA.POLAR>
0

>  <SCORE.INTRA.POLAR.0>
0

>  <SCORE.INTRA.REPUL>
0

>  <SCORE.INTRA.REPUL.0>
0

>  <SCORE.INTRA.SOLV>
1.16165

>  <SCORE.INTRA.SOLV.lig_0>
-53.6586

>  <SCORE.INTRA.VDW>
-0.0593464

>  <SCORE.INTRA.VDW.0>
-0.556525

>  <SCORE.INTRA.norm>
-0.117327

>  <SCORE.RESTR>
0

>  <SCORE.RESTR.CAVITY>
0

>  <SCORE.RESTR.norm>
0

>  <SCORE.SYSTEM>
0

>  <SCORE.SYSTEM.CONST>
0

>  <SCORE.SYSTEM.DIHEDRAL>
0

>  <SCORE.SYSTEM.SOLV>
0

>  <SCORE.SYSTEM.norm>
0

>  <SCORE.heavy>
11

>  <SCORE.norm>
-1.66143

>  <RMSD>
6.310

$$$$

 OpenBabel11021811383D
libRbt.so/2013.1/901 2013/11/27
 11 10  0  0  0  0  0  0  0  0999 V2000
   -9.2994   -5.8159   -2.0860 N   0  3  0  0  0  0  0  0  0  0  0  0
   -7.9200   -6.3534   -2.2859 C   0  0  2  0  0  0  0  0  0  0  0  0
   -7.7705   -7.6903   -1.5401 C   0  0  0  0  0  0  0  0  0  0  0  0
   -8.7343   -8.2242   -1.0242 O   0  0  0  0  0  0  0  0  0  0  0  0
   -6.8986   -5.3402   -1.7521 C   0  0  0  0  0  0  0  0  0  0  0  0
   -5.4989   -5.7109   -2.2504 C   0  0  0  0  0  0  0  0  0  0  0  0
   -4.5104   -4.6149   -1.8577 C   0  0  0  0  0  0  0  0  0  0  0  0
   -4.9067   -3.3416   -2.5192 N   0  3  0  0  0  0  0  0  0  0  0  0
   -4.0430   -2.6821   -3.2415 C   0  0  0  0  0  0  0  0  0  0  0  0
   -4.2595   -2.5138   -4.5204 N   0  0  0  0  0  0  0  0  0  0  0  0
   -2.9688   -2.1859   -2.6843 N   0  0  0  0  0  0  0  0  0  0  0  0
  2  1  1  1  0  0  0
  2  3  1  0  0  0  0
  2  5  1  0  0  0  0
  3  4  2  0  0  0  0
  5  6  1  0  0  0  0
  6  7  1  0  0  0  0
  7  8  1  0  0  0  0
  8  9  2  0  0  0  0
  9 10  1  0  0  0  0
  9 11  1  0  0  0  0
M  CHG  2   1   1   8   1
M  END
>  <CHROM.1>
61.32847560,7.59865562,-166.29658840,173.37352130,-62.20952560,-126.35796705
-6.10941441,-4.92863082,-2.34947815,2.37860835,0.25452214,2.53502924

>  <Name>


>  <RI>
0

>  <Rbt.Current_Directory>
/home/itssahil/PROJECTS/Mol_Feturizer/New_Systems/rnas/1aju

>  <Rbt.Executable>
rbdock ($Id: //depot/dev/client3/rdock/2013.1/src/exe/rbdock.cxx#4 $)

>  <Rbt.Library>
libRbt.so (2013.1, Build901 2013/11/27)

>  <Rbt.Parameter_File>
/export/apps/rDock/src/rDock_2013.1_src/data/scripts/dock_solv.prm

>  <Rbt.Receptor>
prm/pocket_docking_7.prm

>  <SCORE>
-22.6875

>  <SCORE.INTER>
-20.664

>  <SCORE.INTER.CONST>
1

>  <SCORE.INTER.POLAR>
-4.02966

>  <SCORE.INTER.ROT>
5

>  <SCORE.INTER.SOLV>
17.0063

>  <SCORE.INTER.VDW>
-12.9458

>  <SCORE.INTER.norm>
-1.87854

>  <SCORE.INTRA>
-2.02352

>  <SCORE.INTRA.DIHEDRAL>
-6.01825

>  <SCORE.INTRA.DIHEDRAL.0>
9.90185

>  <SCORE.INTRA.POLAR>
0

>  <SCORE.INTRA.POLAR.0>
0

>  <SCORE.INTRA.REPUL>
0

>  <SCORE.INTRA.REPUL.0>
0

>  <SCORE.INTRA.SOLV>
1.42105

>  <SCORE.INTRA.SOLV.lig_0>
-53.6586

>  <SCORE.INTRA.VDW>
0.27508

>  <SCORE.INTRA.VDW.0>
-0.556525

>  <SCORE.INTRA.norm>
-0.183957

>  <SCORE.RESTR>
0

>  <SCORE.RESTR.CAVITY>
0

>  <SCORE.RESTR.norm>
0

>  <SCORE.SYSTEM>
0

>  <SCORE.SYSTEM.CONST>
0

>  <SCORE.SYSTEM.DIHEDRAL>
0

>  <SCORE.SYSTEM.SOLV>
0

>  <SCORE.SYSTEM.norm>
0

>  <SCORE.heavy>
11

>  <SCORE.norm>
-2.0625

>  <RMSD>
6.326

$$$$

 OpenBabel11021811383D
libRbt.so/2013.1/901 2013/11/27
 11 10  0  0  0  0  0  0  0  0999 V2000
   -9.3976   -5.4918   -1.4688 N   0  3  0  0  0  0  0  0  0  0  0  0
   -8.2552   -6.4095   -1.7592 C   0  0  2  0  0  0  0  0  0  0  0  0
   -8.5278   -7.7904   -1.1390 C   0  0  0  0  0  0  0  0  0  0  0  0
   -8.0012   -8.7891   -1.5923 O   0  0  0  0  0  0  0  0  0  0  0  0
   -6.9673   -5.8177   -1.1711 C   0  0  0  0  0  0  0  0  0  0  0  0
   -6.3951   -4.7739   -2.1345 C   0  0  0  0  0  0  0  0  0  0  0  0
   -5.2830   -3.9922   -1.4384 C   0  0  0  0  0  0  0  0  0  0  0  0
   -5.0497   -2.7184   -2.1726 N   0  3  0  0  0  0  0  0  0  0  0  0
   -4.1398   -2.6574   -3.1059 C   0  0  0  0  0  0  0  0  0  0  0  0
   -4.4910   -2.4049   -4.3402 N   0  0  0  0  0  0  0  0  0  0  0  0
   -2.8806   -2.8415   -2.8037 N   0  0  0  0  0  0  0  0  0  0  0  0
  2  1  1  1  0  0  0
  2  3  1  0  0  0  0
  2  5  1  0  0  0  0
  3  4  2  0  0  0  0
  5  6  1  0  0  0  0
  6  7  1  0  0  0  0
  7  8  1  0  0  0  0
  8  9  2  0  0  0  0
  9 10  1  0  0  0  0
  9 11  1  0  0  0  0
M  CHG  2   1   1   8   1
M  END
>  <CHROM.1>
-53.42030528,155.28453239,-82.14323956,168.84939923,-161.12593939,-92.90630244
-6.31883448,-4.86126564,-2.11868007,2.31641375,-0.14027955,2.91859308

>  <Name>


>  <RI>
0

>  <Rbt.Current_Directory>
/home/itssahil/PROJECTS/Mol_Feturizer/New_Systems/rnas/1aju

>  <Rbt.Executable>
rbdock ($Id: //depot/dev/client3/rdock/2013.1/src/exe/rbdock.cxx#4 $)

>  <Rbt.Library>
libRbt.so (2013.1, Build901 2013/11/27)

>  <Rbt.Parameter_File>
/export/apps/rDock/src/rDock_2013.1_src/data/scripts/dock_solv.prm

>  <Rbt.Receptor>
prm/pocket_docking_6.prm

>  <SCORE>
-18.3266

>  <SCORE.INTER>
-17.4666

>  <SCORE.INTER.CONST>
1

>  <SCORE.INTER.POLAR>
-3.29726

>  <SCORE.INTER.ROT>
5

>  <SCORE.INTER.SOLV>
16.2181

>  <SCORE.INTER.VDW>
-12.9929

>  <SCORE.INTER.norm>
-1.58787

>  <SCORE.INTRA>
-1.04995

>  <SCORE.INTRA.DIHEDRAL>
-1.75892

>  <SCORE.INTRA.DIHEDRAL.0>
9.90185

>  <SCORE.INTRA.POLAR>
0

>  <SCORE.INTRA.POLAR.0>
0

>  <SCORE.INTRA.REPUL>
0

>  <SCORE.INTRA.REPUL.0>
0

>  <SCORE.INTRA.SOLV>
0.752953

>  <SCORE.INTRA.SOLV.lig_0>
-53.6586

>  <SCORE.INTRA.VDW>
-0.546966

>  <SCORE.INTRA.VDW.0>
-0.556525

>  <SCORE.INTRA.norm>
-0.09545

>  <SCORE.RESTR>
0.189915

>  <SCORE.RESTR.CAVITY>
0.189915

>  <SCORE.RESTR.norm>
0.017265

>  <SCORE.SYSTEM>
0

>  <SCORE.SYSTEM.CONST>
0

>  <SCORE.SYSTEM.DIHEDRAL>
0

>  <SCORE.SYSTEM.SOLV>
0

>  <SCORE.SYSTEM.norm>
0

>  <SCORE.heavy>
11

>  <SCORE.norm>
-1.66606

>  <RMSD>
6.338

$$$$

 OpenBabel11021811383D
libRbt.so/2013.1/901 2013/11/27
 11 10  0  0  0  0  0  0  0  0999 V2000
   -8.2259   -5.9137   -3.1645 N   0  3  0  0  0  0  0  0  0  0  0  0
   -6.8611   -6.2838   -3.6461 C   0  0  2  0  0  0  0  0  0  0  0  0
   -6.9670   -7.3987   -4.7004 C   0  0  0  0  0  0  0  0  0  0  0  0
   -6.5602   -7.2221   -5.8334 O   0  0  0  0  0  0  0  0  0  0  0  0
   -6.0178   -6.7663   -2.4583 C   0  0  0  0  0  0  0  0  0  0  0  0
   -5.7590   -5.5973   -1.5037 C   0  0  0  0  0  0  0  0  0  0  0  0
   -4.5208   -4.8292   -1.9613 C   0  0  0  0  0  0  0  0  0  0  0  0
   -4.9434   -3.5254   -2.5423 N   0  3  0  0  0  0  0  0  0  0  0  0
   -4.1037   -2.8205   -3.2499 C   0  0  0  0  0  0  0  0  0  0  0  0
   -4.3549   -2.5853   -4.5118 N   0  0  0  0  0  0  0  0  0  0  0  0
   -3.0187   -2.3460   -2.6946 N   0  0  0  0  0  0  0  0  0  0  0  0
  2  1  1  1  0  0  0
  2  3  1  0  0  0  0
  2  5  1  0  0  0  0
  3  4  2  0  0  0  0
  5  6  1  0  0  0  0
  6  7  1  0  0  0  0
  7  8  1  0  0  0  0
  8  9  2  0  0  0  0
  9 10  1  0  0  0  0
  9 11  1  0  0  0  0
M  CHG  2   1   1   8   1
M  END
>  <CHROM.1>
-154.46671992,119.40455659,-67.06497533,-86.34314986,107.50842729,-165.61232971
-5.59601872,-4.99464268,-3.31860921,2.95188799,-0.90079288,-1.54325253

>  <Name>


>  <RI>
0

>  <Rbt.Current_Directory>
/home/itssahil/PROJECTS/Mol_Feturizer/New_Systems/rnas/1aju

>  <Rbt.Executable>
rbdock ($Id: //depot/dev/client3/rdock/2013.1/src/exe/rbdock.cxx#4 $)

>  <Rbt.Library>
libRbt.so (2013.1, Build901 2013/11/27)

>  <Rbt.Parameter_File>
/export/apps/rDock/src/rDock_2013.1_src/data/scripts/dock_solv.prm

>  <Rbt.Receptor>
prm/pocket_docking_8.prm

>  <SCORE>
-20.9683

>  <SCORE.INTER>
-22.8936

>  <SCORE.INTER.CONST>
1

>  <SCORE.INTER.POLAR>
-4.05541

>  <SCORE.INTER.ROT>
5

>  <SCORE.INTER.SOLV>
18.6015

>  <SCORE.INTER.VDW>
-14.8782

>  <SCORE.INTER.norm>
-2.08124

>  <SCORE.INTRA>
1.92532

>  <SCORE.INTRA.DIHEDRAL>
1.99952

>  <SCORE.INTRA.DIHEDRAL.0>
9.90185

>  <SCORE.INTRA.POLAR>
0

>  <SCORE.INTRA.POLAR.0>
0

>  <SCORE.INTRA.REPUL>
0

>  <SCORE.INTRA.REPUL.0>
0

>  <SCORE.INTRA.SOLV>
2.0897

>  <SCORE.INTRA.SOLV.lig_0>
-53.6586

>  <SCORE.INTRA.VDW>
-0.119288

>  <SCORE.INTRA.VDW.0>
-0.556525

>  <SCORE.INTRA.norm>
0.175029

>  <SCORE.RESTR>
0

>  <SCORE.RESTR.CAVITY>
0

>  <SCORE.RESTR.norm>
0

>  <SCORE.SYSTEM>
0

>  <SCORE.SYSTEM.CONST>
0

>  <SCORE.SYSTEM.DIHEDRAL>
0

>  <SCORE.SYSTEM.SOLV>
0

>  <SCORE.SYSTEM.norm>
0

>  <SCORE.heavy>
11

>  <SCORE.norm>
-1.90621

>  <RMSD>
6.341

$$$$

 OpenBabel11021811383D
libRbt.so/2013.1/901 2013/11/27
 11 10  0  0  0  0  0  0  0  0999 V2000
   -9.1184   -5.9392   -2.2741 N   0  3  0  0  0  0  0  0  0  0  0  0
   -7.9237   -6.6521   -2.8182 C   0  0  2  0  0  0  0  0  0  0  0  0
   -7.5241   -7.7947   -1.8692 C   0  0  0  0  0  0  0  0  0  0  0  0
   -7.3700   -8.9258   -2.2902 O   0  0  0  0  0  0  0  0  0  0  0  0
   -6.7618   -5.6598   -2.9594 C   0  0  0  0  0  0  0  0  0  0  0  0
   -6.4811   -5.0016   -1.6056 C   0  0  0  0  0  0  0  0  0  0  0  0
   -5.7981   -3.6533   -1.8253 C   0  0  0  0  0  0  0  0  0  0  0  0
   -4.4111   -3.8837   -2.3142 N   0  3  0  0  0  0  0  0  0  0  0  0
   -3.8297   -2.9986   -3.0767 C   0  0  0  0  0  0  0  0  0  0  0  0
   -2.7535   -2.3856   -2.6563 N   0  0  0  0  0  0  0  0  0  0  0  0
   -4.3198   -2.7327   -4.2598 N   0  0  0  0  0  0  0  0  0  0  0  0
  2  1  1  1  0  0  0
  2  3  1  0  0  0  0
  2  5  1  0  0  0  0
  3  4  2  0  0  0  0
  5  6  1  0  0  0  0
  6  7  1  0  0  0  0
  7  8  1  0  0  0  0
  8  9  2  0  0  0  0
  9 10  1  0  0  0  0
  9 11  1  0  0  0  0
M  CHG  2   1   1   8   1
M  END
>  <CHROM.1>
46.64723825,128.02860764,56.45598688,-155.92019825,-70.62305782,151.44217675
-6.03462882,-5.04817391,-2.54956281,2.30884438,-0.02490068,3.00146511

>  <Name>


>  <RI>
0

>  <Rbt.Current_Directory>
/home/itssahil/PROJECTS/Mol_Feturizer/New_Systems/rnas/1aju

>  <Rbt.Executable>
rbdock ($Id: //depot/dev/client3/rdock/2013.1/src/exe/rbdock.cxx#4 $)

>  <Rbt.Library>
libRbt.so (2013.1, Build901 2013/11/27)

>  <Rbt.Parameter_File>
/export/apps/rDock/src/rDock_2013.1_src/data/scripts/dock_solv.prm

>  <Rbt.Receptor>
prm/pocket_docking_7.prm

>  <SCORE>
-17.1005

>  <SCORE.INTER>
-16.9893

>  <SCORE.INTER.CONST>
1

>  <SCORE.INTER.POLAR>
-3.40378

>  <SCORE.INTER.ROT>
5

>  <SCORE.INTER.SOLV>
14.884

>  <SCORE.INTER.VDW>
-11.875

>  <SCORE.INTER.norm>
-1.54448

>  <SCORE.INTRA>
-0.111149

>  <SCORE.INTRA.DIHEDRAL>
-3.77235

>  <SCORE.INTRA.DIHEDRAL.0>
9.90185

>  <SCORE.INTRA.POLAR>
0

>  <SCORE.INTRA.POLAR.0>
0

>  <SCORE.INTRA.REPUL>
0

>  <SCORE.INTRA.REPUL.0>
0

>  <SCORE.INTRA.SOLV>
2.1158

>  <SCORE.INTRA.SOLV.lig_0>
-53.6586

>  <SCORE.INTRA.VDW>
0.717124

>  <SCORE.INTRA.VDW.0>
-0.556525

>  <SCORE.INTRA.norm>
-0.0101044

>  <SCORE.RESTR>
0

>  <SCORE.RESTR.CAVITY>
0

>  <SCORE.RESTR.norm>
0

>  <SCORE.SYSTEM>
0

>  <SCORE.SYSTEM.CONST>
0

>  <SCORE.SYSTEM.DIHEDRAL>
0

>  <SCORE.SYSTEM.SOLV>
0

>  <SCORE.SYSTEM.norm>
0

>  <SCORE.heavy>
11

>  <SCORE.norm>
-1.55459

>  <RMSD>
6.344

$$$$

 OpenBabel11021811383D
libRbt.so/2013.1/901 2013/11/27
 11 10  0  0  0  0  0  0  0  0999 V2000
   -1.3488   -3.4776    6.3608 N   0  3  0  0  0  0  0  0  0  0  0  0
   -1.7758   -2.4398    5.3748 C   0  0  2  0  0  0  0  0  0  0  0  0
   -0.6326   -1.4357    5.1498 C   0  0  0  0  0  0  0  0  0  0  0  0
   -0.7252   -0.2903    5.5495 O   0  0  0  0  0  0  0  0  0  0  0  0
   -3.0145   -1.7099    5.9111 C   0  0  0  0  0  0  0  0  0  0  0  0
   -3.7740   -1.0648    4.7484 C   0  0  0  0  0  0  0  0  0  0  0  0
   -4.6750    0.0472    5.2816 C   0  0  0  0  0  0  0  0  0  0  0  0
   -5.5724    0.5130    4.1892 N   0  3  0  0  0  0  0  0  0  0  0  0
   -5.0750    1.1205    3.1469 C   0  0  0  0  0  0  0  0  0  0  0  0
   -5.1911    0.5785    1.9622 N   0  0  0  0  0  0  0  0  0  0  0  0
   -4.4692    2.2710    3.2886 N   0  0  0  0  0  0  0  0  0  0  0  0
  2  1  1  1  0  0  0
  2  3  1  0  0  0  0
  2  5  1  0  0  0  0
  3  4  2  0  0  0  0
  5  6  1  0  0  0  0
  6  7  1  0  0  0  0
  7  8  1  0  0  0  0
  8  9  2  0  0  0  0
  9 10  1  0  0  0  0
  9 11  1  0  0  0  0
M  CHG  2   1   1   8   1
M  END
>  <CHROM.1>
60.68755310,-110.74377298,-158.06432385,-159.64286312,-170.63298764,-66.25329340
-3.28576274,-0.53792365,4.63439029,0.84271661,0.16487744,2.61846359

>  <Name>


>  <RI>
0

>  <Rbt.Current_Directory>
/home/itssahil/PROJECTS/Mol_Feturizer/New_Systems/rnas/1aju

>  <Rbt.Executable>
rbdock ($Id: //depot/dev/client3/rdock/2013.1/src/exe/rbdock.cxx#4 $)

>  <Rbt.Library>
libRbt.so (2013.1, Build901 2013/11/27)

>  <Rbt.Parameter_File>
/export/apps/rDock/src/rDock_2013.1_src/data/scripts/dock_solv.prm

>  <Rbt.Receptor>
prm/pocket_docking_7.prm

>  <SCORE>
-15.1306

>  <SCORE.INTER>
-14.9725

>  <SCORE.INTER.CONST>
1

>  <SCORE.INTER.POLAR>
-3.67315

>  <SCORE.INTER.ROT>
5

>  <SCORE.INTER.SOLV>
11.6183

>  <SCORE.INTER.VDW>
-8.54391

>  <SCORE.INTER.norm>
-1.36113

>  <SCORE.INTRA>
-0.715845

>  <SCORE.INTRA.DIHEDRAL>
-3.34732

>  <SCORE.INTRA.DIHEDRAL.0>
9.90185

>  <SCORE.INTRA.POLAR>
0

>  <SCORE.INTRA.POLAR.0>
0

>  <SCORE.INTRA.REPUL>
0

>  <SCORE.INTRA.REPUL.0>
0

>  <SCORE.INTRA.SOLV>
0.527147

>  <SCORE.INTRA.SOLV.lig_0>
-53.6586

>  <SCORE.INTRA.VDW>
0.694244

>  <SCORE.INTRA.VDW.0>
-0.556525

>  <SCORE.INTRA.norm>
-0.0650768

>  <SCORE.RESTR>
0.557705

>  <SCORE.RESTR.CAVITY>
0.557705

>  <SCORE.RESTR.norm>
0.0507004

>  <SCORE.SYSTEM>
0

>  <SCORE.SYSTEM.CONST>
0

>  <SCORE.SYSTEM.DIHEDRAL>
0

>  <SCORE.SYSTEM.SOLV>
0

>  <SCORE.SYSTEM.norm>
0

>  <SCORE.heavy>
11

>  <SCORE.norm>
-1.37551

>  <RMSD>
6.422

$$$$

 OpenBabel11021811383D
libRbt.so/2013.1/901 2013/11/27
 11 10  0  0  0  0  0  0  0  0999 V2000
    1.2422    3.4183    0.6580 N   0  3  0  0  0  0  0  0  0  0  0  0
    0.3798    2.6342    1.5923 C   0  0  2  0  0  0  0  0  0  0  0  0
    0.2370    1.1911    1.0797 C   0  0  0  0  0  0  0  0  0  0  0  0
    0.7573    0.8496    0.0342 O   0  0  0  0  0  0  0  0  0  0  0  0
   -1.0019    3.2957    1.6829 C   0  0  0  0  0  0  0  0  0  0  0  0
   -1.5366    3.1743    3.1127 C   0  0  0  0  0  0  0  0  0  0  0  0
   -2.3352    1.8798    3.2508 C   0  0  0  0  0  0  0  0  0  0  0  0
   -3.6069    2.0082    2.4878 N   0  3  0  0  0  0  0  0  0  0  0  0
   -4.3963    0.9780    2.3519 C   0  0  0  0  0  0  0  0  0  0  0  0
   -5.6002    1.0102    2.8620 N   0  0  0  0  0  0  0  0  0  0  0  0
   -3.9846   -0.0792    1.7010 N   0  0  0  0  0  0  0  0  0  0  0  0
  2  1  1  6  0  0  0
  2  3  1  0  0  0  0
  2  5  1  0  0  0  0
  3  4  2  0  0  0  0
  5  6  1  0  0  0  0
  6  7  1  0  0  0  0
  7  8  1  0  0  0  0
  8  9  2  0  0  0  0
  9 10  1  0  0  0  0
  9 11  1  0  0  0  0
M  CHG  2   1   1   8   1
M  END
>  <CHROM.1>
-50.63508214,-1.93937923,-143.67576103,-89.91662881,-70.55739411,173.35333389
-1.79661718,1.84863133,1.85339519,0.05963755,0.39185204,0.54573008

>  <Name>


>  <RI>
0

>  <Rbt.Current_Directory>
/home/itssahil/PROJECTS/Mol_Feturizer/New_Systems/rnas/1aju

>  <Rbt.Executable>
rbdock ($Id: //depot/dev/client3/rdock/2013.1/src/exe/rbdock.cxx#4 $)

>  <Rbt.Library>
libRbt.so (2013.1, Build901 2013/11/27)

>  <Rbt.Parameter_File>
/export/apps/rDock/src/rDock_2013.1_src/data/scripts/dock_solv.prm

>  <Rbt.Receptor>
prm/pocket_docking_8.prm

>  <SCORE>
-25.2271

>  <SCORE.INTER>
-26.022

>  <SCORE.INTER.CONST>
1

>  <SCORE.INTER.POLAR>
-5.52674

>  <SCORE.INTER.ROT>
5

>  <SCORE.INTER.SOLV>
14.398

>  <SCORE.INTER.VDW>
-10.6582

>  <SCORE.INTER.norm>
-2.36564

>  <SCORE.INTRA>
0.794935

>  <SCORE.INTRA.DIHEDRAL>
0.147708

>  <SCORE.INTRA.DIHEDRAL.0>
9.90185

>  <SCORE.INTRA.POLAR>
0

>  <SCORE.INTRA.POLAR.0>
0

>  <SCORE.INTRA.REPUL>
0

>  <SCORE.INTRA.REPUL.0>
0

>  <SCORE.INTRA.SOLV>
1.68993

>  <SCORE.INTRA.SOLV.lig_0>
-53.6586

>  <SCORE.INTRA.VDW>
-0.123882

>  <SCORE.INTRA.VDW.0>
-0.556525

>  <SCORE.INTRA.norm>
0.0722668

>  <SCORE.RESTR>
0

>  <SCORE.RESTR.CAVITY>
0

>  <SCORE.RESTR.norm>
0

>  <SCORE.SYSTEM>
0

>  <SCORE.SYSTEM.CONST>
0

>  <SCORE.SYSTEM.DIHEDRAL>
0

>  <SCORE.SYSTEM.SOLV>
0

>  <SCORE.SYSTEM.norm>
0

>  <SCORE.heavy>
11

>  <SCORE.norm>
-2.29337

>  <RMSD>
6.540

$$$$

 OpenBabel11021811383D
libRbt.so/2013.1/901 2013/11/27
 11 10  0  0  0  0  0  0  0  0999 V2000
   -9.2654   -5.7803   -2.0243 N   0  3  0  0  0  0  0  0  0  0  0  0
   -8.6863   -5.5251   -0.6711 C   0  0  2  0  0  0  0  0  0  0  0  0
   -9.7704   -4.9538    0.2584 C   0  0  0  0  0  0  0  0  0  0  0  0
  -10.0095   -5.4794    1.3293 O   0  0  0  0  0  0  0  0  0  0  0  0
   -7.5264   -4.5280   -0.7957 C   0  0  0  0  0  0  0  0  0  0  0  0
   -6.4740   -5.0824   -1.7600 C   0  0  0  0  0  0  0  0  0  0  0  0
   -5.1242   -4.4275   -1.4739 C   0  0  0  0  0  0  0  0  0  0  0  0
   -5.0829   -3.0909   -2.1278 N   0  3  0  0  0  0  0  0  0  0  0  0
   -4.1917   -2.8386   -3.0471 C   0  0  0  0  0  0  0  0  0  0  0  0
   -4.5761   -2.5663   -4.2672 N   0  0  0  0  0  0  0  0  0  0  0  0
   -2.9193   -2.8516   -2.7446 N   0  0  0  0  0  0  0  0  0  0  0  0
  2  1  1  6  0  0  0
  2  3  1  0  0  0  0
  2  5  1  0  0  0  0
  3  4  2  0  0  0  0
  5  6  1  0  0  0  0
  6  7  1  0  0  0  0
  7  8  1  0  0  0  0
  8  9  2  0  0  0  0
  9 10  1  0  0  0  0
  9 11  1  0  0  0  0
M  CHG  2   1   1   8   1
M  END
>  <CHROM.1>
-164.86854954,125.93477727,-57.58376167,-157.32288502,-81.04121917,-118.51699525
-6.70100841,-4.28180650,-1.60653729,2.65433267,0.40823168,1.61472686

>  <Name>


>  <RI>
0

>  <Rbt.Current_Directory>
/home/itssahil/PROJECTS/Mol_Feturizer/New_Systems/rnas/1aju

>  <Rbt.Executable>
rbdock ($Id: //depot/dev/client3/rdock/2013.1/src/exe/rbdock.cxx#4 $)

>  <Rbt.Library>
libRbt.so (2013.1, Build901 2013/11/27)

>  <Rbt.Parameter_File>
/export/apps/rDock/src/rDock_2013.1_src/data/scripts/dock_solv.prm

>  <Rbt.Receptor>
prm/pocket_docking_7.prm

>  <SCORE>
-21.4566

>  <SCORE.INTER>
-20.6684

>  <SCORE.INTER.CONST>
1

>  <SCORE.INTER.POLAR>
-3.55312

>  <SCORE.INTER.ROT>
5

>  <SCORE.INTER.SOLV>
16.2607

>  <SCORE.INTER.VDW>
-14.2888

>  <SCORE.INTER.norm>
-1.87895

>  <SCORE.INTRA>
-0.788232

>  <SCORE.INTRA.DIHEDRAL>
-2.89341

>  <SCORE.INTRA.DIHEDRAL.0>
9.90185

>  <SCORE.INTRA.POLAR>
0

>  <SCORE.INTRA.POLAR.0>
0

>  <SCORE.INTRA.REPUL>
0

>  <SCORE.INTRA.REPUL.0>
0

>  <SCORE.INTRA.SOLV>
1.44107

>  <SCORE.INTRA.SOLV.lig_0>
-53.6586

>  <SCORE.INTRA.VDW>
-0.0620621

>  <SCORE.INTRA.VDW.0>
-0.556525

>  <SCORE.INTRA.norm>
-0.0716575

>  <SCORE.RESTR>
0

>  <SCORE.RESTR.CAVITY>
0

>  <SCORE.RESTR.norm>
0

>  <SCORE.SYSTEM>
0

>  <SCORE.SYSTEM.CONST>
0

>  <SCORE.SYSTEM.DIHEDRAL>
0

>  <SCORE.SYSTEM.SOLV>
0

>  <SCORE.SYSTEM.norm>
0

>  <SCORE.heavy>
11

>  <SCORE.norm>
-1.9506

>  <RMSD>
6.605

$$$$

 OpenBabel11021811383D
libRbt.so/2013.1/901 2013/11/27
 11 10  0  0  0  0  0  0  0  0999 V2000
   -7.1028   -8.3019   -2.9231 N   0  3  0  0  0  0  0  0  0  0  0  0
   -7.4595   -6.9626   -3.4806 C   0  0  2  0  0  0  0  0  0  0  0  0
   -7.9519   -7.1177   -4.9295 C   0  0  0  0  0  0  0  0  0  0  0  0
   -9.0785   -6.7803   -5.2415 O   0  0  0  0  0  0  0  0  0  0  0  0
   -6.2246   -6.0524   -3.4431 C   0  0  0  0  0  0  0  0  0  0  0  0
   -5.8443   -5.7626   -1.9883 C   0  0  0  0  0  0  0  0  0  0  0  0
   -4.6240   -4.8450   -1.9529 C   0  0  0  0  0  0  0  0  0  0  0  0
   -4.9898   -3.5251   -2.5361 N   0  3  0  0  0  0  0  0  0  0  0  0
   -4.1175   -2.8544   -3.2375 C   0  0  0  0  0  0  0  0  0  0  0  0
   -4.3502   -2.6090   -4.5009 N   0  0  0  0  0  0  0  0  0  0  0  0
   -3.0182   -2.4241   -2.6743 N   0  0  0  0  0  0  0  0  0  0  0  0
  2  1  1  6  0  0  0
  2  3  1  0  0  0  0
  2  5  1  0  0  0  0
  3  4  2  0  0  0  0
  5  6  1  0  0  0  0
  6  7  1  0  0  0  0
  7  8  1  0  0  0  0
  8  9  2  0  0  0  0
  9 10  1  0  0  0  0
  9 11  1  0  0  0  0
M  CHG  2   1   1   8   1
M  END
>  <CHROM.1>
-175.67278173,119.05419550,-66.46847436,-179.41630839,65.11181562,-144.60907546
-5.88843121,-5.21017320,-3.36196983,-2.72408118,-0.76427701,-0.76620349

>  <Name>


>  <RI>
0

>  <Rbt.Current_Directory>
/home/itssahil/PROJECTS/Mol_Feturizer/New_Systems/rnas/1aju

>  <Rbt.Executable>
rbdock ($Id: //depot/dev/client3/rdock/2013.1/src/exe/rbdock.cxx#4 $)

>  <Rbt.Library>
libRbt.so (2013.1, Build901 2013/11/27)

>  <Rbt.Parameter_File>
/export/apps/rDock/src/rDock_2013.1_src/data/scripts/dock_solv.prm

>  <Rbt.Receptor>
prm/pocket_docking_8.prm

>  <SCORE>
-20.2372

>  <SCORE.INTER>
-17.5062

>  <SCORE.INTER.CONST>
1

>  <SCORE.INTER.POLAR>
-3.00728

>  <SCORE.INTER.ROT>
5

>  <SCORE.INTER.SOLV>
12.7483

>  <SCORE.INTER.VDW>
-12.8293

>  <SCORE.INTER.norm>
-1.59147

>  <SCORE.INTRA>
-2.731

>  <SCORE.INTRA.DIHEDRAL>
-6.71058

>  <SCORE.INTRA.DIHEDRAL.0>
9.90185

>  <SCORE.INTRA.POLAR>
0

>  <SCORE.INTRA.POLAR.0>
0

>  <SCORE.INTRA.REPUL>
0

>  <SCORE.INTRA.REPUL.0>
0

>  <SCORE.INTRA.SOLV>
1.57089

>  <SCORE.INTRA.SOLV.lig_0>
-53.6586

>  <SCORE.INTRA.VDW>
-0.161163

>  <SCORE.INTRA.VDW.0>
-0.556525

>  <SCORE.INTRA.norm>
-0.248273

>  <SCORE.RESTR>
0

>  <SCORE.RESTR.CAVITY>
0

>  <SCORE.RESTR.norm>
0

>  <SCORE.SYSTEM>
0

>  <SCORE.SYSTEM.CONST>
0

>  <SCORE.SYSTEM.DIHEDRAL>
0

>  <SCORE.SYSTEM.SOLV>
0

>  <SCORE.SYSTEM.norm>
0

>  <SCORE.heavy>
11

>  <SCORE.norm>
-1.83974

>  <RMSD>
6.785

$$$$

 OpenBabel11021811383D
libRbt.so/2013.1/901 2013/11/27
 11 10  0  0  0  0  0  0  0  0999 V2000
   -4.1735   -3.9965    6.6532 N   0  3  0  0  0  0  0  0  0  0  0  0
   -3.0235   -3.0999    6.3289 C   0  0  2  0  0  0  0  0  0  0  0  0
   -1.8471   -3.4022    7.2724 C   0  0  0  0  0  0  0  0  0  0  0  0
   -0.7514   -3.6868    6.8266 O   0  0  0  0  0  0  0  0  0  0  0  0
   -3.4597   -1.6374    6.4897 C   0  0  0  0  0  0  0  0  0  0  0  0
   -4.3716   -1.2424    5.3247 C   0  0  0  0  0  0  0  0  0  0  0  0
   -4.7403    0.2349    5.4433 C   0  0  0  0  0  0  0  0  0  0  0  0
   -5.6034    0.6156    4.2917 N   0  3  0  0  0  0  0  0  0  0  0  0
   -5.0762    1.1617    3.2303 C   0  0  0  0  0  0  0  0  0  0  0  0
   -5.1424    0.5425    2.0801 N   0  0  0  0  0  0  0  0  0  0  0  0
   -4.4904    2.3278    3.3179 N   0  0  0  0  0  0  0  0  0  0  0  0
  2  1  1  1  0  0  0
  2  3  1  0  0  0  0
  2  5  1  0  0  0  0
  3  4  2  0  0  0  0
  5  6  1  0  0  0  0
  6  7  1  0  0  0  0
  7  8  1  0  0  0  0
  8  9  2  0  0  0  0
  9 10  1  0  0  0  0
  9 11  1  0  0  0  0
M  CHG  2   1   1   8   1
M  END
>  <CHROM.1>
62.27733220,124.64081961,-73.72462820,-176.79822852,178.84811294,-95.60277551
-3.89273018,-1.12341186,5.18569120,1.13935964,0.13002381,2.55424949

>  <Name>


>  <RI>
0

>  <Rbt.Current_Directory>
/home/itssahil/PROJECTS/Mol_Feturizer/New_Systems/rnas/1aju

>  <Rbt.Executable>
rbdock ($Id: //depot/dev/client3/rdock/2013.1/src/exe/rbdock.cxx#4 $)

>  <Rbt.Library>
libRbt.so (2013.1, Build901 2013/11/27)

>  <Rbt.Parameter_File>
/export/apps/rDock/src/rDock_2013.1_src/data/scripts/dock_solv.prm

>  <Rbt.Receptor>
prm/pocket_docking_8.prm

>  <SCORE>
-19.0006

>  <SCORE.INTER>
-15.9306

>  <SCORE.INTER.CONST>
1

>  <SCORE.INTER.POLAR>
-3.78209

>  <SCORE.INTER.ROT>
5

>  <SCORE.INTER.SOLV>
11.4831

>  <SCORE.INTER.VDW>
-8.77448

>  <SCORE.INTER.norm>
-1.44824

>  <SCORE.INTRA>
-3.06995

>  <SCORE.INTRA.DIHEDRAL>
-6.16844

>  <SCORE.INTRA.DIHEDRAL.0>
9.90185

>  <SCORE.INTRA.POLAR>
0

>  <SCORE.INTRA.POLAR.0>
0

>  <SCORE.INTRA.REPUL>
0

>  <SCORE.INTRA.REPUL.0>
0

>  <SCORE.INTRA.SOLV>
0.977902

>  <SCORE.INTRA.SOLV.lig_0>
-53.6586

>  <SCORE.INTRA.VDW>
-0.474683

>  <SCORE.INTRA.VDW.0>
-0.556525

>  <SCORE.INTRA.norm>
-0.279086

>  <SCORE.RESTR>
0

>  <SCORE.RESTR.CAVITY>
0

>  <SCORE.RESTR.norm>
0

>  <SCORE.SYSTEM>
0

>  <SCORE.SYSTEM.CONST>
0

>  <SCORE.SYSTEM.DIHEDRAL>
0

>  <SCORE.SYSTEM.SOLV>
0

>  <SCORE.SYSTEM.norm>
0

>  <SCORE.heavy>
11

>  <SCORE.norm>
-1.72732

>  <RMSD>
6.841

$$$$

 OpenBabel11021811383D
libRbt.so/2013.1/901 2013/11/27
 11 10  0  0  0  0  0  0  0  0999 V2000
   -5.0725   -3.3113    5.4543 N   0  3  0  0  0  0  0  0  0  0  0  0
   -5.4143   -1.9166    5.8660 C   0  0  2  0  0  0  0  0  0  0  0  0
   -6.8803   -1.6150    5.5118 C   0  0  0  0  0  0  0  0  0  0  0  0
   -7.5711   -2.4528    4.9628 O   0  0  0  0  0  0  0  0  0  0  0  0
   -4.4881   -0.9320    5.1396 C   0  0  0  0  0  0  0  0  0  0  0  0
   -4.4821    0.4087    5.8794 C   0  0  0  0  0  0  0  0  0  0  0  0
   -3.7770    1.4600    5.0250 C   0  0  0  0  0  0  0  0  0  0  0  0
   -4.6034    1.7422    3.8194 N   0  3  0  0  0  0  0  0  0  0  0  0
   -4.1395    1.4738    2.6297 C   0  0  0  0  0  0  0  0  0  0  0  0
   -4.7411    0.5840    1.8833 N   0  0  0  0  0  0  0  0  0  0  0  0
   -3.0804    2.0993    2.1849 N   0  0  0  0  0  0  0  0  0  0  0  0
  2  1  1  6  0  0  0
  2  3  1  0  0  0  0
  2  5  1  0  0  0  0
  3  4  2  0  0  0  0
  5  6  1  0  0  0  0
  6  7  1  0  0  0  0
  7  8  1  0  0  0  0
  8  9  2  0  0  0  0
  9 10  1  0  0  0  0
  9 11  1  0  0  0  0
M  CHG  2   1   1   8   1
M  END
>  <CHROM.1>
61.54641083,-0.80280316,-160.64057231,-169.49906145,67.77315625,-116.78854102
-4.93615425,-0.26476575,4.35949268,-2.30774181,-0.87409918,-1.18036073

>  <Name>


>  <RI>
0

>  <Rbt.Current_Directory>
/home/itssahil/PROJECTS/Mol_Feturizer/New_Systems/rnas/1aju

>  <Rbt.Executable>
rbdock ($Id: //depot/dev/client3/rdock/2013.1/src/exe/rbdock.cxx#4 $)

>  <Rbt.Library>
libRbt.so (2013.1, Build901 2013/11/27)

>  <Rbt.Parameter_File>
/export/apps/rDock/src/rDock_2013.1_src/data/scripts/dock_solv.prm

>  <Rbt.Receptor>
prm/pocket_docking_8.prm

>  <SCORE>
-16.6233

>  <SCORE.INTER>
-14.4832

>  <SCORE.INTER.CONST>
1

>  <SCORE.INTER.POLAR>
-3.27378

>  <SCORE.INTER.ROT>
5

>  <SCORE.INTER.SOLV>
9.42259

>  <SCORE.INTER.VDW>
-8.81705

>  <SCORE.INTER.norm>
-1.31665

>  <SCORE.INTRA>
-2.1401

>  <SCORE.INTRA.DIHEDRAL>
-5.04861

>  <SCORE.INTRA.DIHEDRAL.0>
9.90185

>  <SCORE.INTRA.POLAR>
0

>  <SCORE.INTRA.POLAR.0>
0

>  <SCORE.INTRA.REPUL>
0

>  <SCORE.INTRA.REPUL.0>
0

>  <SCORE.INTRA.SOLV>
1.75738

>  <SCORE.INTRA.SOLV.lig_0>
-53.6586

>  <SCORE.INTRA.VDW>
-0.49448

>  <SCORE.INTRA.VDW.0>
-0.556525

>  <SCORE.INTRA.norm>
-0.194554

>  <SCORE.RESTR>
0

>  <SCORE.RESTR.CAVITY>
0

>  <SCORE.RESTR.norm>
0

>  <SCORE.SYSTEM>
0

>  <SCORE.SYSTEM.CONST>
0

>  <SCORE.SYSTEM.DIHEDRAL>
0

>  <SCORE.SYSTEM.SOLV>
0

>  <SCORE.SYSTEM.norm>
0

>  <SCORE.heavy>
11

>  <SCORE.norm>
-1.5112

>  <RMSD>
7.356

$$$$

 OpenBabel11021811383D
libRbt.so/2013.1/901 2013/11/27
 11 10  0  0  0  0  0  0  0  0999 V2000
  -11.3028    5.6231    1.9891 N   0  3  0  0  0  0  0  0  0  0  0  0
  -10.3454    6.6676    1.5159 C   0  0  2  0  0  0  0  0  0  0  0  0
  -10.6803    8.0161    2.1755 C   0  0  0  0  0  0  0  0  0  0  0  0
   -9.9030    8.9498    2.1085 O   0  0  0  0  0  0  0  0  0  0  0  0
  -10.4454    6.7932   -0.0102 C   0  0  0  0  0  0  0  0  0  0  0  0
   -9.8889    5.5270   -0.6674 C   0  0  0  0  0  0  0  0  0  0  0  0
   -9.8494    5.7135   -2.1827 C   0  0  0  0  0  0  0  0  0  0  0  0
  -11.2169    6.0445   -2.6686 N   0  3  0  0  0  0  0  0  0  0  0  0
  -11.6376    5.5752   -3.8113 C   0  0  0  0  0  0  0  0  0  0  0  0
  -12.6614    4.7619   -3.8423 N   0  0  0  0  0  0  0  0  0  0  0  0
  -11.0398    5.9246   -4.9209 N   0  0  0  0  0  0  0  0  0  0  0  0
  2  1  1  1  0  0  0
  2  3  1  0  0  0  0
  2  5  1  0  0  0  0
  3  4  2  0  0  0  0
  5  6  1  0  0  0  0
  6  7  1  0  0  0  0
  7  8  1  0  0  0  0
  8  9  2  0  0  0  0
  9 10  1  0  0  0  0
  9 11  1  0  0  0  0
M  CHG  2   1   1   8   1
M  END
>  <CHROM.1>
58.40274564,167.76012139,-68.89671868,-173.93941230,-56.84878829,-142.95012198
-10.84518046,6.31328391,-0.94058989,1.23876126,1.01553670,1.53040709

>  <Name>


>  <RI>
0

>  <Rbt.Current_Directory>
/home/itssahil/PROJECTS/Mol_Feturizer/New_Systems/rnas/1aju

>  <Rbt.Executable>
rbdock ($Id: //depot/dev/client3/rdock/2013.1/src/exe/rbdock.cxx#4 $)

>  <Rbt.Library>
libRbt.so (2013.1, Build901 2013/11/27)

>  <Rbt.Parameter_File>
/export/apps/rDock/src/rDock_2013.1_src/data/scripts/dock_solv.prm

>  <Rbt.Receptor>
prm/blind_docking_40.prm

>  <SCORE>
-24.2388

>  <SCORE.INTER>
-23.4275

>  <SCORE.INTER.CONST>
1

>  <SCORE.INTER.POLAR>
-3.43341

>  <SCORE.INTER.ROT>
5

>  <SCORE.INTER.SOLV>
19.5062

>  <SCORE.INTER.VDW>
-17.609

>  <SCORE.INTER.norm>
-2.12977

>  <SCORE.INTRA>
-0.815776

>  <SCORE.INTRA.DIHEDRAL>
-4.06271

>  <SCORE.INTRA.DIHEDRAL.0>
9.90185

>  <SCORE.INTRA.POLAR>
0

>  <SCORE.INTRA.POLAR.0>
0

>  <SCORE.INTRA.REPUL>
0

>  <SCORE.INTRA.REPUL.0>
0

>  <SCORE.INTRA.SOLV>
1.25994

>  <SCORE.INTRA.SOLV.lig_0>
-53.6586

>  <SCORE.INTRA.VDW>
0.585611

>  <SCORE.INTRA.VDW.0>
-0.556525

>  <SCORE.INTRA.norm>
-0.0741614

>  <SCORE.RESTR>
0.00445355

>  <SCORE.RESTR.CAVITY>
0.00445355

>  <SCORE.RESTR.norm>
0.000404869

>  <SCORE.SYSTEM>
0

>  <SCORE.SYSTEM.CONST>
0

>  <SCORE.SYSTEM.DIHEDRAL>
0

>  <SCORE.SYSTEM.SOLV>
0

>  <SCORE.SYSTEM.norm>
0

>  <SCORE.heavy>
11

>  <SCORE.norm>
-2.20353

>  <RMSD>
13.253

$$$$

 OpenBabel11021811383D
libRbt.so/2013.1/901 2013/11/27
 11 10  0  0  0  0  0  0  0  0999 V2000
  -11.5355    7.2286    2.5859 N   0  3  0  0  0  0  0  0  0  0  0  0
  -11.5507    6.1844    1.5177 C   0  0  2  0  0  0  0  0  0  0  0  0
  -10.1241    5.9638    0.9867 C   0  0  0  0  0  0  0  0  0  0  0  0
   -9.8906    6.0180   -0.2061 O   0  0  0  0  0  0  0  0  0  0  0  0
  -12.4685    6.6408    0.3756 C   0  0  0  0  0  0  0  0  0  0  0  0
  -12.8397    5.4382   -0.4967 C   0  0  0  0  0  0  0  0  0  0  0  0
  -12.6523    5.7983   -1.9690 C   0  0  0  0  0  0  0  0  0  0  0  0
  -11.4434    5.1036   -2.4904 N   0  3  0  0  0  0  0  0  0  0  0  0
  -10.6778    5.6912   -3.3686 C   0  0  0  0  0  0  0  0  0  0  0  0
   -9.4371    5.9722   -3.0644 N   0  0  0  0  0  0  0  0  0  0  0  0
  -11.1502    5.9906   -4.5510 N   0  0  0  0  0  0  0  0  0  0  0  0
  2  1  1  1  0  0  0
  2  3  1  0  0  0  0
  2  5  1  0  0  0  0
  3  4  2  0  0  0  0
  5  6  1  0  0  0  0
  6  7  1  0  0  0  0
  7  8  1  0  0  0  0
  8  9  2  0  0  0  0
  9 10  1  0  0  0  0
  9 11  1  0  0  0  0
M  CHG  2   1   1   8   1
M  END
>  <CHROM.1>
177.36308894,-127.75925240,-162.47815568,-132.69557790,106.96191459,-144.18425080
-11.22488508,6.02447036,-0.97016014,-1.69035061,-0.07150588,-1.73992291

>  <Name>


>  <RI>
0

>  <Rbt.Current_Directory>
/home/itssahil/PROJECTS/Mol_Feturizer/New_Systems/rnas/1aju

>  <Rbt.Executable>
rbdock ($Id: //depot/dev/client3/rdock/2013.1/src/exe/rbdock.cxx#4 $)

>  <Rbt.Library>
libRbt.so (2013.1, Build901 2013/11/27)

>  <Rbt.Parameter_File>
/export/apps/rDock/src/rDock_2013.1_src/data/scripts/dock_solv.prm

>  <Rbt.Receptor>
prm/blind_docking_40.prm

>  <SCORE>
-18.8666

>  <SCORE.INTER>
-19.6698

>  <SCORE.INTER.CONST>
1

>  <SCORE.INTER.POLAR>
-3.96875

>  <SCORE.INTER.ROT>
5

>  <SCORE.INTER.SOLV>
19.3113

>  <SCORE.INTER.VDW>
-13.2545

>  <SCORE.INTER.norm>
-1.78817

>  <SCORE.INTRA>
0.799506

>  <SCORE.INTRA.DIHEDRAL>
4.5012

>  <SCORE.INTRA.DIHEDRAL.0>
9.90185

>  <SCORE.INTRA.POLAR>
-0.769497

>  <SCORE.INTRA.POLAR.0>
0

>  <SCORE.INTRA.REPUL>
0

>  <SCORE.INTRA.REPUL.0>
0

>  <SCORE.INTRA.SOLV>
2.13543

>  <SCORE.INTRA.SOLV.lig_0>
-53.6586

>  <SCORE.INTRA.VDW>
0.0974782

>  <SCORE.INTRA.VDW.0>
-0.556525

>  <SCORE.INTRA.norm>
0.0726823

>  <SCORE.RESTR>
0.00370209

>  <SCORE.RESTR.CAVITY>
0.00370209

>  <SCORE.RESTR.norm>
0.000336553

>  <SCORE.SYSTEM>
0

>  <SCORE.SYSTEM.CONST>
0

>  <SCORE.SYSTEM.DIHEDRAL>
0

>  <SCORE.SYSTEM.SOLV>
0

>  <SCORE.SYSTEM.norm>
0

>  <SCORE.heavy>
11

>  <SCORE.norm>
-1.71515

>  <RMSD>
13.290

$$$$

 OpenBabel11021811383D
libRbt.so/2013.1/901 2013/11/27
 11 10  0  0  0  0  0  0  0  0999 V2000
  -11.9776    8.0603    1.3200 N   0  3  0  0  0  0  0  0  0  0  0  0
  -11.8741    6.5704    1.3540 C   0  0  2  0  0  0  0  0  0  0  0  0
  -11.9750    6.0759    2.8070 C   0  0  0  0  0  0  0  0  0  0  0  0
  -12.5377    5.0294    3.0686 O   0  0  0  0  0  0  0  0  0  0  0  0
  -10.5311    6.1415    0.7482 C   0  0  0  0  0  0  0  0  0  0  0  0
  -10.7249    4.8692   -0.0816 C   0  0  0  0  0  0  0  0  0  0  0  0
  -10.0782    5.0509   -1.4532 C   0  0  0  0  0  0  0  0  0  0  0  0
  -10.8311    6.0856   -2.2137 N   0  3  0  0  0  0  0  0  0  0  0  0
  -10.9401    5.9955   -3.5109 C   0  0  0  0  0  0  0  0  0  0  0  0
  -12.1200    5.8447   -4.0548 N   0  0  0  0  0  0  0  0  0  0  0  0
   -9.8719    6.0632   -4.2626 N   0  0  0  0  0  0  0  0  0  0  0  0
  2  1  1  1  0  0  0
  2  3  1  0  0  0  0
  2  5  1  0  0  0  0
  3  4  2  0  0  0  0
  5  6  1  0  0  0  0
  6  7  1  0  0  0  0
  7  8  1  0  0  0  0
  8  9  2  0  0  0  0
  9 10  1  0  0  0  0
  9 11  1  0  0  0  0
M  CHG  2   1   1   8   1
M  END
>  <CHROM.1>
62.23871028,144.42355872,-141.58388604,130.77004023,-67.13504576,-146.93619416
-11.24443732,6.01427863,-0.58979705,2.01850197,-1.09722483,1.92963366

>  <Name>


>  <RI>
0

>  <Rbt.Current_Directory>
/home/itssahil/PROJECTS/Mol_Feturizer/New_Systems/rnas/1aju

>  <Rbt.Executable>
rbdock ($Id: //depot/dev/client3/rdock/2013.1/src/exe/rbdock.cxx#4 $)

>  <Rbt.Library>
libRbt.so (2013.1, Build901 2013/11/27)

>  <Rbt.Parameter_File>
/export/apps/rDock/src/rDock_2013.1_src/data/scripts/dock_solv.prm

>  <Rbt.Receptor>
prm/blind_docking_40.prm

>  <SCORE>
-17.3116

>  <SCORE.INTER>
-19.2973

>  <SCORE.INTER.CONST>
1

>  <SCORE.INTER.POLAR>
-4.35578

>  <SCORE.INTER.ROT>
5

>  <SCORE.INTER.SOLV>
20.3077

>  <SCORE.INTER.VDW>
-12.0482

>  <SCORE.INTER.norm>
-1.7543

>  <SCORE.INTRA>
1.98243

>  <SCORE.INTRA.DIHEDRAL>
3.49461

>  <SCORE.INTRA.DIHEDRAL.0>
9.90185

>  <SCORE.INTRA.POLAR>
0

>  <SCORE.INTRA.POLAR.0>
0

>  <SCORE.INTRA.REPUL>
0.00349999

>  <SCORE.INTRA.REPUL.0>
0

>  <SCORE.INTRA.SOLV>
1.21434

>  <SCORE.INTRA.SOLV.lig_0>
-53.6586

>  <SCORE.INTRA.VDW>
-0.38955

>  <SCORE.INTRA.VDW.0>
-0.556525

>  <SCORE.INTRA.norm>
0.180221

>  <SCORE.RESTR>
0.00329522

>  <SCORE.RESTR.CAVITY>
0.00329522

>  <SCORE.RESTR.norm>
0.000299566

>  <SCORE.SYSTEM>
0

>  <SCORE.SYSTEM.CONST>
0

>  <SCORE.SYSTEM.DIHEDRAL>
0

>  <SCORE.SYSTEM.SOLV>
0

>  <SCORE.SYSTEM.norm>
0

>  <SCORE.heavy>
11

>  <SCORE.norm>
-1.57378

>  <RMSD>
13.326

$$$$

 OpenBabel11021811383D
libRbt.so/2013.1/901 2013/11/27
 11 10  0  0  0  0  0  0  0  0999 V2000
  -11.4528    4.9995    1.7369 N   0  3  0  0  0  0  0  0  0  0  0  0
  -11.4705    6.0447    0.6697 C   0  0  2  0  0  0  0  0  0  0  0  0
  -11.1429    7.4173    1.2816 C   0  0  0  0  0  0  0  0  0  0  0  0
  -10.1753    8.0504    0.9033 O   0  0  0  0  0  0  0  0  0  0  0  0
  -12.8596    6.0810    0.0185 C   0  0  0  0  0  0  0  0  0  0  0  0
  -13.1463    4.7361   -0.6553 C   0  0  0  0  0  0  0  0  0  0  0  0
  -12.5403    4.7280   -2.0571 C   0  0  0  0  0  0  0  0  0  0  0  0
  -11.5827    5.8610   -2.1805 N   0  3  0  0  0  0  0  0  0  0  0  0
  -10.3274    5.6310   -2.4525 C   0  0  0  0  0  0  0  0  0  0  0  0
   -9.8101    6.0842   -3.5651 N   0  0  0  0  0  0  0  0  0  0  0  0
   -9.5894    4.9556   -1.6100 N   0  0  0  0  0  0  0  0  0  0  0  0
  2  1  1  1  0  0  0
  2  3  1  0  0  0  0
  2  5  1  0  0  0  0
  3  4  2  0  0  0  0
  5  6  1  0  0  0  0
  6  7  1  0  0  0  0
  7  8  1  0  0  0  0
  8  9  2  0  0  0  0
  9 10  1  0  0  0  0
  9 11  1  0  0  0  0
M  CHG  2   1   1   8   1
M  END
>  <CHROM.1>
168.43865992,119.98042032,-62.62846891,-84.71005443,14.59802338,120.08600276
-11.24117695,5.86577325,-0.70408249,1.83397047,0.59472797,1.20099440

>  <Name>


>  <RI>
0

>  <Rbt.Current_Directory>
/home/itssahil/PROJECTS/Mol_Feturizer/New_Systems/rnas/1aju

>  <Rbt.Executable>
rbdock ($Id: //depot/dev/client3/rdock/2013.1/src/exe/rbdock.cxx#4 $)

>  <Rbt.Library>
libRbt.so (2013.1, Build901 2013/11/27)

>  <Rbt.Parameter_File>
/export/apps/rDock/src/rDock_2013.1_src/data/scripts/dock_solv.prm

>  <Rbt.Receptor>
prm/blind_docking_40.prm

>  <SCORE>
-20.7238

>  <SCORE.INTER>
-26.425

>  <SCORE.INTER.CONST>
1

>  <SCORE.INTER.POLAR>
-5.32003

>  <SCORE.INTER.ROT>
5

>  <SCORE.INTER.SOLV>
23.4397

>  <SCORE.INTER.VDW>
-14.6298

>  <SCORE.INTER.norm>
-2.40227

>  <SCORE.INTRA>
5.70122

>  <SCORE.INTRA.DIHEDRAL>
0.362908

>  <SCORE.INTRA.DIHEDRAL.0>
9.90185

>  <SCORE.INTRA.POLAR>
0

>  <SCORE.INTRA.POLAR.0>
0

>  <SCORE.INTRA.REPUL>
0

>  <SCORE.INTRA.REPUL.0>
0

>  <SCORE.INTRA.SOLV>
5.15879

>  <SCORE.INTRA.SOLV.lig_0>
-53.6586

>  <SCORE.INTRA.VDW>
2.94038

>  <SCORE.INTRA.VDW.0>
-0.556525

>  <SCORE.INTRA.norm>
0.518293

>  <SCORE.RESTR>
0

>  <SCORE.RESTR.CAVITY>
0

>  <SCORE.RESTR.norm>
0

>  <SCORE.SYSTEM>
0

>  <SCORE.SYSTEM.CONST>
0

>  <SCORE.SYSTEM.DIHEDRAL>
0

>  <SCORE.SYSTEM.SOLV>
0

>  <SCORE.SYSTEM.norm>
0

>  <SCORE.heavy>
11

>  <SCORE.norm>
-1.88398

>  <RMSD>
13.357

$$$$

 OpenBabel11021811383D
libRbt.so/2013.1/901 2013/11/27
 11 10  0  0  0  0  0  0  0  0999 V2000
  -12.1462    3.7070    0.3470 N   0  3  0  0  0  0  0  0  0  0  0  0
  -11.2951    4.6211   -0.4725 C   0  0  2  0  0  0  0  0  0  0  0  0
  -10.6879    5.7110    0.4271 C   0  0  0  0  0  0  0  0  0  0  0  0
  -11.0314    6.8725    0.3128 O   0  0  0  0  0  0  0  0  0  0  0  0
  -12.1537    5.2667   -1.5684 C   0  0  0  0  0  0  0  0  0  0  0  0
  -11.2706    5.6296   -2.7656 C   0  0  0  0  0  0  0  0  0  0  0  0
  -12.1490    6.0918   -3.9263 C   0  0  0  0  0  0  0  0  0  0  0  0
  -11.3108    6.2230   -5.1495 N   0  3  0  0  0  0  0  0  0  0  0  0
  -11.7363    5.7507   -6.2890 C   0  0  0  0  0  0  0  0  0  0  0  0
  -11.9553    6.5652   -7.2887 N   0  0  0  0  0  0  0  0  0  0  0  0
  -11.9353    4.4658   -6.4303 N   0  0  0  0  0  0  0  0  0  0  0  0
  2  1  1  1  0  0  0
  2  3  1  0  0  0  0
  2  5  1  0  0  0  0
  3  4  2  0  0  0  0
  5  6  1  0  0  0  0
  6  7  1  0  0  0  0
  7  8  1  0  0  0  0
  8  9  2  0  0  0  0
  9 10  1  0  0  0  0
  9 11  1  0  0  0  0
M  CHG  2   1   1   8   1
M  END
>  <CHROM.1>
27.32694967,-111.95958104,-152.91800017,172.23320912,-170.60704727,134.96040634
-11.62247006,5.52117086,-2.98631724,1.37268638,1.25340518,1.85225013

>  <Name>


>  <RI>
0

>  <Rbt.Current_Directory>
/home/itssahil/PROJECTS/Mol_Feturizer/New_Systems/rnas/1aju

>  <Rbt.Executable>
rbdock ($Id: //depot/dev/client3/rdock/2013.1/src/exe/rbdock.cxx#4 $)

>  <Rbt.Library>
libRbt.so (2013.1, Build901 2013/11/27)

>  <Rbt.Parameter_File>
/export/apps/rDock/src/rDock_2013.1_src/data/scripts/dock_solv.prm

>  <Rbt.Receptor>
prm/blind_docking_40.prm

>  <SCORE>
-20.2015

>  <SCORE.INTER>
-20.4187

>  <SCORE.INTER.CONST>
1

>  <SCORE.INTER.POLAR>
-3.38916

>  <SCORE.INTER.ROT>
5

>  <SCORE.INTER.SOLV>
17.6073

>  <SCORE.INTER.VDW>
-15.1177

>  <SCORE.INTER.norm>
-1.85625

>  <SCORE.INTRA>
0.217179

>  <SCORE.INTRA.DIHEDRAL>
-1.9903

>  <SCORE.INTRA.DIHEDRAL.0>
9.90185

>  <SCORE.INTRA.POLAR>
0

>  <SCORE.INTRA.POLAR.0>
0

>  <SCORE.INTRA.REPUL>
0

>  <SCORE.INTRA.REPUL.0>
0

>  <SCORE.INTRA.SOLV>
0.251982

>  <SCORE.INTRA.SOLV.lig_0>
-53.6586

>  <SCORE.INTRA.VDW>
1.08634

>  <SCORE.INTRA.VDW.0>
-0.556525

>  <SCORE.INTRA.norm>
0.0197436

>  <SCORE.RESTR>
0

>  <SCORE.RESTR.CAVITY>
0

>  <SCORE.RESTR.norm>
0

>  <SCORE.SYSTEM>
0

>  <SCORE.SYSTEM.CONST>
0

>  <SCORE.SYSTEM.DIHEDRAL>
0

>  <SCORE.SYSTEM.SOLV>
0

>  <SCORE.SYSTEM.norm>
0

>  <SCORE.heavy>
11

>  <SCORE.norm>
-1.8365

>  <RMSD>
13.406

$$$$

 OpenBabel11021811383D
libRbt.so/2013.1/901 2013/11/27
 11 10  0  0  0  0  0  0  0  0999 V2000
  -10.3098    6.2511    1.8087 N   0  3  0  0  0  0  0  0  0  0  0  0
  -11.4868    6.3681    0.8962 C   0  0  2  0  0  0  0  0  0  0  0  0
  -12.7510    5.8627    1.6119 C   0  0  0  0  0  0  0  0  0  0  0  0
  -13.7910    6.4912    1.5520 O   0  0  0  0  0  0  0  0  0  0  0  0
  -11.2334    5.5351   -0.3674 C   0  0  0  0  0  0  0  0  0  0  0  0
   -9.9928    6.0651   -1.0918 C   0  0  0  0  0  0  0  0  0  0  0  0
  -10.0474    5.6575   -2.5627 C   0  0  0  0  0  0  0  0  0  0  0  0
  -11.3392    6.1119   -3.1465 N   0  3  0  0  0  0  0  0  0  0  0  0
  -11.9298    5.3983   -4.0655 C   0  0  0  0  0  0  0  0  0  0  0  0
  -13.1067    4.8791   -3.8285 N   0  0  0  0  0  0  0  0  0  0  0  0
  -11.3476    5.2105   -5.2215 N   0  0  0  0  0  0  0  0  0  0  0  0
  2  1  1  1  0  0  0
  2  3  1  0  0  0  0
  2  5  1  0  0  0  0
  3  4  2  0  0  0  0
  5  6  1  0  0  0  0
  6  7  1  0  0  0  0
  7  8  1  0  0  0  0
  8  9  2  0  0  0  0
  9 10  1  0  0  0  0
  9 11  1  0  0  0  0
M  CHG  2   1   1   8   1
M  END
>  <CHROM.1>
-45.43719807,134.92915914,-60.85294760,-157.43186218,54.17645840,-145.82817651
-11.58329749,5.80523602,-1.30417968,-1.61535596,-0.07842602,-1.72891502

>  <Name>


>  <RI>
0

>  <Rbt.Current_Directory>
/home/itssahil/PROJECTS/Mol_Feturizer/New_Systems/rnas/1aju

>  <Rbt.Executable>
rbdock ($Id: //depot/dev/client3/rdock/2013.1/src/exe/rbdock.cxx#4 $)

>  <Rbt.Library>
libRbt.so (2013.1, Build901 2013/11/27)

>  <Rbt.Parameter_File>
/export/apps/rDock/src/rDock_2013.1_src/data/scripts/dock_solv.prm

>  <Rbt.Receptor>
prm/blind_docking_40.prm

>  <SCORE>
-24.892

>  <SCORE.INTER>
-24.2311

>  <SCORE.INTER.CONST>
1

>  <SCORE.INTER.POLAR>
-4.75706

>  <SCORE.INTER.ROT>
5

>  <SCORE.INTER.SOLV>
20.3307

>  <SCORE.INTER.VDW>
-14.0074

>  <SCORE.INTER.norm>
-2.20282

>  <SCORE.INTRA>
-0.98316

>  <SCORE.INTRA.DIHEDRAL>
-4.06848

>  <SCORE.INTRA.DIHEDRAL.0>
9.90185

>  <SCORE.INTRA.POLAR>
0

>  <SCORE.INTRA.POLAR.0>
0

>  <SCORE.INTRA.REPUL>
0

>  <SCORE.INTRA.REPUL.0>
0

>  <SCORE.INTRA.SOLV>
1.68405

>  <SCORE.INTRA.SOLV.lig_0>
-53.6586

>  <SCORE.INTRA.VDW>
0.209054

>  <SCORE.INTRA.VDW.0>
-0.556525

>  <SCORE.INTRA.norm>
-0.0893782

>  <SCORE.RESTR>
0.322192

>  <SCORE.RESTR.CAVITY>
0.322192

>  <SCORE.RESTR.norm>
0.0292902

>  <SCORE.SYSTEM>
0

>  <SCORE.SYSTEM.CONST>
0

>  <SCORE.SYSTEM.DIHEDRAL>
0

>  <SCORE.SYSTEM.SOLV>
0

>  <SCORE.SYSTEM.norm>
0

>  <SCORE.heavy>
11

>  <SCORE.norm>
-2.26291

>  <RMSD>
13.409

$$$$

 OpenBabel11021811383D
libRbt.so/2013.1/901 2013/11/27
 11 10  0  0  0  0  0  0  0  0999 V2000
  -10.3815    8.1590    0.8301 N   0  3  0  0  0  0  0  0  0  0  0  0
  -11.2541    7.0512    1.3231 C   0  0  2  0  0  0  0  0  0  0  0  0
  -11.5692    7.2625    2.8136 C   0  0  0  0  0  0  0  0  0  0  0  0
  -11.9512    6.3367    3.5045 O   0  0  0  0  0  0  0  0  0  0  0  0
  -10.5323    5.7113    1.1264 C   0  0  0  0  0  0  0  0  0  0  0  0
  -11.3334    4.8333    0.1609 C   0  0  0  0  0  0  0  0  0  0  0  0
  -10.7011    4.8935   -1.2280 C   0  0  0  0  0  0  0  0  0  0  0  0
  -11.3887    5.9411   -2.0314 N   0  3  0  0  0  0  0  0  0  0  0  0
  -11.3738    5.8822   -3.3349 C   0  0  0  0  0  0  0  0  0  0  0  0
  -12.4955    5.7362   -3.9916 N   0  0  0  0  0  0  0  0  0  0  0  0
  -10.2401    5.9763   -3.9802 N   0  0  0  0  0  0  0  0  0  0  0  0
  2  1  1  1  0  0  0
  2  3  1  0  0  0  0
  2  5  1  0  0  0  0
  3  4  2  0  0  0  0
  5  6  1  0  0  0  0
  6  7  1  0  0  0  0
  7  8  1  0  0  0  0
  8  9  2  0  0  0  0
  9 10  1  0  0  0  0
  9 11  1  0  0  0  0
M  CHG  2   1   1   8   1
M  END
>  <CHROM.1>
76.84646570,-160.42547763,-117.59325797,100.69607284,-94.44767241,-156.08886901
-11.19533722,6.19300621,-0.46364411,-1.58237096,-1.20406654,-1.75657215

>  <Name>


>  <RI>
0

>  <Rbt.Current_Directory>
/home/itssahil/PROJECTS/Mol_Feturizer/New_Systems/rnas/1aju

>  <Rbt.Executable>
rbdock ($Id: //depot/dev/client3/rdock/2013.1/src/exe/rbdock.cxx#4 $)

>  <Rbt.Library>
libRbt.so (2013.1, Build901 2013/11/27)

>  <Rbt.Parameter_File>
/export/apps/rDock/src/rDock_2013.1_src/data/scripts/dock_solv.prm

>  <Rbt.Receptor>
prm/blind_docking_40.prm

>  <SCORE>
-21.4358

>  <SCORE.INTER>
-27.3283

>  <SCORE.INTER.CONST>
1

>  <SCORE.INTER.POLAR>
-5.15003

>  <SCORE.INTER.ROT>
5

>  <SCORE.INTER.SOLV>
23.7364

>  <SCORE.INTER.VDW>
-15.8976

>  <SCORE.INTER.norm>
-2.48439

>  <SCORE.INTRA>
5.2792

>  <SCORE.INTRA.DIHEDRAL>
8.91892

>  <SCORE.INTRA.DIHEDRAL.0>
9.90185

>  <SCORE.INTRA.POLAR>
0

>  <SCORE.INTRA.POLAR.0>
0

>  <SCORE.INTRA.REPUL>
0

>  <SCORE.INTRA.REPUL.0>
0

>  <SCORE.INTRA.SOLV>
2.15138

>  <SCORE.INTRA.SOLV.lig_0>
-53.6586

>  <SCORE.INTRA.VDW>
-0.255951

>  <SCORE.INTRA.VDW.0>
-0.556525

>  <SCORE.INTRA.norm>
0.479927

>  <SCORE.RESTR>
0.613324

>  <SCORE.RESTR.CAVITY>
0.613324

>  <SCORE.RESTR.norm>
0.0557568

>  <SCORE.SYSTEM>
0

>  <SCORE.SYSTEM.CONST>
0

>  <SCORE.SYSTEM.DIHEDRAL>
0

>  <SCORE.SYSTEM.SOLV>
0

>  <SCORE.SYSTEM.norm>
0

>  <SCORE.heavy>
11

>  <SCORE.norm>
-1.94871

>  <RMSD>
13.413

$$$$

 OpenBabel11021811383D
libRbt.so/2013.1/901 2013/11/27
 11 10  0  0  0  0  0  0  0  0999 V2000
  -10.3877    8.1670    0.8689 N   0  3  0  0  0  0  0  0  0  0  0  0
  -11.3199    7.2017    1.5253 C   0  0  2  0  0  0  0  0  0  0  0  0
  -11.3476    7.4560    3.0419 C   0  0  0  0  0  0  0  0  0  0  0  0
  -10.7408    8.3933    3.5251 O   0  0  0  0  0  0  0  0  0  0  0  0
  -10.8471    5.7691    1.2442 C   0  0  0  0  0  0  0  0  0  0  0  0
  -11.8440    5.0724    0.3138 C   0  0  0  0  0  0  0  0  0  0  0  0
  -11.1428    4.6828   -0.9859 C   0  0  0  0  0  0  0  0  0  0  0  0
  -10.9923    5.8928   -1.8399 N   0  3  0  0  0  0  0  0  0  0  0  0
  -10.2360    5.8546   -2.9026 C   0  0  0  0  0  0  0  0  0  0  0  0
  -10.7669    6.0336   -4.0845 N   0  0  0  0  0  0  0  0  0  0  0  0
   -8.9506    5.6451   -2.7825 N   0  0  0  0  0  0  0  0  0  0  0  0
  2  1  1  6  0  0  0
  2  3  1  0  0  0  0
  2  5  1  0  0  0  0
  3  4  2  0  0  0  0
  5  6  1  0  0  0  0
  6  7  1  0  0  0  0
  7  8  1  0  0  0  0
  8  9  2  0  0  0  0
  9 10  1  0  0  0  0
  9 11  1  0  0  0  0
M  CHG  2   1   1   8   1
M  END
>  <CHROM.1>
71.17629944,4.84233099,-111.26358435,118.47704980,-77.25977597,169.02438951
-10.74530767,6.42482485,-0.21767004,-1.79240384,-1.02034492,-2.10019932

>  <Name>


>  <RI>
0

>  <Rbt.Current_Directory>
/home/itssahil/PROJECTS/Mol_Feturizer/New_Systems/rnas/1aju

>  <Rbt.Executable>
rbdock ($Id: //depot/dev/client3/rdock/2013.1/src/exe/rbdock.cxx#4 $)

>  <Rbt.Library>
libRbt.so (2013.1, Build901 2013/11/27)

>  <Rbt.Parameter_File>
/export/apps/rDock/src/rDock_2013.1_src/data/scripts/dock_solv.prm

>  <Rbt.Receptor>
prm/blind_docking_60.prm

>  <SCORE>
-30.6377

>  <SCORE.INTER>
-35.1596

>  <SCORE.INTER.CONST>
1

>  <SCORE.INTER.POLAR>
-6.56567

>  <SCORE.INTER.ROT>
5

>  <SCORE.INTER.SOLV>
28.6519

>  <SCORE.INTER.VDW>
-18.0381

>  <SCORE.INTER.norm>
-3.19632

>  <SCORE.INTRA>
4.52008

>  <SCORE.INTRA.DIHEDRAL>
5.45217

>  <SCORE.INTRA.DIHEDRAL.0>
9.90185

>  <SCORE.INTRA.POLAR>
0

>  <SCORE.INTRA.POLAR.0>
0

>  <SCORE.INTRA.REPUL>
0.0963241

>  <SCORE.INTRA.REPUL.0>
0

>  <SCORE.INTRA.SOLV>
3.85361

>  <SCORE.INTRA.SOLV.lig_0>
-53.6586

>  <SCORE.INTRA.VDW>
-0.614437

>  <SCORE.INTRA.VDW.0>
-0.556525

>  <SCORE.INTRA.norm>
0.410916

>  <SCORE.RESTR>
0.00182783

>  <SCORE.RESTR.CAVITY>
0.00182783

>  <SCORE.RESTR.norm>
0.000166167

>  <SCORE.SYSTEM>
0

>  <SCORE.SYSTEM.CONST>
0

>  <SCORE.SYSTEM.DIHEDRAL>
0

>  <SCORE.SYSTEM.SOLV>
0

>  <SCORE.SYSTEM.norm>
0

>  <SCORE.heavy>
11

>  <SCORE.norm>
-2.78524

>  <RMSD>
13.416

$$$$

 OpenBabel11021811383D
libRbt.so/2013.1/901 2013/11/27
 11 10  0  0  0  0  0  0  0  0999 V2000
  -11.9405    8.5079    2.5155 N   0  3  0  0  0  0  0  0  0  0  0  0
  -11.7640    7.1078    2.0253 C   0  0  2  0  0  0  0  0  0  0  0  0
  -12.1264    6.1163    3.1440 C   0  0  0  0  0  0  0  0  0  0  0  0
  -12.6134    5.0332    2.8795 O   0  0  0  0  0  0  0  0  0  0  0  0
  -10.3054    6.9009    1.5960 C   0  0  0  0  0  0  0  0  0  0  0  0
  -10.2412    6.6877    0.0810 C   0  0  0  0  0  0  0  0  0  0  0  0
  -11.0893    5.4761   -0.3003 C   0  0  0  0  0  0  0  0  0  0  0  0
  -10.5506    4.8791   -1.5530 N   0  3  0  0  0  0  0  0  0  0  0  0
  -10.3040    5.6366   -2.5865 C   0  0  0  0  0  0  0  0  0  0  0  0
   -9.0789    5.7524   -3.0296 N   0  0  0  0  0  0  0  0  0  0  0  0
  -11.2819    6.2711   -3.1797 N   0  0  0  0  0  0  0  0  0  0  0  0
  2  1  1  1  0  0  0
  2  3  1  0  0  0  0
  2  5  1  0  0  0  0
  3  4  2  0  0  0  0
  5  6  1  0  0  0  0
  6  7  1  0  0  0  0
  7  8  1  0  0  0  0
  8  9  2  0  0  0  0
  9 10  1  0  0  0  0
  9 11  1  0  0  0  0
M  CHG  2   1   1   8   1
M  END
>  <CHROM.1>
173.40167827,147.93914502,-113.13241391,-58.55706580,-153.09929487,-49.38047913
-11.03549683,6.23641139,0.13196948,-2.42828086,-1.14439300,-2.57508864

>  <Name>


>  <RI>
0

>  <Rbt.Current_Directory>
/home/itssahil/PROJECTS/Mol_Feturizer/New_Systems/rnas/1aju

>  <Rbt.Executable>
rbdock ($Id: //depot/dev/client3/rdock/2013.1/src/exe/rbdock.cxx#4 $)

>  <Rbt.Library>
libRbt.so (2013.1, Build901 2013/11/27)

>  <Rbt.Parameter_File>
/export/apps/rDock/src/rDock_2013.1_src/data/scripts/dock_solv.prm

>  <Rbt.Receptor>
prm/blind_docking_40.prm

>  <SCORE>
-17.317

>  <SCORE.INTER>
-19.6141

>  <SCORE.INTER.CONST>
1

>  <SCORE.INTER.POLAR>
-3.8461

>  <SCORE.INTER.ROT>
5

>  <SCORE.INTER.SOLV>
22.4645

>  <SCORE.INTER.VDW>
-14.6773

>  <SCORE.INTER.norm>
-1.7831

>  <SCORE.INTRA>
2.0598

>  <SCORE.INTRA.DIHEDRAL>
1.64551

>  <SCORE.INTRA.DIHEDRAL.0>
9.90185

>  <SCORE.INTRA.POLAR>
0

>  <SCORE.INTRA.POLAR.0>
0

>  <SCORE.INTRA.REPUL>
0

>  <SCORE.INTRA.REPUL.0>
0

>  <SCORE.INTRA.SOLV>
0.736788

>  <SCORE.INTRA.SOLV.lig_0>
-53.6586

>  <SCORE.INTRA.VDW>
0.86865

>  <SCORE.INTRA.VDW.0>
-0.556525

>  <SCORE.INTRA.norm>
0.187254

>  <SCORE.RESTR>
0.237388

>  <SCORE.RESTR.CAVITY>
0.237388

>  <SCORE.RESTR.norm>
0.0215807

>  <SCORE.SYSTEM>
0

>  <SCORE.SYSTEM.CONST>
0

>  <SCORE.SYSTEM.DIHEDRAL>
0

>  <SCORE.SYSTEM.SOLV>
0

>  <SCORE.SYSTEM.norm>
0

>  <SCORE.heavy>
11

>  <SCORE.norm>
-1.57427

>  <RMSD>
13.428

$$$$

 OpenBabel11021811383D
libRbt.so/2013.1/901 2013/11/27
 11 10  0  0  0  0  0  0  0  0999 V2000
  -10.2824    8.2627    0.9051 N   0  3  0  0  0  0  0  0  0  0  0  0
  -11.1762    7.2422    1.5305 C   0  0  2  0  0  0  0  0  0  0  0  0
  -11.2869    7.5051    3.0419 C   0  0  0  0  0  0  0  0  0  0  0  0
  -12.0874    6.8908    3.7217 O   0  0  0  0  0  0  0  0  0  0  0  0
  -10.5975    5.8424    1.2847 C   0  0  0  0  0  0  0  0  0  0  0  0
  -11.6928    4.9226    0.7376 C   0  0  0  0  0  0  0  0  0  0  0  0
  -12.0843    5.3748   -0.6677 C   0  0  0  0  0  0  0  0  0  0  0  0
  -11.1361    4.7839   -1.6514 N   0  3  0  0  0  0  0  0  0  0  0  0
  -10.5259    5.5493   -2.5143 C   0  0  0  0  0  0  0  0  0  0  0  0
   -9.2223    5.6515   -2.4842 N   0  0  0  0  0  0  0  0  0  0  0  0
  -11.2177    6.2052   -3.4098 N   0  0  0  0  0  0  0  0  0  0  0  0
  2  1  1  1  0  0  0
  2  3  1  0  0  0  0
  2  5  1  0  0  0  0
  3  4  2  0  0  0  0
  5  6  1  0  0  0  0
  6  7  1  0  0  0  0
  7  8  1  0  0  0  0
  8  9  2  0  0  0  0
  9 10  1  0  0  0  0
  9 11  1  0  0  0  0
M  CHG  2   1   1   8   1
M  END
>  <CHROM.1>
-167.67323905,171.29551046,-130.54052693,68.08052566,84.17252910,-127.54014087
-11.00353127,6.22974677,0.01842518,-1.83150311,-0.95486367,-2.06659021

>  <Name>


>  <RI>
0

>  <Rbt.Current_Directory>
/home/itssahil/PROJECTS/Mol_Feturizer/New_Systems/rnas/1aju

>  <Rbt.Executable>
rbdock ($Id: //depot/dev/client3/rdock/2013.1/src/exe/rbdock.cxx#4 $)

>  <Rbt.Library>
libRbt.so (2013.1, Build901 2013/11/27)

>  <Rbt.Parameter_File>
/export/apps/rDock/src/rDock_2013.1_src/data/scripts/dock_solv.prm

>  <Rbt.Receptor>
prm/blind_docking_40.prm

>  <SCORE>
-30.8786

>  <SCORE.INTER>
-33.7701

>  <SCORE.INTER.CONST>
1

>  <SCORE.INTER.POLAR>
-6.32502

>  <SCORE.INTER.ROT>
5

>  <SCORE.INTER.SOLV>
28.1794

>  <SCORE.INTER.VDW>
-17.7565

>  <SCORE.INTER.norm>
-3.07001

>  <SCORE.INTRA>
2.05678

>  <SCORE.INTRA.DIHEDRAL>
2.94533

>  <SCORE.INTRA.DIHEDRAL.0>
9.90185

>  <SCORE.INTRA.POLAR>
0

>  <SCORE.INTRA.POLAR.0>
0

>  <SCORE.INTRA.REPUL>
0.0605152

>  <SCORE.INTRA.REPUL.0>
0

>  <SCORE.INTRA.SOLV>
1.30554

>  <SCORE.INTRA.SOLV.lig_0>
-53.6586

>  <SCORE.INTRA.VDW>
-0.371234

>  <SCORE.INTRA.VDW.0>
-0.556525

>  <SCORE.INTRA.norm>
0.18698

>  <SCORE.RESTR>
0.834711

>  <SCORE.RESTR.CAVITY>
0.834711

>  <SCORE.RESTR.norm>
0.0758828

>  <SCORE.SYSTEM>
0

>  <SCORE.SYSTEM.CONST>
0

>  <SCORE.SYSTEM.DIHEDRAL>
0

>  <SCORE.SYSTEM.SOLV>
0

>  <SCORE.SYSTEM.norm>
0

>  <SCORE.heavy>
11

>  <SCORE.norm>
-2.80714

>  <RMSD>
13.428

$$$$

 OpenBabel11021811383D
libRbt.so/2013.1/901 2013/11/27
 11 10  0  0  0  0  0  0  0  0999 V2000
  -10.3435    8.2588    0.8921 N   0  3  0  0  0  0  0  0  0  0  0  0
  -11.2762    7.2522    1.4825 C   0  0  2  0  0  0  0  0  0  0  0  0
  -11.4047    7.4890    2.9969 C   0  0  0  0  0  0  0  0  0  0  0  0
  -11.0262    8.5319    3.4962 O   0  0  0  0  0  0  0  0  0  0  0  0
  -10.7332    5.8415    1.2185 C   0  0  0  0  0  0  0  0  0  0  0  0
  -11.7241    5.0645    0.3471 C   0  0  0  0  0  0  0  0  0  0  0  0
  -11.0509    4.6736   -0.9669 C   0  0  0  0  0  0  0  0  0  0  0  0
  -10.9187    5.8827   -1.8251 N   0  3  0  0  0  0  0  0  0  0  0  0
  -10.1911    5.8415   -2.9075 C   0  0  0  0  0  0  0  0  0  0  0  0
  -10.7525    6.0220   -4.0750 N   0  0  0  0  0  0  0  0  0  0  0  0
   -8.9037    5.6272   -2.8216 N   0  0  0  0  0  0  0  0  0  0  0  0
  2  1  1  1  0  0  0
  2  3  1  0  0  0  0
  2  5  1  0  0  0  0
  3  4  2  0  0  0  0
  5  6  1  0  0  0  0
  6  7  1  0  0  0  0
  7  8  1  0  0  0  0
  8  9  2  0  0  0  0
  9 10  1  0  0  0  0
  9 11  1  0  0  0  0
M  CHG  2   1   1   8   1
M  END
>  <CHROM.1>
-169.14362967,15.08486845,-117.46761143,118.76033070,-73.63562509,169.38888492
-10.72538668,6.45535003,-0.22458156,-1.87352023,-1.08460650,-2.20005903

>  <Name>


>  <RI>
0

>  <Rbt.Current_Directory>
/home/itssahil/PROJECTS/Mol_Feturizer/New_Systems/rnas/1aju

>  <Rbt.Executable>
rbdock ($Id: //depot/dev/client3/rdock/2013.1/src/exe/rbdock.cxx#4 $)

>  <Rbt.Library>
libRbt.so (2013.1, Build901 2013/11/27)

>  <Rbt.Parameter_File>
/export/apps/rDock/src/rDock_2013.1_src/data/scripts/dock_solv.prm

>  <Rbt.Receptor>
prm/blind_docking_80.prm

>  <SCORE>
-28.6773

>  <SCORE.INTER>
-34.3178

>  <SCORE.INTER.CONST>
1

>  <SCORE.INTER.POLAR>
-6.44242

>  <SCORE.INTER.ROT>
5

>  <SCORE.INTER.SOLV>
29.3073

>  <SCORE.INTER.VDW>
-18.1062

>  <SCORE.INTER.norm>
-3.1198

>  <SCORE.INTRA>
4.31894

>  <SCORE.INTRA.DIHEDRAL>
5.66885

>  <SCORE.INTRA.DIHEDRAL.0>
9.90185

>  <SCORE.INTRA.POLAR>
0

>  <SCORE.INTRA.POLAR.0>
0

>  <SCORE.INTRA.REPUL>
0.0529438

>  <SCORE.INTRA.REPUL.0>
0

>  <SCORE.INTRA.SOLV>
3.58632

>  <SCORE.INTRA.SOLV.lig_0>
-53.6586

>  <SCORE.INTRA.VDW>
-0.57336

>  <SCORE.INTRA.VDW.0>
-0.556525

>  <SCORE.INTRA.norm>
0.392631

>  <SCORE.RESTR>
1.32154

>  <SCORE.RESTR.CAVITY>
1.32154

>  <SCORE.RESTR.norm>
0.12014

>  <SCORE.SYSTEM>
0

>  <SCORE.SYSTEM.CONST>
0

>  <SCORE.SYSTEM.DIHEDRAL>
0

>  <SCORE.SYSTEM.SOLV>
0

>  <SCORE.SYSTEM.norm>
0

>  <SCORE.heavy>
11

>  <SCORE.norm>
-2.60703

>  <RMSD>
13.433

$$$$

 OpenBabel11021811383D
libRbt.so/2013.1/901 2013/11/27
 11 10  0  0  0  0  0  0  0  0999 V2000
  -10.3693    8.3045    0.6063 N   0  3  0  0  0  0  0  0  0  0  0  0
  -11.0363    7.4370    1.6233 C   0  0  2  0  0  0  0  0  0  0  0  0
  -10.8245    8.0266    3.0280 C   0  0  0  0  0  0  0  0  0  0  0  0
  -10.1365    9.0172    3.1879 O   0  0  0  0  0  0  0  0  0  0  0  0
  -10.4405    6.0245    1.5541 C   0  0  0  0  0  0  0  0  0  0  0  0
  -11.4319    5.0820    0.8660 C   0  0  0  0  0  0  0  0  0  0  0  0
  -11.7693    5.6213   -0.5225 C   0  0  0  0  0  0  0  0  0  0  0  0
  -10.9630    4.8905   -1.5381 N   0  3  0  0  0  0  0  0  0  0  0  0
  -10.3837    5.5434   -2.5081 C   0  0  0  0  0  0  0  0  0  0  0  0
   -9.0791    5.5451   -2.6018 N   0  0  0  0  0  0  0  0  0  0  0  0
  -11.1081    6.1872   -3.3864 N   0  0  0  0  0  0  0  0  0  0  0  0
  2  1  1  6  0  0  0
  2  3  1  0  0  0  0
  2  5  1  0  0  0  0
  3  4  2  0  0  0  0
  5  6  1  0  0  0  0
  6  7  1  0  0  0  0
  7  8  1  0  0  0  0
  8  9  2  0  0  0  0
  9 10  1  0  0  0  0
  9 11  1  0  0  0  0
M  CHG  2   1   1   8   1
M  END
>  <CHROM.1>
74.17210608,-3.61180124,-104.97830926,57.12721578,99.60908488,-136.22355017
-10.65425291,6.55205824,-0.01287656,-1.59008760,-1.10547943,-2.06346566

>  <Name>


>  <RI>
0

>  <Rbt.Current_Directory>
/home/itssahil/PROJECTS/Mol_Feturizer/New_Systems/rnas/1aju

>  <Rbt.Executable>
rbdock ($Id: //depot/dev/client3/rdock/2013.1/src/exe/rbdock.cxx#4 $)

>  <Rbt.Library>
libRbt.so (2013.1, Build901 2013/11/27)

>  <Rbt.Parameter_File>
/export/apps/rDock/src/rDock_2013.1_src/data/scripts/dock_solv.prm

>  <Rbt.Receptor>
prm/blind_docking_100.prm

>  <SCORE>
-38.916

>  <SCORE.INTER>
-43.1513

>  <SCORE.INTER.CONST>
1

>  <SCORE.INTER.POLAR>
-8.15995

>  <SCORE.INTER.ROT>
5

>  <SCORE.INTER.SOLV>
29.7124

>  <SCORE.INTER.VDW>
-18.4052

>  <SCORE.INTER.norm>
-3.92285

>  <SCORE.INTRA>
4.17493

>  <SCORE.INTRA.DIHEDRAL>
2.00548

>  <SCORE.INTRA.DIHEDRAL.0>
9.90185

>  <SCORE.INTRA.POLAR>
0

>  <SCORE.INTRA.POLAR.0>
0

>  <SCORE.INTRA.REPUL>
0.192127

>  <SCORE.INTRA.REPUL.0>
0

>  <SCORE.INTRA.SOLV>
3.56795

>  <SCORE.INTRA.SOLV.lig_0>
-53.6586

>  <SCORE.INTRA.VDW>
0.42758

>  <SCORE.INTRA.VDW.0>
-0.556525

>  <SCORE.INTRA.norm>
0.379539

>  <SCORE.RESTR>
0.0603725

>  <SCORE.RESTR.CAVITY>
0.0603725

>  <SCORE.RESTR.norm>
0.00548841

>  <SCORE.SYSTEM>
0

>  <SCORE.SYSTEM.CONST>
0

>  <SCORE.SYSTEM.DIHEDRAL>
0

>  <SCORE.SYSTEM.SOLV>
0

>  <SCORE.SYSTEM.norm>
0

>  <SCORE.heavy>
11

>  <SCORE.norm>
-3.53782

>  <RMSD>
13.454

$$$$

 OpenBabel11021811383D
libRbt.so/2013.1/901 2013/11/27
 11 10  0  0  0  0  0  0  0  0999 V2000
  -10.3031    8.3988    0.6160 N   0  3  0  0  0  0  0  0  0  0  0  0
  -10.9845    7.5129    1.6073 C   0  0  2  0  0  0  0  0  0  0  0  0
  -10.8350    8.1029    3.0199 C   0  0  0  0  0  0  0  0  0  0  0  0
  -10.1406    9.0832    3.2127 O   0  0  0  0  0  0  0  0  0  0  0  0
  -10.3539    6.1149    1.5556 C   0  0  0  0  0  0  0  0  0  0  0  0
  -11.2817    5.1607    0.7982 C   0  0  0  0  0  0  0  0  0  0  0  0
  -11.5908    5.7375   -0.5818 C   0  0  0  0  0  0  0  0  0  0  0  0
  -10.8393    4.9680   -1.6109 N   0  3  0  0  0  0  0  0  0  0  0  0
  -10.2733    5.5888   -2.6094 C   0  0  0  0  0  0  0  0  0  0  0  0
   -8.9730    5.5508   -2.7450 N   0  0  0  0  0  0  0  0  0  0  0  0
  -11.0071    6.2401   -3.4743 N   0  0  0  0  0  0  0  0  0  0  0  0
  2  1  1  6  0  0  0
  2  3  1  0  0  0  0
  2  5  1  0  0  0  0
  3  4  2  0  0  0  0
  5  6  1  0  0  0  0
  6  7  1  0  0  0  0
  7  8  1  0  0  0  0
  8  9  2  0  0  0  0
  9 10  1  0  0  0  0
  9 11  1  0  0  0  0
M  CHG  2   1   1   8   1
M  END
>  <CHROM.1>
73.77529494,-6.04332956,-103.45079498,55.03505032,106.21985139,-139.23629868
-10.56753770,6.62247980,-0.05980004,-1.64052664,-1.14795451,-2.10437104

>  <Name>


>  <RI>
0

>  <Rbt.Current_Directory>
/home/itssahil/PROJECTS/Mol_Feturizer/New_Systems/rnas/1aju

>  <Rbt.Executable>
rbdock ($Id: //depot/dev/client3/rdock/2013.1/src/exe/rbdock.cxx#4 $)

>  <Rbt.Library>
libRbt.so (2013.1, Build901 2013/11/27)

>  <Rbt.Parameter_File>
/export/apps/rDock/src/rDock_2013.1_src/data/scripts/dock_solv.prm

>  <Rbt.Receptor>
prm/blind_docking_80.prm

>  <SCORE>
-37.7053

>  <SCORE.INTER>
-43.3819

>  <SCORE.INTER.CONST>
1

>  <SCORE.INTER.POLAR>
-8.53225

>  <SCORE.INTER.ROT>
5

>  <SCORE.INTER.SOLV>
31.1503

>  <SCORE.INTER.VDW>
-17.7972

>  <SCORE.INTER.norm>
-3.94381

>  <SCORE.INTRA>
4.615

>  <SCORE.INTRA.DIHEDRAL>
2.6764

>  <SCORE.INTRA.DIHEDRAL.0>
9.90185

>  <SCORE.INTRA.POLAR>
0

>  <SCORE.INTRA.POLAR.0>
0

>  <SCORE.INTRA.REPUL>
0.168529

>  <SCORE.INTRA.REPUL.0>
0

>  <SCORE.INTRA.SOLV>
3.38891

>  <SCORE.INTRA.SOLV.lig_0>
-53.6586

>  <SCORE.INTRA.VDW>
0.739696

>  <SCORE.INTRA.VDW.0>
-0.556525

>  <SCORE.INTRA.norm>
0.419545

>  <SCORE.RESTR>
1.06155

>  <SCORE.RESTR.CAVITY>
1.06155

>  <SCORE.RESTR.norm>
0.0965048

>  <SCORE.SYSTEM>
0

>  <SCORE.SYSTEM.CONST>
0

>  <SCORE.SYSTEM.DIHEDRAL>
0

>  <SCORE.SYSTEM.SOLV>
0

>  <SCORE.SYSTEM.norm>
0

>  <SCORE.heavy>
11

>  <SCORE.norm>
-3.42776

>  <RMSD>
13.455

$$$$

 OpenBabel11021811383D
libRbt.so/2013.1/901 2013/11/27
 11 10  0  0  0  0  0  0  0  0999 V2000
  -10.1325    8.3246    1.3212 N   0  3  0  0  0  0  0  0  0  0  0  0
  -10.9954    7.3498    0.5885 C   0  0  2  0  0  0  0  0  0  0  0  0
  -12.3890    7.2999    1.2373 C   0  0  0  0  0  0  0  0  0  0  0  0
  -12.8346    6.2541    1.6708 O   0  0  0  0  0  0  0  0  0  0  0  0
  -10.3459    5.9604    0.6382 C   0  0  0  0  0  0  0  0  0  0  0  0
  -10.9464    5.0733   -0.4560 C   0  0  0  0  0  0  0  0  0  0  0  0
  -10.4558    5.5461   -1.8229 C   0  0  0  0  0  0  0  0  0  0  0  0
  -11.6261    5.7260   -2.7251 N   0  3  0  0  0  0  0  0  0  0  0  0
  -11.5236    5.4442   -3.9951 C   0  0  0  0  0  0  0  0  0  0  0  0
  -12.2534    4.4883   -4.5093 N   0  0  0  0  0  0  0  0  0  0  0  0
  -10.6984    6.1219   -4.7503 N   0  0  0  0  0  0  0  0  0  0  0  0
  2  1  1  1  0  0  0
  2  3  1  0  0  0  0
  2  5  1  0  0  0  0
  3  4  2  0  0  0  0
  5  6  1  0  0  0  0
  6  7  1  0  0  0  0
  7  8  1  0  0  0  0
  8  9  2  0  0  0  0
  9 10  1  0  0  0  0
  9 11  1  0  0  0  0
M  CHG  2   1   1   8   1
M  END
>  <CHROM.1>
-57.72670853,-121.70304223,-161.70069856,71.25295863,-129.12721968,-144.47171347
-11.28816446,6.16211165,-1.16945360,-1.54136018,-0.64375116,-1.87703998

>  <Name>


>  <RI>
0

>  <Rbt.Current_Directory>
/home/itssahil/PROJECTS/Mol_Feturizer/New_Systems/rnas/1aju

>  <Rbt.Executable>
rbdock ($Id: //depot/dev/client3/rdock/2013.1/src/exe/rbdock.cxx#4 $)

>  <Rbt.Library>
libRbt.so (2013.1, Build901 2013/11/27)

>  <Rbt.Parameter_File>
/export/apps/rDock/src/rDock_2013.1_src/data/scripts/dock_solv.prm

>  <Rbt.Receptor>
prm/blind_docking_100.prm

>  <SCORE>
-23.9217

>  <SCORE.INTER>
-25.3786

>  <SCORE.INTER.CONST>
1

>  <SCORE.INTER.POLAR>
-4.60632

>  <SCORE.INTER.ROT>
5

>  <SCORE.INTER.SOLV>
26.1832

>  <SCORE.INTER.VDW>
-17.2257

>  <SCORE.INTER.norm>
-2.30714

>  <SCORE.INTRA>
1.29994

>  <SCORE.INTRA.DIHEDRAL>
-0.163722

>  <SCORE.INTRA.DIHEDRAL.0>
9.90185

>  <SCORE.INTRA.POLAR>
0

>  <SCORE.INTRA.POLAR.0>
0

>  <SCORE.INTRA.REPUL>
0

>  <SCORE.INTRA.REPUL.0>
0

>  <SCORE.INTRA.SOLV>
0.60406

>  <SCORE.INTRA.SOLV.lig_0>
-53.6586

>  <SCORE.INTRA.VDW>
1.07977

>  <SCORE.INTRA.VDW.0>
-0.556525

>  <SCORE.INTRA.norm>
0.118176

>  <SCORE.RESTR>
0.15698

>  <SCORE.RESTR.CAVITY>
0.15698

>  <SCORE.RESTR.norm>
0.0142709

>  <SCORE.SYSTEM>
0

>  <SCORE.SYSTEM.CONST>
0

>  <SCORE.SYSTEM.DIHEDRAL>
0

>  <SCORE.SYSTEM.SOLV>
0

>  <SCORE.SYSTEM.norm>
0

>  <SCORE.heavy>
11

>  <SCORE.norm>
-2.1747

>  <RMSD>
13.456

$$$$

 OpenBabel11021811383D
libRbt.so/2013.1/901 2013/11/27
 11 10  0  0  0  0  0  0  0  0999 V2000
  -11.9220    6.8964    3.4587 N   0  3  0  0  0  0  0  0  0  0  0  0
  -11.1794    6.9834    2.1654 C   0  0  2  0  0  0  0  0  0  0  0  0
  -10.9592    8.4590    1.7913 C   0  0  0  0  0  0  0  0  0  0  0  0
   -9.8913    9.0010    2.0063 O   0  0  0  0  0  0  0  0  0  0  0  0
  -11.9894    6.2812    1.0673 C   0  0  0  0  0  0  0  0  0  0  0  0
  -11.0791    5.3282    0.2876 C   0  0  0  0  0  0  0  0  0  0  0  0
  -10.0716    6.1368   -0.5270 C   0  0  0  0  0  0  0  0  0  0  0  0
   -9.6969    5.3648   -1.7434 N   0  3  0  0  0  0  0  0  0  0  0  0
  -10.2551    5.6384   -2.8907 C   0  0  0  0  0  0  0  0  0  0  0  0
   -9.5217    6.0729   -3.8827 N   0  0  0  0  0  0  0  0  0  0  0  0
  -11.5427    5.4708   -3.0473 N   0  0  0  0  0  0  0  0  0  0  0  0
  2  1  1  1  0  0  0
  2  3  1  0  0  0  0
  2  5  1  0  0  0  0
  3  4  2  0  0  0  0
  5  6  1  0  0  0  0
  6  7  1  0  0  0  0
  7  8  1  0  0  0  0
  8  9  2  0  0  0  0
  9 10  1  0  0  0  0
  9 11  1  0  0  0  0
M  CHG  2   1   1   8   1
M  END
>  <CHROM.1>
-107.06298101,99.74394807,-131.50707879,-68.81283477,-151.02215572,99.40059470
-10.74092819,6.51656249,-0.11063307,1.82268276,0.84822133,1.04542807

>  <Name>


>  <RI>
224

>  <Rbt.Current_Directory>
/home/itssahil/PROJECTS/Mol_Feturizer/New_Systems/rnas/1aju

>  <Rbt.Executable>
rbdock ($Id: //depot/dev/client3/rdock/2013.1/src/exe/rbdock.cxx#4 $)

>  <Rbt.Library>
libRbt.so (2013.1, Build901 2013/11/27)

>  <Rbt.Parameter_File>
/export/apps/rDock/src/rDock_2013.1_src/data/scripts/dock_solv.prm

>  <Rbt.Receptor>
prm/blind_docking_20.prm

>  <SCORE>
-28.2224

>  <SCORE.INTER>
-31.9347

>  <SCORE.INTER.CONST>
1

>  <SCORE.INTER.POLAR>
-5.6096

>  <SCORE.INTER.ROT>
5

>  <SCORE.INTER.SOLV>
21.1093

>  <SCORE.INTER.VDW>
-16.5609

>  <SCORE.INTER.norm>
-2.90315

>  <SCORE.INTRA>
3.37754

>  <SCORE.INTRA.DIHEDRAL>
4.50496

>  <SCORE.INTRA.DIHEDRAL.0>
9.90185

>  <SCORE.INTRA.POLAR>
0

>  <SCORE.INTRA.POLAR.0>
0

>  <SCORE.INTRA.REPUL>
0

>  <SCORE.INTRA.REPUL.0>
0

>  <SCORE.INTRA.SOLV>
0.934929

>  <SCORE.INTRA.SOLV.lig_0>
-53.6586

>  <SCORE.INTRA.VDW>
0.657591

>  <SCORE.INTRA.VDW.0>
-0.556525

>  <SCORE.INTRA.norm>
0.307049

>  <SCORE.RESTR>
0.334719

>  <SCORE.RESTR.CAVITY>
0.334719

>  <SCORE.RESTR.norm>
0.030429

>  <SCORE.SYSTEM>
0

>  <SCORE.SYSTEM.CONST>
0

>  <SCORE.SYSTEM.DIHEDRAL>
0

>  <SCORE.SYSTEM.SOLV>
0

>  <SCORE.SYSTEM.norm>
0

>  <SCORE.heavy>
11

>  <SCORE.norm>
-2.56568

>  <RMSD>
13.456

$$$$

 OpenBabel11021811383D
libRbt.so/2013.1/901 2013/11/27
 11 10  0  0  0  0  0  0  0  0999 V2000
  -12.5155    6.3155    2.7062 N   0  3  0  0  0  0  0  0  0  0  0  0
  -11.1762    6.4246    2.0535 C   0  0  2  0  0  0  0  0  0  0  0  0
  -10.7660    7.9036    1.9539 C   0  0  0  0  0  0  0  0  0  0  0  0
  -11.5012    8.7807    2.3670 O   0  0  0  0  0  0  0  0  0  0  0  0
  -11.2437    5.8055    0.6510 C   0  0  0  0  0  0  0  0  0  0  0  0
   -9.8372    5.7440    0.0486 C   0  0  0  0  0  0  0  0  0  0  0  0
   -9.9177    5.2194   -1.3835 C   0  0  0  0  0  0  0  0  0  0  0  0
  -10.8085    6.1084   -2.1785 N   0  3  0  0  0  0  0  0  0  0  0  0
  -10.9405    5.9239   -3.4636 C   0  0  0  0  0  0  0  0  0  0  0  0
  -12.1081    5.6017   -3.9571 N   0  0  0  0  0  0  0  0  0  0  0  0
   -9.9083    6.0685   -4.2538 N   0  0  0  0  0  0  0  0  0  0  0  0
  2  1  1  6  0  0  0
  2  3  1  0  0  0  0
  2  5  1  0  0  0  0
  3  4  2  0  0  0  0
  5  6  1  0  0  0  0
  6  7  1  0  0  0  0
  7  8  1  0  0  0  0
  8  9  2  0  0  0  0
  9 10  1  0  0  0  0
  9 11  1  0  0  0  0
M  CHG  2   1   1   8   1
M  END
>  <CHROM.1>
-59.61801451,-0.49887474,-172.51273031,-176.04050363,57.92980426,174.17911248
-11.02014901,6.36736833,-0.49562954,1.69893375,0.19676248,1.30204599

>  <Name>


>  <RI>
0

>  <Rbt.Current_Directory>
/home/itssahil/PROJECTS/Mol_Feturizer/New_Systems/rnas/1aju

>  <Rbt.Executable>
rbdock ($Id: //depot/dev/client3/rdock/2013.1/src/exe/rbdock.cxx#4 $)

>  <Rbt.Library>
libRbt.so (2013.1, Build901 2013/11/27)

>  <Rbt.Parameter_File>
/export/apps/rDock/src/rDock_2013.1_src/data/scripts/dock_solv.prm

>  <Rbt.Receptor>
prm/blind_docking_40.prm

>  <SCORE>
-18.3917

>  <SCORE.INTER>
-16.7781

>  <SCORE.INTER.CONST>
1

>  <SCORE.INTER.POLAR>
-3.36814

>  <SCORE.INTER.ROT>
5

>  <SCORE.INTER.SOLV>
16.5196

>  <SCORE.INTER.VDW>
-12.3981

>  <SCORE.INTER.norm>
-1.52528

>  <SCORE.INTRA>
-1.7316

>  <SCORE.INTRA.DIHEDRAL>
-6.65731

>  <SCORE.INTRA.DIHEDRAL.0>
9.90185

>  <SCORE.INTRA.POLAR>
0

>  <SCORE.INTRA.POLAR.0>
0

>  <SCORE.INTRA.REPUL>
0

>  <SCORE.INTRA.REPUL.0>
0

>  <SCORE.INTRA.SOLV>
1.48838

>  <SCORE.INTRA.SOLV.lig_0>
-53.6586

>  <SCORE.INTRA.VDW>
0.852866

>  <SCORE.INTRA.VDW.0>
-0.556525

>  <SCORE.INTRA.norm>
-0.157418

>  <SCORE.RESTR>
0.117988

>  <SCORE.RESTR.CAVITY>
0.117988

>  <SCORE.RESTR.norm>
0.0107262

>  <SCORE.SYSTEM>
0

>  <SCORE.SYSTEM.CONST>
0

>  <SCORE.SYSTEM.DIHEDRAL>
0

>  <SCORE.SYSTEM.SOLV>
0

>  <SCORE.SYSTEM.norm>
0

>  <SCORE.heavy>
11

>  <SCORE.norm>
-1.67198

>  <RMSD>
13.460

$$$$

 OpenBabel11021811383D
libRbt.so/2013.1/901 2013/11/27
 11 10  0  0  0  0  0  0  0  0999 V2000
  -11.2335    7.3739    3.4815 N   0  3  0  0  0  0  0  0  0  0  0  0
  -10.7774    7.1497    2.0767 C   0  0  2  0  0  0  0  0  0  0  0  0
  -10.9311    8.4486    1.2673 C   0  0  0  0  0  0  0  0  0  0  0  0
  -11.9579    8.6820    0.6577 O   0  0  0  0  0  0  0  0  0  0  0  0
  -11.6200    6.0355    1.4416 C   0  0  0  0  0  0  0  0  0  0  0  0
  -10.7538    5.2254    0.4729 C   0  0  0  0  0  0  0  0  0  0  0  0
  -10.1013    6.1664   -0.5376 C   0  0  0  0  0  0  0  0  0  0  0  0
   -9.7012    5.3873   -1.7412 N   0  3  0  0  0  0  0  0  0  0  0  0
  -10.2730    5.6186   -2.8911 C   0  0  0  0  0  0  0  0  0  0  0  0
   -9.5598    6.0626   -3.8936 N   0  0  0  0  0  0  0  0  0  0  0  0
  -11.5538    5.3994   -3.0399 N   0  0  0  0  0  0  0  0  0  0  0  0
  2  1  1  1  0  0  0
  2  3  1  0  0  0  0
  2  5  1  0  0  0  0
  3  4  2  0  0  0  0
  5  6  1  0  0  0  0
  6  7  1  0  0  0  0
  7  8  1  0  0  0  0
  8  9  2  0  0  0  0
  9 10  1  0  0  0  0
  9 11  1  0  0  0  0
M  CHG  2   1   1   8   1
M  END
>  <CHROM.1>
80.89323672,-90.88677683,-145.88213485,-54.12691976,-158.92908042,114.64551865
-10.78625289,6.51401127,-0.24422079,-2.26115765,1.27930632,-1.23675991

>  <Name>


>  <RI>
224

>  <Rbt.Current_Directory>
/home/itssahil/PROJECTS/Mol_Feturizer/New_Systems/rnas/1aju

>  <Rbt.Executable>
rbdock ($Id: //depot/dev/client3/rdock/2013.1/src/exe/rbdock.cxx#4 $)

>  <Rbt.Library>
libRbt.so (2013.1, Build901 2013/11/27)

>  <Rbt.Parameter_File>
/export/apps/rDock/src/rDock_2013.1_src/data/scripts/dock_solv.prm

>  <Rbt.Receptor>
prm/blind_docking_20.prm

>  <SCORE>
-20.7001

>  <SCORE.INTER>
-23.4928

>  <SCORE.INTER.CONST>
1

>  <SCORE.INTER.POLAR>
-4.53529

>  <SCORE.INTER.ROT>
5

>  <SCORE.INTER.SOLV>
23.0266

>  <SCORE.INTER.VDW>
-15.1531

>  <SCORE.INTER.norm>
-2.13571

>  <SCORE.INTRA>
2.46527

>  <SCORE.INTRA.DIHEDRAL>
0.10351

>  <SCORE.INTRA.DIHEDRAL.0>
9.90185

>  <SCORE.INTRA.POLAR>
0

>  <SCORE.INTRA.POLAR.0>
0

>  <SCORE.INTRA.REPUL>
0

>  <SCORE.INTRA.REPUL.0>
0

>  <SCORE.INTRA.SOLV>
0.995067

>  <SCORE.INTRA.SOLV.lig_0>
-53.6586

>  <SCORE.INTRA.VDW>
1.91598

>  <SCORE.INTRA.VDW.0>
-0.556525

>  <SCORE.INTRA.norm>
0.224116

>  <SCORE.RESTR>
0.327378

>  <SCORE.RESTR.CAVITY>
0.327378

>  <SCORE.RESTR.norm>
0.0297616

>  <SCORE.SYSTEM>
0

>  <SCORE.SYSTEM.CONST>
0

>  <SCORE.SYSTEM.DIHEDRAL>
0

>  <SCORE.SYSTEM.SOLV>
0

>  <SCORE.SYSTEM.norm>
0

>  <SCORE.heavy>
11

>  <SCORE.norm>
-1.88183

>  <RMSD>
13.461

$$$$

 OpenBabel11021811383D
libRbt.so/2013.1/901 2013/11/27
 11 10  0  0  0  0  0  0  0  0999 V2000
  -10.3495    8.2610    0.9345 N   0  3  0  0  0  0  0  0  0  0  0  0
  -11.1879    7.2235    1.6071 C   0  0  2  0  0  0  0  0  0  0  0  0
  -11.1948    7.4659    3.1259 C   0  0  0  0  0  0  0  0  0  0  0  0
  -10.7697    8.5072    3.5900 O   0  0  0  0  0  0  0  0  0  0  0  0
  -10.6148    5.8329    1.3026 C   0  0  0  0  0  0  0  0  0  0  0  0
  -11.6473    5.0106    0.5262 C   0  0  0  0  0  0  0  0  0  0  0  0
  -11.8737    5.6404   -0.8466 C   0  0  0  0  0  0  0  0  0  0  0  0
  -11.0081    4.9556   -1.8455 N   0  3  0  0  0  0  0  0  0  0  0  0
  -10.4314    5.6428   -2.7931 C   0  0  0  0  0  0  0  0  0  0  0  0
   -9.1260    5.7024   -2.8500 N   0  0  0  0  0  0  0  0  0  0  0  0
  -11.1588    6.2629   -3.6858 N   0  0  0  0  0  0  0  0  0  0  0  0
  2  1  1  6  0  0  0
  2  3  1  0  0  0  0
  2  5  1  0  0  0  0
  3  4  2  0  0  0  0
  5  6  1  0  0  0  0
  6  7  1  0  0  0  0
  7  8  1  0  0  0  0
  8  9  2  0  0  0  0
  9 10  1  0  0  0  0
  9 11  1  0  0  0  0
M  CHG  2   1   1   8   1
M  END
>  <CHROM.1>
68.98374140,12.34648125,-117.62232903,65.88543773,95.52643976,-141.56020996
-10.81759394,6.45003737,-0.11467671,-1.68934281,-1.02898624,-2.03907696

>  <Name>


>  <RI>
224

>  <Rbt.Current_Directory>
/home/itssahil/PROJECTS/Mol_Feturizer/New_Systems/rnas/1aju

>  <Rbt.Executable>
rbdock ($Id: //depot/dev/client3/rdock/2013.1/src/exe/rbdock.cxx#4 $)

>  <Rbt.Library>
libRbt.so (2013.1, Build901 2013/11/27)

>  <Rbt.Parameter_File>
/export/apps/rDock/src/rDock_2013.1_src/data/scripts/dock_solv.prm

>  <Rbt.Receptor>
prm/blind_docking_20.prm

>  <SCORE>
-34.5621

>  <SCORE.INTER>
-36.9549

>  <SCORE.INTER.CONST>
1

>  <SCORE.INTER.POLAR>
-7.09114

>  <SCORE.INTER.ROT>
5

>  <SCORE.INTER.SOLV>
28.932

>  <SCORE.INTER.VDW>
-17.5768

>  <SCORE.INTER.norm>
-3.35953

>  <SCORE.INTRA>
2.39274

>  <SCORE.INTRA.DIHEDRAL>
2.28242

>  <SCORE.INTRA.DIHEDRAL.0>
9.90185

>  <SCORE.INTRA.POLAR>
0

>  <SCORE.INTRA.POLAR.0>
0

>  <SCORE.INTRA.REPUL>
0.0205837

>  <SCORE.INTRA.REPUL.0>
0

>  <SCORE.INTRA.SOLV>
2.44062

>  <SCORE.INTRA.SOLV.lig_0>
-53.6586

>  <SCORE.INTRA.VDW>
-0.0716998

>  <SCORE.INTRA.VDW.0>
-0.556525

>  <SCORE.INTRA.norm>
0.217522

>  <SCORE.RESTR>
0

>  <SCORE.RESTR.CAVITY>
0

>  <SCORE.RESTR.norm>
0

>  <SCORE.SYSTEM>
0

>  <SCORE.SYSTEM.CONST>
0

>  <SCORE.SYSTEM.DIHEDRAL>
0

>  <SCORE.SYSTEM.SOLV>
0

>  <SCORE.SYSTEM.norm>
0

>  <SCORE.heavy>
11

>  <SCORE.norm>
-3.14201

>  <RMSD>
13.466

$$$$

 OpenBabel11021811383D
libRbt.so/2013.1/901 2013/11/27
 11 10  0  0  0  0  0  0  0  0999 V2000
  -10.4099    8.1700    0.9388 N   0  3  0  0  0  0  0  0  0  0  0  0
  -11.3119    7.1805    1.6015 C   0  0  2  0  0  0  0  0  0  0  0  0
  -11.2994    7.4043    3.1232 C   0  0  0  0  0  0  0  0  0  0  0  0
  -12.3166    7.7175    3.7127 O   0  0  0  0  0  0  0  0  0  0  0  0
  -10.8306    5.7597    1.2784 C   0  0  0  0  0  0  0  0  0  0  0  0
  -11.8244    5.0842    0.3293 C   0  0  0  0  0  0  0  0  0  0  0  0
  -11.1108    4.6927   -0.9630 C   0  0  0  0  0  0  0  0  0  0  0  0
  -10.9590    5.8999   -1.8206 N   0  3  0  0  0  0  0  0  0  0  0  0
  -10.1996    5.8589   -2.8809 C   0  0  0  0  0  0  0  0  0  0  0  0
  -10.7271    6.0333   -4.0650 N   0  0  0  0  0  0  0  0  0  0  0  0
   -8.9143    5.6511   -2.7564 N   0  0  0  0  0  0  0  0  0  0  0  0
  2  1  1  6  0  0  0
  2  3  1  0  0  0  0
  2  5  1  0  0  0  0
  3  4  2  0  0  0  0
  5  6  1  0  0  0  0
  6  7  1  0  0  0  0
  7  8  1  0  0  0  0
  8  9  2  0  0  0  0
  9 10  1  0  0  0  0
  9 11  1  0  0  0  0
M  CHG  2   1   1   8   1
M  END
>  <CHROM.1>
-51.81649006,117.75599300,-109.60145528,120.44968538,-78.58656419,169.39462674
-10.88119012,6.35446542,-0.16441133,-2.00744514,-1.01402642,-2.23111371

>  <Name>


>  <RI>
0

>  <Rbt.Current_Directory>
/home/itssahil/PROJECTS/Mol_Feturizer/New_Systems/rnas/1aju

>  <Rbt.Executable>
rbdock ($Id: //depot/dev/client3/rdock/2013.1/src/exe/rbdock.cxx#4 $)

>  <Rbt.Library>
libRbt.so (2013.1, Build901 2013/11/27)

>  <Rbt.Parameter_File>
/export/apps/rDock/src/rDock_2013.1_src/data/scripts/dock_solv.prm

>  <Rbt.Receptor>
prm/blind_docking_60.prm

>  <SCORE>
-30.9478

>  <SCORE.INTER>
-34.6251

>  <SCORE.INTER.CONST>
1

>  <SCORE.INTER.POLAR>
-6.56846

>  <SCORE.INTER.ROT>
5

>  <SCORE.INTER.SOLV>
28.2616

>  <SCORE.INTER.VDW>
-17.5424

>  <SCORE.INTER.norm>
-3.14774

>  <SCORE.INTRA>
3.66917

>  <SCORE.INTRA.DIHEDRAL>
5.33161

>  <SCORE.INTRA.DIHEDRAL.0>
9.90185

>  <SCORE.INTRA.POLAR>
0

>  <SCORE.INTRA.POLAR.0>
0

>  <SCORE.INTRA.REPUL>
0.0850067

>  <SCORE.INTRA.REPUL.0>
0

>  <SCORE.INTRA.SOLV>
2.74045

>  <SCORE.INTRA.SOLV.lig_0>
-53.6586

>  <SCORE.INTRA.VDW>
-0.791894

>  <SCORE.INTRA.VDW.0>
-0.556525

>  <SCORE.INTRA.norm>
0.333561

>  <SCORE.RESTR>
0.00817008

>  <SCORE.RESTR.CAVITY>
0.00817008

>  <SCORE.RESTR.norm>
0.000742735

>  <SCORE.SYSTEM>
0

>  <SCORE.SYSTEM.CONST>
0

>  <SCORE.SYSTEM.DIHEDRAL>
0

>  <SCORE.SYSTEM.SOLV>
0

>  <SCORE.SYSTEM.norm>
0

>  <SCORE.heavy>
11

>  <SCORE.norm>
-2.81344

>  <RMSD>
13.466

$$$$

 OpenBabel11021811383D
libRbt.so/2013.1/901 2013/11/27
 11 10  0  0  0  0  0  0  0  0999 V2000
  -11.3922    5.9678   -3.5683 N   0  3  0  0  0  0  0  0  0  0  0  0
  -11.0552    5.8384   -2.1187 C   0  0  2  0  0  0  0  0  0  0  0  0
   -9.5607    5.5110   -1.9602 C   0  0  0  0  0  0  0  0  0  0  0  0
   -8.9590    4.9186   -2.8361 O   0  0  0  0  0  0  0  0  0  0  0  0
  -11.9037    4.7203   -1.4986 C   0  0  0  0  0  0  0  0  0  0  0  0
  -11.3494    4.3610   -0.1171 C   0  0  0  0  0  0  0  0  0  0  0  0
  -11.8028    5.4044    0.9019 C   0  0  0  0  0  0  0  0  0  0  0  0
  -10.6044    6.0166    1.5384 N   0  3  0  0  0  0  0  0  0  0  0  0
  -10.5644    7.3021    1.7586 C   0  0  0  0  0  0  0  0  0  0  0  0
  -10.4880    7.7490    2.9855 N   0  0  0  0  0  0  0  0  0  0  0  0
  -10.5935    8.1385    0.7535 N   0  0  0  0  0  0  0  0  0  0  0  0
  2  1  1  6  0  0  0
  2  3  1  0  0  0  0
  2  5  1  0  0  0  0
  3  4  2  0  0  0  0
  5  6  1  0  0  0  0
  6  7  1  0  0  0  0
  7  8  1  0  0  0  0
  8  9  2  0  0  0  0
  9 10  1  0  0  0  0
  9 11  1  0  0  0  0
M  CHG  2   1   1   8   1
M  END
>  <CHROM.1>
-49.59382235,-27.67317164,167.06423015,78.55596411,-121.94472750,138.52170655
-10.74024448,6.01913558,-0.41013614,-1.52633004,0.97669581,1.14914514

>  <Name>


>  <RI>
0

>  <Rbt.Current_Directory>
/home/itssahil/PROJECTS/Mol_Feturizer/New_Systems/rnas/1aju

>  <Rbt.Executable>
rbdock ($Id: //depot/dev/client3/rdock/2013.1/src/exe/rbdock.cxx#4 $)

>  <Rbt.Library>
libRbt.so (2013.1, Build901 2013/11/27)

>  <Rbt.Parameter_File>
/export/apps/rDock/src/rDock_2013.1_src/data/scripts/dock_solv.prm

>  <Rbt.Receptor>
prm/blind_docking_100.prm

>  <SCORE>
-26.0473

>  <SCORE.INTER>
-29.6533

>  <SCORE.INTER.CONST>
1

>  <SCORE.INTER.POLAR>
-5.68865

>  <SCORE.INTER.ROT>
5

>  <SCORE.INTER.SOLV>
25.256

>  <SCORE.INTER.VDW>
-16.1587

>  <SCORE.INTER.norm>
-2.69575

>  <SCORE.INTRA>
3.17776

>  <SCORE.INTRA.DIHEDRAL>
1.94581

>  <SCORE.INTRA.DIHEDRAL.0>
9.90185

>  <SCORE.INTRA.POLAR>
0

>  <SCORE.INTRA.POLAR.0>
0

>  <SCORE.INTRA.REPUL>
0

>  <SCORE.INTRA.REPUL.0>
0

>  <SCORE.INTRA.SOLV>
2.40128

>  <SCORE.INTRA.SOLV.lig_0>
-53.6586

>  <SCORE.INTRA.VDW>
1.00421

>  <SCORE.INTRA.VDW.0>
-0.556525

>  <SCORE.INTRA.norm>
0.288887

>  <SCORE.RESTR>
0.428232

>  <SCORE.RESTR.CAVITY>
0.428232

>  <SCORE.RESTR.norm>
0.0389302

>  <SCORE.SYSTEM>
0

>  <SCORE.SYSTEM.CONST>
0

>  <SCORE.SYSTEM.DIHEDRAL>
0

>  <SCORE.SYSTEM.SOLV>
0

>  <SCORE.SYSTEM.norm>
0

>  <SCORE.heavy>
11

>  <SCORE.norm>
-2.36794

>  <RMSD>
13.467

$$$$

 OpenBabel11021811383D
libRbt.so/2013.1/901 2013/11/27
 11 10  0  0  0  0  0  0  0  0999 V2000
  -11.0787    5.6799    2.2118 N   0  3  0  0  0  0  0  0  0  0  0  0
  -10.8933    6.6414    1.0835 C   0  0  2  0  0  0  0  0  0  0  0  0
  -11.1424    8.0764    1.5779 C   0  0  0  0  0  0  0  0  0  0  0  0
  -10.2180    8.8564    1.7102 O   0  0  0  0  0  0  0  0  0  0  0  0
  -11.8782    6.2982   -0.0421 C   0  0  0  0  0  0  0  0  0  0  0  0
  -11.4575    4.9861   -0.7103 C   0  0  0  0  0  0  0  0  0  0  0  0
  -10.8451    5.2830   -2.0775 C   0  0  0  0  0  0  0  0  0  0  0  0
  -11.9370    5.5611   -3.0504 N   0  3  0  0  0  0  0  0  0  0  0  0
  -11.7506    5.3452   -4.3237 C   0  0  0  0  0  0  0  0  0  0  0  0
  -12.4756    4.4504   -4.9438 N   0  0  0  0  0  0  0  0  0  0  0  0
  -10.8461    6.0278   -4.9767 N   0  0  0  0  0  0  0  0  0  0  0  0
  2  1  1  1  0  0  0
  2  3  1  0  0  0  0
  2  5  1  0  0  0  0
  3  4  2  0  0  0  0
  5  6  1  0  0  0  0
  6  7  1  0  0  0  0
  7  8  1  0  0  0  0
  8  9  2  0  0  0  0
  9 10  1  0  0  0  0
  9 11  1  0  0  0  0
M  CHG  2   1   1   8   1
M  END
>  <CHROM.1>
-156.92850859,108.16879354,-70.37642640,-105.93498946,-77.95673970,-153.97611842
-11.31825487,6.10113476,-1.22685932,1.18394936,1.21398098,1.60689281

>  <Name>


>  <RI>
0

>  <Rbt.Current_Directory>
/home/itssahil/PROJECTS/Mol_Feturizer/New_Systems/rnas/1aju

>  <Rbt.Executable>
rbdock ($Id: //depot/dev/client3/rdock/2013.1/src/exe/rbdock.cxx#4 $)

>  <Rbt.Library>
libRbt.so (2013.1, Build901 2013/11/27)

>  <Rbt.Parameter_File>
/export/apps/rDock/src/rDock_2013.1_src/data/scripts/dock_solv.prm

>  <Rbt.Receptor>
prm/blind_docking_40.prm

>  <SCORE>
-21.9162

>  <SCORE.INTER>
-23.182

>  <SCORE.INTER.CONST>
1

>  <SCORE.INTER.POLAR>
-4.52267

>  <SCORE.INTER.ROT>
5

>  <SCORE.INTER.SOLV>
20.8938

>  <SCORE.INTER.VDW>
-14.277

>  <SCORE.INTER.norm>
-2.10746

>  <SCORE.INTRA>
1.26585

>  <SCORE.INTRA.DIHEDRAL>
1.23629

>  <SCORE.INTRA.DIHEDRAL.0>
9.90185

>  <SCORE.INTRA.POLAR>
0

>  <SCORE.INTRA.POLAR.0>
0

>  <SCORE.INTRA.REPUL>
0

>  <SCORE.INTRA.REPUL.0>
0

>  <SCORE.INTRA.SOLV>
1.29288

>  <SCORE.INTRA.SOLV.lig_0>
-53.6586

>  <SCORE.INTRA.VDW>
0.00126647

>  <SCORE.INTRA.VDW.0>
-0.556525

>  <SCORE.INTRA.norm>
0.115078

>  <SCORE.RESTR>
0

>  <SCORE.RESTR.CAVITY>
0

>  <SCORE.RESTR.norm>
0

>  <SCORE.SYSTEM>
0

>  <SCORE.SYSTEM.CONST>
0

>  <SCORE.SYSTEM.DIHEDRAL>
0

>  <SCORE.SYSTEM.SOLV>
0

>  <SCORE.SYSTEM.norm>
0

>  <SCORE.heavy>
11

>  <SCORE.norm>
-1.99238

>  <RMSD>
13.467

$$$$

 OpenBabel11021811383D
libRbt.so/2013.1/901 2013/11/27
 11 10  0  0  0  0  0  0  0  0999 V2000
  -10.3523    8.3358    0.6209 N   0  3  0  0  0  0  0  0  0  0  0  0
  -11.0096    7.4484    1.6270 C   0  0  2  0  0  0  0  0  0  0  0  0
  -10.7553    7.9917    3.0433 C   0  0  0  0  0  0  0  0  0  0  0  0
  -10.0657    8.9793    3.2146 O   0  0  0  0  0  0  0  0  0  0  0  0
  -10.4389    6.0295    1.5013 C   0  0  0  0  0  0  0  0  0  0  0  0
  -11.5258    5.0827    0.9847 C   0  0  0  0  0  0  0  0  0  0  0  0
  -11.9526    5.5121   -0.4174 C   0  0  0  0  0  0  0  0  0  0  0  0
  -11.0816    4.8388   -1.4194 N   0  3  0  0  0  0  0  0  0  0  0  0
  -10.5151    5.5339   -2.3673 C   0  0  0  0  0  0  0  0  0  0  0  0
   -9.2107    5.6086   -2.4274 N   0  0  0  0  0  0  0  0  0  0  0  0
  -11.2518    6.1469   -3.2574 N   0  0  0  0  0  0  0  0  0  0  0  0
  2  1  1  6  0  0  0
  2  3  1  0  0  0  0
  2  5  1  0  0  0  0
  3  4  2  0  0  0  0
  5  6  1  0  0  0  0
  6  7  1  0  0  0  0
  7  8  1  0  0  0  0
  8  9  2  0  0  0  0
  9 10  1  0  0  0  0
  9 11  1  0  0  0  0
M  CHG  2   1   1   8   1
M  END
>  <CHROM.1>
-167.96244391,-2.38191564,-112.59163209,63.16422166,88.84691816,-130.53478222
-10.70998409,6.53772172,0.05997803,-1.50309521,-1.06460249,-2.00274523

>  <Name>


>  <RI>
224

>  <Rbt.Current_Directory>
/home/itssahil/PROJECTS/Mol_Feturizer/New_Systems/rnas/1aju

>  <Rbt.Executable>
rbdock ($Id: //depot/dev/client3/rdock/2013.1/src/exe/rbdock.cxx#4 $)

>  <Rbt.Library>
libRbt.so (2013.1, Build901 2013/11/27)

>  <Rbt.Parameter_File>
/export/apps/rDock/src/rDock_2013.1_src/data/scripts/dock_solv.prm

>  <Rbt.Receptor>
prm/blind_docking_20.prm

>  <SCORE>
-38.2764

>  <SCORE.INTER>
-41.3759

>  <SCORE.INTER.CONST>
1

>  <SCORE.INTER.POLAR>
-7.84765

>  <SCORE.INTER.ROT>
5

>  <SCORE.INTER.SOLV>
28.9051

>  <SCORE.INTER.VDW>
-17.9935

>  <SCORE.INTER.norm>
-3.76144

>  <SCORE.INTRA>
3.06353

>  <SCORE.INTRA.DIHEDRAL>
0.950677

>  <SCORE.INTRA.DIHEDRAL.0>
9.90185

>  <SCORE.INTRA.POLAR>
0

>  <SCORE.INTRA.POLAR.0>
0

>  <SCORE.INTRA.REPUL>
0.206239

>  <SCORE.INTRA.REPUL.0>
0

>  <SCORE.INTRA.SOLV>
3.50632

>  <SCORE.INTRA.SOLV.lig_0>
-53.6586

>  <SCORE.INTRA.VDW>
-0.196168

>  <SCORE.INTRA.VDW.0>
-0.556525

>  <SCORE.INTRA.norm>
0.278503

>  <SCORE.RESTR>
0.0359876

>  <SCORE.RESTR.CAVITY>
0.0359876

>  <SCORE.RESTR.norm>
0.0032716

>  <SCORE.SYSTEM>
0

>  <SCORE.SYSTEM.CONST>
0

>  <SCORE.SYSTEM.DIHEDRAL>
0

>  <SCORE.SYSTEM.SOLV>
0

>  <SCORE.SYSTEM.norm>
0

>  <SCORE.heavy>
11

>  <SCORE.norm>
-3.47967

>  <RMSD>
13.471

$$$$

 OpenBabel11021811383D
libRbt.so/2013.1/901 2013/11/27
 11 10  0  0  0  0  0  0  0  0999 V2000
  -10.3570    8.3239    0.6243 N   0  3  0  0  0  0  0  0  0  0  0  0
  -11.0140    7.4374    1.6313 C   0  0  2  0  0  0  0  0  0  0  0  0
  -10.7825    7.9969    3.0452 C   0  0  0  0  0  0  0  0  0  0  0  0
  -10.0968    8.9873    3.2161 O   0  0  0  0  0  0  0  0  0  0  0  0
  -10.4238    6.0249    1.5252 C   0  0  0  0  0  0  0  0  0  0  0  0
  -11.4947    5.0580    1.0123 C   0  0  0  0  0  0  0  0  0  0  0  0
  -11.9429    5.4863   -0.3834 C   0  0  0  0  0  0  0  0  0  0  0  0
  -11.0735    4.8291   -1.3974 N   0  3  0  0  0  0  0  0  0  0  0  0
  -10.5103    5.5390   -2.3363 C   0  0  0  0  0  0  0  0  0  0  0  0
   -9.2061    5.6164   -2.3984 N   0  0  0  0  0  0  0  0  0  0  0  0
  -11.2500    6.1641   -3.2154 N   0  0  0  0  0  0  0  0  0  0  0  0
  2  1  1  6  0  0  0
  2  3  1  0  0  0  0
  2  5  1  0  0  0  0
  3  4  2  0  0  0  0
  5  6  1  0  0  0  0
  6  7  1  0  0  0  0
  7  8  1  0  0  0  0
  8  9  2  0  0  0  0
  9 10  1  0  0  0  0
  9 11  1  0  0  0  0
M  CHG  2   1   1   8   1
M  END
>  <CHROM.1>
-167.41734176,-3.10742034,-112.87846382,61.77288796,89.29644617,-129.44654280
-10.70950591,6.53399600,0.07991499,-1.51013729,-1.08274404,-2.01058534

>  <Name>


>  <RI>
0

>  <Rbt.Current_Directory>
/home/itssahil/PROJECTS/Mol_Feturizer/New_Systems/rnas/1aju

>  <Rbt.Executable>
rbdock ($Id: //depot/dev/client3/rdock/2013.1/src/exe/rbdock.cxx#4 $)

>  <Rbt.Library>
libRbt.so (2013.1, Build901 2013/11/27)

>  <Rbt.Parameter_File>
/export/apps/rDock/src/rDock_2013.1_src/data/scripts/dock_solv.prm

>  <Rbt.Receptor>
prm/blind_docking_40.prm

>  <SCORE>
-38.0327

>  <SCORE.INTER>
-41.7047

>  <SCORE.INTER.CONST>
1

>  <SCORE.INTER.POLAR>
-7.85539

>  <SCORE.INTER.ROT>
5

>  <SCORE.INTER.SOLV>
28.822

>  <SCORE.INTER.VDW>
-18.1592

>  <SCORE.INTER.norm>
-3.79134

>  <SCORE.INTRA>
3.28023

>  <SCORE.INTRA.DIHEDRAL>
1.0417

>  <SCORE.INTRA.DIHEDRAL.0>
9.90185

>  <SCORE.INTRA.POLAR>
0

>  <SCORE.INTRA.POLAR.0>
0

>  <SCORE.INTRA.REPUL>
0.226347

>  <SCORE.INTRA.REPUL.0>
0

>  <SCORE.INTRA.SOLV>
3.57615

>  <SCORE.INTRA.SOLV.lig_0>
-53.6586

>  <SCORE.INTRA.VDW>
-0.160426

>  <SCORE.INTRA.VDW.0>
-0.556525

>  <SCORE.INTRA.norm>
0.298203

>  <SCORE.RESTR>
0.391815

>  <SCORE.RESTR.CAVITY>
0.391815

>  <SCORE.RESTR.norm>
0.0356195

>  <SCORE.SYSTEM>
0

>  <SCORE.SYSTEM.CONST>
0

>  <SCORE.SYSTEM.DIHEDRAL>
0

>  <SCORE.SYSTEM.SOLV>
0

>  <SCORE.SYSTEM.norm>
0

>  <SCORE.heavy>
11

>  <SCORE.norm>
-3.45752

>  <RMSD>
13.471

$$$$

 OpenBabel11021811383D
libRbt.so/2013.1/901 2013/11/27
 11 10  0  0  0  0  0  0  0  0999 V2000
  -10.0719    6.1448    1.7738 N   0  3  0  0  0  0  0  0  0  0  0  0
  -10.9467    6.8685    0.8029 C   0  0  2  0  0  0  0  0  0  0  0  0
  -11.0336    8.3545    1.1899 C   0  0  0  0  0  0  0  0  0  0  0  0
  -10.1218    8.8945    1.7876 O   0  0  0  0  0  0  0  0  0  0  0  0
  -12.3474    6.2419    0.8178 C   0  0  0  0  0  0  0  0  0  0  0  0
  -12.4333    5.1506   -0.2531 C   0  0  0  0  0  0  0  0  0  0  0  0
  -12.2079    5.7690   -1.6312 C   0  0  0  0  0  0  0  0  0  0  0  0
  -11.1240    5.0237   -2.3281 N   0  3  0  0  0  0  0  0  0  0  0  0
  -10.3648    5.6324   -3.1976 C   0  0  0  0  0  0  0  0  0  0  0  0
   -9.0819    5.7488   -2.9711 N   0  0  0  0  0  0  0  0  0  0  0  0
  -10.8868    6.1172   -4.2945 N   0  0  0  0  0  0  0  0  0  0  0  0
  2  1  1  1  0  0  0
  2  3  1  0  0  0  0
  2  5  1  0  0  0  0
  3  4  2  0  0  0  0
  5  6  1  0  0  0  0
  6  7  1  0  0  0  0
  7  8  1  0  0  0  0
  8  9  2  0  0  0  0
  9 10  1  0  0  0  0
  9 11  1  0  0  0  0
M  CHG  2   1   1   8   1
M  END
>  <CHROM.1>
176.48761172,27.92105492,-92.01390475,-61.70482159,126.83628555,-150.56079773
-10.91364486,6.35413776,-0.74752952,-1.60726083,-0.63441622,-1.96351060

>  <Name>


>  <RI>
0

>  <Rbt.Current_Directory>
/home/itssahil/PROJECTS/Mol_Feturizer/New_Systems/rnas/1aju

>  <Rbt.Executable>
rbdock ($Id: //depot/dev/client3/rdock/2013.1/src/exe/rbdock.cxx#4 $)

>  <Rbt.Library>
libRbt.so (2013.1, Build901 2013/11/27)

>  <Rbt.Parameter_File>
/export/apps/rDock/src/rDock_2013.1_src/data/scripts/dock_solv.prm

>  <Rbt.Receptor>
prm/blind_docking_40.prm

>  <SCORE>
-28.9869

>  <SCORE.INTER>
-31.6383

>  <SCORE.INTER.CONST>
1

>  <SCORE.INTER.POLAR>
-7.04601

>  <SCORE.INTER.ROT>
5

>  <SCORE.INTER.SOLV>
29.4608

>  <SCORE.INTER.VDW>
-14.3591

>  <SCORE.INTER.norm>
-2.87621

>  <SCORE.INTRA>
2.32331

>  <SCORE.INTRA.DIHEDRAL>
2.44363

>  <SCORE.INTRA.DIHEDRAL.0>
9.90185

>  <SCORE.INTRA.POLAR>
0

>  <SCORE.INTRA.POLAR.0>
0

>  <SCORE.INTRA.REPUL>
0

>  <SCORE.INTRA.REPUL.0>
0

>  <SCORE.INTRA.SOLV>
1.93037

>  <SCORE.INTRA.SOLV.lig_0>
-53.6586

>  <SCORE.INTRA.VDW>
0.136318

>  <SCORE.INTRA.VDW.0>
-0.556525

>  <SCORE.INTRA.norm>
0.21121

>  <SCORE.RESTR>
0.328106

>  <SCORE.RESTR.CAVITY>
0.328106

>  <SCORE.RESTR.norm>
0.0298279

>  <SCORE.SYSTEM>
0

>  <SCORE.SYSTEM.CONST>
0

>  <SCORE.SYSTEM.DIHEDRAL>
0

>  <SCORE.SYSTEM.SOLV>
0

>  <SCORE.SYSTEM.norm>
0

>  <SCORE.heavy>
11

>  <SCORE.norm>
-2.63517

>  <RMSD>
13.486

$$$$

 OpenBabel11021811383D
libRbt.so/2013.1/901 2013/11/27
 11 10  0  0  0  0  0  0  0  0999 V2000
  -11.1292    8.4069    2.3793 N   0  3  0  0  0  0  0  0  0  0  0  0
  -11.8184    7.1382    1.9959 C   0  0  2  0  0  0  0  0  0  0  0  0
  -12.0034    6.2515    3.2391 C   0  0  0  0  0  0  0  0  0  0  0  0
  -13.0961    5.7953    3.5188 O   0  0  0  0  0  0  0  0  0  0  0  0
  -10.9750    6.3995    0.9482 C   0  0  0  0  0  0  0  0  0  0  0  0
  -11.7790    5.2299    0.3733 C   0  0  0  0  0  0  0  0  0  0  0  0
  -11.1403    4.7649   -0.9337 C   0  0  0  0  0  0  0  0  0  0  0  0
  -11.0135    5.9275   -1.8547 N   0  3  0  0  0  0  0  0  0  0  0  0
  -10.2367    5.8531   -2.9006 C   0  0  0  0  0  0  0  0  0  0  0  0
  -10.7510    5.9451   -4.0996 N   0  0  0  0  0  0  0  0  0  0  0  0
   -8.9476    5.6944   -2.7470 N   0  0  0  0  0  0  0  0  0  0  0  0
  2  1  1  1  0  0  0
  2  3  1  0  0  0  0
  2  5  1  0  0  0  0
  3  4  2  0  0  0  0
  5  6  1  0  0  0  0
  6  7  1  0  0  0  0
  7  8  1  0  0  0  0
  8  9  2  0  0  0  0
  9 10  1  0  0  0  0
  9 11  1  0  0  0  0
M  CHG  2   1   1   8   1
M  END
>  <CHROM.1>
-50.67882910,128.28319409,-170.29616146,162.90292416,-54.40601010,164.61592273
-11.15974714,6.16437798,-0.01455080,-2.10499126,-0.94063888,-2.18095141

>  <Name>


>  <RI>
0

>  <Rbt.Current_Directory>
/home/itssahil/PROJECTS/Mol_Feturizer/New_Systems/rnas/1aju

>  <Rbt.Executable>
rbdock ($Id: //depot/dev/client3/rdock/2013.1/src/exe/rbdock.cxx#4 $)

>  <Rbt.Library>
libRbt.so (2013.1, Build901 2013/11/27)

>  <Rbt.Parameter_File>
/export/apps/rDock/src/rDock_2013.1_src/data/scripts/dock_solv.prm

>  <Rbt.Receptor>
prm/blind_docking_60.prm

>  <SCORE>
-22.7293

>  <SCORE.INTER>
-21.0713

>  <SCORE.INTER.CONST>
1

>  <SCORE.INTER.POLAR>
-4.11503

>  <SCORE.INTER.ROT>
5

>  <SCORE.INTER.SOLV>
24.2222

>  <SCORE.INTER.VDW>
-15.3382

>  <SCORE.INTER.norm>
-1.91557

>  <SCORE.INTRA>
-1.67275

>  <SCORE.INTRA.DIHEDRAL>
-4.98101

>  <SCORE.INTRA.DIHEDRAL.0>
9.90185

>  <SCORE.INTRA.POLAR>
0

>  <SCORE.INTRA.POLAR.0>
0

>  <SCORE.INTRA.REPUL>
0

>  <SCORE.INTRA.REPUL.0>
0

>  <SCORE.INTRA.SOLV>
0.540303

>  <SCORE.INTRA.SOLV.lig_0>
-53.6586

>  <SCORE.INTRA.VDW>
0.547601

>  <SCORE.INTRA.VDW.0>
-0.556525

>  <SCORE.INTRA.norm>
-0.152068

>  <SCORE.RESTR>
0.0147704

>  <SCORE.RESTR.CAVITY>
0.0147704

>  <SCORE.RESTR.norm>
0.00134276

>  <SCORE.SYSTEM>
0

>  <SCORE.SYSTEM.CONST>
0

>  <SCORE.SYSTEM.DIHEDRAL>
0

>  <SCORE.SYSTEM.SOLV>
0

>  <SCORE.SYSTEM.norm>
0

>  <SCORE.heavy>
11

>  <SCORE.norm>
-2.0663

>  <RMSD>
13.492

$$$$

 OpenBabel11021811383D
libRbt.so/2013.1/901 2013/11/27
 11 10  0  0  0  0  0  0  0  0999 V2000
  -10.2036    8.3573    1.1757 N   0  3  0  0  0  0  0  0  0  0  0  0
  -11.0461    7.2545    0.6227 C   0  0  2  0  0  0  0  0  0  0  0  0
  -12.3474    7.1383    1.4343 C   0  0  0  0  0  0  0  0  0  0  0  0
  -12.4449    6.3297    2.3382 O   0  0  0  0  0  0  0  0  0  0  0  0
  -10.2656    5.9352    0.6949 C   0  0  0  0  0  0  0  0  0  0  0  0
   -9.8444    5.5100   -0.7146 C   0  0  0  0  0  0  0  0  0  0  0  0
  -11.0481    4.9293   -1.4538 C   0  0  0  0  0  0  0  0  0  0  0  0
  -11.6514    5.9876   -2.3093 N   0  3  0  0  0  0  0  0  0  0  0  0
  -11.5403    5.9227   -3.6078 C   0  0  0  0  0  0  0  0  0  0  0  0
  -12.6126    5.7974   -4.3462 N   0  0  0  0  0  0  0  0  0  0  0  0
  -10.3598    5.9903   -4.1668 N   0  0  0  0  0  0  0  0  0  0  0  0
  2  1  1  1  0  0  0
  2  3  1  0  0  0  0
  2  5  1  0  0  0  0
  3  4  2  0  0  0  0
  5  6  1  0  0  0  0
  6  7  1  0  0  0  0
  7  8  1  0  0  0  0
  8  9  2  0  0  0  0
  9 10  1  0  0  0  0
  9 11  1  0  0  0  0
M  CHG  2   1   1   8   1
M  END
>  <CHROM.1>
169.68911069,-96.27941192,-108.33798433,-76.39897651,97.13910517,109.22713665
-11.20929835,6.31673651,-0.94278934,-1.54264776,-0.15519724,-1.80024058

>  <Name>


>  <RI>
0

>  <Rbt.Current_Directory>
/home/itssahil/PROJECTS/Mol_Feturizer/New_Systems/rnas/1aju

>  <Rbt.Executable>
rbdock ($Id: //depot/dev/client3/rdock/2013.1/src/exe/rbdock.cxx#4 $)

>  <Rbt.Library>
libRbt.so (2013.1, Build901 2013/11/27)

>  <Rbt.Parameter_File>
/export/apps/rDock/src/rDock_2013.1_src/data/scripts/dock_solv.prm

>  <Rbt.Receptor>
prm/blind_docking_40.prm

>  <SCORE>
-23.9271

>  <SCORE.INTER>
-26.5776

>  <SCORE.INTER.CONST>
1

>  <SCORE.INTER.POLAR>
-4.96648

>  <SCORE.INTER.ROT>
5

>  <SCORE.INTER.SOLV>
24.0177

>  <SCORE.INTER.VDW>
-16.1027

>  <SCORE.INTER.norm>
-2.41615

>  <SCORE.INTRA>
2.65052

>  <SCORE.INTRA.DIHEDRAL>
3.70208

>  <SCORE.INTRA.DIHEDRAL.0>
9.90185

>  <SCORE.INTRA.POLAR>
0

>  <SCORE.INTRA.POLAR.0>
0

>  <SCORE.INTRA.REPUL>
0

>  <SCORE.INTRA.REPUL.0>
0

>  <SCORE.INTRA.SOLV>
1.77536

>  <SCORE.INTRA.SOLV.lig_0>
-53.6586

>  <SCORE.INTRA.VDW>
-0.0882017

>  <SCORE.INTRA.VDW.0>
-0.556525

>  <SCORE.INTRA.norm>
0.240956

>  <SCORE.RESTR>
0

>  <SCORE.RESTR.CAVITY>
0

>  <SCORE.RESTR.norm>
0

>  <SCORE.SYSTEM>
0

>  <SCORE.SYSTEM.CONST>
0

>  <SCORE.SYSTEM.DIHEDRAL>
0

>  <SCORE.SYSTEM.SOLV>
0

>  <SCORE.SYSTEM.norm>
0

>  <SCORE.heavy>
11

>  <SCORE.norm>
-2.17519

>  <RMSD>
13.495

$$$$

 OpenBabel11021811383D
libRbt.so/2013.1/901 2013/11/27
 11 10  0  0  0  0  0  0  0  0999 V2000
  -10.1600    8.3232    1.2831 N   0  3  0  0  0  0  0  0  0  0  0  0
  -10.9771    7.2427    0.6534 C   0  0  2  0  0  0  0  0  0  0  0  0
  -12.2754    7.0406    1.4529 C   0  0  0  0  0  0  0  0  0  0  0  0
  -13.3543    7.0250    0.8907 O   0  0  0  0  0  0  0  0  0  0  0  0
  -10.1668    5.9397    0.6347 C   0  0  0  0  0  0  0  0  0  0  0  0
  -10.6912    5.0247   -0.4756 C   0  0  0  0  0  0  0  0  0  0  0  0
  -10.3030    5.5992   -1.8364 C   0  0  0  0  0  0  0  0  0  0  0  0
  -11.5390    5.8800   -2.6171 N   0  3  0  0  0  0  0  0  0  0  0  0
  -11.6475    5.4567   -3.8466 C   0  0  0  0  0  0  0  0  0  0  0  0
  -12.5766    4.5895   -4.1556 N   0  0  0  0  0  0  0  0  0  0  0  0
  -10.8330    5.9054   -4.7664 N   0  0  0  0  0  0  0  0  0  0  0  0
  2  1  1  1  0  0  0
  2  3  1  0  0  0  0
  2  5  1  0  0  0  0
  3  4  2  0  0  0  0
  5  6  1  0  0  0  0
  6  7  1  0  0  0  0
  7  8  1  0  0  0  0
  8  9  2  0  0  0  0
  9 10  1  0  0  0  0
  9 11  1  0  0  0  0
M  CHG  2   1   1   8   1
M  END
>  <CHROM.1>
51.70537420,129.67521756,-156.32169773,71.17798377,-119.79051361,-130.62515179
-11.32827753,6.21249720,-1.17674840,-1.52027638,-0.12337449,-1.92695730

>  <Name>


>  <RI>
0

>  <Rbt.Current_Directory>
/home/itssahil/PROJECTS/Mol_Feturizer/New_Systems/rnas/1aju

>  <Rbt.Executable>
rbdock ($Id: //depot/dev/client3/rdock/2013.1/src/exe/rbdock.cxx#4 $)

>  <Rbt.Library>
libRbt.so (2013.1, Build901 2013/11/27)

>  <Rbt.Parameter_File>
/export/apps/rDock/src/rDock_2013.1_src/data/scripts/dock_solv.prm

>  <Rbt.Receptor>
prm/blind_docking_40.prm

>  <SCORE>
-24.77

>  <SCORE.INTER>
-25.5295

>  <SCORE.INTER.CONST>
1

>  <SCORE.INTER.POLAR>
-4.27536

>  <SCORE.INTER.ROT>
5

>  <SCORE.INTER.SOLV>
25.1193

>  <SCORE.INTER.VDW>
-18.0749

>  <SCORE.INTER.norm>
-2.32086

>  <SCORE.INTRA>
0.727478

>  <SCORE.INTRA.DIHEDRAL>
1.12711

>  <SCORE.INTRA.DIHEDRAL.0>
9.90185

>  <SCORE.INTRA.POLAR>
0

>  <SCORE.INTRA.POLAR.0>
0

>  <SCORE.INTRA.REPUL>
0

>  <SCORE.INTRA.REPUL.0>
0

>  <SCORE.INTRA.SOLV>
0.790235

>  <SCORE.INTRA.SOLV.lig_0>
-53.6586

>  <SCORE.INTRA.VDW>
-0.231195

>  <SCORE.INTRA.VDW.0>
-0.556525

>  <SCORE.INTRA.norm>
0.0661344

>  <SCORE.RESTR>
0.0319828

>  <SCORE.RESTR.CAVITY>
0.0319828

>  <SCORE.RESTR.norm>
0.00290752

>  <SCORE.SYSTEM>
0

>  <SCORE.SYSTEM.CONST>
0

>  <SCORE.SYSTEM.DIHEDRAL>
0

>  <SCORE.SYSTEM.SOLV>
0

>  <SCORE.SYSTEM.norm>
0

>  <SCORE.heavy>
11

>  <SCORE.norm>
-2.25182

>  <RMSD>
13.505

$$$$

 OpenBabel11021811383D
libRbt.so/2013.1/901 2013/11/27
 11 10  0  0  0  0  0  0  0  0999 V2000
  -10.3124    6.1068    1.6633 N   0  3  0  0  0  0  0  0  0  0  0  0
  -11.4809    6.1972    0.7370 C   0  0  2  0  0  0  0  0  0  0  0  0
  -12.5025    7.2071    1.2868 C   0  0  0  0  0  0  0  0  0  0  0  0
  -13.0700    7.9837    0.5418 O   0  0  0  0  0  0  0  0  0  0  0  0
  -12.1322    4.8139    0.6059 C   0  0  0  0  0  0  0  0  0  0  0  0
  -13.1603    4.8359   -0.5287 C   0  0  0  0  0  0  0  0  0  0  0  0
  -12.4452    4.6755   -1.8687 C   0  0  0  0  0  0  0  0  0  0  0  0
  -11.5184    5.8233   -2.0667 N   0  3  0  0  0  0  0  0  0  0  0  0
  -10.2649    5.6101   -2.3602 C   0  0  0  0  0  0  0  0  0  0  0  0
   -9.7861    6.0244   -3.5047 N   0  0  0  0  0  0  0  0  0  0  0  0
   -9.4905    4.9903   -1.5078 N   0  0  0  0  0  0  0  0  0  0  0  0
  2  1  1  1  0  0  0
  2  3  1  0  0  0  0
  2  5  1  0  0  0  0
  3  4  2  0  0  0  0
  5  6  1  0  0  0  0
  6  7  1  0  0  0  0
  7  8  1  0  0  0  0
  8  9  2  0  0  0  0
  9 10  1  0  0  0  0
  9 11  1  0  0  0  0
M  CHG  2   1   1   8   1
M  END
>  <CHROM.1>
-95.60544378,138.99428053,-169.63764697,80.85008271,-62.02121137,127.72039888
-11.42164360,5.86199122,-0.63018326,-2.04541938,0.03771961,-1.85753712

>  <Name>


>  <RI>
0

>  <Rbt.Current_Directory>
/home/itssahil/PROJECTS/Mol_Feturizer/New_Systems/rnas/1aju

>  <Rbt.Executable>
rbdock ($Id: //depot/dev/client3/rdock/2013.1/src/exe/rbdock.cxx#4 $)

>  <Rbt.Library>
libRbt.so (2013.1, Build901 2013/11/27)

>  <Rbt.Parameter_File>
/export/apps/rDock/src/rDock_2013.1_src/data/scripts/dock_solv.prm

>  <Rbt.Receptor>
prm/blind_docking_100.prm

>  <SCORE>
-30.3629

>  <SCORE.INTER>
-32.1663

>  <SCORE.INTER.CONST>
1

>  <SCORE.INTER.POLAR>
-6.85971

>  <SCORE.INTER.ROT>
5

>  <SCORE.INTER.SOLV>
26.3848

>  <SCORE.INTER.VDW>
-14.3068

>  <SCORE.INTER.norm>
-2.92421

>  <SCORE.INTRA>
1.46268

>  <SCORE.INTRA.DIHEDRAL>
-1.94975

>  <SCORE.INTRA.DIHEDRAL.0>
9.90185

>  <SCORE.INTRA.POLAR>
0

>  <SCORE.INTRA.POLAR.0>
0

>  <SCORE.INTRA.REPUL>
0

>  <SCORE.INTRA.REPUL.0>
0

>  <SCORE.INTRA.SOLV>
4.54702

>  <SCORE.INTRA.SOLV.lig_0>
-53.6586

>  <SCORE.INTRA.VDW>
0.164041

>  <SCORE.INTRA.VDW.0>
-0.556525

>  <SCORE.INTRA.norm>
0.132971

>  <SCORE.RESTR>
0.340771

>  <SCORE.RESTR.CAVITY>
0.340771

>  <SCORE.RESTR.norm>
0.0309792

>  <SCORE.SYSTEM>
0

>  <SCORE.SYSTEM.CONST>
0

>  <SCORE.SYSTEM.DIHEDRAL>
0

>  <SCORE.SYSTEM.SOLV>
0

>  <SCORE.SYSTEM.norm>
0

>  <SCORE.heavy>
11

>  <SCORE.norm>
-2.76026

>  <RMSD>
13.516

$$$$

 OpenBabel11021811383D
libRbt.so/2013.1/901 2013/11/27
 11 10  0  0  0  0  0  0  0  0999 V2000
  -10.3522    8.2551    0.9539 N   0  3  0  0  0  0  0  0  0  0  0  0
  -11.2259    7.2888    1.6851 C   0  0  2  0  0  0  0  0  0  0  0  0
  -11.2457    7.6375    3.1830 C   0  0  0  0  0  0  0  0  0  0  0  0
  -10.7331    8.6638    3.5881 O   0  0  0  0  0  0  0  0  0  0  0  0
  -10.6856    5.8663    1.4869 C   0  0  0  0  0  0  0  0  0  0  0  0
  -11.6610    5.0622    0.6227 C   0  0  0  0  0  0  0  0  0  0  0  0
  -11.8126    5.7372   -0.7389 C   0  0  0  0  0  0  0  0  0  0  0  0
  -10.9935    5.0018   -1.7410 N   0  3  0  0  0  0  0  0  0  0  0  0
  -10.4270    5.6464   -2.7241 C   0  0  0  0  0  0  0  0  0  0  0  0
   -9.1228    5.6703   -2.8192 N   0  0  0  0  0  0  0  0  0  0  0  0
  -11.1638    6.2595   -3.6139 N   0  0  0  0  0  0  0  0  0  0  0  0
  2  1  1  6  0  0  0
  2  3  1  0  0  0  0
  2  5  1  0  0  0  0
  3  4  2  0  0  0  0
  5  6  1  0  0  0  0
  6  7  1  0  0  0  0
  7  8  1  0  0  0  0
  8  9  2  0  0  0  0
  9 10  1  0  0  0  0
  9 11  1  0  0  0  0
M  CHG  2   1   1   8   1
M  END
>  <CHROM.1>
72.49257003,8.23837773,-111.45062621,60.17574656,101.62241573,-146.63894603
-10.82203223,6.50074049,-0.04286715,-1.70344818,-1.03900581,-2.06683491

>  <Name>


>  <RI>
224

>  <Rbt.Current_Directory>
/home/itssahil/PROJECTS/Mol_Feturizer/New_Systems/rnas/1aju

>  <Rbt.Executable>
rbdock ($Id: //depot/dev/client3/rdock/2013.1/src/exe/rbdock.cxx#4 $)

>  <Rbt.Library>
libRbt.so (2013.1, Build901 2013/11/27)

>  <Rbt.Parameter_File>
/export/apps/rDock/src/rDock_2013.1_src/data/scripts/dock_solv.prm

>  <Rbt.Receptor>
prm/blind_docking_20.prm

>  <SCORE>
-34.6094

>  <SCORE.INTER>
-37.8788

>  <SCORE.INTER.CONST>
1

>  <SCORE.INTER.POLAR>
-7.09377

>  <SCORE.INTER.ROT>
5

>  <SCORE.INTER.SOLV>
28.6576

>  <SCORE.INTER.VDW>
-18.0925

>  <SCORE.INTER.norm>
-3.44353

>  <SCORE.INTRA>
3.26945

>  <SCORE.INTRA.DIHEDRAL>
2.71428

>  <SCORE.INTRA.DIHEDRAL.0>
9.90185

>  <SCORE.INTRA.POLAR>
0

>  <SCORE.INTRA.POLAR.0>
0

>  <SCORE.INTRA.REPUL>
0.0514009

>  <SCORE.INTRA.REPUL.0>
0

>  <SCORE.INTRA.SOLV>
2.70023

>  <SCORE.INTRA.SOLV.lig_0>
-53.6586

>  <SCORE.INTRA.VDW>
0.305195

>  <SCORE.INTRA.VDW.0>
-0.556525

>  <SCORE.INTRA.norm>
0.297223

>  <SCORE.RESTR>
0

>  <SCORE.RESTR.CAVITY>
0

>  <SCORE.RESTR.norm>
0

>  <SCORE.SYSTEM>
0

>  <SCORE.SYSTEM.CONST>
0

>  <SCORE.SYSTEM.DIHEDRAL>
0

>  <SCORE.SYSTEM.SOLV>
0

>  <SCORE.SYSTEM.norm>
0

>  <SCORE.heavy>
11

>  <SCORE.norm>
-3.14631

>  <RMSD>
13.518

$$$$

 OpenBabel11021811383D
libRbt.so/2013.1/901 2013/11/27
 11 10  0  0  0  0  0  0  0  0999 V2000
  -10.3560    8.2478    0.9458 N   0  3  0  0  0  0  0  0  0  0  0  0
  -11.2456    7.2685    1.6395 C   0  0  2  0  0  0  0  0  0  0  0  0
  -11.2794    7.5745    3.1465 C   0  0  0  0  0  0  0  0  0  0  0  0
  -10.7773    8.5926    3.5844 O   0  0  0  0  0  0  0  0  0  0  0  0
  -10.7145    5.8477    1.4067 C   0  0  0  0  0  0  0  0  0  0  0  0
  -11.7229    5.0528    0.5723 C   0  0  0  0  0  0  0  0  0  0  0  0
  -11.8790    5.7068   -0.7990 C   0  0  0  0  0  0  0  0  0  0  0  0
  -11.0206    4.9897   -1.7813 N   0  3  0  0  0  0  0  0  0  0  0  0
  -10.4349    5.6487   -2.7433 C   0  0  0  0  0  0  0  0  0  0  0  0
   -9.1288    5.6916   -2.8000 N   0  0  0  0  0  0  0  0  0  0  0  0
  -11.1540    6.2572   -3.6506 N   0  0  0  0  0  0  0  0  0  0  0  0
  2  1  1  6  0  0  0
  2  3  1  0  0  0  0
  2  5  1  0  0  0  0
  3  4  2  0  0  0  0
  5  6  1  0  0  0  0
  6  7  1  0  0  0  0
  7  8  1  0  0  0  0
  8  9  2  0  0  0  0
  9 10  1  0  0  0  0
  9 11  1  0  0  0  0
M  CHG  2   1   1   8   1
M  END
>  <CHROM.1>
-49.24723859,9.13870354,-114.49138108,62.66744060,97.77488921,-144.83073482
-10.84748630,6.48205023,-0.07417141,-1.69997933,-1.00428334,-2.05518542

>  <Name>


>  <RI>
0

>  <Rbt.Current_Directory>
/home/itssahil/PROJECTS/Mol_Feturizer/New_Systems/rnas/1aju

>  <Rbt.Executable>
rbdock ($Id: //depot/dev/client3/rdock/2013.1/src/exe/rbdock.cxx#4 $)

>  <Rbt.Library>
libRbt.so (2013.1, Build901 2013/11/27)

>  <Rbt.Parameter_File>
/export/apps/rDock/src/rDock_2013.1_src/data/scripts/dock_solv.prm

>  <Rbt.Receptor>
prm/blind_docking_60.prm

>  <SCORE>
-34.7567

>  <SCORE.INTER>
-37.5922

>  <SCORE.INTER.CONST>
1

>  <SCORE.INTER.POLAR>
-7.0075

>  <SCORE.INTER.ROT>
5

>  <SCORE.INTER.SOLV>
28.5606

>  <SCORE.INTER.VDW>
-18.1567

>  <SCORE.INTER.norm>
-3.41747

>  <SCORE.INTRA>
2.83546

>  <SCORE.INTRA.DIHEDRAL>
2.34222

>  <SCORE.INTRA.DIHEDRAL.0>
9.90185

>  <SCORE.INTRA.POLAR>
0

>  <SCORE.INTRA.POLAR.0>
0

>  <SCORE.INTRA.REPUL>
0.0482829

>  <SCORE.INTRA.REPUL.0>
0

>  <SCORE.INTRA.SOLV>
2.61452

>  <SCORE.INTRA.SOLV.lig_0>
-53.6586

>  <SCORE.INTRA.VDW>
0.115678

>  <SCORE.INTRA.VDW.0>
-0.556525

>  <SCORE.INTRA.norm>
0.25777

>  <SCORE.RESTR>
0

>  <SCORE.RESTR.CAVITY>
0

>  <SCORE.RESTR.norm>
0

>  <SCORE.SYSTEM>
0

>  <SCORE.SYSTEM.CONST>
0

>  <SCORE.SYSTEM.DIHEDRAL>
0

>  <SCORE.SYSTEM.SOLV>
0

>  <SCORE.SYSTEM.norm>
0

>  <SCORE.heavy>
11

>  <SCORE.norm>
-3.1597

>  <RMSD>
13.519

$$$$

 OpenBabel11021811383D
libRbt.so/2013.1/901 2013/11/27
 11 10  0  0  0  0  0  0  0  0999 V2000
  -10.3762    8.2316    0.9706 N   0  3  0  0  0  0  0  0  0  0  0  0
  -11.2460    7.2465    1.6808 C   0  0  2  0  0  0  0  0  0  0  0  0
  -11.2231    7.5286    3.1926 C   0  0  0  0  0  0  0  0  0  0  0  0
  -10.9294    8.6317    3.6136 O   0  0  0  0  0  0  0  0  0  0  0  0
  -10.7328    5.8266    1.4064 C   0  0  0  0  0  0  0  0  0  0  0  0
  -11.7582    5.0640    0.5626 C   0  0  0  0  0  0  0  0  0  0  0  0
  -11.8767    5.7193   -0.8118 C   0  0  0  0  0  0  0  0  0  0  0  0
  -11.0124    4.9864   -1.7771 N   0  3  0  0  0  0  0  0  0  0  0  0
  -10.4216    5.6296   -2.7466 C   0  0  0  0  0  0  0  0  0  0  0  0
   -9.1152    5.6723   -2.7966 N   0  0  0  0  0  0  0  0  0  0  0  0
  -11.1358    6.2226   -3.6680 N   0  0  0  0  0  0  0  0  0  0  0  0
  2  1  1  6  0  0  0
  2  3  1  0  0  0  0
  2  5  1  0  0  0  0
  3  4  2  0  0  0  0
  5  6  1  0  0  0  0
  6  7  1  0  0  0  0
  7  8  1  0  0  0  0
  8  9  2  0  0  0  0
  9 10  1  0  0  0  0
  9 11  1  0  0  0  0
M  CHG  2   1   1   8   1
M  END
>  <CHROM.1>
69.41272772,22.84463695,-112.86425049,65.07680918,96.73096407,-146.39655629
-10.85988117,6.47177025,-0.06477132,-1.71987753,-1.00687160,-2.07248003

>  <Name>


>  <RI>
224

>  <Rbt.Current_Directory>
/home/itssahil/PROJECTS/Mol_Feturizer/New_Systems/rnas/1aju

>  <Rbt.Executable>
rbdock ($Id: //depot/dev/client3/rdock/2013.1/src/exe/rbdock.cxx#4 $)

>  <Rbt.Library>
libRbt.so (2013.1, Build901 2013/11/27)

>  <Rbt.Parameter_File>
/export/apps/rDock/src/rDock_2013.1_src/data/scripts/dock_solv.prm

>  <Rbt.Receptor>
prm/blind_docking_20.prm

>  <SCORE>
-34.3906

>  <SCORE.INTER>
-37.2631

>  <SCORE.INTER.CONST>
1

>  <SCORE.INTER.POLAR>
-6.97789

>  <SCORE.INTER.ROT>
5

>  <SCORE.INTER.SOLV>
28.3394

>  <SCORE.INTER.VDW>
-17.9622

>  <SCORE.INTER.norm>
-3.38755

>  <SCORE.INTRA>
2.87251

>  <SCORE.INTRA.DIHEDRAL>
2.86258

>  <SCORE.INTRA.DIHEDRAL.0>
9.90185

>  <SCORE.INTRA.POLAR>
0

>  <SCORE.INTRA.POLAR.0>
0

>  <SCORE.INTRA.REPUL>
0.0350107

>  <SCORE.INTRA.REPUL.0>
0

>  <SCORE.INTRA.SOLV>
2.56087

>  <SCORE.INTRA.SOLV.lig_0>
-53.6586

>  <SCORE.INTRA.VDW>
-0.0142637

>  <SCORE.INTRA.VDW.0>
-0.556525

>  <SCORE.INTRA.norm>
0.261138

>  <SCORE.RESTR>
0

>  <SCORE.RESTR.CAVITY>
0

>  <SCORE.RESTR.norm>
0

>  <SCORE.SYSTEM>
0

>  <SCORE.SYSTEM.CONST>
0

>  <SCORE.SYSTEM.DIHEDRAL>
0

>  <SCORE.SYSTEM.SOLV>
0

>  <SCORE.SYSTEM.norm>
0

>  <SCORE.heavy>
11

>  <SCORE.norm>
-3.12642

>  <RMSD>
13.522

$$$$

 OpenBabel11021811383D
libRbt.so/2013.1/901 2013/11/27
 11 10  0  0  0  0  0  0  0  0999 V2000
  -10.1832    8.3959    1.2404 N   0  3  0  0  0  0  0  0  0  0  0  0
  -11.0141    7.2723    0.7123 C   0  0  2  0  0  0  0  0  0  0  0  0
  -12.3911    7.2781    1.3974 C   0  0  0  0  0  0  0  0  0  0  0  0
  -13.4111    7.1824    0.7411 O   0  0  0  0  0  0  0  0  0  0  0  0
  -10.3001    5.9417    0.9855 C   0  0  0  0  0  0  0  0  0  0  0  0
  -10.7917    4.8822   -0.0048 C   0  0  0  0  0  0  0  0  0  0  0  0
  -10.1053    5.0870   -1.3537 C   0  0  0  0  0  0  0  0  0  0  0  0
  -10.8727    6.0884   -2.1438 N   0  3  0  0  0  0  0  0  0  0  0  0
  -10.9716    5.9646   -3.4390 C   0  0  0  0  0  0  0  0  0  0  0  0
  -12.1449    5.7783   -3.9861 N   0  0  0  0  0  0  0  0  0  0  0  0
   -9.9001    6.0342   -4.1857 N   0  0  0  0  0  0  0  0  0  0  0  0
  2  1  1  1  0  0  0
  2  3  1  0  0  0  0
  2  5  1  0  0  0  0
  3  4  2  0  0  0  0
  5  6  1  0  0  0  0
  6  7  1  0  0  0  0
  7  8  1  0  0  0  0
  8  9  2  0  0  0  0
  9 10  1  0  0  0  0
  9 11  1  0  0  0  0
M  CHG  2   1   1   8   1
M  END
>  <CHROM.1>
-63.00943034,132.20525650,-156.71078749,78.53174056,-85.74169526,-144.53228860
-11.10038042,6.39312685,-0.93232760,-1.69388056,0.23062057,-1.84303986

>  <Name>


>  <RI>
0

>  <Rbt.Current_Directory>
/home/itssahil/PROJECTS/Mol_Feturizer/New_Systems/rnas/1aju

>  <Rbt.Executable>
rbdock ($Id: //depot/dev/client3/rdock/2013.1/src/exe/rbdock.cxx#4 $)

>  <Rbt.Library>
libRbt.so (2013.1, Build901 2013/11/27)

>  <Rbt.Parameter_File>
/export/apps/rDock/src/rDock_2013.1_src/data/scripts/dock_solv.prm

>  <Rbt.Receptor>
prm/blind_docking_100.prm

>  <SCORE>
-31.3577

>  <SCORE.INTER>
-31.3145

>  <SCORE.INTER.CONST>
1

>  <SCORE.INTER.POLAR>
-6.22233

>  <SCORE.INTER.ROT>
5

>  <SCORE.INTER.SOLV>
26.7186

>  <SCORE.INTER.VDW>
-15.9748

>  <SCORE.INTER.norm>
-2.84678

>  <SCORE.INTRA>
-0.226861

>  <SCORE.INTRA.DIHEDRAL>
-1.5365

>  <SCORE.INTRA.DIHEDRAL.0>
9.90185

>  <SCORE.INTRA.POLAR>
0

>  <SCORE.INTRA.POLAR.0>
0

>  <SCORE.INTRA.REPUL>
0

>  <SCORE.INTRA.REPUL.0>
0

>  <SCORE.INTRA.SOLV>
1.30735

>  <SCORE.INTRA.SOLV.lig_0>
-53.6586

>  <SCORE.INTRA.VDW>
-0.112286

>  <SCORE.INTRA.VDW.0>
-0.556525

>  <SCORE.INTRA.norm>
-0.0206237

>  <SCORE.RESTR>
0.183717

>  <SCORE.RESTR.CAVITY>
0.183717

>  <SCORE.RESTR.norm>
0.0167016

>  <SCORE.SYSTEM>
0

>  <SCORE.SYSTEM.CONST>
0

>  <SCORE.SYSTEM.DIHEDRAL>
0

>  <SCORE.SYSTEM.SOLV>
0

>  <SCORE.SYSTEM.norm>
0

>  <SCORE.heavy>
11

>  <SCORE.norm>
-2.8507

>  <RMSD>
13.524

$$$$

 OpenBabel11021811383D
libRbt.so/2013.1/901 2013/11/27
 11 10  0  0  0  0  0  0  0  0999 V2000
  -10.3033    8.4339    0.9634 N   0  3  0  0  0  0  0  0  0  0  0  0
  -11.3272    7.7637    1.8203 C   0  0  2  0  0  0  0  0  0  0  0  0
  -11.0387    8.0597    3.3018 C   0  0  0  0  0  0  0  0  0  0  0  0
  -11.8978    8.5394    4.0174 O   0  0  0  0  0  0  0  0  0  0  0  0
  -11.2841    6.2500    1.5719 C   0  0  0  0  0  0  0  0  0  0  0  0
  -11.2480    5.9776    0.0654 C   0  0  0  0  0  0  0  0  0  0  0  0
  -10.8318    4.5290   -0.1815 C   0  0  0  0  0  0  0  0  0  0  0  0
  -10.0351    4.4584   -1.4370 N   0  3  0  0  0  0  0  0  0  0  0  0
  -10.3998    5.1466   -2.4839 C   0  0  0  0  0  0  0  0  0  0  0  0
   -9.6151    6.0828   -2.9515 N   0  0  0  0  0  0  0  0  0  0  0  0
  -11.5435    4.8940   -3.0660 N   0  0  0  0  0  0  0  0  0  0  0  0
  2  1  1  6  0  0  0
  2  3  1  0  0  0  0
  2  5  1  0  0  0  0
  3  4  2  0  0  0  0
  5  6  1  0  0  0  0
  6  7  1  0  0  0  0
  7  8  1  0  0  0  0
  8  9  2  0  0  0  0
  9 10  1  0  0  0  0
  9 11  1  0  0  0  0
M  CHG  2   1   1   8   1
M  END
>  <CHROM.1>
178.40330012,125.68117575,-46.55362970,164.91096787,-146.35265543,-41.60907227
-10.84973478,6.40602828,0.11552941,-1.89946728,-1.14435745,-2.38840025

>  <Name>


>  <RI>
224

>  <Rbt.Current_Directory>
/home/itssahil/PROJECTS/Mol_Feturizer/New_Systems/rnas/1aju

>  <Rbt.Executable>
rbdock ($Id: //depot/dev/client3/rdock/2013.1/src/exe/rbdock.cxx#4 $)

>  <Rbt.Library>
libRbt.so (2013.1, Build901 2013/11/27)

>  <Rbt.Parameter_File>
/export/apps/rDock/src/rDock_2013.1_src/data/scripts/dock_solv.prm

>  <Rbt.Receptor>
prm/blind_docking_20.prm

>  <SCORE>
-19.7307

>  <SCORE.INTER>
-21.8295

>  <SCORE.INTER.CONST>
1

>  <SCORE.INTER.POLAR>
-5.32056

>  <SCORE.INTER.ROT>
5

>  <SCORE.INTER.SOLV>
28.2303

>  <SCORE.INTER.VDW>
-13.1612

>  <SCORE.INTER.norm>
-1.9845

>  <SCORE.INTRA>
2.02529

>  <SCORE.INTRA.DIHEDRAL>
-2.12167

>  <SCORE.INTRA.DIHEDRAL.0>
9.90185

>  <SCORE.INTRA.POLAR>
0

>  <SCORE.INTRA.POLAR.0>
0

>  <SCORE.INTRA.REPUL>
0

>  <SCORE.INTRA.REPUL.0>
0

>  <SCORE.INTRA.SOLV>
2.24985

>  <SCORE.INTRA.SOLV.lig_0>
-53.6586

>  <SCORE.INTRA.VDW>
1.9612

>  <SCORE.INTRA.VDW.0>
-0.556525

>  <SCORE.INTRA.norm>
0.184117

>  <SCORE.RESTR>
0.0735183

>  <SCORE.RESTR.CAVITY>
0.0735183

>  <SCORE.RESTR.norm>
0.00668348

>  <SCORE.SYSTEM>
0

>  <SCORE.SYSTEM.CONST>
0

>  <SCORE.SYSTEM.DIHEDRAL>
0

>  <SCORE.SYSTEM.SOLV>
0

>  <SCORE.SYSTEM.norm>
0

>  <SCORE.heavy>
11

>  <SCORE.norm>
-1.7937

>  <RMSD>
13.528

$$$$

 OpenBabel11021811383D
libRbt.so/2013.1/901 2013/11/27
 11 10  0  0  0  0  0  0  0  0999 V2000
  -12.3331    5.5671    3.1088 N   0  3  0  0  0  0  0  0  0  0  0  0
  -12.1964    5.6880    1.6261 C   0  0  2  0  0  0  0  0  0  0  0  0
  -13.1030    6.8190    1.1115 C   0  0  0  0  0  0  0  0  0  0  0  0
  -12.6411    7.9133    0.8480 O   0  0  0  0  0  0  0  0  0  0  0  0
  -12.5951    4.3593    0.9700 C   0  0  0  0  0  0  0  0  0  0  0  0
  -12.4879    4.4857   -0.5523 C   0  0  0  0  0  0  0  0  0  0  0  0
  -11.0248    4.6758   -0.9470 C   0  0  0  0  0  0  0  0  0  0  0  0
  -10.9043    5.8891   -1.8009 N   0  3  0  0  0  0  0  0  0  0  0  0
  -10.1664    5.8623   -2.8768 C   0  0  0  0  0  0  0  0  0  0  0  0
  -10.7201    6.0370   -4.0488 N   0  0  0  0  0  0  0  0  0  0  0  0
   -8.8766    5.6684   -2.7798 N   0  0  0  0  0  0  0  0  0  0  0  0
  2  1  1  1  0  0  0
  2  3  1  0  0  0  0
  2  5  1  0  0  0  0
  3  4  2  0  0  0  0
  5  6  1  0  0  0  0
  6  7  1  0  0  0  0
  7  8  1  0  0  0  0
  8  9  2  0  0  0  0
  9 10  1  0  0  0  0
  9 11  1  0  0  0  0
M  CHG  2   1   1   8   1
M  END
>  <CHROM.1>
91.18846634,100.70175594,178.72416872,66.20392026,-126.82711115,-136.00685207
-11.53408168,5.74851974,-0.47321381,-2.79763844,1.07144027,-0.42096133

>  <Name>


>  <RI>
0

>  <Rbt.Current_Directory>
/home/itssahil/PROJECTS/Mol_Feturizer/New_Systems/rnas/1aju

>  <Rbt.Executable>
rbdock ($Id: //depot/dev/client3/rdock/2013.1/src/exe/rbdock.cxx#4 $)

>  <Rbt.Library>
libRbt.so (2013.1, Build901 2013/11/27)

>  <Rbt.Parameter_File>
/export/apps/rDock/src/rDock_2013.1_src/data/scripts/dock_solv.prm

>  <Rbt.Receptor>
prm/blind_docking_40.prm

>  <SCORE>
-15.3705

>  <SCORE.INTER>
-17.7413

>  <SCORE.INTER.CONST>
1

>  <SCORE.INTER.POLAR>
-4.16701

>  <SCORE.INTER.ROT>
5

>  <SCORE.INTER.SOLV>
20.3975

>  <SCORE.INTER.VDW>
-11.67

>  <SCORE.INTER.norm>
-1.61285

>  <SCORE.INTRA>
2.17711

>  <SCORE.INTRA.DIHEDRAL>
1.0663

>  <SCORE.INTRA.DIHEDRAL.0>
9.90185

>  <SCORE.INTRA.POLAR>
0

>  <SCORE.INTRA.POLAR.0>
0

>  <SCORE.INTRA.REPUL>
0

>  <SCORE.INTRA.REPUL.0>
0

>  <SCORE.INTRA.SOLV>
1.02207

>  <SCORE.INTRA.SOLV.lig_0>
-53.6586

>  <SCORE.INTRA.VDW>
1.13292

>  <SCORE.INTRA.VDW.0>
-0.556525

>  <SCORE.INTRA.norm>
0.197919

>  <SCORE.RESTR>
0.193767

>  <SCORE.RESTR.CAVITY>
0.193767

>  <SCORE.RESTR.norm>
0.0176151

>  <SCORE.SYSTEM>
0

>  <SCORE.SYSTEM.CONST>
0

>  <SCORE.SYSTEM.DIHEDRAL>
0

>  <SCORE.SYSTEM.SOLV>
0

>  <SCORE.SYSTEM.norm>
0

>  <SCORE.heavy>
11

>  <SCORE.norm>
-1.39732

>  <RMSD>
13.536

$$$$

 OpenBabel11021811383D
libRbt.so/2013.1/901 2013/11/27
 11 10  0  0  0  0  0  0  0  0999 V2000
  -10.1427    8.4308    1.2776 N   0  3  0  0  0  0  0  0  0  0  0  0
  -11.1058    7.4625    0.6723 C   0  0  2  0  0  0  0  0  0  0  0  0
  -12.5278    7.7600    1.1774 C   0  0  0  0  0  0  0  0  0  0  0  0
  -13.0072    7.1200    2.0944 O   0  0  0  0  0  0  0  0  0  0  0  0
  -10.7011    6.0343    1.0616 C   0  0  0  0  0  0  0  0  0  0  0  0
  -11.6416    5.0320    0.3865 C   0  0  0  0  0  0  0  0  0  0  0  0
  -11.0741    4.6368   -0.9752 C   0  0  0  0  0  0  0  0  0  0  0  0
  -10.9669    5.8511   -1.8294 N   0  3  0  0  0  0  0  0  0  0  0  0
  -10.2160    5.8373   -2.8965 C   0  0  0  0  0  0  0  0  0  0  0  0
  -10.7590    5.9997   -4.0752 N   0  0  0  0  0  0  0  0  0  0  0  0
   -8.9239    5.6686   -2.7839 N   0  0  0  0  0  0  0  0  0  0  0  0
  2  1  1  1  0  0  0
  2  3  1  0  0  0  0
  2  5  1  0  0  0  0
  3  4  2  0  0  0  0
  5  6  1  0  0  0  0
  6  7  1  0  0  0  0
  7  8  1  0  0  0  0
  8  9  2  0  0  0  0
  9 10  1  0  0  0  0
  9 11  1  0  0  0  0
M  CHG  2   1   1   8   1
M  END
>  <CHROM.1>
-170.46527340,-98.33304745,-177.14079643,90.03674601,-60.79178747,162.96828791
-10.98028547,6.38104661,-0.53884720,-2.03665659,-0.76816979,-2.25565778

>  <Name>


>  <RI>
0

>  <Rbt.Current_Directory>
/home/itssahil/PROJECTS/Mol_Feturizer/New_Systems/rnas/1aju

>  <Rbt.Executable>
rbdock ($Id: //depot/dev/client3/rdock/2013.1/src/exe/rbdock.cxx#4 $)

>  <Rbt.Library>
libRbt.so (2013.1, Build901 2013/11/27)

>  <Rbt.Parameter_File>
/export/apps/rDock/src/rDock_2013.1_src/data/scripts/dock_solv.prm

>  <Rbt.Receptor>
prm/blind_docking_100.prm

>  <SCORE>
-30.8248

>  <SCORE.INTER>
-32.2328

>  <SCORE.INTER.CONST>
1

>  <SCORE.INTER.POLAR>
-6.09598

>  <SCORE.INTER.ROT>
5

>  <SCORE.INTER.SOLV>
29.6653

>  <SCORE.INTER.VDW>
-17.9903

>  <SCORE.INTER.norm>
-2.93025

>  <SCORE.INTRA>
1.10225

>  <SCORE.INTRA.DIHEDRAL>
-2.79272

>  <SCORE.INTRA.DIHEDRAL.0>
9.90185

>  <SCORE.INTRA.POLAR>
0

>  <SCORE.INTRA.POLAR.0>
0

>  <SCORE.INTRA.REPUL>
0

>  <SCORE.INTRA.REPUL.0>
0

>  <SCORE.INTRA.SOLV>
1.75957

>  <SCORE.INTRA.SOLV.lig_0>
-53.6586

>  <SCORE.INTRA.VDW>
1.61883

>  <SCORE.INTRA.VDW.0>
-0.556525

>  <SCORE.INTRA.norm>
0.100205

>  <SCORE.RESTR>
0.305727

>  <SCORE.RESTR.CAVITY>
0.305727

>  <SCORE.RESTR.norm>
0.0277934

>  <SCORE.SYSTEM>
0

>  <SCORE.SYSTEM.CONST>
0

>  <SCORE.SYSTEM.DIHEDRAL>
0

>  <SCORE.SYSTEM.SOLV>
0

>  <SCORE.SYSTEM.norm>
0

>  <SCORE.heavy>
11

>  <SCORE.norm>
-2.80226

>  <RMSD>
13.550

$$$$

 OpenBabel11021811383D
libRbt.so/2013.1/901 2013/11/27
 11 10  0  0  0  0  0  0  0  0999 V2000
  -10.4485    7.3719    1.8880 N   0  3  0  0  0  0  0  0  0  0  0  0
  -11.4585    7.0025    0.8511 C   0  0  2  0  0  0  0  0  0  0  0  0
  -12.8210    6.7522    1.5193 C   0  0  0  0  0  0  0  0  0  0  0  0
  -13.4097    5.7004    1.3534 O   0  0  0  0  0  0  0  0  0  0  0  0
  -10.9945    5.7356    0.1200 C   0  0  0  0  0  0  0  0  0  0  0  0
   -9.8445    6.0827   -0.8297 C   0  0  0  0  0  0  0  0  0  0  0  0
  -10.1453    5.5271   -2.2201 C   0  0  0  0  0  0  0  0  0  0  0  0
  -11.3888    6.1599   -2.7390 N   0  3  0  0  0  0  0  0  0  0  0  0
  -11.8448    5.8377   -3.9184 C   0  0  0  0  0  0  0  0  0  0  0  0
  -13.0140    5.2616   -4.0277 N   0  0  0  0  0  0  0  0  0  0  0  0
  -11.1361    6.0977   -4.9864 N   0  0  0  0  0  0  0  0  0  0  0  0
  2  1  1  1  0  0  0
  2  3  1  0  0  0  0
  2  5  1  0  0  0  0
  3  4  2  0  0  0  0
  5  6  1  0  0  0  0
  6  7  1  0  0  0  0
  7  8  1  0  0  0  0
  8  9  2  0  0  0  0
  9 10  1  0  0  0  0
  9 11  1  0  0  0  0
M  CHG  2   1   1   8   1
M  END
>  <CHROM.1>
172.07237767,-124.91069491,-74.06254415,-129.30463786,61.55821391,-179.99098473
-11.50639475,6.14419751,-1.17754936,-1.57793324,-0.20055518,-1.73123381

>  <Name>


>  <RI>
0

>  <Rbt.Current_Directory>
/home/itssahil/PROJECTS/Mol_Feturizer/New_Systems/rnas/1aju

>  <Rbt.Executable>
rbdock ($Id: //depot/dev/client3/rdock/2013.1/src/exe/rbdock.cxx#4 $)

>  <Rbt.Library>
libRbt.so (2013.1, Build901 2013/11/27)

>  <Rbt.Parameter_File>
/export/apps/rDock/src/rDock_2013.1_src/data/scripts/dock_solv.prm

>  <Rbt.Receptor>
prm/blind_docking_40.prm

>  <SCORE>
-19.6547

>  <SCORE.INTER>
-21.2857

>  <SCORE.INTER.CONST>
1

>  <SCORE.INTER.POLAR>
-3.7977

>  <SCORE.INTER.ROT>
5

>  <SCORE.INTER.SOLV>
18.5859

>  <SCORE.INTER.VDW>
-14.6601

>  <SCORE.INTER.norm>
-1.93507

>  <SCORE.INTRA>
1.63109

>  <SCORE.INTRA.DIHEDRAL>
-0.323832

>  <SCORE.INTRA.DIHEDRAL.0>
9.90185

>  <SCORE.INTRA.POLAR>
0

>  <SCORE.INTRA.POLAR.0>
0

>  <SCORE.INTRA.REPUL>
0

>  <SCORE.INTRA.REPUL.0>
0

>  <SCORE.INTRA.SOLV>
1.63393

>  <SCORE.INTRA.SOLV.lig_0>
-53.6586

>  <SCORE.INTRA.VDW>
0.97604

>  <SCORE.INTRA.VDW.0>
-0.556525

>  <SCORE.INTRA.norm>
0.148281

>  <SCORE.RESTR>
0

>  <SCORE.RESTR.CAVITY>
0

>  <SCORE.RESTR.norm>
0

>  <SCORE.SYSTEM>
0

>  <SCORE.SYSTEM.CONST>
0

>  <SCORE.SYSTEM.DIHEDRAL>
0

>  <SCORE.SYSTEM.SOLV>
0

>  <SCORE.SYSTEM.norm>
0

>  <SCORE.heavy>
11

>  <SCORE.norm>
-1.78679

>  <RMSD>
13.569

$$$$

 OpenBabel11021811383D
libRbt.so/2013.1/901 2013/11/27
 11 10  0  0  0  0  0  0  0  0999 V2000
   -9.5594    5.5658   -0.9435 N   0  3  0  0  0  0  0  0  0  0  0  0
  -11.0046    5.9108   -0.7884 C   0  0  2  0  0  0  0  0  0  0  0  0
  -11.5349    5.3416    0.5385 C   0  0  0  0  0  0  0  0  0  0  0  0
  -12.1886    6.0356    1.2943 O   0  0  0  0  0  0  0  0  0  0  0  0
  -11.7958    5.3206   -1.9634 C   0  0  0  0  0  0  0  0  0  0  0  0
  -11.2095    5.8282   -3.2838 C   0  0  0  0  0  0  0  0  0  0  0  0
  -12.1390    5.4484   -4.4346 C   0  0  0  0  0  0  0  0  0  0  0  0
  -11.4778    5.7829   -5.7256 N   0  3  0  0  0  0  0  0  0  0  0  0
  -12.1613    5.7599   -6.8369 C   0  0  0  0  0  0  0  0  0  0  0  0
  -12.3242    6.8619   -7.5225 N   0  0  0  0  0  0  0  0  0  0  0  0
  -12.6747    4.6357   -7.2652 N   0  0  0  0  0  0  0  0  0  0  0  0
  2  1  1  6  0  0  0
  2  3  1  0  0  0  0
  2  5  1  0  0  0  0
  3  4  2  0  0  0  0
  5  6  1  0  0  0  0
  6  7  1  0  0  0  0
  7  8  1  0  0  0  0
  8  9  2  0  0  0  0
  9 10  1  0  0  0  0
  9 11  1  0  0  0  0
M  CHG  2   1   1   8   1
M  END
>  <CHROM.1>
67.38528678,132.19369998,-56.23485674,-169.94509705,-172.52592553,-168.41705247
-11.61973996,5.68519720,-3.37304236,-1.42743010,-0.09918335,-1.54794629

>  <Name>


>  <RI>
0

>  <Rbt.Current_Directory>
/home/itssahil/PROJECTS/Mol_Feturizer/New_Systems/rnas/1aju

>  <Rbt.Executable>
rbdock ($Id: //depot/dev/client3/rdock/2013.1/src/exe/rbdock.cxx#4 $)

>  <Rbt.Library>
libRbt.so (2013.1, Build901 2013/11/27)

>  <Rbt.Parameter_File>
/export/apps/rDock/src/rDock_2013.1_src/data/scripts/dock_solv.prm

>  <Rbt.Receptor>
prm/blind_docking_40.prm

>  <SCORE>
-20.8251

>  <SCORE.INTER>
-18.8337

>  <SCORE.INTER.CONST>
1

>  <SCORE.INTER.POLAR>
-3.74088

>  <SCORE.INTER.ROT>
5

>  <SCORE.INTER.SOLV>
19.4544

>  <SCORE.INTER.VDW>
-13.5043

>  <SCORE.INTER.norm>
-1.71215

>  <SCORE.INTRA>
-1.99144

>  <SCORE.INTRA.DIHEDRAL>
-5.89696

>  <SCORE.INTRA.DIHEDRAL.0>
9.90185

>  <SCORE.INTRA.POLAR>
0

>  <SCORE.INTRA.POLAR.0>
0

>  <SCORE.INTRA.REPUL>
0

>  <SCORE.INTRA.REPUL.0>
0

>  <SCORE.INTRA.SOLV>
1.07095

>  <SCORE.INTRA.SOLV.lig_0>
-53.6586

>  <SCORE.INTRA.VDW>
0.421564

>  <SCORE.INTRA.VDW.0>
-0.556525

>  <SCORE.INTRA.norm>
-0.18104

>  <SCORE.RESTR>
0

>  <SCORE.RESTR.CAVITY>
0

>  <SCORE.RESTR.norm>
0

>  <SCORE.SYSTEM>
0

>  <SCORE.SYSTEM.CONST>
0

>  <SCORE.SYSTEM.DIHEDRAL>
0

>  <SCORE.SYSTEM.SOLV>
0

>  <SCORE.SYSTEM.norm>
0

>  <SCORE.heavy>
11

>  <SCORE.norm>
-1.89319

>  <RMSD>
13.585

$$$$

 OpenBabel11021811383D
libRbt.so/2013.1/901 2013/11/27
 11 10  0  0  0  0  0  0  0  0999 V2000
  -10.0825    8.3803    1.2720 N   0  3  0  0  0  0  0  0  0  0  0  0
  -11.0273    7.4070    0.6463 C   0  0  2  0  0  0  0  0  0  0  0  0
  -12.4585    7.6839    1.1368 C   0  0  0  0  0  0  0  0  0  0  0  0
  -12.6672    8.5049    2.0101 O   0  0  0  0  0  0  0  0  0  0  0  0
  -10.6113    5.9799    1.0274 C   0  0  0  0  0  0  0  0  0  0  0  0
  -11.5667    4.9754    0.3768 C   0  0  0  0  0  0  0  0  0  0  0  0
  -11.0439    4.5964   -1.0072 C   0  0  0  0  0  0  0  0  0  0  0  0
  -10.9765    5.8187   -1.8541 N   0  3  0  0  0  0  0  0  0  0  0  0
  -10.2313    5.8334   -2.9251 C   0  0  0  0  0  0  0  0  0  0  0  0
  -10.7851    5.9874   -4.1000 N   0  0  0  0  0  0  0  0  0  0  0  0
   -8.9342    5.7015   -2.8204 N   0  0  0  0  0  0  0  0  0  0  0  0
  2  1  1  1  0  0  0
  2  3  1  0  0  0  0
  2  5  1  0  0  0  0
  3  4  2  0  0  0  0
  5  6  1  0  0  0  0
  6  7  1  0  0  0  0
  7  8  1  0  0  0  0
  8  9  2  0  0  0  0
  9 10  1  0  0  0  0
  9 11  1  0  0  0  0
M  CHG  2   1   1   8   1
M  END
>  <CHROM.1>
69.10928150,-6.74695051,-179.39048536,89.12514953,-60.79481733,160.89412684
-10.91680902,6.48880984,-0.57038156,-2.15523248,-1.03910444,-2.54219212

>  <Name>


>  <RI>
0

>  <Rbt.Current_Directory>
/home/itssahil/PROJECTS/Mol_Feturizer/New_Systems/rnas/1aju

>  <Rbt.Executable>
rbdock ($Id: //depot/dev/client3/rdock/2013.1/src/exe/rbdock.cxx#4 $)

>  <Rbt.Library>
libRbt.so (2013.1, Build901 2013/11/27)

>  <Rbt.Parameter_File>
/export/apps/rDock/src/rDock_2013.1_src/data/scripts/dock_solv.prm

>  <Rbt.Receptor>
prm/blind_docking_40.prm

>  <SCORE>
-31.8198

>  <SCORE.INTER>
-32.2638

>  <SCORE.INTER.CONST>
1

>  <SCORE.INTER.POLAR>
-6.05329

>  <SCORE.INTER.ROT>
5

>  <SCORE.INTER.SOLV>
29.8923

>  <SCORE.INTER.VDW>
-18.229

>  <SCORE.INTER.norm>
-2.93307

>  <SCORE.INTRA>
0.364773

>  <SCORE.INTRA.DIHEDRAL>
-3.70157

>  <SCORE.INTRA.DIHEDRAL.0>
9.90185

>  <SCORE.INTRA.POLAR>
0

>  <SCORE.INTRA.POLAR.0>
0

>  <SCORE.INTRA.REPUL>
0

>  <SCORE.INTRA.REPUL.0>
0

>  <SCORE.INTRA.SOLV>
2.46709

>  <SCORE.INTRA.SOLV.lig_0>
-53.6586

>  <SCORE.INTRA.VDW>
0.982013

>  <SCORE.INTRA.VDW.0>
-0.556525

>  <SCORE.INTRA.norm>
0.0331612

>  <SCORE.RESTR>
0.0792209

>  <SCORE.RESTR.CAVITY>
0.0792209

>  <SCORE.RESTR.norm>
0.0072019

>  <SCORE.SYSTEM>
0

>  <SCORE.SYSTEM.CONST>
0

>  <SCORE.SYSTEM.DIHEDRAL>
0

>  <SCORE.SYSTEM.SOLV>
0

>  <SCORE.SYSTEM.norm>
0

>  <SCORE.heavy>
11

>  <SCORE.norm>
-2.89271

>  <RMSD>
13.594

$$$$

 OpenBabel11021811383D
libRbt.so/2013.1/901 2013/11/27
 11 10  0  0  0  0  0  0  0  0999 V2000
  -10.3254    8.2962    0.9630 N   0  3  0  0  0  0  0  0  0  0  0  0
  -11.1775    7.3251    1.7130 C   0  0  2  0  0  0  0  0  0  0  0  0
  -11.1323    7.6476    3.2162 C   0  0  0  0  0  0  0  0  0  0  0  0
  -11.5552    8.7082    3.6363 O   0  0  0  0  0  0  0  0  0  0  0  0
  -10.6595    5.9015    1.4682 C   0  0  0  0  0  0  0  0  0  0  0  0
  -11.7081    5.0999    0.6918 C   0  0  0  0  0  0  0  0  0  0  0  0
  -11.9073    5.7224   -0.6885 C   0  0  0  0  0  0  0  0  0  0  0  0
  -11.0876    4.9764   -1.6823 N   0  3  0  0  0  0  0  0  0  0  0  0
  -10.5078    5.6127   -2.6629 C   0  0  0  0  0  0  0  0  0  0  0  0
   -9.2027    5.6243   -2.7482 N   0  0  0  0  0  0  0  0  0  0  0  0
  -11.2322    6.2299   -3.5602 N   0  0  0  0  0  0  0  0  0  0  0  0
  2  1  1  6  0  0  0
  2  3  1  0  0  0  0
  2  5  1  0  0  0  0
  3  4  2  0  0  0  0
  5  6  1  0  0  0  0
  6  7  1  0  0  0  0
  7  8  1  0  0  0  0
  8  9  2  0  0  0  0
  9 10  1  0  0  0  0
  9 11  1  0  0  0  0
M  CHG  2   1   1   8   1
M  END
>  <CHROM.1>
-50.70026489,63.02729636,-114.26887123,63.93787022,97.37685347,-143.35640633
-10.92808117,6.50592430,-0.00077530,-1.78738426,-1.07685334,-2.15712895

>  <Name>


>  <RI>
0

>  <Rbt.Current_Directory>
/home/itssahil/PROJECTS/Mol_Feturizer/New_Systems/rnas/1aju

>  <Rbt.Executable>
rbdock ($Id: //depot/dev/client3/rdock/2013.1/src/exe/rbdock.cxx#4 $)

>  <Rbt.Library>
libRbt.so (2013.1, Build901 2013/11/27)

>  <Rbt.Parameter_File>
/export/apps/rDock/src/rDock_2013.1_src/data/scripts/dock_solv.prm

>  <Rbt.Receptor>
prm/blind_docking_100.prm

>  <SCORE>
-33.2511

>  <SCORE.INTER>
-36.9412

>  <SCORE.INTER.CONST>
1

>  <SCORE.INTER.POLAR>
-6.91954

>  <SCORE.INTER.ROT>
5

>  <SCORE.INTER.SOLV>
28.2595

>  <SCORE.INTER.VDW>
-17.9155

>  <SCORE.INTER.norm>
-3.35829

>  <SCORE.INTRA>
3.6052

>  <SCORE.INTRA.DIHEDRAL>
4.80598

>  <SCORE.INTRA.DIHEDRAL.0>
9.90185

>  <SCORE.INTRA.POLAR>
0

>  <SCORE.INTRA.POLAR.0>
0

>  <SCORE.INTRA.REPUL>
0.0494323

>  <SCORE.INTRA.REPUL.0>
0

>  <SCORE.INTRA.SOLV>
2.12718

>  <SCORE.INTRA.SOLV.lig_0>
-53.6586

>  <SCORE.INTRA.VDW>
-0.108539

>  <SCORE.INTRA.VDW.0>
-0.556525

>  <SCORE.INTRA.norm>
0.327746

>  <SCORE.RESTR>
0.0848424

>  <SCORE.RESTR.CAVITY>
0.0848424

>  <SCORE.RESTR.norm>
0.00771294

>  <SCORE.SYSTEM>
0

>  <SCORE.SYSTEM.CONST>
0

>  <SCORE.SYSTEM.DIHEDRAL>
0

>  <SCORE.SYSTEM.SOLV>
0

>  <SCORE.SYSTEM.norm>
0

>  <SCORE.heavy>
11

>  <SCORE.norm>
-3.02283

>  <RMSD>
13.595

$$$$

 OpenBabel11021811383D
libRbt.so/2013.1/901 2013/11/27
 11 10  0  0  0  0  0  0  0  0999 V2000
  -10.2676    8.3150    0.8502 N   0  3  0  0  0  0  0  0  0  0  0  0
  -11.3420    7.5631    1.5658 C   0  0  2  0  0  0  0  0  0  0  0  0
  -11.5070    8.1219    2.9893 C   0  0  0  0  0  0  0  0  0  0  0  0
  -11.4271    7.3886    3.9569 O   0  0  0  0  0  0  0  0  0  0  0  0
  -10.9653    6.0769    1.6283 C   0  0  0  0  0  0  0  0  0  0  0  0
  -10.3386    5.6495    0.2980 C   0  0  0  0  0  0  0  0  0  0  0  0
  -11.3773    5.7644   -0.8158 C   0  0  0  0  0  0  0  0  0  0  0  0
  -10.8523    5.1028   -2.0416 N   0  3  0  0  0  0  0  0  0  0  0  0
  -10.9480    5.6975   -3.1991 C   0  0  0  0  0  0  0  0  0  0  0  0
   -9.8634    6.0311   -3.8497 N   0  0  0  0  0  0  0  0  0  0  0  0
  -12.1258    5.9513   -3.7079 N   0  0  0  0  0  0  0  0  0  0  0  0
  2  1  1  1  0  0  0
  2  3  1  0  0  0  0
  2  5  1  0  0  0  0
  3  4  2  0  0  0  0
  5  6  1  0  0  0  0
  6  7  1  0  0  0  0
  7  8  1  0  0  0  0
  8  9  2  0  0  0  0
  9 10  1  0  0  0  0
  9 11  1  0  0  0  0
M  CHG  2   1   1   8   1
M  END
>  <CHROM.1>
76.19556319,-125.03369091,-40.03466649,-64.54569861,-169.02757910,-133.91250769
-10.98008635,6.53159603,-0.24239625,-1.72651204,-1.31480818,-2.01079981

>  <Name>


>  <RI>
0

>  <Rbt.Current_Directory>
/home/itssahil/PROJECTS/Mol_Feturizer/New_Systems/rnas/1aju

>  <Rbt.Executable>
rbdock ($Id: //depot/dev/client3/rdock/2013.1/src/exe/rbdock.cxx#4 $)

>  <Rbt.Library>
libRbt.so (2013.1, Build901 2013/11/27)

>  <Rbt.Parameter_File>
/export/apps/rDock/src/rDock_2013.1_src/data/scripts/dock_solv.prm

>  <Rbt.Receptor>
prm/blind_docking_100.prm

>  <SCORE>
-27.9993

>  <SCORE.INTER>
-29.7663

>  <SCORE.INTER.CONST>
1

>  <SCORE.INTER.POLAR>
-5.3538

>  <SCORE.INTER.ROT>
5

>  <SCORE.INTER.SOLV>
26.5979

>  <SCORE.INTER.VDW>
-17.7975

>  <SCORE.INTER.norm>
-2.70603

>  <SCORE.INTRA>
1.7507

>  <SCORE.INTRA.DIHEDRAL>
-4.51889

>  <SCORE.INTRA.DIHEDRAL.0>
9.90185

>  <SCORE.INTRA.POLAR>
0

>  <SCORE.INTRA.POLAR.0>
0

>  <SCORE.INTRA.REPUL>
0

>  <SCORE.INTRA.REPUL.0>
0

>  <SCORE.INTRA.SOLV>
2.74213

>  <SCORE.INTRA.SOLV.lig_0>
-53.6586

>  <SCORE.INTRA.VDW>
2.63908

>  <SCORE.INTRA.VDW.0>
-0.556525

>  <SCORE.INTRA.norm>
0.159154

>  <SCORE.RESTR>
0.0163409

>  <SCORE.RESTR.CAVITY>
0.0163409

>  <SCORE.RESTR.norm>
0.00148554

>  <SCORE.SYSTEM>
0

>  <SCORE.SYSTEM.CONST>
0

>  <SCORE.SYSTEM.DIHEDRAL>
0

>  <SCORE.SYSTEM.SOLV>
0

>  <SCORE.SYSTEM.norm>
0

>  <SCORE.heavy>
11

>  <SCORE.norm>
-2.54539

>  <RMSD>
13.600

$$$$

 OpenBabel11021811383D
libRbt.so/2013.1/901 2013/11/27
 11 10  0  0  0  0  0  0  0  0999 V2000
  -10.1272    8.5313    1.3796 N   0  3  0  0  0  0  0  0  0  0  0  0
  -11.1808    7.5431    0.9986 C   0  0  2  0  0  0  0  0  0  0  0  0
  -12.3957    7.6944    1.9297 C   0  0  0  0  0  0  0  0  0  0  0  0
  -12.6132    6.8766    2.8038 O   0  0  0  0  0  0  0  0  0  0  0  0
  -10.6093    6.1235    1.1117 C   0  0  0  0  0  0  0  0  0  0  0  0
  -11.6199    5.1171    0.5543 C   0  0  0  0  0  0  0  0  0  0  0  0
  -12.0228    5.5285   -0.8602 C   0  0  0  0  0  0  0  0  0  0  0  0
  -11.1124    4.8703   -1.8369 N   0  3  0  0  0  0  0  0  0  0  0  0
  -10.4970    5.5818   -2.7413 C   0  0  0  0  0  0  0  0  0  0  0  0
   -9.1906    5.6454   -2.7397 N   0  0  0  0  0  0  0  0  0  0  0  0
  -11.1867    6.2223   -3.6494 N   0  0  0  0  0  0  0  0  0  0  0  0
  2  1  1  1  0  0  0
  2  3  1  0  0  0  0
  2  5  1  0  0  0  0
  3  4  2  0  0  0  0
  5  6  1  0  0  0  0
  6  7  1  0  0  0  0
  7  8  1  0  0  0  0
  8  9  2  0  0  0  0
  9 10  1  0  0  0  0
  9 11  1  0  0  0  0
M  CHG  2   1   1   8   1
M  END
>  <CHROM.1>
170.88166335,-105.41687006,-172.82812332,53.52611944,91.05617728,-127.72778336
-11.10806438,6.36301144,-0.28389519,-1.88505991,-0.76269089,-2.14010156

>  <Name>


>  <RI>
0

>  <Rbt.Current_Directory>
/home/itssahil/PROJECTS/Mol_Feturizer/New_Systems/rnas/1aju

>  <Rbt.Executable>
rbdock ($Id: //depot/dev/client3/rdock/2013.1/src/exe/rbdock.cxx#4 $)

>  <Rbt.Library>
libRbt.so (2013.1, Build901 2013/11/27)

>  <Rbt.Parameter_File>
/export/apps/rDock/src/rDock_2013.1_src/data/scripts/dock_solv.prm

>  <Rbt.Receptor>
prm/blind_docking_100.prm

>  <SCORE>
-30.9391

>  <SCORE.INTER>
-31.892

>  <SCORE.INTER.CONST>
1

>  <SCORE.INTER.POLAR>
-6.35562

>  <SCORE.INTER.ROT>
5

>  <SCORE.INTER.SOLV>
29.2691

>  <SCORE.INTER.VDW>
-16.7657

>  <SCORE.INTER.norm>
-2.89928

>  <SCORE.INTRA>
0.857728

>  <SCORE.INTRA.DIHEDRAL>
-3.12002

>  <SCORE.INTRA.DIHEDRAL.0>
9.90185

>  <SCORE.INTRA.POLAR>
0

>  <SCORE.INTRA.POLAR.0>
0

>  <SCORE.INTRA.REPUL>
0

>  <SCORE.INTRA.REPUL.0>
0

>  <SCORE.INTRA.SOLV>
0.777254

>  <SCORE.INTRA.SOLV.lig_0>
-53.6586

>  <SCORE.INTRA.VDW>
2.02911

>  <SCORE.INTRA.VDW.0>
-0.556525

>  <SCORE.INTRA.norm>
0.0779753

>  <SCORE.RESTR>
0.0951657

>  <SCORE.RESTR.CAVITY>
0.0951657

>  <SCORE.RESTR.norm>
0.00865143

>  <SCORE.SYSTEM>
0

>  <SCORE.SYSTEM.CONST>
0

>  <SCORE.SYSTEM.DIHEDRAL>
0

>  <SCORE.SYSTEM.SOLV>
0

>  <SCORE.SYSTEM.norm>
0

>  <SCORE.heavy>
11

>  <SCORE.norm>
-2.81265

>  <RMSD>
13.602

$$$$

 OpenBabel11021811383D
libRbt.so/2013.1/901 2013/11/27
 11 10  0  0  0  0  0  0  0  0999 V2000
  -12.1831    7.4534    3.9074 N   0  3  0  0  0  0  0  0  0  0  0  0
  -11.4288    6.9551    2.7181 C   0  0  2  0  0  0  0  0  0  0  0  0
  -11.2142    8.1054    1.7199 C   0  0  0  0  0  0  0  0  0  0  0  0
  -10.1445    8.6816    1.6577 O   0  0  0  0  0  0  0  0  0  0  0  0
  -12.2239    5.8252    2.0503 C   0  0  0  0  0  0  0  0  0  0  0  0
  -11.3460    5.1255    1.0089 C   0  0  0  0  0  0  0  0  0  0  0  0
  -11.4593    5.8556   -0.3278 C   0  0  0  0  0  0  0  0  0  0  0  0
  -10.7912    5.0461   -1.3833 N   0  3  0  0  0  0  0  0  0  0  0  0
  -10.3192    5.6256   -2.4529 C   0  0  0  0  0  0  0  0  0  0  0  0
   -9.0350    5.5898   -2.6982 N   0  0  0  0  0  0  0  0  0  0  0  0
  -11.1310    6.2334   -3.2789 N   0  0  0  0  0  0  0  0  0  0  0  0
  2  1  1  1  0  0  0
  2  3  1  0  0  0  0
  2  5  1  0  0  0  0
  3  4  2  0  0  0  0
  5  6  1  0  0  0  0
  6  7  1  0  0  0  0
  7  8  1  0  0  0  0
  8  9  2  0  0  0  0
  9 10  1  0  0  0  0
  9 11  1  0  0  0  0
M  CHG  2   1   1   8   1
M  END
>  <CHROM.1>
61.73037127,101.00139166,-168.89227083,-87.10956664,-170.61859529,-154.65907444
-11.01666404,6.43006884,0.27014127,2.00532361,0.98667833,0.89747391

>  <Name>


>  <RI>
0

>  <Rbt.Current_Directory>
/home/itssahil/PROJECTS/Mol_Feturizer/New_Systems/rnas/1aju

>  <Rbt.Executable>
rbdock ($Id: //depot/dev/client3/rdock/2013.1/src/exe/rbdock.cxx#4 $)

>  <Rbt.Library>
libRbt.so (2013.1, Build901 2013/11/27)

>  <Rbt.Parameter_File>
/export/apps/rDock/src/rDock_2013.1_src/data/scripts/dock_solv.prm

>  <Rbt.Receptor>
prm/blind_docking_60.prm

>  <SCORE>
-26.3613

>  <SCORE.INTER>
-25.5093

>  <SCORE.INTER.CONST>
1

>  <SCORE.INTER.POLAR>
-4.50144

>  <SCORE.INTER.ROT>
5

>  <SCORE.INTER.SOLV>
19.6457

>  <SCORE.INTER.VDW>
-15.4833

>  <SCORE.INTER.norm>
-2.31903

>  <SCORE.INTRA>
-0.852001

>  <SCORE.INTRA.DIHEDRAL>
-3.03161

>  <SCORE.INTRA.DIHEDRAL.0>
9.90185

>  <SCORE.INTRA.POLAR>
0

>  <SCORE.INTRA.POLAR.0>
0

>  <SCORE.INTRA.REPUL>
0

>  <SCORE.INTRA.REPUL.0>
0

>  <SCORE.INTRA.SOLV>
0.203595

>  <SCORE.INTRA.SOLV.lig_0>
-53.6586

>  <SCORE.INTRA.VDW>
0.562006

>  <SCORE.INTRA.VDW.0>
-0.556525

>  <SCORE.INTRA.norm>
-0.0774546

>  <SCORE.RESTR>
0

>  <SCORE.RESTR.CAVITY>
0

>  <SCORE.RESTR.norm>
0

>  <SCORE.SYSTEM>
0

>  <SCORE.SYSTEM.CONST>
0

>  <SCORE.SYSTEM.DIHEDRAL>
0

>  <SCORE.SYSTEM.SOLV>
0

>  <SCORE.SYSTEM.norm>
0

>  <SCORE.heavy>
11

>  <SCORE.norm>
-2.39649

>  <RMSD>
13.603

$$$$

 OpenBabel11021811383D
libRbt.so/2013.1/901 2013/11/27
 11 10  0  0  0  0  0  0  0  0999 V2000
   -9.9442    8.0343    1.3189 N   0  3  0  0  0  0  0  0  0  0  0  0
  -11.0984    7.3153    0.7005 C   0  0  2  0  0  0  0  0  0  0  0  0
  -12.4166    7.9754    1.1390 C   0  0  0  0  0  0  0  0  0  0  0  0
  -13.0627    7.5174    2.0626 O   0  0  0  0  0  0  0  0  0  0  0  0
  -11.0770    5.8462    1.1435 C   0  0  0  0  0  0  0  0  0  0  0  0
  -12.0325    5.0315    0.2672 C   0  0  0  0  0  0  0  0  0  0  0  0
  -11.3265    4.6377   -1.0285 C   0  0  0  0  0  0  0  0  0  0  0  0
  -11.1443    5.8505   -1.8722 N   0  3  0  0  0  0  0  0  0  0  0  0
  -10.3259    5.8250   -2.8882 C   0  0  0  0  0  0  0  0  0  0  0  0
  -10.7885    5.9967   -4.0995 N   0  0  0  0  0  0  0  0  0  0  0  0
   -9.0468    5.6352   -2.6922 N   0  0  0  0  0  0  0  0  0  0  0  0
  2  1  1  1  0  0  0
  2  3  1  0  0  0  0
  2  5  1  0  0  0  0
  3  4  2  0  0  0  0
  5  6  1  0  0  0  0
  6  7  1  0  0  0  0
  7  8  1  0  0  0  0
  8  9  2  0  0  0  0
  9 10  1  0  0  0  0
  9 11  1  0  0  0  0
M  CHG  2   1   1   8   1
M  END
>  <CHROM.1>
-81.69108671,-97.45314935,-166.42268133,83.29236268,-70.66472888,165.52827309
-11.08328238,6.36197109,-0.54294870,-1.95638163,-0.61343378,-2.15662509

>  <Name>


>  <RI>
0

>  <Rbt.Current_Directory>
/home/itssahil/PROJECTS/Mol_Feturizer/New_Systems/rnas/1aju

>  <Rbt.Executable>
rbdock ($Id: //depot/dev/client3/rdock/2013.1/src/exe/rbdock.cxx#4 $)

>  <Rbt.Library>
libRbt.so (2013.1, Build901 2013/11/27)

>  <Rbt.Parameter_File>
/export/apps/rDock/src/rDock_2013.1_src/data/scripts/dock_solv.prm

>  <Rbt.Receptor>
prm/blind_docking_100.prm

>  <SCORE>
-27.9782

>  <SCORE.INTER>
-29.0375

>  <SCORE.INTER.CONST>
1

>  <SCORE.INTER.POLAR>
-5.48017

>  <SCORE.INTER.ROT>
5

>  <SCORE.INTER.SOLV>
28.8677

>  <SCORE.INTER.VDW>
-17.647

>  <SCORE.INTER.norm>
-2.63978

>  <SCORE.INTRA>
0.909645

>  <SCORE.INTRA.DIHEDRAL>
-1.97032

>  <SCORE.INTRA.DIHEDRAL.0>
9.90185

>  <SCORE.INTRA.POLAR>
0

>  <SCORE.INTRA.POLAR.0>
0

>  <SCORE.INTRA.REPUL>
0

>  <SCORE.INTRA.REPUL.0>
0

>  <SCORE.INTRA.SOLV>
1.65716

>  <SCORE.INTRA.SOLV.lig_0>
-53.6586

>  <SCORE.INTRA.VDW>
1.06623

>  <SCORE.INTRA.VDW.0>
-0.556525

>  <SCORE.INTRA.norm>
0.082695

>  <SCORE.RESTR>
0.149665

>  <SCORE.RESTR.CAVITY>
0.149665

>  <SCORE.RESTR.norm>
0.0136059

>  <SCORE.SYSTEM>
0

>  <SCORE.SYSTEM.CONST>
0

>  <SCORE.SYSTEM.DIHEDRAL>
0

>  <SCORE.SYSTEM.SOLV>
0

>  <SCORE.SYSTEM.norm>
0

>  <SCORE.heavy>
11

>  <SCORE.norm>
-2.54347

>  <RMSD>
13.610

$$$$

 OpenBabel11021811383D
libRbt.so/2013.1/901 2013/11/27
 11 10  0  0  0  0  0  0  0  0999 V2000
  -11.8557    6.3083    3.2685 N   0  3  0  0  0  0  0  0  0  0  0  0
  -11.2382    7.1481    2.1985 C   0  0  2  0  0  0  0  0  0  0  0  0
  -11.3534    8.6352    2.5742 C   0  0  0  0  0  0  0  0  0  0  0  0
  -10.3563    9.3113    2.7444 O   0  0  0  0  0  0  0  0  0  0  0  0
  -11.9597    6.8876    0.8695 C   0  0  0  0  0  0  0  0  0  0  0  0
  -11.2821    5.7266    0.1362 C   0  0  0  0  0  0  0  0  0  0  0  0
   -9.9680    6.2071   -0.4761 C   0  0  0  0  0  0  0  0  0  0  0  0
   -9.6630    5.3868   -1.6803 N   0  3  0  0  0  0  0  0  0  0  0  0
  -10.2231    5.6693   -2.8245 C   0  0  0  0  0  0  0  0  0  0  0  0
   -9.4818    6.0356   -3.8379 N   0  0  0  0  0  0  0  0  0  0  0  0
  -11.5212    5.5785   -2.9565 N   0  0  0  0  0  0  0  0  0  0  0  0
  2  1  1  1  0  0  0
  2  3  1  0  0  0  0
  2  5  1  0  0  0  0
  3  4  2  0  0  0  0
  5  6  1  0  0  0  0
  6  7  1  0  0  0  0
  7  8  1  0  0  0  0
  8  9  2  0  0  0  0
  9 10  1  0  0  0  0
  9 11  1  0  0  0  0
M  CHG  2   1   1   8   1
M  END
>  <CHROM.1>
-83.25748679,117.90126975,-89.28323081,-75.46342842,-152.01799540,81.98199995
-10.81125875,6.61475160,0.00657724,1.86228627,0.90503331,0.98076038

>  <Name>


>  <RI>
0

>  <Rbt.Current_Directory>
/home/itssahil/PROJECTS/Mol_Feturizer/New_Systems/rnas/1aju

>  <Rbt.Executable>
rbdock ($Id: //depot/dev/client3/rdock/2013.1/src/exe/rbdock.cxx#4 $)

>  <Rbt.Library>
libRbt.so (2013.1, Build901 2013/11/27)

>  <Rbt.Parameter_File>
/export/apps/rDock/src/rDock_2013.1_src/data/scripts/dock_solv.prm

>  <Rbt.Receptor>
prm/blind_docking_100.prm

>  <SCORE>
-30.053

>  <SCORE.INTER>
-31.6311

>  <SCORE.INTER.CONST>
1

>  <SCORE.INTER.POLAR>
-5.7329

>  <SCORE.INTER.ROT>
5

>  <SCORE.INTER.SOLV>
21.4309

>  <SCORE.INTER.VDW>
-16.0547

>  <SCORE.INTER.norm>
-2.87555

>  <SCORE.INTRA>
1.22878

>  <SCORE.INTRA.DIHEDRAL>
0.0637639

>  <SCORE.INTRA.DIHEDRAL.0>
9.90185

>  <SCORE.INTRA.POLAR>
0

>  <SCORE.INTRA.POLAR.0>
0

>  <SCORE.INTRA.REPUL>
0

>  <SCORE.INTRA.REPUL.0>
0

>  <SCORE.INTRA.SOLV>
1.4857

>  <SCORE.INTRA.SOLV.lig_0>
-53.6586

>  <SCORE.INTRA.VDW>
0.454051

>  <SCORE.INTRA.VDW.0>
-0.556525

>  <SCORE.INTRA.norm>
0.111708

>  <SCORE.RESTR>
0.349281

>  <SCORE.RESTR.CAVITY>
0.349281

>  <SCORE.RESTR.norm>
0.0317528

>  <SCORE.SYSTEM>
0

>  <SCORE.SYSTEM.CONST>
0

>  <SCORE.SYSTEM.DIHEDRAL>
0

>  <SCORE.SYSTEM.SOLV>
0

>  <SCORE.SYSTEM.norm>
0

>  <SCORE.heavy>
11

>  <SCORE.norm>
-2.73209

>  <RMSD>
13.626

$$$$

 OpenBabel11021811383D
libRbt.so/2013.1/901 2013/11/27
 11 10  0  0  0  0  0  0  0  0999 V2000
  -10.1604    8.4727    1.2487 N   0  3  0  0  0  0  0  0  0  0  0  0
  -11.1442    7.4665    0.7476 C   0  0  2  0  0  0  0  0  0  0  0  0
  -12.4854    7.6422    1.4796 C   0  0  0  0  0  0  0  0  0  0  0  0
  -12.6605    8.5772    2.2382 O   0  0  0  0  0  0  0  0  0  0  0  0
  -10.5956    6.0547    0.9938 C   0  0  0  0  0  0  0  0  0  0  0  0
  -11.5601    5.0195    0.4081 C   0  0  0  0  0  0  0  0  0  0  0  0
  -11.0961    4.6244   -0.9923 C   0  0  0  0  0  0  0  0  0  0  0  0
  -10.9609    5.8510   -1.8248 N   0  3  0  0  0  0  0  0  0  0  0  0
  -10.2106    5.8388   -2.8923 C   0  0  0  0  0  0  0  0  0  0  0  0
  -10.7498    6.0348   -4.0677 N   0  0  0  0  0  0  0  0  0  0  0  0
   -8.9227    5.6382   -2.7834 N   0  0  0  0  0  0  0  0  0  0  0  0
  2  1  1  1  0  0  0
  2  3  1  0  0  0  0
  2  5  1  0  0  0  0
  3  4  2  0  0  0  0
  5  6  1  0  0  0  0
  6  7  1  0  0  0  0
  7  8  1  0  0  0  0
  8  9  2  0  0  0  0
  9 10  1  0  0  0  0
  9 11  1  0  0  0  0
M  CHG  2   1   1   8   1
M  END
>  <CHROM.1>
58.20554863,6.60731928,-176.66604919,95.64497763,-55.08644944,159.00162338
-10.93058269,6.52217205,-0.50124778,-2.16261916,-1.02610147,-2.54810621

>  <Name>


>  <RI>
0

>  <Rbt.Current_Directory>
/home/itssahil/PROJECTS/Mol_Feturizer/New_Systems/rnas/1aju

>  <Rbt.Executable>
rbdock ($Id: //depot/dev/client3/rdock/2013.1/src/exe/rbdock.cxx#4 $)

>  <Rbt.Library>
libRbt.so (2013.1, Build901 2013/11/27)

>  <Rbt.Parameter_File>
/export/apps/rDock/src/rDock_2013.1_src/data/scripts/dock_solv.prm

>  <Rbt.Receptor>
prm/blind_docking_60.prm

>  <SCORE>
-32.0482

>  <SCORE.INTER>
-32.7258

>  <SCORE.INTER.CONST>
1

>  <SCORE.INTER.POLAR>
-6.14815

>  <SCORE.INTER.ROT>
5

>  <SCORE.INTER.SOLV>
30.1125

>  <SCORE.INTER.VDW>
-18.2942

>  <SCORE.INTER.norm>
-2.97508

>  <SCORE.INTRA>
0.667568

>  <SCORE.INTRA.DIHEDRAL>
-2.73191

>  <SCORE.INTRA.DIHEDRAL.0>
9.90185

>  <SCORE.INTRA.POLAR>
0

>  <SCORE.INTRA.POLAR.0>
0

>  <SCORE.INTRA.REPUL>
0

>  <SCORE.INTRA.REPUL.0>
0

>  <SCORE.INTRA.SOLV>
2.36133

>  <SCORE.INTRA.SOLV.lig_0>
-53.6586

>  <SCORE.INTRA.VDW>
0.852858

>  <SCORE.INTRA.VDW.0>
-0.556525

>  <SCORE.INTRA.norm>
0.060688

>  <SCORE.RESTR>
0.0100653

>  <SCORE.RESTR.CAVITY>
0.0100653

>  <SCORE.RESTR.norm>
0.000915024

>  <SCORE.SYSTEM>
0

>  <SCORE.SYSTEM.CONST>
0

>  <SCORE.SYSTEM.DIHEDRAL>
0

>  <SCORE.SYSTEM.SOLV>
0

>  <SCORE.SYSTEM.norm>
0

>  <SCORE.heavy>
11

>  <SCORE.norm>
-2.91347

>  <RMSD>
13.635

$$$$

 OpenBabel11021811383D
libRbt.so/2013.1/901 2013/11/27
 11 10  0  0  0  0  0  0  0  0999 V2000
  -10.0714    8.4047    0.6437 N   0  3  0  0  0  0  0  0  0  0  0  0
  -11.0881    7.7435    1.5160 C   0  0  2  0  0  0  0  0  0  0  0  0
  -11.0453    8.3616    2.9238 C   0  0  0  0  0  0  0  0  0  0  0  0
  -10.2246    9.2156    3.2019 O   0  0  0  0  0  0  0  0  0  0  0  0
  -10.7874    6.2408    1.5958 C   0  0  0  0  0  0  0  0  0  0  0  0
  -10.2357    5.7553    0.2524 C   0  0  0  0  0  0  0  0  0  0  0  0
  -11.3493    5.7716   -0.7926 C   0  0  0  0  0  0  0  0  0  0  0  0
  -10.8615    5.1118   -2.0347 N   0  3  0  0  0  0  0  0  0  0  0  0
  -10.9340    5.7346   -3.1791 C   0  0  0  0  0  0  0  0  0  0  0  0
   -9.8377    6.0304   -3.8283 N   0  0  0  0  0  0  0  0  0  0  0  0
  -12.1007    6.0543   -3.6763 N   0  0  0  0  0  0  0  0  0  0  0  0
  2  1  1  6  0  0  0
  2  3  1  0  0  0  0
  2  5  1  0  0  0  0
  3  4  2  0  0  0  0
  5  6  1  0  0  0  0
  6  7  1  0  0  0  0
  7  8  1  0  0  0  0
  8  9  2  0  0  0  0
  9 10  1  0  0  0  0
  9 11  1  0  0  0  0
M  CHG  2   1   1   8   1
M  END
>  <CHROM.1>
68.15690053,-3.02069992,-35.04277687,-70.18569333,-171.67376396,-126.08606247
-10.74910613,6.79541818,-0.34723578,-1.32190228,-1.31044421,-1.75993154

>  <Name>


>  <RI>
0

>  <Rbt.Current_Directory>
/home/itssahil/PROJECTS/Mol_Feturizer/New_Systems/rnas/1aju

>  <Rbt.Executable>
rbdock ($Id: //depot/dev/client3/rdock/2013.1/src/exe/rbdock.cxx#4 $)

>  <Rbt.Library>
libRbt.so (2013.1, Build901 2013/11/27)

>  <Rbt.Parameter_File>
/export/apps/rDock/src/rDock_2013.1_src/data/scripts/dock_solv.prm

>  <Rbt.Receptor>
prm/blind_docking_80.prm

>  <SCORE>
-33.9466

>  <SCORE.INTER>
-36.1695

>  <SCORE.INTER.CONST>
1

>  <SCORE.INTER.POLAR>
-6.48602

>  <SCORE.INTER.ROT>
5

>  <SCORE.INTER.SOLV>
28.5653

>  <SCORE.INTER.VDW>
-18.9481

>  <SCORE.INTER.norm>
-3.28814

>  <SCORE.INTRA>
1.99696

>  <SCORE.INTRA.DIHEDRAL>
-4.20741

>  <SCORE.INTRA.DIHEDRAL.0>
9.90185

>  <SCORE.INTRA.POLAR>
0

>  <SCORE.INTRA.POLAR.0>
0

>  <SCORE.INTRA.REPUL>
0

>  <SCORE.INTRA.REPUL.0>
0

>  <SCORE.INTRA.SOLV>
3.85154

>  <SCORE.INTRA.SOLV.lig_0>
-53.6586

>  <SCORE.INTRA.VDW>
2.1749

>  <SCORE.INTRA.VDW.0>
-0.556525

>  <SCORE.INTRA.norm>
0.181542

>  <SCORE.RESTR>
0.225939

>  <SCORE.RESTR.CAVITY>
0.225939

>  <SCORE.RESTR.norm>
0.0205399

>  <SCORE.SYSTEM>
0

>  <SCORE.SYSTEM.CONST>
0

>  <SCORE.SYSTEM.DIHEDRAL>
0

>  <SCORE.SYSTEM.SOLV>
0

>  <SCORE.SYSTEM.norm>
0

>  <SCORE.heavy>
11

>  <SCORE.norm>
-3.08606

>  <RMSD>
13.645

$$$$

 OpenBabel11021811383D
libRbt.so/2013.1/901 2013/11/27
 11 10  0  0  0  0  0  0  0  0999 V2000
  -10.0411    8.2759    1.3962 N   0  3  0  0  0  0  0  0  0  0  0  0
  -11.2682    7.4539    1.1725 C   0  0  2  0  0  0  0  0  0  0  0  0
  -11.6331    6.7033    2.4645 C   0  0  0  0  0  0  0  0  0  0  0  0
  -12.7619    6.7564    2.9154 O   0  0  0  0  0  0  0  0  0  0  0  0
  -11.0071    6.4504    0.0413 C   0  0  0  0  0  0  0  0  0  0  0  0
  -12.3181    5.7605   -0.3461 C   0  0  0  0  0  0  0  0  0  0  0  0
  -12.4730    5.7749   -1.8654 C   0  0  0  0  0  0  0  0  0  0  0  0
  -11.3033    5.0902   -2.4808 N   0  3  0  0  0  0  0  0  0  0  0  0
  -10.5741    5.7093   -3.3683 C   0  0  0  0  0  0  0  0  0  0  0  0
   -9.3153    5.9587   -3.1153 N   0  0  0  0  0  0  0  0  0  0  0  0
  -11.1011    6.0717   -4.5092 N   0  0  0  0  0  0  0  0  0  0  0  0
  2  1  1  1  0  0  0
  2  3  1  0  0  0  0
  2  5  1  0  0  0  0
  3  4  2  0  0  0  0
  5  6  1  0  0  0  0
  6  7  1  0  0  0  0
  7  8  1  0  0  0  0
  8  9  2  0  0  0  0
  9 10  1  0  0  0  0
  9 11  1  0  0  0  0
M  CHG  2   1   1   8   1
M  END
>  <CHROM.1>
70.81261098,129.07818249,-171.02187601,132.32458946,58.12046896,-124.26409037
-11.21997067,6.38820638,-0.70399128,-1.74877158,-0.50689209,-1.89948382

>  <Name>


>  <RI>
0

>  <Rbt.Current_Directory>
/home/itssahil/PROJECTS/Mol_Feturizer/New_Systems/rnas/1aju

>  <Rbt.Executable>
rbdock ($Id: //depot/dev/client3/rdock/2013.1/src/exe/rbdock.cxx#4 $)

>  <Rbt.Library>
libRbt.so (2013.1, Build901 2013/11/27)

>  <Rbt.Parameter_File>
/export/apps/rDock/src/rDock_2013.1_src/data/scripts/dock_solv.prm

>  <Rbt.Receptor>
prm/blind_docking_40.prm

>  <SCORE>
-24.5113

>  <SCORE.INTER>
-24.8943

>  <SCORE.INTER.CONST>
1

>  <SCORE.INTER.POLAR>
-5.26942

>  <SCORE.INTER.ROT>
5

>  <SCORE.INTER.SOLV>
28.1478

>  <SCORE.INTER.VDW>
-15.3474

>  <SCORE.INTER.norm>
-2.26312

>  <SCORE.INTRA>
-0.0667843

>  <SCORE.INTRA.DIHEDRAL>
-0.726937

>  <SCORE.INTRA.DIHEDRAL.0>
9.90185

>  <SCORE.INTRA.POLAR>
0

>  <SCORE.INTRA.POLAR.0>
0

>  <SCORE.INTRA.REPUL>
0

>  <SCORE.INTRA.REPUL.0>
0

>  <SCORE.INTRA.SOLV>
0.609541

>  <SCORE.INTRA.SOLV.lig_0>
-53.6586

>  <SCORE.INTRA.VDW>
-0.008086

>  <SCORE.INTRA.VDW.0>
-0.556525

>  <SCORE.INTRA.norm>
-0.0060713

>  <SCORE.RESTR>
0.449798

>  <SCORE.RESTR.CAVITY>
0.449798

>  <SCORE.RESTR.norm>
0.0408908

>  <SCORE.SYSTEM>
0

>  <SCORE.SYSTEM.CONST>
0

>  <SCORE.SYSTEM.DIHEDRAL>
0

>  <SCORE.SYSTEM.SOLV>
0

>  <SCORE.SYSTEM.norm>
0

>  <SCORE.heavy>
11

>  <SCORE.norm>
-2.2283

>  <RMSD>
13.654

$$$$

 OpenBabel11021811383D
libRbt.so/2013.1/901 2013/11/27
 11 10  0  0  0  0  0  0  0  0999 V2000
  -10.0653    8.3864    0.9578 N   0  3  0  0  0  0  0  0  0  0  0  0
  -11.2193    7.4514    1.1179 C   0  0  2  0  0  0  0  0  0  0  0  0
  -11.9293    7.7268    2.4542 C   0  0  0  0  0  0  0  0  0  0  0  0
  -11.6902    8.7380    3.0871 O   0  0  0  0  0  0  0  0  0  0  0  0
  -10.7081    6.0049    1.0863 C   0  0  0  0  0  0  0  0  0  0  0  0
  -11.8216    5.0773    0.5918 C   0  0  0  0  0  0  0  0  0  0  0  0
  -12.1672    5.4211   -0.8556 C   0  0  0  0  0  0  0  0  0  0  0  0
  -11.1482    4.8164   -1.7566 N   0  3  0  0  0  0  0  0  0  0  0  0
  -10.4591    5.5722   -2.5669 C   0  0  0  0  0  0  0  0  0  0  0  0
   -9.1613    5.6586   -2.4290 N   0  0  0  0  0  0  0  0  0  0  0  0
  -11.0661    6.2345   -3.5175 N   0  0  0  0  0  0  0  0  0  0  0  0
  2  1  1  1  0  0  0
  2  3  1  0  0  0  0
  2  5  1  0  0  0  0
  3  4  2  0  0  0  0
  5  6  1  0  0  0  0
  6  7  1  0  0  0  0
  7  8  1  0  0  0  0
  8  9  2  0  0  0  0
  9 10  1  0  0  0  0
  9 11  1  0  0  0  0
M  CHG  2   1   1   8   1
M  END
>  <CHROM.1>
-162.87857470,13.11650460,-153.45811698,64.64875892,79.28133873,-122.16766726
-10.99812040,6.50216417,-0.18386585,-1.79098650,-0.85749001,-2.21461618

>  <Name>


>  <RI>
0

>  <Rbt.Current_Directory>
/home/itssahil/PROJECTS/Mol_Feturizer/New_Systems/rnas/1aju

>  <Rbt.Executable>
rbdock ($Id: //depot/dev/client3/rdock/2013.1/src/exe/rbdock.cxx#4 $)

>  <Rbt.Library>
libRbt.so (2013.1, Build901 2013/11/27)

>  <Rbt.Parameter_File>
/export/apps/rDock/src/rDock_2013.1_src/data/scripts/dock_solv.prm

>  <Rbt.Receptor>
prm/blind_docking_40.prm

>  <SCORE>
-28.1124

>  <SCORE.INTER>
-27.9637

>  <SCORE.INTER.CONST>
1

>  <SCORE.INTER.POLAR>
-5.11382

>  <SCORE.INTER.ROT>
5

>  <SCORE.INTER.SOLV>
29.4415

>  <SCORE.INTER.VDW>
-18.3436

>  <SCORE.INTER.norm>
-2.54216

>  <SCORE.INTRA>
-0.148687

>  <SCORE.INTRA.DIHEDRAL>
-2.47377

>  <SCORE.INTRA.DIHEDRAL.0>
9.90185

>  <SCORE.INTRA.POLAR>
0

>  <SCORE.INTRA.POLAR.0>
0

>  <SCORE.INTRA.REPUL>
0

>  <SCORE.INTRA.REPUL.0>
0

>  <SCORE.INTRA.SOLV>
2.04028

>  <SCORE.INTRA.SOLV.lig_0>
-53.6586

>  <SCORE.INTRA.VDW>
0.0680571

>  <SCORE.INTRA.VDW.0>
-0.556525

>  <SCORE.INTRA.norm>
-0.013517

>  <SCORE.RESTR>
0

>  <SCORE.RESTR.CAVITY>
0

>  <SCORE.RESTR.norm>
0

>  <SCORE.SYSTEM>
0

>  <SCORE.SYSTEM.CONST>
0

>  <SCORE.SYSTEM.DIHEDRAL>
0

>  <SCORE.SYSTEM.SOLV>
0

>  <SCORE.SYSTEM.norm>
0

>  <SCORE.heavy>
11

>  <SCORE.norm>
-2.55567

>  <RMSD>
13.659

$$$$

 OpenBabel11021811383D
libRbt.so/2013.1/901 2013/11/27
 11 10  0  0  0  0  0  0  0  0999 V2000
  -10.3966    8.3288    0.7556 N   0  3  0  0  0  0  0  0  0  0  0  0
  -11.2464    7.6691    1.7920 C   0  0  2  0  0  0  0  0  0  0  0  0
  -10.9338    8.2640    3.1755 C   0  0  0  0  0  0  0  0  0  0  0  0
  -10.1284    9.1681    3.2947 O   0  0  0  0  0  0  0  0  0  0  0  0
  -10.9629    6.1610    1.7955 C   0  0  0  0  0  0  0  0  0  0  0  0
  -12.1663    5.4108    1.2177 C   0  0  0  0  0  0  0  0  0  0  0  0
  -11.7783    4.7723   -0.1143 C   0  0  0  0  0  0  0  0  0  0  0  0
  -11.4507    5.8459   -1.0920 N   0  3  0  0  0  0  0  0  0  0  0  0
  -10.5920    5.6211   -2.0485 C   0  0  0  0  0  0  0  0  0  0  0  0
  -10.9813    5.6711   -3.2962 N   0  0  0  0  0  0  0  0  0  0  0  0
   -9.3451    5.3540   -1.7577 N   0  0  0  0  0  0  0  0  0  0  0  0
  2  1  1  6  0  0  0
  2  3  1  0  0  0  0
  2  5  1  0  0  0  0
  3  4  2  0  0  0  0
  5  6  1  0  0  0  0
  6  7  1  0  0  0  0
  7  8  1  0  0  0  0
  8  9  2  0  0  0  0
  9 10  1  0  0  0  0
  9 11  1  0  0  0  0
M  CHG  2   1   1   8   1
M  END
>  <CHROM.1>
-167.23144748,2.24268534,-109.09378951,112.77598325,-64.18180916,150.92000447
-10.86966083,6.60561118,0.29673093,-1.55267646,-0.91950110,-2.09544204

>  <Name>


>  <RI>
0

>  <Rbt.Current_Directory>
/home/itssahil/PROJECTS/Mol_Feturizer/New_Systems/rnas/1aju

>  <Rbt.Executable>
rbdock ($Id: //depot/dev/client3/rdock/2013.1/src/exe/rbdock.cxx#4 $)

>  <Rbt.Library>
libRbt.so (2013.1, Build901 2013/11/27)

>  <Rbt.Parameter_File>
/export/apps/rDock/src/rDock_2013.1_src/data/scripts/dock_solv.prm

>  <Rbt.Receptor>
prm/blind_docking_60.prm

>  <SCORE>
-30.2533

>  <SCORE.INTER>
-35.7872

>  <SCORE.INTER.CONST>
1

>  <SCORE.INTER.POLAR>
-6.40646

>  <SCORE.INTER.ROT>
5

>  <SCORE.INTER.SOLV>
25.9842

>  <SCORE.INTER.VDW>
-18.098

>  <SCORE.INTER.norm>
-3.25338

>  <SCORE.INTRA>
5.53388

>  <SCORE.INTRA.DIHEDRAL>
4.19037

>  <SCORE.INTRA.DIHEDRAL.0>
9.90185

>  <SCORE.INTRA.POLAR>
0

>  <SCORE.INTRA.POLAR.0>
0

>  <SCORE.INTRA.REPUL>
0.252415

>  <SCORE.INTRA.REPUL.0>
0

>  <SCORE.INTRA.SOLV>
5.92225

>  <SCORE.INTRA.SOLV.lig_0>
-53.6586

>  <SCORE.INTRA.VDW>
-0.784501

>  <SCORE.INTRA.VDW.0>
-0.556525

>  <SCORE.INTRA.norm>
0.50308

>  <SCORE.RESTR>
0

>  <SCORE.RESTR.CAVITY>
0

>  <SCORE.RESTR.norm>
0

>  <SCORE.SYSTEM>
0

>  <SCORE.SYSTEM.CONST>
0

>  <SCORE.SYSTEM.DIHEDRAL>
0

>  <SCORE.SYSTEM.SOLV>
0

>  <SCORE.SYSTEM.norm>
0

>  <SCORE.heavy>
11

>  <SCORE.norm>
-2.7503

>  <RMSD>
13.664

$$$$

 OpenBabel11021811383D
libRbt.so/2013.1/901 2013/11/27
 11 10  0  0  0  0  0  0  0  0999 V2000
  -11.7208    5.1905   -2.8781 N   0  3  0  0  0  0  0  0  0  0  0  0
  -10.9812    5.8767   -1.7764 C   0  0  2  0  0  0  0  0  0  0  0  0
   -9.4776    5.5748   -1.8938 C   0  0  0  0  0  0  0  0  0  0  0  0
   -9.0342    5.0016   -2.8710 O   0  0  0  0  0  0  0  0  0  0  0  0
  -11.5099    5.3796   -0.4243 C   0  0  0  0  0  0  0  0  0  0  0  0
  -12.6509    6.2862    0.0458 C   0  0  0  0  0  0  0  0  0  0  0  0
  -12.7800    6.1982    1.5650 C   0  0  0  0  0  0  0  0  0  0  0  0
  -11.7513    7.0721    2.1928 N   0  3  0  0  0  0  0  0  0  0  0  0
  -10.5571    7.1552    1.6736 C   0  0  0  0  0  0  0  0  0  0  0  0
  -10.1300    8.2997    1.2062 N   0  0  0  0  0  0  0  0  0  0  0  0
   -9.7891    6.0974    1.6288 N   0  0  0  0  0  0  0  0  0  0  0  0
  2  1  1  6  0  0  0
  2  3  1  0  0  0  0
  2  5  1  0  0  0  0
  3  4  2  0  0  0  0
  5  6  1  0  0  0  0
  6  7  1  0  0  0  0
  7  8  1  0  0  0  0
  8  9  2  0  0  0  0
  9 10  1  0  0  0  0
  9 11  1  0  0  0  0
M  CHG  2   1   1   8   1
M  END
>  <CHROM.1>
70.75695947,8.60498428,-91.19591970,-156.16607865,80.48256746,-38.32337292
-10.92809435,6.18530385,-0.17470276,1.36613408,-0.16369649,-2.00328035

>  <Name>


>  <RI>
224

>  <Rbt.Current_Directory>
/home/itssahil/PROJECTS/Mol_Feturizer/New_Systems/rnas/1aju

>  <Rbt.Executable>
rbdock ($Id: //depot/dev/client3/rdock/2013.1/src/exe/rbdock.cxx#4 $)

>  <Rbt.Library>
libRbt.so (2013.1, Build901 2013/11/27)

>  <Rbt.Parameter_File>
/export/apps/rDock/src/rDock_2013.1_src/data/scripts/dock_solv.prm

>  <Rbt.Receptor>
prm/blind_docking_20.prm

>  <SCORE>
-27.924

>  <SCORE.INTER>
-31.6489

>  <SCORE.INTER.CONST>
1

>  <SCORE.INTER.POLAR>
-5.90651

>  <SCORE.INTER.ROT>
5

>  <SCORE.INTER.SOLV>
22.0929

>  <SCORE.INTER.VDW>
-15.7085

>  <SCORE.INTER.norm>
-2.87717

>  <SCORE.INTRA>
3.17886

>  <SCORE.INTRA.DIHEDRAL>
-0.32631

>  <SCORE.INTRA.DIHEDRAL.0>
9.90185

>  <SCORE.INTRA.POLAR>
0

>  <SCORE.INTRA.POLAR.0>
0

>  <SCORE.INTRA.REPUL>
0

>  <SCORE.INTRA.REPUL.0>
0

>  <SCORE.INTRA.SOLV>
4.32956

>  <SCORE.INTRA.SOLV.lig_0>
-53.6586

>  <SCORE.INTRA.VDW>
1.17724

>  <SCORE.INTRA.VDW.0>
-0.556525

>  <SCORE.INTRA.norm>
0.288988

>  <SCORE.RESTR>
0.546082

>  <SCORE.RESTR.CAVITY>
0.546082

>  <SCORE.RESTR.norm>
0.0496438

>  <SCORE.SYSTEM>
0

>  <SCORE.SYSTEM.CONST>
0

>  <SCORE.SYSTEM.DIHEDRAL>
0

>  <SCORE.SYSTEM.SOLV>
0

>  <SCORE.SYSTEM.norm>
0

>  <SCORE.heavy>
11

>  <SCORE.norm>
-2.53854

>  <RMSD>
13.669

$$$$

 OpenBabel11021811383D
libRbt.so/2013.1/901 2013/11/27
 11 10  0  0  0  0  0  0  0  0999 V2000
  -10.0761    8.5158    1.3838 N   0  3  0  0  0  0  0  0  0  0  0  0
  -11.1422    7.5272    1.0404 C   0  0  2  0  0  0  0  0  0  0  0  0
  -12.2945    7.6330    2.0536 C   0  0  0  0  0  0  0  0  0  0  0  0
  -12.2127    8.3798    3.0106 O   0  0  0  0  0  0  0  0  0  0  0  0
  -10.5496    6.1120    1.0689 C   0  0  0  0  0  0  0  0  0  0  0  0
  -11.5606    5.1200    0.4871 C   0  0  0  0  0  0  0  0  0  0  0  0
  -11.9483    5.5552   -0.9246 C   0  0  0  0  0  0  0  0  0  0  0  0
  -11.0355    4.9034   -1.9033 N   0  3  0  0  0  0  0  0  0  0  0  0
  -10.4357    5.6176   -2.8159 C   0  0  0  0  0  0  0  0  0  0  0  0
   -9.1303    5.6987   -2.8233 N   0  0  0  0  0  0  0  0  0  0  0  0
  -11.1398    6.2433   -3.7233 N   0  0  0  0  0  0  0  0  0  0  0  0
  2  1  1  1  0  0  0
  2  3  1  0  0  0  0
  2  5  1  0  0  0  0
  3  4  2  0  0  0  0
  5  6  1  0  0  0  0
  6  7  1  0  0  0  0
  7  8  1  0  0  0  0
  8  9  2  0  0  0  0
  9 10  1  0  0  0  0
  9 11  1  0  0  0  0
M  CHG  2   1   1   8   1
M  END
>  <CHROM.1>
169.93671878,-4.42666291,-170.28147891,56.49536815,91.23499534,-129.64371462
-11.01175243,6.52002400,-0.29233341,-1.83661080,-0.77484392,-2.19100941

>  <Name>


>  <RI>
0

>  <Rbt.Current_Directory>
/home/itssahil/PROJECTS/Mol_Feturizer/New_Systems/rnas/1aju

>  <Rbt.Executable>
rbdock ($Id: //depot/dev/client3/rdock/2013.1/src/exe/rbdock.cxx#4 $)

>  <Rbt.Library>
libRbt.so (2013.1, Build901 2013/11/27)

>  <Rbt.Parameter_File>
/export/apps/rDock/src/rDock_2013.1_src/data/scripts/dock_solv.prm

>  <Rbt.Receptor>
prm/blind_docking_40.prm

>  <SCORE>
-31.9641

>  <SCORE.INTER>
-32.0741

>  <SCORE.INTER.CONST>
1

>  <SCORE.INTER.POLAR>
-6.46905

>  <SCORE.INTER.ROT>
5

>  <SCORE.INTER.SOLV>
29.7372

>  <SCORE.INTER.VDW>
-16.6649

>  <SCORE.INTER.norm>
-2.91583

>  <SCORE.INTRA>
-0.0107028

>  <SCORE.INTRA.DIHEDRAL>
-3.3854

>  <SCORE.INTRA.DIHEDRAL.0>
9.90185

>  <SCORE.INTRA.POLAR>
0

>  <SCORE.INTRA.POLAR.0>
0

>  <SCORE.INTRA.REPUL>
0

>  <SCORE.INTRA.REPUL.0>
0

>  <SCORE.INTRA.SOLV>
1.46483

>  <SCORE.INTRA.SOLV.lig_0>
-53.6586

>  <SCORE.INTRA.VDW>
0.949584

>  <SCORE.INTRA.VDW.0>
-0.556525

>  <SCORE.INTRA.norm>
-0.000972983

>  <SCORE.RESTR>
0.120662

>  <SCORE.RESTR.CAVITY>
0.120662

>  <SCORE.RESTR.norm>
0.0109693

>  <SCORE.SYSTEM>
0

>  <SCORE.SYSTEM.CONST>
0

>  <SCORE.SYSTEM.DIHEDRAL>
0

>  <SCORE.SYSTEM.SOLV>
0

>  <SCORE.SYSTEM.norm>
0

>  <SCORE.heavy>
11

>  <SCORE.norm>
-2.90583

>  <RMSD>
13.669

$$$$

 OpenBabel11021811383D
libRbt.so/2013.1/901 2013/11/27
 11 10  0  0  0  0  0  0  0  0999 V2000
  -10.1569    8.5806    1.2613 N   0  3  0  0  0  0  0  0  0  0  0  0
  -11.1078    7.5162    0.8202 C   0  0  2  0  0  0  0  0  0  0  0  0
  -12.4501    7.6830    1.5524 C   0  0  0  0  0  0  0  0  0  0  0  0
  -13.5002    7.4490    0.9842 O   0  0  0  0  0  0  0  0  0  0  0  0
  -10.5087    6.1389    1.1347 C   0  0  0  0  0  0  0  0  0  0  0  0
  -11.5033    5.0438    0.7394 C   0  0  0  0  0  0  0  0  0  0  0  0
  -12.0235    5.3118   -0.6713 C   0  0  0  0  0  0  0  0  0  0  0  0
  -11.0562    4.7616   -1.6600 N   0  3  0  0  0  0  0  0  0  0  0  0
  -10.4802    5.5529   -2.5231 C   0  0  0  0  0  0  0  0  0  0  0  0
   -9.1816    5.7070   -2.4974 N   0  0  0  0  0  0  0  0  0  0  0  0
  -11.2009    6.1829   -3.4143 N   0  0  0  0  0  0  0  0  0  0  0  0
  2  1  1  1  0  0  0
  2  3  1  0  0  0  0
  2  5  1  0  0  0  0
  3  4  2  0  0  0  0
  5  6  1  0  0  0  0
  6  7  1  0  0  0  0
  7  8  1  0  0  0  0
  8  9  2  0  0  0  0
  9 10  1  0  0  0  0
  9 11  1  0  0  0  0
M  CHG  2   1   1   8   1
M  END
>  <CHROM.1>
171.61860873,143.65082824,177.62399869,48.19343463,83.83225576,-119.51559683
-11.17352822,6.38892169,-0.40769012,-1.89507257,-0.43241114,-2.19342286

>  <Name>


>  <RI>
0

>  <Rbt.Current_Directory>
/home/itssahil/PROJECTS/Mol_Feturizer/New_Systems/rnas/1aju

>  <Rbt.Executable>
rbdock ($Id: //depot/dev/client3/rdock/2013.1/src/exe/rbdock.cxx#4 $)

>  <Rbt.Library>
libRbt.so (2013.1, Build901 2013/11/27)

>  <Rbt.Parameter_File>
/export/apps/rDock/src/rDock_2013.1_src/data/scripts/dock_solv.prm

>  <Rbt.Receptor>
prm/blind_docking_40.prm

>  <SCORE>
-30.7411

>  <SCORE.INTER>
-31.6639

>  <SCORE.INTER.CONST>
1

>  <SCORE.INTER.POLAR>
-6.02929

>  <SCORE.INTER.ROT>
5

>  <SCORE.INTER.SOLV>
29.1863

>  <SCORE.INTER.VDW>
-17.6737

>  <SCORE.INTER.norm>
-2.87854

>  <SCORE.INTRA>
0.573676

>  <SCORE.INTRA.DIHEDRAL>
-3.38215

>  <SCORE.INTRA.DIHEDRAL.0>
9.90185

>  <SCORE.INTRA.POLAR>
0

>  <SCORE.INTRA.POLAR.0>
0

>  <SCORE.INTRA.REPUL>
0

>  <SCORE.INTRA.REPUL.0>
0

>  <SCORE.INTRA.SOLV>
0.75124

>  <SCORE.INTRA.SOLV.lig_0>
-53.6586

>  <SCORE.INTRA.VDW>
1.88913

>  <SCORE.INTRA.VDW.0>
-0.556525

>  <SCORE.INTRA.norm>
0.0521524

>  <SCORE.RESTR>
0.349099

>  <SCORE.RESTR.CAVITY>
0.349099

>  <SCORE.RESTR.norm>
0.0317363

>  <SCORE.SYSTEM>
0

>  <SCORE.SYSTEM.CONST>
0

>  <SCORE.SYSTEM.DIHEDRAL>
0

>  <SCORE.SYSTEM.SOLV>
0

>  <SCORE.SYSTEM.norm>
0

>  <SCORE.heavy>
11

>  <SCORE.norm>
-2.79465

>  <RMSD>
13.673

$$$$

 OpenBabel11021811383D
libRbt.so/2013.1/901 2013/11/27
 11 10  0  0  0  0  0  0  0  0999 V2000
   -9.9222    8.1099    1.3875 N   0  3  0  0  0  0  0  0  0  0  0  0
  -11.1692    7.4392    0.9115 C   0  0  2  0  0  0  0  0  0  0  0  0
  -12.3078    7.6869    1.9156 C   0  0  0  0  0  0  0  0  0  0  0  0
  -12.1025    8.2958    2.9487 O   0  0  0  0  0  0  0  0  0  0  0  0
  -10.9134    5.9325    0.7729 C   0  0  0  0  0  0  0  0  0  0  0  0
  -12.0913    5.2762    0.0472 C   0  0  0  0  0  0  0  0  0  0  0  0
  -12.1268    5.7528   -1.4033 C   0  0  0  0  0  0  0  0  0  0  0  0
  -11.1051    5.0056   -2.1868 N   0  3  0  0  0  0  0  0  0  0  0  0
  -10.3742    5.6271   -3.0712 C   0  0  0  0  0  0  0  0  0  0  0  0
   -9.0781    5.6964   -2.9099 N   0  0  0  0  0  0  0  0  0  0  0  0
  -10.9379    6.1718   -4.1182 N   0  0  0  0  0  0  0  0  0  0  0  0
  2  1  1  1  0  0  0
  2  3  1  0  0  0  0
  2  5  1  0  0  0  0
  3  4  2  0  0  0  0
  5  6  1  0  0  0  0
  6  7  1  0  0  0  0
  7  8  1  0  0  0  0
  8  9  2  0  0  0  0
  9 10  1  0  0  0  0
  9 11  1  0  0  0  0
M  CHG  2   1   1   8   1
M  END
>  <CHROM.1>
10.59758007,-3.28500140,-169.67431968,67.72219833,78.81598176,-138.81786808
-11.05686230,6.48208198,-0.51859141,-1.78284757,-0.49493595,-2.06347833

>  <Name>


>  <RI>
224

>  <Rbt.Current_Directory>
/home/itssahil/PROJECTS/Mol_Feturizer/New_Systems/rnas/1aju

>  <Rbt.Executable>
rbdock ($Id: //depot/dev/client3/rdock/2013.1/src/exe/rbdock.cxx#4 $)

>  <Rbt.Library>
libRbt.so (2013.1, Build901 2013/11/27)

>  <Rbt.Parameter_File>
/export/apps/rDock/src/rDock_2013.1_src/data/scripts/dock_solv.prm

>  <Rbt.Receptor>
prm/blind_docking_20.prm

>  <SCORE>
-27.0806

>  <SCORE.INTER>
-28.2914

>  <SCORE.INTER.CONST>
1

>  <SCORE.INTER.POLAR>
-5.95907

>  <SCORE.INTER.ROT>
5

>  <SCORE.INTER.SOLV>
29.31

>  <SCORE.INTER.VDW>
-15.7007

>  <SCORE.INTER.norm>
-2.57194

>  <SCORE.INTRA>
1.21052

>  <SCORE.INTRA.DIHEDRAL>
-1.80154

>  <SCORE.INTRA.DIHEDRAL.0>
9.90185

>  <SCORE.INTRA.POLAR>
0

>  <SCORE.INTRA.POLAR.0>
0

>  <SCORE.INTRA.REPUL>
0

>  <SCORE.INTRA.REPUL.0>
0

>  <SCORE.INTRA.SOLV>
1.53129

>  <SCORE.INTRA.SOLV.lig_0>
-53.6586

>  <SCORE.INTRA.VDW>
1.34565

>  <SCORE.INTRA.VDW.0>
-0.556525

>  <SCORE.INTRA.norm>
0.110048

>  <SCORE.RESTR>
0.00028801

>  <SCORE.RESTR.CAVITY>
0.00028801

>  <SCORE.RESTR.norm>
2.61827e-05

>  <SCORE.SYSTEM>
0

>  <SCORE.SYSTEM.CONST>
0

>  <SCORE.SYSTEM.DIHEDRAL>
0

>  <SCORE.SYSTEM.SOLV>
0

>  <SCORE.SYSTEM.norm>
0

>  <SCORE.heavy>
11

>  <SCORE.norm>
-2.46187

>  <RMSD>
13.680

$$$$

 OpenBabel11021811383D
libRbt.so/2013.1/901 2013/11/27
 11 10  0  0  0  0  0  0  0  0999 V2000
  -12.1228    6.8527    3.8822 N   0  3  0  0  0  0  0  0  0  0  0  0
  -11.3219    7.0128    2.6314 C   0  0  2  0  0  0  0  0  0  0  0  0
  -11.0152    8.5018    2.3981 C   0  0  0  0  0  0  0  0  0  0  0  0
   -9.9011    8.8615    2.0672 O   0  0  0  0  0  0  0  0  0  0  0  0
  -12.1167    6.4509    1.4450 C   0  0  0  0  0  0  0  0  0  0  0  0
  -11.1511    6.0266    0.3348 C   0  0  0  0  0  0  0  0  0  0  0  0
  -11.9424    5.6763   -0.9236 C   0  0  0  0  0  0  0  0  0  0  0  0
  -11.0474    4.9709   -1.8813 N   0  3  0  0  0  0  0  0  0  0  0  0
  -10.4292    5.6406   -2.8151 C   0  0  0  0  0  0  0  0  0  0  0  0
   -9.1221    5.6870   -2.8243 N   0  0  0  0  0  0  0  0  0  0  0  0
  -11.1168    6.2565   -3.7417 N   0  0  0  0  0  0  0  0  0  0  0  0
  2  1  1  1  0  0  0
  2  3  1  0  0  0  0
  2  5  1  0  0  0  0
  3  4  2  0  0  0  0
  5  6  1  0  0  0  0
  6  7  1  0  0  0  0
  7  8  1  0  0  0  0
  8  9  2  0  0  0  0
  9 10  1  0  0  0  0
  9 11  1  0  0  0  0
M  CHG  2   1   1   8   1
M  END
>  <CHROM.1>
60.60563926,135.57227646,-154.80657961,-171.11941624,-166.92272148,-94.36075428
-11.01572672,6.54272416,0.06023837,1.76845531,0.76315027,1.11946298

>  <Name>


>  <RI>
224

>  <Rbt.Current_Directory>
/home/itssahil/PROJECTS/Mol_Feturizer/New_Systems/rnas/1aju

>  <Rbt.Executable>
rbdock ($Id: //depot/dev/client3/rdock/2013.1/src/exe/rbdock.cxx#4 $)

>  <Rbt.Library>
libRbt.so (2013.1, Build901 2013/11/27)

>  <Rbt.Parameter_File>
/export/apps/rDock/src/rDock_2013.1_src/data/scripts/dock_solv.prm

>  <Rbt.Receptor>
prm/blind_docking_20.prm

>  <SCORE>
-27.3135

>  <SCORE.INTER>
-25.0451

>  <SCORE.INTER.CONST>
1

>  <SCORE.INTER.POLAR>
-4.81455

>  <SCORE.INTER.ROT>
5

>  <SCORE.INTER.SOLV>
20.7437

>  <SCORE.INTER.VDW>
-14.4961

>  <SCORE.INTER.norm>
-2.27682

>  <SCORE.INTRA>
-2.26845

>  <SCORE.INTRA.DIHEDRAL>
-3.58525

>  <SCORE.INTRA.DIHEDRAL.0>
9.90185

>  <SCORE.INTRA.POLAR>
0

>  <SCORE.INTRA.POLAR.0>
0

>  <SCORE.INTRA.REPUL>
0

>  <SCORE.INTRA.REPUL.0>
0

>  <SCORE.INTRA.SOLV>
-0.0040588

>  <SCORE.INTRA.SOLV.lig_0>
-53.6586

>  <SCORE.INTRA.VDW>
-0.473795

>  <SCORE.INTRA.VDW.0>
-0.556525

>  <SCORE.INTRA.norm>
-0.206223

>  <SCORE.RESTR>
0

>  <SCORE.RESTR.CAVITY>
0

>  <SCORE.RESTR.norm>
0

>  <SCORE.SYSTEM>
0

>  <SCORE.SYSTEM.CONST>
0

>  <SCORE.SYSTEM.DIHEDRAL>
0

>  <SCORE.SYSTEM.SOLV>
0

>  <SCORE.SYSTEM.norm>
0

>  <SCORE.heavy>
11

>  <SCORE.norm>
-2.48305

>  <RMSD>
13.684

$$$$

 OpenBabel11021811383D
libRbt.so/2013.1/901 2013/11/27
 11 10  0  0  0  0  0  0  0  0999 V2000
  -11.8433    7.0336    3.9051 N   0  3  0  0  0  0  0  0  0  0  0  0
  -11.1523    7.1551    2.5862 C   0  0  2  0  0  0  0  0  0  0  0  0
  -11.0293    8.6386    2.1992 C   0  0  0  0  0  0  0  0  0  0  0  0
   -9.9412    9.1316    1.9684 O   0  0  0  0  0  0  0  0  0  0  0  0
  -11.9589    6.4020    1.5199 C   0  0  0  0  0  0  0  0  0  0  0  0
  -11.0356    5.9997    0.3665 C   0  0  0  0  0  0  0  0  0  0  0  0
  -11.8735    5.6715   -0.8675 C   0  0  0  0  0  0  0  0  0  0  0  0
  -11.0195    4.9676   -1.8631 N   0  3  0  0  0  0  0  0  0  0  0  0
  -10.4291    5.6410   -2.8122 C   0  0  0  0  0  0  0  0  0  0  0  0
   -9.1228    5.6763   -2.8678 N   0  0  0  0  0  0  0  0  0  0  0  0
  -11.1440    6.2715   -3.7078 N   0  0  0  0  0  0  0  0  0  0  0  0
  2  1  1  1  0  0  0
  2  3  1  0  0  0  0
  2  5  1  0  0  0  0
  3  4  2  0  0  0  0
  5  6  1  0  0  0  0
  6  7  1  0  0  0  0
  7  8  1  0  0  0  0
  8  9  2  0  0  0  0
  9 10  1  0  0  0  0
  9 11  1  0  0  0  0
M  CHG  2   1   1   8   1
M  END
>  <CHROM.1>
94.73161682,123.07548673,-155.90732859,-161.74028239,-166.11466272,-94.51059218
-10.94728127,6.60487564,0.04831842,1.76081116,0.88343945,1.07900681

>  <Name>


>  <RI>
0

>  <Rbt.Current_Directory>
/home/itssahil/PROJECTS/Mol_Feturizer/New_Systems/rnas/1aju

>  <Rbt.Executable>
rbdock ($Id: //depot/dev/client3/rdock/2013.1/src/exe/rbdock.cxx#4 $)

>  <Rbt.Library>
libRbt.so (2013.1, Build901 2013/11/27)

>  <Rbt.Parameter_File>
/export/apps/rDock/src/rDock_2013.1_src/data/scripts/dock_solv.prm

>  <Rbt.Receptor>
prm/blind_docking_60.prm

>  <SCORE>
-27.7084

>  <SCORE.INTER>
-27.4407

>  <SCORE.INTER.CONST>
1

>  <SCORE.INTER.POLAR>
-5.44711

>  <SCORE.INTER.ROT>
5

>  <SCORE.INTER.SOLV>
21.7499

>  <SCORE.INTER.VDW>
-14.3201

>  <SCORE.INTER.norm>
-2.49461

>  <SCORE.INTRA>
-0.267702

>  <SCORE.INTRA.DIHEDRAL>
-0.856377

>  <SCORE.INTRA.DIHEDRAL.0>
9.90185

>  <SCORE.INTRA.POLAR>
0

>  <SCORE.INTRA.POLAR.0>
0

>  <SCORE.INTRA.REPUL>
0

>  <SCORE.INTRA.REPUL.0>
0

>  <SCORE.INTRA.SOLV>
0.088281

>  <SCORE.INTRA.SOLV.lig_0>
-53.6586

>  <SCORE.INTRA.VDW>
0.116346

>  <SCORE.INTRA.VDW.0>
-0.556525

>  <SCORE.INTRA.norm>
-0.0243366

>  <SCORE.RESTR>
0

>  <SCORE.RESTR.CAVITY>
0

>  <SCORE.RESTR.norm>
0

>  <SCORE.SYSTEM>
0

>  <SCORE.SYSTEM.CONST>
0

>  <SCORE.SYSTEM.DIHEDRAL>
0

>  <SCORE.SYSTEM.SOLV>
0

>  <SCORE.SYSTEM.norm>
0

>  <SCORE.heavy>
11

>  <SCORE.norm>
-2.51895

>  <RMSD>
13.684

$$$$

 OpenBabel11021811383D
libRbt.so/2013.1/901 2013/11/27
 11 10  0  0  0  0  0  0  0  0999 V2000
  -12.3561    6.3711    3.0229 N   0  3  0  0  0  0  0  0  0  0  0  0
  -11.4255    6.9114    1.9866 C   0  0  2  0  0  0  0  0  0  0  0  0
  -11.4127    8.4481    2.0507 C   0  0  0  0  0  0  0  0  0  0  0  0
  -10.3906    9.0493    2.3229 O   0  0  0  0  0  0  0  0  0  0  0  0
  -11.8895    6.4502    0.5985 C   0  0  0  0  0  0  0  0  0  0  0  0
  -11.0563    5.2452    0.1527 C   0  0  0  0  0  0  0  0  0  0  0  0
  -11.5468    4.7617   -1.2105 C   0  0  0  0  0  0  0  0  0  0  0  0
  -11.4988    5.8944   -2.1753 N   0  3  0  0  0  0  0  0  0  0  0  0
  -10.6580    5.8700   -3.1728 C   0  0  0  0  0  0  0  0  0  0  0  0
  -11.1073    5.8546   -4.4011 N   0  0  0  0  0  0  0  0  0  0  0  0
   -9.3705    5.8684   -2.9422 N   0  0  0  0  0  0  0  0  0  0  0  0
  2  1  1  1  0  0  0
  2  3  1  0  0  0  0
  2  5  1  0  0  0  0
  3  4  2  0  0  0  0
  5  6  1  0  0  0  0
  6  7  1  0  0  0  0
  7  8  1  0  0  0  0
  8  9  2  0  0  0  0
  9 10  1  0  0  0  0
  9 11  1  0  0  0  0
M  CHG  2   1   1   8   1
M  END
>  <CHROM.1>
-59.21647621,117.56021967,-99.41725751,178.33070726,55.70088305,112.82137939
-11.15487018,6.43693078,-0.33448069,1.80741190,0.98479510,1.05618793

>  <Name>


>  <RI>
0

>  <Rbt.Current_Directory>
/home/itssahil/PROJECTS/Mol_Feturizer/New_Systems/rnas/1aju

>  <Rbt.Executable>
rbdock ($Id: //depot/dev/client3/rdock/2013.1/src/exe/rbdock.cxx#4 $)

>  <Rbt.Library>
libRbt.so (2013.1, Build901 2013/11/27)

>  <Rbt.Parameter_File>
/export/apps/rDock/src/rDock_2013.1_src/data/scripts/dock_solv.prm

>  <Rbt.Receptor>
prm/blind_docking_100.prm

>  <SCORE>
-24.2818

>  <SCORE.INTER>
-23.0483

>  <SCORE.INTER.CONST>
1

>  <SCORE.INTER.POLAR>
-4.1491

>  <SCORE.INTER.ROT>
5

>  <SCORE.INTER.SOLV>
18.5727

>  <SCORE.INTER.VDW>
-14.6594

>  <SCORE.INTER.norm>
-2.0953

>  <SCORE.INTRA>
-1.29727

>  <SCORE.INTRA.DIHEDRAL>
-3.10436

>  <SCORE.INTRA.DIHEDRAL.0>
9.90185

>  <SCORE.INTRA.POLAR>
0

>  <SCORE.INTRA.POLAR.0>
0

>  <SCORE.INTRA.REPUL>
0

>  <SCORE.INTRA.REPUL.0>
0

>  <SCORE.INTRA.SOLV>
1.20139

>  <SCORE.INTRA.SOLV.lig_0>
-53.6586

>  <SCORE.INTRA.VDW>
-0.345782

>  <SCORE.INTRA.VDW.0>
-0.556525

>  <SCORE.INTRA.norm>
-0.117933

>  <SCORE.RESTR>
0.063792

>  <SCORE.RESTR.CAVITY>
0.063792

>  <SCORE.RESTR.norm>
0.00579928

>  <SCORE.SYSTEM>
0

>  <SCORE.SYSTEM.CONST>
0

>  <SCORE.SYSTEM.DIHEDRAL>
0

>  <SCORE.SYSTEM.SOLV>
0

>  <SCORE.SYSTEM.norm>
0

>  <SCORE.heavy>
11

>  <SCORE.norm>
-2.20743

>  <RMSD>
13.688

$$$$

 OpenBabel11021811383D
libRbt.so/2013.1/901 2013/11/27
 11 10  0  0  0  0  0  0  0  0999 V2000
  -10.3759    8.1890    0.9438 N   0  3  0  0  0  0  0  0  0  0  0  0
  -11.2878    7.1728    1.5499 C   0  0  2  0  0  0  0  0  0  0  0  0
  -11.3498    7.3739    3.0736 C   0  0  0  0  0  0  0  0  0  0  0  0
  -12.3806    7.7336    3.6106 O   0  0  0  0  0  0  0  0  0  0  0  0
  -10.7643    5.7664    1.2294 C   0  0  0  0  0  0  0  0  0  0  0  0
  -11.9352    4.8581    0.8437 C   0  0  0  0  0  0  0  0  0  0  0  0
  -12.4979    5.2965   -0.5068 C   0  0  0  0  0  0  0  0  0  0  0  0
  -11.6185    4.7809   -1.5915 N   0  3  0  0  0  0  0  0  0  0  0  0
  -11.3443    5.5299   -2.6242 C   0  0  0  0  0  0  0  0  0  0  0  0
  -10.1092    5.8946   -2.8527 N   0  0  0  0  0  0  0  0  0  0  0  0
  -12.3025    5.9072   -3.4306 N   0  0  0  0  0  0  0  0  0  0  0  0
  2  1  1  6  0  0  0
  2  3  1  0  0  0  0
  2  5  1  0  0  0  0
  3  4  2  0  0  0  0
  5  6  1  0  0  0  0
  6  7  1  0  0  0  0
  7  8  1  0  0  0  0
  8  9  2  0  0  0  0
  9 10  1  0  0  0  0
  9 11  1  0  0  0  0
M  CHG  2   1   1   8   1
M  END
>  <CHROM.1>
68.28558271,113.50967215,-137.65933050,69.13980531,78.85754074,-139.65422732
-11.43290146,6.26372513,-0.00777198,-1.60177416,-0.91600894,-1.93010420

>  <Name>


>  <RI>
0

>  <Rbt.Current_Directory>
/home/itssahil/PROJECTS/Mol_Feturizer/New_Systems/rnas/1aju

>  <Rbt.Executable>
rbdock ($Id: //depot/dev/client3/rdock/2013.1/src/exe/rbdock.cxx#4 $)

>  <Rbt.Library>
libRbt.so (2013.1, Build901 2013/11/27)

>  <Rbt.Parameter_File>
/export/apps/rDock/src/rDock_2013.1_src/data/scripts/dock_solv.prm

>  <Rbt.Receptor>
prm/blind_docking_100.prm

>  <SCORE>
-28.4347

>  <SCORE.INTER>
-28.2158

>  <SCORE.INTER.CONST>
1

>  <SCORE.INTER.POLAR>
-5.53961

>  <SCORE.INTER.ROT>
5

>  <SCORE.INTER.SOLV>
23.1816

>  <SCORE.INTER.VDW>
-15.0057

>  <SCORE.INTER.norm>
-2.56507

>  <SCORE.INTRA>
-0.218935

>  <SCORE.INTRA.DIHEDRAL>
-1.05698

>  <SCORE.INTRA.DIHEDRAL.0>
9.90185

>  <SCORE.INTRA.POLAR>
0

>  <SCORE.INTRA.POLAR.0>
0

>  <SCORE.INTRA.REPUL>
0.00133092

>  <SCORE.INTRA.REPUL.0>
0

>  <SCORE.INTRA.SOLV>
1.34397

>  <SCORE.INTRA.SOLV.lig_0>
-53.6586

>  <SCORE.INTRA.VDW>
-0.369085

>  <SCORE.INTRA.VDW.0>
-0.556525

>  <SCORE.INTRA.norm>
-0.0199032

>  <SCORE.RESTR>
0

>  <SCORE.RESTR.CAVITY>
0

>  <SCORE.RESTR.norm>
0

>  <SCORE.SYSTEM>
0

>  <SCORE.SYSTEM.CONST>
0

>  <SCORE.SYSTEM.DIHEDRAL>
0

>  <SCORE.SYSTEM.SOLV>
0

>  <SCORE.SYSTEM.norm>
0

>  <SCORE.heavy>
11

>  <SCORE.norm>
-2.58497

>  <RMSD>
13.689

$$$$

 OpenBabel11021811383D
libRbt.so/2013.1/901 2013/11/27
 11 10  0  0  0  0  0  0  0  0999 V2000
  -10.1977    8.2568    1.0998 N   0  3  0  0  0  0  0  0  0  0  0  0
  -11.0445    7.1721    0.5183 C   0  0  2  0  0  0  0  0  0  0  0  0
  -12.2144    6.8615    1.4673 C   0  0  0  0  0  0  0  0  0  0  0  0
  -12.2357    7.3161    2.5957 O   0  0  0  0  0  0  0  0  0  0  0  0
  -10.1887    5.9147    0.3149 C   0  0  0  0  0  0  0  0  0  0  0  0
  -10.7032    5.1340   -0.8978 C   0  0  0  0  0  0  0  0  0  0  0  0
  -10.3633    5.8959   -2.1771 C   0  0  0  0  0  0  0  0  0  0  0  0
  -11.1940    5.3680   -3.2938 N   0  3  0  0  0  0  0  0  0  0  0  0
  -11.8353    6.1900   -4.0785 C   0  0  0  0  0  0  0  0  0  0  0  0
  -11.5362    6.2400   -5.3509 N   0  0  0  0  0  0  0  0  0  0  0  0
  -12.7785    6.9550   -3.5929 N   0  0  0  0  0  0  0  0  0  0  0  0
  2  1  1  1  0  0  0
  2  3  1  0  0  0  0
  2  5  1  0  0  0  0
  3  4  2  0  0  0  0
  5  6  1  0  0  0  0
  6  7  1  0  0  0  0
  7  8  1  0  0  0  0
  8  9  2  0  0  0  0
  9 10  1  0  0  0  0
  9 11  1  0  0  0  0
M  CHG  2   1   1   8   1
M  END
>  <CHROM.1>
-77.11399483,-11.07302208,-148.49084222,71.23053921,-163.29965017,131.76272275
-11.29970964,6.52121496,-1.21520869,1.49479552,-0.64011116,1.33299371

>  <Name>


>  <RI>
0

>  <Rbt.Current_Directory>
/home/itssahil/PROJECTS/Mol_Feturizer/New_Systems/rnas/1aju

>  <Rbt.Executable>
rbdock ($Id: //depot/dev/client3/rdock/2013.1/src/exe/rbdock.cxx#4 $)

>  <Rbt.Library>
libRbt.so (2013.1, Build901 2013/11/27)

>  <Rbt.Parameter_File>
/export/apps/rDock/src/rDock_2013.1_src/data/scripts/dock_solv.prm

>  <Rbt.Receptor>
prm/blind_docking_40.prm

>  <SCORE>
-19.385

>  <SCORE.INTER>
-20.2013

>  <SCORE.INTER.CONST>
1

>  <SCORE.INTER.POLAR>
-3.9814

>  <SCORE.INTER.ROT>
5

>  <SCORE.INTER.SOLV>
25.5251

>  <SCORE.INTER.VDW>
-15.6379

>  <SCORE.INTER.norm>
-1.83648

>  <SCORE.INTRA>
-0.00516653

>  <SCORE.INTRA.DIHEDRAL>
-1.75775

>  <SCORE.INTRA.DIHEDRAL.0>
9.90185

>  <SCORE.INTRA.POLAR>
0

>  <SCORE.INTRA.POLAR.0>
0

>  <SCORE.INTRA.REPUL>
0

>  <SCORE.INTRA.REPUL.0>
0

>  <SCORE.INTRA.SOLV>
1.55274

>  <SCORE.INTRA.SOLV.lig_0>
-53.6586

>  <SCORE.INTRA.VDW>
0.0973419

>  <SCORE.INTRA.VDW.0>
-0.556525

>  <SCORE.INTRA.norm>
-0.000469685

>  <SCORE.RESTR>
0.821468

>  <SCORE.RESTR.CAVITY>
0.821468

>  <SCORE.RESTR.norm>
0.0746789

>  <SCORE.SYSTEM>
0

>  <SCORE.SYSTEM.CONST>
0

>  <SCORE.SYSTEM.DIHEDRAL>
0

>  <SCORE.SYSTEM.SOLV>
0

>  <SCORE.SYSTEM.norm>
0

>  <SCORE.heavy>
11

>  <SCORE.norm>
-1.76227

>  <RMSD>
13.690

$$$$

 OpenBabel11021811383D
libRbt.so/2013.1/901 2013/11/27
 11 10  0  0  0  0  0  0  0  0999 V2000
  -10.1068    8.5113    1.4379 N   0  3  0  0  0  0  0  0  0  0  0  0
  -11.1668    7.5409    1.0298 C   0  0  2  0  0  0  0  0  0  0  0  0
  -12.3585    7.6363    1.9975 C   0  0  0  0  0  0  0  0  0  0  0  0
  -12.3287    8.3985    2.9454 O   0  0  0  0  0  0  0  0  0  0  0  0
  -10.5887    6.1196    1.0513 C   0  0  0  0  0  0  0  0  0  0  0  0
  -11.6116    5.1402    0.4689 C   0  0  0  0  0  0  0  0  0  0  0  0
  -11.9796    5.5701   -0.9496 C   0  0  0  0  0  0  0  0  0  0  0  0
  -11.0622    4.9037   -1.9141 N   0  3  0  0  0  0  0  0  0  0  0  0
  -10.4437    5.6069   -2.8228 C   0  0  0  0  0  0  0  0  0  0  0  0
   -9.1375    5.6740   -2.8148 N   0  0  0  0  0  0  0  0  0  0  0  0
  -11.1301    6.2357   -3.7416 N   0  0  0  0  0  0  0  0  0  0  0  0
  2  1  1  1  0  0  0
  2  3  1  0  0  0  0
  2  5  1  0  0  0  0
  3  4  2  0  0  0  0
  5  6  1  0  0  0  0
  6  7  1  0  0  0  0
  7  8  1  0  0  0  0
  8  9  2  0  0  0  0
  9 10  1  0  0  0  0
  9 11  1  0  0  0  0
M  CHG  2   1   1   8   1
M  END
>  <CHROM.1>
-69.34062094,-1.68013212,-172.99343100,57.53484474,90.74861027,-129.51590470
-11.04729606,6.52239814,-0.30601807,-1.83926174,-0.73035610,-2.18990558

>  <Name>


>  <RI>
0

>  <Rbt.Current_Directory>
/home/itssahil/PROJECTS/Mol_Feturizer/New_Systems/rnas/1aju

>  <Rbt.Executable>
rbdock ($Id: //depot/dev/client3/rdock/2013.1/src/exe/rbdock.cxx#4 $)

>  <Rbt.Library>
libRbt.so (2013.1, Build901 2013/11/27)

>  <Rbt.Parameter_File>
/export/apps/rDock/src/rDock_2013.1_src/data/scripts/dock_solv.prm

>  <Rbt.Receptor>
prm/blind_docking_60.prm

>  <SCORE>
-32.3186

>  <SCORE.INTER>
-32.1695

>  <SCORE.INTER.CONST>
1

>  <SCORE.INTER.POLAR>
-6.47113

>  <SCORE.INTER.ROT>
5

>  <SCORE.INTER.SOLV>
29.4341

>  <SCORE.INTER.VDW>
-16.6206

>  <SCORE.INTER.norm>
-2.9245

>  <SCORE.INTRA>
-0.149129

>  <SCORE.INTRA.DIHEDRAL>
-3.69888

>  <SCORE.INTRA.DIHEDRAL.0>
9.90185

>  <SCORE.INTRA.POLAR>
0

>  <SCORE.INTRA.POLAR.0>
0

>  <SCORE.INTRA.REPUL>
0

>  <SCORE.INTRA.REPUL.0>
0

>  <SCORE.INTRA.SOLV>
1.45007

>  <SCORE.INTRA.SOLV.lig_0>
-53.6586

>  <SCORE.INTRA.VDW>
0.975277

>  <SCORE.INTRA.VDW.0>
-0.556525

>  <SCORE.INTRA.norm>
-0.0135571

>  <SCORE.RESTR>
0

>  <SCORE.RESTR.CAVITY>
0

>  <SCORE.RESTR.norm>
0

>  <SCORE.SYSTEM>
0

>  <SCORE.SYSTEM.CONST>
0

>  <SCORE.SYSTEM.DIHEDRAL>
0

>  <SCORE.SYSTEM.SOLV>
0

>  <SCORE.SYSTEM.norm>
0

>  <SCORE.heavy>
11

>  <SCORE.norm>
-2.93806

>  <RMSD>
13.697

$$$$

 OpenBabel11021811383D
libRbt.so/2013.1/901 2013/11/27
 11 10  0  0  0  0  0  0  0  0999 V2000
  -12.2694    7.8686    3.3551 N   0  3  0  0  0  0  0  0  0  0  0  0
  -11.3831    7.0815    2.4460 C   0  0  2  0  0  0  0  0  0  0  0  0
  -10.2654    7.9857    1.8994 C   0  0  0  0  0  0  0  0  0  0  0  0
  -10.0524    9.0768    2.3938 O   0  0  0  0  0  0  0  0  0  0  0  0
  -12.2163    6.5210    1.2856 C   0  0  0  0  0  0  0  0  0  0  0  0
  -11.3095    5.7330    0.3360 C   0  0  0  0  0  0  0  0  0  0  0  0
  -11.9658    5.6446   -1.0403 C   0  0  0  0  0  0  0  0  0  0  0  0
  -11.0400    4.9518   -1.9778 N   0  3  0  0  0  0  0  0  0  0  0  0
  -10.4007    5.6321   -2.8895 C   0  0  0  0  0  0  0  0  0  0  0  0
   -9.0942    5.6869   -2.8622 N   0  0  0  0  0  0  0  0  0  0  0  0
  -11.0666    6.2501   -3.8303 N   0  0  0  0  0  0  0  0  0  0  0  0
  2  1  1  1  0  0  0
  2  3  1  0  0  0  0
  2  5  1  0  0  0  0
  3  4  2  0  0  0  0
  5  6  1  0  0  0  0
  6  7  1  0  0  0  0
  7  8  1  0  0  0  0
  8  9  2  0  0  0  0
  9 10  1  0  0  0  0
  9 11  1  0  0  0  0
M  CHG  2   1   1   8   1
M  END
>  <CHROM.1>
-58.10250714,13.23796288,179.01508594,-158.08928240,176.49156012,-105.94993140
-11.00471026,6.61465303,-0.07152382,1.73263542,0.60369872,1.08911607

>  <Name>


>  <RI>
224

>  <Rbt.Current_Directory>
/home/itssahil/PROJECTS/Mol_Feturizer/New_Systems/rnas/1aju

>  <Rbt.Executable>
rbdock ($Id: //depot/dev/client3/rdock/2013.1/src/exe/rbdock.cxx#4 $)

>  <Rbt.Library>
libRbt.so (2013.1, Build901 2013/11/27)

>  <Rbt.Parameter_File>
/export/apps/rDock/src/rDock_2013.1_src/data/scripts/dock_solv.prm

>  <Rbt.Receptor>
prm/blind_docking_20.prm

>  <SCORE>
-26.5063

>  <SCORE.INTER>
-25.1275

>  <SCORE.INTER.CONST>
1

>  <SCORE.INTER.POLAR>
-4.86373

>  <SCORE.INTER.ROT>
5

>  <SCORE.INTER.SOLV>
20.2771

>  <SCORE.INTER.VDW>
-14.2316

>  <SCORE.INTER.norm>
-2.28432

>  <SCORE.INTRA>
-1.37875

>  <SCORE.INTRA.DIHEDRAL>
-4.73498

>  <SCORE.INTRA.DIHEDRAL.0>
9.90185

>  <SCORE.INTRA.POLAR>
0

>  <SCORE.INTRA.POLAR.0>
0

>  <SCORE.INTRA.REPUL>
0

>  <SCORE.INTRA.REPUL.0>
0

>  <SCORE.INTRA.SOLV>
1.00522

>  <SCORE.INTRA.SOLV.lig_0>
-53.6586

>  <SCORE.INTRA.VDW>
0.486128

>  <SCORE.INTRA.VDW.0>
-0.556525

>  <SCORE.INTRA.norm>
-0.125341

>  <SCORE.RESTR>
0

>  <SCORE.RESTR.CAVITY>
0

>  <SCORE.RESTR.norm>
0

>  <SCORE.SYSTEM>
0

>  <SCORE.SYSTEM.CONST>
0

>  <SCORE.SYSTEM.DIHEDRAL>
0

>  <SCORE.SYSTEM.SOLV>
0

>  <SCORE.SYSTEM.norm>
0

>  <SCORE.heavy>
11

>  <SCORE.norm>
-2.40966

>  <RMSD>
13.700

$$$$

 OpenBabel11021811383D
libRbt.so/2013.1/901 2013/11/27
 11 10  0  0  0  0  0  0  0  0999 V2000
  -10.1579    8.5496    1.2589 N   0  3  0  0  0  0  0  0  0  0  0  0
  -11.1120    7.4510    0.9204 C   0  0  2  0  0  0  0  0  0  0  0  0
  -12.1916    7.3465    2.0110 C   0  0  0  0  0  0  0  0  0  0  0  0
  -12.3955    8.2727    2.7732 O   0  0  0  0  0  0  0  0  0  0  0  0
  -10.3442    6.1265    0.8167 C   0  0  0  0  0  0  0  0  0  0  0  0
  -11.2423    5.0605    0.1826 C   0  0  0  0  0  0  0  0  0  0  0  0
  -10.8436    4.8601   -1.2780 C   0  0  0  0  0  0  0  0  0  0  0  0
  -11.5271    5.8843   -2.1145 N   0  3  0  0  0  0  0  0  0  0  0  0
  -11.4619    5.8170   -3.4160 C   0  0  0  0  0  0  0  0  0  0  0  0
  -12.5542    5.6378   -4.1128 N   0  0  0  0  0  0  0  0  0  0  0  0
  -10.3076    5.9360   -4.0194 N   0  0  0  0  0  0  0  0  0  0  0  0
  2  1  1  1  0  0  0
  2  3  1  0  0  0  0
  2  5  1  0  0  0  0
  3  4  2  0  0  0  0
  5  6  1  0  0  0  0
  6  7  1  0  0  0  0
  7  8  1  0  0  0  0
  8  9  2  0  0  0  0
  9 10  1  0  0  0  0
  9 11  1  0  0  0  0
M  CHG  2   1   1   8   1
M  END
>  <CHROM.1>
-87.83823927,18.70364774,-167.91637100,102.78150272,-84.43614603,-172.07372943
-11.27482601,6.49627820,-0.64500160,-1.57898650,-0.77800030,-1.95155364

>  <Name>


>  <RI>
0

>  <Rbt.Current_Directory>
/home/itssahil/PROJECTS/Mol_Feturizer/New_Systems/rnas/1aju

>  <Rbt.Executable>
rbdock ($Id: //depot/dev/client3/rdock/2013.1/src/exe/rbdock.cxx#4 $)

>  <Rbt.Library>
libRbt.so (2013.1, Build901 2013/11/27)

>  <Rbt.Parameter_File>
/export/apps/rDock/src/rDock_2013.1_src/data/scripts/dock_solv.prm

>  <Rbt.Receptor>
prm/blind_docking_100.prm

>  <SCORE>
-23.8001

>  <SCORE.INTER>
-26.3026

>  <SCORE.INTER.CONST>
1

>  <SCORE.INTER.POLAR>
-4.86943

>  <SCORE.INTER.ROT>
5

>  <SCORE.INTER.SOLV>
24.6269

>  <SCORE.INTER.VDW>
-16.446

>  <SCORE.INTER.norm>
-2.39115

>  <SCORE.INTRA>
2.50258

>  <SCORE.INTRA.DIHEDRAL>
2.6591

>  <SCORE.INTRA.DIHEDRAL.0>
9.90185

>  <SCORE.INTRA.POLAR>
0

>  <SCORE.INTRA.POLAR.0>
0

>  <SCORE.INTRA.REPUL>
0

>  <SCORE.INTRA.REPUL.0>
0

>  <SCORE.INTRA.SOLV>
1.55011

>  <SCORE.INTRA.SOLV.lig_0>
-53.6586

>  <SCORE.INTRA.VDW>
0.397974

>  <SCORE.INTRA.VDW.0>
-0.556525

>  <SCORE.INTRA.norm>
0.227507

>  <SCORE.RESTR>
0

>  <SCORE.RESTR.CAVITY>
0

>  <SCORE.RESTR.norm>
0

>  <SCORE.SYSTEM>
0

>  <SCORE.SYSTEM.CONST>
0

>  <SCORE.SYSTEM.DIHEDRAL>
0

>  <SCORE.SYSTEM.SOLV>
0

>  <SCORE.SYSTEM.norm>
0

>  <SCORE.heavy>
11

>  <SCORE.norm>
-2.16364

>  <RMSD>
13.709

$$$$

 OpenBabel11021811383D
libRbt.so/2013.1/901 2013/11/27
 11 10  0  0  0  0  0  0  0  0999 V2000
  -10.3637    8.3671    0.8729 N   0  3  0  0  0  0  0  0  0  0  0  0
  -11.3885    7.9311    1.8686 C   0  0  2  0  0  0  0  0  0  0  0  0
  -11.1150    8.6046    3.2241 C   0  0  0  0  0  0  0  0  0  0  0  0
  -10.1608    9.3457    3.3675 O   0  0  0  0  0  0  0  0  0  0  0  0
  -11.3295    6.4054    2.0219 C   0  0  0  0  0  0  0  0  0  0  0  0
  -10.5776    5.7985    0.8340 C   0  0  0  0  0  0  0  0  0  0  0  0
  -11.5191    5.6876   -0.3634 C   0  0  0  0  0  0  0  0  0  0  0  0
  -10.8286    4.9550   -1.4599 N   0  3  0  0  0  0  0  0  0  0  0  0
  -10.3826    5.6027   -2.5011 C   0  0  0  0  0  0  0  0  0  0  0  0
   -9.0991    5.6239   -2.7523 N   0  0  0  0  0  0  0  0  0  0  0  0
  -11.2192    6.2216   -3.2933 N   0  0  0  0  0  0  0  0  0  0  0  0
  2  1  1  6  0  0  0
  2  3  1  0  0  0  0
  2  5  1  0  0  0  0
  3  4  2  0  0  0  0
  5  6  1  0  0  0  0
  6  7  1  0  0  0  0
  7  8  1  0  0  0  0
  8  9  2  0  0  0  0
  9 10  1  0  0  0  0
  9 11  1  0  0  0  0
M  CHG  2   1   1   8   1
M  END
>  <CHROM.1>
-49.97140080,-1.38313546,-17.27162088,-80.80052061,-173.51139472,-105.21970548
-10.68880973,6.80043412,0.12322148,-1.68655383,-1.06664383,-2.17461046

>  <Name>


>  <RI>
224

>  <Rbt.Current_Directory>
/home/itssahil/PROJECTS/Mol_Feturizer/New_Systems/rnas/1aju

>  <Rbt.Executable>
rbdock ($Id: //depot/dev/client3/rdock/2013.1/src/exe/rbdock.cxx#4 $)

>  <Rbt.Library>
libRbt.so (2013.1, Build901 2013/11/27)

>  <Rbt.Parameter_File>
/export/apps/rDock/src/rDock_2013.1_src/data/scripts/dock_solv.prm

>  <Rbt.Receptor>
prm/blind_docking_20.prm

>  <SCORE>
-38.6907

>  <SCORE.INTER>
-44.9968

>  <SCORE.INTER.CONST>
1

>  <SCORE.INTER.POLAR>
-7.90465

>  <SCORE.INTER.ROT>
5

>  <SCORE.INTER.SOLV>
28.7652

>  <SCORE.INTER.VDW>
-20.1708

>  <SCORE.INTER.norm>
-4.09062

>  <SCORE.INTRA>
6.29691

>  <SCORE.INTRA.DIHEDRAL>
-0.714727

>  <SCORE.INTRA.DIHEDRAL.0>
9.90185

>  <SCORE.INTRA.POLAR>
0

>  <SCORE.INTRA.POLAR.0>
0

>  <SCORE.INTRA.REPUL>
0.194785

>  <SCORE.INTRA.REPUL.0>
0

>  <SCORE.INTRA.SOLV>
4.49443

>  <SCORE.INTRA.SOLV.lig_0>
-53.6586

>  <SCORE.INTRA.VDW>
3.43313

>  <SCORE.INTRA.VDW.0>
-0.556525

>  <SCORE.INTRA.norm>
0.572446

>  <SCORE.RESTR>
0.00925948

>  <SCORE.RESTR.CAVITY>
0.00925948

>  <SCORE.RESTR.norm>
0.000841771

>  <SCORE.SYSTEM>
0

>  <SCORE.SYSTEM.CONST>
0

>  <SCORE.SYSTEM.DIHEDRAL>
0

>  <SCORE.SYSTEM.SOLV>
0

>  <SCORE.SYSTEM.norm>
0

>  <SCORE.heavy>
11

>  <SCORE.norm>
-3.51733

>  <RMSD>
13.710

$$$$

 OpenBabel11021811383D
libRbt.so/2013.1/901 2013/11/27
 11 10  0  0  0  0  0  0  0  0999 V2000
  -12.1773    6.6489    4.0110 N   0  3  0  0  0  0  0  0  0  0  0  0
  -11.4547    6.8770    2.7236 C   0  0  2  0  0  0  0  0  0  0  0  0
  -11.4356    8.3802    2.3982 C   0  0  0  0  0  0  0  0  0  0  0  0
  -10.3848    8.9562    2.1877 O   0  0  0  0  0  0  0  0  0  0  0  0
  -12.1641    6.1083    1.6008 C   0  0  0  0  0  0  0  0  0  0  0  0
  -11.2035    5.9154    0.4240 C   0  0  0  0  0  0  0  0  0  0  0  0
  -12.0009    5.5946   -0.8385 C   0  0  0  0  0  0  0  0  0  0  0  0
  -11.1106    4.9114   -1.8165 N   0  3  0  0  0  0  0  0  0  0  0  0
  -10.4941    5.6028   -2.7355 C   0  0  0  0  0  0  0  0  0  0  0  0
   -9.1869    5.6467   -2.7480 N   0  0  0  0  0  0  0  0  0  0  0  0
  -11.1836    6.2429   -3.6441 N   0  0  0  0  0  0  0  0  0  0  0  0
  2  1  1  1  0  0  0
  2  3  1  0  0  0  0
  2  5  1  0  0  0  0
  3  4  2  0  0  0  0
  5  6  1  0  0  0  0
  6  7  1  0  0  0  0
  7  8  1  0  0  0  0
  8  9  2  0  0  0  0
  9 10  1  0  0  0  0
  9 11  1  0  0  0  0
M  CHG  2   1   1   8   1
M  END
>  <CHROM.1>
-63.11287799,125.21998694,-160.02563494,-160.95520432,-158.47992205,-94.20467880
-11.15224972,6.44871325,0.15186188,1.85505618,0.92792561,1.04267715

>  <Name>


>  <RI>
0

>  <Rbt.Current_Directory>
/home/itssahil/PROJECTS/Mol_Feturizer/New_Systems/rnas/1aju

>  <Rbt.Executable>
rbdock ($Id: //depot/dev/client3/rdock/2013.1/src/exe/rbdock.cxx#4 $)

>  <Rbt.Library>
libRbt.so (2013.1, Build901 2013/11/27)

>  <Rbt.Parameter_File>
/export/apps/rDock/src/rDock_2013.1_src/data/scripts/dock_solv.prm

>  <Rbt.Receptor>
prm/blind_docking_100.prm

>  <SCORE>
-25.5246

>  <SCORE.INTER>
-23.9895

>  <SCORE.INTER.CONST>
1

>  <SCORE.INTER.POLAR>
-4.71596

>  <SCORE.INTER.ROT>
5

>  <SCORE.INTER.SOLV>
19.8785

>  <SCORE.INTER.VDW>
-13.8326

>  <SCORE.INTER.norm>
-2.18086

>  <SCORE.INTRA>
-1.65188

>  <SCORE.INTRA.DIHEDRAL>
-2.56789

>  <SCORE.INTRA.DIHEDRAL.0>
9.90185

>  <SCORE.INTRA.POLAR>
0

>  <SCORE.INTRA.POLAR.0>
0

>  <SCORE.INTRA.REPUL>
0

>  <SCORE.INTRA.REPUL.0>
0

>  <SCORE.INTRA.SOLV>
0.0627357

>  <SCORE.INTRA.SOLV.lig_0>
-53.6586

>  <SCORE.INTRA.VDW>
-0.3993

>  <SCORE.INTRA.VDW.0>
-0.556525

>  <SCORE.INTRA.norm>
-0.150171

>  <SCORE.RESTR>
0.116778

>  <SCORE.RESTR.CAVITY>
0.116778

>  <SCORE.RESTR.norm>
0.0106161

>  <SCORE.SYSTEM>
0

>  <SCORE.SYSTEM.CONST>
0

>  <SCORE.SYSTEM.DIHEDRAL>
0

>  <SCORE.SYSTEM.SOLV>
0

>  <SCORE.SYSTEM.norm>
0

>  <SCORE.heavy>
11

>  <SCORE.norm>
-2.32041

>  <RMSD>
13.723

$$$$

 OpenBabel11021811383D
libRbt.so/2013.1/901 2013/11/27
 11 10  0  0  0  0  0  0  0  0999 V2000
  -12.5586    6.7805    2.7133 N   0  3  0  0  0  0  0  0  0  0  0  0
  -11.1758    7.2516    2.4005 C   0  0  2  0  0  0  0  0  0  0  0  0
  -11.0106    8.7128    2.8514 C   0  0  0  0  0  0  0  0  0  0  0  0
   -9.9829    9.3213    2.6196 O   0  0  0  0  0  0  0  0  0  0  0  0
  -10.9317    7.1402    0.8896 C   0  0  0  0  0  0  0  0  0  0  0  0
  -11.1354    5.6900    0.4420 C   0  0  0  0  0  0  0  0  0  0  0  0
  -11.8510    5.6679   -0.9070 C   0  0  0  0  0  0  0  0  0  0  0  0
  -10.9912    4.9719   -1.9032 N   0  3  0  0  0  0  0  0  0  0  0  0
  -10.3988    5.6522   -2.8461 C   0  0  0  0  0  0  0  0  0  0  0  0
   -9.0924    5.6911   -2.8962 N   0  0  0  0  0  0  0  0  0  0  0  0
  -11.1116    6.2860   -3.7410 N   0  0  0  0  0  0  0  0  0  0  0  0
  2  1  1  6  0  0  0
  2  3  1  0  0  0  0
  2  5  1  0  0  0  0
  3  4  2  0  0  0  0
  5  6  1  0  0  0  0
  6  7  1  0  0  0  0
  7  8  1  0  0  0  0
  8  9  2  0  0  0  0
  9 10  1  0  0  0  0
  9 11  1  0  0  0  0
M  CHG  2   1   1   8   1
M  END
>  <CHROM.1>
62.34644686,-175.61012200,-57.98605472,140.40112279,120.51331485,-108.08398729
-10.93651753,6.65066596,-0.04435250,1.72506978,0.74048319,1.05793174

>  <Name>


>  <RI>
0

>  <Rbt.Current_Directory>
/home/itssahil/PROJECTS/Mol_Feturizer/New_Systems/rnas/1aju

>  <Rbt.Executable>
rbdock ($Id: //depot/dev/client3/rdock/2013.1/src/exe/rbdock.cxx#4 $)

>  <Rbt.Library>
libRbt.so (2013.1, Build901 2013/11/27)

>  <Rbt.Parameter_File>
/export/apps/rDock/src/rDock_2013.1_src/data/scripts/dock_solv.prm

>  <Rbt.Receptor>
prm/blind_docking_40.prm

>  <SCORE>
-22.8162

>  <SCORE.INTER>
-26.8076

>  <SCORE.INTER.CONST>
1

>  <SCORE.INTER.POLAR>
-5.0006

>  <SCORE.INTER.ROT>
5

>  <SCORE.INTER.SOLV>
19.9806

>  <SCORE.INTER.VDW>
-14.7966

>  <SCORE.INTER.norm>
-2.43705

>  <SCORE.INTRA>
3.83417

>  <SCORE.INTRA.DIHEDRAL>
5.85577

>  <SCORE.INTRA.DIHEDRAL.0>
9.90185

>  <SCORE.INTRA.POLAR>
0

>  <SCORE.INTRA.POLAR.0>
0

>  <SCORE.INTRA.REPUL>
0

>  <SCORE.INTRA.REPUL.0>
0

>  <SCORE.INTRA.SOLV>
1.60592

>  <SCORE.INTRA.SOLV.lig_0>
-53.6586

>  <SCORE.INTRA.VDW>
0.10332

>  <SCORE.INTRA.VDW.0>
-0.556525

>  <SCORE.INTRA.norm>
0.348561

>  <SCORE.RESTR>
0.157191

>  <SCORE.RESTR.CAVITY>
0.157191

>  <SCORE.RESTR.norm>
0.0142901

>  <SCORE.SYSTEM>
0

>  <SCORE.SYSTEM.CONST>
0

>  <SCORE.SYSTEM.DIHEDRAL>
0

>  <SCORE.SYSTEM.SOLV>
0

>  <SCORE.SYSTEM.norm>
0

>  <SCORE.heavy>
11

>  <SCORE.norm>
-2.0742

>  <RMSD>
13.727

$$$$

 OpenBabel11021811383D
libRbt.so/2013.1/901 2013/11/27
 11 10  0  0  0  0  0  0  0  0999 V2000
  -12.2159    8.4405    1.1597 N   0  3  0  0  0  0  0  0  0  0  0  0
  -11.6006    7.4833    2.1277 C   0  0  2  0  0  0  0  0  0  0  0  0
  -11.0478    8.2532    3.3390 C   0  0  0  0  0  0  0  0  0  0  0  0
  -10.1888    9.1027    3.1951 O   0  0  0  0  0  0  0  0  0  0  0  0
  -10.4663    6.7183    1.4328 C   0  0  0  0  0  0  0  0  0  0  0  0
  -11.0117    5.4142    0.8439 C   0  0  0  0  0  0  0  0  0  0  0  0
  -11.6357    5.6925   -0.5220 C   0  0  0  0  0  0  0  0  0  0  0  0
  -10.8752    4.9514   -1.5652 N   0  3  0  0  0  0  0  0  0  0  0  0
  -10.3544    5.5923   -2.5755 C   0  0  0  0  0  0  0  0  0  0  0  0
   -9.0565    5.6054   -2.7373 N   0  0  0  0  0  0  0  0  0  0  0  0
  -11.1306    6.2124   -3.4262 N   0  0  0  0  0  0  0  0  0  0  0  0
  2  1  1  6  0  0  0
  2  3  1  0  0  0  0
  2  5  1  0  0  0  0
  3  4  2  0  0  0  0
  5  6  1  0  0  0  0
  6  7  1  0  0  0  0
  7  8  1  0  0  0  0
  8  9  2  0  0  0  0
  9 10  1  0  0  0  0
  9 11  1  0  0  0  0
M  CHG  2   1   1   8   1
M  END
>  <CHROM.1>
159.28562886,-59.94965773,-92.51254478,83.53509895,116.84117059,-123.79989302
-10.86891942,6.71155934,0.07539736,1.74149495,-0.88619522,1.22615252

>  <Name>


>  <RI>
224

>  <Rbt.Current_Directory>
/home/itssahil/PROJECTS/Mol_Feturizer/New_Systems/rnas/1aju

>  <Rbt.Executable>
rbdock ($Id: //depot/dev/client3/rdock/2013.1/src/exe/rbdock.cxx#4 $)

>  <Rbt.Library>
libRbt.so (2013.1, Build901 2013/11/27)

>  <Rbt.Parameter_File>
/export/apps/rDock/src/rDock_2013.1_src/data/scripts/dock_solv.prm

>  <Rbt.Receptor>
prm/blind_docking_20.prm

>  <SCORE>
-30.4788

>  <SCORE.INTER>
-35.4613

>  <SCORE.INTER.CONST>
1

>  <SCORE.INTER.POLAR>
-6.6536

>  <SCORE.INTER.ROT>
5

>  <SCORE.INTER.SOLV>
25.816

>  <SCORE.INTER.VDW>
-17.0009

>  <SCORE.INTER.norm>
-3.22375

>  <SCORE.INTRA>
4.98248

>  <SCORE.INTRA.DIHEDRAL>
7.15018

>  <SCORE.INTRA.DIHEDRAL.0>
9.90185

>  <SCORE.INTRA.POLAR>
0

>  <SCORE.INTRA.POLAR.0>
0

>  <SCORE.INTRA.REPUL>
0

>  <SCORE.INTRA.REPUL.0>
0

>  <SCORE.INTRA.SOLV>
2.5033

>  <SCORE.INTRA.SOLV.lig_0>
-53.6586

>  <SCORE.INTRA.VDW>
0.155738

>  <SCORE.INTRA.VDW.0>
-0.556525

>  <SCORE.INTRA.norm>
0.452952

>  <SCORE.RESTR>
0

>  <SCORE.RESTR.CAVITY>
0

>  <SCORE.RESTR.norm>
0

>  <SCORE.SYSTEM>
0

>  <SCORE.SYSTEM.CONST>
0

>  <SCORE.SYSTEM.DIHEDRAL>
0

>  <SCORE.SYSTEM.SOLV>
0

>  <SCORE.SYSTEM.norm>
0

>  <SCORE.heavy>
11

>  <SCORE.norm>
-2.7708

>  <RMSD>
13.733

$$$$

 OpenBabel11021811383D
libRbt.so/2013.1/901 2013/11/27
 11 10  0  0  0  0  0  0  0  0999 V2000
  -10.2210    8.3418    1.6228 N   0  3  0  0  0  0  0  0  0  0  0  0
  -11.3563    7.3778    1.7388 C   0  0  2  0  0  0  0  0  0  0  0  0
  -12.0349    7.5372    3.1098 C   0  0  0  0  0  0  0  0  0  0  0  0
  -13.2469    7.5000    3.2104 O   0  0  0  0  0  0  0  0  0  0  0  0
  -10.8245    5.9469    1.5822 C   0  0  0  0  0  0  0  0  0  0  0  0
  -10.3091    5.7438    0.1547 C   0  0  0  0  0  0  0  0  0  0  0  0
  -11.4924    5.6379   -0.8050 C   0  0  0  0  0  0  0  0  0  0  0  0
  -11.0254    5.0525   -2.0916 N   0  3  0  0  0  0  0  0  0  0  0  0
  -11.0436    5.7689   -3.1821 C   0  0  0  0  0  0  0  0  0  0  0  0
   -9.9221    6.0499   -3.7936 N   0  0  0  0  0  0  0  0  0  0  0  0
  -12.1818    6.1970   -3.6637 N   0  0  0  0  0  0  0  0  0  0  0  0
  2  1  1  1  0  0  0
  2  3  1  0  0  0  0
  2  5  1  0  0  0  0
  3  4  2  0  0  0  0
  5  6  1  0  0  0  0
  6  7  1  0  0  0  0
  7  8  1  0  0  0  0
  8  9  2  0  0  0  0
  9 10  1  0  0  0  0
  9 11  1  0  0  0  0
M  CHG  2   1   1   8   1
M  END
>  <CHROM.1>
145.68767406,138.99336739,-66.58000944,-73.52345691,-163.53811039,-114.09226134
-11.23088746,6.49713423,-0.21762235,-1.70936598,-0.10776386,-1.86636084

>  <Name>


>  <RI>
0

>  <Rbt.Current_Directory>
/home/itssahil/PROJECTS/Mol_Feturizer/New_Systems/rnas/1aju

>  <Rbt.Executable>
rbdock ($Id: //depot/dev/client3/rdock/2013.1/src/exe/rbdock.cxx#4 $)

>  <Rbt.Library>
libRbt.so (2013.1, Build901 2013/11/27)

>  <Rbt.Parameter_File>
/export/apps/rDock/src/rDock_2013.1_src/data/scripts/dock_solv.prm

>  <Rbt.Receptor>
prm/blind_docking_100.prm

>  <SCORE>
-23.5499

>  <SCORE.INTER>
-24.0684

>  <SCORE.INTER.CONST>
1

>  <SCORE.INTER.POLAR>
-4.71354

>  <SCORE.INTER.ROT>
5

>  <SCORE.INTER.SOLV>
25.9095

>  <SCORE.INTER.VDW>
-15.9036

>  <SCORE.INTER.norm>
-2.18804

>  <SCORE.INTRA>
0.371694

>  <SCORE.INTRA.DIHEDRAL>
-2.26

>  <SCORE.INTRA.DIHEDRAL.0>
9.90185

>  <SCORE.INTRA.POLAR>
0

>  <SCORE.INTRA.POLAR.0>
0

>  <SCORE.INTRA.REPUL>
0

>  <SCORE.INTRA.REPUL.0>
0

>  <SCORE.INTRA.SOLV>
1.2963

>  <SCORE.INTRA.SOLV.lig_0>
-53.6586

>  <SCORE.INTRA.VDW>
0.853543

>  <SCORE.INTRA.VDW.0>
-0.556525

>  <SCORE.INTRA.norm>
0.0337903

>  <SCORE.RESTR>
0.146868

>  <SCORE.RESTR.CAVITY>
0.146868

>  <SCORE.RESTR.norm>
0.0133517

>  <SCORE.SYSTEM>
0

>  <SCORE.SYSTEM.CONST>
0

>  <SCORE.SYSTEM.DIHEDRAL>
0

>  <SCORE.SYSTEM.SOLV>
0

>  <SCORE.SYSTEM.norm>
0

>  <SCORE.heavy>
11

>  <SCORE.norm>
-2.1409

>  <RMSD>
13.736

$$$$

 OpenBabel11021811383D
libRbt.so/2013.1/901 2013/11/27
 11 10  0  0  0  0  0  0  0  0999 V2000
   -9.1928    5.6336   -2.4776 N   0  3  0  0  0  0  0  0  0  0  0  0
  -10.6417    5.3183   -2.6585 C   0  0  2  0  0  0  0  0  0  0  0  0
  -11.1823    6.0524   -3.8973 C   0  0  0  0  0  0  0  0  0  0  0  0
  -11.9577    5.5015   -4.6559 O   0  0  0  0  0  0  0  0  0  0  0  0
  -11.4166    5.7601   -1.4098 C   0  0  0  0  0  0  0  0  0  0  0  0
  -11.3325    4.6677   -0.3400 C   0  0  0  0  0  0  0  0  0  0  0  0
  -11.7594    5.2411    1.0097 C   0  0  0  0  0  0  0  0  0  0  0  0
  -10.5967    5.9267    1.6374 N   0  3  0  0  0  0  0  0  0  0  0  0
  -10.6390    7.2105    1.8671 C   0  0  0  0  0  0  0  0  0  0  0  0
  -10.5779    7.6528    3.0965 N   0  0  0  0  0  0  0  0  0  0  0  0
  -10.7348    8.0501    0.8689 N   0  0  0  0  0  0  0  0  0  0  0  0
  2  1  1  1  0  0  0
  2  3  1  0  0  0  0
  2  5  1  0  0  0  0
  3  4  2  0  0  0  0
  5  6  1  0  0  0  0
  6  7  1  0  0  0  0
  7  8  1  0  0  0  0
  8  9  2  0  0  0  0
  9 10  1  0  0  0  0
  9 11  1  0  0  0  0
M  CHG  2   1   1   8   1
M  END
>  <CHROM.1>
89.92482787,139.65260050,-83.66663813,164.64437929,-83.52498408,116.89933269
-10.87643441,6.11452623,-0.63233067,-1.70159204,1.13457549,1.43439143

>  <Name>


>  <RI>
0

>  <Rbt.Current_Directory>
/home/itssahil/PROJECTS/Mol_Feturizer/New_Systems/rnas/1aju

>  <Rbt.Executable>
rbdock ($Id: //depot/dev/client3/rdock/2013.1/src/exe/rbdock.cxx#4 $)

>  <Rbt.Library>
libRbt.so (2013.1, Build901 2013/11/27)

>  <Rbt.Parameter_File>
/export/apps/rDock/src/rDock_2013.1_src/data/scripts/dock_solv.prm

>  <Rbt.Receptor>
prm/blind_docking_60.prm

>  <SCORE>
-27.286

>  <SCORE.INTER>
-29.148

>  <SCORE.INTER.CONST>
1

>  <SCORE.INTER.POLAR>
-5.71779

>  <SCORE.INTER.ROT>
5

>  <SCORE.INTER.SOLV>
27.9329

>  <SCORE.INTER.VDW>
-16.617

>  <SCORE.INTER.norm>
-2.64982

>  <SCORE.INTRA>
1.14192

>  <SCORE.INTRA.DIHEDRAL>
0.0110519

>  <SCORE.INTRA.DIHEDRAL.0>
9.90185

>  <SCORE.INTRA.POLAR>
0

>  <SCORE.INTRA.POLAR.0>
0

>  <SCORE.INTRA.REPUL>
0

>  <SCORE.INTRA.REPUL.0>
0

>  <SCORE.INTRA.SOLV>
2.48087

>  <SCORE.INTRA.SOLV.lig_0>
-53.6586

>  <SCORE.INTRA.VDW>
-0.10404

>  <SCORE.INTRA.VDW.0>
-0.556525

>  <SCORE.INTRA.norm>
0.103811

>  <SCORE.RESTR>
0.720065

>  <SCORE.RESTR.CAVITY>
0.720065

>  <SCORE.RESTR.norm>
0.0654604

>  <SCORE.SYSTEM>
0

>  <SCORE.SYSTEM.CONST>
0

>  <SCORE.SYSTEM.DIHEDRAL>
0

>  <SCORE.SYSTEM.SOLV>
0

>  <SCORE.SYSTEM.norm>
0

>  <SCORE.heavy>
11

>  <SCORE.norm>
-2.48054

>  <RMSD>
13.737

$$$$

 OpenBabel11021811383D
libRbt.so/2013.1/901 2013/11/27
 11 10  0  0  0  0  0  0  0  0999 V2000
  -10.0898    8.5630    1.3590 N   0  3  0  0  0  0  0  0  0  0  0  0
  -11.1396    7.5992    0.9109 C   0  0  2  0  0  0  0  0  0  0  0  0
  -12.3882    7.7423    1.7976 C   0  0  0  0  0  0  0  0  0  0  0  0
  -12.4240    8.5678    2.6906 O   0  0  0  0  0  0  0  0  0  0  0  0
  -10.5905    6.1697    1.0084 C   0  0  0  0  0  0  0  0  0  0  0  0
  -11.6278    5.1829    0.4652 C   0  0  0  0  0  0  0  0  0  0  0  0
  -12.0012    5.5701   -0.9642 C   0  0  0  0  0  0  0  0  0  0  0  0
  -11.0629    4.9057   -1.9098 N   0  3  0  0  0  0  0  0  0  0  0  0
  -10.4330    5.6092   -2.8104 C   0  0  0  0  0  0  0  0  0  0  0  0
   -9.1276    5.6845   -2.7799 N   0  0  0  0  0  0  0  0  0  0  0  0
  -11.1071    6.2301   -3.7435 N   0  0  0  0  0  0  0  0  0  0  0  0
  2  1  1  1  0  0  0
  2  3  1  0  0  0  0
  2  5  1  0  0  0  0
  3  4  2  0  0  0  0
  5  6  1  0  0  0  0
  6  7  1  0  0  0  0
  7  8  1  0  0  0  0
  8  9  2  0  0  0  0
  9 10  1  0  0  0  0
  9 11  1  0  0  0  0
M  CHG  2   1   1   8   1
M  END
>  <CHROM.1>
171.72116148,1.26509187,-176.34414860,56.09701763,88.49481966,-127.75047049
-11.05458848,6.56708562,-0.36620735,-1.84853464,-0.70850687,-2.22575088

>  <Name>


>  <RI>
0

>  <Rbt.Current_Directory>
/home/itssahil/PROJECTS/Mol_Feturizer/New_Systems/rnas/1aju

>  <Rbt.Executable>
rbdock ($Id: //depot/dev/client3/rdock/2013.1/src/exe/rbdock.cxx#4 $)

>  <Rbt.Library>
libRbt.so (2013.1, Build901 2013/11/27)

>  <Rbt.Parameter_File>
/export/apps/rDock/src/rDock_2013.1_src/data/scripts/dock_solv.prm

>  <Rbt.Receptor>
prm/blind_docking_60.prm

>  <SCORE>
-32.3162

>  <SCORE.INTER>
-32.1563

>  <SCORE.INTER.CONST>
1

>  <SCORE.INTER.POLAR>
-6.46636

>  <SCORE.INTER.ROT>
5

>  <SCORE.INTER.SOLV>
29.8093

>  <SCORE.INTER.VDW>
-16.7528

>  <SCORE.INTER.norm>
-2.9233

>  <SCORE.INTRA>
-0.159838

>  <SCORE.INTRA.DIHEDRAL>
-4.15145

>  <SCORE.INTRA.DIHEDRAL.0>
9.90185

>  <SCORE.INTRA.POLAR>
0

>  <SCORE.INTRA.POLAR.0>
0

>  <SCORE.INTRA.REPUL>
0

>  <SCORE.INTRA.REPUL.0>
0

>  <SCORE.INTRA.SOLV>
1.49338

>  <SCORE.INTRA.SOLV.lig_0>
-53.6586

>  <SCORE.INTRA.VDW>
1.1692

>  <SCORE.INTRA.VDW.0>
-0.556525

>  <SCORE.INTRA.norm>
-0.0145307

>  <SCORE.RESTR>
0

>  <SCORE.RESTR.CAVITY>
0

>  <SCORE.RESTR.norm>
0

>  <SCORE.SYSTEM>
0

>  <SCORE.SYSTEM.CONST>
0

>  <SCORE.SYSTEM.DIHEDRAL>
0

>  <SCORE.SYSTEM.SOLV>
0

>  <SCORE.SYSTEM.norm>
0

>  <SCORE.heavy>
11

>  <SCORE.norm>
-2.93783

>  <RMSD>
13.739

$$$$

 OpenBabel11021811383D
libRbt.so/2013.1/901 2013/11/27
 11 10  0  0  0  0  0  0  0  0999 V2000
  -10.2383    8.4523    0.7675 N   0  3  0  0  0  0  0  0  0  0  0  0
  -11.2035    7.8263    1.7204 C   0  0  2  0  0  0  0  0  0  0  0  0
  -11.0434    8.4597    3.1129 C   0  0  0  0  0  0  0  0  0  0  0  0
  -10.1788    9.2899    3.3213 O   0  0  0  0  0  0  0  0  0  0  0  0
  -10.9330    6.3178    1.7984 C   0  0  0  0  0  0  0  0  0  0  0  0
  -10.4511    5.8114    0.4360 C   0  0  0  0  0  0  0  0  0  0  0  0
  -11.6525    5.3773   -0.4013 C   0  0  0  0  0  0  0  0  0  0  0  0
  -11.1720    4.8653   -1.7139 N   0  3  0  0  0  0  0  0  0  0  0  0
  -11.1493    5.6514   -2.7552 C   0  0  0  0  0  0  0  0  0  0  0  0
  -10.0084    5.9430   -3.3244 N   0  0  0  0  0  0  0  0  0  0  0  0
  -12.2662    6.1389   -3.2303 N   0  0  0  0  0  0  0  0  0  0  0  0
  2  1  1  6  0  0  0
  2  3  1  0  0  0  0
  2  5  1  0  0  0  0
  3  4  2  0  0  0  0
  5  6  1  0  0  0  0
  6  7  1  0  0  0  0
  7  8  1  0  0  0  0
  8  9  2  0  0  0  0
  9 10  1  0  0  0  0
  9 11  1  0  0  0  0
M  CHG  2   1   1   8   1
M  END
>  <CHROM.1>
-51.20184697,-3.53830212,-33.31139892,-90.04684755,-179.04119404,-96.20008121
-10.90875115,6.77058853,-0.06591168,-1.24336067,-1.26850212,-1.74384977

>  <Name>


>  <RI>
0

>  <Rbt.Current_Directory>
/home/itssahil/PROJECTS/Mol_Feturizer/New_Systems/rnas/1aju

>  <Rbt.Executable>
rbdock ($Id: //depot/dev/client3/rdock/2013.1/src/exe/rbdock.cxx#4 $)

>  <Rbt.Library>
libRbt.so (2013.1, Build901 2013/11/27)

>  <Rbt.Parameter_File>
/export/apps/rDock/src/rDock_2013.1_src/data/scripts/dock_solv.prm

>  <Rbt.Receptor>
prm/blind_docking_80.prm

>  <SCORE>
-33.6628

>  <SCORE.INTER>
-37.1044

>  <SCORE.INTER.CONST>
1

>  <SCORE.INTER.POLAR>
-6.80308

>  <SCORE.INTER.ROT>
5

>  <SCORE.INTER.SOLV>
27.3975

>  <SCORE.INTER.VDW>
-18.1252

>  <SCORE.INTER.norm>
-3.37313

>  <SCORE.INTRA>
3.12089

>  <SCORE.INTRA.DIHEDRAL>
-1.49472

>  <SCORE.INTRA.DIHEDRAL.0>
9.90185

>  <SCORE.INTRA.POLAR>
0

>  <SCORE.INTRA.POLAR.0>
0

>  <SCORE.INTRA.REPUL>
0.0883075

>  <SCORE.INTRA.REPUL.0>
0

>  <SCORE.INTRA.SOLV>
3.64137

>  <SCORE.INTRA.SOLV.lig_0>
-53.6586

>  <SCORE.INTRA.VDW>
1.60602

>  <SCORE.INTRA.VDW.0>
-0.556525

>  <SCORE.INTRA.norm>
0.283717

>  <SCORE.RESTR>
0.320767

>  <SCORE.RESTR.CAVITY>
0.320767

>  <SCORE.RESTR.norm>
0.0291606

>  <SCORE.SYSTEM>
0

>  <SCORE.SYSTEM.CONST>
0

>  <SCORE.SYSTEM.DIHEDRAL>
0

>  <SCORE.SYSTEM.SOLV>
0

>  <SCORE.SYSTEM.norm>
0

>  <SCORE.heavy>
11

>  <SCORE.norm>
-3.06025

>  <RMSD>
13.741

$$$$

 OpenBabel11021811383D
libRbt.so/2013.1/901 2013/11/27
 11 10  0  0  0  0  0  0  0  0999 V2000
  -10.3662    8.2493    0.9057 N   0  3  0  0  0  0  0  0  0  0  0  0
  -11.4943    7.6139    1.6509 C   0  0  2  0  0  0  0  0  0  0  0  0
  -11.7042    8.3380    2.9916 C   0  0  0  0  0  0  0  0  0  0  0  0
  -11.3691    9.4996    3.1286 O   0  0  0  0  0  0  0  0  0  0  0  0
  -11.1678    6.1355    1.9011 C   0  0  0  0  0  0  0  0  0  0  0  0
  -10.4814    5.5450    0.6662 C   0  0  0  0  0  0  0  0  0  0  0  0
  -11.4656    5.5194   -0.5015 C   0  0  0  0  0  0  0  0  0  0  0  0
  -10.8059    4.8954   -1.6810 N   0  3  0  0  0  0  0  0  0  0  0  0
  -10.4101    5.6373   -2.6789 C   0  0  0  0  0  0  0  0  0  0  0  0
   -9.1376    5.7041   -2.9741 N   0  0  0  0  0  0  0  0  0  0  0  0
  -11.2860    6.3051   -3.3842 N   0  0  0  0  0  0  0  0  0  0  0  0
  2  1  1  1  0  0  0
  2  3  1  0  0  0  0
  2  5  1  0  0  0  0
  3  4  2  0  0  0  0
  5  6  1  0  0  0  0
  6  7  1  0  0  0  0
  7  8  1  0  0  0  0
  8  9  2  0  0  0  0
  9 10  1  0  0  0  0
  9 11  1  0  0  0  0
M  CHG  2   1   1   8   1
M  END
>  <CHROM.1>
82.56980396,25.61461937,-39.34950975,-66.24383268,-177.81530798,-105.27809762
-10.84907745,6.71000614,-0.03567245,-2.33932170,-1.34765245,-2.81749697

>  <Name>


>  <RI>
0

>  <Rbt.Current_Directory>
/home/itssahil/PROJECTS/Mol_Feturizer/New_Systems/rnas/1aju

>  <Rbt.Executable>
rbdock ($Id: //depot/dev/client3/rdock/2013.1/src/exe/rbdock.cxx#4 $)

>  <Rbt.Library>
libRbt.so (2013.1, Build901 2013/11/27)

>  <Rbt.Parameter_File>
/export/apps/rDock/src/rDock_2013.1_src/data/scripts/dock_solv.prm

>  <Rbt.Receptor>
prm/blind_docking_40.prm

>  <SCORE>
-31.9321

>  <SCORE.INTER>
-34.6484

>  <SCORE.INTER.CONST>
1

>  <SCORE.INTER.POLAR>
-6.7599

>  <SCORE.INTER.ROT>
5

>  <SCORE.INTER.SOLV>
28.7859

>  <SCORE.INTER.VDW>
-17.0945

>  <SCORE.INTER.norm>
-3.14985

>  <SCORE.INTRA>
2.68773

>  <SCORE.INTRA.DIHEDRAL>
-3.18591

>  <SCORE.INTRA.DIHEDRAL.0>
9.90185

>  <SCORE.INTRA.POLAR>
0

>  <SCORE.INTRA.POLAR.0>
0

>  <SCORE.INTRA.REPUL>
0.159015

>  <SCORE.INTRA.REPUL.0>
0

>  <SCORE.INTRA.SOLV>
3.9167

>  <SCORE.INTRA.SOLV.lig_0>
-53.6586

>  <SCORE.INTRA.VDW>
1.52726

>  <SCORE.INTRA.VDW.0>
-0.556525

>  <SCORE.INTRA.norm>
0.244339

>  <SCORE.RESTR>
0.0285692

>  <SCORE.RESTR.CAVITY>
0.0285692

>  <SCORE.RESTR.norm>
0.0025972

>  <SCORE.SYSTEM>
0

>  <SCORE.SYSTEM.CONST>
0

>  <SCORE.SYSTEM.DIHEDRAL>
0

>  <SCORE.SYSTEM.SOLV>
0

>  <SCORE.SYSTEM.norm>
0

>  <SCORE.heavy>
11

>  <SCORE.norm>
-2.90292

>  <RMSD>
13.747

$$$$

 OpenBabel11021811383D
libRbt.so/2013.1/901 2013/11/27
 11 10  0  0  0  0  0  0  0  0999 V2000
  -13.2886    6.7845    0.2854 N   0  3  0  0  0  0  0  0  0  0  0  0
  -12.5719    6.3707    1.5290 C   0  0  2  0  0  0  0  0  0  0  0  0
  -11.5947    7.4782    1.9582 C   0  0  0  0  0  0  0  0  0  0  0  0
  -11.9233    8.3105    2.7826 O   0  0  0  0  0  0  0  0  0  0  0  0
  -11.8027    5.0699    1.2620 C   0  0  0  0  0  0  0  0  0  0  0  0
  -10.8409    5.2738    0.0880 C   0  0  0  0  0  0  0  0  0  0  0  0
  -11.5035    4.7980   -1.2032 C   0  0  0  0  0  0  0  0  0  0  0  0
  -11.4984    5.9106   -2.1921 N   0  3  0  0  0  0  0  0  0  0  0  0
  -10.6661    5.8902   -3.1969 C   0  0  0  0  0  0  0  0  0  0  0  0
  -11.1257    5.8351   -4.4202 N   0  0  0  0  0  0  0  0  0  0  0  0
   -9.3772    5.9322   -2.9786 N   0  0  0  0  0  0  0  0  0  0  0  0
  2  1  1  6  0  0  0
  2  3  1  0  0  0  0
  2  5  1  0  0  0  0
  3  4  2  0  0  0  0
  5  6  1  0  0  0  0
  6  7  1  0  0  0  0
  7  8  1  0  0  0  0
  8  9  2  0  0  0  0
  9 10  1  0  0  0  0
  9 11  1  0  0  0  0
M  CHG  2   1   1   8   1
M  END
>  <CHROM.1>
36.77457856,95.15687548,56.97349700,-95.27477925,124.27697172,105.24396547
-11.48706133,6.18075736,-0.59024926,-2.64428569,-1.25992956,-2.87789889

>  <Name>


>  <RI>
0

>  <Rbt.Current_Directory>
/home/itssahil/PROJECTS/Mol_Feturizer/New_Systems/rnas/1aju

>  <Rbt.Executable>
rbdock ($Id: //depot/dev/client3/rdock/2013.1/src/exe/rbdock.cxx#4 $)

>  <Rbt.Library>
libRbt.so (2013.1, Build901 2013/11/27)

>  <Rbt.Parameter_File>
/export/apps/rDock/src/rDock_2013.1_src/data/scripts/dock_solv.prm

>  <Rbt.Receptor>
prm/blind_docking_100.prm

>  <SCORE>
-14.7737

>  <SCORE.INTER>
-20.7603

>  <SCORE.INTER.CONST>
1

>  <SCORE.INTER.POLAR>
-3.88402

>  <SCORE.INTER.ROT>
5

>  <SCORE.INTER.SOLV>
17.4376

>  <SCORE.INTER.VDW>
-13.6393

>  <SCORE.INTER.norm>
-1.8873

>  <SCORE.INTRA>
5.96445

>  <SCORE.INTRA.DIHEDRAL>
4.5504

>  <SCORE.INTRA.DIHEDRAL.0>
9.90185

>  <SCORE.INTRA.POLAR>
0

>  <SCORE.INTRA.POLAR.0>
0

>  <SCORE.INTRA.REPUL>
0.00212511

>  <SCORE.INTRA.REPUL.0>
0

>  <SCORE.INTRA.SOLV>
5.99443

>  <SCORE.INTRA.SOLV.lig_0>
-53.6586

>  <SCORE.INTRA.VDW>
0.681406

>  <SCORE.INTRA.VDW.0>
-0.556525

>  <SCORE.INTRA.norm>
0.542222

>  <SCORE.RESTR>
0.0221095

>  <SCORE.RESTR.CAVITY>
0.0221095

>  <SCORE.RESTR.norm>
0.00200995

>  <SCORE.SYSTEM>
0

>  <SCORE.SYSTEM.CONST>
0

>  <SCORE.SYSTEM.DIHEDRAL>
0

>  <SCORE.SYSTEM.SOLV>
0

>  <SCORE.SYSTEM.norm>
0

>  <SCORE.heavy>
11

>  <SCORE.norm>
-1.34307

>  <RMSD>
13.753

$$$$

 OpenBabel11021811383D
libRbt.so/2013.1/901 2013/11/27
 11 10  0  0  0  0  0  0  0  0999 V2000
  -10.0983    8.4966    1.3407 N   0  3  0  0  0  0  0  0  0  0  0  0
  -11.1830    7.5631    0.9122 C   0  0  2  0  0  0  0  0  0  0  0  0
  -12.4267    7.7732    1.7924 C   0  0  0  0  0  0  0  0  0  0  0  0
  -12.3949    8.5360    2.7397 O   0  0  0  0  0  0  0  0  0  0  0  0
  -10.6882    6.1164    1.0436 C   0  0  0  0  0  0  0  0  0  0  0  0
  -11.7832    5.1545    0.5739 C   0  0  0  0  0  0  0  0  0  0  0  0
  -12.1541    5.4709   -0.8735 C   0  0  0  0  0  0  0  0  0  0  0  0
  -11.1566    4.8405   -1.7810 N   0  3  0  0  0  0  0  0  0  0  0  0
  -10.4755    5.5751   -2.6172 C   0  0  0  0  0  0  0  0  0  0  0  0
   -9.1747    5.6522   -2.5038 N   0  0  0  0  0  0  0  0  0  0  0  0
  -11.0935    6.2252   -3.5691 N   0  0  0  0  0  0  0  0  0  0  0  0
  2  1  1  1  0  0  0
  2  3  1  0  0  0  0
  2  5  1  0  0  0  0
  3  4  2  0  0  0  0
  5  6  1  0  0  0  0
  6  7  1  0  0  0  0
  7  8  1  0  0  0  0
  8  9  2  0  0  0  0
  9 10  1  0  0  0  0
  9 11  1  0  0  0  0
M  CHG  2   1   1   8   1
M  END
>  <CHROM.1>
178.02322399,-5.18095838,-178.63799557,58.27871814,81.24905761,-121.98497830
-11.10970435,6.52822477,-0.27135487,-1.84638813,-0.70052910,-2.24108425

>  <Name>


>  <RI>
0

>  <Rbt.Current_Directory>
/home/itssahil/PROJECTS/Mol_Feturizer/New_Systems/rnas/1aju

>  <Rbt.Executable>
rbdock ($Id: //depot/dev/client3/rdock/2013.1/src/exe/rbdock.cxx#4 $)

>  <Rbt.Library>
libRbt.so (2013.1, Build901 2013/11/27)

>  <Rbt.Parameter_File>
/export/apps/rDock/src/rDock_2013.1_src/data/scripts/dock_solv.prm

>  <Rbt.Receptor>
prm/blind_docking_100.prm

>  <SCORE>
-31.696

>  <SCORE.INTER>
-30.8579

>  <SCORE.INTER.CONST>
1

>  <SCORE.INTER.POLAR>
-5.88908

>  <SCORE.INTER.ROT>
5

>  <SCORE.INTER.SOLV>
29.0212

>  <SCORE.INTER.VDW>
-17.5488

>  <SCORE.INTER.norm>
-2.80527

>  <SCORE.INTRA>
-0.838762

>  <SCORE.INTRA.DIHEDRAL>
-5.3444

>  <SCORE.INTRA.DIHEDRAL.0>
9.90185

>  <SCORE.INTRA.POLAR>
0

>  <SCORE.INTRA.POLAR.0>
0

>  <SCORE.INTRA.REPUL>
0

>  <SCORE.INTRA.REPUL.0>
0

>  <SCORE.INTRA.SOLV>
1.64808

>  <SCORE.INTRA.SOLV.lig_0>
-53.6586

>  <SCORE.INTRA.VDW>
1.00939

>  <SCORE.INTRA.VDW.0>
-0.556525

>  <SCORE.INTRA.norm>
-0.0762511

>  <SCORE.RESTR>
0.000732222

>  <SCORE.RESTR.CAVITY>
0.000732222

>  <SCORE.RESTR.norm>
6.65656e-05

>  <SCORE.SYSTEM>
0

>  <SCORE.SYSTEM.CONST>
0

>  <SCORE.SYSTEM.DIHEDRAL>
0

>  <SCORE.SYSTEM.SOLV>
0

>  <SCORE.SYSTEM.norm>
0

>  <SCORE.heavy>
11

>  <SCORE.norm>
-2.88145

>  <RMSD>
13.754

$$$$

 OpenBabel11021811383D
libRbt.so/2013.1/901 2013/11/27
 11 10  0  0  0  0  0  0  0  0999 V2000
  -11.9159    6.2202    3.2510 N   0  3  0  0  0  0  0  0  0  0  0  0
  -11.1764    7.1822    2.3795 C   0  0  2  0  0  0  0  0  0  0  0  0
  -11.3334    8.6093    2.9314 C   0  0  0  0  0  0  0  0  0  0  0  0
  -10.3773    9.3590    2.9942 O   0  0  0  0  0  0  0  0  0  0  0  0
  -11.7376    7.1089    0.9532 C   0  0  0  0  0  0  0  0  0  0  0  0
  -11.2146    5.8478    0.2597 C   0  0  0  0  0  0  0  0  0  0  0  0
  -11.9208    5.6735   -1.0832 C   0  0  0  0  0  0  0  0  0  0  0  0
  -11.0066    4.9746   -2.0274 N   0  3  0  0  0  0  0  0  0  0  0  0
  -10.3704    5.6506   -2.9446 C   0  0  0  0  0  0  0  0  0  0  0  0
   -9.0634    5.6978   -2.9276 N   0  0  0  0  0  0  0  0  0  0  0  0
  -11.0400    6.2719   -3.8807 N   0  0  0  0  0  0  0  0  0  0  0  0
  2  1  1  1  0  0  0
  2  3  1  0  0  0  0
  2  5  1  0  0  0  0
  3  4  2  0  0  0  0
  5  6  1  0  0  0  0
  6  7  1  0  0  0  0
  7  8  1  0  0  0  0
  8  9  2  0  0  0  0
  9 10  1  0  0  0  0
  9 11  1  0  0  0  0
M  CHG  2   1   1   8   1
M  END
>  <CHROM.1>
-82.47097261,136.11291520,-76.47779121,172.23278811,150.39273694,-101.94457383
-11.00367193,6.58961245,-0.00426678,1.78544718,0.95552437,1.03516042

>  <Name>


>  <RI>
0

>  <Rbt.Current_Directory>
/home/itssahil/PROJECTS/Mol_Feturizer/New_Systems/rnas/1aju

>  <Rbt.Executable>
rbdock ($Id: //depot/dev/client3/rdock/2013.1/src/exe/rbdock.cxx#4 $)

>  <Rbt.Library>
libRbt.so (2013.1, Build901 2013/11/27)

>  <Rbt.Parameter_File>
/export/apps/rDock/src/rDock_2013.1_src/data/scripts/dock_solv.prm

>  <Rbt.Receptor>
prm/blind_docking_40.prm

>  <SCORE>
-27.9081

>  <SCORE.INTER>
-27.7554

>  <SCORE.INTER.CONST>
1

>  <SCORE.INTER.POLAR>
-5.6568

>  <SCORE.INTER.ROT>
5

>  <SCORE.INTER.SOLV>
22.0113

>  <SCORE.INTER.VDW>
-13.9181

>  <SCORE.INTER.norm>
-2.52322

>  <SCORE.INTRA>
-0.459138

>  <SCORE.INTRA.DIHEDRAL>
-1.49403

>  <SCORE.INTRA.DIHEDRAL.0>
9.90185

>  <SCORE.INTRA.POLAR>
0

>  <SCORE.INTRA.POLAR.0>
0

>  <SCORE.INTRA.REPUL>
0

>  <SCORE.INTRA.REPUL.0>
0

>  <SCORE.INTRA.SOLV>
0.975415

>  <SCORE.INTRA.SOLV.lig_0>
-53.6586

>  <SCORE.INTRA.VDW>
-0.199832

>  <SCORE.INTRA.VDW.0>
-0.556525

>  <SCORE.INTRA.norm>
-0.0417399

>  <SCORE.RESTR>
0.306462

>  <SCORE.RESTR.CAVITY>
0.306462

>  <SCORE.RESTR.norm>
0.0278602

>  <SCORE.SYSTEM>
0

>  <SCORE.SYSTEM.CONST>
0

>  <SCORE.SYSTEM.DIHEDRAL>
0

>  <SCORE.SYSTEM.SOLV>
0

>  <SCORE.SYSTEM.norm>
0

>  <SCORE.heavy>
11

>  <SCORE.norm>
-2.5371

>  <RMSD>
13.756

$$$$

 OpenBabel11021811383D
libRbt.so/2013.1/901 2013/11/27
 11 10  0  0  0  0  0  0  0  0999 V2000
  -11.9742    6.7311    2.8634 N   0  3  0  0  0  0  0  0  0  0  0  0
  -11.4110    6.7035    1.4800 C   0  0  2  0  0  0  0  0  0  0  0  0
  -10.4580    7.8947    1.2835 C   0  0  0  0  0  0  0  0  0  0  0  0
  -10.2688    8.6929    2.1820 O   0  0  0  0  0  0  0  0  0  0  0  0
  -12.5583    6.7791    0.4638 C   0  0  0  0  0  0  0  0  0  0  0  0
  -12.5950    5.4927   -0.3660 C   0  0  0  0  0  0  0  0  0  0  0  0
  -12.5117    5.8405   -1.8508 C   0  0  0  0  0  0  0  0  0  0  0  0
  -11.3549    5.1244   -2.4548 N   0  3  0  0  0  0  0  0  0  0  0  0
  -10.6195    5.7124   -3.3583 C   0  0  0  0  0  0  0  0  0  0  0  0
   -9.3561    5.9479   -3.1151 N   0  0  0  0  0  0  0  0  0  0  0  0
  -11.1452    6.0575   -4.5051 N   0  0  0  0  0  0  0  0  0  0  0  0
  2  1  1  1  0  0  0
  2  3  1  0  0  0  0
  2  5  1  0  0  0  0
  3  4  2  0  0  0  0
  5  6  1  0  0  0  0
  6  7  1  0  0  0  0
  7  8  1  0  0  0  0
  8  9  2  0  0  0  0
  9 10  1  0  0  0  0
  9 11  1  0  0  0  0
M  CHG  2   1   1   8   1
M  END
>  <CHROM.1>
175.28887054,-0.62547540,-116.55344904,-124.44112955,123.84809097,-141.79518013
-11.28069135,6.46161303,-0.64697249,1.66365299,0.53227574,1.22642131

>  <Name>


>  <RI>
0

>  <Rbt.Current_Directory>
/home/itssahil/PROJECTS/Mol_Feturizer/New_Systems/rnas/1aju

>  <Rbt.Executable>
rbdock ($Id: //depot/dev/client3/rdock/2013.1/src/exe/rbdock.cxx#4 $)

>  <Rbt.Library>
libRbt.so (2013.1, Build901 2013/11/27)

>  <Rbt.Parameter_File>
/export/apps/rDock/src/rDock_2013.1_src/data/scripts/dock_solv.prm

>  <Rbt.Receptor>
prm/blind_docking_100.prm

>  <SCORE>
-21.5403

>  <SCORE.INTER>
-26.686

>  <SCORE.INTER.CONST>
1

>  <SCORE.INTER.POLAR>
-5.24208

>  <SCORE.INTER.ROT>
5

>  <SCORE.INTER.SOLV>
19.7956

>  <SCORE.INTER.VDW>
-13.8489

>  <SCORE.INTER.norm>
-2.426

>  <SCORE.INTRA>
4.9707

>  <SCORE.INTRA.DIHEDRAL>
9.64403

>  <SCORE.INTRA.DIHEDRAL.0>
9.90185

>  <SCORE.INTRA.POLAR>
0

>  <SCORE.INTRA.POLAR.0>
0

>  <SCORE.INTRA.REPUL>
0

>  <SCORE.INTRA.REPUL.0>
0

>  <SCORE.INTRA.SOLV>
1.30729

>  <SCORE.INTRA.SOLV.lig_0>
-53.6586

>  <SCORE.INTRA.VDW>
-0.504962

>  <SCORE.INTRA.VDW.0>
-0.556525

>  <SCORE.INTRA.norm>
0.451882

>  <SCORE.RESTR>
0.175073

>  <SCORE.RESTR.CAVITY>
0.175073

>  <SCORE.RESTR.norm>
0.0159157

>  <SCORE.SYSTEM>
0

>  <SCORE.SYSTEM.CONST>
0

>  <SCORE.SYSTEM.DIHEDRAL>
0

>  <SCORE.SYSTEM.SOLV>
0

>  <SCORE.SYSTEM.norm>
0

>  <SCORE.heavy>
11

>  <SCORE.norm>
-1.9582

>  <RMSD>
13.757

$$$$

 OpenBabel11021811383D
libRbt.so/2013.1/901 2013/11/27
 11 10  0  0  0  0  0  0  0  0999 V2000
  -10.3357    8.3140    0.9115 N   0  3  0  0  0  0  0  0  0  0  0  0
  -11.4124    7.7067    1.7503 C   0  0  2  0  0  0  0  0  0  0  0  0
  -11.4677    8.4129    3.1155 C   0  0  0  0  0  0  0  0  0  0  0  0
  -11.1315    7.8306    4.1295 O   0  0  0  0  0  0  0  0  0  0  0  0
  -11.1208    6.2129    1.9461 C   0  0  0  0  0  0  0  0  0  0  0  0
  -10.6435    5.6052    0.6241 C   0  0  0  0  0  0  0  0  0  0  0  0
  -11.8431    5.3662   -0.2904 C   0  0  0  0  0  0  0  0  0  0  0  0
  -11.3612    4.8528   -1.6019 N   0  3  0  0  0  0  0  0  0  0  0  0
  -11.3171    5.6438   -2.6388 C   0  0  0  0  0  0  0  0  0  0  0  0
  -10.1670    5.9188   -3.1977 N   0  0  0  0  0  0  0  0  0  0  0  0
  -12.4217    6.1526   -3.1199 N   0  0  0  0  0  0  0  0  0  0  0  0
  2  1  1  6  0  0  0
  2  3  1  0  0  0  0
  2  5  1  0  0  0  0
  3  4  2  0  0  0  0
  5  6  1  0  0  0  0
  6  7  1  0  0  0  0
  7  8  1  0  0  0  0
  8  9  2  0  0  0  0
  9 10  1  0  0  0  0
  9 11  1  0  0  0  0
M  CHG  2   1   1   8   1
M  END
>  <CHROM.1>
75.79349048,-111.07530725,-42.18268915,-77.94358212,176.61162685,-103.44981778
-11.17689562,6.56554577,0.11526922,-1.42614813,-1.33774862,-1.79654281

>  <Name>


>  <RI>
0

>  <Rbt.Current_Directory>
/home/itssahil/PROJECTS/Mol_Feturizer/New_Systems/rnas/1aju

>  <Rbt.Executable>
rbdock ($Id: //depot/dev/client3/rdock/2013.1/src/exe/rbdock.cxx#4 $)

>  <Rbt.Library>
libRbt.so (2013.1, Build901 2013/11/27)

>  <Rbt.Parameter_File>
/export/apps/rDock/src/rDock_2013.1_src/data/scripts/dock_solv.prm

>  <Rbt.Receptor>
prm/blind_docking_100.prm

>  <SCORE>
-28.8519

>  <SCORE.INTER>
-30.5799

>  <SCORE.INTER.CONST>
1

>  <SCORE.INTER.POLAR>
-5.65599

>  <SCORE.INTER.ROT>
5

>  <SCORE.INTER.SOLV>
25.1657

>  <SCORE.INTER.VDW>
-16.8552

>  <SCORE.INTER.norm>
-2.77999

>  <SCORE.INTRA>
1.72799

>  <SCORE.INTRA.DIHEDRAL>
-3.83938

>  <SCORE.INTRA.DIHEDRAL.0>
9.90185

>  <SCORE.INTRA.POLAR>
0

>  <SCORE.INTRA.POLAR.0>
0

>  <SCORE.INTRA.REPUL>
0.110601

>  <SCORE.INTRA.REPUL.0>
0

>  <SCORE.INTRA.SOLV>
2.77155

>  <SCORE.INTRA.SOLV.lig_0>
-53.6586

>  <SCORE.INTRA.VDW>
1.7089

>  <SCORE.INTRA.VDW.0>
-0.556525

>  <SCORE.INTRA.norm>
0.15709

>  <SCORE.RESTR>
0

>  <SCORE.RESTR.CAVITY>
0

>  <SCORE.RESTR.norm>
0

>  <SCORE.SYSTEM>
0

>  <SCORE.SYSTEM.CONST>
0

>  <SCORE.SYSTEM.DIHEDRAL>
0

>  <SCORE.SYSTEM.SOLV>
0

>  <SCORE.SYSTEM.norm>
0

>  <SCORE.heavy>
11

>  <SCORE.norm>
-2.6229

>  <RMSD>
13.768

$$$$

 OpenBabel11021811383D
libRbt.so/2013.1/901 2013/11/27
 11 10  0  0  0  0  0  0  0  0999 V2000
  -10.1611    8.5698    1.3520 N   0  3  0  0  0  0  0  0  0  0  0  0
  -11.2012    7.5699    0.9649 C   0  0  2  0  0  0  0  0  0  0  0  0
  -12.4295    7.7179    1.8788 C   0  0  0  0  0  0  0  0  0  0  0  0
  -12.5269    8.6626    2.6392 O   0  0  0  0  0  0  0  0  0  0  0  0
  -10.6193    6.1560    1.0965 C   0  0  0  0  0  0  0  0  0  0  0  0
  -11.6171    5.1362    0.5404 C   0  0  0  0  0  0  0  0  0  0  0  0
  -12.0253    5.5407   -0.8746 C   0  0  0  0  0  0  0  0  0  0  0  0
  -11.1172    4.8796   -1.8514 N   0  3  0  0  0  0  0  0  0  0  0  0
  -10.4945    5.5899   -2.7516 C   0  0  0  0  0  0  0  0  0  0  0  0
   -9.1877    5.6440   -2.7466 N   0  0  0  0  0  0  0  0  0  0  0  0
  -11.1773    6.2386   -3.6591 N   0  0  0  0  0  0  0  0  0  0  0  0
  2  1  1  1  0  0  0
  2  3  1  0  0  0  0
  2  5  1  0  0  0  0
  3  4  2  0  0  0  0
  5  6  1  0  0  0  0
  6  7  1  0  0  0  0
  7  8  1  0  0  0  0
  8  9  2  0  0  0  0
  9 10  1  0  0  0  0
  9 11  1  0  0  0  0
M  CHG  2   1   1   8   1
M  END
>  <CHROM.1>
-74.33792850,9.66233673,-173.12260005,52.79128882,91.75247066,-126.97187581
-11.10741309,6.55814992,-0.31773735,-1.87339954,-0.77205437,-2.26979747

>  <Name>


>  <RI>
0

>  <Rbt.Current_Directory>
/home/itssahil/PROJECTS/Mol_Feturizer/New_Systems/rnas/1aju

>  <Rbt.Executable>
rbdock ($Id: //depot/dev/client3/rdock/2013.1/src/exe/rbdock.cxx#4 $)

>  <Rbt.Library>
libRbt.so (2013.1, Build901 2013/11/27)

>  <Rbt.Parameter_File>
/export/apps/rDock/src/rDock_2013.1_src/data/scripts/dock_solv.prm

>  <Rbt.Receptor>
prm/blind_docking_100.prm

>  <SCORE>
-32.0566

>  <SCORE.INTER>
-32.7666

>  <SCORE.INTER.CONST>
1

>  <SCORE.INTER.POLAR>
-6.42098

>  <SCORE.INTER.ROT>
5

>  <SCORE.INTER.SOLV>
29.3368

>  <SCORE.INTER.VDW>
-17.1534

>  <SCORE.INTER.norm>
-2.97878

>  <SCORE.INTRA>
0.610348

>  <SCORE.INTRA.DIHEDRAL>
-2.91996

>  <SCORE.INTRA.DIHEDRAL.0>
9.90185

>  <SCORE.INTRA.POLAR>
0

>  <SCORE.INTRA.POLAR.0>
0

>  <SCORE.INTRA.REPUL>
0

>  <SCORE.INTRA.REPUL.0>
0

>  <SCORE.INTRA.SOLV>
1.44445

>  <SCORE.INTRA.SOLV.lig_0>
-53.6586

>  <SCORE.INTRA.VDW>
1.3481

>  <SCORE.INTRA.VDW.0>
-0.556525

>  <SCORE.INTRA.norm>
0.0554862

>  <SCORE.RESTR>
0.0996511

>  <SCORE.RESTR.CAVITY>
0.0996511

>  <SCORE.RESTR.norm>
0.00905919

>  <SCORE.SYSTEM>
0

>  <SCORE.SYSTEM.CONST>
0

>  <SCORE.SYSTEM.DIHEDRAL>
0

>  <SCORE.SYSTEM.SOLV>
0

>  <SCORE.SYSTEM.norm>
0

>  <SCORE.heavy>
11

>  <SCORE.norm>
-2.91424

>  <RMSD>
13.769

$$$$

 OpenBabel11021811383D
libRbt.so/2013.1/901 2013/11/27
 11 10  0  0  0  0  0  0  0  0999 V2000
  -10.3752    8.3434    0.7937 N   0  3  0  0  0  0  0  0  0  0  0  0
  -11.2819    7.7432    1.8180 C   0  0  2  0  0  0  0  0  0  0  0  0
  -11.0594    8.4312    3.1755 C   0  0  0  0  0  0  0  0  0  0  0  0
  -10.1562    9.2327    3.3243 O   0  0  0  0  0  0  0  0  0  0  0  0
  -10.9876    6.2420    1.9385 C   0  0  0  0  0  0  0  0  0  0  0  0
  -10.5457    5.6945    0.5784 C   0  0  0  0  0  0  0  0  0  0  0  0
  -11.7708    5.4794   -0.3077 C   0  0  0  0  0  0  0  0  0  0  0  0
  -11.3338    4.9178   -1.6152 N   0  3  0  0  0  0  0  0  0  0  0  0
  -11.3246    5.6703   -2.6812 C   0  0  0  0  0  0  0  0  0  0  0  0
  -10.1940    5.9230   -3.2884 N   0  0  0  0  0  0  0  0  0  0  0  0
  -12.4448    6.1629   -3.1429 N   0  0  0  0  0  0  0  0  0  0  0  0
  2  1  1  6  0  0  0
  2  3  1  0  0  0  0
  2  5  1  0  0  0  0
  3  4  2  0  0  0  0
  5  6  1  0  0  0  0
  6  7  1  0  0  0  0
  7  8  1  0  0  0  0
  8  9  2  0  0  0  0
  9 10  1  0  0  0  0
  9 11  1  0  0  0  0
M  CHG  2   1   1   8   1
M  END
>  <CHROM.1>
-166.10291174,-6.99856308,-32.32824711,-78.71345764,-178.70242420,-105.82252635
-11.01729973,6.74268611,0.00995402,-1.11281243,-1.29879255,-1.59649761

>  <Name>


>  <RI>
224

>  <Rbt.Current_Directory>
/home/itssahil/PROJECTS/Mol_Feturizer/New_Systems/rnas/1aju

>  <Rbt.Executable>
rbdock ($Id: //depot/dev/client3/rdock/2013.1/src/exe/rbdock.cxx#4 $)

>  <Rbt.Library>
libRbt.so (2013.1, Build901 2013/11/27)

>  <Rbt.Parameter_File>
/export/apps/rDock/src/rDock_2013.1_src/data/scripts/dock_solv.prm

>  <Rbt.Receptor>
prm/blind_docking_20.prm

>  <SCORE>
-34.6899

>  <SCORE.INTER>
-37.8105

>  <SCORE.INTER.CONST>
1

>  <SCORE.INTER.POLAR>
-6.93718

>  <SCORE.INTER.ROT>
5

>  <SCORE.INTER.SOLV>
25.6035

>  <SCORE.INTER.VDW>
-17.5509

>  <SCORE.INTER.norm>
-3.43731

>  <SCORE.INTRA>
3.1187

>  <SCORE.INTRA.DIHEDRAL>
-2.75351

>  <SCORE.INTRA.DIHEDRAL.0>
9.90185

>  <SCORE.INTRA.POLAR>
0

>  <SCORE.INTRA.POLAR.0>
0

>  <SCORE.INTRA.REPUL>
0.163772

>  <SCORE.INTRA.REPUL.0>
0

>  <SCORE.INTRA.SOLV>
3.92992

>  <SCORE.INTRA.SOLV.lig_0>
-53.6586

>  <SCORE.INTRA.VDW>
1.71164

>  <SCORE.INTRA.VDW.0>
-0.556525

>  <SCORE.INTRA.norm>
0.283519

>  <SCORE.RESTR>
0.00186331

>  <SCORE.RESTR.CAVITY>
0.00186331

>  <SCORE.RESTR.norm>
0.000169392

>  <SCORE.SYSTEM>
0

>  <SCORE.SYSTEM.CONST>
0

>  <SCORE.SYSTEM.DIHEDRAL>
0

>  <SCORE.SYSTEM.SOLV>
0

>  <SCORE.SYSTEM.norm>
0

>  <SCORE.heavy>
11

>  <SCORE.norm>
-3.15363

>  <RMSD>
13.781

$$$$

 OpenBabel11021811383D
libRbt.so/2013.1/901 2013/11/27
 11 10  0  0  0  0  0  0  0  0999 V2000
  -11.9721    6.2665    3.3921 N   0  3  0  0  0  0  0  0  0  0  0  0
  -11.2450    7.1844    2.4644 C   0  0  2  0  0  0  0  0  0  0  0  0
  -11.3462    8.6302    2.9793 C   0  0  0  0  0  0  0  0  0  0  0  0
  -10.3634    9.3465    3.0146 O   0  0  0  0  0  0  0  0  0  0  0  0
  -11.8637    7.0841    1.0637 C   0  0  0  0  0  0  0  0  0  0  0  0
  -11.0925    6.0536    0.2341 C   0  0  0  0  0  0  0  0  0  0  0  0
  -11.8999    5.6933   -1.0112 C   0  0  0  0  0  0  0  0  0  0  0  0
  -11.0165    4.9826   -1.9757 N   0  3  0  0  0  0  0  0  0  0  0  0
  -10.3985    5.6491   -2.9120 C   0  0  0  0  0  0  0  0  0  0  0  0
   -9.0912    5.6849   -2.9291 N   0  0  0  0  0  0  0  0  0  0  0  0
  -11.0868    6.2724   -3.8331 N   0  0  0  0  0  0  0  0  0  0  0  0
  2  1  1  1  0  0  0
  2  3  1  0  0  0  0
  2  5  1  0  0  0  0
  3  4  2  0  0  0  0
  5  6  1  0  0  0  0
  6  7  1  0  0  0  0
  7  8  1  0  0  0  0
  8  9  2  0  0  0  0
  9 10  1  0  0  0  0
  9 11  1  0  0  0  0
M  CHG  2   1   1   8   1
M  END
>  <CHROM.1>
37.46377778,134.22379709,-93.69360705,165.79316074,165.40363884,-93.50070435
-11.02395958,6.61227936,0.04935179,1.78583079,0.93406660,1.04165018

>  <Name>


>  <RI>
0

>  <Rbt.Current_Directory>
/home/itssahil/PROJECTS/Mol_Feturizer/New_Systems/rnas/1aju

>  <Rbt.Executable>
rbdock ($Id: //depot/dev/client3/rdock/2013.1/src/exe/rbdock.cxx#4 $)

>  <Rbt.Library>
libRbt.so (2013.1, Build901 2013/11/27)

>  <Rbt.Parameter_File>
/export/apps/rDock/src/rDock_2013.1_src/data/scripts/dock_solv.prm

>  <Rbt.Receptor>
prm/blind_docking_40.prm

>  <SCORE>
-28.2018

>  <SCORE.INTER>
-28.2082

>  <SCORE.INTER.CONST>
1

>  <SCORE.INTER.POLAR>
-5.66554

>  <SCORE.INTER.ROT>
5

>  <SCORE.INTER.SOLV>
21.697

>  <SCORE.INTER.VDW>
-14.086

>  <SCORE.INTER.norm>
-2.56438

>  <SCORE.INTRA>
-0.437446

>  <SCORE.INTRA.DIHEDRAL>
-0.792855

>  <SCORE.INTRA.DIHEDRAL.0>
9.90185

>  <SCORE.INTRA.POLAR>
0

>  <SCORE.INTRA.POLAR.0>
0

>  <SCORE.INTRA.REPUL>
0

>  <SCORE.INTRA.REPUL.0>
0

>  <SCORE.INTRA.SOLV>
0.701399

>  <SCORE.INTRA.SOLV.lig_0>
-53.6586

>  <SCORE.INTRA.VDW>
-0.391719

>  <SCORE.INTRA.VDW.0>
-0.556525

>  <SCORE.INTRA.norm>
-0.0397678

>  <SCORE.RESTR>
0.44385

>  <SCORE.RESTR.CAVITY>
0.44385

>  <SCORE.RESTR.norm>
0.04035

>  <SCORE.SYSTEM>
0

>  <SCORE.SYSTEM.CONST>
0

>  <SCORE.SYSTEM.DIHEDRAL>
0

>  <SCORE.SYSTEM.SOLV>
0

>  <SCORE.SYSTEM.norm>
0

>  <SCORE.heavy>
11

>  <SCORE.norm>
-2.5638

>  <RMSD>
13.787

$$$$

 OpenBabel11021811383D
libRbt.so/2013.1/901 2013/11/27
 11 10  0  0  0  0  0  0  0  0999 V2000
  -10.2536    8.3224    1.6614 N   0  3  0  0  0  0  0  0  0  0  0  0
  -11.4938    7.5077    1.8339 C   0  0  2  0  0  0  0  0  0  0  0  0
  -11.6104    7.0423    3.2952 C   0  0  0  0  0  0  0  0  0  0  0  0
  -12.5582    7.3785    3.9799 O   0  0  0  0  0  0  0  0  0  0  0  0
  -11.4349    6.2907    0.9010 C   0  0  0  0  0  0  0  0  0  0  0  0
  -12.4621    6.4549   -0.2228 C   0  0  0  0  0  0  0  0  0  0  0  0
  -12.6827    5.1105   -0.9131 C   0  0  0  0  0  0  0  0  0  0  0  0
  -11.3909    4.6366   -1.4810 N   0  3  0  0  0  0  0  0  0  0  0  0
  -10.6471    5.4474   -2.1825 C   0  0  0  0  0  0  0  0  0  0  0  0
   -9.4537    5.7687   -1.7542 N   0  0  0  0  0  0  0  0  0  0  0  0
  -11.0932    5.9298   -3.3134 N   0  0  0  0  0  0  0  0  0  0  0  0
  2  1  1  1  0  0  0
  2  3  1  0  0  0  0
  2  5  1  0  0  0  0
  3  4  2  0  0  0  0
  5  6  1  0  0  0  0
  6  7  1  0  0  0  0
  7  8  1  0  0  0  0
  8  9  2  0  0  0  0
  9 10  1  0  0  0  0
  9 11  1  0  0  0  0
M  CHG  2   1   1   8   1
M  END
>  <CHROM.1>
-17.23241867,118.70178591,-109.91537422,-164.40503191,-59.97869503,-47.63896143
-11.33331370,6.38137396,0.15792605,-1.73392958,-0.52848817,-2.01918120

>  <Name>


>  <RI>
224

>  <Rbt.Current_Directory>
/home/itssahil/PROJECTS/Mol_Feturizer/New_Systems/rnas/1aju

>  <Rbt.Executable>
rbdock ($Id: //depot/dev/client3/rdock/2013.1/src/exe/rbdock.cxx#4 $)

>  <Rbt.Library>
libRbt.so (2013.1, Build901 2013/11/27)

>  <Rbt.Parameter_File>
/export/apps/rDock/src/rDock_2013.1_src/data/scripts/dock_solv.prm

>  <Rbt.Receptor>
prm/blind_docking_20.prm

>  <SCORE>
-15.637

>  <SCORE.INTER>
-18.2176

>  <SCORE.INTER.CONST>
1

>  <SCORE.INTER.POLAR>
-4.30246

>  <SCORE.INTER.ROT>
5

>  <SCORE.INTER.SOLV>
25.0093

>  <SCORE.INTER.VDW>
-13.0733

>  <SCORE.INTER.norm>
-1.65614

>  <SCORE.INTRA>
2.58052

>  <SCORE.INTRA.DIHEDRAL>
1.68132

>  <SCORE.INTRA.DIHEDRAL.0>
9.90185

>  <SCORE.INTRA.POLAR>
0

>  <SCORE.INTRA.POLAR.0>
0

>  <SCORE.INTRA.REPUL>
0

>  <SCORE.INTRA.REPUL.0>
0

>  <SCORE.INTRA.SOLV>
1.97621

>  <SCORE.INTRA.SOLV.lig_0>
-53.6586

>  <SCORE.INTRA.VDW>
0.75176

>  <SCORE.INTRA.VDW.0>
-0.556525

>  <SCORE.INTRA.norm>
0.234593

>  <SCORE.RESTR>
0

>  <SCORE.RESTR.CAVITY>
0

>  <SCORE.RESTR.norm>
0

>  <SCORE.SYSTEM>
0

>  <SCORE.SYSTEM.CONST>
0

>  <SCORE.SYSTEM.DIHEDRAL>
0

>  <SCORE.SYSTEM.SOLV>
0

>  <SCORE.SYSTEM.norm>
0

>  <SCORE.heavy>
11

>  <SCORE.norm>
-1.42155

>  <RMSD>
13.792

$$$$

 OpenBabel11021811383D
libRbt.so/2013.1/901 2013/11/27
 11 10  0  0  0  0  0  0  0  0999 V2000
  -10.2935    8.3510    0.7795 N   0  3  0  0  0  0  0  0  0  0  0  0
  -11.2524    8.0549    1.8860 C   0  0  2  0  0  0  0  0  0  0  0  0
  -10.6465    8.4941    3.2298 C   0  0  0  0  0  0  0  0  0  0  0  0
  -11.2951    9.1597    4.0150 O   0  0  0  0  0  0  0  0  0  0  0  0
  -11.5465    6.5490    1.9128 C   0  0  0  0  0  0  0  0  0  0  0  0
  -10.7685    5.8538    0.7920 C   0  0  0  0  0  0  0  0  0  0  0  0
  -11.6581    5.7245   -0.4427 C   0  0  0  0  0  0  0  0  0  0  0  0
  -10.9181    4.9840   -1.5010 N   0  3  0  0  0  0  0  0  0  0  0  0
  -10.4375    5.6220   -2.5328 C   0  0  0  0  0  0  0  0  0  0  0  0
   -9.1454    5.6526   -2.7337 N   0  0  0  0  0  0  0  0  0  0  0  0
  -11.2481    6.2218   -3.3658 N   0  0  0  0  0  0  0  0  0  0  0  0
  2  1  1  6  0  0  0
  2  3  1  0  0  0  0
  2  5  1  0  0  0  0
  3  4  2  0  0  0  0
  5  6  1  0  0  0  0
  6  7  1  0  0  0  0
  7  8  1  0  0  0  0
  8  9  2  0  0  0  0
  9 10  1  0  0  0  0
  9 11  1  0  0  0  0
M  CHG  2   1   1   8   1
M  END
>  <CHROM.1>
59.76592669,131.79925933,-0.41089517,-94.42213171,-177.02654187,-105.54847706
-10.81345309,6.80826534,0.14770041,-1.75095401,-1.02127692,-2.19336605

>  <Name>


>  <RI>
0

>  <Rbt.Current_Directory>
/home/itssahil/PROJECTS/Mol_Feturizer/New_Systems/rnas/1aju

>  <Rbt.Executable>
rbdock ($Id: //depot/dev/client3/rdock/2013.1/src/exe/rbdock.cxx#4 $)

>  <Rbt.Library>
libRbt.so (2013.1, Build901 2013/11/27)

>  <Rbt.Parameter_File>
/export/apps/rDock/src/rDock_2013.1_src/data/scripts/dock_solv.prm

>  <Rbt.Receptor>
prm/blind_docking_60.prm

>  <SCORE>
-30.5529

>  <SCORE.INTER>
-38.294

>  <SCORE.INTER.CONST>
1

>  <SCORE.INTER.POLAR>
-6.77549

>  <SCORE.INTER.ROT>
5

>  <SCORE.INTER.SOLV>
28.5762

>  <SCORE.INTER.VDW>
-19.4031

>  <SCORE.INTER.norm>
-3.48128

>  <SCORE.INTRA>
7.74117

>  <SCORE.INTRA.DIHEDRAL>
2.26726

>  <SCORE.INTRA.DIHEDRAL.0>
9.90185

>  <SCORE.INTRA.POLAR>
0

>  <SCORE.INTRA.POLAR.0>
0

>  <SCORE.INTRA.REPUL>
0.173028

>  <SCORE.INTRA.REPUL.0>
0

>  <SCORE.INTRA.SOLV>
3.4537

>  <SCORE.INTRA.SOLV.lig_0>
-53.6586

>  <SCORE.INTRA.VDW>
4.01555

>  <SCORE.INTRA.VDW.0>
-0.556525

>  <SCORE.INTRA.norm>
0.703743

>  <SCORE.RESTR>
0

>  <SCORE.RESTR.CAVITY>
0

>  <SCORE.RESTR.norm>
0

>  <SCORE.SYSTEM>
0

>  <SCORE.SYSTEM.CONST>
0

>  <SCORE.SYSTEM.DIHEDRAL>
0

>  <SCORE.SYSTEM.SOLV>
0

>  <SCORE.SYSTEM.norm>
0

>  <SCORE.heavy>
11

>  <SCORE.norm>
-2.77753

>  <RMSD>
13.799

$$$$

 OpenBabel11021811383D
libRbt.so/2013.1/901 2013/11/27
 11 10  0  0  0  0  0  0  0  0999 V2000
  -10.2442    8.3419    0.7859 N   0  3  0  0  0  0  0  0  0  0  0  0
  -11.2901    7.8673    1.7412 C   0  0  2  0  0  0  0  0  0  0  0  0
  -11.1586    8.6247    3.0734 C   0  0  0  0  0  0  0  0  0  0  0  0
  -10.2758    9.4460    3.2358 O   0  0  0  0  0  0  0  0  0  0  0  0
  -11.1155    6.3611    1.9770 C   0  0  0  0  0  0  0  0  0  0  0  0
  -10.5898    5.6989    0.7003 C   0  0  0  0  0  0  0  0  0  0  0  0
  -11.7397    5.5083   -0.2866 C   0  0  0  0  0  0  0  0  0  0  0  0
  -11.2072    4.9246   -1.5482 N   0  3  0  0  0  0  0  0  0  0  0  0
  -11.0428    5.6784   -2.6006 C   0  0  0  0  0  0  0  0  0  0  0  0
   -9.8427    5.8619   -3.0873 N   0  0  0  0  0  0  0  0  0  0  0  0
  -12.0774    6.2416   -3.1690 N   0  0  0  0  0  0  0  0  0  0  0  0
  2  1  1  6  0  0  0
  2  3  1  0  0  0  0
  2  5  1  0  0  0  0
  3  4  2  0  0  0  0
  5  6  1  0  0  0  0
  6  7  1  0  0  0  0
  7  8  1  0  0  0  0
  8  9  2  0  0  0  0
  9 10  1  0  0  0  0
  9 11  1  0  0  0  0
M  CHG  2   1   1   8   1
M  END
>  <CHROM.1>
-167.76949827,-1.72233916,-32.85023824,-78.66391205,177.30579733,-103.43392675
-10.93050044,6.80534039,0.03195172,-1.38147946,-1.24094571,-1.89599825

>  <Name>


>  <RI>
0

>  <Rbt.Current_Directory>
/home/itssahil/PROJECTS/Mol_Feturizer/New_Systems/rnas/1aju

>  <Rbt.Executable>
rbdock ($Id: //depot/dev/client3/rdock/2013.1/src/exe/rbdock.cxx#4 $)

>  <Rbt.Library>
libRbt.so (2013.1, Build901 2013/11/27)

>  <Rbt.Parameter_File>
/export/apps/rDock/src/rDock_2013.1_src/data/scripts/dock_solv.prm

>  <Rbt.Receptor>
prm/blind_docking_100.prm

>  <SCORE>
-33.9982

>  <SCORE.INTER>
-37.6289

>  <SCORE.INTER.CONST>
1

>  <SCORE.INTER.POLAR>
-6.76479

>  <SCORE.INTER.ROT>
5

>  <SCORE.INTER.SOLV>
26.88

>  <SCORE.INTER.VDW>
-18.4299

>  <SCORE.INTER.norm>
-3.42081

>  <SCORE.INTRA>
3.51922

>  <SCORE.INTRA.DIHEDRAL>
-2.98574

>  <SCORE.INTRA.DIHEDRAL.0>
9.90185

>  <SCORE.INTRA.POLAR>
0

>  <SCORE.INTRA.POLAR.0>
0

>  <SCORE.INTRA.REPUL>
0.25724

>  <SCORE.INTRA.REPUL.0>
0

>  <SCORE.INTRA.SOLV>
4.11936

>  <SCORE.INTRA.SOLV.lig_0>
-53.6586

>  <SCORE.INTRA.VDW>
1.66621

>  <SCORE.INTRA.VDW.0>
-0.556525

>  <SCORE.INTRA.norm>
0.319929

>  <SCORE.RESTR>
0.111432

>  <SCORE.RESTR.CAVITY>
0.111432

>  <SCORE.RESTR.norm>
0.0101301

>  <SCORE.SYSTEM>
0

>  <SCORE.SYSTEM.CONST>
0

>  <SCORE.SYSTEM.DIHEDRAL>
0

>  <SCORE.SYSTEM.SOLV>
0

>  <SCORE.SYSTEM.norm>
0

>  <SCORE.heavy>
11

>  <SCORE.norm>
-3.09075

>  <RMSD>
13.807

$$$$

 OpenBabel11021811383D
libRbt.so/2013.1/901 2013/11/27
 11 10  0  0  0  0  0  0  0  0999 V2000
  -10.3265    8.3546    0.9453 N   0  3  0  0  0  0  0  0  0  0  0  0
  -11.4211    7.8316    1.8170 C   0  0  2  0  0  0  0  0  0  0  0  0
  -11.3520    8.5053    3.1980 C   0  0  0  0  0  0  0  0  0  0  0  0
  -12.3629    8.6913    3.8490 O   0  0  0  0  0  0  0  0  0  0  0  0
  -11.2665    6.3124    1.9685 C   0  0  0  0  0  0  0  0  0  0  0  0
  -10.5462    5.7446    0.7423 C   0  0  0  0  0  0  0  0  0  0  0  0
  -11.5390    5.5938   -0.4085 C   0  0  0  0  0  0  0  0  0  0  0  0
  -10.8659    4.9090   -1.5460 N   0  3  0  0  0  0  0  0  0  0  0  0
  -10.4194    5.6029   -2.5568 C   0  0  0  0  0  0  0  0  0  0  0  0
   -9.1376    5.6210   -2.8168 N   0  0  0  0  0  0  0  0  0  0  0  0
  -11.2539    6.2712   -3.3101 N   0  0  0  0  0  0  0  0  0  0  0  0
  2  1  1  6  0  0  0
  2  3  1  0  0  0  0
  2  5  1  0  0  0  0
  3  4  2  0  0  0  0
  5  6  1  0  0  0  0
  6  7  1  0  0  0  0
  7  8  1  0  0  0  0
  8  9  2  0  0  0  0
  9 10  1  0  0  0  0
  9 11  1  0  0  0  0
M  CHG  2   1   1   8   1
M  END
>  <CHROM.1>
-166.85547533,149.17867704,-26.90063632,-79.99920628,-174.05130351,-100.17829272
-10.93348809,6.69747305,0.13600812,-2.15854687,-1.20663370,-2.56971598

>  <Name>


>  <RI>
0

>  <Rbt.Current_Directory>
/home/itssahil/PROJECTS/Mol_Feturizer/New_Systems/rnas/1aju

>  <Rbt.Executable>
rbdock ($Id: //depot/dev/client3/rdock/2013.1/src/exe/rbdock.cxx#4 $)

>  <Rbt.Library>
libRbt.so (2013.1, Build901 2013/11/27)

>  <Rbt.Parameter_File>
/export/apps/rDock/src/rDock_2013.1_src/data/scripts/dock_solv.prm

>  <Rbt.Receptor>
prm/blind_docking_60.prm

>  <SCORE>
-32.7312

>  <SCORE.INTER>
-36.8932

>  <SCORE.INTER.CONST>
1

>  <SCORE.INTER.POLAR>
-6.71729

>  <SCORE.INTER.ROT>
5

>  <SCORE.INTER.SOLV>
28.3667

>  <SCORE.INTER.VDW>
-18.5934

>  <SCORE.INTER.norm>
-3.35393

>  <SCORE.INTRA>
4.16203

>  <SCORE.INTRA.DIHEDRAL>
-0.528954

>  <SCORE.INTRA.DIHEDRAL.0>
9.90185

>  <SCORE.INTRA.POLAR>
0

>  <SCORE.INTRA.POLAR.0>
0

>  <SCORE.INTRA.REPUL>
0.162156

>  <SCORE.INTRA.REPUL.0>
0

>  <SCORE.INTRA.SOLV>
2.92591

>  <SCORE.INTRA.SOLV.lig_0>
-53.6586

>  <SCORE.INTRA.VDW>
2.15277

>  <SCORE.INTRA.VDW.0>
-0.556525

>  <SCORE.INTRA.norm>
0.378366

>  <SCORE.RESTR>
0

>  <SCORE.RESTR.CAVITY>
0

>  <SCORE.RESTR.norm>
0

>  <SCORE.SYSTEM>
0

>  <SCORE.SYSTEM.CONST>
0

>  <SCORE.SYSTEM.DIHEDRAL>
0

>  <SCORE.SYSTEM.SOLV>
0

>  <SCORE.SYSTEM.norm>
0

>  <SCORE.heavy>
11

>  <SCORE.norm>
-2.97556

>  <RMSD>
13.807

$$$$

 OpenBabel11021811383D
libRbt.so/2013.1/901 2013/11/27
 11 10  0  0  0  0  0  0  0  0999 V2000
  -10.2265    8.4536    1.3046 N   0  3  0  0  0  0  0  0  0  0  0  0
  -11.3267    7.6019    0.7608 C   0  0  2  0  0  0  0  0  0  0  0  0
  -12.6241    7.8674    1.5432 C   0  0  0  0  0  0  0  0  0  0  0  0
  -12.6332    8.6343    2.4877 O   0  0  0  0  0  0  0  0  0  0  0  0
  -10.9336    6.1239    0.8872 C   0  0  0  0  0  0  0  0  0  0  0  0
   -9.8458    5.7923   -0.1384 C   0  0  0  0  0  0  0  0  0  0  0  0
  -10.4627    5.0274   -1.3075 C   0  0  0  0  0  0  0  0  0  0  0  0
  -11.2170    5.9790   -2.1685 N   0  3  0  0  0  0  0  0  0  0  0  0
  -11.1821    5.8564   -3.4672 C   0  0  0  0  0  0  0  0  0  0  0  0
  -12.2818    5.5939   -4.1248 N   0  0  0  0  0  0  0  0  0  0  0  0
  -10.0509    6.0031   -4.1071 N   0  0  0  0  0  0  0  0  0  0  0  0
  2  1  1  1  0  0  0
  2  3  1  0  0  0  0
  2  5  1  0  0  0  0
  3  4  2  0  0  0  0
  5  6  1  0  0  0  0
  6  7  1  0  0  0  0
  7  8  1  0  0  0  0
  8  9  2  0  0  0  0
  9 10  1  0  0  0  0
  9 11  1  0  0  0  0
M  CHG  2   1   1   8   1
M  END
>  <CHROM.1>
-66.29247036,-2.88057815,-72.54290284,-103.26742003,75.67654606,140.85322238
-11.15115208,6.66800862,-0.76222309,-1.68692744,0.39842595,-1.94470287

>  <Name>


>  <RI>
0

>  <Rbt.Current_Directory>
/home/itssahil/PROJECTS/Mol_Feturizer/New_Systems/rnas/1aju

>  <Rbt.Executable>
rbdock ($Id: //depot/dev/client3/rdock/2013.1/src/exe/rbdock.cxx#4 $)

>  <Rbt.Library>
libRbt.so (2013.1, Build901 2013/11/27)

>  <Rbt.Parameter_File>
/export/apps/rDock/src/rDock_2013.1_src/data/scripts/dock_solv.prm

>  <Rbt.Receptor>
prm/blind_docking_100.prm

>  <SCORE>
-25.2571

>  <SCORE.INTER>
-26.3626

>  <SCORE.INTER.CONST>
1

>  <SCORE.INTER.POLAR>
-5.04489

>  <SCORE.INTER.ROT>
5

>  <SCORE.INTER.SOLV>
25.0538

>  <SCORE.INTER.VDW>
-16.0434

>  <SCORE.INTER.norm>
-2.3966

>  <SCORE.INTRA>
1.05132

>  <SCORE.INTRA.DIHEDRAL>
-0.369904

>  <SCORE.INTRA.DIHEDRAL.0>
9.90185

>  <SCORE.INTRA.POLAR>
0

>  <SCORE.INTRA.POLAR.0>
0

>  <SCORE.INTRA.REPUL>
0

>  <SCORE.INTRA.REPUL.0>
0

>  <SCORE.INTRA.SOLV>
3.02794

>  <SCORE.INTRA.SOLV.lig_0>
-53.6586

>  <SCORE.INTRA.VDW>
-0.277699

>  <SCORE.INTRA.VDW.0>
-0.556525

>  <SCORE.INTRA.norm>
0.0955746

>  <SCORE.RESTR>
0.0541513

>  <SCORE.RESTR.CAVITY>
0.0541513

>  <SCORE.RESTR.norm>
0.00492285

>  <SCORE.SYSTEM>
0

>  <SCORE.SYSTEM.CONST>
0

>  <SCORE.SYSTEM.DIHEDRAL>
0

>  <SCORE.SYSTEM.SOLV>
0

>  <SCORE.SYSTEM.norm>
0

>  <SCORE.heavy>
11

>  <SCORE.norm>
-2.2961

>  <RMSD>
13.808

$$$$

 OpenBabel11021811383D
libRbt.so/2013.1/901 2013/11/27
 11 10  0  0  0  0  0  0  0  0999 V2000
  -10.2168    8.3782    1.6085 N   0  3  0  0  0  0  0  0  0  0  0  0
  -11.4692    7.5746    1.4762 C   0  0  2  0  0  0  0  0  0  0  0  0
  -12.4434    7.9413    2.6085 C   0  0  0  0  0  0  0  0  0  0  0  0
  -12.1237    8.7413    3.4676 O   0  0  0  0  0  0  0  0  0  0  0  0
  -11.1234    6.0813    1.5475 C   0  0  0  0  0  0  0  0  0  0  0  0
  -12.3747    5.2497    1.2516 C   0  0  0  0  0  0  0  0  0  0  0  0
  -11.9642    3.8328    0.8559 C   0  0  0  0  0  0  0  0  0  0  0  0
  -11.5298    3.8312   -0.5679 N   0  3  0  0  0  0  0  0  0  0  0  0
  -11.1240    4.9366   -1.1303 C   0  0  0  0  0  0  0  0  0  0  0  0
   -9.8922    5.0330   -1.5594 N   0  0  0  0  0  0  0  0  0  0  0  0
  -11.9507    5.9406   -1.2694 N   0  0  0  0  0  0  0  0  0  0  0  0
  2  1  1  1  0  0  0
  2  3  1  0  0  0  0
  2  5  1  0  0  0  0
  3  4  2  0  0  0  0
  5  6  1  0  0  0  0
  6  7  1  0  0  0  0
  7  8  1  0  0  0  0
  8  9  2  0  0  0  0
  9 10  1  0  0  0  0
  9 11  1  0  0  0  0
M  CHG  2   1   1   8   1
M  END
>  <CHROM.1>
161.60010541,-2.65522205,-173.50983613,160.94133594,-79.48855874,22.52142157
-11.43579314,6.18182844,0.74286196,-1.71879786,-0.87281845,-2.50470557

>  <Name>


>  <RI>
0

>  <Rbt.Current_Directory>
/home/itssahil/PROJECTS/Mol_Feturizer/New_Systems/rnas/1aju

>  <Rbt.Executable>
rbdock ($Id: //depot/dev/client3/rdock/2013.1/src/exe/rbdock.cxx#4 $)

>  <Rbt.Library>
libRbt.so (2013.1, Build901 2013/11/27)

>  <Rbt.Parameter_File>
/export/apps/rDock/src/rDock_2013.1_src/data/scripts/dock_solv.prm

>  <Rbt.Receptor>
prm/blind_docking_60.prm

>  <SCORE>
-15.0761

>  <SCORE.INTER>
-20.4388

>  <SCORE.INTER.CONST>
1

>  <SCORE.INTER.POLAR>
-4.56648

>  <SCORE.INTER.ROT>
5

>  <SCORE.INTER.SOLV>
23.9129

>  <SCORE.INTER.VDW>
-13.3085

>  <SCORE.INTER.norm>
-1.85807

>  <SCORE.INTRA>
5.36264

>  <SCORE.INTRA.DIHEDRAL>
-3.25863

>  <SCORE.INTRA.DIHEDRAL.0>
9.90185

>  <SCORE.INTRA.POLAR>
0

>  <SCORE.INTRA.POLAR.0>
0

>  <SCORE.INTRA.REPUL>
0

>  <SCORE.INTRA.REPUL.0>
0

>  <SCORE.INTRA.SOLV>
3.605

>  <SCORE.INTRA.SOLV.lig_0>
-53.6586

>  <SCORE.INTRA.VDW>
5.18945

>  <SCORE.INTRA.VDW.0>
-0.556525

>  <SCORE.INTRA.norm>
0.487512

>  <SCORE.RESTR>
0

>  <SCORE.RESTR.CAVITY>
0

>  <SCORE.RESTR.norm>
0

>  <SCORE.SYSTEM>
0

>  <SCORE.SYSTEM.CONST>
0

>  <SCORE.SYSTEM.DIHEDRAL>
0

>  <SCORE.SYSTEM.SOLV>
0

>  <SCORE.SYSTEM.norm>
0

>  <SCORE.heavy>
11

>  <SCORE.norm>
-1.37056

>  <RMSD>
13.816

$$$$

 OpenBabel11021811383D
libRbt.so/2013.1/901 2013/11/27
 11 10  0  0  0  0  0  0  0  0999 V2000
  -10.3479    8.3575    0.6934 N   0  3  0  0  0  0  0  0  0  0  0  0
  -11.4279    8.0859    1.6892 C   0  0  2  0  0  0  0  0  0  0  0  0
  -10.8080    7.8568    3.0781 C   0  0  0  0  0  0  0  0  0  0  0  0
  -11.1781    8.5068    4.0377 O   0  0  0  0  0  0  0  0  0  0  0  0
  -12.2152    6.8418    1.2567 C   0  0  0  0  0  0  0  0  0  0  0  0
  -11.3281    5.9508    0.3826 C   0  0  0  0  0  0  0  0  0  0  0  0
  -12.0351    5.6688   -0.9415 C   0  0  0  0  0  0  0  0  0  0  0  0
  -11.1016    4.9454   -1.8478 N   0  3  0  0  0  0  0  0  0  0  0  0
  -10.4490    5.5965   -2.7713 C   0  0  0  0  0  0  0  0  0  0  0  0
   -9.1427    5.6470   -2.7305 N   0  0  0  0  0  0  0  0  0  0  0  0
  -11.1014    6.1896   -3.7373 N   0  0  0  0  0  0  0  0  0  0  0  0
  2  1  1  6  0  0  0
  2  3  1  0  0  0  0
  2  5  1  0  0  0  0
  3  4  2  0  0  0  0
  5  6  1  0  0  0  0
  6  7  1  0  0  0  0
  7  8  1  0  0  0  0
  8  9  2  0  0  0  0
  9 10  1  0  0  0  0
  9 11  1  0  0  0  0
M  CHG  2   1   1   8   1
M  END
>  <CHROM.1>
35.52698181,126.03620814,25.22203629,-125.80505183,173.10783122,-98.84312780
-10.97724918,6.71441104,-0.11053327,-1.69297959,-0.63026663,-2.05550450

>  <Name>


>  <RI>
0

>  <Rbt.Current_Directory>
/home/itssahil/PROJECTS/Mol_Feturizer/New_Systems/rnas/1aju

>  <Rbt.Executable>
rbdock ($Id: //depot/dev/client3/rdock/2013.1/src/exe/rbdock.cxx#4 $)

>  <Rbt.Library>
libRbt.so (2013.1, Build901 2013/11/27)

>  <Rbt.Parameter_File>
/export/apps/rDock/src/rDock_2013.1_src/data/scripts/dock_solv.prm

>  <Rbt.Receptor>
prm/blind_docking_60.prm

>  <SCORE>
-27.193

>  <SCORE.INTER>
-33.7126

>  <SCORE.INTER.CONST>
1

>  <SCORE.INTER.POLAR>
-6.60131

>  <SCORE.INTER.ROT>
5

>  <SCORE.INTER.SOLV>
28.5236

>  <SCORE.INTER.VDW>
-16.9119

>  <SCORE.INTER.norm>
-3.06478

>  <SCORE.INTRA>
6.51967

>  <SCORE.INTRA.DIHEDRAL>
3.79943

>  <SCORE.INTRA.DIHEDRAL.0>
9.90185

>  <SCORE.INTRA.POLAR>
0

>  <SCORE.INTRA.POLAR.0>
0

>  <SCORE.INTRA.REPUL>
0.106914

>  <SCORE.INTRA.REPUL.0>
0

>  <SCORE.INTRA.SOLV>
2.8289

>  <SCORE.INTRA.SOLV.lig_0>
-53.6586

>  <SCORE.INTRA.VDW>
2.67094

>  <SCORE.INTRA.VDW.0>
-0.556525

>  <SCORE.INTRA.norm>
0.592698

>  <SCORE.RESTR>
0

>  <SCORE.RESTR.CAVITY>
0

>  <SCORE.RESTR.norm>
0

>  <SCORE.SYSTEM>
0

>  <SCORE.SYSTEM.CONST>
0

>  <SCORE.SYSTEM.DIHEDRAL>
0

>  <SCORE.SYSTEM.SOLV>
0

>  <SCORE.SYSTEM.norm>
0

>  <SCORE.heavy>
11

>  <SCORE.norm>
-2.47209

>  <RMSD>
13.817

$$$$

 OpenBabel11021811383D
libRbt.so/2013.1/901 2013/11/27
 11 10  0  0  0  0  0  0  0  0999 V2000
  -10.5795    8.3531    1.9065 N   0  3  0  0  0  0  0  0  0  0  0  0
  -11.9173    7.7547    2.1963 C   0  0  2  0  0  0  0  0  0  0  0  0
  -11.7636    6.6029    3.2040 C   0  0  0  0  0  0  0  0  0  0  0  0
  -12.2364    6.6890    4.3217 O   0  0  0  0  0  0  0  0  0  0  0  0
  -12.5311    7.2293    0.8918 C   0  0  0  0  0  0  0  0  0  0  0  0
  -11.5831    6.2113    0.2515 C   0  0  0  0  0  0  0  0  0  0  0  0
  -12.2078    5.6691   -1.0323 C   0  0  0  0  0  0  0  0  0  0  0  0
  -11.1666    4.9470   -1.8135 N   0  3  0  0  0  0  0  0  0  0  0  0
  -10.3971    5.6005   -2.6402 C   0  0  0  0  0  0  0  0  0  0  0  0
   -9.1070    5.6456   -2.4294 N   0  0  0  0  0  0  0  0  0  0  0  0
  -10.9161    6.2016   -3.6795 N   0  0  0  0  0  0  0  0  0  0  0  0
  2  1  1  6  0  0  0
  2  3  1  0  0  0  0
  2  5  1  0  0  0  0
  3  4  2  0  0  0  0
  5  6  1  0  0  0  0
  6  7  1  0  0  0  0
  7  8  1  0  0  0  0
  8  9  2  0  0  0  0
  9 10  1  0  0  0  0
  9 11  1  0  0  0  0
M  CHG  2   1   1   8   1
M  END
>  <CHROM.1>
-57.97106735,113.71848550,57.32136220,178.89525956,166.38137307,-86.43755111
-11.26860267,6.46331495,0.09941917,-1.84024507,-0.59968258,-1.98545490

>  <Name>


>  <RI>
0

>  <Rbt.Current_Directory>
/home/itssahil/PROJECTS/Mol_Feturizer/New_Systems/rnas/1aju

>  <Rbt.Executable>
rbdock ($Id: //depot/dev/client3/rdock/2013.1/src/exe/rbdock.cxx#4 $)

>  <Rbt.Library>
libRbt.so (2013.1, Build901 2013/11/27)

>  <Rbt.Parameter_File>
/export/apps/rDock/src/rDock_2013.1_src/data/scripts/dock_solv.prm

>  <Rbt.Receptor>
prm/blind_docking_100.prm

>  <SCORE>
-20.6139

>  <SCORE.INTER>
-19.2417

>  <SCORE.INTER.CONST>
1

>  <SCORE.INTER.POLAR>
-3.80007

>  <SCORE.INTER.ROT>
5

>  <SCORE.INTER.SOLV>
25.3868

>  <SCORE.INTER.VDW>
-15.5565

>  <SCORE.INTER.norm>
-1.74924

>  <SCORE.INTRA>
-1.42635

>  <SCORE.INTRA.DIHEDRAL>
-6.1194

>  <SCORE.INTRA.DIHEDRAL.0>
9.90185

>  <SCORE.INTRA.POLAR>
0

>  <SCORE.INTRA.POLAR.0>
0

>  <SCORE.INTRA.REPUL>
0

>  <SCORE.INTRA.REPUL.0>
0

>  <SCORE.INTRA.SOLV>
1.54945

>  <SCORE.INTRA.SOLV.lig_0>
-53.6586

>  <SCORE.INTRA.VDW>
0.858628

>  <SCORE.INTRA.VDW.0>
-0.556525

>  <SCORE.INTRA.norm>
-0.129668

>  <SCORE.RESTR>
0.0541715

>  <SCORE.RESTR.CAVITY>
0.0541715

>  <SCORE.RESTR.norm>
0.00492468

>  <SCORE.SYSTEM>
0

>  <SCORE.SYSTEM.CONST>
0

>  <SCORE.SYSTEM.DIHEDRAL>
0

>  <SCORE.SYSTEM.SOLV>
0

>  <SCORE.SYSTEM.norm>
0

>  <SCORE.heavy>
11

>  <SCORE.norm>
-1.87399

>  <RMSD>
13.822

$$$$

 OpenBabel11021811383D
libRbt.so/2013.1/901 2013/11/27
 11 10  0  0  0  0  0  0  0  0999 V2000
  -10.2715    8.3529    0.8188 N   0  3  0  0  0  0  0  0  0  0  0  0
  -11.2794    8.0558    1.8807 C   0  0  2  0  0  0  0  0  0  0  0  0
  -10.7804    8.5895    3.2342 C   0  0  0  0  0  0  0  0  0  0  0  0
  -11.4628    9.3547    3.8892 O   0  0  0  0  0  0  0  0  0  0  0  0
  -11.4955    6.5389    1.9646 C   0  0  0  0  0  0  0  0  0  0  0  0
  -10.7208    5.8467    0.8396 C   0  0  0  0  0  0  0  0  0  0  0  0
  -11.6127    5.7242   -0.3940 C   0  0  0  0  0  0  0  0  0  0  0  0
  -10.8854    4.9647   -1.4476 N   0  3  0  0  0  0  0  0  0  0  0  0
  -10.4028    5.5866   -2.4883 C   0  0  0  0  0  0  0  0  0  0  0  0
   -9.1114    5.6014   -2.6952 N   0  0  0  0  0  0  0  0  0  0  0  0
  -11.2108    6.1861   -3.3240 N   0  0  0  0  0  0  0  0  0  0  0  0
  2  1  1  6  0  0  0
  2  3  1  0  0  0  0
  2  5  1  0  0  0  0
  3  4  2  0  0  0  0
  5  6  1  0  0  0  0
  6  7  1  0  0  0  0
  7  8  1  0  0  0  0
  8  9  2  0  0  0  0
  9 10  1  0  0  0  0
  9 11  1  0  0  0  0
M  CHG  2   1   1   8   1
M  END
>  <CHROM.1>
63.47525268,124.95095396,-5.86800959,-90.33703188,-175.99155519,-106.03094598
-10.81538064,6.82102672,0.16878212,-1.81805828,-1.07970132,-2.28489552

>  <Name>


>  <RI>
0

>  <Rbt.Current_Directory>
/home/itssahil/PROJECTS/Mol_Feturizer/New_Systems/rnas/1aju

>  <Rbt.Executable>
rbdock ($Id: //depot/dev/client3/rdock/2013.1/src/exe/rbdock.cxx#4 $)

>  <Rbt.Library>
libRbt.so (2013.1, Build901 2013/11/27)

>  <Rbt.Parameter_File>
/export/apps/rDock/src/rDock_2013.1_src/data/scripts/dock_solv.prm

>  <Rbt.Receptor>
prm/blind_docking_60.prm

>  <SCORE>
-31.7252

>  <SCORE.INTER>
-38.9984

>  <SCORE.INTER.CONST>
1

>  <SCORE.INTER.POLAR>
-6.70173

>  <SCORE.INTER.ROT>
5

>  <SCORE.INTER.SOLV>
28.6399

>  <SCORE.INTER.VDW>
-20.1398

>  <SCORE.INTER.norm>
-3.54531

>  <SCORE.INTRA>
7.27319

>  <SCORE.INTRA.DIHEDRAL>
1.34673

>  <SCORE.INTRA.DIHEDRAL.0>
9.90185

>  <SCORE.INTRA.POLAR>
0

>  <SCORE.INTRA.POLAR.0>
0

>  <SCORE.INTRA.REPUL>
0.185418

>  <SCORE.INTRA.REPUL.0>
0

>  <SCORE.INTRA.SOLV>
3.48903

>  <SCORE.INTRA.SOLV.lig_0>
-53.6586

>  <SCORE.INTRA.VDW>
3.92821

>  <SCORE.INTRA.VDW.0>
-0.556525

>  <SCORE.INTRA.norm>
0.661199

>  <SCORE.RESTR>
0

>  <SCORE.RESTR.CAVITY>
0

>  <SCORE.RESTR.norm>
0

>  <SCORE.SYSTEM>
0

>  <SCORE.SYSTEM.CONST>
0

>  <SCORE.SYSTEM.DIHEDRAL>
0

>  <SCORE.SYSTEM.SOLV>
0

>  <SCORE.SYSTEM.norm>
0

>  <SCORE.heavy>
11

>  <SCORE.norm>
-2.88411

>  <RMSD>
13.823

$$$$

 OpenBabel11021811383D
libRbt.so/2013.1/901 2013/11/27
 11 10  0  0  0  0  0  0  0  0999 V2000
  -11.8340    6.3700    3.3901 N   0  3  0  0  0  0  0  0  0  0  0  0
  -11.1256    7.3408    2.5028 C   0  0  2  0  0  0  0  0  0  0  0  0
  -11.2975    8.7673    3.0518 C   0  0  0  0  0  0  0  0  0  0  0  0
  -10.3420    9.5142    3.1489 O   0  0  0  0  0  0  0  0  0  0  0  0
  -11.7091    7.2523    1.0863 C   0  0  0  0  0  0  0  0  0  0  0  0
  -11.1145    6.0421    0.3605 C   0  0  0  0  0  0  0  0  0  0  0  0
  -11.9163    5.7637   -0.9091 C   0  0  0  0  0  0  0  0  0  0  0  0
  -11.0604    5.0180   -1.8721 N   0  3  0  0  0  0  0  0  0  0  0  0
  -10.4386    5.6556   -2.8258 C   0  0  0  0  0  0  0  0  0  0  0  0
   -9.1310    5.6615   -2.8582 N   0  0  0  0  0  0  0  0  0  0  0  0
  -11.1233    6.2798   -3.7489 N   0  0  0  0  0  0  0  0  0  0  0  0
  2  1  1  1  0  0  0
  2  3  1  0  0  0  0
  2  5  1  0  0  0  0
  3  4  2  0  0  0  0
  5  6  1  0  0  0  0
  6  7  1  0  0  0  0
  7  8  1  0  0  0  0
  8  9  2  0  0  0  0
  9 10  1  0  0  0  0
  9 11  1  0  0  0  0
M  CHG  2   1   1   8   1
M  END
>  <CHROM.1>
-86.59825276,132.96444678,-79.71735341,167.09012478,156.44250764,-97.31187584
-10.99809709,6.68558172,0.12503796,1.75613682,0.97557662,1.03334902

>  <Name>


>  <RI>
0

>  <Rbt.Current_Directory>
/home/itssahil/PROJECTS/Mol_Feturizer/New_Systems/rnas/1aju

>  <Rbt.Executable>
rbdock ($Id: //depot/dev/client3/rdock/2013.1/src/exe/rbdock.cxx#4 $)

>  <Rbt.Library>
libRbt.so (2013.1, Build901 2013/11/27)

>  <Rbt.Parameter_File>
/export/apps/rDock/src/rDock_2013.1_src/data/scripts/dock_solv.prm

>  <Rbt.Receptor>
prm/blind_docking_60.prm

>  <SCORE>
-28.9608

>  <SCORE.INTER>
-28.6174

>  <SCORE.INTER.CONST>
1

>  <SCORE.INTER.POLAR>
-5.62867

>  <SCORE.INTER.ROT>
5

>  <SCORE.INTER.SOLV>
21.9466

>  <SCORE.INTER.VDW>
-14.5649

>  <SCORE.INTER.norm>
-2.60158

>  <SCORE.INTRA>
-0.35433

>  <SCORE.INTRA.DIHEDRAL>
-1.35339

>  <SCORE.INTRA.DIHEDRAL.0>
9.90185

>  <SCORE.INTRA.POLAR>
0

>  <SCORE.INTRA.POLAR.0>
0

>  <SCORE.INTRA.REPUL>
0

>  <SCORE.INTRA.REPUL.0>
0

>  <SCORE.INTRA.SOLV>
0.983478

>  <SCORE.INTRA.SOLV.lig_0>
-53.6586

>  <SCORE.INTRA.VDW>
-0.169374

>  <SCORE.INTRA.VDW.0>
-0.556525

>  <SCORE.INTRA.norm>
-0.0322118

>  <SCORE.RESTR>
0.0109494

>  <SCORE.RESTR.CAVITY>
0.0109494

>  <SCORE.RESTR.norm>
0.0009954

>  <SCORE.SYSTEM>
0

>  <SCORE.SYSTEM.CONST>
0

>  <SCORE.SYSTEM.DIHEDRAL>
0

>  <SCORE.SYSTEM.SOLV>
0

>  <SCORE.SYSTEM.norm>
0

>  <SCORE.heavy>
11

>  <SCORE.norm>
-2.6328

>  <RMSD>
13.827

$$$$

 OpenBabel11021811383D
libRbt.so/2013.1/901 2013/11/27
 11 10  0  0  0  0  0  0  0  0999 V2000
   -9.6034    5.5318   -1.7244 N   0  3  0  0  0  0  0  0  0  0  0  0
  -11.0248    5.0737   -1.7646 C   0  0  2  0  0  0  0  0  0  0  0  0
  -11.5693    5.1957   -3.1980 C   0  0  0  0  0  0  0  0  0  0  0  0
  -12.3704    4.3874   -3.6283 O   0  0  0  0  0  0  0  0  0  0  0  0
  -11.8629    5.9368   -0.8121 C   0  0  0  0  0  0  0  0  0  0  0  0
  -11.9551    5.2522    0.5545 C   0  0  0  0  0  0  0  0  0  0  0  0
  -10.6257    5.4022    1.2913 C   0  0  0  0  0  0  0  0  0  0  0  0
  -10.7142    6.5577    2.2256 N   0  3  0  0  0  0  0  0  0  0  0  0
  -10.9665    7.7531    1.7672 C   0  0  0  0  0  0  0  0  0  0  0  0
  -12.0624    8.3693    2.1278 N   0  0  0  0  0  0  0  0  0  0  0  0
  -10.1210    8.3335    0.9555 N   0  0  0  0  0  0  0  0  0  0  0  0
  2  1  1  6  0  0  0
  2  3  1  0  0  0  0
  2  5  1  0  0  0  0
  3  4  2  0  0  0  0
  5  6  1  0  0  0  0
  6  7  1  0  0  0  0
  7  8  1  0  0  0  0
  8  9  2  0  0  0  0
  9 10  1  0  0  0  0
  9 11  1  0  0  0  0
M  CHG  2   1   1   8   1
M  END
>  <CHROM.1>
31.05463590,145.53260863,-93.83396218,74.79720116,96.92235301,-59.71406902
-11.14627379,6.18612903,-0.20483752,-1.66301019,0.39890866,1.08179229

>  <Name>


>  <RI>
0

>  <Rbt.Current_Directory>
/home/itssahil/PROJECTS/Mol_Feturizer/New_Systems/rnas/1aju

>  <Rbt.Executable>
rbdock ($Id: //depot/dev/client3/rdock/2013.1/src/exe/rbdock.cxx#4 $)

>  <Rbt.Library>
libRbt.so (2013.1, Build901 2013/11/27)

>  <Rbt.Parameter_File>
/export/apps/rDock/src/rDock_2013.1_src/data/scripts/dock_solv.prm

>  <Rbt.Receptor>
prm/blind_docking_100.prm

>  <SCORE>
-16.9582

>  <SCORE.INTER>
-21.7235

>  <SCORE.INTER.CONST>
1

>  <SCORE.INTER.POLAR>
-4.88607

>  <SCORE.INTER.ROT>
5

>  <SCORE.INTER.SOLV>
24.0098

>  <SCORE.INTER.VDW>
-13.132

>  <SCORE.INTER.norm>
-1.97486

>  <SCORE.INTRA>
4.72281

>  <SCORE.INTRA.DIHEDRAL>
3.48947

>  <SCORE.INTRA.DIHEDRAL.0>
9.90185

>  <SCORE.INTRA.POLAR>
0

>  <SCORE.INTRA.POLAR.0>
0

>  <SCORE.INTRA.REPUL>
0.113162

>  <SCORE.INTRA.REPUL.0>
0

>  <SCORE.INTRA.SOLV>
4.19511

>  <SCORE.INTRA.SOLV.lig_0>
-53.6586

>  <SCORE.INTRA.VDW>
0.314714

>  <SCORE.INTRA.VDW.0>
-0.556525

>  <SCORE.INTRA.norm>
0.429347

>  <SCORE.RESTR>
0.0424122

>  <SCORE.RESTR.CAVITY>
0.0424122

>  <SCORE.RESTR.norm>
0.00385565

>  <SCORE.SYSTEM>
0

>  <SCORE.SYSTEM.CONST>
0

>  <SCORE.SYSTEM.DIHEDRAL>
0

>  <SCORE.SYSTEM.SOLV>
0

>  <SCORE.SYSTEM.norm>
0

>  <SCORE.heavy>
11

>  <SCORE.norm>
-1.54166

>  <RMSD>
13.833

$$$$

 OpenBabel11021811383D
libRbt.so/2013.1/901 2013/11/27
 11 10  0  0  0  0  0  0  0  0999 V2000
  -10.3455    8.3492    0.8122 N   0  3  0  0  0  0  0  0  0  0  0  0
  -11.2648    7.7551    1.8289 C   0  0  2  0  0  0  0  0  0  0  0  0
  -10.9489    8.3365    3.2174 C   0  0  0  0  0  0  0  0  0  0  0  0
  -10.1448    9.2409    3.3431 O   0  0  0  0  0  0  0  0  0  0  0  0
  -11.0840    6.2313    1.8470 C   0  0  0  0  0  0  0  0  0  0  0  0
  -12.4541    5.5508    1.7800 C   0  0  0  0  0  0  0  0  0  0  0  0
  -12.2710    4.0617    1.4943 C   0  0  0  0  0  0  0  0  0  0  0  0
  -11.8136    3.8880    0.0884 N   0  3  0  0  0  0  0  0  0  0  0  0
  -11.6397    4.9301   -0.6774 C   0  0  0  0  0  0  0  0  0  0  0  0
  -10.4473    5.2058   -1.1386 N   0  0  0  0  0  0  0  0  0  0  0  0
  -12.6579    5.6905   -0.9870 N   0  0  0  0  0  0  0  0  0  0  0  0
  2  1  1  6  0  0  0
  2  3  1  0  0  0  0
  2  5  1  0  0  0  0
  3  4  2  0  0  0  0
  5  6  1  0  0  0  0
  6  7  1  0  0  0  0
  7  8  1  0  0  0  0
  8  9  2  0  0  0  0
  9 10  1  0  0  0  0
  9 11  1  0  0  0  0
M  CHG  2   1   1   8   1
M  END
>  <CHROM.1>
67.04755922,6.66282170,-131.29133530,167.83490225,-70.91987093,-0.23395402
-11.33701562,6.33042355,1.01311873,-1.01566036,-1.07042489,-2.00858095

>  <Name>


>  <RI>
0

>  <Rbt.Current_Directory>
/home/itssahil/PROJECTS/Mol_Feturizer/New_Systems/rnas/1aju

>  <Rbt.Executable>
rbdock ($Id: //depot/dev/client3/rdock/2013.1/src/exe/rbdock.cxx#4 $)

>  <Rbt.Library>
libRbt.so (2013.1, Build901 2013/11/27)

>  <Rbt.Parameter_File>
/export/apps/rDock/src/rDock_2013.1_src/data/scripts/dock_solv.prm

>  <Rbt.Receptor>
prm/blind_docking_40.prm

>  <SCORE>
-28.0279

>  <SCORE.INTER>
-33.6427

>  <SCORE.INTER.CONST>
1

>  <SCORE.INTER.POLAR>
-6.61

>  <SCORE.INTER.ROT>
5

>  <SCORE.INTER.SOLV>
22.0519

>  <SCORE.INTER.VDW>
-14.6791

>  <SCORE.INTER.norm>
-3.05843

>  <SCORE.INTRA>
5.18161

>  <SCORE.INTRA.DIHEDRAL>
-1.00838

>  <SCORE.INTRA.DIHEDRAL.0>
9.90185

>  <SCORE.INTRA.POLAR>
0

>  <SCORE.INTRA.POLAR.0>
0

>  <SCORE.INTRA.REPUL>
0.00476343

>  <SCORE.INTRA.REPUL.0>
0

>  <SCORE.INTRA.SOLV>
5.78314

>  <SCORE.INTRA.SOLV.lig_0>
-53.6586

>  <SCORE.INTRA.VDW>
2.77041

>  <SCORE.INTRA.VDW.0>
-0.556525

>  <SCORE.INTRA.norm>
0.471055

>  <SCORE.RESTR>
0.433237

>  <SCORE.RESTR.CAVITY>
0.433237

>  <SCORE.RESTR.norm>
0.0393852

>  <SCORE.SYSTEM>
0

>  <SCORE.SYSTEM.CONST>
0

>  <SCORE.SYSTEM.DIHEDRAL>
0

>  <SCORE.SYSTEM.SOLV>
0

>  <SCORE.SYSTEM.norm>
0

>  <SCORE.heavy>
11

>  <SCORE.norm>
-2.54799

>  <RMSD>
13.838

$$$$

 OpenBabel11021811383D
libRbt.so/2013.1/901 2013/11/27
 11 10  0  0  0  0  0  0  0  0999 V2000
  -13.2334    8.2565    2.5590 N   0  3  0  0  0  0  0  0  0  0  0  0
  -12.4932    7.0866    1.9976 C   0  0  2  0  0  0  0  0  0  0  0  0
  -12.0384    6.1628    3.1402 C   0  0  0  0  0  0  0  0  0  0  0  0
  -12.1357    6.5166    4.3002 O   0  0  0  0  0  0  0  0  0  0  0  0
  -11.2729    7.5874    1.2134 C   0  0  0  0  0  0  0  0  0  0  0  0
  -10.6172    6.4143    0.4794 C   0  0  0  0  0  0  0  0  0  0  0  0
  -11.6185    5.7985   -0.4956 C   0  0  0  0  0  0  0  0  0  0  0  0
  -10.8790    5.0176   -1.5248 N   0  3  0  0  0  0  0  0  0  0  0  0
  -10.3690    5.6207   -2.5635 C   0  0  0  0  0  0  0  0  0  0  0  0
   -9.0737    5.6188   -2.7448 N   0  0  0  0  0  0  0  0  0  0  0  0
  -11.1536    6.2182   -3.4227 N   0  0  0  0  0  0  0  0  0  0  0  0
  2  1  1  1  0  0  0
  2  3  1  0  0  0  0
  2  5  1  0  0  0  0
  3  4  2  0  0  0  0
  5  6  1  0  0  0  0
  6  7  1  0  0  0  0
  7  8  1  0  0  0  0
  8  9  2  0  0  0  0
  9 10  1  0  0  0  0
  9 11  1  0  0  0  0
M  CHG  2   1   1   8   1
M  END
>  <CHROM.1>
-176.37026590,-9.79027828,-172.42924081,60.38158302,159.95062793,-83.06095672
-11.36520188,6.41559994,0.26999968,2.07312636,-0.79889193,1.70310008

>  <Name>


>  <RI>
0

>  <Rbt.Current_Directory>
/home/itssahil/PROJECTS/Mol_Feturizer/New_Systems/rnas/1aju

>  <Rbt.Executable>
rbdock ($Id: //depot/dev/client3/rdock/2013.1/src/exe/rbdock.cxx#4 $)

>  <Rbt.Library>
libRbt.so (2013.1, Build901 2013/11/27)

>  <Rbt.Parameter_File>
/export/apps/rDock/src/rDock_2013.1_src/data/scripts/dock_solv.prm

>  <Rbt.Receptor>
prm/blind_docking_60.prm

>  <SCORE>
-19.9681

>  <SCORE.INTER>
-18.9305

>  <SCORE.INTER.CONST>
1

>  <SCORE.INTER.POLAR>
-3.43344

>  <SCORE.INTER.ROT>
5

>  <SCORE.INTER.SOLV>
19.4042

>  <SCORE.INTER.VDW>
-14.5769

>  <SCORE.INTER.norm>
-1.72095

>  <SCORE.INTRA>
-1.03764

>  <SCORE.INTRA.DIHEDRAL>
-5.11289

>  <SCORE.INTRA.DIHEDRAL.0>
9.90185

>  <SCORE.INTRA.POLAR>
0

>  <SCORE.INTRA.POLAR.0>
0

>  <SCORE.INTRA.REPUL>
0

>  <SCORE.INTRA.REPUL.0>
0

>  <SCORE.INTRA.SOLV>
1.24714

>  <SCORE.INTRA.SOLV.lig_0>
-53.6586

>  <SCORE.INTRA.VDW>
0.895232

>  <SCORE.INTRA.VDW.0>
-0.556525

>  <SCORE.INTRA.norm>
-0.0943312

>  <SCORE.RESTR>
0

>  <SCORE.RESTR.CAVITY>
0

>  <SCORE.RESTR.norm>
0

>  <SCORE.SYSTEM>
0

>  <SCORE.SYSTEM.CONST>
0

>  <SCORE.SYSTEM.DIHEDRAL>
0

>  <SCORE.SYSTEM.SOLV>
0

>  <SCORE.SYSTEM.norm>
0

>  <SCORE.heavy>
11

>  <SCORE.norm>
-1.81528

>  <RMSD>
13.842

$$$$

 OpenBabel11021811383D
libRbt.so/2013.1/901 2013/11/27
 11 10  0  0  0  0  0  0  0  0999 V2000
  -11.9807    6.4016    3.6428 N   0  3  0  0  0  0  0  0  0  0  0  0
  -11.3266    7.2146    2.5737 C   0  0  2  0  0  0  0  0  0  0  0  0
  -11.3824    8.7054    2.9477 C   0  0  0  0  0  0  0  0  0  0  0  0
  -10.3655    9.3717    2.9955 O   0  0  0  0  0  0  0  0  0  0  0  0
  -12.0546    6.9821    1.2430 C   0  0  0  0  0  0  0  0  0  0  0  0
  -11.1974    6.0935    0.3371 C   0  0  0  0  0  0  0  0  0  0  0  0
  -11.9892    5.7286   -0.9169 C   0  0  0  0  0  0  0  0  0  0  0  0
  -11.1000    4.9935   -1.8576 N   0  3  0  0  0  0  0  0  0  0  0  0
  -10.4601    5.6390   -2.7938 C   0  0  0  0  0  0  0  0  0  0  0  0
   -9.1523    5.6590   -2.7916 N   0  0  0  0  0  0  0  0  0  0  0  0
  -11.1268    6.2570   -3.7341 N   0  0  0  0  0  0  0  0  0  0  0  0
  2  1  1  1  0  0  0
  2  3  1  0  0  0  0
  2  5  1  0  0  0  0
  3  4  2  0  0  0  0
  5  6  1  0  0  0  0
  6  7  1  0  0  0  0
  7  8  1  0  0  0  0
  8  9  2  0  0  0  0
  9 10  1  0  0  0  0
  9 11  1  0  0  0  0
M  CHG  2   1   1   8   1
M  END
>  <CHROM.1>
-91.35237660,124.93809939,-105.77859817,173.41446988,173.78549690,-93.67063390
-11.09057718,6.63185190,0.15767718,1.77895040,0.91393163,1.04521216

>  <Name>


>  <RI>
0

>  <Rbt.Current_Directory>
/home/itssahil/PROJECTS/Mol_Feturizer/New_Systems/rnas/1aju

>  <Rbt.Executable>
rbdock ($Id: //depot/dev/client3/rdock/2013.1/src/exe/rbdock.cxx#4 $)

>  <Rbt.Library>
libRbt.so (2013.1, Build901 2013/11/27)

>  <Rbt.Parameter_File>
/export/apps/rDock/src/rDock_2013.1_src/data/scripts/dock_solv.prm

>  <Rbt.Receptor>
prm/blind_docking_100.prm

>  <SCORE>
-27.9022

>  <SCORE.INTER>
-28.045

>  <SCORE.INTER.CONST>
1

>  <SCORE.INTER.POLAR>
-5.45481

>  <SCORE.INTER.ROT>
5

>  <SCORE.INTER.SOLV>
21.2626

>  <SCORE.INTER.VDW>
-14.5349

>  <SCORE.INTER.norm>
-2.54955

>  <SCORE.INTRA>
-0.00631529

>  <SCORE.INTRA.DIHEDRAL>
-0.157855

>  <SCORE.INTRA.DIHEDRAL.0>
9.90185

>  <SCORE.INTRA.POLAR>
0

>  <SCORE.INTRA.POLAR.0>
0

>  <SCORE.INTRA.REPUL>
0

>  <SCORE.INTRA.REPUL.0>
0

>  <SCORE.INTRA.SOLV>
0.480267

>  <SCORE.INTRA.SOLV.lig_0>
-53.6586

>  <SCORE.INTRA.VDW>
-0.167521

>  <SCORE.INTRA.VDW.0>
-0.556525

>  <SCORE.INTRA.norm>
-0.000574117

>  <SCORE.RESTR>
0.149166

>  <SCORE.RESTR.CAVITY>
0.149166

>  <SCORE.RESTR.norm>
0.0135605

>  <SCORE.SYSTEM>
0

>  <SCORE.SYSTEM.CONST>
0

>  <SCORE.SYSTEM.DIHEDRAL>
0

>  <SCORE.SYSTEM.SOLV>
0

>  <SCORE.SYSTEM.norm>
0

>  <SCORE.heavy>
11

>  <SCORE.norm>
-2.53656

>  <RMSD>
13.849

$$$$

 OpenBabel11021811383D
libRbt.so/2013.1/901 2013/11/27
 11 10  0  0  0  0  0  0  0  0999 V2000
  -11.8944    6.4191    3.5513 N   0  3  0  0  0  0  0  0  0  0  0  0
  -11.2418    7.3051    2.5410 C   0  0  2  0  0  0  0  0  0  0  0  0
  -11.3494    8.7722    2.9902 C   0  0  0  0  0  0  0  0  0  0  0  0
  -10.3576    9.4730    3.0639 O   0  0  0  0  0  0  0  0  0  0  0  0
  -11.9339    7.1222    1.1836 C   0  0  0  0  0  0  0  0  0  0  0  0
  -11.1292    6.1426    0.3247 C   0  0  0  0  0  0  0  0  0  0  0  0
  -11.9439    5.7562   -0.9080 C   0  0  0  0  0  0  0  0  0  0  0  0
  -11.0706    5.0103   -1.8550 N   0  3  0  0  0  0  0  0  0  0  0  0
  -10.4416    5.6459   -2.8053 C   0  0  0  0  0  0  0  0  0  0  0  0
   -9.1339    5.6613   -2.8216 N   0  0  0  0  0  0  0  0  0  0  0  0
  -11.1194    6.2585   -3.7413 N   0  0  0  0  0  0  0  0  0  0  0  0
  2  1  1  1  0  0  0
  2  3  1  0  0  0  0
  2  5  1  0  0  0  0
  3  4  2  0  0  0  0
  5  6  1  0  0  0  0
  6  7  1  0  0  0  0
  7  8  1  0  0  0  0
  8  9  2  0  0  0  0
  9 10  1  0  0  0  0
  9 11  1  0  0  0  0
M  CHG  2   1   1   8   1
M  END
>  <CHROM.1>
-91.57884161,126.76815924,-97.66915841,169.33475897,169.72500425,-93.03034191
-11.04384975,6.67770257,0.14545493,1.77086667,0.94123533,1.03275591

>  <Name>


>  <RI>
0

>  <Rbt.Current_Directory>
/home/itssahil/PROJECTS/Mol_Feturizer/New_Systems/rnas/1aju

>  <Rbt.Executable>
rbdock ($Id: //depot/dev/client3/rdock/2013.1/src/exe/rbdock.cxx#4 $)

>  <Rbt.Library>
libRbt.so (2013.1, Build901 2013/11/27)

>  <Rbt.Parameter_File>
/export/apps/rDock/src/rDock_2013.1_src/data/scripts/dock_solv.prm

>  <Rbt.Receptor>
prm/blind_docking_100.prm

>  <SCORE>
-28.5271

>  <SCORE.INTER>
-28.6779

>  <SCORE.INTER.CONST>
1

>  <SCORE.INTER.POLAR>
-5.60924

>  <SCORE.INTER.ROT>
5

>  <SCORE.INTER.SOLV>
21.7016

>  <SCORE.INTER.VDW>
-14.5883

>  <SCORE.INTER.norm>
-2.60708

>  <SCORE.INTRA>
-0.0625526

>  <SCORE.INTRA.DIHEDRAL>
-0.450859

>  <SCORE.INTRA.DIHEDRAL.0>
9.90185

>  <SCORE.INTRA.POLAR>
0

>  <SCORE.INTRA.POLAR.0>
0

>  <SCORE.INTRA.REPUL>
0

>  <SCORE.INTRA.REPUL.0>
0

>  <SCORE.INTRA.SOLV>
0.655187

>  <SCORE.INTRA.SOLV.lig_0>
-53.6586

>  <SCORE.INTRA.VDW>
-0.164717

>  <SCORE.INTRA.VDW.0>
-0.556525

>  <SCORE.INTRA.norm>
-0.0056866

>  <SCORE.RESTR>
0.21336

>  <SCORE.RESTR.CAVITY>
0.21336

>  <SCORE.RESTR.norm>
0.0193963

>  <SCORE.SYSTEM>
0

>  <SCORE.SYSTEM.CONST>
0

>  <SCORE.SYSTEM.DIHEDRAL>
0

>  <SCORE.SYSTEM.SOLV>
0

>  <SCORE.SYSTEM.norm>
0

>  <SCORE.heavy>
11

>  <SCORE.norm>
-2.59337

>  <RMSD>
13.854

$$$$

 OpenBabel11021811383D
libRbt.so/2013.1/901 2013/11/27
 11 10  0  0  0  0  0  0  0  0999 V2000
  -10.2153    8.5239    0.8719 N   0  3  0  0  0  0  0  0  0  0  0  0
  -11.3505    8.1876    1.7830 C   0  0  2  0  0  0  0  0  0  0  0  0
  -10.9782    8.5474    3.2313 C   0  0  0  0  0  0  0  0  0  0  0  0
  -10.0753    9.3290    3.4640 O   0  0  0  0  0  0  0  0  0  0  0  0
  -11.6567    6.6875    1.6794 C   0  0  0  0  0  0  0  0  0  0  0  0
  -11.9203    6.3169    0.2172 C   0  0  0  0  0  0  0  0  0  0  0  0
  -11.8723    4.7986    0.0589 C   0  0  0  0  0  0  0  0  0  0  0  0
  -11.0973    4.4609   -1.1664 N   0  3  0  0  0  0  0  0  0  0  0  0
  -10.7219    5.4051   -1.9851 C   0  0  0  0  0  0  0  0  0  0  0  0
   -9.4478    5.6304   -2.1766 N   0  0  0  0  0  0  0  0  0  0  0  0
  -11.6191    6.1173   -2.6163 N   0  0  0  0  0  0  0  0  0  0  0  0
  2  1  1  6  0  0  0
  2  3  1  0  0  0  0
  2  5  1  0  0  0  0
  3  4  2  0  0  0  0
  5  6  1  0  0  0  0
  6  7  1  0  0  0  0
  7  8  1  0  0  0  0
  8  9  2  0  0  0  0
  9 10  1  0  0  0  0
  9 11  1  0  0  0  0
M  CHG  2   1   1   8   1
M  END
>  <CHROM.1>
56.80178233,19.31701001,-55.17172426,165.71360822,-136.10771554,-7.88040173
-10.95203976,6.75420669,0.27063872,-1.50371709,-0.83558312,-2.16149749

>  <Name>


>  <RI>
0

>  <Rbt.Current_Directory>
/home/itssahil/PROJECTS/Mol_Feturizer/New_Systems/rnas/1aju

>  <Rbt.Executable>
rbdock ($Id: //depot/dev/client3/rdock/2013.1/src/exe/rbdock.cxx#4 $)

>  <Rbt.Library>
libRbt.so (2013.1, Build901 2013/11/27)

>  <Rbt.Parameter_File>
/export/apps/rDock/src/rDock_2013.1_src/data/scripts/dock_solv.prm

>  <Rbt.Receptor>
prm/blind_docking_60.prm

>  <SCORE>
-27.5564

>  <SCORE.INTER>
-33.1012

>  <SCORE.INTER.CONST>
1

>  <SCORE.INTER.POLAR>
-6.81757

>  <SCORE.INTER.ROT>
5

>  <SCORE.INTER.SOLV>
27.8379

>  <SCORE.INTER.VDW>
-15.5549

>  <SCORE.INTER.norm>
-3.0092

>  <SCORE.INTRA>
5.52564

>  <SCORE.INTRA.DIHEDRAL>
-0.80355

>  <SCORE.INTRA.DIHEDRAL.0>
9.90185

>  <SCORE.INTRA.POLAR>
0

>  <SCORE.INTRA.POLAR.0>
0

>  <SCORE.INTRA.REPUL>
0.171028

>  <SCORE.INTRA.REPUL.0>
0

>  <SCORE.INTRA.SOLV>
3.95734

>  <SCORE.INTRA.SOLV.lig_0>
-53.6586

>  <SCORE.INTRA.VDW>
3.0936

>  <SCORE.INTRA.VDW.0>
-0.556525

>  <SCORE.INTRA.norm>
0.502331

>  <SCORE.RESTR>
0.0191099

>  <SCORE.RESTR.CAVITY>
0.0191099

>  <SCORE.RESTR.norm>
0.00173726

>  <SCORE.SYSTEM>
0

>  <SCORE.SYSTEM.CONST>
0

>  <SCORE.SYSTEM.DIHEDRAL>
0

>  <SCORE.SYSTEM.SOLV>
0

>  <SCORE.SYSTEM.norm>
0

>  <SCORE.heavy>
11

>  <SCORE.norm>
-2.50513

>  <RMSD>
13.854

$$$$

 OpenBabel11021811383D
libRbt.so/2013.1/901 2013/11/27
 11 10  0  0  0  0  0  0  0  0999 V2000
  -10.3516    8.3770    0.7131 N   0  3  0  0  0  0  0  0  0  0  0  0
  -11.4034    8.1804    1.7556 C   0  0  2  0  0  0  0  0  0  0  0  0
  -10.7507    8.1210    3.1471 C   0  0  0  0  0  0  0  0  0  0  0  0
  -10.9925    8.9715    3.9828 O   0  0  0  0  0  0  0  0  0  0  0  0
  -12.1569    6.8732    1.4756 C   0  0  0  0  0  0  0  0  0  0  0  0
  -11.2707    5.9365    0.6497 C   0  0  0  0  0  0  0  0  0  0  0  0
  -12.0723    5.3796   -0.5251 C   0  0  0  0  0  0  0  0  0  0  0  0
  -11.1362    4.7648   -1.5057 N   0  3  0  0  0  0  0  0  0  0  0  0
  -10.5457    5.5071   -2.4018 C   0  0  0  0  0  0  0  0  0  0  0  0
   -9.2426    5.6189   -2.3966 N   0  0  0  0  0  0  0  0  0  0  0  0
  -11.2568    6.1304   -3.3055 N   0  0  0  0  0  0  0  0  0  0  0  0
  2  1  1  6  0  0  0
  2  3  1  0  0  0  0
  2  5  1  0  0  0  0
  3  4  2  0  0  0  0
  5  6  1  0  0  0  0
  6  7  1  0  0  0  0
  7  8  1  0  0  0  0
  8  9  2  0  0  0  0
  9 10  1  0  0  0  0
  9 11  1  0  0  0  0
M  CHG  2   1   1   8   1
M  END
>  <CHROM.1>
-80.83660598,116.01013386,23.70123140,-132.20794088,165.56777370,-84.31212257
-10.98172648,6.73598923,0.11188994,-1.65847802,-0.74870841,-2.12933966

>  <Name>


>  <RI>
0

>  <Rbt.Current_Directory>
/home/itssahil/PROJECTS/Mol_Feturizer/New_Systems/rnas/1aju

>  <Rbt.Executable>
rbdock ($Id: //depot/dev/client3/rdock/2013.1/src/exe/rbdock.cxx#4 $)

>  <Rbt.Library>
libRbt.so (2013.1, Build901 2013/11/27)

>  <Rbt.Parameter_File>
/export/apps/rDock/src/rDock_2013.1_src/data/scripts/dock_solv.prm

>  <Rbt.Receptor>
prm/blind_docking_60.prm

>  <SCORE>
-27.1944

>  <SCORE.INTER>
-34.1128

>  <SCORE.INTER.CONST>
1

>  <SCORE.INTER.POLAR>
-6.26088

>  <SCORE.INTER.ROT>
5

>  <SCORE.INTER.SOLV>
27.6929

>  <SCORE.INTER.VDW>
-18.0366

>  <SCORE.INTER.norm>
-3.10116

>  <SCORE.INTRA>
6.91842

>  <SCORE.INTRA.DIHEDRAL>
3.74826

>  <SCORE.INTRA.DIHEDRAL.0>
9.90185

>  <SCORE.INTRA.POLAR>
0

>  <SCORE.INTRA.POLAR.0>
0

>  <SCORE.INTRA.REPUL>
0.196846

>  <SCORE.INTRA.REPUL.0>
0

>  <SCORE.INTRA.SOLV>
3.1864

>  <SCORE.INTRA.SOLV.lig_0>
-53.6586

>  <SCORE.INTRA.VDW>
2.46686

>  <SCORE.INTRA.VDW.0>
-0.556525

>  <SCORE.INTRA.norm>
0.628947

>  <SCORE.RESTR>
0

>  <SCORE.RESTR.CAVITY>
0

>  <SCORE.RESTR.norm>
0

>  <SCORE.SYSTEM>
0

>  <SCORE.SYSTEM.CONST>
0

>  <SCORE.SYSTEM.DIHEDRAL>
0

>  <SCORE.SYSTEM.SOLV>
0

>  <SCORE.SYSTEM.norm>
0

>  <SCORE.heavy>
11

>  <SCORE.norm>
-2.47222

>  <RMSD>
13.854

$$$$

 OpenBabel11021811383D
libRbt.so/2013.1/901 2013/11/27
 11 10  0  0  0  0  0  0  0  0999 V2000
  -10.3024    8.3764    0.9194 N   0  3  0  0  0  0  0  0  0  0  0  0
  -11.4254    7.8326    1.7408 C   0  0  2  0  0  0  0  0  0  0  0  0
  -11.4946    8.5783    3.0843 C   0  0  0  0  0  0  0  0  0  0  0  0
  -12.5078    9.1634    3.4179 O   0  0  0  0  0  0  0  0  0  0  0  0
  -11.1960    6.3352    1.9855 C   0  0  0  0  0  0  0  0  0  0  0  0
  -10.4888    5.7194    0.7749 C   0  0  0  0  0  0  0  0  0  0  0  0
  -11.4747    5.5985   -0.3852 C   0  0  0  0  0  0  0  0  0  0  0  0
  -10.8035    4.9173   -1.5260 N   0  3  0  0  0  0  0  0  0  0  0  0
  -10.3785    5.6119   -2.5456 C   0  0  0  0  0  0  0  0  0  0  0  0
   -9.1001    5.6482   -2.8196 N   0  0  0  0  0  0  0  0  0  0  0  0
  -11.2313    6.2630   -3.2936 N   0  0  0  0  0  0  0  0  0  0  0  0
  2  1  1  6  0  0  0
  2  3  1  0  0  0  0
  2  5  1  0  0  0  0
  3  4  2  0  0  0  0
  5  6  1  0  0  0  0
  6  7  1  0  0  0  0
  7  8  1  0  0  0  0
  8  9  2  0  0  0  0
  9 10  1  0  0  0  0
  9 11  1  0  0  0  0
M  CHG  2   1   1   8   1
M  END
>  <CHROM.1>
-161.10297733,122.04531085,-32.92167309,-73.48155004,-176.29088661,-102.49831757
-10.92544796,6.75660340,0.08546454,-2.77482660,-1.33238024,3.02782067

>  <Name>


>  <RI>
0

>  <Rbt.Current_Directory>
/home/itssahil/PROJECTS/Mol_Feturizer/New_Systems/rnas/1aju

>  <Rbt.Executable>
rbdock ($Id: //depot/dev/client3/rdock/2013.1/src/exe/rbdock.cxx#4 $)

>  <Rbt.Library>
libRbt.so (2013.1, Build901 2013/11/27)

>  <Rbt.Parameter_File>
/export/apps/rDock/src/rDock_2013.1_src/data/scripts/dock_solv.prm

>  <Rbt.Receptor>
prm/blind_docking_60.prm

>  <SCORE>
-33.8712

>  <SCORE.INTER>
-36.3316

>  <SCORE.INTER.CONST>
1

>  <SCORE.INTER.POLAR>
-6.58794

>  <SCORE.INTER.ROT>
5

>  <SCORE.INTER.SOLV>
29.0927

>  <SCORE.INTER.VDW>
-18.8921

>  <SCORE.INTER.norm>
-3.30287

>  <SCORE.INTRA>
2.46035

>  <SCORE.INTRA.DIHEDRAL>
-3.12622

>  <SCORE.INTRA.DIHEDRAL.0>
9.90185

>  <SCORE.INTRA.POLAR>
0

>  <SCORE.INTRA.POLAR.0>
0

>  <SCORE.INTRA.REPUL>
0.161465

>  <SCORE.INTRA.REPUL.0>
0

>  <SCORE.INTRA.SOLV>
3.02215

>  <SCORE.INTRA.SOLV.lig_0>
-53.6586

>  <SCORE.INTRA.VDW>
1.70506

>  <SCORE.INTRA.VDW.0>
-0.556525

>  <SCORE.INTRA.norm>
0.223668

>  <SCORE.RESTR>
0

>  <SCORE.RESTR.CAVITY>
0

>  <SCORE.RESTR.norm>
0

>  <SCORE.SYSTEM>
0

>  <SCORE.SYSTEM.CONST>
0

>  <SCORE.SYSTEM.DIHEDRAL>
0

>  <SCORE.SYSTEM.SOLV>
0

>  <SCORE.SYSTEM.norm>
0

>  <SCORE.heavy>
11

>  <SCORE.norm>
-3.0792

>  <RMSD>
13.855

$$$$

 OpenBabel11021811383D
libRbt.so/2013.1/901 2013/11/27
 11 10  0  0  0  0  0  0  0  0999 V2000
  -12.1188    5.2921   -3.3767 N   0  3  0  0  0  0  0  0  0  0  0  0
  -11.6440    5.6906   -2.0175 C   0  0  2  0  0  0  0  0  0  0  0  0
  -10.1084    5.6214   -1.9629 C   0  0  0  0  0  0  0  0  0  0  0  0
   -9.4791    5.0873   -2.8568 O   0  0  0  0  0  0  0  0  0  0  0  0
  -12.2473    4.7435   -0.9717 C   0  0  0  0  0  0  0  0  0  0  0  0
  -12.2670    5.4334    0.3952 C   0  0  0  0  0  0  0  0  0  0  0  0
  -10.8521    5.4706    0.9688 C   0  0  0  0  0  0  0  0  0  0  0  0
  -10.7890    6.4983    2.0439 N   0  3  0  0  0  0  0  0  0  0  0  0
  -10.9367    7.7615    1.7521 C   0  0  0  0  0  0  0  0  0  0  0  0
  -11.9508    8.4271    2.2413 N   0  0  0  0  0  0  0  0  0  0  0  0
  -10.0678    8.3593    0.9784 N   0  0  0  0  0  0  0  0  0  0  0  0
  2  1  1  6  0  0  0
  2  3  1  0  0  0  0
  2  5  1  0  0  0  0
  3  4  2  0  0  0  0
  5  6  1  0  0  0  0
  6  7  1  0  0  0  0
  7  8  1  0  0  0  0
  8  9  2  0  0  0  0
  9 10  1  0  0  0  0
  9 11  1  0  0  0  0
M  CHG  2   1   1   8   1
M  END
>  <CHROM.1>
-54.16148565,-11.50532568,-156.82980477,-74.62662409,161.75064669,-66.21348441
-11.13329114,6.23173604,-0.28984522,1.56688757,-0.53329485,-2.07791851

>  <Name>


>  <RI>
0

>  <Rbt.Current_Directory>
/home/itssahil/PROJECTS/Mol_Feturizer/New_Systems/rnas/1aju

>  <Rbt.Executable>
rbdock ($Id: //depot/dev/client3/rdock/2013.1/src/exe/rbdock.cxx#4 $)

>  <Rbt.Library>
libRbt.so (2013.1, Build901 2013/11/27)

>  <Rbt.Parameter_File>
/export/apps/rDock/src/rDock_2013.1_src/data/scripts/dock_solv.prm

>  <Rbt.Receptor>
prm/blind_docking_100.prm

>  <SCORE>
-24.7142

>  <SCORE.INTER>
-24.5844

>  <SCORE.INTER.CONST>
1

>  <SCORE.INTER.POLAR>
-4.60556

>  <SCORE.INTER.ROT>
5

>  <SCORE.INTER.SOLV>
20.4574

>  <SCORE.INTER.VDW>
-14.7902

>  <SCORE.INTER.norm>
-2.23494

>  <SCORE.INTRA>
-0.129793

>  <SCORE.INTRA.DIHEDRAL>
-2.92252

>  <SCORE.INTRA.DIHEDRAL.0>
9.90185

>  <SCORE.INTRA.POLAR>
0

>  <SCORE.INTRA.POLAR.0>
0

>  <SCORE.INTRA.REPUL>
0

>  <SCORE.INTRA.REPUL.0>
0

>  <SCORE.INTRA.SOLV>
1.78152

>  <SCORE.INTRA.SOLV.lig_0>
-53.6586

>  <SCORE.INTRA.VDW>
0.44071

>  <SCORE.INTRA.VDW.0>
-0.556525

>  <SCORE.INTRA.norm>
-0.0117994

>  <SCORE.RESTR>
0

>  <SCORE.RESTR.CAVITY>
0

>  <SCORE.RESTR.norm>
0

>  <SCORE.SYSTEM>
0

>  <SCORE.SYSTEM.CONST>
0

>  <SCORE.SYSTEM.DIHEDRAL>
0

>  <SCORE.SYSTEM.SOLV>
0

>  <SCORE.SYSTEM.norm>
0

>  <SCORE.heavy>
11

>  <SCORE.norm>
-2.24674

>  <RMSD>
13.862

$$$$

 OpenBabel11021811383D
libRbt.so/2013.1/901 2013/11/27
 11 10  0  0  0  0  0  0  0  0999 V2000
  -11.9347    5.3528   -3.9553 N   0  3  0  0  0  0  0  0  0  0  0  0
  -11.5873    5.8205   -2.5797 C   0  0  2  0  0  0  0  0  0  0  0  0
  -10.0586    5.8924   -2.4262 C   0  0  0  0  0  0  0  0  0  0  0  0
   -9.3305    5.2486   -3.1582 O   0  0  0  0  0  0  0  0  0  0  0  0
  -12.1704    4.8438   -1.5497 C   0  0  0  0  0  0  0  0  0  0  0  0
  -12.1961    5.5073   -0.1698 C   0  0  0  0  0  0  0  0  0  0  0  0
  -10.7836    5.5337    0.4102 C   0  0  0  0  0  0  0  0  0  0  0  0
  -10.7594    6.4373    1.5929 N   0  3  0  0  0  0  0  0  0  0  0  0
  -10.9218    7.7228    1.4386 C   0  0  0  0  0  0  0  0  0  0  0  0
  -11.9565    8.3160    1.9755 N   0  0  0  0  0  0  0  0  0  0  0  0
  -10.0472    8.4145    0.7549 N   0  0  0  0  0  0  0  0  0  0  0  0
  2  1  1  6  0  0  0
  2  3  1  0  0  0  0
  2  5  1  0  0  0  0
  3  4  2  0  0  0  0
  5  6  1  0  0  0  0
  6  7  1  0  0  0  0
  7  8  1  0  0  0  0
  8  9  2  0  0  0  0
  9 10  1  0  0  0  0
  9 11  1  0  0  0  0
M  CHG  2   1   1   8   1
M  END
>  <CHROM.1>
67.20204343,-21.63054399,-163.07912870,-75.68094418,167.44860574,-67.91066034
-11.06552340,6.29262824,-0.72803497,1.55661741,-0.47731062,-2.04374935

>  <Name>


>  <RI>
0

>  <Rbt.Current_Directory>
/home/itssahil/PROJECTS/Mol_Feturizer/New_Systems/rnas/1aju

>  <Rbt.Executable>
rbdock ($Id: //depot/dev/client3/rdock/2013.1/src/exe/rbdock.cxx#4 $)

>  <Rbt.Library>
libRbt.so (2013.1, Build901 2013/11/27)

>  <Rbt.Parameter_File>
/export/apps/rDock/src/rDock_2013.1_src/data/scripts/dock_solv.prm

>  <Rbt.Receptor>
prm/blind_docking_80.prm

>  <SCORE>
-22.9804

>  <SCORE.INTER>
-23.2923

>  <SCORE.INTER.CONST>
1

>  <SCORE.INTER.POLAR>
-4.43865

>  <SCORE.INTER.ROT>
5

>  <SCORE.INTER.SOLV>
21.6582

>  <SCORE.INTER.VDW>
-14.8854

>  <SCORE.INTER.norm>
-2.11748

>  <SCORE.INTRA>
-0.102951

>  <SCORE.INTRA.DIHEDRAL>
-3.52934

>  <SCORE.INTRA.DIHEDRAL.0>
9.90185

>  <SCORE.INTRA.POLAR>
0

>  <SCORE.INTRA.POLAR.0>
0

>  <SCORE.INTRA.REPUL>
0

>  <SCORE.INTRA.REPUL.0>
0

>  <SCORE.INTRA.SOLV>
1.67795

>  <SCORE.INTRA.SOLV.lig_0>
-53.6586

>  <SCORE.INTRA.VDW>
0.822747

>  <SCORE.INTRA.VDW.0>
-0.556525

>  <SCORE.INTRA.norm>
-0.00935921

>  <SCORE.RESTR>
0.414837

>  <SCORE.RESTR.CAVITY>
0.414837

>  <SCORE.RESTR.norm>
0.0377124

>  <SCORE.SYSTEM>
0

>  <SCORE.SYSTEM.CONST>
0

>  <SCORE.SYSTEM.DIHEDRAL>
0

>  <SCORE.SYSTEM.SOLV>
0

>  <SCORE.SYSTEM.norm>
0

>  <SCORE.heavy>
11

>  <SCORE.norm>
-2.08913

>  <RMSD>
13.874

$$$$

 OpenBabel11021811383D
libRbt.so/2013.1/901 2013/11/27
 11 10  0  0  0  0  0  0  0  0999 V2000
  -10.2108    8.3909    1.6781 N   0  3  0  0  0  0  0  0  0  0  0  0
  -11.5576    7.7486    1.6062 C   0  0  2  0  0  0  0  0  0  0  0  0
  -12.4836    8.3633    2.6695 C   0  0  0  0  0  0  0  0  0  0  0  0
  -12.1154    9.3085    3.3413 O   0  0  0  0  0  0  0  0  0  0  0  0
  -11.4136    6.2401    1.8479 C   0  0  0  0  0  0  0  0  0  0  0  0
  -10.6494    5.6040    0.6833 C   0  0  0  0  0  0  0  0  0  0  0  0
  -11.5519    5.5443   -0.5474 C   0  0  0  0  0  0  0  0  0  0  0  0
  -10.8147    4.8861   -1.6606 N   0  3  0  0  0  0  0  0  0  0  0  0
  -10.3121    5.6033   -2.6279 C   0  0  0  0  0  0  0  0  0  0  0  0
   -9.0177    5.6271   -2.8142 N   0  0  0  0  0  0  0  0  0  0  0  0
  -11.1032    6.2895   -3.4115 N   0  0  0  0  0  0  0  0  0  0  0  0
  2  1  1  1  0  0  0
  2  3  1  0  0  0  0
  2  5  1  0  0  0  0
  3  4  2  0  0  0  0
  5  6  1  0  0  0  0
  6  7  1  0  0  0  0
  7  8  1  0  0  0  0
  8  9  2  0  0  0  0
  9 10  1  0  0  0  0
  9 11  1  0  0  0  0
M  CHG  2   1   1   8   1
M  END
>  <CHROM.1>
165.65296923,5.71635056,-67.13423283,-73.23780063,-178.24227002,-103.01024188
-10.98126749,6.72264898,0.05357327,-2.20396315,-1.16396891,-2.66196347

>  <Name>


>  <RI>
224

>  <Rbt.Current_Directory>
/home/itssahil/PROJECTS/Mol_Feturizer/New_Systems/rnas/1aju

>  <Rbt.Executable>
rbdock ($Id: //depot/dev/client3/rdock/2013.1/src/exe/rbdock.cxx#4 $)

>  <Rbt.Library>
libRbt.so (2013.1, Build901 2013/11/27)

>  <Rbt.Parameter_File>
/export/apps/rDock/src/rDock_2013.1_src/data/scripts/dock_solv.prm

>  <Rbt.Receptor>
prm/blind_docking_20.prm

>  <SCORE>
-30.8985

>  <SCORE.INTER>
-29.8263

>  <SCORE.INTER.CONST>
1

>  <SCORE.INTER.POLAR>
-5.95205

>  <SCORE.INTER.ROT>
5

>  <SCORE.INTER.SOLV>
29.0901

>  <SCORE.INTER.VDW>
-16.6741

>  <SCORE.INTER.norm>
-2.71148

>  <SCORE.INTRA>
-1.07219

>  <SCORE.INTRA.DIHEDRAL>
-5.47491

>  <SCORE.INTRA.DIHEDRAL.0>
9.90185

>  <SCORE.INTRA.POLAR>
0

>  <SCORE.INTRA.POLAR.0>
0

>  <SCORE.INTRA.REPUL>
0

>  <SCORE.INTRA.REPUL.0>
0

>  <SCORE.INTRA.SOLV>
2.48921

>  <SCORE.INTRA.SOLV.lig_0>
-53.6586

>  <SCORE.INTRA.VDW>
0.420662

>  <SCORE.INTRA.VDW.0>
-0.556525

>  <SCORE.INTRA.norm>
-0.0974718

>  <SCORE.RESTR>
0

>  <SCORE.RESTR.CAVITY>
0

>  <SCORE.RESTR.norm>
0

>  <SCORE.SYSTEM>
0

>  <SCORE.SYSTEM.CONST>
0

>  <SCORE.SYSTEM.DIHEDRAL>
0

>  <SCORE.SYSTEM.SOLV>
0

>  <SCORE.SYSTEM.norm>
0

>  <SCORE.heavy>
11

>  <SCORE.norm>
-2.80896

>  <RMSD>
13.881

$$$$

 OpenBabel11021811383D
libRbt.so/2013.1/901 2013/11/27
 11 10  0  0  0  0  0  0  0  0999 V2000
  -11.3761    5.8301   -4.7375 N   0  3  0  0  0  0  0  0  0  0  0  0
  -11.3788    5.2684   -3.3533 C   0  0  2  0  0  0  0  0  0  0  0  0
  -12.7259    5.5680   -2.6739 C   0  0  0  0  0  0  0  0  0  0  0  0
  -13.1587    4.8355   -1.8042 O   0  0  0  0  0  0  0  0  0  0  0  0
  -10.2355    5.8997   -2.5476 C   0  0  0  0  0  0  0  0  0  0  0  0
   -9.9070    5.0147   -1.3420 C   0  0  0  0  0  0  0  0  0  0  0  0
  -10.8405    5.3620   -0.1843 C   0  0  0  0  0  0  0  0  0  0  0  0
  -10.1074    6.2101    0.7951 N   0  3  0  0  0  0  0  0  0  0  0  0
  -10.7189    7.1929    1.3975 C   0  0  0  0  0  0  0  0  0  0  0  0
  -10.8640    7.1687    2.6971 N   0  0  0  0  0  0  0  0  0  0  0  0
  -11.1779    8.2011    0.7020 N   0  0  0  0  0  0  0  0  0  0  0  0
  2  1  1  6  0  0  0
  2  3  1  0  0  0  0
  2  5  1  0  0  0  0
  3  4  2  0  0  0  0
  5  6  1  0  0  0  0
  6  7  1  0  0  0  0
  7  8  1  0  0  0  0
  8  9  2  0  0  0  0
  9 10  1  0  0  0  0
  9 11  1  0  0  0  0
M  CHG  2   1   1   8   1
M  END
>  <CHROM.1>
46.93155264,152.34919107,-160.02375746,-85.09091542,-101.98688525,141.93263363
-11.14635184,6.07236294,-1.01284323,-1.73740882,0.03741188,1.26328187

>  <Name>


>  <RI>
0

>  <Rbt.Current_Directory>
/home/itssahil/PROJECTS/Mol_Feturizer/New_Systems/rnas/1aju

>  <Rbt.Executable>
rbdock ($Id: //depot/dev/client3/rdock/2013.1/src/exe/rbdock.cxx#4 $)

>  <Rbt.Library>
libRbt.so (2013.1, Build901 2013/11/27)

>  <Rbt.Parameter_File>
/export/apps/rDock/src/rDock_2013.1_src/data/scripts/dock_solv.prm

>  <Rbt.Receptor>
prm/blind_docking_100.prm

>  <SCORE>
-22.0359

>  <SCORE.INTER>
-24.1192

>  <SCORE.INTER.CONST>
1

>  <SCORE.INTER.POLAR>
-4.95712

>  <SCORE.INTER.ROT>
5

>  <SCORE.INTER.SOLV>
22.9662

>  <SCORE.INTER.VDW>
-14.1445

>  <SCORE.INTER.norm>
-2.19265

>  <SCORE.INTRA>
2.02459

>  <SCORE.INTRA.DIHEDRAL>
2.99008

>  <SCORE.INTRA.DIHEDRAL.0>
9.90185

>  <SCORE.INTRA.POLAR>
0

>  <SCORE.INTRA.POLAR.0>
0

>  <SCORE.INTRA.REPUL>
0

>  <SCORE.INTRA.REPUL.0>
0

>  <SCORE.INTRA.SOLV>
0.633249

>  <SCORE.INTRA.SOLV.lig_0>
-53.6586

>  <SCORE.INTRA.VDW>
0.212927

>  <SCORE.INTRA.VDW.0>
-0.556525

>  <SCORE.INTRA.norm>
0.184054

>  <SCORE.RESTR>
0.0587024

>  <SCORE.RESTR.CAVITY>
0.0587024

>  <SCORE.RESTR.norm>
0.00533658

>  <SCORE.SYSTEM>
0

>  <SCORE.SYSTEM.CONST>
0

>  <SCORE.SYSTEM.DIHEDRAL>
0

>  <SCORE.SYSTEM.SOLV>
0

>  <SCORE.SYSTEM.norm>
0

>  <SCORE.heavy>
11

>  <SCORE.norm>
-2.00326

>  <RMSD>
13.888

$$$$

 OpenBabel11021811383D
libRbt.so/2013.1/901 2013/11/27
 11 10  0  0  0  0  0  0  0  0999 V2000
  -10.2280    8.3732    1.6815 N   0  3  0  0  0  0  0  0  0  0  0  0
  -11.5495    7.6937    1.5273 C   0  0  2  0  0  0  0  0  0  0  0  0
  -12.5793    8.3412    2.4686 C   0  0  0  0  0  0  0  0  0  0  0  0
  -12.2444    9.2111    3.2506 O   0  0  0  0  0  0  0  0  0  0  0  0
  -11.3965    6.2047    1.8650 C   0  0  0  0  0  0  0  0  0  0  0  0
  -10.6915    5.4861    0.7111 C   0  0  0  0  0  0  0  0  0  0  0  0
  -11.5584    5.5631   -0.5439 C   0  0  0  0  0  0  0  0  0  0  0  0
  -10.8389    4.9136   -1.6736 N   0  3  0  0  0  0  0  0  0  0  0  0
  -10.3799    5.6351   -2.6593 C   0  0  0  0  0  0  0  0  0  0  0  0
   -9.0922    5.6858   -2.8827 N   0  0  0  0  0  0  0  0  0  0  0  0
  -11.2079    6.2985   -3.4242 N   0  0  0  0  0  0  0  0  0  0  0  0
  2  1  1  1  0  0  0
  2  3  1  0  0  0  0
  2  5  1  0  0  0  0
  3  4  2  0  0  0  0
  5  6  1  0  0  0  0
  6  7  1  0  0  0  0
  7  8  1  0  0  0  0
  8  9  2  0  0  0  0
  9 10  1  0  0  0  0
  9 11  1  0  0  0  0
M  CHG  2   1   1   8   1
M  END
>  <CHROM.1>
50.02385861,-4.47934249,-75.21838547,-63.33131828,177.57989454,-110.38833267
-11.03129493,6.70496856,0.01495872,-2.52014356,-1.27504638,-2.98608115

>  <Name>


>  <RI>
224

>  <Rbt.Current_Directory>
/home/itssahil/PROJECTS/Mol_Feturizer/New_Systems/rnas/1aju

>  <Rbt.Executable>
rbdock ($Id: //depot/dev/client3/rdock/2013.1/src/exe/rbdock.cxx#4 $)

>  <Rbt.Library>
libRbt.so (2013.1, Build901 2013/11/27)

>  <Rbt.Parameter_File>
/export/apps/rDock/src/rDock_2013.1_src/data/scripts/dock_solv.prm

>  <Rbt.Receptor>
prm/blind_docking_20.prm

>  <SCORE>
-31.8011

>  <SCORE.INTER>
-30.4605

>  <SCORE.INTER.CONST>
1

>  <SCORE.INTER.POLAR>
-6.03446

>  <SCORE.INTER.ROT>
5

>  <SCORE.INTER.SOLV>
28.6933

>  <SCORE.INTER.VDW>
-16.6899

>  <SCORE.INTER.norm>
-2.76913

>  <SCORE.INTRA>
-1.34589

>  <SCORE.INTRA.DIHEDRAL>
-5.81869

>  <SCORE.INTRA.DIHEDRAL.0>
9.90185

>  <SCORE.INTRA.POLAR>
0

>  <SCORE.INTRA.POLAR.0>
0

>  <SCORE.INTRA.REPUL>
0

>  <SCORE.INTRA.REPUL.0>
0

>  <SCORE.INTRA.SOLV>
2.33739

>  <SCORE.INTRA.SOLV.lig_0>
-53.6586

>  <SCORE.INTRA.VDW>
0.394762

>  <SCORE.INTRA.VDW.0>
-0.556525

>  <SCORE.INTRA.norm>
-0.122353

>  <SCORE.RESTR>
0.00528828

>  <SCORE.RESTR.CAVITY>
0.00528828

>  <SCORE.RESTR.norm>
0.000480753

>  <SCORE.SYSTEM>
0

>  <SCORE.SYSTEM.CONST>
0

>  <SCORE.SYSTEM.DIHEDRAL>
0

>  <SCORE.SYSTEM.SOLV>
0

>  <SCORE.SYSTEM.norm>
0

>  <SCORE.heavy>
11

>  <SCORE.norm>
-2.891

>  <RMSD>
13.889

$$$$

 OpenBabel11021811383D
libRbt.so/2013.1/901 2013/11/27
 11 10  0  0  0  0  0  0  0  0999 V2000
  -10.2762    8.4481    0.9426 N   0  3  0  0  0  0  0  0  0  0  0  0
  -11.3186    8.3124    2.0041 C   0  0  2  0  0  0  0  0  0  0  0  0
  -10.8484    9.0189    3.2869 C   0  0  0  0  0  0  0  0  0  0  0  0
   -9.7537    9.5473    3.3387 O   0  0  0  0  0  0  0  0  0  0  0  0
  -11.5635    6.8242    2.2870 C   0  0  0  0  0  0  0  0  0  0  0  0
  -12.0539    6.1329    1.0117 C   0  0  0  0  0  0  0  0  0  0  0  0
  -11.7490    4.6385    1.0916 C   0  0  0  0  0  0  0  0  0  0  0  0
  -11.3747    4.1446   -0.2619 N   0  3  0  0  0  0  0  0  0  0  0  0
  -11.0563    4.9905   -1.2031 C   0  0  0  0  0  0  0  0  0  0  0  0
   -9.8509    4.9743   -1.7105 N   0  0  0  0  0  0  0  0  0  0  0  0
  -11.9439    5.8457   -1.6405 N   0  0  0  0  0  0  0  0  0  0  0  0
  2  1  1  6  0  0  0
  2  3  1  0  0  0  0
  2  5  1  0  0  0  0
  3  4  2  0  0  0  0
  5  6  1  0  0  0  0
  6  7  1  0  0  0  0
  7  8  1  0  0  0  0
  8  9  2  0  0  0  0
  9 10  1  0  0  0  0
  9 11  1  0  0  0  0
M  CHG  2   1   1   8   1
M  END
>  <CHROM.1>
68.07362791,-1.92718963,-60.47680912,156.56026196,-143.63353938,15.46024444
-11.03195349,6.64320461,0.78765757,-1.37269502,-0.94816004,-2.23066949

>  <Name>


>  <RI>
0

>  <Rbt.Current_Directory>
/home/itssahil/PROJECTS/Mol_Feturizer/New_Systems/rnas/1aju

>  <Rbt.Executable>
rbdock ($Id: //depot/dev/client3/rdock/2013.1/src/exe/rbdock.cxx#4 $)

>  <Rbt.Library>
libRbt.so (2013.1, Build901 2013/11/27)

>  <Rbt.Parameter_File>
/export/apps/rDock/src/rDock_2013.1_src/data/scripts/dock_solv.prm

>  <Rbt.Receptor>
prm/blind_docking_60.prm

>  <SCORE>
-27.4081

>  <SCORE.INTER>
-33.6787

>  <SCORE.INTER.CONST>
1

>  <SCORE.INTER.POLAR>
-6.57073

>  <SCORE.INTER.ROT>
5

>  <SCORE.INTER.SOLV>
25.5796

>  <SCORE.INTER.VDW>
-16.0099

>  <SCORE.INTER.norm>
-3.0617

>  <SCORE.INTRA>
6.20934

>  <SCORE.INTRA.DIHEDRAL>
-1.05694

>  <SCORE.INTRA.DIHEDRAL.0>
9.90185

>  <SCORE.INTRA.POLAR>
0

>  <SCORE.INTRA.POLAR.0>
0

>  <SCORE.INTRA.REPUL>
0.121763

>  <SCORE.INTRA.REPUL.0>
0

>  <SCORE.INTRA.SOLV>
4.59118

>  <SCORE.INTRA.SOLV.lig_0>
-53.6586

>  <SCORE.INTRA.VDW>
3.83341

>  <SCORE.INTRA.VDW.0>
-0.556525

>  <SCORE.INTRA.norm>
0.564485

>  <SCORE.RESTR>
0.0612615

>  <SCORE.RESTR.CAVITY>
0.0612615

>  <SCORE.RESTR.norm>
0.00556922

>  <SCORE.SYSTEM>
0

>  <SCORE.SYSTEM.CONST>
0

>  <SCORE.SYSTEM.DIHEDRAL>
0

>  <SCORE.SYSTEM.SOLV>
0

>  <SCORE.SYSTEM.norm>
0

>  <SCORE.heavy>
11

>  <SCORE.norm>
-2.49165

>  <RMSD>
13.891

$$$$

 OpenBabel11021811383D
libRbt.so/2013.1/901 2013/11/27
 11 10  0  0  0  0  0  0  0  0999 V2000
   -9.9420    5.9976   -4.0517 N   0  3  0  0  0  0  0  0  0  0  0  0
  -10.8284    5.2930   -3.0774 C   0  0  2  0  0  0  0  0  0  0  0  0
  -12.3009    5.5981   -3.4001 C   0  0  0  0  0  0  0  0  0  0  0  0
  -12.6254    5.9916   -4.5047 O   0  0  0  0  0  0  0  0  0  0  0  0
  -10.4962    5.7659   -1.6558 C   0  0  0  0  0  0  0  0  0  0  0  0
  -10.9042    4.6880   -0.6475 C   0  0  0  0  0  0  0  0  0  0  0  0
  -11.5425    5.3468    0.5736 C   0  0  0  0  0  0  0  0  0  0  0  0
  -10.4749    5.9607    1.4098 N   0  3  0  0  0  0  0  0  0  0  0  0
  -10.5635    7.2116    1.7707 C   0  0  0  0  0  0  0  0  0  0  0  0
  -10.6589    7.5167    3.0389 N   0  0  0  0  0  0  0  0  0  0  0  0
  -10.5493    8.1554    0.8653 N   0  0  0  0  0  0  0  0  0  0  0  0
  2  1  1  6  0  0  0
  2  3  1  0  0  0  0
  2  5  1  0  0  0  0
  3  4  2  0  0  0  0
  5  6  1  0  0  0  0
  6  7  1  0  0  0  0
  7  8  1  0  0  0  0
  8  9  2  0  0  0  0
  9 10  1  0  0  0  0
  9 11  1  0  0  0  0
M  CHG  2   1   1   8   1
M  END
>  <CHROM.1>
46.03496809,20.43786898,-155.44640404,-139.09331406,-75.63744780,127.60071185
-10.96711888,6.17630713,-0.90370656,-2.16177986,1.33810004,1.92057386

>  <Name>


>  <RI>
0

>  <Rbt.Current_Directory>
/home/itssahil/PROJECTS/Mol_Feturizer/New_Systems/rnas/1aju

>  <Rbt.Executable>
rbdock ($Id: //depot/dev/client3/rdock/2013.1/src/exe/rbdock.cxx#4 $)

>  <Rbt.Library>
libRbt.so (2013.1, Build901 2013/11/27)

>  <Rbt.Parameter_File>
/export/apps/rDock/src/rDock_2013.1_src/data/scripts/dock_solv.prm

>  <Rbt.Receptor>
prm/blind_docking_40.prm

>  <SCORE>
-23.9013

>  <SCORE.INTER>
-25.4191

>  <SCORE.INTER.CONST>
1

>  <SCORE.INTER.POLAR>
-6.21605

>  <SCORE.INTER.ROT>
5

>  <SCORE.INTER.SOLV>
29.1806

>  <SCORE.INTER.VDW>
-12.8861

>  <SCORE.INTER.norm>
-2.31083

>  <SCORE.INTRA>
1.47096

>  <SCORE.INTRA.DIHEDRAL>
1.68153

>  <SCORE.INTRA.DIHEDRAL.0>
9.90185

>  <SCORE.INTRA.POLAR>
0

>  <SCORE.INTRA.POLAR.0>
0

>  <SCORE.INTRA.REPUL>
0

>  <SCORE.INTRA.REPUL.0>
0

>  <SCORE.INTRA.SOLV>
1.84272

>  <SCORE.INTRA.SOLV.lig_0>
-53.6586

>  <SCORE.INTRA.VDW>
-0.29117

>  <SCORE.INTRA.VDW.0>
-0.556525

>  <SCORE.INTRA.norm>
0.133723

>  <SCORE.RESTR>
0.0468804

>  <SCORE.RESTR.CAVITY>
0.0468804

>  <SCORE.RESTR.norm>
0.00426185

>  <SCORE.SYSTEM>
0

>  <SCORE.SYSTEM.CONST>
0

>  <SCORE.SYSTEM.DIHEDRAL>
0

>  <SCORE.SYSTEM.SOLV>
0

>  <SCORE.SYSTEM.norm>
0

>  <SCORE.heavy>
11

>  <SCORE.norm>
-2.17284

>  <RMSD>
13.897

$$$$

 OpenBabel11021811383D
libRbt.so/2013.1/901 2013/11/27
 11 10  0  0  0  0  0  0  0  0999 V2000
  -10.1692    8.4072    1.3952 N   0  3  0  0  0  0  0  0  0  0  0  0
  -11.5206    7.7873    1.2501 C   0  0  2  0  0  0  0  0  0  0  0  0
  -12.5417    8.5631    2.0994 C   0  0  0  0  0  0  0  0  0  0  0  0
  -12.1762    9.2519    3.0334 O   0  0  0  0  0  0  0  0  0  0  0  0
  -11.4601    6.3253    1.7121 C   0  0  0  0  0  0  0  0  0  0  0  0
  -10.7699    5.4763    0.6408 C   0  0  0  0  0  0  0  0  0  0  0  0
  -11.6336    5.4424   -0.6184 C   0  0  0  0  0  0  0  0  0  0  0  0
  -10.8510    4.8353   -1.7297 N   0  3  0  0  0  0  0  0  0  0  0  0
  -10.3586    5.5906   -2.6730 C   0  0  0  0  0  0  0  0  0  0  0  0
   -9.0629    5.6674   -2.8338 N   0  0  0  0  0  0  0  0  0  0  0  0
  -11.1609    6.2617   -3.4583 N   0  0  0  0  0  0  0  0  0  0  0  0
  2  1  1  1  0  0  0
  2  3  1  0  0  0  0
  2  5  1  0  0  0  0
  3  4  2  0  0  0  0
  5  6  1  0  0  0  0
  6  7  1  0  0  0  0
  7  8  1  0  0  0  0
  8  9  2  0  0  0  0
  9 10  1  0  0  0  0
  9 11  1  0  0  0  0
M  CHG  2   1   1   8   1
M  END
>  <CHROM.1>
169.79882314,-21.48829539,-75.63882858,-65.97410910,169.59806043,-104.56393699
-11.02335361,6.72116451,-0.12052837,-2.23684159,-1.17388439,-2.73094668

>  <Name>


>  <RI>
0

>  <Rbt.Current_Directory>
/home/itssahil/PROJECTS/Mol_Feturizer/New_Systems/rnas/1aju

>  <Rbt.Executable>
rbdock ($Id: //depot/dev/client3/rdock/2013.1/src/exe/rbdock.cxx#4 $)

>  <Rbt.Library>
libRbt.so (2013.1, Build901 2013/11/27)

>  <Rbt.Parameter_File>
/export/apps/rDock/src/rDock_2013.1_src/data/scripts/dock_solv.prm

>  <Rbt.Receptor>
prm/blind_docking_40.prm

>  <SCORE>
-30.0594

>  <SCORE.INTER>
-29.5007

>  <SCORE.INTER.CONST>
1

>  <SCORE.INTER.POLAR>
-5.908

>  <SCORE.INTER.ROT>
5

>  <SCORE.INTER.SOLV>
29.6094

>  <SCORE.INTER.VDW>
-16.7769

>  <SCORE.INTER.norm>
-2.68188

>  <SCORE.INTRA>
-0.939011

>  <SCORE.INTRA.DIHEDRAL>
-4.542

>  <SCORE.INTRA.DIHEDRAL.0>
9.90185

>  <SCORE.INTRA.POLAR>
0

>  <SCORE.INTRA.POLAR.0>
0

>  <SCORE.INTRA.REPUL>
0

>  <SCORE.INTRA.REPUL.0>
0

>  <SCORE.INTRA.SOLV>
2.28662

>  <SCORE.INTRA.SOLV.lig_0>
-53.6586

>  <SCORE.INTRA.VDW>
0.188681

>  <SCORE.INTRA.VDW.0>
-0.556525

>  <SCORE.INTRA.norm>
-0.0853647

>  <SCORE.RESTR>
0.380305

>  <SCORE.RESTR.CAVITY>
0.380305

>  <SCORE.RESTR.norm>
0.0345732

>  <SCORE.SYSTEM>
0

>  <SCORE.SYSTEM.CONST>
0

>  <SCORE.SYSTEM.DIHEDRAL>
0

>  <SCORE.SYSTEM.SOLV>
0

>  <SCORE.SYSTEM.norm>
0

>  <SCORE.heavy>
11

>  <SCORE.norm>
-2.73267

>  <RMSD>
13.902

$$$$

 OpenBabel11021811383D
libRbt.so/2013.1/901 2013/11/27
 11 10  0  0  0  0  0  0  0  0999 V2000
  -10.2259    8.3482    1.6060 N   0  3  0  0  0  0  0  0  0  0  0  0
  -11.5571    7.6908    1.4407 C   0  0  2  0  0  0  0  0  0  0  0  0
  -12.6006    8.4031    2.3178 C   0  0  0  0  0  0  0  0  0  0  0  0
  -13.7679    8.0609    2.2952 O   0  0  0  0  0  0  0  0  0  0  0  0
  -11.4488    6.2161    1.8509 C   0  0  0  0  0  0  0  0  0  0  0  0
  -10.7709    5.4202    0.7321 C   0  0  0  0  0  0  0  0  0  0  0  0
  -11.6018    5.5257   -0.5451 C   0  0  0  0  0  0  0  0  0  0  0  0
  -10.8600    4.8816   -1.6635 N   0  3  0  0  0  0  0  0  0  0  0  0
  -10.3998    5.6054   -2.6469 C   0  0  0  0  0  0  0  0  0  0  0  0
   -9.1103    5.6734   -2.8555 N   0  0  0  0  0  0  0  0  0  0  0  0
  -11.2280    6.2537   -3.4243 N   0  0  0  0  0  0  0  0  0  0  0  0
  2  1  1  1  0  0  0
  2  3  1  0  0  0  0
  2  5  1  0  0  0  0
  3  4  2  0  0  0  0
  5  6  1  0  0  0  0
  6  7  1  0  0  0  0
  7  8  1  0  0  0  0
  8  9  2  0  0  0  0
  9 10  1  0  0  0  0
  9 11  1  0  0  0  0
M  CHG  2   1   1   8   1
M  END
>  <CHROM.1>
175.68765814,177.11234989,-77.28083847,-60.26390587,173.61343669,-112.47006351
-11.20806460,6.57318576,-0.10259028,-1.92294808,0.00097780,-2.01945279

>  <Name>


>  <RI>
0

>  <Rbt.Current_Directory>
/home/itssahil/PROJECTS/Mol_Feturizer/New_Systems/rnas/1aju

>  <Rbt.Executable>
rbdock ($Id: //depot/dev/client3/rdock/2013.1/src/exe/rbdock.cxx#4 $)

>  <Rbt.Library>
libRbt.so (2013.1, Build901 2013/11/27)

>  <Rbt.Parameter_File>
/export/apps/rDock/src/rDock_2013.1_src/data/scripts/dock_solv.prm

>  <Rbt.Receptor>
prm/blind_docking_60.prm

>  <SCORE>
-30.9467

>  <SCORE.INTER>
-30.3672

>  <SCORE.INTER.CONST>
1

>  <SCORE.INTER.POLAR>
-6.02136

>  <SCORE.INTER.ROT>
5

>  <SCORE.INTER.SOLV>
28.374

>  <SCORE.INTER.VDW>
-16.5649

>  <SCORE.INTER.norm>
-2.76065

>  <SCORE.INTRA>
-0.579486

>  <SCORE.INTRA.DIHEDRAL>
-3.03743

>  <SCORE.INTRA.DIHEDRAL.0>
9.90185

>  <SCORE.INTRA.POLAR>
0

>  <SCORE.INTRA.POLAR.0>
0

>  <SCORE.INTRA.REPUL>
0

>  <SCORE.INTRA.REPUL.0>
0

>  <SCORE.INTRA.SOLV>
1.05645

>  <SCORE.INTRA.SOLV.lig_0>
-53.6586

>  <SCORE.INTRA.VDW>
0.411

>  <SCORE.INTRA.VDW.0>
-0.556525

>  <SCORE.INTRA.norm>
-0.0526806

>  <SCORE.RESTR>
0

>  <SCORE.RESTR.CAVITY>
0

>  <SCORE.RESTR.norm>
0

>  <SCORE.SYSTEM>
0

>  <SCORE.SYSTEM.CONST>
0

>  <SCORE.SYSTEM.DIHEDRAL>
0

>  <SCORE.SYSTEM.SOLV>
0

>  <SCORE.SYSTEM.norm>
0

>  <SCORE.heavy>
11

>  <SCORE.norm>
-2.81333

>  <RMSD>
13.902

$$$$

 OpenBabel11021811383D
libRbt.so/2013.1/901 2013/11/27
 11 10  0  0  0  0  0  0  0  0999 V2000
  -10.2243    8.3398    1.6213 N   0  3  0  0  0  0  0  0  0  0  0  0
  -11.5662    7.6918    1.5162 C   0  0  2  0  0  0  0  0  0  0  0  0
  -12.5608    8.4030    2.4494 C   0  0  0  0  0  0  0  0  0  0  0  0
  -12.1995    9.3279    3.1523 O   0  0  0  0  0  0  0  0  0  0  0  0
  -11.4475    6.2130    1.9085 C   0  0  0  0  0  0  0  0  0  0  0  0
  -10.7733    5.4338    0.7757 C   0  0  0  0  0  0  0  0  0  0  0  0
  -11.6727    5.4467   -0.4585 C   0  0  0  0  0  0  0  0  0  0  0  0
  -10.9462    4.8209   -1.5972 N   0  3  0  0  0  0  0  0  0  0  0  0
  -10.5122    5.5587   -2.5822 C   0  0  0  0  0  0  0  0  0  0  0  0
   -9.2278    5.6416   -2.8148 N   0  0  0  0  0  0  0  0  0  0  0  0
  -11.3616    6.2062   -3.3371 N   0  0  0  0  0  0  0  0  0  0  0  0
  2  1  1  1  0  0  0
  2  3  1  0  0  0  0
  2  5  1  0  0  0  0
  3  4  2  0  0  0  0
  5  6  1  0  0  0  0
  6  7  1  0  0  0  0
  7  8  1  0  0  0  0
  8  9  2  0  0  0  0
  9 10  1  0  0  0  0
  9 11  1  0  0  0  0
M  CHG  2   1   1   8   1
M  END
>  <CHROM.1>
170.68892559,-1.52535624,-74.77231061,-65.20082450,173.71612729,-108.15160529
-11.09670162,6.67580667,0.04139553,-2.40410592,-1.27690793,-2.90140670

>  <Name>


>  <RI>
0

>  <Rbt.Current_Directory>
/home/itssahil/PROJECTS/Mol_Feturizer/New_Systems/rnas/1aju

>  <Rbt.Executable>
rbdock ($Id: //depot/dev/client3/rdock/2013.1/src/exe/rbdock.cxx#4 $)

>  <Rbt.Library>
libRbt.so (2013.1, Build901 2013/11/27)

>  <Rbt.Parameter_File>
/export/apps/rDock/src/rDock_2013.1_src/data/scripts/dock_solv.prm

>  <Rbt.Receptor>
prm/blind_docking_100.prm

>  <SCORE>
-31.4857

>  <SCORE.INTER>
-30.1973

>  <SCORE.INTER.CONST>
1

>  <SCORE.INTER.POLAR>
-5.88345

>  <SCORE.INTER.ROT>
5

>  <SCORE.INTER.SOLV>
28.0139

>  <SCORE.INTER.VDW>
-16.7914

>  <SCORE.INTER.norm>
-2.74521

>  <SCORE.INTRA>
-1.38827

>  <SCORE.INTRA.DIHEDRAL>
-5.72513

>  <SCORE.INTRA.DIHEDRAL.0>
9.90185

>  <SCORE.INTRA.POLAR>
0

>  <SCORE.INTRA.POLAR.0>
0

>  <SCORE.INTRA.REPUL>
0

>  <SCORE.INTRA.REPUL.0>
0

>  <SCORE.INTRA.SOLV>
2.34073

>  <SCORE.INTRA.SOLV.lig_0>
-53.6586

>  <SCORE.INTRA.VDW>
0.30393

>  <SCORE.INTRA.VDW.0>
-0.556525

>  <SCORE.INTRA.norm>
-0.126206

>  <SCORE.RESTR>
0.0999326

>  <SCORE.RESTR.CAVITY>
0.0999326

>  <SCORE.RESTR.norm>
0.00908478

>  <SCORE.SYSTEM>
0

>  <SCORE.SYSTEM.CONST>
0

>  <SCORE.SYSTEM.DIHEDRAL>
0

>  <SCORE.SYSTEM.SOLV>
0

>  <SCORE.SYSTEM.norm>
0

>  <SCORE.heavy>
11

>  <SCORE.norm>
-2.86233

>  <RMSD>
13.908

$$$$

 OpenBabel11021811383D
libRbt.so/2013.1/901 2013/11/27
 11 10  0  0  0  0  0  0  0  0999 V2000
  -10.1968    8.4035    1.6477 N   0  3  0  0  0  0  0  0  0  0  0  0
  -11.5670    7.8134    1.5707 C   0  0  2  0  0  0  0  0  0  0  0  0
  -12.5011    8.5394    2.5536 C   0  0  0  0  0  0  0  0  0  0  0  0
  -12.0468    9.1864    3.4785 O   0  0  0  0  0  0  0  0  0  0  0  0
  -11.4969    6.3212    1.9218 C   0  0  0  0  0  0  0  0  0  0  0  0
  -10.7846    5.5622    0.7987 C   0  0  0  0  0  0  0  0  0  0  0  0
  -11.6787    5.5248   -0.4389 C   0  0  0  0  0  0  0  0  0  0  0  0
  -10.9445    4.8602   -1.5504 N   0  3  0  0  0  0  0  0  0  0  0  0
  -10.4708    5.5687   -2.5385 C   0  0  0  0  0  0  0  0  0  0  0  0
   -9.1800    5.6150   -2.7445 N   0  0  0  0  0  0  0  0  0  0  0  0
  -11.2870    6.2237   -3.3230 N   0  0  0  0  0  0  0  0  0  0  0  0
  2  1  1  1  0  0  0
  2  3  1  0  0  0  0
  2  5  1  0  0  0  0
  3  4  2  0  0  0  0
  5  6  1  0  0  0  0
  6  7  1  0  0  0  0
  7  8  1  0  0  0  0
  8  9  2  0  0  0  0
  9 10  1  0  0  0  0
  9 11  1  0  0  0  0
M  CHG  2   1   1   8   1
M  END
>  <CHROM.1>
166.23744890,-19.35383690,-70.01661050,-70.22571273,176.49444760,-105.87300380
-11.06393429,6.72006607,0.11067790,-2.06761370,-1.12200155,-2.53406743

>  <Name>


>  <RI>
0

>  <Rbt.Current_Directory>
/home/itssahil/PROJECTS/Mol_Feturizer/New_Systems/rnas/1aju

>  <Rbt.Executable>
rbdock ($Id: //depot/dev/client3/rdock/2013.1/src/exe/rbdock.cxx#4 $)

>  <Rbt.Library>
libRbt.so (2013.1, Build901 2013/11/27)

>  <Rbt.Parameter_File>
/export/apps/rDock/src/rDock_2013.1_src/data/scripts/dock_solv.prm

>  <Rbt.Receptor>
prm/blind_docking_100.prm

>  <SCORE>
-30.7221

>  <SCORE.INTER>
-29.8308

>  <SCORE.INTER.CONST>
1

>  <SCORE.INTER.POLAR>
-5.72798

>  <SCORE.INTER.ROT>
5

>  <SCORE.INTER.SOLV>
28.1006

>  <SCORE.INTER.VDW>
-17.0942

>  <SCORE.INTER.norm>
-2.71189

>  <SCORE.INTRA>
-0.986191

>  <SCORE.INTRA.DIHEDRAL>
-5.02229

>  <SCORE.INTRA.DIHEDRAL.0>
9.90185

>  <SCORE.INTRA.POLAR>
0

>  <SCORE.INTRA.POLAR.0>
0

>  <SCORE.INTRA.REPUL>
0

>  <SCORE.INTRA.REPUL.0>
0

>  <SCORE.INTRA.SOLV>
2.39716

>  <SCORE.INTRA.SOLV.lig_0>
-53.6586

>  <SCORE.INTRA.VDW>
0.326375

>  <SCORE.INTRA.VDW.0>
-0.556525

>  <SCORE.INTRA.norm>
-0.0896537

>  <SCORE.RESTR>
0.0948986

>  <SCORE.RESTR.CAVITY>
0.0948986

>  <SCORE.RESTR.norm>
0.00862715

>  <SCORE.SYSTEM>
0

>  <SCORE.SYSTEM.CONST>
0

>  <SCORE.SYSTEM.DIHEDRAL>
0

>  <SCORE.SYSTEM.SOLV>
0

>  <SCORE.SYSTEM.norm>
0

>  <SCORE.heavy>
11

>  <SCORE.norm>
-2.79292

>  <RMSD>
13.929

$$$$

 OpenBabel11021811383D
libRbt.so/2013.1/901 2013/11/27
 11 10  0  0  0  0  0  0  0  0999 V2000
  -10.1894    8.4176    1.6094 N   0  3  0  0  0  0  0  0  0  0  0  0
  -11.5351    7.7775    1.5047 C   0  0  2  0  0  0  0  0  0  0  0  0
  -12.5035    8.4386    2.5001 C   0  0  0  0  0  0  0  0  0  0  0  0
  -13.7025    8.4375    2.2933 O   0  0  0  0  0  0  0  0  0  0  0  0
  -11.4097    6.2797    1.8140 C   0  0  0  0  0  0  0  0  0  0  0  0
  -10.6820    5.5770    0.6644 C   0  0  0  0  0  0  0  0  0  0  0  0
  -11.5910    5.5298   -0.5620 C   0  0  0  0  0  0  0  0  0  0  0  0
  -10.8573    4.8895   -1.6879 N   0  3  0  0  0  0  0  0  0  0  0  0
  -10.4013    5.6169   -2.6706 C   0  0  0  0  0  0  0  0  0  0  0  0
   -9.1130    5.6831   -2.8865 N   0  0  0  0  0  0  0  0  0  0  0  0
  -11.2327    6.2708   -3.4399 N   0  0  0  0  0  0  0  0  0  0  0  0
  2  1  1  1  0  0  0
  2  3  1  0  0  0  0
  2  5  1  0  0  0  0
  3  4  2  0  0  0  0
  5  6  1  0  0  0  0
  6  7  1  0  0  0  0
  7  8  1  0  0  0  0
  8  9  2  0  0  0  0
  9 10  1  0  0  0  0
  9 11  1  0  0  0  0
M  CHG  2   1   1   8   1
M  END
>  <CHROM.1>
-72.20289714,154.01795224,-70.99112568,-70.76706915,177.97180547,-105.27130383
-11.17638283,6.65197244,-0.10205956,-1.90936302,0.15413180,-1.99164172

>  <Name>


>  <RI>
0

>  <Rbt.Current_Directory>
/home/itssahil/PROJECTS/Mol_Feturizer/New_Systems/rnas/1aju

>  <Rbt.Executable>
rbdock ($Id: //depot/dev/client3/rdock/2013.1/src/exe/rbdock.cxx#4 $)

>  <Rbt.Library>
libRbt.so (2013.1, Build901 2013/11/27)

>  <Rbt.Parameter_File>
/export/apps/rDock/src/rDock_2013.1_src/data/scripts/dock_solv.prm

>  <Rbt.Receptor>
prm/blind_docking_60.prm

>  <SCORE>
-31.1614

>  <SCORE.INTER>
-29.8878

>  <SCORE.INTER.CONST>
1

>  <SCORE.INTER.POLAR>
-5.96502

>  <SCORE.INTER.ROT>
5

>  <SCORE.INTER.SOLV>
28.8243

>  <SCORE.INTER.VDW>
-16.5833

>  <SCORE.INTER.norm>
-2.71708

>  <SCORE.INTRA>
-1.28304

>  <SCORE.INTRA.DIHEDRAL>
-4.00099

>  <SCORE.INTRA.DIHEDRAL.0>
9.90185

>  <SCORE.INTRA.POLAR>
0

>  <SCORE.INTRA.POLAR.0>
0

>  <SCORE.INTRA.REPUL>
0

>  <SCORE.INTRA.REPUL.0>
0

>  <SCORE.INTRA.SOLV>
1.14898

>  <SCORE.INTRA.SOLV.lig_0>
-53.6586

>  <SCORE.INTRA.VDW>
0.142958

>  <SCORE.INTRA.VDW.0>
-0.556525

>  <SCORE.INTRA.norm>
-0.11664

>  <SCORE.RESTR>
0.00953097

>  <SCORE.RESTR.CAVITY>
0.00953097

>  <SCORE.RESTR.norm>
0.000866452

>  <SCORE.SYSTEM>
0

>  <SCORE.SYSTEM.CONST>
0

>  <SCORE.SYSTEM.DIHEDRAL>
0

>  <SCORE.SYSTEM.SOLV>
0

>  <SCORE.SYSTEM.norm>
0

>  <SCORE.heavy>
11

>  <SCORE.norm>
-2.83285

>  <RMSD>
13.941

$$$$

 OpenBabel11021811383D
libRbt.so/2013.1/901 2013/11/27
 11 10  0  0  0  0  0  0  0  0999 V2000
  -10.2578    7.5680    2.1847 N   0  3  0  0  0  0  0  0  0  0  0  0
  -11.5957    7.5276    1.5212 C   0  0  2  0  0  0  0  0  0  0  0  0
  -12.5590    8.4905    2.2357 C   0  0  0  0  0  0  0  0  0  0  0  0
  -13.7494    8.2462    2.2958 O   0  0  0  0  0  0  0  0  0  0  0  0
  -12.1478    6.0970    1.5798 C   0  0  0  0  0  0  0  0  0  0  0  0
  -11.4370    5.2290    0.5377 C   0  0  0  0  0  0  0  0  0  0  0  0
  -11.8795    5.6475   -0.8628 C   0  0  0  0  0  0  0  0  0  0  0  0
  -11.0310    4.9532   -1.8697 N   0  3  0  0  0  0  0  0  0  0  0  0
  -10.4419    5.6361   -2.8128 C   0  0  0  0  0  0  0  0  0  0  0  0
   -9.1357    5.6683   -2.8724 N   0  0  0  0  0  0  0  0  0  0  0  0
  -11.1579    6.2793   -3.6983 N   0  0  0  0  0  0  0  0  0  0  0  0
  2  1  1  1  0  0  0
  2  3  1  0  0  0  0
  2  5  1  0  0  0  0
  3  4  2  0  0  0  0
  5  6  1  0  0  0  0
  6  7  1  0  0  0  0
  7  8  1  0  0  0  0
  8  9  2  0  0  0  0
  9 10  1  0  0  0  0
  9 11  1  0  0  0  0
M  CHG  2   1   1   8   1
M  END
>  <CHROM.1>
79.51371107,-148.11615741,-76.40797618,-70.36330196,171.14475639,-128.70614760
-11.36742166,6.49421197,-0.16790962,-1.91514346,0.20019109,-1.90073549

>  <Name>


>  <RI>
0

>  <Rbt.Current_Directory>
/home/itssahil/PROJECTS/Mol_Feturizer/New_Systems/rnas/1aju

>  <Rbt.Executable>
rbdock ($Id: //depot/dev/client3/rdock/2013.1/src/exe/rbdock.cxx#4 $)

>  <Rbt.Library>
libRbt.so (2013.1, Build901 2013/11/27)

>  <Rbt.Parameter_File>
/export/apps/rDock/src/rDock_2013.1_src/data/scripts/dock_solv.prm

>  <Rbt.Receptor>
prm/blind_docking_100.prm

>  <SCORE>
-27.1498

>  <SCORE.INTER>
-27.7397

>  <SCORE.INTER.CONST>
1

>  <SCORE.INTER.POLAR>
-6.05484

>  <SCORE.INTER.ROT>
5

>  <SCORE.INTER.SOLV>
26.7246

>  <SCORE.INTER.VDW>
-14.1518

>  <SCORE.INTER.norm>
-2.52179

>  <SCORE.INTRA>
-0.376043

>  <SCORE.INTRA.DIHEDRAL>
-3.27302

>  <SCORE.INTRA.DIHEDRAL.0>
9.90185

>  <SCORE.INTRA.POLAR>
0

>  <SCORE.INTRA.POLAR.0>
0

>  <SCORE.INTRA.REPUL>
0

>  <SCORE.INTRA.REPUL.0>
0

>  <SCORE.INTRA.SOLV>
1.04929

>  <SCORE.INTRA.SOLV.lig_0>
-53.6586

>  <SCORE.INTRA.VDW>
0.735824

>  <SCORE.INTRA.VDW.0>
-0.556525

>  <SCORE.INTRA.norm>
-0.0341857

>  <SCORE.RESTR>
0.9659

>  <SCORE.RESTR.CAVITY>
0.9659

>  <SCORE.RESTR.norm>
0.0878091

>  <SCORE.SYSTEM>
0

>  <SCORE.SYSTEM.CONST>
0

>  <SCORE.SYSTEM.DIHEDRAL>
0

>  <SCORE.SYSTEM.SOLV>
0

>  <SCORE.SYSTEM.norm>
0

>  <SCORE.heavy>
11

>  <SCORE.norm>
-2.46817

>  <RMSD>
13.957

$$$$

 OpenBabel11021811383D
libRbt.so/2013.1/901 2013/11/27
 11 10  0  0  0  0  0  0  0  0999 V2000
  -12.4654    8.2611    0.9522 N   0  3  0  0  0  0  0  0  0  0  0  0
  -12.2643    7.1040    1.8755 C   0  0  2  0  0  0  0  0  0  0  0  0
  -12.1716    7.6071    3.3260 C   0  0  0  0  0  0  0  0  0  0  0  0
  -12.3069    8.7886    3.5829 O   0  0  0  0  0  0  0  0  0  0  0  0
  -10.9724    6.3691    1.4937 C   0  0  0  0  0  0  0  0  0  0  0  0
  -11.3129    5.1330    0.6564 C   0  0  0  0  0  0  0  0  0  0  0  0
  -11.7986    5.5696   -0.7242 C   0  0  0  0  0  0  0  0  0  0  0  0
  -10.9565    4.9190   -1.7651 N   0  3  0  0  0  0  0  0  0  0  0  0
  -10.4064    5.6369   -2.7057 C   0  0  0  0  0  0  0  0  0  0  0  0
   -9.1032    5.7035   -2.7940 N   0  0  0  0  0  0  0  0  0  0  0  0
  -11.1584    6.2808   -3.5604 N   0  0  0  0  0  0  0  0  0  0  0  0
  2  1  1  6  0  0  0
  2  3  1  0  0  0  0
  2  5  1  0  0  0  0
  3  4  2  0  0  0  0
  5  6  1  0  0  0  0
  6  7  1  0  0  0  0
  7  8  1  0  0  0  0
  8  9  2  0  0  0  0
  9 10  1  0  0  0  0
  9 11  1  0  0  0  0
M  CHG  2   1   1   8   1
M  END
>  <CHROM.1>
165.47564614,2.53841302,-99.48596657,70.81275516,124.15474231,-128.66142103
-11.35396260,6.53005967,-0.00565228,2.36576842,-1.15043030,1.92034856

>  <Name>


>  <RI>
224

>  <Rbt.Current_Directory>
/home/itssahil/PROJECTS/Mol_Feturizer/New_Systems/rnas/1aju

>  <Rbt.Executable>
rbdock ($Id: //depot/dev/client3/rdock/2013.1/src/exe/rbdock.cxx#4 $)

>  <Rbt.Library>
libRbt.so (2013.1, Build901 2013/11/27)

>  <Rbt.Parameter_File>
/export/apps/rDock/src/rDock_2013.1_src/data/scripts/dock_solv.prm

>  <Rbt.Receptor>
prm/blind_docking_20.prm

>  <SCORE>
-24.1039

>  <SCORE.INTER>
-27.3519

>  <SCORE.INTER.CONST>
1

>  <SCORE.INTER.POLAR>
-5.60144

>  <SCORE.INTER.ROT>
5

>  <SCORE.INTER.SOLV>
23.9475

>  <SCORE.INTER.VDW>
-14.479

>  <SCORE.INTER.norm>
-2.48653

>  <SCORE.INTRA>
3.248

>  <SCORE.INTRA.DIHEDRAL>
3.24621

>  <SCORE.INTRA.DIHEDRAL.0>
9.90185

>  <SCORE.INTRA.POLAR>
0

>  <SCORE.INTRA.POLAR.0>
0

>  <SCORE.INTRA.REPUL>
0

>  <SCORE.INTRA.REPUL.0>
0

>  <SCORE.INTRA.SOLV>
2.79745

>  <SCORE.INTRA.SOLV.lig_0>
-53.6586

>  <SCORE.INTRA.VDW>
0.22617

>  <SCORE.INTRA.VDW.0>
-0.556525

>  <SCORE.INTRA.norm>
0.295272

>  <SCORE.RESTR>
0

>  <SCORE.RESTR.CAVITY>
0

>  <SCORE.RESTR.norm>
0

>  <SCORE.SYSTEM>
0

>  <SCORE.SYSTEM.CONST>
0

>  <SCORE.SYSTEM.DIHEDRAL>
0

>  <SCORE.SYSTEM.SOLV>
0

>  <SCORE.SYSTEM.norm>
0

>  <SCORE.heavy>
11

>  <SCORE.norm>
-2.19126

>  <RMSD>
13.963

$$$$

 OpenBabel11021811383D
libRbt.so/2013.1/901 2013/11/27
 11 10  0  0  0  0  0  0  0  0999 V2000
  -10.3047    8.3909    0.7793 N   0  3  0  0  0  0  0  0  0  0  0  0
  -11.4752    8.1592    1.6780 C   0  0  2  0  0  0  0  0  0  0  0  0
  -10.9887    7.6342    3.0394 C   0  0  0  0  0  0  0  0  0  0  0  0
  -11.2464    8.2363    4.0648 O   0  0  0  0  0  0  0  0  0  0  0  0
  -12.4174    7.1360    1.0299 C   0  0  0  0  0  0  0  0  0  0  0  0
  -11.6067    5.9390    0.5249 C   0  0  0  0  0  0  0  0  0  0  0  0
  -12.4602    5.1130   -0.4352 C   0  0  0  0  0  0  0  0  0  0  0  0
  -11.6142    4.6616   -1.5738 N   0  3  0  0  0  0  0  0  0  0  0  0
  -11.4102    5.4518   -2.5919 C   0  0  0  0  0  0  0  0  0  0  0  0
  -10.1986    5.8642   -2.8617 N   0  0  0  0  0  0  0  0  0  0  0  0
  -12.4148    5.8229   -3.3427 N   0  0  0  0  0  0  0  0  0  0  0  0
  2  1  1  6  0  0  0
  2  3  1  0  0  0  0
  2  5  1  0  0  0  0
  3  4  2  0  0  0  0
  5  6  1  0  0  0  0
  6  7  1  0  0  0  0
  7  8  1  0  0  0  0
  8  9  2  0  0  0  0
  9 10  1  0  0  0  0
  9 11  1  0  0  0  0
M  CHG  2   1   1   8   1
M  END
>  <CHROM.1>
19.93772698,121.57601081,47.31726234,-164.88681701,139.85024711,-83.76052616
-11.43432963,6.60346430,-0.00090495,-1.48277534,-0.81796822,-1.95254220

>  <Name>


>  <RI>
224

>  <Rbt.Current_Directory>
/home/itssahil/PROJECTS/Mol_Feturizer/New_Systems/rnas/1aju

>  <Rbt.Executable>
rbdock ($Id: //depot/dev/client3/rdock/2013.1/src/exe/rbdock.cxx#4 $)

>  <Rbt.Library>
libRbt.so (2013.1, Build901 2013/11/27)

>  <Rbt.Parameter_File>
/export/apps/rDock/src/rDock_2013.1_src/data/scripts/dock_solv.prm

>  <Rbt.Receptor>
prm/blind_docking_20.prm

>  <SCORE>
-22.9451

>  <SCORE.INTER>
-26.4579

>  <SCORE.INTER.CONST>
1

>  <SCORE.INTER.POLAR>
-5.38449

>  <SCORE.INTER.ROT>
5

>  <SCORE.INTER.SOLV>
23.9049

>  <SCORE.INTER.VDW>
-14.5919

>  <SCORE.INTER.norm>
-2.40526

>  <SCORE.INTRA>
3.44122

>  <SCORE.INTRA.DIHEDRAL>
1.41265

>  <SCORE.INTRA.DIHEDRAL.0>
9.90185

>  <SCORE.INTRA.POLAR>
0

>  <SCORE.INTRA.POLAR.0>
0

>  <SCORE.INTRA.REPUL>
0.059598

>  <SCORE.INTRA.REPUL.0>
0

>  <SCORE.INTRA.SOLV>
2.29838

>  <SCORE.INTRA.SOLV.lig_0>
-53.6586

>  <SCORE.INTRA.VDW>
1.28771

>  <SCORE.INTRA.VDW.0>
-0.556525

>  <SCORE.INTRA.norm>
0.312838

>  <SCORE.RESTR>
0.0715394

>  <SCORE.RESTR.CAVITY>
0.0715394

>  <SCORE.RESTR.norm>
0.00650358

>  <SCORE.SYSTEM>
0

>  <SCORE.SYSTEM.CONST>
0

>  <SCORE.SYSTEM.DIHEDRAL>
0

>  <SCORE.SYSTEM.SOLV>
0

>  <SCORE.SYSTEM.norm>
0

>  <SCORE.heavy>
11

>  <SCORE.norm>
-2.08592

>  <RMSD>
13.971

$$$$

 OpenBabel11021811383D
libRbt.so/2013.1/901 2013/11/27
 11 10  0  0  0  0  0  0  0  0999 V2000
  -10.1837    8.4710    0.8474 N   0  3  0  0  0  0  0  0  0  0  0  0
  -11.3495    8.1911    1.7386 C   0  0  2  0  0  0  0  0  0  0  0  0
  -10.9802    8.5196    3.1952 C   0  0  0  0  0  0  0  0  0  0  0  0
  -10.0821    9.3008    3.4466 O   0  0  0  0  0  0  0  0  0  0  0  0
  -11.7356    6.7108    1.6187 C   0  0  0  0  0  0  0  0  0  0  0  0
  -12.0512    6.3791    0.1574 C   0  0  0  0  0  0  0  0  0  0  0  0
  -12.0650    4.8635   -0.0305 C   0  0  0  0  0  0  0  0  0  0  0  0
  -11.4137    4.5273   -1.3261 N   0  3  0  0  0  0  0  0  0  0  0  0
  -11.4199    5.3894   -2.3057 C   0  0  0  0  0  0  0  0  0  0  0  0
  -10.2902    5.8774   -2.7489 N   0  0  0  0  0  0  0  0  0  0  0  0
  -12.5532    5.7570   -2.8454 N   0  0  0  0  0  0  0  0  0  0  0  0
  2  1  1  6  0  0  0
  2  3  1  0  0  0  0
  2  5  1  0  0  0  0
  3  4  2  0  0  0  0
  5  6  1  0  0  0  0
  6  7  1  0  0  0  0
  7  8  1  0  0  0  0
  8  9  2  0  0  0  0
  9 10  1  0  0  0  0
  9 11  1  0  0  0  0
M  CHG  2   1   1   8   1
M  END
>  <CHROM.1>
-65.94201181,22.99188283,-57.42313715,164.86254935,-139.76715091,-27.09929720
-11.24470555,6.75043983,0.12202430,-1.31638640,-0.88683069,-1.97332788

>  <Name>


>  <RI>
0

>  <Rbt.Current_Directory>
/home/itssahil/PROJECTS/Mol_Feturizer/New_Systems/rnas/1aju

>  <Rbt.Executable>
rbdock ($Id: //depot/dev/client3/rdock/2013.1/src/exe/rbdock.cxx#4 $)

>  <Rbt.Library>
libRbt.so (2013.1, Build901 2013/11/27)

>  <Rbt.Parameter_File>
/export/apps/rDock/src/rDock_2013.1_src/data/scripts/dock_solv.prm

>  <Rbt.Receptor>
prm/blind_docking_60.prm

>  <SCORE>
-26.783

>  <SCORE.INTER>
-30.848

>  <SCORE.INTER.CONST>
1

>  <SCORE.INTER.POLAR>
-6.30962

>  <SCORE.INTER.ROT>
5

>  <SCORE.INTER.SOLV>
24.971

>  <SCORE.INTER.VDW>
-14.7903

>  <SCORE.INTER.norm>
-2.80436

>  <SCORE.INTRA>
3.51019

>  <SCORE.INTRA.DIHEDRAL>
-0.926281

>  <SCORE.INTRA.DIHEDRAL.0>
9.90185

>  <SCORE.INTRA.POLAR>
0

>  <SCORE.INTRA.POLAR.0>
0

>  <SCORE.INTRA.REPUL>
0.0536838

>  <SCORE.INTRA.REPUL.0>
0

>  <SCORE.INTRA.SOLV>
3.38529

>  <SCORE.INTRA.SOLV.lig_0>
-53.6586

>  <SCORE.INTRA.VDW>
2.01227

>  <SCORE.INTRA.VDW.0>
-0.556525

>  <SCORE.INTRA.norm>
0.319108

>  <SCORE.RESTR>
0.554742

>  <SCORE.RESTR.CAVITY>
0.554742

>  <SCORE.RESTR.norm>
0.0504311

>  <SCORE.SYSTEM>
0

>  <SCORE.SYSTEM.CONST>
0

>  <SCORE.SYSTEM.DIHEDRAL>
0

>  <SCORE.SYSTEM.SOLV>
0

>  <SCORE.SYSTEM.norm>
0

>  <SCORE.heavy>
11

>  <SCORE.norm>
-2.43482

>  <RMSD>
13.977

$$$$

 OpenBabel11021811383D
libRbt.so/2013.1/901 2013/11/27
 11 10  0  0  0  0  0  0  0  0999 V2000
  -11.7510    5.7209   -5.2494 N   0  3  0  0  0  0  0  0  0  0  0  0
  -11.7315    5.0885   -3.8961 C   0  0  2  0  0  0  0  0  0  0  0  0
  -13.1531    5.0738   -3.3092 C   0  0  0  0  0  0  0  0  0  0  0  0
  -13.5670    4.0994   -2.7096 O   0  0  0  0  0  0  0  0  0  0  0  0
  -10.7952    5.8850   -2.9776 C   0  0  0  0  0  0  0  0  0  0  0  0
  -10.9050    5.3527   -1.5460 C   0  0  0  0  0  0  0  0  0  0  0  0
   -9.6718    5.7731   -0.7491 C   0  0  0  0  0  0  0  0  0  0  0  0
  -10.0619    5.9977    0.6699 N   0  3  0  0  0  0  0  0  0  0  0  0
  -10.7113    7.0779    1.0077 C   0  0  0  0  0  0  0  0  0  0  0  0
  -11.9201    6.9827    1.4980 N   0  0  0  0  0  0  0  0  0  0  0  0
  -10.1499    8.2502    0.8620 N   0  0  0  0  0  0  0  0  0  0  0  0
  2  1  1  6  0  0  0
  2  3  1  0  0  0  0
  2  5  1  0  0  0  0
  3  4  2  0  0  0  0
  5  6  1  0  0  0  0
  6  7  1  0  0  0  0
  7  8  1  0  0  0  0
  8  9  2  0  0  0  0
  9 10  1  0  0  0  0
  9 11  1  0  0  0  0
M  CHG  2   1   1   8   1
M  END
>  <CHROM.1>
-62.00271771,138.75748279,172.87513250,160.26817653,147.14155230,-75.60512307
-11.32726140,5.95221092,-1.50126563,-1.91825918,0.47401077,1.35480646

>  <Name>


>  <RI>
0

>  <Rbt.Current_Directory>
/home/itssahil/PROJECTS/Mol_Feturizer/New_Systems/rnas/1aju

>  <Rbt.Executable>
rbdock ($Id: //depot/dev/client3/rdock/2013.1/src/exe/rbdock.cxx#4 $)

>  <Rbt.Library>
libRbt.so (2013.1, Build901 2013/11/27)

>  <Rbt.Parameter_File>
/export/apps/rDock/src/rDock_2013.1_src/data/scripts/dock_solv.prm

>  <Rbt.Receptor>
prm/blind_docking_80.prm

>  <SCORE>
-28.1959

>  <SCORE.INTER>
-29.0859

>  <SCORE.INTER.CONST>
1

>  <SCORE.INTER.POLAR>
-5.1162

>  <SCORE.INTER.ROT>
5

>  <SCORE.INTER.SOLV>
19.6455

>  <SCORE.INTER.VDW>
-15.8184

>  <SCORE.INTER.norm>
-2.64417

>  <SCORE.INTRA>
0.0961224

>  <SCORE.INTRA.DIHEDRAL>
-1.44814

>  <SCORE.INTRA.DIHEDRAL.0>
9.90185

>  <SCORE.INTRA.POLAR>
0

>  <SCORE.INTRA.POLAR.0>
0

>  <SCORE.INTRA.REPUL>
0

>  <SCORE.INTRA.REPUL.0>
0

>  <SCORE.INTRA.SOLV>
0.108407

>  <SCORE.INTRA.SOLV.lig_0>
-53.6586

>  <SCORE.INTRA.VDW>
0.76599

>  <SCORE.INTRA.VDW.0>
-0.556525

>  <SCORE.INTRA.norm>
0.0087384

>  <SCORE.RESTR>
0.793801

>  <SCORE.RESTR.CAVITY>
0.793801

>  <SCORE.RESTR.norm>
0.0721637

>  <SCORE.SYSTEM>
0

>  <SCORE.SYSTEM.CONST>
0

>  <SCORE.SYSTEM.DIHEDRAL>
0

>  <SCORE.SYSTEM.SOLV>
0

>  <SCORE.SYSTEM.norm>
0

>  <SCORE.heavy>
11

>  <SCORE.norm>
-2.56327

>  <RMSD>
13.987

$$$$

 OpenBabel11021811383D
libRbt.so/2013.1/901 2013/11/27
 11 10  0  0  0  0  0  0  0  0999 V2000
  -11.7552    5.8413   -5.3111 N   0  3  0  0  0  0  0  0  0  0  0  0
  -11.6963    5.1347   -3.9962 C   0  0  2  0  0  0  0  0  0  0  0  0
  -13.1143    4.9976   -3.4163 C   0  0  0  0  0  0  0  0  0  0  0  0
  -13.4317    4.0105   -2.7799 O   0  0  0  0  0  0  0  0  0  0  0  0
  -10.8117    5.9341   -3.0301 C   0  0  0  0  0  0  0  0  0  0  0  0
  -10.8673    5.2990   -1.6379 C   0  0  0  0  0  0  0  0  0  0  0  0
   -9.6975    5.8072   -0.7978 C   0  0  0  0  0  0  0  0  0  0  0  0
  -10.1520    5.9951    0.6072 N   0  3  0  0  0  0  0  0  0  0  0  0
  -10.7918    7.0797    0.9492 C   0  0  0  0  0  0  0  0  0  0  0  0
  -12.0253    6.9989    1.3767 N   0  0  0  0  0  0  0  0  0  0  0  0
  -10.1965    8.2417    0.8707 N   0  0  0  0  0  0  0  0  0  0  0  0
  2  1  1  6  0  0  0
  2  3  1  0  0  0  0
  2  5  1  0  0  0  0
  3  4  2  0  0  0  0
  5  6  1  0  0  0  0
  6  7  1  0  0  0  0
  7  8  1  0  0  0  0
  8  9  2  0  0  0  0
  9 10  1  0  0  0  0
  9 11  1  0  0  0  0
M  CHG  2   1   1   8   1
M  END
>  <CHROM.1>
-64.55010251,144.81225103,173.93603313,162.99378037,142.60143466,-81.62122459
-11.33867749,5.95711787,-1.57001802,-1.90697980,0.53737846,1.37080085

>  <Name>


>  <RI>
0

>  <Rbt.Current_Directory>
/home/itssahil/PROJECTS/Mol_Feturizer/New_Systems/rnas/1aju

>  <Rbt.Executable>
rbdock ($Id: //depot/dev/client3/rdock/2013.1/src/exe/rbdock.cxx#4 $)

>  <Rbt.Library>
libRbt.so (2013.1, Build901 2013/11/27)

>  <Rbt.Parameter_File>
/export/apps/rDock/src/rDock_2013.1_src/data/scripts/dock_solv.prm

>  <Rbt.Receptor>
prm/blind_docking_100.prm

>  <SCORE>
-28.0505

>  <SCORE.INTER>
-28.8225

>  <SCORE.INTER.CONST>
1

>  <SCORE.INTER.POLAR>
-5.00674

>  <SCORE.INTER.ROT>
5

>  <SCORE.INTER.SOLV>
19.5146

>  <SCORE.INTER.VDW>
-15.9641

>  <SCORE.INTER.norm>
-2.62023

>  <SCORE.INTRA>
0.334262

>  <SCORE.INTRA.DIHEDRAL>
-0.77974

>  <SCORE.INTRA.DIHEDRAL.0>
9.90185

>  <SCORE.INTRA.POLAR>
0

>  <SCORE.INTRA.POLAR.0>
0

>  <SCORE.INTRA.REPUL>
0

>  <SCORE.INTRA.REPUL.0>
0

>  <SCORE.INTRA.SOLV>
0.0554725

>  <SCORE.INTRA.SOLV.lig_0>
-53.6586

>  <SCORE.INTRA.VDW>
0.696395

>  <SCORE.INTRA.VDW.0>
-0.556525

>  <SCORE.INTRA.norm>
0.0303874

>  <SCORE.RESTR>
0.437737

>  <SCORE.RESTR.CAVITY>
0.437737

>  <SCORE.RESTR.norm>
0.0397943

>  <SCORE.SYSTEM>
0

>  <SCORE.SYSTEM.CONST>
0

>  <SCORE.SYSTEM.DIHEDRAL>
0

>  <SCORE.SYSTEM.SOLV>
0

>  <SCORE.SYSTEM.norm>
0

>  <SCORE.heavy>
11

>  <SCORE.norm>
-2.55005

>  <RMSD>
13.992

$$$$

 OpenBabel11021811383D
libRbt.so/2013.1/901 2013/11/27
 11 10  0  0  0  0  0  0  0  0999 V2000
  -10.2795    8.4239    0.8423 N   0  3  0  0  0  0  0  0  0  0  0  0
  -11.4482    8.1904    1.7430 C   0  0  2  0  0  0  0  0  0  0  0  0
  -11.1040    8.6498    3.1700 C   0  0  0  0  0  0  0  0  0  0  0  0
  -11.8266    9.4291    3.7623 O   0  0  0  0  0  0  0  0  0  0  0  0
  -11.7963    6.6959    1.7449 C   0  0  0  0  0  0  0  0  0  0  0  0
  -11.9082    6.1928    0.3029 C   0  0  0  0  0  0  0  0  0  0  0  0
  -11.5117    4.7190    0.2443 C   0  0  0  0  0  0  0  0  0  0  0  0
  -10.9812    4.4109   -1.1120 N   0  3  0  0  0  0  0  0  0  0  0  0
  -10.7478    5.3757   -1.9590 C   0  0  0  0  0  0  0  0  0  0  0  0
   -9.5273    5.5932   -2.3759 N   0  0  0  0  0  0  0  0  0  0  0  0
  -11.7343    6.1166   -2.3933 N   0  0  0  0  0  0  0  0  0  0  0  0
  2  1  1  6  0  0  0
  2  3  1  0  0  0  0
  2  5  1  0  0  0  0
  3  4  2  0  0  0  0
  5  6  1  0  0  0  0
  6  7  1  0  0  0  0
  7  8  1  0  0  0  0
  8  9  2  0  0  0  0
  9 10  1  0  0  0  0
  9 11  1  0  0  0  0
M  CHG  2   1   1   8   1
M  END
>  <CHROM.1>
-178.47643757,126.87136517,-50.12374193,149.97613457,-152.57984912,9.30961194
-11.14291913,6.73400456,0.32742195,-1.77356361,-0.99196209,-2.37897051

>  <Name>


>  <RI>
224

>  <Rbt.Current_Directory>
/home/itssahil/PROJECTS/Mol_Feturizer/New_Systems/rnas/1aju

>  <Rbt.Executable>
rbdock ($Id: //depot/dev/client3/rdock/2013.1/src/exe/rbdock.cxx#4 $)

>  <Rbt.Library>
libRbt.so (2013.1, Build901 2013/11/27)

>  <Rbt.Parameter_File>
/export/apps/rDock/src/rDock_2013.1_src/data/scripts/dock_solv.prm

>  <Rbt.Receptor>
prm/blind_docking_20.prm

>  <SCORE>
-19.8837

>  <SCORE.INTER>
-26.3848

>  <SCORE.INTER.CONST>
1

>  <SCORE.INTER.POLAR>
-5.70923

>  <SCORE.INTER.ROT>
5

>  <SCORE.INTER.SOLV>
27.1063

>  <SCORE.INTER.VDW>
-14.5278

>  <SCORE.INTER.norm>
-2.39862

>  <SCORE.INTRA>
6.40351

>  <SCORE.INTRA.DIHEDRAL>
-1.04199

>  <SCORE.INTRA.DIHEDRAL.0>
9.90185

>  <SCORE.INTRA.POLAR>
0

>  <SCORE.INTRA.POLAR.0>
0

>  <SCORE.INTRA.REPUL>
0.206914

>  <SCORE.INTRA.REPUL.0>
0

>  <SCORE.INTRA.SOLV>
3.48879

>  <SCORE.INTRA.SOLV.lig_0>
-53.6586

>  <SCORE.INTRA.VDW>
4.14554

>  <SCORE.INTRA.VDW.0>
-0.556525

>  <SCORE.INTRA.norm>
0.582137

>  <SCORE.RESTR>
0.0975404

>  <SCORE.RESTR.CAVITY>
0.0975404

>  <SCORE.RESTR.norm>
0.00886731

>  <SCORE.SYSTEM>
0

>  <SCORE.SYSTEM.CONST>
0

>  <SCORE.SYSTEM.DIHEDRAL>
0

>  <SCORE.SYSTEM.SOLV>
0

>  <SCORE.SYSTEM.norm>
0

>  <SCORE.heavy>
11

>  <SCORE.norm>
-1.80761

>  <RMSD>
13.993

$$$$

 OpenBabel11021811383D
libRbt.so/2013.1/901 2013/11/27
 11 10  0  0  0  0  0  0  0  0999 V2000
  -11.6890    6.2104   -5.4228 N   0  3  0  0  0  0  0  0  0  0  0  0
  -11.5317    5.2511   -4.2885 C   0  0  2  0  0  0  0  0  0  0  0  0
  -12.9055    4.6816   -3.8958 C   0  0  0  0  0  0  0  0  0  0  0  0
  -13.4585    5.0440   -2.8745 O   0  0  0  0  0  0  0  0  0  0  0  0
  -10.9064    5.9795   -3.0914 C   0  0  0  0  0  0  0  0  0  0  0  0
  -10.6823    4.9875   -1.9466 C   0  0  0  0  0  0  0  0  0  0  0  0
   -9.8245    5.6413   -0.8652 C   0  0  0  0  0  0  0  0  0  0  0  0
  -10.6011    6.7372   -0.2236 N   0  3  0  0  0  0  0  0  0  0  0  0
  -10.4616    6.9798    1.0509 C   0  0  0  0  0  0  0  0  0  0  0  0
   -9.9852    8.1325    1.4446 N   0  0  0  0  0  0  0  0  0  0  0  0
  -10.8047    6.0739    1.9297 N   0  0  0  0  0  0  0  0  0  0  0  0
  2  1  1  6  0  0  0
  2  3  1  0  0  0  0
  2  5  1  0  0  0  0
  3  4  2  0  0  0  0
  5  6  1  0  0  0  0
  6  7  1  0  0  0  0
  7  8  1  0  0  0  0
  8  9  2  0  0  0  0
  9 10  1  0  0  0  0
  9 11  1  0  0  0  0
M  CHG  2   1   1   8   1
M  END
>  <CHROM.1>
61.35180825,-106.21410248,-177.40067492,169.25250032,67.52365704,144.68456428
-11.18304380,6.00915994,-1.65231070,-1.97339639,0.70174317,1.56716988

>  <Name>


>  <RI>
0

>  <Rbt.Current_Directory>
/home/itssahil/PROJECTS/Mol_Feturizer/New_Systems/rnas/1aju

>  <Rbt.Executable>
rbdock ($Id: //depot/dev/client3/rdock/2013.1/src/exe/rbdock.cxx#4 $)

>  <Rbt.Library>
libRbt.so (2013.1, Build901 2013/11/27)

>  <Rbt.Parameter_File>
/export/apps/rDock/src/rDock_2013.1_src/data/scripts/dock_solv.prm

>  <Rbt.Receptor>
prm/blind_docking_80.prm

>  <SCORE>
-23.5471

>  <SCORE.INTER>
-23.157

>  <SCORE.INTER.CONST>
1

>  <SCORE.INTER.POLAR>
-4.59107

>  <SCORE.INTER.ROT>
5

>  <SCORE.INTER.SOLV>
22.5707

>  <SCORE.INTER.VDW>
-14.5914

>  <SCORE.INTER.norm>
-2.10519

>  <SCORE.INTRA>
-0.976712

>  <SCORE.INTRA.DIHEDRAL>
-5.84252

>  <SCORE.INTRA.DIHEDRAL.0>
9.90185

>  <SCORE.INTRA.POLAR>
0

>  <SCORE.INTRA.POLAR.0>
0

>  <SCORE.INTRA.REPUL>
0

>  <SCORE.INTRA.REPUL.0>
0

>  <SCORE.INTRA.SOLV>
0.757701

>  <SCORE.INTRA.SOLV.lig_0>
-53.6586

>  <SCORE.INTRA.VDW>
1.5657

>  <SCORE.INTRA.VDW.0>
-0.556525

>  <SCORE.INTRA.norm>
-0.088792

>  <SCORE.RESTR>
0.586653

>  <SCORE.RESTR.CAVITY>
0.586653

>  <SCORE.RESTR.norm>
0.0533321

>  <SCORE.SYSTEM>
0

>  <SCORE.SYSTEM.CONST>
0

>  <SCORE.SYSTEM.DIHEDRAL>
0

>  <SCORE.SYSTEM.SOLV>
0

>  <SCORE.SYSTEM.norm>
0

>  <SCORE.heavy>
11

>  <SCORE.norm>
-2.14065

>  <RMSD>
13.994

$$$$

 OpenBabel11021811383D
libRbt.so/2013.1/901 2013/11/27
 11 10  0  0  0  0  0  0  0  0999 V2000
  -10.8434    5.9673   -3.2795 N   0  3  0  0  0  0  0  0  0  0  0  0
  -11.8365    4.9158   -2.9054 C   0  0  2  0  0  0  0  0  0  0  0  0
  -13.0334    4.9652   -3.8701 C   0  0  0  0  0  0  0  0  0  0  0  0
  -12.9456    5.5395   -4.9390 O   0  0  0  0  0  0  0  0  0  0  0  0
  -12.3141    5.1581   -1.4673 C   0  0  0  0  0  0  0  0  0  0  0  0
  -11.2715    4.6212   -0.4825 C   0  0  0  0  0  0  0  0  0  0  0  0
  -10.1508    5.6455   -0.3169 C   0  0  0  0  0  0  0  0  0  0  0  0
  -10.0738    6.0565    1.1118 N   0  3  0  0  0  0  0  0  0  0  0  0
  -10.5774    7.1983    1.4930 C   0  0  0  0  0  0  0  0  0  0  0  0
  -11.5714    7.2186    2.3429 N   0  0  0  0  0  0  0  0  0  0  0  0
  -10.0830    8.3175    1.0306 N   0  0  0  0  0  0  0  0  0  0  0  0
  2  1  1  6  0  0  0
  2  3  1  0  0  0  0
  2  5  1  0  0  0  0
  3  4  2  0  0  0  0
  5  6  1  0  0  0  0
  6  7  1  0  0  0  0
  7  8  1  0  0  0  0
  8  9  2  0  0  0  0
  9 10  1  0  0  0  0
  9 11  1  0  0  0  0
M  CHG  2   1   1   8   1
M  END
>  <CHROM.1>
-43.30342282,17.42616749,-79.92378101,81.39059152,120.06810226,-102.07823990
-11.31761504,6.00800066,-1.03291933,-2.34305941,1.12600753,1.96302778

>  <Name>


>  <RI>
0

>  <Rbt.Current_Directory>
/home/itssahil/PROJECTS/Mol_Feturizer/New_Systems/rnas/1aju

>  <Rbt.Executable>
rbdock ($Id: //depot/dev/client3/rdock/2013.1/src/exe/rbdock.cxx#4 $)

>  <Rbt.Library>
libRbt.so (2013.1, Build901 2013/11/27)

>  <Rbt.Parameter_File>
/export/apps/rDock/src/rDock_2013.1_src/data/scripts/dock_solv.prm

>  <Rbt.Receptor>
prm/blind_docking_80.prm

>  <SCORE>
-20.9038

>  <SCORE.INTER>
-25.1009

>  <SCORE.INTER.CONST>
1

>  <SCORE.INTER.POLAR>
-4.63764

>  <SCORE.INTER.ROT>
5

>  <SCORE.INTER.SOLV>
22.3215

>  <SCORE.INTER.VDW>
-15.649

>  <SCORE.INTER.norm>
-2.2819

>  <SCORE.INTRA>
3.07236

>  <SCORE.INTRA.DIHEDRAL>
2.79259

>  <SCORE.INTRA.DIHEDRAL.0>
9.90185

>  <SCORE.INTRA.POLAR>
0

>  <SCORE.INTRA.POLAR.0>
0

>  <SCORE.INTRA.REPUL>
0

>  <SCORE.INTRA.REPUL.0>
0

>  <SCORE.INTRA.SOLV>
3.33428

>  <SCORE.INTRA.SOLV.lig_0>
-53.6586

>  <SCORE.INTRA.VDW>
0.00892755

>  <SCORE.INTRA.VDW.0>
-0.556525

>  <SCORE.INTRA.norm>
0.279306

>  <SCORE.RESTR>
1.12478

>  <SCORE.RESTR.CAVITY>
1.12478

>  <SCORE.RESTR.norm>
0.102252

>  <SCORE.SYSTEM>
0

>  <SCORE.SYSTEM.CONST>
0

>  <SCORE.SYSTEM.DIHEDRAL>
0

>  <SCORE.SYSTEM.SOLV>
0

>  <SCORE.SYSTEM.norm>
0

>  <SCORE.heavy>
11

>  <SCORE.norm>
-1.90034

>  <RMSD>
14.006

$$$$

 OpenBabel11021811383D
libRbt.so/2013.1/901 2013/11/27
 11 10  0  0  0  0  0  0  0  0999 V2000
   -9.4719    5.4993   -1.4345 N   0  3  0  0  0  0  0  0  0  0  0  0
  -10.8822    5.1072   -1.7330 C   0  0  2  0  0  0  0  0  0  0  0  0
  -11.2247    5.4685   -3.1883 C   0  0  0  0  0  0  0  0  0  0  0  0
  -10.3706    5.9050   -3.9368 O   0  0  0  0  0  0  0  0  0  0  0  0
  -11.8272    5.8450   -0.7752 C   0  0  0  0  0  0  0  0  0  0  0  0
  -11.7417    5.2145    0.6176 C   0  0  0  0  0  0  0  0  0  0  0  0
  -12.3157    6.1809    1.6516 C   0  0  0  0  0  0  0  0  0  0  0  0
  -11.1975    6.7898    2.4229 N   0  3  0  0  0  0  0  0  0  0  0  0
  -10.8597    8.0331    2.2159 C   0  0  0  0  0  0  0  0  0  0  0  0
  -10.9770    8.9075    3.1815 N   0  0  0  0  0  0  0  0  0  0  0  0
  -10.3987    8.3992    1.0480 N   0  0  0  0  0  0  0  0  0  0  0  0
  2  1  1  1  0  0  0
  2  3  1  0  0  0  0
  2  5  1  0  0  0  0
  3  4  2  0  0  0  0
  5  6  1  0  0  0  0
  6  7  1  0  0  0  0
  7  8  1  0  0  0  0
  8  9  2  0  0  0  0
  9 10  1  0  0  0  0
  9 11  1  0  0  0  0
M  CHG  2   1   1   8   1
M  END
>  <CHROM.1>
39.92122139,5.32967532,-74.53016702,162.36150938,-105.32581114,106.63641206
-10.97061360,6.51650415,0.00603854,-1.42909786,0.93435858,1.02833540

>  <Name>


>  <RI>
0

>  <Rbt.Current_Directory>
/home/itssahil/PROJECTS/Mol_Feturizer/New_Systems/rnas/1aju

>  <Rbt.Executable>
rbdock ($Id: //depot/dev/client3/rdock/2013.1/src/exe/rbdock.cxx#4 $)

>  <Rbt.Library>
libRbt.so (2013.1, Build901 2013/11/27)

>  <Rbt.Parameter_File>
/export/apps/rDock/src/rDock_2013.1_src/data/scripts/dock_solv.prm

>  <Rbt.Receptor>
prm/blind_docking_100.prm

>  <SCORE>
-17.4945

>  <SCORE.INTER>
-19.6696

>  <SCORE.INTER.CONST>
1

>  <SCORE.INTER.POLAR>
-3.4283

>  <SCORE.INTER.ROT>
5

>  <SCORE.INTER.SOLV>
24.7531

>  <SCORE.INTER.VDW>
-16.8698

>  <SCORE.INTER.norm>
-1.78815

>  <SCORE.INTRA>
2.17516

>  <SCORE.INTRA.DIHEDRAL>
0.635229

>  <SCORE.INTRA.DIHEDRAL.0>
9.90185

>  <SCORE.INTRA.POLAR>
0

>  <SCORE.INTRA.POLAR.0>
0

>  <SCORE.INTRA.REPUL>
0

>  <SCORE.INTRA.REPUL.0>
0

>  <SCORE.INTRA.SOLV>
4.89786

>  <SCORE.INTRA.SOLV.lig_0>
-53.6586

>  <SCORE.INTRA.VDW>
-0.591386

>  <SCORE.INTRA.VDW.0>
-0.556525

>  <SCORE.INTRA.norm>
0.197742

>  <SCORE.RESTR>
0

>  <SCORE.RESTR.CAVITY>
0

>  <SCORE.RESTR.norm>
0

>  <SCORE.SYSTEM>
0

>  <SCORE.SYSTEM.CONST>
0

>  <SCORE.SYSTEM.DIHEDRAL>
0

>  <SCORE.SYSTEM.SOLV>
0

>  <SCORE.SYSTEM.norm>
0

>  <SCORE.heavy>
11

>  <SCORE.norm>
-1.59041

>  <RMSD>
14.012

$$$$

 OpenBabel11021811383D
libRbt.so/2013.1/901 2013/11/27
 11 10  0  0  0  0  0  0  0  0999 V2000
  -12.8450    6.8546   -4.2586 N   0  3  0  0  0  0  0  0  0  0  0  0
  -11.7725    5.8147   -4.2606 C   0  0  2  0  0  0  0  0  0  0  0  0
  -12.1795    4.6507   -5.1798 C   0  0  0  0  0  0  0  0  0  0  0  0
  -11.6192    4.4765   -6.2457 O   0  0  0  0  0  0  0  0  0  0  0  0
  -11.5612    5.3014   -2.8299 C   0  0  0  0  0  0  0  0  0  0  0  0
  -10.1364    5.6268   -2.3728 C   0  0  0  0  0  0  0  0  0  0  0  0
  -10.0441    5.4916   -0.8543 C   0  0  0  0  0  0  0  0  0  0  0  0
  -10.7326    6.6487   -0.2195 N   0  3  0  0  0  0  0  0  0  0  0  0
  -10.5300    6.9208    1.0405 C   0  0  0  0  0  0  0  0  0  0  0  0
   -9.9750    8.0557    1.3791 N   0  0  0  0  0  0  0  0  0  0  0  0
  -10.8884    6.0625    1.9601 N   0  0  0  0  0  0  0  0  0  0  0  0
  2  1  1  1  0  0  0
  2  3  1  0  0  0  0
  2  5  1  0  0  0  0
  3  4  2  0  0  0  0
  5  6  1  0  0  0  0
  6  7  1  0  0  0  0
  7  8  1  0  0  0  0
  8  9  2  0  0  0  0
  9 10  1  0  0  0  0
  9 11  1  0  0  0  0
M  CHG  2   1   1   8   1
M  END
>  <CHROM.1>
-70.55453964,108.67416227,-117.37730180,163.82162036,-73.88039281,-164.28817607
-11.14003506,6.02680860,-1.97968690,1.99533527,0.96562523,-2.18507872

>  <Name>


>  <RI>
0

>  <Rbt.Current_Directory>
/home/itssahil/PROJECTS/Mol_Feturizer/New_Systems/rnas/1aju

>  <Rbt.Executable>
rbdock ($Id: //depot/dev/client3/rdock/2013.1/src/exe/rbdock.cxx#4 $)

>  <Rbt.Library>
libRbt.so (2013.1, Build901 2013/11/27)

>  <Rbt.Parameter_File>
/export/apps/rDock/src/rDock_2013.1_src/data/scripts/dock_solv.prm

>  <Rbt.Receptor>
prm/blind_docking_100.prm

>  <SCORE>
-22.6873

>  <SCORE.INTER>
-23.2564

>  <SCORE.INTER.CONST>
1

>  <SCORE.INTER.POLAR>
-3.92286

>  <SCORE.INTER.ROT>
5

>  <SCORE.INTER.SOLV>
22.5539

>  <SCORE.INTER.VDW>
-16.8793

>  <SCORE.INTER.norm>
-2.11421

>  <SCORE.INTRA>
0.324051

>  <SCORE.INTRA.DIHEDRAL>
0.340655

>  <SCORE.INTRA.DIHEDRAL.0>
9.90185

>  <SCORE.INTRA.POLAR>
0

>  <SCORE.INTRA.POLAR.0>
0

>  <SCORE.INTRA.REPUL>
0

>  <SCORE.INTRA.REPUL.0>
0

>  <SCORE.INTRA.SOLV>
0.928383

>  <SCORE.INTRA.SOLV.lig_0>
-53.6586

>  <SCORE.INTRA.VDW>
-0.310468

>  <SCORE.INTRA.VDW.0>
-0.556525

>  <SCORE.INTRA.norm>
0.0294591

>  <SCORE.RESTR>
0.245011

>  <SCORE.RESTR.CAVITY>
0.245011

>  <SCORE.RESTR.norm>
0.0222738

>  <SCORE.SYSTEM>
0

>  <SCORE.SYSTEM.CONST>
0

>  <SCORE.SYSTEM.DIHEDRAL>
0

>  <SCORE.SYSTEM.SOLV>
0

>  <SCORE.SYSTEM.norm>
0

>  <SCORE.heavy>
11

>  <SCORE.norm>
-2.06248

>  <RMSD>
14.029

$$$$

 OpenBabel11021811383D
libRbt.so/2013.1/901 2013/11/27
 11 10  0  0  0  0  0  0  0  0999 V2000
  -13.7832    5.9935   -3.5520 N   0  3  0  0  0  0  0  0  0  0  0  0
  -12.2964    6.1284   -3.6066 C   0  0  2  0  0  0  0  0  0  0  0  0
  -11.7941    5.7720   -5.0160 C   0  0  0  0  0  0  0  0  0  0  0  0
  -10.6954    5.2743   -5.1758 O   0  0  0  0  0  0  0  0  0  0  0  0
  -11.6635    5.1874   -2.5728 C   0  0  0  0  0  0  0  0  0  0  0  0
  -10.2013    5.5820   -2.3465 C   0  0  0  0  0  0  0  0  0  0  0  0
   -9.8997    5.5865   -0.8493 C   0  0  0  0  0  0  0  0  0  0  0  0
  -10.6435    6.7040   -0.2059 N   0  3  0  0  0  0  0  0  0  0  0  0
  -10.4773    6.9563    1.0635 C   0  0  0  0  0  0  0  0  0  0  0  0
   -9.9716    8.1033    1.4371 N   0  0  0  0  0  0  0  0  0  0  0  0
  -10.8228    6.0662    1.9573 N   0  0  0  0  0  0  0  0  0  0  0  0
  2  1  1  6  0  0  0
  2  3  1  0  0  0  0
  2  5  1  0  0  0  0
  3  4  2  0  0  0  0
  5  6  1  0  0  0  0
  6  7  1  0  0  0  0
  7  8  1  0  0  0  0
  8  9  2  0  0  0  0
  9 10  1  0  0  0  0
  9 11  1  0  0  0  0
M  CHG  2   1   1   8   1
M  END
>  <CHROM.1>
59.35891879,-149.05285424,-164.63166761,135.01141428,-68.30586471,-175.85059056
-11.14360467,6.13360040,-1.69724435,1.84651715,0.14131069,-1.83880144

>  <Name>


>  <RI>
0

>  <Rbt.Current_Directory>
/home/itssahil/PROJECTS/Mol_Feturizer/New_Systems/rnas/1aju

>  <Rbt.Executable>
rbdock ($Id: //depot/dev/client3/rdock/2013.1/src/exe/rbdock.cxx#4 $)

>  <Rbt.Library>
libRbt.so (2013.1, Build901 2013/11/27)

>  <Rbt.Parameter_File>
/export/apps/rDock/src/rDock_2013.1_src/data/scripts/dock_solv.prm

>  <Rbt.Receptor>
prm/blind_docking_40.prm

>  <SCORE>
-18.7002

>  <SCORE.INTER>
-20.9468

>  <SCORE.INTER.CONST>
1

>  <SCORE.INTER.POLAR>
-3.51646

>  <SCORE.INTER.ROT>
5

>  <SCORE.INTER.SOLV>
17.8623

>  <SCORE.INTER.VDW>
-15.1304

>  <SCORE.INTER.norm>
-1.90426

>  <SCORE.INTRA>
1.51978

>  <SCORE.INTRA.DIHEDRAL>
0.596887

>  <SCORE.INTRA.DIHEDRAL.0>
9.90185

>  <SCORE.INTRA.POLAR>
0

>  <SCORE.INTRA.POLAR.0>
0

>  <SCORE.INTRA.REPUL>
0

>  <SCORE.INTRA.REPUL.0>
0

>  <SCORE.INTRA.SOLV>
0.462984

>  <SCORE.INTRA.SOLV.lig_0>
-53.6586

>  <SCORE.INTRA.VDW>
0.989846

>  <SCORE.INTRA.VDW.0>
-0.556525

>  <SCORE.INTRA.norm>
0.138162

>  <SCORE.RESTR>
0.726813

>  <SCORE.RESTR.CAVITY>
0.726813

>  <SCORE.RESTR.norm>
0.0660739

>  <SCORE.SYSTEM>
0

>  <SCORE.SYSTEM.CONST>
0

>  <SCORE.SYSTEM.DIHEDRAL>
0

>  <SCORE.SYSTEM.SOLV>
0

>  <SCORE.SYSTEM.norm>
0

>  <SCORE.heavy>
11

>  <SCORE.norm>
-1.70002

>  <RMSD>
14.044

$$$$

 OpenBabel11021811383D
libRbt.so/2013.1/901 2013/11/27
 11 10  0  0  0  0  0  0  0  0999 V2000
  -12.4503    6.0966   -3.7743 N   0  3  0  0  0  0  0  0  0  0  0  0
  -11.9315    5.1258   -2.7643 C   0  0  2  0  0  0  0  0  0  0  0  0
  -13.0608    4.7274   -1.7991 C   0  0  0  0  0  0  0  0  0  0  0  0
  -13.5705    5.5536   -1.0656 O   0  0  0  0  0  0  0  0  0  0  0  0
  -10.7805    5.7736   -1.9829 C   0  0  0  0  0  0  0  0  0  0  0  0
  -10.3807    4.8693   -0.8136 C   0  0  0  0  0  0  0  0  0  0  0  0
  -11.1881    5.2503    0.4256 C   0  0  0  0  0  0  0  0  0  0  0  0
  -10.2995    5.9587    1.3871 N   0  3  0  0  0  0  0  0  0  0  0  0
  -10.5736    7.1804    1.7546 C   0  0  0  0  0  0  0  0  0  0  0  0
  -10.8447    7.4364    3.0083 N   0  0  0  0  0  0  0  0  0  0  0  0
  -10.5695    8.1449    0.8712 N   0  0  0  0  0  0  0  0  0  0  0  0
  2  1  1  6  0  0  0
  2  3  1  0  0  0  0
  2  5  1  0  0  0  0
  3  4  2  0  0  0  0
  5  6  1  0  0  0  0
  6  7  1  0  0  0  0
  7  8  1  0  0  0  0
  8  9  2  0  0  0  0
  9 10  1  0  0  0  0
  9 11  1  0  0  0  0
M  CHG  2   1   1   8   1
M  END
>  <CHROM.1>
-159.90166736,-64.28490612,171.71257375,-90.63773732,-106.88742653,120.01587151
-11.43937303,6.05682225,-0.43681849,-1.94000405,0.34694120,1.35242503

>  <Name>


>  <RI>
0

>  <Rbt.Current_Directory>
/home/itssahil/PROJECTS/Mol_Feturizer/New_Systems/rnas/1aju

>  <Rbt.Executable>
rbdock ($Id: //depot/dev/client3/rdock/2013.1/src/exe/rbdock.cxx#4 $)

>  <Rbt.Library>
libRbt.so (2013.1, Build901 2013/11/27)

>  <Rbt.Parameter_File>
/export/apps/rDock/src/rDock_2013.1_src/data/scripts/dock_solv.prm

>  <Rbt.Receptor>
prm/blind_docking_40.prm

>  <SCORE>
-17.4182

>  <SCORE.INTER>
-22.9388

>  <SCORE.INTER.CONST>
1

>  <SCORE.INTER.POLAR>
-4.13796

>  <SCORE.INTER.ROT>
5

>  <SCORE.INTER.SOLV>
19.3248

>  <SCORE.INTER.VDW>
-14.8743

>  <SCORE.INTER.norm>
-2.08535

>  <SCORE.INTRA>
5.43474

>  <SCORE.INTRA.DIHEDRAL>
4.95421

>  <SCORE.INTRA.DIHEDRAL.0>
9.90185

>  <SCORE.INTRA.POLAR>
0

>  <SCORE.INTRA.POLAR.0>
0

>  <SCORE.INTRA.REPUL>
0

>  <SCORE.INTRA.REPUL.0>
0

>  <SCORE.INTRA.SOLV>
1.62884

>  <SCORE.INTRA.SOLV.lig_0>
-53.6586

>  <SCORE.INTRA.VDW>
2.14321

>  <SCORE.INTRA.VDW.0>
-0.556525

>  <SCORE.INTRA.norm>
0.494067

>  <SCORE.RESTR>
0.0858177

>  <SCORE.RESTR.CAVITY>
0.0858177

>  <SCORE.RESTR.norm>
0.00780161

>  <SCORE.SYSTEM>
0

>  <SCORE.SYSTEM.CONST>
0

>  <SCORE.SYSTEM.DIHEDRAL>
0

>  <SCORE.SYSTEM.SOLV>
0

>  <SCORE.SYSTEM.norm>
0

>  <SCORE.heavy>
11

>  <SCORE.norm>
-1.58348

>  <RMSD>
14.053

$$$$

 OpenBabel11021811383D
libRbt.so/2013.1/901 2013/11/27
 11 10  0  0  0  0  0  0  0  0999 V2000
  -11.2147    6.3121   -4.4424 N   0  3  0  0  0  0  0  0  0  0  0  0
  -11.7675    4.9934   -4.0099 C   0  0  2  0  0  0  0  0  0  0  0  0
  -12.6621    4.4161   -5.1199 C   0  0  0  0  0  0  0  0  0  0  0  0
  -12.2009    3.6712   -5.9642 O   0  0  0  0  0  0  0  0  0  0  0  0
  -12.5854    5.1830   -2.7254 C   0  0  0  0  0  0  0  0  0  0  0  0
  -11.6493    5.5474   -1.5696 C   0  0  0  0  0  0  0  0  0  0  0  0
  -12.3998    5.4207   -0.2455 C   0  0  0  0  0  0  0  0  0  0  0  0
  -11.9603    6.5094    0.6697 N   0  3  0  0  0  0  0  0  0  0  0  0
  -10.6934    6.8022    0.7785 C   0  0  0  0  0  0  0  0  0  0  0  0
  -10.2667    7.9851    0.4187 N   0  0  0  0  0  0  0  0  0  0  0  0
   -9.8564    5.9161    1.2530 N   0  0  0  0  0  0  0  0  0  0  0  0
  2  1  1  6  0  0  0
  2  3  1  0  0  0  0
  2  5  1  0  0  0  0
  3  4  2  0  0  0  0
  5  6  1  0  0  0  0
  6  7  1  0  0  0  0
  7  8  1  0  0  0  0
  8  9  2  0  0  0  0
  9 10  1  0  0  0  0
  9 11  1  0  0  0  0
M  CHG  2   1   1   8   1
M  END
>  <CHROM.1>
62.53040227,91.91536303,-68.31488963,-167.03366156,-142.77267951,-44.01554996
-11.53339433,5.73668757,-1.91692549,-1.91052609,0.85457260,1.48260336

>  <Name>


>  <RI>
0

>  <Rbt.Current_Directory>
/home/itssahil/PROJECTS/Mol_Feturizer/New_Systems/rnas/1aju

>  <Rbt.Executable>
rbdock ($Id: //depot/dev/client3/rdock/2013.1/src/exe/rbdock.cxx#4 $)

>  <Rbt.Library>
libRbt.so (2013.1, Build901 2013/11/27)

>  <Rbt.Parameter_File>
/export/apps/rDock/src/rDock_2013.1_src/data/scripts/dock_solv.prm

>  <Rbt.Receptor>
prm/blind_docking_100.prm

>  <SCORE>
-20.3846

>  <SCORE.INTER>
-22.0174

>  <SCORE.INTER.CONST>
1

>  <SCORE.INTER.POLAR>
-5.06833

>  <SCORE.INTER.ROT>
5

>  <SCORE.INTER.SOLV>
26.6771

>  <SCORE.INTER.VDW>
-13.6095

>  <SCORE.INTER.norm>
-2.00158

>  <SCORE.INTRA>
0.831106

>  <SCORE.INTRA.DIHEDRAL>
-1.05837

>  <SCORE.INTRA.DIHEDRAL.0>
9.90185

>  <SCORE.INTRA.POLAR>
0

>  <SCORE.INTRA.POLAR.0>
0

>  <SCORE.INTRA.REPUL>
0

>  <SCORE.INTRA.REPUL.0>
0

>  <SCORE.INTRA.SOLV>
1.74802

>  <SCORE.INTRA.SOLV.lig_0>
-53.6586

>  <SCORE.INTRA.VDW>
0.486284

>  <SCORE.INTRA.VDW.0>
-0.556525

>  <SCORE.INTRA.norm>
0.0755551

>  <SCORE.RESTR>
0.801682

>  <SCORE.RESTR.CAVITY>
0.801682

>  <SCORE.RESTR.norm>
0.0728802

>  <SCORE.SYSTEM>
0

>  <SCORE.SYSTEM.CONST>
0

>  <SCORE.SYSTEM.DIHEDRAL>
0

>  <SCORE.SYSTEM.SOLV>
0

>  <SCORE.SYSTEM.norm>
0

>  <SCORE.heavy>
11

>  <SCORE.norm>
-1.85314

>  <RMSD>
14.057

$$$$

 OpenBabel11021811383D
libRbt.so/2013.1/901 2013/11/27
 11 10  0  0  0  0  0  0  0  0999 V2000
  -11.8812    6.6727   -6.1319 N   0  3  0  0  0  0  0  0  0  0  0  0
  -11.5923    5.2731   -5.6969 C   0  0  2  0  0  0  0  0  0  0  0  0
  -11.8451    4.3039   -6.8641 C   0  0  0  0  0  0  0  0  0  0  0  0
  -12.1561    4.7236   -7.9630 O   0  0  0  0  0  0  0  0  0  0  0  0
  -12.4992    4.9127   -4.5127 C   0  0  0  0  0  0  0  0  0  0  0  0
  -11.8619    5.4036   -3.2097 C   0  0  0  0  0  0  0  0  0  0  0  0
  -12.7890    5.0886   -2.0376 C   0  0  0  0  0  0  0  0  0  0  0  0
  -12.0224    5.1999   -0.7665 N   0  3  0  0  0  0  0  0  0  0  0  0
  -10.7412    5.4460   -0.7935 C   0  0  0  0  0  0  0  0  0  0  0  0
  -10.2805    6.5509   -0.2666 N   0  0  0  0  0  0  0  0  0  0  0  0
   -9.9220    4.5852   -1.3400 N   0  0  0  0  0  0  0  0  0  0  0  0
  2  1  1  6  0  0  0
  2  3  1  0  0  0  0
  2  5  1  0  0  0  0
  3  4  2  0  0  0  0
  5  6  1  0  0  0  0
  6  7  1  0  0  0  0
  7  8  1  0  0  0  0
  8  9  2  0  0  0  0
  9 10  1  0  0  0  0
  9 11  1  0  0  0  0
M  CHG  2   1   1   8   1
M  END
>  <CHROM.1>
26.10383107,3.87212052,-84.64711054,177.99035437,163.86829120,-4.09210664
-11.58391311,5.32371042,-3.61063054,-1.77924169,0.54226017,1.61540847

>  <Name>


>  <RI>
0

>  <Rbt.Current_Directory>
/home/itssahil/PROJECTS/Mol_Feturizer/New_Systems/rnas/1aju

>  <Rbt.Executable>
rbdock ($Id: //depot/dev/client3/rdock/2013.1/src/exe/rbdock.cxx#4 $)

>  <Rbt.Library>
libRbt.so (2013.1, Build901 2013/11/27)

>  <Rbt.Parameter_File>
/export/apps/rDock/src/rDock_2013.1_src/data/scripts/dock_solv.prm

>  <Rbt.Receptor>
prm/blind_docking_40.prm

>  <SCORE>
-20.9008

>  <SCORE.INTER>
-24.4795

>  <SCORE.INTER.CONST>
1

>  <SCORE.INTER.POLAR>
-4.92896

>  <SCORE.INTER.ROT>
5

>  <SCORE.INTER.SOLV>
20.8869

>  <SCORE.INTER.VDW>
-13.7854

>  <SCORE.INTER.norm>
-2.22541

>  <SCORE.INTRA>
3.57875

>  <SCORE.INTRA.DIHEDRAL>
-1.97915

>  <SCORE.INTRA.DIHEDRAL.0>
9.90185

>  <SCORE.INTRA.POLAR>
0

>  <SCORE.INTRA.POLAR.0>
0

>  <SCORE.INTRA.REPUL>
0

>  <SCORE.INTRA.REPUL.0>
0

>  <SCORE.INTRA.SOLV>
2.8064

>  <SCORE.INTRA.SOLV.lig_0>
-53.6586

>  <SCORE.INTRA.VDW>
3.16512

>  <SCORE.INTRA.VDW.0>
-0.556525

>  <SCORE.INTRA.norm>
0.32534

>  <SCORE.RESTR>
0

>  <SCORE.RESTR.CAVITY>
0

>  <SCORE.RESTR.norm>
0

>  <SCORE.SYSTEM>
0

>  <SCORE.SYSTEM.CONST>
0

>  <SCORE.SYSTEM.DIHEDRAL>
0

>  <SCORE.SYSTEM.SOLV>
0

>  <SCORE.SYSTEM.norm>
0

>  <SCORE.heavy>
11

>  <SCORE.norm>
-1.90007

>  <RMSD>
14.098

$$$$

 OpenBabel11021811383D
libRbt.so/2013.1/901 2013/11/27
 11 10  0  0  0  0  0  0  0  0999 V2000
  -11.6119    5.7349   -5.3124 N   0  3  0  0  0  0  0  0  0  0  0  0
  -11.7940    5.2607   -3.9075 C   0  0  2  0  0  0  0  0  0  0  0  0
  -13.1526    5.7405   -3.3695 C   0  0  0  0  0  0  0  0  0  0  0  0
  -13.9544    4.9474   -2.9127 O   0  0  0  0  0  0  0  0  0  0  0  0
  -10.6607    5.8154   -3.0341 C   0  0  0  0  0  0  0  0  0  0  0  0
  -10.8755    5.3857   -1.5801 C   0  0  0  0  0  0  0  0  0  0  0  0
   -9.6551    5.7732   -0.7477 C   0  0  0  0  0  0  0  0  0  0  0  0
  -10.0785    6.0000    0.6613 N   0  3  0  0  0  0  0  0  0  0  0  0
  -10.7319    7.0827    0.9829 C   0  0  0  0  0  0  0  0  0  0  0  0
  -11.9525    6.9922    1.4440 N   0  0  0  0  0  0  0  0  0  0  0  0
  -10.1628    8.2529    0.8502 N   0  0  0  0  0  0  0  0  0  0  0  0
  2  1  1  6  0  0  0
  2  3  1  0  0  0  0
  2  5  1  0  0  0  0
  3  4  2  0  0  0  0
  5  6  1  0  0  0  0
  6  7  1  0  0  0  0
  7  8  1  0  0  0  0
  8  9  2  0  0  0  0
  9 10  1  0  0  0  0
  9 11  1  0  0  0  0
M  CHG  2   1   1   8   1
M  END
>  <CHROM.1>
162.91578077,125.31733257,177.45603747,172.33818234,152.02579468,-74.41549794
-11.34724624,6.10445405,-1.55140374,-1.88433159,0.13156219,1.30080179

>  <Name>


>  <RI>
0

>  <Rbt.Current_Directory>
/home/itssahil/PROJECTS/Mol_Feturizer/New_Systems/rnas/1aju

>  <Rbt.Executable>
rbdock ($Id: //depot/dev/client3/rdock/2013.1/src/exe/rbdock.cxx#4 $)

>  <Rbt.Library>
libRbt.so (2013.1, Build901 2013/11/27)

>  <Rbt.Parameter_File>
/export/apps/rDock/src/rDock_2013.1_src/data/scripts/dock_solv.prm

>  <Rbt.Receptor>
prm/blind_docking_80.prm

>  <SCORE>
-29.6831

>  <SCORE.INTER>
-29.4546

>  <SCORE.INTER.CONST>
1

>  <SCORE.INTER.POLAR>
-5.11906

>  <SCORE.INTER.ROT>
5

>  <SCORE.INTER.SOLV>
20.2005

>  <SCORE.INTER.VDW>
-16.2397

>  <SCORE.INTER.norm>
-2.67769

>  <SCORE.INTRA>
-1.05501

>  <SCORE.INTRA.DIHEDRAL>
-3.45809

>  <SCORE.INTRA.DIHEDRAL.0>
9.90185

>  <SCORE.INTRA.POLAR>
0

>  <SCORE.INTRA.POLAR.0>
0

>  <SCORE.INTRA.REPUL>
0

>  <SCORE.INTRA.REPUL.0>
0

>  <SCORE.INTRA.SOLV>
0.175068

>  <SCORE.INTRA.SOLV.lig_0>
-53.6586

>  <SCORE.INTRA.VDW>
0.586499

>  <SCORE.INTRA.VDW.0>
-0.556525

>  <SCORE.INTRA.norm>
-0.09591

>  <SCORE.RESTR>
0.82649

>  <SCORE.RESTR.CAVITY>
0.82649

>  <SCORE.RESTR.norm>
0.0751355

>  <SCORE.SYSTEM>
0

>  <SCORE.SYSTEM.CONST>
0

>  <SCORE.SYSTEM.DIHEDRAL>
0

>  <SCORE.SYSTEM.SOLV>
0

>  <SCORE.SYSTEM.norm>
0

>  <SCORE.heavy>
11

>  <SCORE.norm>
-2.69847

>  <RMSD>
14.126

$$$$

 OpenBabel11021811383D
libRbt.so/2013.1/901 2013/11/27
 11 10  0  0  0  0  0  0  0  0999 V2000
  -13.4635    5.5185   -3.5837 N   0  3  0  0  0  0  0  0  0  0  0  0
  -12.3836    5.7844   -2.5862 C   0  0  2  0  0  0  0  0  0  0  0  0
  -11.0250    5.8696   -3.3020 C   0  0  0  0  0  0  0  0  0  0  0  0
  -10.9626    5.8693   -4.5171 O   0  0  0  0  0  0  0  0  0  0  0  0
  -12.3589    4.6514   -1.5515 C   0  0  0  0  0  0  0  0  0  0  0  0
  -12.0071    5.2212   -0.1743 C   0  0  0  0  0  0  0  0  0  0  0  0
  -10.5338    5.6226   -0.1492 C   0  0  0  0  0  0  0  0  0  0  0  0
  -10.1750    6.0736    1.2233 N   0  3  0  0  0  0  0  0  0  0  0  0
  -10.5842    7.2333    1.6597 C   0  0  0  0  0  0  0  0  0  0  0  0
  -11.3924    7.2929    2.6863 N   0  0  0  0  0  0  0  0  0  0  0  0
  -10.1799    8.3312    1.0749 N   0  0  0  0  0  0  0  0  0  0  0  0
  2  1  1  6  0  0  0
  2  3  1  0  0  0  0
  2  5  1  0  0  0  0
  3  4  2  0  0  0  0
  5  6  1  0  0  0  0
  6  7  1  0  0  0  0
  7  8  1  0  0  0  0
  8  9  2  0  0  0  0
  9 10  1  0  0  0  0
  9 11  1  0  0  0  0
M  CHG  2   1   1   8   1
M  END
>  <CHROM.1>
-179.15703706,7.85362640,-144.28675317,-71.64826560,-175.55227109,-73.82586670
-11.39090981,6.15085358,-0.85798161,1.89758031,-0.67646683,-1.65615527

>  <Name>


>  <RI>
224

>  <Rbt.Current_Directory>
/home/itssahil/PROJECTS/Mol_Feturizer/New_Systems/rnas/1aju

>  <Rbt.Executable>
rbdock ($Id: //depot/dev/client3/rdock/2013.1/src/exe/rbdock.cxx#4 $)

>  <Rbt.Library>
libRbt.so (2013.1, Build901 2013/11/27)

>  <Rbt.Parameter_File>
/export/apps/rDock/src/rDock_2013.1_src/data/scripts/dock_solv.prm

>  <Rbt.Receptor>
prm/blind_docking_20.prm

>  <SCORE>
-20.0228

>  <SCORE.INTER>
-19.733

>  <SCORE.INTER.CONST>
1

>  <SCORE.INTER.POLAR>
-3.19273

>  <SCORE.INTER.ROT>
5

>  <SCORE.INTER.SOLV>
16.3952

>  <SCORE.INTER.VDW>
-14.9113

>  <SCORE.INTER.norm>
-1.79391

>  <SCORE.INTRA>
-0.573726

>  <SCORE.INTRA.DIHEDRAL>
-2.84495

>  <SCORE.INTRA.DIHEDRAL.0>
9.90185

>  <SCORE.INTRA.POLAR>
0

>  <SCORE.INTRA.POLAR.0>
0

>  <SCORE.INTRA.REPUL>
0

>  <SCORE.INTRA.REPUL.0>
0

>  <SCORE.INTRA.SOLV>
1.35233

>  <SCORE.INTRA.SOLV.lig_0>
-53.6586

>  <SCORE.INTRA.VDW>
0.172581

>  <SCORE.INTRA.VDW.0>
-0.556525

>  <SCORE.INTRA.norm>
-0.0521569

>  <SCORE.RESTR>
0.28385

>  <SCORE.RESTR.CAVITY>
0.28385

>  <SCORE.RESTR.norm>
0.0258045

>  <SCORE.SYSTEM>
0

>  <SCORE.SYSTEM.CONST>
0

>  <SCORE.SYSTEM.DIHEDRAL>
0

>  <SCORE.SYSTEM.SOLV>
0

>  <SCORE.SYSTEM.norm>
0

>  <SCORE.heavy>
11

>  <SCORE.norm>
-1.82026

>  <RMSD>
14.128

$$$$

 OpenBabel11021811383D
libRbt.so/2013.1/901 2013/11/27
 11 10  0  0  0  0  0  0  0  0999 V2000
  -11.1443    6.2349   -4.3841 N   0  3  0  0  0  0  0  0  0  0  0  0
  -11.7408    4.9520   -3.9045 C   0  0  2  0  0  0  0  0  0  0  0  0
  -12.6274    4.3476   -5.0064 C   0  0  0  0  0  0  0  0  0  0  0  0
  -12.5176    4.7134   -6.1616 O   0  0  0  0  0  0  0  0  0  0  0  0
  -12.5795    5.2212   -2.6479 C   0  0  0  0  0  0  0  0  0  0  0  0
  -11.6538    5.5494   -1.4731 C   0  0  0  0  0  0  0  0  0  0  0  0
  -12.4399    5.4702   -0.1661 C   0  0  0  0  0  0  0  0  0  0  0  0
  -11.9661    6.5409    0.7531 N   0  3  0  0  0  0  0  0  0  0  0  0
  -10.6944    6.8230    0.8298 C   0  0  0  0  0  0  0  0  0  0  0  0
  -10.2695    8.0085    0.4766 N   0  0  0  0  0  0  0  0  0  0  0  0
   -9.8508    5.9236    1.2657 N   0  0  0  0  0  0  0  0  0  0  0  0
  2  1  1  6  0  0  0
  2  3  1  0  0  0  0
  2  5  1  0  0  0  0
  3  4  2  0  0  0  0
  5  6  1  0  0  0  0
  6  7  1  0  0  0  0
  7  8  1  0  0  0  0
  8  9  2  0  0  0  0
  9 10  1  0  0  0  0
  9 11  1  0  0  0  0
M  CHG  2   1   1   8   1
M  END
>  <CHROM.1>
-58.04105472,17.71330655,-70.96677661,-165.82864818,-142.96910301,-39.90673878
-11.55592619,5.83884457,-1.87192921,-1.89331661,0.75477441,1.50644024

>  <Name>


>  <RI>
0

>  <Rbt.Current_Directory>
/home/itssahil/PROJECTS/Mol_Feturizer/New_Systems/rnas/1aju

>  <Rbt.Executable>
rbdock ($Id: //depot/dev/client3/rdock/2013.1/src/exe/rbdock.cxx#4 $)

>  <Rbt.Library>
libRbt.so (2013.1, Build901 2013/11/27)

>  <Rbt.Parameter_File>
/export/apps/rDock/src/rDock_2013.1_src/data/scripts/dock_solv.prm

>  <Rbt.Receptor>
prm/blind_docking_100.prm

>  <SCORE>
-20.7287

>  <SCORE.INTER>
-22.1416

>  <SCORE.INTER.CONST>
1

>  <SCORE.INTER.POLAR>
-5.03183

>  <SCORE.INTER.ROT>
5

>  <SCORE.INTER.SOLV>
25.6579

>  <SCORE.INTER.VDW>
-13.4743

>  <SCORE.INTER.norm>
-2.01288

>  <SCORE.INTRA>
1.24756

>  <SCORE.INTRA.DIHEDRAL>
-1.46427

>  <SCORE.INTRA.DIHEDRAL.0>
9.90185

>  <SCORE.INTRA.POLAR>
0

>  <SCORE.INTRA.POLAR.0>
0

>  <SCORE.INTRA.REPUL>
0

>  <SCORE.INTRA.REPUL.0>
0

>  <SCORE.INTRA.SOLV>
2.48595

>  <SCORE.INTRA.SOLV.lig_0>
-53.6586

>  <SCORE.INTRA.VDW>
0.736725

>  <SCORE.INTRA.VDW.0>
-0.556525

>  <SCORE.INTRA.norm>
0.113415

>  <SCORE.RESTR>
0.165395

>  <SCORE.RESTR.CAVITY>
0.165395

>  <SCORE.RESTR.norm>
0.0150359

>  <SCORE.SYSTEM>
0

>  <SCORE.SYSTEM.CONST>
0

>  <SCORE.SYSTEM.DIHEDRAL>
0

>  <SCORE.SYSTEM.SOLV>
0

>  <SCORE.SYSTEM.norm>
0

>  <SCORE.heavy>
11

>  <SCORE.norm>
-1.88443

>  <RMSD>
14.139

$$$$

 OpenBabel11021811383D
libRbt.so/2013.1/901 2013/11/27
 11 10  0  0  0  0  0  0  0  0999 V2000
  -10.2062    8.4390    0.8909 N   0  3  0  0  0  0  0  0  0  0  0  0
  -11.3535    8.1591    1.8057 C   0  0  2  0  0  0  0  0  0  0  0  0
  -10.9354    8.4299    3.2609 C   0  0  0  0  0  0  0  0  0  0  0  0
  -11.5630    9.2101    3.9520 O   0  0  0  0  0  0  0  0  0  0  0  0
  -11.7813    6.6938    1.6490 C   0  0  0  0  0  0  0  0  0  0  0  0
  -12.0827    6.4014    0.1764 C   0  0  0  0  0  0  0  0  0  0  0  0
  -12.1332    4.8910   -0.0441 C   0  0  0  0  0  0  0  0  0  0  0  0
  -11.5865    4.5770   -1.3926 N   0  3  0  0  0  0  0  0  0  0  0  0
  -11.6754    5.4528   -2.3558 C   0  0  0  0  0  0  0  0  0  0  0  0
  -10.5873    5.9537   -2.8810 N   0  0  0  0  0  0  0  0  0  0  0  0
  -12.8501    5.8213   -2.7974 N   0  0  0  0  0  0  0  0  0  0  0  0
  2  1  1  6  0  0  0
  2  3  1  0  0  0  0
  2  5  1  0  0  0  0
  3  4  2  0  0  0  0
  5  6  1  0  0  0  0
  6  7  1  0  0  0  0
  7  8  1  0  0  0  0
  8  9  2  0  0  0  0
  9 10  1  0  0  0  0
  9 11  1  0  0  0  0
M  CHG  2   1   1   8   1
M  END
>  <CHROM.1>
-68.04143206,123.91256057,-54.77858779,164.65651416,-145.02209321,-28.34758415
-11.49967150,6.75453564,0.17231448,-1.41663427,-0.91957960,-1.99841696

>  <Name>


>  <RI>
0

>  <Rbt.Current_Directory>
/home/itssahil/PROJECTS/Mol_Feturizer/New_Systems/rnas/1aju

>  <Rbt.Executable>
rbdock ($Id: //depot/dev/client3/rdock/2013.1/src/exe/rbdock.cxx#4 $)

>  <Rbt.Library>
libRbt.so (2013.1, Build901 2013/11/27)

>  <Rbt.Parameter_File>
/export/apps/rDock/src/rDock_2013.1_src/data/scripts/dock_solv.prm

>  <Rbt.Receptor>
prm/blind_docking_100.prm

>  <SCORE>
-22.8226

>  <SCORE.INTER>
-25.1179

>  <SCORE.INTER.CONST>
1

>  <SCORE.INTER.POLAR>
-5.11794

>  <SCORE.INTER.ROT>
5

>  <SCORE.INTER.SOLV>
23.7382

>  <SCORE.INTER.VDW>
-14.5316

>  <SCORE.INTER.norm>
-2.28345

>  <SCORE.INTRA>
2.29537

>  <SCORE.INTRA.DIHEDRAL>
-2.31442

>  <SCORE.INTRA.DIHEDRAL.0>
9.90185

>  <SCORE.INTRA.POLAR>
0

>  <SCORE.INTRA.POLAR.0>
0

>  <SCORE.INTRA.REPUL>
0.0166864

>  <SCORE.INTRA.REPUL.0>
0

>  <SCORE.INTRA.SOLV>
2.35568

>  <SCORE.INTRA.SOLV.lig_0>
-53.6586

>  <SCORE.INTRA.VDW>
2.19131

>  <SCORE.INTRA.VDW.0>
-0.556525

>  <SCORE.INTRA.norm>
0.20867

>  <SCORE.RESTR>
0

>  <SCORE.RESTR.CAVITY>
0

>  <SCORE.RESTR.norm>
0

>  <SCORE.SYSTEM>
0

>  <SCORE.SYSTEM.CONST>
0

>  <SCORE.SYSTEM.DIHEDRAL>
0

>  <SCORE.SYSTEM.SOLV>
0

>  <SCORE.SYSTEM.norm>
0

>  <SCORE.heavy>
11

>  <SCORE.norm>
-2.07478

>  <RMSD>
14.140

$$$$

 OpenBabel11021811383D
libRbt.so/2013.1/901 2013/11/27
 11 10  0  0  0  0  0  0  0  0999 V2000
  -13.0479    4.6183   -3.5075 N   0  3  0  0  0  0  0  0  0  0  0  0
  -12.2201    5.8617   -3.5158 C   0  0  2  0  0  0  0  0  0  0  0  0
  -12.0328    6.3513   -4.9618 C   0  0  0  0  0  0  0  0  0  0  0  0
  -12.6025    5.7974   -5.8832 O   0  0  0  0  0  0  0  0  0  0  0  0
  -10.8537    5.5655   -2.8834 C   0  0  0  0  0  0  0  0  0  0  0  0
  -11.0376    5.2152   -1.4041 C   0  0  0  0  0  0  0  0  0  0  0  0
   -9.7998    5.6457   -0.6199 C   0  0  0  0  0  0  0  0  0  0  0  0
  -10.1942    5.9548    0.7818 N   0  3  0  0  0  0  0  0  0  0  0  0
  -10.8042    7.0745    1.0590 C   0  0  0  0  0  0  0  0  0  0  0  0
  -12.0204    7.0501    1.5397 N   0  0  0  0  0  0  0  0  0  0  0  0
  -10.1963    8.2158    0.8625 N   0  0  0  0  0  0  0  0  0  0  0  0
  2  1  1  6  0  0  0
  2  3  1  0  0  0  0
  2  5  1  0  0  0  0
  3  4  2  0  0  0  0
  5  6  1  0  0  0  0
  6  7  1  0  0  0  0
  7  8  1  0  0  0  0
  8  9  2  0  0  0  0
  9 10  1  0  0  0  0
  9 11  1  0  0  0  0
M  CHG  2   1   1   8   1
M  END
>  <CHROM.1>
176.48497838,5.09678640,-65.18453843,-149.72122758,151.75977491,-76.39584460
-11.38300595,6.11118224,-1.67996703,-2.46019745,-1.20085091,0.47446365

>  <Name>


>  <RI>
0

>  <Rbt.Current_Directory>
/home/itssahil/PROJECTS/Mol_Feturizer/New_Systems/rnas/1aju

>  <Rbt.Executable>
rbdock ($Id: //depot/dev/client3/rdock/2013.1/src/exe/rbdock.cxx#4 $)

>  <Rbt.Library>
libRbt.so (2013.1, Build901 2013/11/27)

>  <Rbt.Parameter_File>
/export/apps/rDock/src/rDock_2013.1_src/data/scripts/dock_solv.prm

>  <Rbt.Receptor>
prm/blind_docking_100.prm

>  <SCORE>
-23.697

>  <SCORE.INTER>
-24.3665

>  <SCORE.INTER.CONST>
1

>  <SCORE.INTER.POLAR>
-3.89435

>  <SCORE.INTER.ROT>
5

>  <SCORE.INTER.SOLV>
16.4418

>  <SCORE.INTER.VDW>
-15.6771

>  <SCORE.INTER.norm>
-2.21514

>  <SCORE.INTRA>
0.583224

>  <SCORE.INTRA.DIHEDRAL>
-1.12863

>  <SCORE.INTRA.DIHEDRAL.0>
9.90185

>  <SCORE.INTRA.POLAR>
0

>  <SCORE.INTRA.POLAR.0>
0

>  <SCORE.INTRA.REPUL>
0

>  <SCORE.INTRA.REPUL.0>
0

>  <SCORE.INTRA.SOLV>
2.36297

>  <SCORE.INTRA.SOLV.lig_0>
-53.6586

>  <SCORE.INTRA.VDW>
-0.0339456

>  <SCORE.INTRA.VDW.0>
-0.556525

>  <SCORE.INTRA.norm>
0.0530204

>  <SCORE.RESTR>
0.0862553

>  <SCORE.RESTR.CAVITY>
0.0862553

>  <SCORE.RESTR.norm>
0.00784139

>  <SCORE.SYSTEM>
0

>  <SCORE.SYSTEM.CONST>
0

>  <SCORE.SYSTEM.DIHEDRAL>
0

>  <SCORE.SYSTEM.SOLV>
0

>  <SCORE.SYSTEM.norm>
0

>  <SCORE.heavy>
11

>  <SCORE.norm>
-2.15427

>  <RMSD>
14.198

$$$$

 OpenBabel11021811383D
libRbt.so/2013.1/901 2013/11/27
 11 10  0  0  0  0  0  0  0  0999 V2000
  -13.4903    6.4843   -2.7905 N   0  3  0  0  0  0  0  0  0  0  0  0
  -12.1120    5.9086   -2.8099 C   0  0  2  0  0  0  0  0  0  0  0  0
  -11.7635    5.4437   -4.2341 C   0  0  0  0  0  0  0  0  0  0  0  0
  -11.1255    6.1603   -4.9822 O   0  0  0  0  0  0  0  0  0  0  0  0
  -12.0450    4.7203   -1.8413 C   0  0  0  0  0  0  0  0  0  0  0  0
  -11.8296    5.2325   -0.4143 C   0  0  0  0  0  0  0  0  0  0  0  0
  -10.3619    5.6093   -0.2234 C   0  0  0  0  0  0  0  0  0  0  0  0
  -10.1507    6.0483    1.1832 N   0  3  0  0  0  0  0  0  0  0  0  0
  -10.6024    7.2054    1.5832 C   0  0  0  0  0  0  0  0  0  0  0  0
  -11.5152    7.2584    2.5185 N   0  0  0  0  0  0  0  0  0  0  0  0
  -10.1367    8.3070    1.0539 N   0  0  0  0  0  0  0  0  0  0  0  0
  2  1  1  6  0  0  0
  2  3  1  0  0  0  0
  2  5  1  0  0  0  0
  3  4  2  0  0  0  0
  5  6  1  0  0  0  0
  6  7  1  0  0  0  0
  7  8  1  0  0  0  0
  8  9  2  0  0  0  0
  9 10  1  0  0  0  0
  9 11  1  0  0  0  0
M  CHG  2   1   1   8   1
M  END
>  <CHROM.1>
60.97569525,96.57006753,-82.10872298,-78.15291065,-177.51123063,-72.93406178
-11.39886242,6.25724164,-0.99065504,1.87900476,-0.71222230,-1.59733280

>  <Name>


>  <RI>
0

>  <Rbt.Current_Directory>
/home/itssahil/PROJECTS/Mol_Feturizer/New_Systems/rnas/1aju

>  <Rbt.Executable>
rbdock ($Id: //depot/dev/client3/rdock/2013.1/src/exe/rbdock.cxx#4 $)

>  <Rbt.Library>
libRbt.so (2013.1, Build901 2013/11/27)

>  <Rbt.Parameter_File>
/export/apps/rDock/src/rDock_2013.1_src/data/scripts/dock_solv.prm

>  <Rbt.Receptor>
prm/blind_docking_100.prm

>  <SCORE>
-20.1905

>  <SCORE.INTER>
-19.5322

>  <SCORE.INTER.CONST>
1

>  <SCORE.INTER.POLAR>
-3.45314

>  <SCORE.INTER.ROT>
5

>  <SCORE.INTER.SOLV>
18.6397

>  <SCORE.INTER.VDW>
-14.6575

>  <SCORE.INTER.norm>
-1.77565

>  <SCORE.INTRA>
-1.25474

>  <SCORE.INTRA.DIHEDRAL>
-3.18523

>  <SCORE.INTRA.DIHEDRAL.0>
9.90185

>  <SCORE.INTRA.POLAR>
0

>  <SCORE.INTRA.POLAR.0>
0

>  <SCORE.INTRA.REPUL>
0

>  <SCORE.INTRA.REPUL.0>
0

>  <SCORE.INTRA.SOLV>
1.35457

>  <SCORE.INTRA.SOLV.lig_0>
-53.6586

>  <SCORE.INTRA.VDW>
-0.339408

>  <SCORE.INTRA.VDW.0>
-0.556525

>  <SCORE.INTRA.norm>
-0.114067

>  <SCORE.RESTR>
0.596418

>  <SCORE.RESTR.CAVITY>
0.596418

>  <SCORE.RESTR.norm>
0.0542198

>  <SCORE.SYSTEM>
0

>  <SCORE.SYSTEM.CONST>
0

>  <SCORE.SYSTEM.DIHEDRAL>
0

>  <SCORE.SYSTEM.SOLV>
0

>  <SCORE.SYSTEM.norm>
0

>  <SCORE.heavy>
11

>  <SCORE.norm>
-1.8355

>  <RMSD>
14.204

$$$$

 OpenBabel11021811383D
libRbt.so/2013.1/901 2013/11/27
 11 10  0  0  0  0  0  0  0  0999 V2000
  -12.7780    5.9438   -2.4584 N   0  3  0  0  0  0  0  0  0  0  0  0
  -11.4438    6.0029   -3.1277 C   0  0  2  0  0  0  0  0  0  0  0  0
  -11.5380    5.3778   -4.5299 C   0  0  0  0  0  0  0  0  0  0  0  0
  -12.5810    4.8900   -4.9230 O   0  0  0  0  0  0  0  0  0  0  0  0
  -10.4178    5.2367   -2.2820 C   0  0  0  0  0  0  0  0  0  0  0  0
   -9.9382    6.1230   -1.1290 C   0  0  0  0  0  0  0  0  0  0  0  0
  -10.7635    5.8254    0.1211 C   0  0  0  0  0  0  0  0  0  0  0  0
  -10.4111    6.8075    1.1828 N   0  3  0  0  0  0  0  0  0  0  0  0
  -11.3518    7.4480    1.8210 C   0  0  0  0  0  0  0  0  0  0  0  0
  -11.4972    7.2745    3.1092 N   0  0  0  0  0  0  0  0  0  0  0  0
  -12.1407    8.2659    1.1733 N   0  0  0  0  0  0  0  0  0  0  0  0
  2  1  1  1  0  0  0
  2  3  1  0  0  0  0
  2  5  1  0  0  0  0
  3  4  2  0  0  0  0
  5  6  1  0  0  0  0
  6  7  1  0  0  0  0
  7  8  1  0  0  0  0
  8  9  2  0  0  0  0
  9 10  1  0  0  0  0
  9 11  1  0  0  0  0
M  CHG  2   1   1   8   1
M  END
>  <CHROM.1>
81.36103027,-2.40706180,-80.58156304,94.84516702,-172.83070446,130.43096001
-11.40136208,6.30364897,-0.98007630,1.67454962,0.38884692,-1.93726664

>  <Name>


>  <RI>
0

>  <Rbt.Current_Directory>
/home/itssahil/PROJECTS/Mol_Feturizer/New_Systems/rnas/1aju

>  <Rbt.Executable>
rbdock ($Id: //depot/dev/client3/rdock/2013.1/src/exe/rbdock.cxx#4 $)

>  <Rbt.Library>
libRbt.so (2013.1, Build901 2013/11/27)

>  <Rbt.Parameter_File>
/export/apps/rDock/src/rDock_2013.1_src/data/scripts/dock_solv.prm

>  <Rbt.Receptor>
prm/blind_docking_40.prm

>  <SCORE>
-18.7641

>  <SCORE.INTER>
-19.9631

>  <SCORE.INTER.CONST>
1

>  <SCORE.INTER.POLAR>
-3.46418

>  <SCORE.INTER.ROT>
5

>  <SCORE.INTER.SOLV>
14.999

>  <SCORE.INTER.VDW>
-13.6945

>  <SCORE.INTER.norm>
-1.81483

>  <SCORE.INTRA>
1.18866

>  <SCORE.INTRA.DIHEDRAL>
-0.53382

>  <SCORE.INTRA.DIHEDRAL.0>
9.90185

>  <SCORE.INTRA.POLAR>
0

>  <SCORE.INTRA.POLAR.0>
0

>  <SCORE.INTRA.REPUL>
0.00191023

>  <SCORE.INTRA.REPUL.0>
0

>  <SCORE.INTRA.SOLV>
3.92065

>  <SCORE.INTRA.SOLV.lig_0>
-53.6586

>  <SCORE.INTRA.VDW>
-0.514304

>  <SCORE.INTRA.VDW.0>
-0.556525

>  <SCORE.INTRA.norm>
0.10806

>  <SCORE.RESTR>
0.0103313

>  <SCORE.RESTR.CAVITY>
0.0103313

>  <SCORE.RESTR.norm>
0.000939208

>  <SCORE.SYSTEM>
0

>  <SCORE.SYSTEM.CONST>
0

>  <SCORE.SYSTEM.DIHEDRAL>
0

>  <SCORE.SYSTEM.SOLV>
0

>  <SCORE.SYSTEM.norm>
0

>  <SCORE.heavy>
11

>  <SCORE.norm>
-1.70583

>  <RMSD>
14.204

$$$$

 OpenBabel11021811383D
libRbt.so/2013.1/901 2013/11/27
 11 10  0  0  0  0  0  0  0  0999 V2000
  -11.7531    6.8440    4.4603 N   0  3  0  0  0  0  0  0  0  0  0  0
  -11.4009    7.7722    3.3440 C   0  0  2  0  0  0  0  0  0  0  0  0
  -12.6077    8.6660    3.0116 C   0  0  0  0  0  0  0  0  0  0  0  0
  -12.6079    9.8451    3.3114 O   0  0  0  0  0  0  0  0  0  0  0  0
  -11.0020    6.9525    2.1096 C   0  0  0  0  0  0  0  0  0  0  0  0
  -12.1301    5.9806    1.7520 C   0  0  0  0  0  0  0  0  0  0  0  0
  -11.7025    5.1155    0.5683 C   0  0  0  0  0  0  0  0  0  0  0  0
  -11.4313    5.9928   -0.6034 N   0  3  0  0  0  0  0  0  0  0  0  0
  -10.7272    5.5461   -1.6072 C   0  0  0  0  0  0  0  0  0  0  0  0
  -11.2755    5.4420   -2.7901 N   0  0  0  0  0  0  0  0  0  0  0  0
   -9.4754    5.2113   -1.4295 N   0  0  0  0  0  0  0  0  0  0  0  0
  2  1  1  1  0  0  0
  2  3  1  0  0  0  0
  2  5  1  0  0  0  0
  3  4  2  0  0  0  0
  5  6  1  0  0  0  0
  6  7  1  0  0  0  0
  7  8  1  0  0  0  0
  8  9  2  0  0  0  0
  9 10  1  0  0  0  0
  9 11  1  0  0  0  0
M  CHG  2   1   1   8   1
M  END
>  <CHROM.1>
-65.02162420,107.67076036,55.44580204,-177.08292176,-60.85558675,161.91909030
-11.45994964,6.66882360,1.10997663,-2.19235439,1.17342702,-1.48053684

>  <Name>


>  <RI>
0

>  <Rbt.Current_Directory>
/home/itssahil/PROJECTS/Mol_Feturizer/New_Systems/rnas/1aju

>  <Rbt.Executable>
rbdock ($Id: //depot/dev/client3/rdock/2013.1/src/exe/rbdock.cxx#4 $)

>  <Rbt.Library>
libRbt.so (2013.1, Build901 2013/11/27)

>  <Rbt.Parameter_File>
/export/apps/rDock/src/rDock_2013.1_src/data/scripts/dock_solv.prm

>  <Rbt.Receptor>
prm/blind_docking_100.prm

>  <SCORE>
-14.0017

>  <SCORE.INTER>
-12.8725

>  <SCORE.INTER.CONST>
1

>  <SCORE.INTER.POLAR>
-2.90338

>  <SCORE.INTER.ROT>
5

>  <SCORE.INTER.SOLV>
17.8166

>  <SCORE.INTER.VDW>
-11.7759

>  <SCORE.INTER.norm>
-1.17022

>  <SCORE.INTRA>
-1.13713

>  <SCORE.INTRA.DIHEDRAL>
-6.47098

>  <SCORE.INTRA.DIHEDRAL.0>
9.90185

>  <SCORE.INTRA.POLAR>
0

>  <SCORE.INTRA.POLAR.0>
0

>  <SCORE.INTRA.REPUL>
0

>  <SCORE.INTRA.REPUL.0>
0

>  <SCORE.INTRA.SOLV>
2.06009

>  <SCORE.INTRA.SOLV.lig_0>
-53.6586

>  <SCORE.INTRA.VDW>
1.06831

>  <SCORE.INTRA.VDW.0>
-0.556525

>  <SCORE.INTRA.norm>
-0.103376

>  <SCORE.RESTR>
0.00790501

>  <SCORE.RESTR.CAVITY>
0.00790501

>  <SCORE.RESTR.norm>
0.000718637

>  <SCORE.SYSTEM>
0

>  <SCORE.SYSTEM.CONST>
0

>  <SCORE.SYSTEM.DIHEDRAL>
0

>  <SCORE.SYSTEM.SOLV>
0

>  <SCORE.SYSTEM.norm>
0

>  <SCORE.heavy>
11

>  <SCORE.norm>
-1.27288

>  <RMSD>
14.226

$$$$

 OpenBabel11021811383D
libRbt.so/2013.1/901 2013/11/27
 11 10  0  0  0  0  0  0  0  0999 V2000
  -11.6423    5.7047   -5.2875 N   0  3  0  0  0  0  0  0  0  0  0  0
  -11.7764    5.1748   -3.8973 C   0  0  2  0  0  0  0  0  0  0  0  0
  -13.1793    5.4937   -3.3531 C   0  0  0  0  0  0  0  0  0  0  0  0
  -13.9660    6.1483   -4.0109 O   0  0  0  0  0  0  0  0  0  0  0  0
  -10.7098    5.8211   -3.0031 C   0  0  0  0  0  0  0  0  0  0  0  0
  -10.8879    5.3388   -1.5607 C   0  0  0  0  0  0  0  0  0  0  0  0
   -9.7034    5.8050   -0.7167 C   0  0  0  0  0  0  0  0  0  0  0  0
  -10.1538    6.0013    0.6885 N   0  3  0  0  0  0  0  0  0  0  0  0
  -10.7914    7.0885    1.0262 C   0  0  0  0  0  0  0  0  0  0  0  0
  -12.0238    7.0115    1.4576 N   0  0  0  0  0  0  0  0  0  0  0  0
  -10.1951    8.2493    0.9395 N   0  0  0  0  0  0  0  0  0  0  0  0
  2  1  1  6  0  0  0
  2  3  1  0  0  0  0
  2  5  1  0  0  0  0
  3  4  2  0  0  0  0
  5  6  1  0  0  0  0
  6  7  1  0  0  0  0
  7  8  1  0  0  0  0
  8  9  2  0  0  0  0
  9 10  1  0  0  0  0
  9 11  1  0  0  0  0
M  CHG  2   1   1   8   1
M  END
>  <CHROM.1>
-68.02266323,-3.45006870,177.03374453,171.21847281,150.28024334,-79.71418286
-11.38421108,6.19555305,-1.63300927,-1.89432035,-0.22033931,1.24009934

>  <Name>


>  <RI>
0

>  <Rbt.Current_Directory>
/home/itssahil/PROJECTS/Mol_Feturizer/New_Systems/rnas/1aju

>  <Rbt.Executable>
rbdock ($Id: //depot/dev/client3/rdock/2013.1/src/exe/rbdock.cxx#4 $)

>  <Rbt.Library>
libRbt.so (2013.1, Build901 2013/11/27)

>  <Rbt.Parameter_File>
/export/apps/rDock/src/rDock_2013.1_src/data/scripts/dock_solv.prm

>  <Rbt.Receptor>
prm/blind_docking_100.prm

>  <SCORE>
-28.8439

>  <SCORE.INTER>
-29.3541

>  <SCORE.INTER.CONST>
1

>  <SCORE.INTER.POLAR>
-5.04125

>  <SCORE.INTER.ROT>
5

>  <SCORE.INTER.SOLV>
19.571

>  <SCORE.INTER.VDW>
-16.2223

>  <SCORE.INTER.norm>
-2.66856

>  <SCORE.INTRA>
-0.592693

>  <SCORE.INTRA.DIHEDRAL>
-3.66542

>  <SCORE.INTRA.DIHEDRAL.0>
9.90185

>  <SCORE.INTRA.POLAR>
0

>  <SCORE.INTRA.POLAR.0>
0

>  <SCORE.INTRA.REPUL>
0

>  <SCORE.INTRA.REPUL.0>
0

>  <SCORE.INTRA.SOLV>
1.19817

>  <SCORE.INTRA.SOLV.lig_0>
-53.6586

>  <SCORE.INTRA.VDW>
0.64093

>  <SCORE.INTRA.VDW.0>
-0.556525

>  <SCORE.INTRA.norm>
-0.0538812

>  <SCORE.RESTR>
1.1029

>  <SCORE.RESTR.CAVITY>
1.1029

>  <SCORE.RESTR.norm>
0.100264

>  <SCORE.SYSTEM>
0

>  <SCORE.SYSTEM.CONST>
0

>  <SCORE.SYSTEM.DIHEDRAL>
0

>  <SCORE.SYSTEM.SOLV>
0

>  <SCORE.SYSTEM.norm>
0

>  <SCORE.heavy>
11

>  <SCORE.norm>
-2.62218

>  <RMSD>
14.235

$$$$

 OpenBabel11021811383D
libRbt.so/2013.1/901 2013/11/27
 11 10  0  0  0  0  0  0  0  0999 V2000
  -11.4953    6.2719   -7.7376 N   0  3  0  0  0  0  0  0  0  0  0  0
  -11.6072    5.3379   -6.5771 C   0  0  2  0  0  0  0  0  0  0  0  0
  -12.0579    3.9516   -7.0677 C   0  0  0  0  0  0  0  0  0  0  0  0
  -11.9528    3.6439   -8.2401 O   0  0  0  0  0  0  0  0  0  0  0  0
  -12.6272    5.8946   -5.5748 C   0  0  0  0  0  0  0  0  0  0  0  0
  -12.5440    5.1050   -4.2654 C   0  0  0  0  0  0  0  0  0  0  0  0
  -11.5161    5.7550   -3.3416 C   0  0  0  0  0  0  0  0  0  0  0  0
  -11.3718    4.9263   -2.1135 N   0  3  0  0  0  0  0  0  0  0  0  0
  -10.8478    5.4399   -1.0345 C   0  0  0  0  0  0  0  0  0  0  0  0
  -11.5683    5.5423    0.0524 N   0  0  0  0  0  0  0  0  0  0  0  0
   -9.6038    5.8436   -1.0406 N   0  0  0  0  0  0  0  0  0  0  0  0
  2  1  1  6  0  0  0
  2  3  1  0  0  0  0
  2  5  1  0  0  0  0
  3  4  2  0  0  0  0
  5  6  1  0  0  0  0
  6  7  1  0  0  0  0
  7  8  1  0  0  0  0
  8  9  2  0  0  0  0
  9 10  1  0  0  0  0
  9 11  1  0  0  0  0
M  CHG  2   1   1   8   1
M  END
>  <CHROM.1>
-32.00635698,18.19687807,-168.65087224,89.35411409,-175.99193434,-161.21136599
-11.54548287,5.26091306,-4.28242964,-1.84976466,0.98146886,1.70200983

>  <Name>


>  <RI>
0

>  <Rbt.Current_Directory>
/home/itssahil/PROJECTS/Mol_Feturizer/New_Systems/rnas/1aju

>  <Rbt.Executable>
rbdock ($Id: //depot/dev/client3/rdock/2013.1/src/exe/rbdock.cxx#4 $)

>  <Rbt.Library>
libRbt.so (2013.1, Build901 2013/11/27)

>  <Rbt.Parameter_File>
/export/apps/rDock/src/rDock_2013.1_src/data/scripts/dock_solv.prm

>  <Rbt.Receptor>
prm/blind_docking_40.prm

>  <SCORE>
-17.7162

>  <SCORE.INTER>
-18.2804

>  <SCORE.INTER.CONST>
1

>  <SCORE.INTER.POLAR>
-3.42462

>  <SCORE.INTER.ROT>
5

>  <SCORE.INTER.SOLV>
17.5775

>  <SCORE.INTER.VDW>
-13.564

>  <SCORE.INTER.norm>
-1.66185

>  <SCORE.INTRA>
0.561145

>  <SCORE.INTRA.DIHEDRAL>
-1.33612

>  <SCORE.INTRA.DIHEDRAL.0>
9.90185

>  <SCORE.INTRA.POLAR>
0

>  <SCORE.INTRA.POLAR.0>
0

>  <SCORE.INTRA.REPUL>
0

>  <SCORE.INTRA.REPUL.0>
0

>  <SCORE.INTRA.SOLV>
0.890617

>  <SCORE.INTRA.SOLV.lig_0>
-53.6586

>  <SCORE.INTRA.VDW>
0.783898

>  <SCORE.INTRA.VDW.0>
-0.556525

>  <SCORE.INTRA.norm>
0.0510132

>  <SCORE.RESTR>
0.00300174

>  <SCORE.RESTR.CAVITY>
0.00300174

>  <SCORE.RESTR.norm>
0.000272886

>  <SCORE.SYSTEM>
0

>  <SCORE.SYSTEM.CONST>
0

>  <SCORE.SYSTEM.DIHEDRAL>
0

>  <SCORE.SYSTEM.SOLV>
0

>  <SCORE.SYSTEM.norm>
0

>  <SCORE.heavy>
11

>  <SCORE.norm>
-1.61056

>  <RMSD>
14.249

$$$$

 OpenBabel11021811383D
libRbt.so/2013.1/901 2013/11/27
 11 10  0  0  0  0  0  0  0  0999 V2000
  -13.5753    4.1955   -3.5129 N   0  3  0  0  0  0  0  0  0  0  0  0
  -12.8084    5.1937   -2.7085 C   0  0  2  0  0  0  0  0  0  0  0  0
  -11.4030    5.3735   -3.3070 C   0  0  0  0  0  0  0  0  0  0  0  0
  -11.1234    6.3705   -3.9457 O   0  0  0  0  0  0  0  0  0  0  0  0
  -12.7000    4.7013   -1.2591 C   0  0  0  0  0  0  0  0  0  0  0  0
  -12.0856    5.8005   -0.3879 C   0  0  0  0  0  0  0  0  0  0  0  0
  -11.8080    5.2492    1.0091 C   0  0  0  0  0  0  0  0  0  0  0  0
  -11.0803    6.2771    1.8027 N   0  3  0  0  0  0  0  0  0  0  0  0
  -10.7465    7.4131    1.2542 C   0  0  0  0  0  0  0  0  0  0  0  0
  -11.2499    8.5293    1.7141 N   0  0  0  0  0  0  0  0  0  0  0  0
   -9.9056    7.4330    0.2527 N   0  0  0  0  0  0  0  0  0  0  0  0
  2  1  1  6  0  0  0
  2  3  1  0  0  0  0
  2  5  1  0  0  0  0
  3  4  2  0  0  0  0
  5  6  1  0  0  0  0
  6  7  1  0  0  0  0
  7  8  1  0  0  0  0
  8  9  2  0  0  0  0
  9 10  1  0  0  0  0
  9 11  1  0  0  0  0
M  CHG  2   1   1   8   1
M  END
>  <CHROM.1>
-59.73340969,105.08285069,-172.32321078,-172.58472058,174.03288633,-2.29933631
-11.68476764,6.06000225,-0.85259036,2.04054708,-0.87147179,-1.65782682

>  <Name>


>  <RI>
0

>  <Rbt.Current_Directory>
/home/itssahil/PROJECTS/Mol_Feturizer/New_Systems/rnas/1aju

>  <Rbt.Executable>
rbdock ($Id: //depot/dev/client3/rdock/2013.1/src/exe/rbdock.cxx#4 $)

>  <Rbt.Library>
libRbt.so (2013.1, Build901 2013/11/27)

>  <Rbt.Parameter_File>
/export/apps/rDock/src/rDock_2013.1_src/data/scripts/dock_solv.prm

>  <Rbt.Receptor>
prm/blind_docking_100.prm

>  <SCORE>
-16.8397

>  <SCORE.INTER>
-17.9294

>  <SCORE.INTER.CONST>
1

>  <SCORE.INTER.POLAR>
-3.78421

>  <SCORE.INTER.ROT>
5

>  <SCORE.INTER.SOLV>
16.9082

>  <SCORE.INTER.VDW>
-11.9083

>  <SCORE.INTER.norm>
-1.62994

>  <SCORE.INTRA>
0.492061

>  <SCORE.INTRA.DIHEDRAL>
-6.00326

>  <SCORE.INTRA.DIHEDRAL.0>
9.90185

>  <SCORE.INTRA.POLAR>
0

>  <SCORE.INTRA.POLAR.0>
0

>  <SCORE.INTRA.REPUL>
0

>  <SCORE.INTRA.REPUL.0>
0

>  <SCORE.INTRA.SOLV>
1.03428

>  <SCORE.INTRA.SOLV.lig_0>
-53.6586

>  <SCORE.INTRA.VDW>
2.97655

>  <SCORE.INTRA.VDW.0>
-0.556525

>  <SCORE.INTRA.norm>
0.0447328

>  <SCORE.RESTR>
0.597622

>  <SCORE.RESTR.CAVITY>
0.597622

>  <SCORE.RESTR.norm>
0.0543293

>  <SCORE.SYSTEM>
0

>  <SCORE.SYSTEM.CONST>
0

>  <SCORE.SYSTEM.DIHEDRAL>
0

>  <SCORE.SYSTEM.SOLV>
0

>  <SCORE.SYSTEM.norm>
0

>  <SCORE.heavy>
11

>  <SCORE.norm>
-1.53088

>  <RMSD>
14.254

$$$$

 OpenBabel11021811383D
libRbt.so/2013.1/901 2013/11/27
 11 10  0  0  0  0  0  0  0  0999 V2000
  -10.4723    9.7816    4.8184 N   0  3  0  0  0  0  0  0  0  0  0  0
  -11.3926    8.7528    4.2471 C   0  0  2  0  0  0  0  0  0  0  0  0
  -11.3939    7.5025    5.1430 C   0  0  0  0  0  0  0  0  0  0  0  0
  -10.6586    7.4310    6.1097 O   0  0  0  0  0  0  0  0  0  0  0  0
  -10.9240    8.3822    2.8337 C   0  0  0  0  0  0  0  0  0  0  0  0
  -11.9220    7.4086    2.2005 C   0  0  0  0  0  0  0  0  0  0  0  0
  -11.5993    7.2395    0.7173 C   0  0  0  0  0  0  0  0  0  0  0  0
  -10.3924    6.3796    0.5763 N   0  3  0  0  0  0  0  0  0  0  0  0
  -10.4903    5.1971    0.0334 C   0  0  0  0  0  0  0  0  0  0  0  0
   -9.8549    4.9389   -1.0803 N   0  0  0  0  0  0  0  0  0  0  0  0
  -11.2165    4.2728    0.6071 N   0  0  0  0  0  0  0  0  0  0  0  0
  2  1  1  1  0  0  0
  2  3  1  0  0  0  0
  2  5  1  0  0  0  0
  3  4  2  0  0  0  0
  5  6  1  0  0  0  0
  6  7  1  0  0  0  0
  7  8  1  0  0  0  0
  8  9  2  0  0  0  0
  9 10  1  0  0  0  0
  9 11  1  0  0  0  0
M  CHG  2   1   1   8   1
M  END
>  <CHROM.1>
-167.19068596,-3.82849837,-175.69483188,169.73163861,74.94069769,113.37637089
-10.90307951,7.02847458,2.39989098,-2.75276169,-1.50887891,2.95843938

>  <Name>


>  <RI>
224

>  <Rbt.Current_Directory>
/home/itssahil/PROJECTS/Mol_Feturizer/New_Systems/rnas/1aju

>  <Rbt.Executable>
rbdock ($Id: //depot/dev/client3/rdock/2013.1/src/exe/rbdock.cxx#4 $)

>  <Rbt.Library>
libRbt.so (2013.1, Build901 2013/11/27)

>  <Rbt.Parameter_File>
/export/apps/rDock/src/rDock_2013.1_src/data/scripts/dock_solv.prm

>  <Rbt.Receptor>
prm/blind_docking_20.prm

>  <SCORE>
-25.7481

>  <SCORE.INTER>
-24.1765

>  <SCORE.INTER.CONST>
1

>  <SCORE.INTER.POLAR>
-4.60538

>  <SCORE.INTER.ROT>
5

>  <SCORE.INTER.SOLV>
20.3583

>  <SCORE.INTER.VDW>
-14.4858

>  <SCORE.INTER.norm>
-2.19786

>  <SCORE.INTRA>
-1.58847

>  <SCORE.INTRA.DIHEDRAL>
-5.25361

>  <SCORE.INTRA.DIHEDRAL.0>
9.90185

>  <SCORE.INTRA.POLAR>
0

>  <SCORE.INTRA.POLAR.0>
0

>  <SCORE.INTRA.REPUL>
0

>  <SCORE.INTRA.REPUL.0>
0

>  <SCORE.INTRA.SOLV>
1.5385

>  <SCORE.INTRA.SOLV.lig_0>
-53.6586

>  <SCORE.INTRA.VDW>
0.269081

>  <SCORE.INTRA.VDW.0>
-0.556525

>  <SCORE.INTRA.norm>
-0.144407

>  <SCORE.RESTR>
0.0168062

>  <SCORE.RESTR.CAVITY>
0.0168062

>  <SCORE.RESTR.norm>
0.00152784

>  <SCORE.SYSTEM>
0

>  <SCORE.SYSTEM.CONST>
0

>  <SCORE.SYSTEM.DIHEDRAL>
0

>  <SCORE.SYSTEM.SOLV>
0

>  <SCORE.SYSTEM.norm>
0

>  <SCORE.heavy>
11

>  <SCORE.norm>
-2.34074

>  <RMSD>
14.262

$$$$

 OpenBabel11021811383D
libRbt.so/2013.1/901 2013/11/27
 11 10  0  0  0  0  0  0  0  0999 V2000
  -11.5285    9.1251    3.1369 N   0  3  0  0  0  0  0  0  0  0  0  0
  -11.6001    8.4456    1.8085 C   0  0  2  0  0  0  0  0  0  0  0  0
  -13.0708    8.2655    1.3959 C   0  0  0  0  0  0  0  0  0  0  0  0
  -13.9704    8.6145    2.1370 O   0  0  0  0  0  0  0  0  0  0  0  0
  -10.9120    7.0772    1.9010 C   0  0  0  0  0  0  0  0  0  0  0  0
  -10.3990    6.6656    0.5182 C   0  0  0  0  0  0  0  0  0  0  0  0
  -11.4690    5.8459   -0.2000 C   0  0  0  0  0  0  0  0  0  0  0  0
  -10.8252    5.0347   -1.2693 N   0  3  0  0  0  0  0  0  0  0  0  0
  -10.3701    5.6136   -2.3465 C   0  0  0  0  0  0  0  0  0  0  0  0
   -9.0909    5.5712   -2.6159 N   0  0  0  0  0  0  0  0  0  0  0  0
  -11.1938    6.2273   -3.1561 N   0  0  0  0  0  0  0  0  0  0  0  0
  2  1  1  1  0  0  0
  2  3  1  0  0  0  0
  2  5  1  0  0  0  0
  3  4  2  0  0  0  0
  5  6  1  0  0  0  0
  6  7  1  0  0  0  0
  7  8  1  0  0  0  0
  8  9  2  0  0  0  0
  9 10  1  0  0  0  0
  9 11  1  0  0  0  0
M  CHG  2   1   1   8   1
M  END
>  <CHROM.1>
54.34869605,-2.43852634,-153.89527315,-91.55153734,-158.85747492,-71.55524819
-11.31234220,6.97512316,0.13075443,-1.95990260,0.31077303,-2.00741469

>  <Name>


>  <RI>
224

>  <Rbt.Current_Directory>
/home/itssahil/PROJECTS/Mol_Feturizer/New_Systems/rnas/1aju

>  <Rbt.Executable>
rbdock ($Id: //depot/dev/client3/rdock/2013.1/src/exe/rbdock.cxx#4 $)

>  <Rbt.Library>
libRbt.so (2013.1, Build901 2013/11/27)

>  <Rbt.Parameter_File>
/export/apps/rDock/src/rDock_2013.1_src/data/scripts/dock_solv.prm

>  <Rbt.Receptor>
prm/blind_docking_20.prm

>  <SCORE>
-21.8628

>  <SCORE.INTER>
-22.4551

>  <SCORE.INTER.CONST>
1

>  <SCORE.INTER.POLAR>
-3.79642

>  <SCORE.INTER.ROT>
5

>  <SCORE.INTER.SOLV>
23.2596

>  <SCORE.INTER.VDW>
-17.0019

>  <SCORE.INTER.norm>
-2.04137

>  <SCORE.INTRA>
0.592301

>  <SCORE.INTRA.DIHEDRAL>
0.0485667

>  <SCORE.INTRA.DIHEDRAL.0>
9.90185

>  <SCORE.INTRA.POLAR>
0

>  <SCORE.INTRA.POLAR.0>
0

>  <SCORE.INTRA.REPUL>
0

>  <SCORE.INTRA.REPUL.0>
0

>  <SCORE.INTRA.SOLV>
1.30676

>  <SCORE.INTRA.SOLV.lig_0>
-53.6586

>  <SCORE.INTRA.VDW>
-0.0853611

>  <SCORE.INTRA.VDW.0>
-0.556525

>  <SCORE.INTRA.norm>
0.0538456

>  <SCORE.RESTR>
0

>  <SCORE.RESTR.CAVITY>
0

>  <SCORE.RESTR.norm>
0

>  <SCORE.SYSTEM>
0

>  <SCORE.SYSTEM.CONST>
0

>  <SCORE.SYSTEM.DIHEDRAL>
0

>  <SCORE.SYSTEM.SOLV>
0

>  <SCORE.SYSTEM.norm>
0

>  <SCORE.heavy>
11

>  <SCORE.norm>
-1.98753

>  <RMSD>
14.281

$$$$

 OpenBabel11021811383D
libRbt.so/2013.1/901 2013/11/27
 11 10  0  0  0  0  0  0  0  0999 V2000
  -11.5232    6.4658   -8.1011 N   0  3  0  0  0  0  0  0  0  0  0  0
  -11.4387    5.0305   -7.6955 C   0  0  2  0  0  0  0  0  0  0  0  0
  -12.0936    4.1475   -8.7712 C   0  0  0  0  0  0  0  0  0  0  0  0
  -11.4681    3.2486   -9.3014 O   0  0  0  0  0  0  0  0  0  0  0  0
  -12.1581    4.8395   -6.3536 C   0  0  0  0  0  0  0  0  0  0  0  0
  -11.4069    5.5977   -5.2556 C   0  0  0  0  0  0  0  0  0  0  0  0
  -12.1177    5.3971   -3.9188 C   0  0  0  0  0  0  0  0  0  0  0  0
  -11.3527    6.0966   -2.8505 N   0  3  0  0  0  0  0  0  0  0  0  0
  -10.5913    5.4167   -2.0377 C   0  0  0  0  0  0  0  0  0  0  0  0
   -9.3005    5.6276   -2.0273 N   0  0  0  0  0  0  0  0  0  0  0  0
  -11.1209    4.5329   -1.2319 N   0  0  0  0  0  0  0  0  0  0  0  0
  2  1  1  6  0  0  0
  2  3  1  0  0  0  0
  2  5  1  0  0  0  0
  3  4  2  0  0  0  0
  5  6  1  0  0  0  0
  6  7  1  0  0  0  0
  7  8  1  0  0  0  0
  8  9  2  0  0  0  0
  9 10  1  0  0  0  0
  9 11  1  0  0  0  0
M  CHG  2   1   1   8   1
M  END
>  <CHROM.1>
-42.77217824,123.63018490,-65.82600266,-179.53600729,177.96318102,-102.56440783
-11.30338999,5.14647848,-5.23054206,-2.86802819,1.40476384,2.74556530

>  <Name>


>  <RI>
0

>  <Rbt.Current_Directory>
/home/itssahil/PROJECTS/Mol_Feturizer/New_Systems/rnas/1aju

>  <Rbt.Executable>
rbdock ($Id: //depot/dev/client3/rdock/2013.1/src/exe/rbdock.cxx#4 $)

>  <Rbt.Library>
libRbt.so (2013.1, Build901 2013/11/27)

>  <Rbt.Parameter_File>
/export/apps/rDock/src/rDock_2013.1_src/data/scripts/dock_solv.prm

>  <Rbt.Receptor>
prm/blind_docking_40.prm

>  <SCORE>
-24.6606

>  <SCORE.INTER>
-21.9076

>  <SCORE.INTER.CONST>
1

>  <SCORE.INTER.POLAR>
-4.05905

>  <SCORE.INTER.ROT>
5

>  <SCORE.INTER.SOLV>
22.6823

>  <SCORE.INTER.VDW>
-15.569

>  <SCORE.INTER.norm>
-1.9916

>  <SCORE.INTRA>
-2.75301

>  <SCORE.INTRA.DIHEDRAL>
-6.06524

>  <SCORE.INTRA.DIHEDRAL.0>
9.90185

>  <SCORE.INTRA.POLAR>
0

>  <SCORE.INTRA.POLAR.0>
0

>  <SCORE.INTRA.REPUL>
0

>  <SCORE.INTRA.REPUL.0>
0

>  <SCORE.INTRA.SOLV>
1.06667

>  <SCORE.INTRA.SOLV.lig_0>
-53.6586

>  <SCORE.INTRA.VDW>
-0.253728

>  <SCORE.INTRA.VDW.0>
-0.556525

>  <SCORE.INTRA.norm>
-0.250274

>  <SCORE.RESTR>
0

>  <SCORE.RESTR.CAVITY>
0

>  <SCORE.RESTR.norm>
0

>  <SCORE.SYSTEM>
0

>  <SCORE.SYSTEM.CONST>
0

>  <SCORE.SYSTEM.DIHEDRAL>
0

>  <SCORE.SYSTEM.SOLV>
0

>  <SCORE.SYSTEM.norm>
0

>  <SCORE.heavy>
11

>  <SCORE.norm>
-2.24188

>  <RMSD>
14.301

$$$$

 OpenBabel11021811383D
libRbt.so/2013.1/901 2013/11/27
 11 10  0  0  0  0  0  0  0  0999 V2000
  -10.4598    9.8286    4.8679 N   0  3  0  0  0  0  0  0  0  0  0  0
  -11.3488    8.8034    4.2432 C   0  0  2  0  0  0  0  0  0  0  0  0
  -11.3920    7.5455    5.1273 C   0  0  0  0  0  0  0  0  0  0  0  0
  -10.6844    7.4551    6.1129 O   0  0  0  0  0  0  0  0  0  0  0  0
  -10.8104    8.4457    2.8515 C   0  0  0  0  0  0  0  0  0  0  0  0
  -11.7364    7.4208    2.1904 C   0  0  0  0  0  0  0  0  0  0  0  0
  -11.5150    7.4326    0.6794 C   0  0  0  0  0  0  0  0  0  0  0  0
  -10.2723    6.6766    0.3632 N   0  3  0  0  0  0  0  0  0  0  0  0
  -10.2828    5.7563   -0.5618 C   0  0  0  0  0  0  0  0  0  0  0  0
   -9.5443    5.9018   -1.6315 N   0  0  0  0  0  0  0  0  0  0  0  0
  -11.0249    4.6895   -0.4137 N   0  0  0  0  0  0  0  0  0  0  0  0
  2  1  1  1  0  0  0
  2  3  1  0  0  0  0
  2  5  1  0  0  0  0
  3  4  2  0  0  0  0
  5  6  1  0  0  0  0
  6  7  1  0  0  0  0
  7  8  1  0  0  0  0
  8  9  2  0  0  0  0
  9 10  1  0  0  0  0
  9 11  1  0  0  0  0
M  CHG  2   1   1   8   1
M  END
>  <CHROM.1>
-166.05601128,-5.38496877,-178.59428303,159.98983009,78.17107010,130.46784207
-10.78999873,7.27517707,2.17893962,-1.95690667,-1.34407021,-2.39400172

>  <Name>


>  <RI>
0

>  <Rbt.Current_Directory>
/home/itssahil/PROJECTS/Mol_Feturizer/New_Systems/rnas/1aju

>  <Rbt.Executable>
rbdock ($Id: //depot/dev/client3/rdock/2013.1/src/exe/rbdock.cxx#4 $)

>  <Rbt.Library>
libRbt.so (2013.1, Build901 2013/11/27)

>  <Rbt.Parameter_File>
/export/apps/rDock/src/rDock_2013.1_src/data/scripts/dock_solv.prm

>  <Rbt.Receptor>
prm/blind_docking_80.prm

>  <SCORE>
-23.2777

>  <SCORE.INTER>
-23.085

>  <SCORE.INTER.CONST>
1

>  <SCORE.INTER.POLAR>
-4.4765

>  <SCORE.INTER.ROT>
5

>  <SCORE.INTER.SOLV>
20.0695

>  <SCORE.INTER.VDW>
-14.0915

>  <SCORE.INTER.norm>
-2.09864

>  <SCORE.INTRA>
-0.632208

>  <SCORE.INTRA.DIHEDRAL>
-3.71787

>  <SCORE.INTRA.DIHEDRAL.0>
9.90185

>  <SCORE.INTRA.POLAR>
0

>  <SCORE.INTRA.POLAR.0>
0

>  <SCORE.INTRA.REPUL>
0

>  <SCORE.INTRA.REPUL.0>
0

>  <SCORE.INTRA.SOLV>
1.42119

>  <SCORE.INTRA.SOLV.lig_0>
-53.6586

>  <SCORE.INTRA.VDW>
0.516132

>  <SCORE.INTRA.VDW.0>
-0.556525

>  <SCORE.INTRA.norm>
-0.0574734

>  <SCORE.RESTR>
0.439517

>  <SCORE.RESTR.CAVITY>
0.439517

>  <SCORE.RESTR.norm>
0.0399561

>  <SCORE.SYSTEM>
0

>  <SCORE.SYSTEM.CONST>
0

>  <SCORE.SYSTEM.DIHEDRAL>
0

>  <SCORE.SYSTEM.SOLV>
0

>  <SCORE.SYSTEM.norm>
0

>  <SCORE.heavy>
11

>  <SCORE.norm>
-2.11616

>  <RMSD>
14.313

$$$$

 OpenBabel11021811383D
libRbt.so/2013.1/901 2013/11/27
 11 10  0  0  0  0  0  0  0  0999 V2000
  -11.2865    4.3767    0.7383 N   0  3  0  0  0  0  0  0  0  0  0  0
  -11.0168    5.4176   -0.2987 C   0  0  2  0  0  0  0  0  0  0  0  0
   -9.7663    5.0331   -1.1075 C   0  0  0  0  0  0  0  0  0  0  0  0
   -9.8246    4.9026   -2.3157 O   0  0  0  0  0  0  0  0  0  0  0  0
  -10.7990    6.7727    0.3876 C   0  0  0  0  0  0  0  0  0  0  0  0
  -12.1465    7.3410    0.8416 C   0  0  0  0  0  0  0  0  0  0  0  0
  -12.4983    6.7821    2.2187 C   0  0  0  0  0  0  0  0  0  0  0  0
  -11.4115    7.1258    3.1761 N   0  3  0  0  0  0  0  0  0  0  0  0
  -11.4222    8.2749    3.7944 C   0  0  0  0  0  0  0  0  0  0  0  0
  -11.5271    8.3104    5.0977 N   0  0  0  0  0  0  0  0  0  0  0  0
  -11.3211    9.3855    3.1111 N   0  0  0  0  0  0  0  0  0  0  0  0
  2  1  1  1  0  0  0
  2  3  1  0  0  0  0
  2  5  1  0  0  0  0
  3  4  2  0  0  0  0
  5  6  1  0  0  0  0
  6  7  1  0  0  0  0
  7  8  1  0  0  0  0
  8  9  2  0  0  0  0
  9 10  1  0  0  0  0
  9 11  1  0  0  0  0
M  CHG  2   1   1   8   1
M  END
>  <CHROM.1>
-164.44941418,122.39845086,-75.87974054,85.82448163,57.73080315,85.97564528
-11.17979338,6.68802957,1.44647519,0.93355283,-1.22895724,-2.76712922

>  <Name>


>  <RI>
0

>  <Rbt.Current_Directory>
/home/itssahil/PROJECTS/Mol_Feturizer/New_Systems/rnas/1aju

>  <Rbt.Executable>
rbdock ($Id: //depot/dev/client3/rdock/2013.1/src/exe/rbdock.cxx#4 $)

>  <Rbt.Library>
libRbt.so (2013.1, Build901 2013/11/27)

>  <Rbt.Parameter_File>
/export/apps/rDock/src/rDock_2013.1_src/data/scripts/dock_solv.prm

>  <Rbt.Receptor>
prm/blind_docking_60.prm

>  <SCORE>
-19.4933

>  <SCORE.INTER>
-20.4201

>  <SCORE.INTER.CONST>
1

>  <SCORE.INTER.POLAR>
-4.27329

>  <SCORE.INTER.ROT>
5

>  <SCORE.INTER.SOLV>
17.9198

>  <SCORE.INTER.VDW>
-12.2757

>  <SCORE.INTER.norm>
-1.85637

>  <SCORE.INTRA>
0.926738

>  <SCORE.INTRA.DIHEDRAL>
-3.17436

>  <SCORE.INTRA.DIHEDRAL.0>
9.90185

>  <SCORE.INTRA.POLAR>
0

>  <SCORE.INTRA.POLAR.0>
0

>  <SCORE.INTRA.REPUL>
0

>  <SCORE.INTRA.REPUL.0>
0

>  <SCORE.INTRA.SOLV>
4.54403

>  <SCORE.INTRA.SOLV.lig_0>
-53.6586

>  <SCORE.INTRA.VDW>
0.241901

>  <SCORE.INTRA.VDW.0>
-0.556525

>  <SCORE.INTRA.norm>
0.0842489

>  <SCORE.RESTR>
0

>  <SCORE.RESTR.CAVITY>
0

>  <SCORE.RESTR.norm>
0

>  <SCORE.SYSTEM>
0

>  <SCORE.SYSTEM.CONST>
0

>  <SCORE.SYSTEM.DIHEDRAL>
0

>  <SCORE.SYSTEM.SOLV>
0

>  <SCORE.SYSTEM.norm>
0

>  <SCORE.heavy>
11

>  <SCORE.norm>
-1.77212

>  <RMSD>
14.321

$$$$

 OpenBabel11021811383D
libRbt.so/2013.1/901 2013/11/27
 11 10  0  0  0  0  0  0  0  0999 V2000
  -10.2806    8.4385    0.7806 N   0  3  0  0  0  0  0  0  0  0  0  0
  -11.4093    8.3466    1.7549 C   0  0  2  0  0  0  0  0  0  0  0  0
  -10.8722    8.5020    3.1879 C   0  0  0  0  0  0  0  0  0  0  0  0
   -9.9387    9.2458    3.4235 O   0  0  0  0  0  0  0  0  0  0  0  0
  -12.1024    6.9862    1.6013 C   0  0  0  0  0  0  0  0  0  0  0  0
  -13.0820    7.0388    0.4255 C   0  0  0  0  0  0  0  0  0  0  0  0
  -13.5367    5.6232    0.0763 C   0  0  0  0  0  0  0  0  0  0  0  0
  -12.3901    4.8728   -0.5053 N   0  3  0  0  0  0  0  0  0  0  0  0
  -11.8771    5.2419   -1.6469 C   0  0  0  0  0  0  0  0  0  0  0  0
  -10.6360    5.6516   -1.6993 N   0  0  0  0  0  0  0  0  0  0  0  0
  -12.6017    5.1943   -2.7347 N   0  0  0  0  0  0  0  0  0  0  0  0
  2  1  1  6  0  0  0
  2  3  1  0  0  0  0
  2  5  1  0  0  0  0
  3  4  2  0  0  0  0
  5  6  1  0  0  0  0
  6  7  1  0  0  0  0
  7  8  1  0  0  0  0
  8  9  2  0  0  0  0
  9 10  1  0  0  0  0
  9 11  1  0  0  0  0
M  CHG  2   1   1   8   1
M  END
>  <CHROM.1>
-74.62915364,35.00799223,-81.56744922,167.53479692,-68.97622005,-65.15226446
-11.65124089,6.84098022,0.38965383,-1.24033710,-0.43785632,-2.10339457

>  <Name>


>  <RI>
0

>  <Rbt.Current_Directory>
/home/itssahil/PROJECTS/Mol_Feturizer/New_Systems/rnas/1aju

>  <Rbt.Executable>
rbdock ($Id: //depot/dev/client3/rdock/2013.1/src/exe/rbdock.cxx#4 $)

>  <Rbt.Library>
libRbt.so (2013.1, Build901 2013/11/27)

>  <Rbt.Parameter_File>
/export/apps/rDock/src/rDock_2013.1_src/data/scripts/dock_solv.prm

>  <Rbt.Receptor>
prm/blind_docking_100.prm

>  <SCORE>
-24.5357

>  <SCORE.INTER>
-26.5301

>  <SCORE.INTER.CONST>
1

>  <SCORE.INTER.POLAR>
-5.42149

>  <SCORE.INTER.ROT>
5

>  <SCORE.INTER.SOLV>
20.0537

>  <SCORE.INTER.VDW>
-13.233

>  <SCORE.INTER.norm>
-2.41183

>  <SCORE.INTRA>
1.29982

>  <SCORE.INTRA.DIHEDRAL>
-2.31199

>  <SCORE.INTRA.DIHEDRAL.0>
9.90185

>  <SCORE.INTRA.POLAR>
0

>  <SCORE.INTRA.POLAR.0>
0

>  <SCORE.INTRA.REPUL>
0.143097

>  <SCORE.INTRA.REPUL.0>
0

>  <SCORE.INTRA.SOLV>
4.76864

>  <SCORE.INTRA.SOLV.lig_0>
-53.6586

>  <SCORE.INTRA.VDW>
-0.643987

>  <SCORE.INTRA.VDW.0>
-0.556525

>  <SCORE.INTRA.norm>
0.118165

>  <SCORE.RESTR>
0.694633

>  <SCORE.RESTR.CAVITY>
0.694633

>  <SCORE.RESTR.norm>
0.0631485

>  <SCORE.SYSTEM>
0

>  <SCORE.SYSTEM.CONST>
0

>  <SCORE.SYSTEM.DIHEDRAL>
0

>  <SCORE.SYSTEM.SOLV>
0

>  <SCORE.SYSTEM.norm>
0

>  <SCORE.heavy>
11

>  <SCORE.norm>
-2.23051

>  <RMSD>
14.329

$$$$

 OpenBabel11021811383D
libRbt.so/2013.1/901 2013/11/27
 11 10  0  0  0  0  0  0  0  0999 V2000
  -12.7577    9.1999    3.6301 N   0  3  0  0  0  0  0  0  0  0  0  0
  -11.6446    8.2091    3.7362 C   0  0  2  0  0  0  0  0  0  0  0  0
  -10.9459    8.3569    5.0985 C   0  0  0  0  0  0  0  0  0  0  0  0
  -10.8454    7.4060    5.8507 O   0  0  0  0  0  0  0  0  0  0  0  0
  -10.6384    8.4537    2.6037 C   0  0  0  0  0  0  0  0  0  0  0  0
  -11.3193    8.2191    1.2523 C   0  0  0  0  0  0  0  0  0  0  0  0
  -11.5565    6.7236    1.0530 C   0  0  0  0  0  0  0  0  0  0  0  0
  -10.3388    6.1129    0.4530 N   0  3  0  0  0  0  0  0  0  0  0  0
  -10.4278    5.4242   -0.6518 C   0  0  0  0  0  0  0  0  0  0  0  0
   -9.8089    5.8382   -1.7271 N   0  0  0  0  0  0  0  0  0  0  0  0
  -11.1284    4.3200   -0.6788 N   0  0  0  0  0  0  0  0  0  0  0  0
  2  1  1  1  0  0  0
  2  3  1  0  0  0  0
  2  5  1  0  0  0  0
  3  4  2  0  0  0  0
  5  6  1  0  0  0  0
  6  7  1  0  0  0  0
  7  8  1  0  0  0  0
  8  9  2  0  0  0  0
  9 10  1  0  0  0  0
  9 11  1  0  0  0  0
M  CHG  2   1   1   8   1
M  END
>  <CHROM.1>
-54.14932710,123.90420881,-63.03575217,-72.04477853,-86.49139956,-125.41497517
-11.05299624,7.10902130,1.86772050,1.97756943,-1.15795070,1.44905745

>  <Name>


>  <RI>
0

>  <Rbt.Current_Directory>
/home/itssahil/PROJECTS/Mol_Feturizer/New_Systems/rnas/1aju

>  <Rbt.Executable>
rbdock ($Id: //depot/dev/client3/rdock/2013.1/src/exe/rbdock.cxx#4 $)

>  <Rbt.Library>
libRbt.so (2013.1, Build901 2013/11/27)

>  <Rbt.Parameter_File>
/export/apps/rDock/src/rDock_2013.1_src/data/scripts/dock_solv.prm

>  <Rbt.Receptor>
prm/blind_docking_80.prm

>  <SCORE>
-19.7814

>  <SCORE.INTER>
-18.7467

>  <SCORE.INTER.CONST>
1

>  <SCORE.INTER.POLAR>
-3.31791

>  <SCORE.INTER.ROT>
5

>  <SCORE.INTER.SOLV>
19.5493

>  <SCORE.INTER.VDW>
-14.8879

>  <SCORE.INTER.norm>
-1.70424

>  <SCORE.INTRA>
-1.03468

>  <SCORE.INTRA.DIHEDRAL>
-3.97637

>  <SCORE.INTRA.DIHEDRAL.0>
9.90185

>  <SCORE.INTRA.POLAR>
0

>  <SCORE.INTRA.POLAR.0>
0

>  <SCORE.INTRA.REPUL>
0

>  <SCORE.INTRA.REPUL.0>
0

>  <SCORE.INTRA.SOLV>
1.76055

>  <SCORE.INTRA.SOLV.lig_0>
-53.6586

>  <SCORE.INTRA.VDW>
0.0732341

>  <SCORE.INTRA.VDW.0>
-0.556525

>  <SCORE.INTRA.norm>
-0.0940615

>  <SCORE.RESTR>
0

>  <SCORE.RESTR.CAVITY>
0

>  <SCORE.RESTR.norm>
0

>  <SCORE.SYSTEM>
0

>  <SCORE.SYSTEM.CONST>
0

>  <SCORE.SYSTEM.DIHEDRAL>
0

>  <SCORE.SYSTEM.SOLV>
0

>  <SCORE.SYSTEM.norm>
0

>  <SCORE.heavy>
11

>  <SCORE.norm>
-1.79831

>  <RMSD>
14.334

$$$$

 OpenBabel11021811383D
libRbt.so/2013.1/901 2013/11/27
 11 10  0  0  0  0  0  0  0  0999 V2000
  -13.0509    7.9388    4.3802 N   0  3  0  0  0  0  0  0  0  0  0  0
  -12.1646    7.5267    3.2505 C   0  0  2  0  0  0  0  0  0  0  0  0
  -11.4384    8.7586    2.6841 C   0  0  0  0  0  0  0  0  0  0  0  0
  -10.2333    8.8773    2.8024 O   0  0  0  0  0  0  0  0  0  0  0  0
  -13.0135    6.8704    2.1534 C   0  0  0  0  0  0  0  0  0  0  0  0
  -12.1111    6.0494    1.2279 C   0  0  0  0  0  0  0  0  0  0  0  0
  -12.9161    5.5738    0.0203 C   0  0  0  0  0  0  0  0  0  0  0  0
  -12.0221    5.5141   -1.1684 N   0  3  0  0  0  0  0  0  0  0  0  0
  -10.7288    5.6061   -1.0207 C   0  0  0  0  0  0  0  0  0  0  0  0
   -9.9633    4.6008   -1.3585 N   0  0  0  0  0  0  0  0  0  0  0  0
  -10.2022    6.7038   -0.5429 N   0  0  0  0  0  0  0  0  0  0  0  0
  2  1  1  1  0  0  0
  2  3  1  0  0  0  0
  2  5  1  0  0  0  0
  3  4  2  0  0  0  0
  5  6  1  0  0  0  0
  6  7  1  0  0  0  0
  7  8  1  0  0  0  0
  8  9  2  0  0  0  0
  9 10  1  0  0  0  0
  9 11  1  0  0  0  0
M  CHG  2   1   1   8   1
M  END
>  <CHROM.1>
60.57873748,112.89198396,-161.61472194,-171.40772608,147.20808692,12.40363984
-11.60508839,6.74174581,1.14925071,1.81759591,0.42606292,0.91435739

>  <Name>


>  <RI>
0

>  <Rbt.Current_Directory>
/home/itssahil/PROJECTS/Mol_Feturizer/New_Systems/rnas/1aju

>  <Rbt.Executable>
rbdock ($Id: //depot/dev/client3/rdock/2013.1/src/exe/rbdock.cxx#4 $)

>  <Rbt.Library>
libRbt.so (2013.1, Build901 2013/11/27)

>  <Rbt.Parameter_File>
/export/apps/rDock/src/rDock_2013.1_src/data/scripts/dock_solv.prm

>  <Rbt.Receptor>
prm/blind_docking_60.prm

>  <SCORE>
-18.0346

>  <SCORE.INTER>
-21.0943

>  <SCORE.INTER.CONST>
1

>  <SCORE.INTER.POLAR>
-5.08805

>  <SCORE.INTER.ROT>
5

>  <SCORE.INTER.SOLV>
14.5693

>  <SCORE.INTER.VDW>
-8.89243

>  <SCORE.INTER.norm>
-1.91766

>  <SCORE.INTRA>
3.05428

>  <SCORE.INTRA.DIHEDRAL>
-2.26159

>  <SCORE.INTRA.DIHEDRAL.0>
9.90185

>  <SCORE.INTRA.POLAR>
0

>  <SCORE.INTRA.POLAR.0>
0

>  <SCORE.INTRA.REPUL>
0

>  <SCORE.INTRA.REPUL.0>
0

>  <SCORE.INTRA.SOLV>
1.57602

>  <SCORE.INTRA.SOLV.lig_0>
-53.6586

>  <SCORE.INTRA.VDW>
3.39706

>  <SCORE.INTRA.VDW.0>
-0.556525

>  <SCORE.INTRA.norm>
0.277661

>  <SCORE.RESTR>
0.00538773

>  <SCORE.RESTR.CAVITY>
0.00538773

>  <SCORE.RESTR.norm>
0.000489794

>  <SCORE.SYSTEM>
0

>  <SCORE.SYSTEM.CONST>
0

>  <SCORE.SYSTEM.DIHEDRAL>
0

>  <SCORE.SYSTEM.SOLV>
0

>  <SCORE.SYSTEM.norm>
0

>  <SCORE.heavy>
11

>  <SCORE.norm>
-1.63951

>  <RMSD>
14.347

$$$$

 OpenBabel11021811383D
libRbt.so/2013.1/901 2013/11/27
 11 10  0  0  0  0  0  0  0  0999 V2000
  -11.7160    9.8256    4.8621 N   0  3  0  0  0  0  0  0  0  0  0  0
  -11.8767    8.5666    4.0741 C   0  0  2  0  0  0  0  0  0  0  0  0
  -11.4720    7.3591    4.9365 C   0  0  0  0  0  0  0  0  0  0  0  0
  -11.1789    7.5038    6.1085 O   0  0  0  0  0  0  0  0  0  0  0  0
  -10.9913    8.6351    2.8227 C   0  0  0  0  0  0  0  0  0  0  0  0
  -11.4455    7.5767    1.8136 C   0  0  0  0  0  0  0  0  0  0  0  0
  -10.3181    7.3006    0.8210 C   0  0  0  0  0  0  0  0  0  0  0  0
  -10.1325    5.8293    0.6915 N   0  3  0  0  0  0  0  0  0  0  0  0
  -10.6947    5.1822   -0.2923 C   0  0  0  0  0  0  0  0  0  0  0  0
   -9.9504    4.5754   -1.1803 N   0  0  0  0  0  0  0  0  0  0  0  0
  -11.9987    5.1362   -0.3834 N   0  0  0  0  0  0  0  0  0  0  0  0
  2  1  1  1  0  0  0
  2  3  1  0  0  0  0
  2  5  1  0  0  0  0
  3  4  2  0  0  0  0
  5  6  1  0  0  0  0
  6  7  1  0  0  0  0
  7  8  1  0  0  0  0
  8  9  2  0  0  0  0
  9 10  1  0  0  0  0
  9 11  1  0  0  0  0
M  CHG  2   1   1   8   1
M  END
>  <CHROM.1>
-178.02455471,5.09983993,-163.18769219,-160.27188643,131.84454025,96.83171729
-11.07129426,7.05156710,2.22616332,2.56821331,-1.41013557,2.00831421

>  <Name>


>  <RI>
0

>  <Rbt.Current_Directory>
/home/itssahil/PROJECTS/Mol_Feturizer/New_Systems/rnas/1aju

>  <Rbt.Executable>
rbdock ($Id: //depot/dev/client3/rdock/2013.1/src/exe/rbdock.cxx#4 $)

>  <Rbt.Library>
libRbt.so (2013.1, Build901 2013/11/27)

>  <Rbt.Parameter_File>
/export/apps/rDock/src/rDock_2013.1_src/data/scripts/dock_solv.prm

>  <Rbt.Receptor>
prm/blind_docking_80.prm

>  <SCORE>
-19.651

>  <SCORE.INTER>
-20.6196

>  <SCORE.INTER.CONST>
1

>  <SCORE.INTER.POLAR>
-4.12869

>  <SCORE.INTER.ROT>
5

>  <SCORE.INTER.SOLV>
18.0871

>  <SCORE.INTER.VDW>
-12.9464

>  <SCORE.INTER.norm>
-1.87451

>  <SCORE.INTRA>
0.786489

>  <SCORE.INTRA.DIHEDRAL>
0.493781

>  <SCORE.INTRA.DIHEDRAL.0>
9.90185

>  <SCORE.INTRA.POLAR>
0

>  <SCORE.INTRA.POLAR.0>
0

>  <SCORE.INTRA.REPUL>
0

>  <SCORE.INTRA.REPUL.0>
0

>  <SCORE.INTRA.SOLV>
1.38248

>  <SCORE.INTRA.SOLV.lig_0>
-53.6586

>  <SCORE.INTRA.VDW>
-0.151641

>  <SCORE.INTRA.VDW.0>
-0.556525

>  <SCORE.INTRA.norm>
0.071499

>  <SCORE.RESTR>
0.182076

>  <SCORE.RESTR.CAVITY>
0.182076

>  <SCORE.RESTR.norm>
0.0165524

>  <SCORE.SYSTEM>
0

>  <SCORE.SYSTEM.CONST>
0

>  <SCORE.SYSTEM.DIHEDRAL>
0

>  <SCORE.SYSTEM.SOLV>
0

>  <SCORE.SYSTEM.norm>
0

>  <SCORE.heavy>
11

>  <SCORE.norm>
-1.78646

>  <RMSD>
14.348

$$$$

 OpenBabel11021811383D
libRbt.so/2013.1/901 2013/11/27
 11 10  0  0  0  0  0  0  0  0999 V2000
  -11.4148    6.4550   -8.1085 N   0  3  0  0  0  0  0  0  0  0  0  0
  -11.4698    5.0156   -7.7123 C   0  0  2  0  0  0  0  0  0  0  0  0
  -12.1878    4.2037   -8.8037 C   0  0  0  0  0  0  0  0  0  0  0  0
  -11.5595    3.4796   -9.5528 O   0  0  0  0  0  0  0  0  0  0  0  0
  -12.2237    4.8842   -6.3823 C   0  0  0  0  0  0  0  0  0  0  0  0
  -11.4304    5.5782   -5.2715 C   0  0  0  0  0  0  0  0  0  0  0  0
  -12.1497    5.3913   -3.9372 C   0  0  0  0  0  0  0  0  0  0  0  0
  -11.3783    6.0809   -2.8671 N   0  3  0  0  0  0  0  0  0  0  0  0
  -10.6263    5.3915   -2.0535 C   0  0  0  0  0  0  0  0  0  0  0  0
   -9.3331    5.5872   -2.0410 N   0  0  0  0  0  0  0  0  0  0  0  0
  -11.1676    4.5134   -1.2494 N   0  0  0  0  0  0  0  0  0  0  0  0
  2  1  1  6  0  0  0
  2  3  1  0  0  0  0
  2  5  1  0  0  0  0
  3  4  2  0  0  0  0
  5  6  1  0  0  0  0
  6  7  1  0  0  0  0
  7  8  1  0  0  0  0
  8  9  2  0  0  0  0
  9 10  1  0  0  0  0
  9 11  1  0  0  0  0
M  CHG  2   1   1   8   1
M  END
>  <CHROM.1>
-169.29555275,105.68941911,-65.11003884,-177.40945638,-179.42561957,-102.26744674
-11.33407379,5.16408358,-5.27175338,-2.15723137,1.28409844,2.03505730

>  <Name>


>  <RI>
0

>  <Rbt.Current_Directory>
/home/itssahil/PROJECTS/Mol_Feturizer/New_Systems/rnas/1aju

>  <Rbt.Executable>
rbdock ($Id: //depot/dev/client3/rdock/2013.1/src/exe/rbdock.cxx#4 $)

>  <Rbt.Library>
libRbt.so (2013.1, Build901 2013/11/27)

>  <Rbt.Parameter_File>
/export/apps/rDock/src/rDock_2013.1_src/data/scripts/dock_solv.prm

>  <Rbt.Receptor>
prm/blind_docking_40.prm

>  <SCORE>
-23.8812

>  <SCORE.INTER>
-21.198

>  <SCORE.INTER.CONST>
1

>  <SCORE.INTER.POLAR>
-3.94996

>  <SCORE.INTER.ROT>
5

>  <SCORE.INTER.SOLV>
22.8462

>  <SCORE.INTER.VDW>
-15.5142

>  <SCORE.INTER.norm>
-1.92709

>  <SCORE.INTRA>
-2.74096

>  <SCORE.INTRA.DIHEDRAL>
-6.15633

>  <SCORE.INTRA.DIHEDRAL.0>
9.90185

>  <SCORE.INTRA.POLAR>
0

>  <SCORE.INTRA.POLAR.0>
0

>  <SCORE.INTRA.REPUL>
0

>  <SCORE.INTRA.REPUL.0>
0

>  <SCORE.INTRA.SOLV>
1.24232

>  <SCORE.INTRA.SOLV.lig_0>
-53.6586

>  <SCORE.INTRA.VDW>
-0.283951

>  <SCORE.INTRA.VDW.0>
-0.556525

>  <SCORE.INTRA.norm>
-0.249178

>  <SCORE.RESTR>
0.057726

>  <SCORE.RESTR.CAVITY>
0.057726

>  <SCORE.RESTR.norm>
0.00524782

>  <SCORE.SYSTEM>
0

>  <SCORE.SYSTEM.CONST>
0

>  <SCORE.SYSTEM.DIHEDRAL>
0

>  <SCORE.SYSTEM.SOLV>
0

>  <SCORE.SYSTEM.norm>
0

>  <SCORE.heavy>
11

>  <SCORE.norm>
-2.17102

>  <RMSD>
14.353

$$$$

 OpenBabel11021811383D
libRbt.so/2013.1/901 2013/11/27
 11 10  0  0  0  0  0  0  0  0999 V2000
  -10.7592    5.8000   -3.1052 N   0  3  0  0  0  0  0  0  0  0  0  0
  -12.0095    4.9853   -3.0360 C   0  0  2  0  0  0  0  0  0  0  0  0
  -12.7001    4.9763   -4.4103 C   0  0  0  0  0  0  0  0  0  0  0  0
  -12.1923    5.5363   -5.3637 O   0  0  0  0  0  0  0  0  0  0  0  0
  -12.9493    5.5871   -1.9829 C   0  0  0  0  0  0  0  0  0  0  0  0
  -12.2091    5.7182   -0.6488 C   0  0  0  0  0  0  0  0  0  0  0  0
  -13.0557    6.5330    0.3268 C   0  0  0  0  0  0  0  0  0  0  0  0
  -12.1575    7.2206    1.2946 N   0  3  0  0  0  0  0  0  0  0  0  0
  -10.8658    7.2106    1.1105 C   0  0  0  0  0  0  0  0  0  0  0  0
  -10.2300    8.3351    0.9057 N   0  0  0  0  0  0  0  0  0  0  0  0
  -10.2105    6.0790    1.1384 N   0  0  0  0  0  0  0  0  0  0  0  0
  2  1  1  6  0  0  0
  2  3  1  0  0  0  0
  2  5  1  0  0  0  0
  3  4  2  0  0  0  0
  5  6  1  0  0  0  0
  6  7  1  0  0  0  0
  7  8  1  0  0  0  0
  8  9  2  0  0  0  0
  9 10  1  0  0  0  0
  9 11  1  0  0  0  0
M  CHG  2   1   1   8   1
M  END
>  <CHROM.1>
-35.85633316,2.67617745,-54.06822356,170.25963962,-152.25311909,8.94523329
-11.70329115,6.20573523,-1.25978293,-1.76855302,0.30545253,1.29231775

>  <Name>


>  <RI>
0

>  <Rbt.Current_Directory>
/home/itssahil/PROJECTS/Mol_Feturizer/New_Systems/rnas/1aju

>  <Rbt.Executable>
rbdock ($Id: //depot/dev/client3/rdock/2013.1/src/exe/rbdock.cxx#4 $)

>  <Rbt.Library>
libRbt.so (2013.1, Build901 2013/11/27)

>  <Rbt.Parameter_File>
/export/apps/rDock/src/rDock_2013.1_src/data/scripts/dock_solv.prm

>  <Rbt.Receptor>
prm/blind_docking_40.prm

>  <SCORE>
-22.9487

>  <SCORE.INTER>
-27.4881

>  <SCORE.INTER.CONST>
1

>  <SCORE.INTER.POLAR>
-5.47765

>  <SCORE.INTER.ROT>
5

>  <SCORE.INTER.SOLV>
22.5634

>  <SCORE.INTER.VDW>
-14.521

>  <SCORE.INTER.norm>
-2.49892

>  <SCORE.INTRA>
4.46354

>  <SCORE.INTRA.DIHEDRAL>
-2.70641

>  <SCORE.INTRA.DIHEDRAL.0>
9.90185

>  <SCORE.INTRA.POLAR>
0

>  <SCORE.INTRA.POLAR.0>
0

>  <SCORE.INTRA.REPUL>
0

>  <SCORE.INTRA.REPUL.0>
0

>  <SCORE.INTRA.SOLV>
3.65832

>  <SCORE.INTRA.SOLV.lig_0>
-53.6586

>  <SCORE.INTRA.VDW>
3.98759

>  <SCORE.INTRA.VDW.0>
-0.556525

>  <SCORE.INTRA.norm>
0.405776

>  <SCORE.RESTR>
0.0758743

>  <SCORE.RESTR.CAVITY>
0.0758743

>  <SCORE.RESTR.norm>
0.00689766

>  <SCORE.SYSTEM>
0

>  <SCORE.SYSTEM.CONST>
0

>  <SCORE.SYSTEM.DIHEDRAL>
0

>  <SCORE.SYSTEM.SOLV>
0

>  <SCORE.SYSTEM.norm>
0

>  <SCORE.heavy>
11

>  <SCORE.norm>
-2.08625

>  <RMSD>
14.374

$$$$

 OpenBabel11021811383D
libRbt.so/2013.1/901 2013/11/27
 11 10  0  0  0  0  0  0  0  0999 V2000
  -13.1711    6.8869   -5.6501 N   0  3  0  0  0  0  0  0  0  0  0  0
  -12.1103    6.0504   -5.0123 C   0  0  2  0  0  0  0  0  0  0  0  0
  -12.0051    4.7004   -5.7417 C   0  0  0  0  0  0  0  0  0  0  0  0
  -11.1612    4.5229   -6.6000 O   0  0  0  0  0  0  0  0  0  0  0  0
  -12.4642    5.8210   -3.5369 C   0  0  0  0  0  0  0  0  0  0  0  0
  -11.1791    5.7115   -2.7115 C   0  0  0  0  0  0  0  0  0  0  0  0
  -11.5330    5.5600   -1.2335 C   0  0  0  0  0  0  0  0  0  0  0  0
  -10.4114    6.0853   -0.4077 N   0  3  0  0  0  0  0  0  0  0  0  0
  -10.6545    6.6556    0.7405 C   0  0  0  0  0  0  0  0  0  0  0  0
  -10.1934    6.1214    1.8418 N   0  0  0  0  0  0  0  0  0  0  0  0
  -11.3511    7.7616    0.7862 N   0  0  0  0  0  0  0  0  0  0  0  0
  2  1  1  6  0  0  0
  2  3  1  0  0  0  0
  2  5  1  0  0  0  0
  3  4  2  0  0  0  0
  5  6  1  0  0  0  0
  6  7  1  0  0  0  0
  7  8  1  0  0  0  0
  8  9  2  0  0  0  0
  9 10  1  0  0  0  0
  9 11  1  0  0  0  0
M  CHG  2   1   1   8   1
M  END
>  <CHROM.1>
56.06564350,97.15046910,-148.14709117,176.91476779,-153.46049215,147.21498692
-11.48257310,6.01712038,-2.50766691,1.89292651,0.85236387,-1.98289996

>  <Name>


>  <RI>
0

>  <Rbt.Current_Directory>
/home/itssahil/PROJECTS/Mol_Feturizer/New_Systems/rnas/1aju

>  <Rbt.Executable>
rbdock ($Id: //depot/dev/client3/rdock/2013.1/src/exe/rbdock.cxx#4 $)

>  <Rbt.Library>
libRbt.so (2013.1, Build901 2013/11/27)

>  <Rbt.Parameter_File>
/export/apps/rDock/src/rDock_2013.1_src/data/scripts/dock_solv.prm

>  <Rbt.Receptor>
prm/blind_docking_100.prm

>  <SCORE>
-15.5132

>  <SCORE.INTER>
-15.5681

>  <SCORE.INTER.CONST>
1

>  <SCORE.INTER.POLAR>
-2.8542

>  <SCORE.INTER.ROT>
5

>  <SCORE.INTER.SOLV>
18.4142

>  <SCORE.INTER.VDW>
-13.9362

>  <SCORE.INTER.norm>
-1.41529

>  <SCORE.INTRA>
-0.652817

>  <SCORE.INTRA.DIHEDRAL>
-0.885969

>  <SCORE.INTRA.DIHEDRAL.0>
9.90185

>  <SCORE.INTRA.POLAR>
0

>  <SCORE.INTRA.POLAR.0>
0

>  <SCORE.INTRA.REPUL>
0

>  <SCORE.INTRA.REPUL.0>
0

>  <SCORE.INTRA.SOLV>
0.246736

>  <SCORE.INTRA.SOLV.lig_0>
-53.6586

>  <SCORE.INTRA.VDW>
-0.333201

>  <SCORE.INTRA.VDW.0>
-0.556525

>  <SCORE.INTRA.norm>
-0.059347

>  <SCORE.RESTR>
0.707759

>  <SCORE.RESTR.CAVITY>
0.707759

>  <SCORE.RESTR.norm>
0.0643417

>  <SCORE.SYSTEM>
0

>  <SCORE.SYSTEM.CONST>
0

>  <SCORE.SYSTEM.DIHEDRAL>
0

>  <SCORE.SYSTEM.SOLV>
0

>  <SCORE.SYSTEM.norm>
0

>  <SCORE.heavy>
11

>  <SCORE.norm>
-1.41029

>  <RMSD>
14.377

$$$$

 OpenBabel11021811383D
libRbt.so/2013.1/901 2013/11/27
 11 10  0  0  0  0  0  0  0  0999 V2000
  -10.8241    5.8610   -3.2690 N   0  3  0  0  0  0  0  0  0  0  0  0
  -11.8760    4.9549   -2.7175 C   0  0  2  0  0  0  0  0  0  0  0  0
  -13.2546    5.6265   -2.8367 C   0  0  0  0  0  0  0  0  0  0  0  0
  -14.1971    5.0272   -3.3191 O   0  0  0  0  0  0  0  0  0  0  0  0
  -11.5661    4.6557   -1.2447 C   0  0  0  0  0  0  0  0  0  0  0  0
  -11.0567    5.9264   -0.5586 C   0  0  0  0  0  0  0  0  0  0  0  0
  -10.7220    5.6199    0.8997 C   0  0  0  0  0  0  0  0  0  0  0  0
  -10.2800    6.8725    1.5717 N   0  3  0  0  0  0  0  0  0  0  0  0
  -11.1618    7.6939    2.0720 C   0  0  0  0  0  0  0  0  0  0  0  0
  -11.1784    7.9240    3.3594 N   0  0  0  0  0  0  0  0  0  0  0  0
  -12.0205    8.2893    1.2852 N   0  0  0  0  0  0  0  0  0  0  0  0
  2  1  1  1  0  0  0
  2  3  1  0  0  0  0
  2  5  1  0  0  0  0
  3  4  2  0  0  0  0
  5  6  1  0  0  0  0
  6  7  1  0  0  0  0
  7  8  1  0  0  0  0
  8  9  2  0  0  0  0
  9 10  1  0  0  0  0
  9 11  1  0  0  0  0
M  CHG  2   1   1   8   1
M  END
>  <CHROM.1>
-76.89081035,130.48199120,39.81428612,-178.86039165,-177.75763901,84.90302569
-11.64320027,6.25476305,-0.44178122,-1.84220073,-0.33231659,1.06069985

>  <Name>


>  <RI>
0

>  <Rbt.Current_Directory>
/home/itssahil/PROJECTS/Mol_Feturizer/New_Systems/rnas/1aju

>  <Rbt.Executable>
rbdock ($Id: //depot/dev/client3/rdock/2013.1/src/exe/rbdock.cxx#4 $)

>  <Rbt.Library>
libRbt.so (2013.1, Build901 2013/11/27)

>  <Rbt.Parameter_File>
/export/apps/rDock/src/rDock_2013.1_src/data/scripts/dock_solv.prm

>  <Rbt.Receptor>
prm/blind_docking_40.prm

>  <SCORE>
-16.3317

>  <SCORE.INTER>
-17.5884

>  <SCORE.INTER.CONST>
1

>  <SCORE.INTER.POLAR>
-4.0559

>  <SCORE.INTER.ROT>
5

>  <SCORE.INTER.SOLV>
20.5846

>  <SCORE.INTER.VDW>
-12.0008

>  <SCORE.INTER.norm>
-1.59895

>  <SCORE.INTRA>
0.127632

>  <SCORE.INTRA.DIHEDRAL>
-4.81501

>  <SCORE.INTRA.DIHEDRAL.0>
9.90185

>  <SCORE.INTRA.POLAR>
0

>  <SCORE.INTRA.POLAR.0>
0

>  <SCORE.INTRA.REPUL>
0

>  <SCORE.INTRA.REPUL.0>
0

>  <SCORE.INTRA.SOLV>
2.15065

>  <SCORE.INTRA.SOLV.lig_0>
-53.6586

>  <SCORE.INTRA.VDW>
1.45981

>  <SCORE.INTRA.VDW.0>
-0.556525

>  <SCORE.INTRA.norm>
0.0116029

>  <SCORE.RESTR>
1.12908

>  <SCORE.RESTR.CAVITY>
1.12908

>  <SCORE.RESTR.norm>
0.102644

>  <SCORE.SYSTEM>
0

>  <SCORE.SYSTEM.CONST>
0

>  <SCORE.SYSTEM.DIHEDRAL>
0

>  <SCORE.SYSTEM.SOLV>
0

>  <SCORE.SYSTEM.norm>
0

>  <SCORE.heavy>
11

>  <SCORE.norm>
-1.4847

>  <RMSD>
14.380

$$$$

 OpenBabel11021811383D
libRbt.so/2013.1/901 2013/11/27
 11 10  0  0  0  0  0  0  0  0999 V2000
  -11.4583    9.5613    5.2624 N   0  3  0  0  0  0  0  0  0  0  0  0
  -11.9023    8.4424    4.3778 C   0  0  2  0  0  0  0  0  0  0  0  0
  -11.7984    7.1083    5.1362 C   0  0  0  0  0  0  0  0  0  0  0  0
  -11.0676    6.9993    6.1028 O   0  0  0  0  0  0  0  0  0  0  0  0
  -11.0149    8.4025    3.1265 C   0  0  0  0  0  0  0  0  0  0  0  0
  -11.7583    7.6917    1.9921 C   0  0  0  0  0  0  0  0  0  0  0  0
  -10.9168    7.7443    0.7187 C   0  0  0  0  0  0  0  0  0  0  0  0
  -10.0511    6.5350    0.6565 N   0  3  0  0  0  0  0  0  0  0  0  0
  -10.5016    5.4336    0.1211 C   0  0  0  0  0  0  0  0  0  0  0  0
   -9.9291    4.9509   -0.9513 N   0  0  0  0  0  0  0  0  0  0  0  0
  -11.5180    4.8126    0.6615 N   0  0  0  0  0  0  0  0  0  0  0  0
  2  1  1  1  0  0  0
  2  3  1  0  0  0  0
  2  5  1  0  0  0  0
  3  4  2  0  0  0  0
  5  6  1  0  0  0  0
  6  7  1  0  0  0  0
  7  8  1  0  0  0  0
  8  9  2  0  0  0  0
  9 10  1  0  0  0  0
  9 11  1  0  0  0  0
M  CHG  2   1   1   8   1
M  END
>  <CHROM.1>
61.49708644,-21.36549614,-157.22451907,175.81679045,91.04957185,87.08806241
-11.06686764,7.06182510,2.49812618,-2.80070192,-1.39651352,3.00253202

>  <Name>


>  <RI>
0

>  <Rbt.Current_Directory>
/home/itssahil/PROJECTS/Mol_Feturizer/New_Systems/rnas/1aju

>  <Rbt.Executable>
rbdock ($Id: //depot/dev/client3/rdock/2013.1/src/exe/rbdock.cxx#4 $)

>  <Rbt.Library>
libRbt.so (2013.1, Build901 2013/11/27)

>  <Rbt.Parameter_File>
/export/apps/rDock/src/rDock_2013.1_src/data/scripts/dock_solv.prm

>  <Rbt.Receptor>
prm/blind_docking_100.prm

>  <SCORE>
-18.7455

>  <SCORE.INTER>
-18.9433

>  <SCORE.INTER.CONST>
1

>  <SCORE.INTER.POLAR>
-3.44039

>  <SCORE.INTER.ROT>
5

>  <SCORE.INTER.SOLV>
16.3328

>  <SCORE.INTER.VDW>
-13.5385

>  <SCORE.INTER.norm>
-1.72212

>  <SCORE.INTRA>
-0.0413055

>  <SCORE.INTRA.DIHEDRAL>
-1.62993

>  <SCORE.INTRA.DIHEDRAL.0>
9.90185

>  <SCORE.INTRA.POLAR>
0

>  <SCORE.INTRA.POLAR.0>
0

>  <SCORE.INTRA.REPUL>
0

>  <SCORE.INTRA.REPUL.0>
0

>  <SCORE.INTRA.SOLV>
1.74864

>  <SCORE.INTRA.SOLV.lig_0>
-53.6586

>  <SCORE.INTRA.VDW>
-0.10066

>  <SCORE.INTRA.VDW.0>
-0.556525

>  <SCORE.INTRA.norm>
-0.00375504

>  <SCORE.RESTR>
0.239086

>  <SCORE.RESTR.CAVITY>
0.239086

>  <SCORE.RESTR.norm>
0.0217351

>  <SCORE.SYSTEM>
0

>  <SCORE.SYSTEM.CONST>
0

>  <SCORE.SYSTEM.DIHEDRAL>
0

>  <SCORE.SYSTEM.SOLV>
0

>  <SCORE.SYSTEM.norm>
0

>  <SCORE.heavy>
11

>  <SCORE.norm>
-1.70414

>  <RMSD>
14.396

$$$$

 OpenBabel11021811383D
libRbt.so/2013.1/901 2013/11/27
 11 10  0  0  0  0  0  0  0  0999 V2000
  -10.5612    9.7429    4.7248 N   0  3  0  0  0  0  0  0  0  0  0  0
  -11.6877    8.7791    4.5408 C   0  0  2  0  0  0  0  0  0  0  0  0
  -11.3203    7.4247    5.1703 C   0  0  0  0  0  0  0  0  0  0  0  0
  -11.9834    6.9628    6.0799 O   0  0  0  0  0  0  0  0  0  0  0  0
  -11.9630    8.6010    3.0417 C   0  0  0  0  0  0  0  0  0  0  0  0
  -10.7613    7.9248    2.3756 C   0  0  0  0  0  0  0  0  0  0  0  0
  -11.2033    7.2717    1.0677 C   0  0  0  0  0  0  0  0  0  0  0  0
  -10.0656    6.4966    0.5014 N   0  3  0  0  0  0  0  0  0  0  0  0
  -10.2548    5.7075   -0.5205 C   0  0  0  0  0  0  0  0  0  0  0  0
   -9.6442    5.9513   -1.6513 N   0  0  0  0  0  0  0  0  0  0  0  0
  -11.0472    4.6730   -0.4094 N   0  0  0  0  0  0  0  0  0  0  0  0
  2  1  1  6  0  0  0
  2  3  1  0  0  0  0
  2  5  1  0  0  0  0
  3  4  2  0  0  0  0
  5  6  1  0  0  0  0
  6  7  1  0  0  0  0
  7  8  1  0  0  0  0
  8  9  2  0  0  0  0
  9 10  1  0  0  0  0
  9 11  1  0  0  0  0
M  CHG  2   1   1   8   1
M  END
>  <CHROM.1>
-70.69724263,118.92639296,65.82825862,158.48727840,-174.04717388,170.89078261
-10.93060508,7.23116536,2.26648746,-2.05650742,-1.17701920,-2.45648334

>  <Name>


>  <RI>
0

>  <Rbt.Current_Directory>
/home/itssahil/PROJECTS/Mol_Feturizer/New_Systems/rnas/1aju

>  <Rbt.Executable>
rbdock ($Id: //depot/dev/client3/rdock/2013.1/src/exe/rbdock.cxx#4 $)

>  <Rbt.Library>
libRbt.so (2013.1, Build901 2013/11/27)

>  <Rbt.Parameter_File>
/export/apps/rDock/src/rDock_2013.1_src/data/scripts/dock_solv.prm

>  <Rbt.Receptor>
prm/blind_docking_80.prm

>  <SCORE>
-22.2291

>  <SCORE.INTER>
-21.5877

>  <SCORE.INTER.CONST>
1

>  <SCORE.INTER.POLAR>
-4.08132

>  <SCORE.INTER.ROT>
5

>  <SCORE.INTER.SOLV>
20.0935

>  <SCORE.INTER.VDW>
-14.4186

>  <SCORE.INTER.norm>
-1.96252

>  <SCORE.INTRA>
-0.658072

>  <SCORE.INTRA.DIHEDRAL>
-4.65629

>  <SCORE.INTRA.DIHEDRAL.0>
9.90185

>  <SCORE.INTRA.POLAR>
0

>  <SCORE.INTRA.POLAR.0>
0

>  <SCORE.INTRA.REPUL>
0

>  <SCORE.INTRA.REPUL.0>
0

>  <SCORE.INTRA.SOLV>
1.08001

>  <SCORE.INTRA.SOLV.lig_0>
-53.6586

>  <SCORE.INTRA.VDW>
1.13007

>  <SCORE.INTRA.VDW.0>
-0.556525

>  <SCORE.INTRA.norm>
-0.0598247

>  <SCORE.RESTR>
0.0166984

>  <SCORE.RESTR.CAVITY>
0.0166984

>  <SCORE.RESTR.norm>
0.00151803

>  <SCORE.SYSTEM>
0

>  <SCORE.SYSTEM.CONST>
0

>  <SCORE.SYSTEM.DIHEDRAL>
0

>  <SCORE.SYSTEM.SOLV>
0

>  <SCORE.SYSTEM.norm>
0

>  <SCORE.heavy>
11

>  <SCORE.norm>
-2.02082

>  <RMSD>
14.414

$$$$

 OpenBabel11021811383D
libRbt.so/2013.1/901 2013/11/27
 11 10  0  0  0  0  0  0  0  0999 V2000
  -12.1901    9.4097    4.8125 N   0  3  0  0  0  0  0  0  0  0  0  0
  -12.1736    8.5090    3.6208 C   0  0  2  0  0  0  0  0  0  0  0  0
  -12.3326    7.0473    4.0724 C   0  0  0  0  0  0  0  0  0  0  0  0
  -12.3748    6.7642    5.2549 O   0  0  0  0  0  0  0  0  0  0  0  0
  -10.8456    8.6830    2.8719 C   0  0  0  0  0  0  0  0  0  0  0  0
  -11.0411    8.3387    1.3927 C   0  0  0  0  0  0  0  0  0  0  0  0
  -11.2896    6.8390    1.2462 C   0  0  0  0  0  0  0  0  0  0  0  0
  -10.1079    6.2108    0.5944 N   0  3  0  0  0  0  0  0  0  0  0  0
  -10.2570    5.5082   -0.4950 C   0  0  0  0  0  0  0  0  0  0  0  0
   -9.6899    5.9030   -1.6055 N   0  0  0  0  0  0  0  0  0  0  0  0
  -10.9659    4.4093   -0.4718 N   0  0  0  0  0  0  0  0  0  0  0  0
  2  1  1  1  0  0  0
  2  3  1  0  0  0  0
  2  5  1  0  0  0  0
  3  4  2  0  0  0  0
  5  6  1  0  0  0  0
  6  7  1  0  0  0  0
  7  8  1  0  0  0  0
  8  9  2  0  0  0  0
  9 10  1  0  0  0  0
  9 11  1  0  0  0  0
M  CHG  2   1   1   8   1
M  END
>  <CHROM.1>
-60.80959432,-4.01485834,-153.23728745,-69.05204899,-110.16995588,-124.52239419
-11.20422023,7.05624475,1.95718632,-2.31453745,-1.10622099,-2.74850276

>  <Name>


>  <RI>
0

>  <Rbt.Current_Directory>
/home/itssahil/PROJECTS/Mol_Feturizer/New_Systems/rnas/1aju

>  <Rbt.Executable>
rbdock ($Id: //depot/dev/client3/rdock/2013.1/src/exe/rbdock.cxx#4 $)

>  <Rbt.Library>
libRbt.so (2013.1, Build901 2013/11/27)

>  <Rbt.Parameter_File>
/export/apps/rDock/src/rDock_2013.1_src/data/scripts/dock_solv.prm

>  <Rbt.Receptor>
prm/blind_docking_80.prm

>  <SCORE>
-16.9691

>  <SCORE.INTER>
-18.6756

>  <SCORE.INTER.CONST>
1

>  <SCORE.INTER.POLAR>
-3.33921

>  <SCORE.INTER.ROT>
5

>  <SCORE.INTER.SOLV>
17.6227

>  <SCORE.INTER.VDW>
-14.1273

>  <SCORE.INTER.norm>
-1.69779

>  <SCORE.INTRA>
1.70655

>  <SCORE.INTRA.DIHEDRAL>
0.70064

>  <SCORE.INTRA.DIHEDRAL.0>
9.90185

>  <SCORE.INTRA.POLAR>
0

>  <SCORE.INTRA.POLAR.0>
0

>  <SCORE.INTRA.REPUL>
0

>  <SCORE.INTRA.REPUL.0>
0

>  <SCORE.INTRA.SOLV>
1.35453

>  <SCORE.INTRA.SOLV.lig_0>
-53.6586

>  <SCORE.INTRA.VDW>
0.678969

>  <SCORE.INTRA.VDW.0>
-0.556525

>  <SCORE.INTRA.norm>
0.155141

>  <SCORE.RESTR>
0

>  <SCORE.RESTR.CAVITY>
0

>  <SCORE.RESTR.norm>
0

>  <SCORE.SYSTEM>
0

>  <SCORE.SYSTEM.CONST>
0

>  <SCORE.SYSTEM.DIHEDRAL>
0

>  <SCORE.SYSTEM.SOLV>
0

>  <SCORE.SYSTEM.norm>
0

>  <SCORE.heavy>
11

>  <SCORE.norm>
-1.54264

>  <RMSD>
14.416

$$$$

 OpenBabel11021811383D
libRbt.so/2013.1/901 2013/11/27
 11 10  0  0  0  0  0  0  0  0999 V2000
  -11.0796    9.8213    4.9442 N   0  3  0  0  0  0  0  0  0  0  0  0
  -11.7140    8.8941    3.9595 C   0  0  2  0  0  0  0  0  0  0  0  0
  -12.1094    7.5834    4.6605 C   0  0  0  0  0  0  0  0  0  0  0  0
  -13.1665    7.0378    4.4056 O   0  0  0  0  0  0  0  0  0  0  0  0
  -10.7216    8.6018    2.8262 C   0  0  0  0  0  0  0  0  0  0  0  0
  -11.4291    7.8261    1.7114 C   0  0  0  0  0  0  0  0  0  0  0  0
  -10.3886    7.2121    0.7771 C   0  0  0  0  0  0  0  0  0  0  0  0
  -11.0819    6.6012   -0.3899 N   0  3  0  0  0  0  0  0  0  0  0  0
  -10.5898    5.5356   -0.9600 C   0  0  0  0  0  0  0  0  0  0  0  0
  -11.2732    4.4203   -0.9522 N   0  0  0  0  0  0  0  0  0  0  0  0
   -9.4201    5.5874   -1.5429 N   0  0  0  0  0  0  0  0  0  0  0  0
  2  1  1  1  0  0  0
  2  3  1  0  0  0  0
  2  5  1  0  0  0  0
  3  4  2  0  0  0  0
  5  6  1  0  0  0  0
  6  7  1  0  0  0  0
  7  8  1  0  0  0  0
  8  9  2  0  0  0  0
  9 10  1  0  0  0  0
  9 11  1  0  0  0  0
M  CHG  2   1   1   8   1
M  END
>  <CHROM.1>
75.76169856,139.23728144,-171.58882140,-164.81557573,-173.25246892,-147.36195252
-11.17905016,7.19116827,1.77258968,-1.85695129,-0.76851237,-2.29714391

>  <Name>


>  <RI>
224

>  <Rbt.Current_Directory>
/home/itssahil/PROJECTS/Mol_Feturizer/New_Systems/rnas/1aju

>  <Rbt.Executable>
rbdock ($Id: //depot/dev/client3/rdock/2013.1/src/exe/rbdock.cxx#4 $)

>  <Rbt.Library>
libRbt.so (2013.1, Build901 2013/11/27)

>  <Rbt.Parameter_File>
/export/apps/rDock/src/rDock_2013.1_src/data/scripts/dock_solv.prm

>  <Rbt.Receptor>
prm/blind_docking_20.prm

>  <SCORE>
-15.6214

>  <SCORE.INTER>
-13.5857

>  <SCORE.INTER.CONST>
1

>  <SCORE.INTER.POLAR>
-3.04173

>  <SCORE.INTER.ROT>
5

>  <SCORE.INTER.SOLV>
18.7633

>  <SCORE.INTER.VDW>
-12.1059

>  <SCORE.INTER.norm>
-1.23507

>  <SCORE.INTRA>
-2.06052

>  <SCORE.INTRA.DIHEDRAL>
-4.44085

>  <SCORE.INTRA.DIHEDRAL.0>
9.90185

>  <SCORE.INTRA.POLAR>
0

>  <SCORE.INTRA.POLAR.0>
0

>  <SCORE.INTRA.REPUL>
0

>  <SCORE.INTRA.REPUL.0>
0

>  <SCORE.INTRA.SOLV>
-0.188586

>  <SCORE.INTRA.SOLV.lig_0>
-53.6586

>  <SCORE.INTRA.VDW>
0.254199

>  <SCORE.INTRA.VDW.0>
-0.556525

>  <SCORE.INTRA.norm>
-0.18732

>  <SCORE.RESTR>
0.0248645

>  <SCORE.RESTR.CAVITY>
0.0248645

>  <SCORE.RESTR.norm>
0.00226041

>  <SCORE.SYSTEM>
0

>  <SCORE.SYSTEM.CONST>
0

>  <SCORE.SYSTEM.DIHEDRAL>
0

>  <SCORE.SYSTEM.SOLV>
0

>  <SCORE.SYSTEM.norm>
0

>  <SCORE.heavy>
11

>  <SCORE.norm>
-1.42013

>  <RMSD>
14.449

$$$$

 OpenBabel11021811383D
libRbt.so/2013.1/901 2013/11/27
 11 10  0  0  0  0  0  0  0  0999 V2000
  -13.3652    6.7880   -5.9148 N   0  3  0  0  0  0  0  0  0  0  0  0
  -11.9875    6.2215   -6.0278 C   0  0  2  0  0  0  0  0  0  0  0  0
  -11.8591    5.4258   -7.3378 C   0  0  0  0  0  0  0  0  0  0  0  0
  -12.8157    5.2887   -8.0769 O   0  0  0  0  0  0  0  0  0  0  0  0
  -11.7174    5.3021   -4.8293 C   0  0  0  0  0  0  0  0  0  0  0  0
  -11.6296    6.1386   -3.5497 C   0  0  0  0  0  0  0  0  0  0  0  0
  -10.9646    5.3170   -2.4473 C   0  0  0  0  0  0  0  0  0  0  0  0
  -11.1542    6.0084   -1.1427 N   0  3  0  0  0  0  0  0  0  0  0  0
  -11.0901    5.3331   -0.0280 C   0  0  0  0  0  0  0  0  0  0  0  0
  -10.1527    5.6044    0.8429 N   0  0  0  0  0  0  0  0  0  0  0  0
  -11.9661    4.3936    0.2181 N   0  0  0  0  0  0  0  0  0  0  0  0
  2  1  1  1  0  0  0
  2  3  1  0  0  0  0
  2  5  1  0  0  0  0
  3  4  2  0  0  0  0
  5  6  1  0  0  0  0
  6  7  1  0  0  0  0
  7  8  1  0  0  0  0
  8  9  2  0  0  0  0
  9 10  1  0  0  0  0
  9 11  1  0  0  0  0
M  CHG  2   1   1   8   1
M  END
>  <CHROM.1>
-58.18683849,-2.85635106,-68.32719057,-163.34226406,-167.47296273,156.97653712
-11.73749196,5.63131744,-3.46619183,2.01473199,1.04771521,-1.88795575

>  <Name>


>  <RI>
0

>  <Rbt.Current_Directory>
/home/itssahil/PROJECTS/Mol_Feturizer/New_Systems/rnas/1aju

>  <Rbt.Executable>
rbdock ($Id: //depot/dev/client3/rdock/2013.1/src/exe/rbdock.cxx#4 $)

>  <Rbt.Library>
libRbt.so (2013.1, Build901 2013/11/27)

>  <Rbt.Parameter_File>
/export/apps/rDock/src/rDock_2013.1_src/data/scripts/dock_solv.prm

>  <Rbt.Receptor>
prm/blind_docking_40.prm

>  <SCORE>
-16.3726

>  <SCORE.INTER>
-14.9817

>  <SCORE.INTER.CONST>
1

>  <SCORE.INTER.POLAR>
-2.83115

>  <SCORE.INTER.ROT>
5

>  <SCORE.INTER.SOLV>
13.6127

>  <SCORE.INTER.VDW>
-12.0215

>  <SCORE.INTER.norm>
-1.36197

>  <SCORE.INTRA>
-1.39091

>  <SCORE.INTRA.DIHEDRAL>
-4.97937

>  <SCORE.INTRA.DIHEDRAL.0>
9.90185

>  <SCORE.INTRA.POLAR>
0

>  <SCORE.INTRA.POLAR.0>
0

>  <SCORE.INTRA.REPUL>
0

>  <SCORE.INTRA.REPUL.0>
0

>  <SCORE.INTRA.SOLV>
2.0829

>  <SCORE.INTRA.SOLV.lig_0>
-53.6586

>  <SCORE.INTRA.VDW>
0.0573213

>  <SCORE.INTRA.VDW.0>
-0.556525

>  <SCORE.INTRA.norm>
-0.126447

>  <SCORE.RESTR>
0

>  <SCORE.RESTR.CAVITY>
0

>  <SCORE.RESTR.norm>
0

>  <SCORE.SYSTEM>
0

>  <SCORE.SYSTEM.CONST>
0

>  <SCORE.SYSTEM.DIHEDRAL>
0

>  <SCORE.SYSTEM.SOLV>
0

>  <SCORE.SYSTEM.norm>
0

>  <SCORE.heavy>
11

>  <SCORE.norm>
-1.48842

>  <RMSD>
14.497

$$$$

 OpenBabel11021811383D
libRbt.so/2013.1/901 2013/11/27
 11 10  0  0  0  0  0  0  0  0999 V2000
  -12.7662    9.2179    3.6783 N   0  3  0  0  0  0  0  0  0  0  0  0
  -11.6831    8.1890    3.6862 C   0  0  2  0  0  0  0  0  0  0  0  0
  -10.9792    8.1865    5.0538 C   0  0  0  0  0  0  0  0  0  0  0  0
  -11.4575    8.7848    5.9990 O   0  0  0  0  0  0  0  0  0  0  0  0
  -10.6710    8.5098    2.5782 C   0  0  0  0  0  0  0  0  0  0  0  0
  -11.3160    8.2743    1.2095 C   0  0  0  0  0  0  0  0  0  0  0  0
  -11.5754    6.7816    1.0174 C   0  0  0  0  0  0  0  0  0  0  0  0
  -10.3598    6.1464    0.4388 N   0  3  0  0  0  0  0  0  0  0  0  0
  -10.4455    5.4483   -0.6603 C   0  0  0  0  0  0  0  0  0  0  0  0
   -9.8068    5.8422   -1.7316 N   0  0  0  0  0  0  0  0  0  0  0  0
  -11.1626    4.3548   -0.6856 N   0  0  0  0  0  0  0  0  0  0  0  0
  2  1  1  1  0  0  0
  2  3  1  0  0  0  0
  2  5  1  0  0  0  0
  3  4  2  0  0  0  0
  5  6  1  0  0  0  0
  6  7  1  0  0  0  0
  7  8  1  0  0  0  0
  8  9  2  0  0  0  0
  9 10  1  0  0  0  0
  9 11  1  0  0  0  0
M  CHG  2   1   1   8   1
M  END
>  <CHROM.1>
-173.91354500,12.03150578,-69.24683849,-67.65463368,-87.40122411,-125.59622375
-11.13146373,7.25686309,1.86830024,2.25170761,-1.28252169,1.69312264

>  <Name>


>  <RI>
0

>  <Rbt.Current_Directory>
/home/itssahil/PROJECTS/Mol_Feturizer/New_Systems/rnas/1aju

>  <Rbt.Executable>
rbdock ($Id: //depot/dev/client3/rdock/2013.1/src/exe/rbdock.cxx#4 $)

>  <Rbt.Library>
libRbt.so (2013.1, Build901 2013/11/27)

>  <Rbt.Parameter_File>
/export/apps/rDock/src/rDock_2013.1_src/data/scripts/dock_solv.prm

>  <Rbt.Receptor>
prm/blind_docking_80.prm

>  <SCORE>
-19.1289

>  <SCORE.INTER>
-18.8255

>  <SCORE.INTER.CONST>
1

>  <SCORE.INTER.POLAR>
-3.34634

>  <SCORE.INTER.ROT>
5

>  <SCORE.INTER.SOLV>
18.4233

>  <SCORE.INTER.VDW>
-14.4703

>  <SCORE.INTER.norm>
-1.71141

>  <SCORE.INTRA>
-0.303354

>  <SCORE.INTRA.DIHEDRAL>
-3.68691

>  <SCORE.INTRA.DIHEDRAL.0>
9.90185

>  <SCORE.INTRA.POLAR>
0

>  <SCORE.INTRA.POLAR.0>
0

>  <SCORE.INTRA.REPUL>
0

>  <SCORE.INTRA.REPUL.0>
0

>  <SCORE.INTRA.SOLV>
2.72156

>  <SCORE.INTRA.SOLV.lig_0>
-53.6586

>  <SCORE.INTRA.VDW>
0.179324

>  <SCORE.INTRA.VDW.0>
-0.556525

>  <SCORE.INTRA.norm>
-0.0275777

>  <SCORE.RESTR>
0

>  <SCORE.RESTR.CAVITY>
0

>  <SCORE.RESTR.norm>
0

>  <SCORE.SYSTEM>
0

>  <SCORE.SYSTEM.CONST>
0

>  <SCORE.SYSTEM.DIHEDRAL>
0

>  <SCORE.SYSTEM.SOLV>
0

>  <SCORE.SYSTEM.norm>
0

>  <SCORE.heavy>
11

>  <SCORE.norm>
-1.73899

>  <RMSD>
14.510

$$$$

 OpenBabel11021811383D
libRbt.so/2013.1/901 2013/11/27
 11 10  0  0  0  0  0  0  0  0999 V2000
  -10.4943    9.5961    4.6084 N   0  3  0  0  0  0  0  0  0  0  0  0
  -11.6471    8.7100    4.2656 C   0  0  2  0  0  0  0  0  0  0  0  0
  -12.1287    7.9731    5.5268 C   0  0  0  0  0  0  0  0  0  0  0  0
  -11.5031    8.0501    6.5675 O   0  0  0  0  0  0  0  0  0  0  0  0
  -11.2074    7.6942    3.2027 C   0  0  0  0  0  0  0  0  0  0  0  0
  -11.0457    8.4001    1.8535 C   0  0  0  0  0  0  0  0  0  0  0  0
  -11.3862    7.4288    0.7252 C   0  0  0  0  0  0  0  0  0  0  0  0
  -10.1683    6.6510    0.3679 N   0  3  0  0  0  0  0  0  0  0  0  0
  -10.2242    5.7364   -0.5612 C   0  0  0  0  0  0  0  0  0  0  0  0
   -9.5153    5.8740   -1.6518 N   0  0  0  0  0  0  0  0  0  0  0  0
  -10.9820    4.6832   -0.3966 N   0  0  0  0  0  0  0  0  0  0  0  0
  2  1  1  1  0  0  0
  2  3  1  0  0  0  0
  2  5  1  0  0  0  0
  3  4  2  0  0  0  0
  5  6  1  0  0  0  0
  6  7  1  0  0  0  0
  7  8  1  0  0  0  0
  8  9  2  0  0  0  0
  9 10  1  0  0  0  0
  9 11  1  0  0  0  0
M  CHG  2   1   1   8   1
M  END
>  <CHROM.1>
179.52757144,-7.41946791,-72.76020046,-148.45876504,-86.62890217,178.76094465
-10.90014492,7.34864551,2.23504398,-1.97733664,-1.13011508,-2.37421280

>  <Name>


>  <RI>
0

>  <Rbt.Current_Directory>
/home/itssahil/PROJECTS/Mol_Feturizer/New_Systems/rnas/1aju

>  <Rbt.Executable>
rbdock ($Id: //depot/dev/client3/rdock/2013.1/src/exe/rbdock.cxx#4 $)

>  <Rbt.Library>
libRbt.so (2013.1, Build901 2013/11/27)

>  <Rbt.Parameter_File>
/export/apps/rDock/src/rDock_2013.1_src/data/scripts/dock_solv.prm

>  <Rbt.Receptor>
prm/blind_docking_100.prm

>  <SCORE>
-17.5961

>  <SCORE.INTER>
-18.7559

>  <SCORE.INTER.CONST>
1

>  <SCORE.INTER.POLAR>
-3.71684

>  <SCORE.INTER.ROT>
5

>  <SCORE.INTER.SOLV>
20.3363

>  <SCORE.INTER.VDW>
-13.8265

>  <SCORE.INTER.norm>
-1.70508

>  <SCORE.INTRA>
0.689227

>  <SCORE.INTRA.DIHEDRAL>
-0.719407

>  <SCORE.INTRA.DIHEDRAL.0>
9.90185

>  <SCORE.INTRA.POLAR>
0

>  <SCORE.INTRA.POLAR.0>
0

>  <SCORE.INTRA.REPUL>
0

>  <SCORE.INTRA.REPUL.0>
0

>  <SCORE.INTRA.SOLV>
2.17453

>  <SCORE.INTRA.SOLV.lig_0>
-53.6586

>  <SCORE.INTRA.VDW>
-0.0383334

>  <SCORE.INTRA.VDW.0>
-0.556525

>  <SCORE.INTRA.norm>
0.062657

>  <SCORE.RESTR>
0.4705

>  <SCORE.RESTR.CAVITY>
0.4705

>  <SCORE.RESTR.norm>
0.0427727

>  <SCORE.SYSTEM>
0

>  <SCORE.SYSTEM.CONST>
0

>  <SCORE.SYSTEM.DIHEDRAL>
0

>  <SCORE.SYSTEM.SOLV>
0

>  <SCORE.SYSTEM.norm>
0

>  <SCORE.heavy>
11

>  <SCORE.norm>
-1.59965

>  <RMSD>
14.516

$$$$

 OpenBabel11021811383D
libRbt.so/2013.1/901 2013/11/27
 11 10  0  0  0  0  0  0  0  0999 V2000
  -11.8620    5.1891   -7.1487 N   0  3  0  0  0  0  0  0  0  0  0  0
  -12.3337    5.6520   -5.8089 C   0  0  2  0  0  0  0  0  0  0  0  0
  -12.8736    7.0883   -5.9162 C   0  0  0  0  0  0  0  0  0  0  0  0
  -12.7753    7.7121   -6.9561 O   0  0  0  0  0  0  0  0  0  0  0  0
  -11.1646    5.6061   -4.8160 C   0  0  0  0  0  0  0  0  0  0  0  0
  -11.6950    5.7779   -3.3898 C   0  0  0  0  0  0  0  0  0  0  0  0
  -10.5651    5.5323   -2.3920 C   0  0  0  0  0  0  0  0  0  0  0  0
  -10.9450    6.1104   -1.0739 N   0  3  0  0  0  0  0  0  0  0  0  0
  -10.8964    5.3746    0.0027 C   0  0  0  0  0  0  0  0  0  0  0  0
  -10.0749    5.6917    0.9698 N   0  0  0  0  0  0  0  0  0  0  0  0
  -11.6731    4.3282    0.1144 N   0  0  0  0  0  0  0  0  0  0  0  0
  2  1  1  6  0  0  0
  2  3  1  0  0  0  0
  2  5  1  0  0  0  0
  3  4  2  0  0  0  0
  5  6  1  0  0  0  0
  6  7  1  0  0  0  0
  7  8  1  0  0  0  0
  8  9  2  0  0  0  0
  9 10  1  0  0  0  0
  9 11  1  0  0  0  0
M  CHG  2   1   1   8   1
M  END
>  <CHROM.1>
-41.99729434,-5.88481387,-167.64774128,171.91478524,162.05973175,127.09822521
-11.52807981,5.81593884,-3.32738490,-2.54555824,-1.29654765,0.77280153

>  <Name>


>  <RI>
0

>  <Rbt.Current_Directory>
/home/itssahil/PROJECTS/Mol_Feturizer/New_Systems/rnas/1aju

>  <Rbt.Executable>
rbdock ($Id: //depot/dev/client3/rdock/2013.1/src/exe/rbdock.cxx#4 $)

>  <Rbt.Library>
libRbt.so (2013.1, Build901 2013/11/27)

>  <Rbt.Parameter_File>
/export/apps/rDock/src/rDock_2013.1_src/data/scripts/dock_solv.prm

>  <Rbt.Receptor>
prm/blind_docking_40.prm

>  <SCORE>
-22.3106

>  <SCORE.INTER>
-20.9614

>  <SCORE.INTER.CONST>
1

>  <SCORE.INTER.POLAR>
-3.79616

>  <SCORE.INTER.ROT>
5

>  <SCORE.INTER.SOLV>
17.9356

>  <SCORE.INTER.VDW>
-14.2323

>  <SCORE.INTER.norm>
-1.90558

>  <SCORE.INTRA>
-1.34921

>  <SCORE.INTRA.DIHEDRAL>
-4.20664

>  <SCORE.INTRA.DIHEDRAL.0>
9.90185

>  <SCORE.INTRA.POLAR>
0

>  <SCORE.INTRA.POLAR.0>
0

>  <SCORE.INTRA.REPUL>
0

>  <SCORE.INTRA.REPUL.0>
0

>  <SCORE.INTRA.SOLV>
1.13787

>  <SCORE.INTRA.SOLV.lig_0>
-53.6586

>  <SCORE.INTRA.VDW>
0.185175

>  <SCORE.INTRA.VDW.0>
-0.556525

>  <SCORE.INTRA.norm>
-0.122656

>  <SCORE.RESTR>
0

>  <SCORE.RESTR.CAVITY>
0

>  <SCORE.RESTR.norm>
0

>  <SCORE.SYSTEM>
0

>  <SCORE.SYSTEM.CONST>
0

>  <SCORE.SYSTEM.DIHEDRAL>
0

>  <SCORE.SYSTEM.SOLV>
0

>  <SCORE.SYSTEM.norm>
0

>  <SCORE.heavy>
11

>  <SCORE.norm>
-2.02824

>  <RMSD>
14.520

$$$$

 OpenBabel11021811383D
libRbt.so/2013.1/901 2013/11/27
 11 10  0  0  0  0  0  0  0  0999 V2000
  -12.3848    6.8439   -7.5301 N   0  3  0  0  0  0  0  0  0  0  0  0
  -11.9105    5.8559   -6.5149 C   0  0  2  0  0  0  0  0  0  0  0  0
  -12.3410    4.4385   -6.9291 C   0  0  0  0  0  0  0  0  0  0  0  0
  -11.5391    3.6638   -7.4160 O   0  0  0  0  0  0  0  0  0  0  0  0
  -12.5118    6.2059   -5.1472 C   0  0  0  0  0  0  0  0  0  0  0  0
  -11.7881    5.4183   -4.0513 C   0  0  0  0  0  0  0  0  0  0  0  0
  -12.4706    5.6679   -2.7080 C   0  0  0  0  0  0  0  0  0  0  0  0
  -11.7448    4.9186   -1.6461 N   0  3  0  0  0  0  0  0  0  0  0  0
  -12.0274    5.1248   -0.3890 C   0  0  0  0  0  0  0  0  0  0  0  0
  -12.5142    4.1509    0.3357 N   0  0  0  0  0  0  0  0  0  0  0  0
  -11.8168    6.3006    0.1436 N   0  0  0  0  0  0  0  0  0  0  0  0
  2  1  1  6  0  0  0
  2  3  1  0  0  0  0
  2  5  1  0  0  0  0
  3  4  2  0  0  0  0
  5  6  1  0  0  0  0
  6  7  1  0  0  0  0
  7  8  1  0  0  0  0
  8  9  2  0  0  0  0
  9 10  1  0  0  0  0
  9 11  1  0  0  0  0
M  CHG  2   1   1   8   1
M  END
>  <CHROM.1>
69.90779848,103.29401205,-166.80548415,-174.78638189,-178.95359959,170.35230450
-12.09304867,5.33515567,-3.81123012,1.54490632,1.46339662,-1.51734831

>  <Name>


>  <RI>
0

>  <Rbt.Current_Directory>
/home/itssahil/PROJECTS/Mol_Feturizer/New_Systems/rnas/1aju

>  <Rbt.Executable>
rbdock ($Id: //depot/dev/client3/rdock/2013.1/src/exe/rbdock.cxx#4 $)

>  <Rbt.Library>
libRbt.so (2013.1, Build901 2013/11/27)

>  <Rbt.Parameter_File>
/export/apps/rDock/src/rDock_2013.1_src/data/scripts/dock_solv.prm

>  <Rbt.Receptor>
prm/blind_docking_40.prm

>  <SCORE>
-15.6157

>  <SCORE.INTER>
-13.0756

>  <SCORE.INTER.CONST>
1

>  <SCORE.INTER.POLAR>
-2.58896

>  <SCORE.INTER.ROT>
5

>  <SCORE.INTER.SOLV>
12.5701

>  <SCORE.INTER.VDW>
-11.2106

>  <SCORE.INTER.norm>
-1.18869

>  <SCORE.INTRA>
-2.54375

>  <SCORE.INTRA.DIHEDRAL>
-5.49678

>  <SCORE.INTRA.DIHEDRAL.0>
9.90185

>  <SCORE.INTRA.POLAR>
0

>  <SCORE.INTRA.POLAR.0>
0

>  <SCORE.INTRA.REPUL>
0

>  <SCORE.INTRA.REPUL.0>
0

>  <SCORE.INTRA.SOLV>
0.0325859

>  <SCORE.INTRA.SOLV.lig_0>
-53.6586

>  <SCORE.INTRA.VDW>
0.188347

>  <SCORE.INTRA.VDW.0>
-0.556525

>  <SCORE.INTRA.norm>
-0.23125

>  <SCORE.RESTR>
0.00370793

>  <SCORE.RESTR.CAVITY>
0.00370793

>  <SCORE.RESTR.norm>
0.000337084

>  <SCORE.SYSTEM>
0

>  <SCORE.SYSTEM.CONST>
0

>  <SCORE.SYSTEM.DIHEDRAL>
0

>  <SCORE.SYSTEM.SOLV>
0

>  <SCORE.SYSTEM.norm>
0

>  <SCORE.heavy>
11

>  <SCORE.norm>
-1.41961

>  <RMSD>
14.534

$$$$

 OpenBabel11021811383D
libRbt.so/2013.1/901 2013/11/27
 11 10  0  0  0  0  0  0  0  0999 V2000
  -11.6983    8.3595    5.7834 N   0  3  0  0  0  0  0  0  0  0  0  0
  -10.9262    8.3056    4.5057 C   0  0  2  0  0  0  0  0  0  0  0  0
  -10.3383    9.6926    4.1953 C   0  0  0  0  0  0  0  0  0  0  0  0
  -10.2553   10.5400    5.0644 O   0  0  0  0  0  0  0  0  0  0  0  0
  -11.8581    7.8667    3.3682 C   0  0  0  0  0  0  0  0  0  0  0  0
  -11.0468    7.6790    2.0831 C   0  0  0  0  0  0  0  0  0  0  0  0
  -11.4498    6.3677    1.4120 C   0  0  0  0  0  0  0  0  0  0  0  0
  -11.3142    6.5136   -0.0632 N   0  3  0  0  0  0  0  0  0  0  0  0
  -10.6865    5.6037   -0.7566 C   0  0  0  0  0  0  0  0  0  0  0  0
  -11.3334    4.9150   -1.6610 N   0  0  0  0  0  0  0  0  0  0  0  0
   -9.4130    5.3882   -0.5506 N   0  0  0  0  0  0  0  0  0  0  0  0
  2  1  1  1  0  0  0
  2  3  1  0  0  0  0
  2  5  1  0  0  0  0
  3  4  2  0  0  0  0
  5  6  1  0  0  0  0
  6  7  1  0  0  0  0
  7  8  1  0  0  0  0
  8  9  2  0  0  0  0
  9 10  1  0  0  0  0
  9 11  1  0  0  0  0
M  CHG  2   1   1   8   1
M  END
>  <CHROM.1>
-60.05448296,17.30049774,-174.60315130,134.24397482,148.40239855,131.45443413
-10.94210760,7.38373799,2.14391097,1.60434006,0.62487889,0.97164096

>  <Name>


>  <RI>
224

>  <Rbt.Current_Directory>
/home/itssahil/PROJECTS/Mol_Feturizer/New_Systems/rnas/1aju

>  <Rbt.Executable>
rbdock ($Id: //depot/dev/client3/rdock/2013.1/src/exe/rbdock.cxx#4 $)

>  <Rbt.Library>
libRbt.so (2013.1, Build901 2013/11/27)

>  <Rbt.Parameter_File>
/export/apps/rDock/src/rDock_2013.1_src/data/scripts/dock_solv.prm

>  <Rbt.Receptor>
prm/blind_docking_20.prm

>  <SCORE>
-19.1106

>  <SCORE.INTER>
-20.9237

>  <SCORE.INTER.CONST>
1

>  <SCORE.INTER.POLAR>
-4.47808

>  <SCORE.INTER.ROT>
5

>  <SCORE.INTER.SOLV>
15.2561

>  <SCORE.INTER.VDW>
-11.0409

>  <SCORE.INTER.norm>
-1.90216

>  <SCORE.INTRA>
1.81316

>  <SCORE.INTRA.DIHEDRAL>
2.00948

>  <SCORE.INTRA.DIHEDRAL.0>
9.90185

>  <SCORE.INTRA.POLAR>
0

>  <SCORE.INTRA.POLAR.0>
0

>  <SCORE.INTRA.REPUL>
0

>  <SCORE.INTRA.REPUL.0>
0

>  <SCORE.INTRA.SOLV>
1.08021

>  <SCORE.INTRA.SOLV.lig_0>
-53.6586

>  <SCORE.INTRA.VDW>
0.268314

>  <SCORE.INTRA.VDW.0>
-0.556525

>  <SCORE.INTRA.norm>
0.164833

>  <SCORE.RESTR>
0

>  <SCORE.RESTR.CAVITY>
0

>  <SCORE.RESTR.norm>
0

>  <SCORE.SYSTEM>
0

>  <SCORE.SYSTEM.CONST>
0

>  <SCORE.SYSTEM.DIHEDRAL>
0

>  <SCORE.SYSTEM.SOLV>
0

>  <SCORE.SYSTEM.norm>
0

>  <SCORE.heavy>
11

>  <SCORE.norm>
-1.73732

>  <RMSD>
14.542

$$$$

 OpenBabel11021811383D
libRbt.so/2013.1/901 2013/11/27
 11 10  0  0  0  0  0  0  0  0999 V2000
  -11.8969    6.9020   -7.3774 N   0  3  0  0  0  0  0  0  0  0  0  0
  -11.8999    5.4384   -7.6763 C   0  0  2  0  0  0  0  0  0  0  0  0
  -11.6484    4.6438   -6.3835 C   0  0  0  0  0  0  0  0  0  0  0  0
  -12.5516    4.4412   -5.5940 O   0  0  0  0  0  0  0  0  0  0  0  0
  -10.8018    5.1281   -8.7023 C   0  0  0  0  0  0  0  0  0  0  0  0
  -11.0766    3.7697   -9.3536 C   0  0  0  0  0  0  0  0  0  0  0  0
  -10.5264    3.7662  -10.7784 C   0  0  0  0  0  0  0  0  0  0  0  0
   -9.1586    3.1789  -10.7710 N   0  3  0  0  0  0  0  0  0  0  0  0
   -8.1145    3.9517  -10.6468 C   0  0  0  0  0  0  0  0  0  0  0  0
   -7.3353    3.8284   -9.6036 N   0  0  0  0  0  0  0  0  0  0  0  0
   -7.8465    4.8409  -11.5678 N   0  0  0  0  0  0  0  0  0  0  0  0
  2  1  1  1  0  0  0
  2  3  1  0  0  0  0
  2  5  1  0  0  0  0
  3  4  2  0  0  0  0
  5  6  1  0  0  0  0
  6  7  1  0  0  0  0
  7  8  1  0  0  0  0
  8  9  2  0  0  0  0
  9 10  1  0  0  0  0
  9 11  1  0  0  0  0
M  CHG  2   1   1   8   1
M  END
>  <CHROM.1>
63.73816811,80.23270295,-161.61262212,150.12099251,94.74283068,-92.37252864
-10.24744478,4.57014978,-8.93299335,-2.92826575,-0.82897540,3.11869625

>  <Name>


>  <RI>
0

>  <Rbt.Current_Directory>
/home/itssahil/PROJECTS/Mol_Feturizer/New_Systems/rnas/1aju

>  <Rbt.Executable>
rbdock ($Id: //depot/dev/client3/rdock/2013.1/src/exe/rbdock.cxx#4 $)

>  <Rbt.Library>
libRbt.so (2013.1, Build901 2013/11/27)

>  <Rbt.Parameter_File>
/export/apps/rDock/src/rDock_2013.1_src/data/scripts/dock_solv.prm

>  <Rbt.Receptor>
prm/blind_docking_40.prm

>  <SCORE>
-28.1878

>  <SCORE.INTER>
-30.1882

>  <SCORE.INTER.CONST>
1

>  <SCORE.INTER.POLAR>
-5.67946

>  <SCORE.INTER.ROT>
5

>  <SCORE.INTER.SOLV>
25.08

>  <SCORE.INTER.VDW>
-16.4873

>  <SCORE.INTER.norm>
-2.74439

>  <SCORE.INTRA>
1.18275

>  <SCORE.INTRA.DIHEDRAL>
2.74421

>  <SCORE.INTRA.DIHEDRAL.0>
9.90185

>  <SCORE.INTRA.POLAR>
0

>  <SCORE.INTRA.POLAR.0>
0

>  <SCORE.INTRA.REPUL>
0

>  <SCORE.INTRA.REPUL.0>
0

>  <SCORE.INTRA.SOLV>
0.831599

>  <SCORE.INTRA.SOLV.lig_0>
-53.6586

>  <SCORE.INTRA.VDW>
-0.605154

>  <SCORE.INTRA.VDW.0>
-0.556525

>  <SCORE.INTRA.norm>
0.107523

>  <SCORE.RESTR>
0.817659

>  <SCORE.RESTR.CAVITY>
0.817659

>  <SCORE.RESTR.norm>
0.0743327

>  <SCORE.SYSTEM>
0

>  <SCORE.SYSTEM.CONST>
0

>  <SCORE.SYSTEM.DIHEDRAL>
0

>  <SCORE.SYSTEM.SOLV>
0

>  <SCORE.SYSTEM.norm>
0

>  <SCORE.heavy>
11

>  <SCORE.norm>
-2.56253

>  <RMSD>
14.619

$$$$

 OpenBabel11021811383D
libRbt.so/2013.1/901 2013/11/27
 11 10  0  0  0  0  0  0  0  0999 V2000
  -11.6429    9.5450    5.1047 N   0  3  0  0  0  0  0  0  0  0  0  0
  -10.4152    9.2669    4.3004 C   0  0  2  0  0  0  0  0  0  0  0  0
   -9.4496   10.4602    4.3969 C   0  0  0  0  0  0  0  0  0  0  0  0
   -9.5453   11.2639    5.3054 O   0  0  0  0  0  0  0  0  0  0  0  0
  -10.8106    9.0318    2.8364 C   0  0  0  0  0  0  0  0  0  0  0  0
  -10.8065    7.5299    2.5381 C   0  0  0  0  0  0  0  0  0  0  0  0
  -10.4233    7.3005    1.0776 C   0  0  0  0  0  0  0  0  0  0  0  0
  -10.1300    5.8557    0.8719 N   0  3  0  0  0  0  0  0  0  0  0  0
  -10.6590    5.2167   -0.1354 C   0  0  0  0  0  0  0  0  0  0  0  0
   -9.8867    4.7123   -1.0626 N   0  0  0  0  0  0  0  0  0  0  0  0
  -11.9572    5.0765   -0.2111 N   0  0  0  0  0  0  0  0  0  0  0  0
  2  1  1  1  0  0  0
  2  3  1  0  0  0  0
  2  5  1  0  0  0  0
  3  4  2  0  0  0  0
  5  6  1  0  0  0  0
  6  7  1  0  0  0  0
  7  8  1  0  0  0  0
  8  9  2  0  0  0  0
  9 10  1  0  0  0  0
  9 11  1  0  0  0  0
M  CHG  2   1   1   8   1
M  END
>  <CHROM.1>
-62.31424247,19.78641105,-101.60655402,-148.68757925,167.67735237,131.89512733
-10.54695711,7.74531973,2.29080889,1.51305137,0.33651322,0.80403800

>  <Name>


>  <RI>
0

>  <Rbt.Current_Directory>
/home/itssahil/PROJECTS/Mol_Feturizer/New_Systems/rnas/1aju

>  <Rbt.Executable>
rbdock ($Id: //depot/dev/client3/rdock/2013.1/src/exe/rbdock.cxx#4 $)

>  <Rbt.Library>
libRbt.so (2013.1, Build901 2013/11/27)

>  <Rbt.Parameter_File>
/export/apps/rDock/src/rDock_2013.1_src/data/scripts/dock_solv.prm

>  <Rbt.Receptor>
prm/blind_docking_60.prm

>  <SCORE>
-20.7764

>  <SCORE.INTER>
-21.9152

>  <SCORE.INTER.CONST>
1

>  <SCORE.INTER.POLAR>
-3.83049

>  <SCORE.INTER.ROT>
5

>  <SCORE.INTER.SOLV>
16.7449

>  <SCORE.INTER.VDW>
-14.3568

>  <SCORE.INTER.norm>
-1.99229

>  <SCORE.INTRA>
1.09588

>  <SCORE.INTRA.DIHEDRAL>
1.62071

>  <SCORE.INTRA.DIHEDRAL.0>
9.90185

>  <SCORE.INTRA.POLAR>
0

>  <SCORE.INTRA.POLAR.0>
0

>  <SCORE.INTRA.REPUL>
0

>  <SCORE.INTRA.REPUL.0>
0

>  <SCORE.INTRA.SOLV>
1.51173

>  <SCORE.INTRA.SOLV.lig_0>
-53.6586

>  <SCORE.INTRA.VDW>
-0.470342

>  <SCORE.INTRA.VDW.0>
-0.556525

>  <SCORE.INTRA.norm>
0.0996255

>  <SCORE.RESTR>
0.0428954

>  <SCORE.RESTR.CAVITY>
0.0428954

>  <SCORE.RESTR.norm>
0.00389958

>  <SCORE.SYSTEM>
0

>  <SCORE.SYSTEM.CONST>
0

>  <SCORE.SYSTEM.DIHEDRAL>
0

>  <SCORE.SYSTEM.SOLV>
0

>  <SCORE.SYSTEM.norm>
0

>  <SCORE.heavy>
11

>  <SCORE.norm>
-1.88877

>  <RMSD>
14.638

$$$$

 OpenBabel11021811383D
libRbt.so/2013.1/901 2013/11/27
 11 10  0  0  0  0  0  0  0  0999 V2000
  -12.6521    9.4329    4.0322 N   0  3  0  0  0  0  0  0  0  0  0  0
  -11.2616    8.9030    3.9009 C   0  0  2  0  0  0  0  0  0  0  0  0
  -10.2667    9.8947    4.5274 C   0  0  0  0  0  0  0  0  0  0  0  0
   -9.7863    9.6819    5.6248 O   0  0  0  0  0  0  0  0  0  0  0  0
  -10.9336    8.7021    2.4154 C   0  0  0  0  0  0  0  0  0  0  0  0
  -11.8267    7.6010    1.8366 C   0  0  0  0  0  0  0  0  0  0  0  0
  -11.1375    6.2476    1.9974 C   0  0  0  0  0  0  0  0  0  0  0  0
  -10.3993    5.9250    0.7456 N   0  3  0  0  0  0  0  0  0  0  0  0
  -10.9661    5.2025   -0.1814 C   0  0  0  0  0  0  0  0  0  0  0  0
  -11.1898    5.7193   -1.3620 N   0  0  0  0  0  0  0  0  0  0  0  0
  -11.3018    3.9636    0.0697 N   0  0  0  0  0  0  0  0  0  0  0  0
  2  1  1  6  0  0  0
  2  3  1  0  0  0  0
  2  5  1  0  0  0  0
  3  4  2  0  0  0  0
  5  6  1  0  0  0  0
  6  7  1  0  0  0  0
  7  8  1  0  0  0  0
  8  9  2  0  0  0  0
  9 10  1  0  0  0  0
  9 11  1  0  0  0  0
M  CHG  2   1   1   8   1
M  END
>  <CHROM.1>
170.63207538,102.70630587,-65.73369987,-89.90054266,-94.83558640,-93.89717046
-11.08800098,7.38579805,2.14457391,1.53405203,-0.49249476,0.80919856

>  <Name>


>  <RI>
0

>  <Rbt.Current_Directory>
/home/itssahil/PROJECTS/Mol_Feturizer/New_Systems/rnas/1aju

>  <Rbt.Executable>
rbdock ($Id: //depot/dev/client3/rdock/2013.1/src/exe/rbdock.cxx#4 $)

>  <Rbt.Library>
libRbt.so (2013.1, Build901 2013/11/27)

>  <Rbt.Parameter_File>
/export/apps/rDock/src/rDock_2013.1_src/data/scripts/dock_solv.prm

>  <Rbt.Receptor>
prm/blind_docking_60.prm

>  <SCORE>
-16.4761

>  <SCORE.INTER>
-17.4989

>  <SCORE.INTER.CONST>
1

>  <SCORE.INTER.POLAR>
-3.03443

>  <SCORE.INTER.ROT>
5

>  <SCORE.INTER.SOLV>
17.1759

>  <SCORE.INTER.VDW>
-14.2098

>  <SCORE.INTER.norm>
-1.59081

>  <SCORE.INTRA>
1.02286

>  <SCORE.INTRA.DIHEDRAL>
0.431321

>  <SCORE.INTRA.DIHEDRAL.0>
9.90185

>  <SCORE.INTRA.POLAR>
0

>  <SCORE.INTRA.POLAR.0>
0

>  <SCORE.INTRA.REPUL>
0

>  <SCORE.INTRA.REPUL.0>
0

>  <SCORE.INTRA.SOLV>
1.78857

>  <SCORE.INTRA.SOLV.lig_0>
-53.6586

>  <SCORE.INTRA.VDW>
-0.0870892

>  <SCORE.INTRA.VDW.0>
-0.556525

>  <SCORE.INTRA.norm>
0.092987

>  <SCORE.RESTR>
0

>  <SCORE.RESTR.CAVITY>
0

>  <SCORE.RESTR.norm>
0

>  <SCORE.SYSTEM>
0

>  <SCORE.SYSTEM.CONST>
0

>  <SCORE.SYSTEM.DIHEDRAL>
0

>  <SCORE.SYSTEM.SOLV>
0

>  <SCORE.SYSTEM.norm>
0

>  <SCORE.heavy>
11

>  <SCORE.norm>
-1.49782

>  <RMSD>
14.639

$$$$

 OpenBabel11021811383D
libRbt.so/2013.1/901 2013/11/27
 11 10  0  0  0  0  0  0  0  0999 V2000
  -11.0186    4.7874   -8.1907 N   0  3  0  0  0  0  0  0  0  0  0  0
  -12.1681    5.1379   -7.3034 C   0  0  2  0  0  0  0  0  0  0  0  0
  -12.7293    6.5141   -7.6998 C   0  0  0  0  0  0  0  0  0  0  0  0
  -12.3755    7.5205   -7.1148 O   0  0  0  0  0  0  0  0  0  0  0  0
  -11.6920    5.1682   -5.8449 C   0  0  0  0  0  0  0  0  0  0  0  0
  -12.8788    5.4636   -4.9233 C   0  0  0  0  0  0  0  0  0  0  0  0
  -12.5425    5.0217   -3.5006 C   0  0  0  0  0  0  0  0  0  0  0  0
  -11.5240    5.9460   -2.9312 N   0  3  0  0  0  0  0  0  0  0  0  0
  -10.5460    5.4767   -2.2060 C   0  0  0  0  0  0  0  0  0  0  0  0
   -9.3112    5.6088   -2.6167 N   0  0  0  0  0  0  0  0  0  0  0  0
  -10.8022    4.8828   -1.0692 N   0  0  0  0  0  0  0  0  0  0  0  0
  2  1  1  6  0  0  0
  2  3  1  0  0  0  0
  2  5  1  0  0  0  0
  3  4  2  0  0  0  0
  5  6  1  0  0  0  0
  6  7  1  0  0  0  0
  7  8  1  0  0  0  0
  8  9  2  0  0  0  0
  9 10  1  0  0  0  0
  9 11  1  0  0  0  0
M  CHG  2   1   1   8   1
M  END
>  <CHROM.1>
-172.03114671,-95.94260285,-177.41404955,160.29343003,71.01896307,-139.61719821
-11.55191301,5.59646863,-4.85962224,-1.84028154,-0.41643373,1.56374930

>  <Name>


>  <RI>
0

>  <Rbt.Current_Directory>
/home/itssahil/PROJECTS/Mol_Feturizer/New_Systems/rnas/1aju

>  <Rbt.Executable>
rbdock ($Id: //depot/dev/client3/rdock/2013.1/src/exe/rbdock.cxx#4 $)

>  <Rbt.Library>
libRbt.so (2013.1, Build901 2013/11/27)

>  <Rbt.Parameter_File>
/export/apps/rDock/src/rDock_2013.1_src/data/scripts/dock_solv.prm

>  <Rbt.Receptor>
prm/blind_docking_40.prm

>  <SCORE>
-20.9633

>  <SCORE.INTER>
-20.7215

>  <SCORE.INTER.CONST>
1

>  <SCORE.INTER.POLAR>
-3.81677

>  <SCORE.INTER.ROT>
5

>  <SCORE.INTER.SOLV>
22.0011

>  <SCORE.INTER.VDW>
-15.3588

>  <SCORE.INTER.norm>
-1.88377

>  <SCORE.INTRA>
-0.520623

>  <SCORE.INTRA.DIHEDRAL>
-3.92125

>  <SCORE.INTRA.DIHEDRAL.0>
9.90185

>  <SCORE.INTRA.POLAR>
0

>  <SCORE.INTRA.POLAR.0>
0

>  <SCORE.INTRA.REPUL>
0

>  <SCORE.INTRA.REPUL.0>
0

>  <SCORE.INTRA.SOLV>
0.818102

>  <SCORE.INTRA.SOLV.lig_0>
-53.6586

>  <SCORE.INTRA.VDW>
1.03095

>  <SCORE.INTRA.VDW.0>
-0.556525

>  <SCORE.INTRA.norm>
-0.0473293

>  <SCORE.RESTR>
0.278762

>  <SCORE.RESTR.CAVITY>
0.278762

>  <SCORE.RESTR.norm>
0.025342

>  <SCORE.SYSTEM>
0

>  <SCORE.SYSTEM.CONST>
0

>  <SCORE.SYSTEM.DIHEDRAL>
0

>  <SCORE.SYSTEM.SOLV>
0

>  <SCORE.SYSTEM.norm>
0

>  <SCORE.heavy>
11

>  <SCORE.norm>
-1.90576

>  <RMSD>
14.645

$$$$

 OpenBabel11021811383D
libRbt.so/2013.1/901 2013/11/27
 11 10  0  0  0  0  0  0  0  0999 V2000
  -11.6433    4.6243   -7.0395 N   0  3  0  0  0  0  0  0  0  0  0  0
  -12.6095    5.6895   -6.6352 C   0  0  2  0  0  0  0  0  0  0  0  0
  -12.3658    6.9566   -7.4722 C   0  0  0  0  0  0  0  0  0  0  0  0
  -11.6022    6.9373   -8.4193 O   0  0  0  0  0  0  0  0  0  0  0  0
  -12.4232    6.0039   -5.1448 C   0  0  0  0  0  0  0  0  0  0  0  0
  -12.7103    4.7491   -4.3154 C   0  0  0  0  0  0  0  0  0  0  0  0
  -12.9660    5.1450   -2.8626 C   0  0  0  0  0  0  0  0  0  0  0  0
  -11.8086    5.9361   -2.3623 N   0  3  0  0  0  0  0  0  0  0  0  0
  -10.8510    5.3483   -1.6987 C   0  0  0  0  0  0  0  0  0  0  0  0
   -9.6379    5.3309   -2.1872 N   0  0  0  0  0  0  0  0  0  0  0  0
  -11.1051    4.7855   -0.5458 N   0  0  0  0  0  0  0  0  0  0  0  0
  2  1  1  6  0  0  0
  2  3  1  0  0  0  0
  2  5  1  0  0  0  0
  3  4  2  0  0  0  0
  5  6  1  0  0  0  0
  6  7  1  0  0  0  0
  7  8  1  0  0  0  0
  8  9  2  0  0  0  0
  9 10  1  0  0  0  0
  9 11  1  0  0  0  0
M  CHG  2   1   1   8   1
M  END
>  <CHROM.1>
60.93612276,8.82316032,-61.28026726,-162.01292217,-55.17304592,-95.60105180
-11.74646892,5.57130528,-4.43590992,-1.73192822,0.18082070,1.76706347

>  <Name>


>  <RI>
0

>  <Rbt.Current_Directory>
/home/itssahil/PROJECTS/Mol_Feturizer/New_Systems/rnas/1aju

>  <Rbt.Executable>
rbdock ($Id: //depot/dev/client3/rdock/2013.1/src/exe/rbdock.cxx#4 $)

>  <Rbt.Library>
libRbt.so (2013.1, Build901 2013/11/27)

>  <Rbt.Parameter_File>
/export/apps/rDock/src/rDock_2013.1_src/data/scripts/dock_solv.prm

>  <Rbt.Receptor>
prm/blind_docking_40.prm

>  <SCORE>
-21.4863

>  <SCORE.INTER>
-20.6718

>  <SCORE.INTER.CONST>
1

>  <SCORE.INTER.POLAR>
-4.10388

>  <SCORE.INTER.ROT>
5

>  <SCORE.INTER.SOLV>
20.686

>  <SCORE.INTER.VDW>
-13.9303

>  <SCORE.INTER.norm>
-1.87926

>  <SCORE.INTRA>
-0.938792

>  <SCORE.INTRA.DIHEDRAL>
-5.40015

>  <SCORE.INTRA.DIHEDRAL.0>
9.90185

>  <SCORE.INTRA.POLAR>
0

>  <SCORE.INTRA.POLAR.0>
0

>  <SCORE.INTRA.REPUL>
0

>  <SCORE.INTRA.REPUL.0>
0

>  <SCORE.INTRA.SOLV>
2.93508

>  <SCORE.INTRA.SOLV.lig_0>
-53.6586

>  <SCORE.INTRA.VDW>
0.293745

>  <SCORE.INTRA.VDW.0>
-0.556525

>  <SCORE.INTRA.norm>
-0.0853448

>  <SCORE.RESTR>
0.124315

>  <SCORE.RESTR.CAVITY>
0.124315

>  <SCORE.RESTR.norm>
0.0113014

>  <SCORE.SYSTEM>
0

>  <SCORE.SYSTEM.CONST>
0

>  <SCORE.SYSTEM.DIHEDRAL>
0

>  <SCORE.SYSTEM.SOLV>
0

>  <SCORE.SYSTEM.norm>
0

>  <SCORE.heavy>
11

>  <SCORE.norm>
-1.9533

>  <RMSD>
14.646

$$$$

 OpenBabel11021811383D
libRbt.so/2013.1/901 2013/11/27
 11 10  0  0  0  0  0  0  0  0999 V2000
   -9.5781    5.4885   -1.8227 N   0  3  0  0  0  0  0  0  0  0  0  0
  -10.1659    5.4216   -0.4510 C   0  0  2  0  0  0  0  0  0  0  0  0
  -11.5267    4.7067   -0.5035 C   0  0  0  0  0  0  0  0  0  0  0  0
  -12.1242    4.5863   -1.5564 O   0  0  0  0  0  0  0  0  0  0  0  0
  -10.3441    6.8449    0.0944 C   0  0  0  0  0  0  0  0  0  0  0  0
  -10.6249    6.7871    1.5986 C   0  0  0  0  0  0  0  0  0  0  0  0
  -10.7541    8.2060    2.1486 C   0  0  0  0  0  0  0  0  0  0  0  0
  -10.9208    8.1423    3.6265 N   0  3  0  0  0  0  0  0  0  0  0  0
  -11.2590    9.2111    4.2942 C   0  0  0  0  0  0  0  0  0  0  0  0
  -12.3944    9.2398    4.9428 N   0  0  0  0  0  0  0  0  0  0  0  0
  -10.4598   10.2462    4.3190 N   0  0  0  0  0  0  0  0  0  0  0  0
  2  1  1  6  0  0  0
  2  3  1  0  0  0  0
  2  5  1  0  0  0  0
  3  4  2  0  0  0  0
  5  6  1  0  0  0  0
  6  7  1  0  0  0  0
  7  8  1  0  0  0  0
  8  9  2  0  0  0  0
  9 10  1  0  0  0  0
  9 11  1  0  0  0  0
M  CHG  2   1   1   8   1
M  END
>  <CHROM.1>
-94.34164447,-18.18040185,-166.62197854,178.06023495,-175.62875376,-169.26808569
-10.91993829,7.17849756,1.49782079,-1.49107271,0.47990719,0.88337837

>  <Name>


>  <RI>
0

>  <Rbt.Current_Directory>
/home/itssahil/PROJECTS/Mol_Feturizer/New_Systems/rnas/1aju

>  <Rbt.Executable>
rbdock ($Id: //depot/dev/client3/rdock/2013.1/src/exe/rbdock.cxx#4 $)

>  <Rbt.Library>
libRbt.so (2013.1, Build901 2013/11/27)

>  <Rbt.Parameter_File>
/export/apps/rDock/src/rDock_2013.1_src/data/scripts/dock_solv.prm

>  <Rbt.Receptor>
prm/blind_docking_80.prm

>  <SCORE>
-17.7569

>  <SCORE.INTER>
-17.3221

>  <SCORE.INTER.CONST>
1

>  <SCORE.INTER.POLAR>
-2.64575

>  <SCORE.INTER.ROT>
5

>  <SCORE.INTER.SOLV>
21.235

>  <SCORE.INTER.VDW>
-16.7406

>  <SCORE.INTER.norm>
-1.57474

>  <SCORE.INTRA>
-0.436416

>  <SCORE.INTRA.DIHEDRAL>
-3.51794

>  <SCORE.INTRA.DIHEDRAL.0>
9.90185

>  <SCORE.INTRA.POLAR>
0

>  <SCORE.INTRA.POLAR.0>
0

>  <SCORE.INTRA.REPUL>
0

>  <SCORE.INTRA.REPUL.0>
0

>  <SCORE.INTRA.SOLV>
0.892314

>  <SCORE.INTRA.SOLV.lig_0>
-53.6586

>  <SCORE.INTRA.VDW>
0.876398

>  <SCORE.INTRA.VDW.0>
-0.556525

>  <SCORE.INTRA.norm>
-0.0396742

>  <SCORE.RESTR>
0.00161937

>  <SCORE.RESTR.CAVITY>
0.00161937

>  <SCORE.RESTR.norm>
0.000147216

>  <SCORE.SYSTEM>
0

>  <SCORE.SYSTEM.CONST>
0

>  <SCORE.SYSTEM.DIHEDRAL>
0

>  <SCORE.SYSTEM.SOLV>
0

>  <SCORE.SYSTEM.norm>
0

>  <SCORE.heavy>
11

>  <SCORE.norm>
-1.61427

>  <RMSD>
14.662

$$$$

 OpenBabel11021811383D
libRbt.so/2013.1/901 2013/11/27
 11 10  0  0  0  0  0  0  0  0999 V2000
  -10.5929    9.6967    4.6974 N   0  3  0  0  0  0  0  0  0  0  0  0
  -11.4601    8.7055    3.9922 C   0  0  2  0  0  0  0  0  0  0  0  0
  -11.5252    7.4014    4.8052 C   0  0  0  0  0  0  0  0  0  0  0  0
  -12.5848    6.9968    5.2455 O   0  0  0  0  0  0  0  0  0  0  0  0
  -10.8802    8.4246    2.5995 C   0  0  0  0  0  0  0  0  0  0  0  0
  -12.0216    8.2004    1.6036 C   0  0  0  0  0  0  0  0  0  0  0  0
  -12.5537    6.7763    1.7492 C   0  0  0  0  0  0  0  0  0  0  0  0
  -11.5365    5.8208    1.2314 N   0  3  0  0  0  0  0  0  0  0  0  0
  -11.2548    5.7904   -0.0424 C   0  0  0  0  0  0  0  0  0  0  0  0
  -10.0494    6.0946   -0.4487 N   0  0  0  0  0  0  0  0  0  0  0  0
  -12.1750    5.4495   -0.9071 N   0  0  0  0  0  0  0  0  0  0  0  0
  2  1  1  1  0  0  0
  2  3  1  0  0  0  0
  2  5  1  0  0  0  0
  3  4  2  0  0  0  0
  5  6  1  0  0  0  0
  6  7  1  0  0  0  0
  7  8  1  0  0  0  0
  8  9  2  0  0  0  0
  9 10  1  0  0  0  0
  9 11  1  0  0  0  0
M  CHG  2   1   1   8   1
M  END
>  <CHROM.1>
-47.73670728,118.24737502,-144.73323923,-79.64397184,-70.41625715,-67.64423783
-11.49369591,7.22129653,2.23663853,-1.58580183,-0.85743284,-2.07402039

>  <Name>


>  <RI>
0

>  <Rbt.Current_Directory>
/home/itssahil/PROJECTS/Mol_Feturizer/New_Systems/rnas/1aju

>  <Rbt.Executable>
rbdock ($Id: //depot/dev/client3/rdock/2013.1/src/exe/rbdock.cxx#4 $)

>  <Rbt.Library>
libRbt.so (2013.1, Build901 2013/11/27)

>  <Rbt.Parameter_File>
/export/apps/rDock/src/rDock_2013.1_src/data/scripts/dock_solv.prm

>  <Rbt.Receptor>
prm/blind_docking_100.prm

>  <SCORE>
-16.9121

>  <SCORE.INTER>
-16.9705

>  <SCORE.INTER.CONST>
1

>  <SCORE.INTER.POLAR>
-3.42817

>  <SCORE.INTER.ROT>
5

>  <SCORE.INTER.SOLV>
14.2804

>  <SCORE.INTER.VDW>
-11.5799

>  <SCORE.INTER.norm>
-1.54277

>  <SCORE.INTRA>
-0.450925

>  <SCORE.INTRA.DIHEDRAL>
-1.41598

>  <SCORE.INTRA.DIHEDRAL.0>
9.90185

>  <SCORE.INTRA.POLAR>
0

>  <SCORE.INTRA.POLAR.0>
0

>  <SCORE.INTRA.REPUL>
0

>  <SCORE.INTRA.REPUL.0>
0

>  <SCORE.INTRA.SOLV>
1.21813

>  <SCORE.INTRA.SOLV.lig_0>
-53.6586

>  <SCORE.INTRA.VDW>
-0.351999

>  <SCORE.INTRA.VDW.0>
-0.556525

>  <SCORE.INTRA.norm>
-0.0409932

>  <SCORE.RESTR>
0.509322

>  <SCORE.RESTR.CAVITY>
0.509322

>  <SCORE.RESTR.norm>
0.046302

>  <SCORE.SYSTEM>
0

>  <SCORE.SYSTEM.CONST>
0

>  <SCORE.SYSTEM.DIHEDRAL>
0

>  <SCORE.SYSTEM.SOLV>
0

>  <SCORE.SYSTEM.norm>
0

>  <SCORE.heavy>
11

>  <SCORE.norm>
-1.53746

>  <RMSD>
14.670

$$$$

 OpenBabel11021811383D
libRbt.so/2013.1/901 2013/11/27
 11 10  0  0  0  0  0  0  0  0999 V2000
  -12.9537    9.5724    3.8513 N   0  3  0  0  0  0  0  0  0  0  0  0
  -11.7171    8.8481    4.2732 C   0  0  2  0  0  0  0  0  0  0  0  0
  -10.4755    9.6591    3.8652 C   0  0  0  0  0  0  0  0  0  0  0  0
   -9.6916   10.0586    4.7055 O   0  0  0  0  0  0  0  0  0  0  0  0
  -11.6837    7.4684    3.6023 C   0  0  0  0  0  0  0  0  0  0  0  0
  -11.4879    7.6359    2.0929 C   0  0  0  0  0  0  0  0  0  0  0  0
  -11.4465    6.2616    1.4279 C   0  0  0  0  0  0  0  0  0  0  0  0
  -11.3273    6.4368   -0.0456 N   0  3  0  0  0  0  0  0  0  0  0  0
  -10.7061    5.5416   -0.7635 C   0  0  0  0  0  0  0  0  0  0  0  0
  -11.3620    4.8699   -1.6742 N   0  0  0  0  0  0  0  0  0  0  0  0
   -9.4302    5.3240   -0.5758 N   0  0  0  0  0  0  0  0  0  0  0  0
  2  1  1  6  0  0  0
  2  3  1  0  0  0  0
  2  5  1  0  0  0  0
  3  4  2  0  0  0  0
  5  6  1  0  0  0  0
  6  7  1  0  0  0  0
  7  8  1  0  0  0  0
  8  9  2  0  0  0  0
  9 10  1  0  0  0  0
  9 11  1  0  0  0  0
M  CHG  2   1   1   8   1
M  END
>  <CHROM.1>
-161.84421430,119.35917030,67.76616589,179.66452257,177.08158851,149.68675894
-11.12714350,7.43828814,1.86955700,1.64792302,0.03575822,0.89001190

>  <Name>


>  <RI>
0

>  <Rbt.Current_Directory>
/home/itssahil/PROJECTS/Mol_Feturizer/New_Systems/rnas/1aju

>  <Rbt.Executable>
rbdock ($Id: //depot/dev/client3/rdock/2013.1/src/exe/rbdock.cxx#4 $)

>  <Rbt.Library>
libRbt.so (2013.1, Build901 2013/11/27)

>  <Rbt.Parameter_File>
/export/apps/rDock/src/rDock_2013.1_src/data/scripts/dock_solv.prm

>  <Rbt.Receptor>
prm/blind_docking_60.prm

>  <SCORE>
-25.2681

>  <SCORE.INTER>
-24.494

>  <SCORE.INTER.CONST>
1

>  <SCORE.INTER.POLAR>
-5.41768

>  <SCORE.INTER.ROT>
5

>  <SCORE.INTER.SOLV>
19.9708

>  <SCORE.INTER.VDW>
-11.8607

>  <SCORE.INTER.norm>
-2.22673

>  <SCORE.INTRA>
-0.774079

>  <SCORE.INTRA.DIHEDRAL>
-5.89995

>  <SCORE.INTRA.DIHEDRAL.0>
9.90185

>  <SCORE.INTRA.POLAR>
0

>  <SCORE.INTRA.POLAR.0>
0

>  <SCORE.INTRA.REPUL>
0

>  <SCORE.INTRA.REPUL.0>
0

>  <SCORE.INTRA.SOLV>
1.24201

>  <SCORE.INTRA.SOLV.lig_0>
-53.6586

>  <SCORE.INTRA.VDW>
1.55489

>  <SCORE.INTRA.VDW.0>
-0.556525

>  <SCORE.INTRA.norm>
-0.0703708

>  <SCORE.RESTR>
0

>  <SCORE.RESTR.CAVITY>
0

>  <SCORE.RESTR.norm>
0

>  <SCORE.SYSTEM>
0

>  <SCORE.SYSTEM.CONST>
0

>  <SCORE.SYSTEM.DIHEDRAL>
0

>  <SCORE.SYSTEM.SOLV>
0

>  <SCORE.SYSTEM.norm>
0

>  <SCORE.heavy>
11

>  <SCORE.norm>
-2.2971

>  <RMSD>
14.672

$$$$

 OpenBabel11021811383D
libRbt.so/2013.1/901 2013/11/27
 11 10  0  0  0  0  0  0  0  0999 V2000
  -10.4629    9.6618    4.0468 N   0  3  0  0  0  0  0  0  0  0  0  0
  -11.6503    8.8014    4.3323 C   0  0  2  0  0  0  0  0  0  0  0  0
  -11.7978    8.6072    5.8509 C   0  0  0  0  0  0  0  0  0  0  0  0
  -12.8889    8.6856    6.3835 O   0  0  0  0  0  0  0  0  0  0  0  0
  -11.4671    7.4408    3.6469 C   0  0  0  0  0  0  0  0  0  0  0  0
  -11.5198    7.6201    2.1270 C   0  0  0  0  0  0  0  0  0  0  0  0
  -11.4243    6.2552    1.4484 C   0  0  0  0  0  0  0  0  0  0  0  0
  -11.3149    6.4495   -0.0234 N   0  3  0  0  0  0  0  0  0  0  0  0
  -10.7030    5.5612   -0.7578 C   0  0  0  0  0  0  0  0  0  0  0  0
  -11.3685    4.9047   -1.6726 N   0  0  0  0  0  0  0  0  0  0  0  0
   -9.4268    5.3355   -0.5823 N   0  0  0  0  0  0  0  0  0  0  0  0
  2  1  1  1  0  0  0
  2  3  1  0  0  0  0
  2  5  1  0  0  0  0
  3  4  2  0  0  0  0
  5  6  1  0  0  0  0
  6  7  1  0  0  0  0
  7  8  1  0  0  0  0
  8  9  2  0  0  0  0
  9 10  1  0  0  0  0
  9 11  1  0  0  0  0
M  CHG  2   1   1   8   1
M  END
>  <CHROM.1>
-76.71358609,136.48389370,-67.48161192,-176.51473442,-173.40166598,152.28107209
-11.25387959,7.22503683,2.23538276,-1.75682661,-0.53879555,-2.17293586

>  <Name>


>  <RI>
224

>  <Rbt.Current_Directory>
/home/itssahil/PROJECTS/Mol_Feturizer/New_Systems/rnas/1aju

>  <Rbt.Executable>
rbdock ($Id: //depot/dev/client3/rdock/2013.1/src/exe/rbdock.cxx#4 $)

>  <Rbt.Library>
libRbt.so (2013.1, Build901 2013/11/27)

>  <Rbt.Parameter_File>
/export/apps/rDock/src/rDock_2013.1_src/data/scripts/dock_solv.prm

>  <Rbt.Receptor>
prm/blind_docking_20.prm

>  <SCORE>
-25.5462

>  <SCORE.INTER>
-24.4244

>  <SCORE.INTER.CONST>
1

>  <SCORE.INTER.POLAR>
-5.86312

>  <SCORE.INTER.ROT>
5

>  <SCORE.INTER.SOLV>
20.9628

>  <SCORE.INTER.VDW>
-10.6601

>  <SCORE.INTER.norm>
-2.2204

>  <SCORE.INTRA>
-1.87878

>  <SCORE.INTRA.DIHEDRAL>
-5.36499

>  <SCORE.INTRA.DIHEDRAL.0>
9.90185

>  <SCORE.INTRA.POLAR>
0

>  <SCORE.INTRA.POLAR.0>
0

>  <SCORE.INTRA.REPUL>
0

>  <SCORE.INTRA.REPUL.0>
0

>  <SCORE.INTRA.SOLV>
1.03828

>  <SCORE.INTRA.SOLV.lig_0>
-53.6586

>  <SCORE.INTRA.VDW>
0.284576

>  <SCORE.INTRA.VDW.0>
-0.556525

>  <SCORE.INTRA.norm>
-0.170798

>  <SCORE.RESTR>
0.757032

>  <SCORE.RESTR.CAVITY>
0.757032

>  <SCORE.RESTR.norm>
0.0688211

>  <SCORE.SYSTEM>
0

>  <SCORE.SYSTEM.CONST>
0

>  <SCORE.SYSTEM.DIHEDRAL>
0

>  <SCORE.SYSTEM.SOLV>
0

>  <SCORE.SYSTEM.norm>
0

>  <SCORE.heavy>
11

>  <SCORE.norm>
-2.32238

>  <RMSD>
14.682

$$$$

 OpenBabel11021811383D
libRbt.so/2013.1/901 2013/11/27
 11 10  0  0  0  0  0  0  0  0999 V2000
  -11.7188    7.6217    4.8108 N   0  3  0  0  0  0  0  0  0  0  0  0
  -11.7552    8.7774    3.8650 C   0  0  2  0  0  0  0  0  0  0  0  0
  -12.9668    9.6702    4.1822 C   0  0  0  0  0  0  0  0  0  0  0  0
  -13.8070    9.9008    3.3330 O   0  0  0  0  0  0  0  0  0  0  0  0
  -11.8554    8.2525    2.4265 C   0  0  0  0  0  0  0  0  0  0  0  0
  -10.4527    7.9519    1.8906 C   0  0  0  0  0  0  0  0  0  0  0  0
  -10.5573    7.3847    0.4765 C   0  0  0  0  0  0  0  0  0  0  0  0
   -9.9352    6.0327    0.4466 N   0  3  0  0  0  0  0  0  0  0  0  0
  -10.4697    5.0813   -0.2688 C   0  0  0  0  0  0  0  0  0  0  0  0
   -9.8001    4.5638   -1.2661 N   0  0  0  0  0  0  0  0  0  0  0  0
  -11.6686    4.6436    0.0173 N   0  0  0  0  0  0  0  0  0  0  0  0
  2  1  1  1  0  0  0
  2  3  1  0  0  0  0
  2  5  1  0  0  0  0
  3  4  2  0  0  0  0
  5  6  1  0  0  0  0
  6  7  1  0  0  0  0
  7  8  1  0  0  0  0
  8  9  2  0  0  0  0
  9 10  1  0  0  0  0
  9 11  1  0  0  0  0
M  CHG  2   1   1   8   1
M  END
>  <CHROM.1>
-61.12019269,-122.35072387,-85.91026611,178.07972027,-121.00085873,141.79395177
-11.37061859,7.21927063,1.81857690,-2.08379850,0.74867400,-1.94778551

>  <Name>


>  <RI>
0

>  <Rbt.Current_Directory>
/home/itssahil/PROJECTS/Mol_Feturizer/New_Systems/rnas/1aju

>  <Rbt.Executable>
rbdock ($Id: //depot/dev/client3/rdock/2013.1/src/exe/rbdock.cxx#4 $)

>  <Rbt.Library>
libRbt.so (2013.1, Build901 2013/11/27)

>  <Rbt.Parameter_File>
/export/apps/rDock/src/rDock_2013.1_src/data/scripts/dock_solv.prm

>  <Rbt.Receptor>
prm/blind_docking_60.prm

>  <SCORE>
-18.0991

>  <SCORE.INTER>
-19.3913

>  <SCORE.INTER.CONST>
1

>  <SCORE.INTER.POLAR>
-3.38361

>  <SCORE.INTER.ROT>
5

>  <SCORE.INTER.SOLV>
18.2771

>  <SCORE.INTER.VDW>
-14.6745

>  <SCORE.INTER.norm>
-1.76284

>  <SCORE.INTRA>
1.28927

>  <SCORE.INTRA.DIHEDRAL>
0.652742

>  <SCORE.INTRA.DIHEDRAL.0>
9.90185

>  <SCORE.INTRA.POLAR>
0

>  <SCORE.INTRA.POLAR.0>
0

>  <SCORE.INTRA.REPUL>
0

>  <SCORE.INTRA.REPUL.0>
0

>  <SCORE.INTRA.SOLV>
1.12222

>  <SCORE.INTRA.SOLV.lig_0>
-53.6586

>  <SCORE.INTRA.VDW>
0.401792

>  <SCORE.INTRA.VDW.0>
-0.556525

>  <SCORE.INTRA.norm>
0.117207

>  <SCORE.RESTR>
0.00293121

>  <SCORE.RESTR.CAVITY>
0.00293121

>  <SCORE.RESTR.norm>
0.000266474

>  <SCORE.SYSTEM>
0

>  <SCORE.SYSTEM.CONST>
0

>  <SCORE.SYSTEM.DIHEDRAL>
0

>  <SCORE.SYSTEM.SOLV>
0

>  <SCORE.SYSTEM.norm>
0

>  <SCORE.heavy>
11

>  <SCORE.norm>
-1.64537

>  <RMSD>
14.777

$$$$

 OpenBabel11021811383D
libRbt.so/2013.1/901 2013/11/27
 11 10  0  0  0  0  0  0  0  0999 V2000
  -11.9569    9.7119    4.6446 N   0  3  0  0  0  0  0  0  0  0  0  0
  -12.0312    9.0189    3.3233 C   0  0  2  0  0  0  0  0  0  0  0  0
  -13.4801    8.5835    3.0460 C   0  0  0  0  0  0  0  0  0  0  0  0
  -14.0439    8.9197    2.0216 O   0  0  0  0  0  0  0  0  0  0  0  0
  -11.1112    7.7909    3.3423 C   0  0  0  0  0  0  0  0  0  0  0  0
  -10.6176    7.4969    1.9229 C   0  0  0  0  0  0  0  0  0  0  0  0
  -11.4821    6.4038    1.2981 C   0  0  0  0  0  0  0  0  0  0  0  0
  -11.3622    6.4755   -0.1840 N   0  3  0  0  0  0  0  0  0  0  0  0
  -10.7149    5.5478   -0.8345 C   0  0  0  0  0  0  0  0  0  0  0  0
  -11.3495    4.7949   -1.6955 N   0  0  0  0  0  0  0  0  0  0  0  0
   -9.4343    5.3785   -0.6294 N   0  0  0  0  0  0  0  0  0  0  0  0
  2  1  1  1  0  0  0
  2  3  1  0  0  0  0
  2  5  1  0  0  0  0
  3  4  2  0  0  0  0
  5  6  1  0  0  0  0
  6  7  1  0  0  0  0
  7  8  1  0  0  0  0
  8  9  2  0  0  0  0
  9 10  1  0  0  0  0
  9 11  1  0  0  0  0
M  CHG  2   1   1   8   1
M  END
>  <CHROM.1>
36.65972873,125.25874993,-151.59221981,-97.52325143,158.77831384,109.12378862
-11.59961518,7.29586037,1.47494373,-1.89314090,0.30117157,-2.16080892

>  <Name>


>  <RI>
224

>  <Rbt.Current_Directory>
/home/itssahil/PROJECTS/Mol_Feturizer/New_Systems/rnas/1aju

>  <Rbt.Executable>
rbdock ($Id: //depot/dev/client3/rdock/2013.1/src/exe/rbdock.cxx#4 $)

>  <Rbt.Library>
libRbt.so (2013.1, Build901 2013/11/27)

>  <Rbt.Parameter_File>
/export/apps/rDock/src/rDock_2013.1_src/data/scripts/dock_solv.prm

>  <Rbt.Receptor>
prm/blind_docking_20.prm

>  <SCORE>
-22.333

>  <SCORE.INTER>
-23.3103

>  <SCORE.INTER.CONST>
1

>  <SCORE.INTER.POLAR>
-5.56037

>  <SCORE.INTER.ROT>
5

>  <SCORE.INTER.SOLV>
17.9718

>  <SCORE.INTER.VDW>
-9.92955

>  <SCORE.INTER.norm>
-2.11912

>  <SCORE.INTRA>
0.977272

>  <SCORE.INTRA.DIHEDRAL>
2.38058

>  <SCORE.INTRA.DIHEDRAL.0>
9.90185

>  <SCORE.INTRA.POLAR>
0

>  <SCORE.INTRA.POLAR.0>
0

>  <SCORE.INTRA.REPUL>
0

>  <SCORE.INTRA.REPUL.0>
0

>  <SCORE.INTRA.SOLV>
0.373548

>  <SCORE.INTRA.SOLV.lig_0>
-53.6586

>  <SCORE.INTRA.VDW>
-0.399793

>  <SCORE.INTRA.VDW.0>
-0.556525

>  <SCORE.INTRA.norm>
0.0888429

>  <SCORE.RESTR>
0

>  <SCORE.RESTR.CAVITY>
0

>  <SCORE.RESTR.norm>
0

>  <SCORE.SYSTEM>
0

>  <SCORE.SYSTEM.CONST>
0

>  <SCORE.SYSTEM.DIHEDRAL>
0

>  <SCORE.SYSTEM.SOLV>
0

>  <SCORE.SYSTEM.norm>
0

>  <SCORE.heavy>
11

>  <SCORE.norm>
-2.03027

>  <RMSD>
14.841

$$$$

 OpenBabel11021811383D
libRbt.so/2013.1/901 2013/11/27
 11 10  0  0  0  0  0  0  0  0999 V2000
  -11.0973    9.3334    3.2039 N   0  3  0  0  0  0  0  0  0  0  0  0
  -12.1338    8.3804    3.7029 C   0  0  2  0  0  0  0  0  0  0  0  0
  -11.7767    7.9239    5.1276 C   0  0  0  0  0  0  0  0  0  0  0  0
  -12.5433    8.1188    6.0521 O   0  0  0  0  0  0  0  0  0  0  0  0
  -12.1994    7.1665    2.7663 C   0  0  0  0  0  0  0  0  0  0  0  0
  -12.7609    7.5957    1.4079 C   0  0  0  0  0  0  0  0  0  0  0  0
  -13.2375    6.3642    0.6404 C   0  0  0  0  0  0  0  0  0  0  0  0
  -12.1213    5.3833    0.5518 N   0  3  0  0  0  0  0  0  0  0  0  0
  -10.9446    5.7655    0.1370 C   0  0  0  0  0  0  0  0  0  0  0  0
   -9.9168    5.6939    0.9427 N   0  0  0  0  0  0  0  0  0  0  0  0
  -10.7952    6.2116   -1.0834 N   0  0  0  0  0  0  0  0  0  0  0  0
  2  1  1  6  0  0  0
  2  3  1  0  0  0  0
  2  5  1  0  0  0  0
  3  4  2  0  0  0  0
  5  6  1  0  0  0  0
  6  7  1  0  0  0  0
  7  8  1  0  0  0  0
  8  9  2  0  0  0  0
  9 10  1  0  0  0  0
  9 11  1  0  0  0  0
M  CHG  2   1   1   8   1
M  END
>  <CHROM.1>
163.97426893,120.96563426,-68.10862886,-162.26584233,-54.58027479,-50.28715398
-11.73758665,7.10459470,2.12934084,-1.72109033,-0.20911671,-2.06469598

>  <Name>


>  <RI>
0

>  <Rbt.Current_Directory>
/home/itssahil/PROJECTS/Mol_Feturizer/New_Systems/rnas/1aju

>  <Rbt.Executable>
rbdock ($Id: //depot/dev/client3/rdock/2013.1/src/exe/rbdock.cxx#4 $)

>  <Rbt.Library>
libRbt.so (2013.1, Build901 2013/11/27)

>  <Rbt.Parameter_File>
/export/apps/rDock/src/rDock_2013.1_src/data/scripts/dock_solv.prm

>  <Rbt.Receptor>
prm/blind_docking_100.prm

>  <SCORE>
-11.1399

>  <SCORE.INTER>
-10.679

>  <SCORE.INTER.CONST>
1

>  <SCORE.INTER.POLAR>
-3.09764

>  <SCORE.INTER.ROT>
5

>  <SCORE.INTER.SOLV>
19.3784

>  <SCORE.INTER.VDW>
-10.1867

>  <SCORE.INTER.norm>
-0.970819

>  <SCORE.INTRA>
-0.460937

>  <SCORE.INTRA.DIHEDRAL>
-4.81717

>  <SCORE.INTRA.DIHEDRAL.0>
9.90185

>  <SCORE.INTRA.POLAR>
0

>  <SCORE.INTRA.POLAR.0>
0

>  <SCORE.INTRA.REPUL>
0

>  <SCORE.INTRA.REPUL.0>
0

>  <SCORE.INTRA.SOLV>
2.42431

>  <SCORE.INTRA.SOLV.lig_0>
-53.6586

>  <SCORE.INTRA.VDW>
0.735492

>  <SCORE.INTRA.VDW.0>
-0.556525

>  <SCORE.INTRA.norm>
-0.0419033

>  <SCORE.RESTR>
0

>  <SCORE.RESTR.CAVITY>
0

>  <SCORE.RESTR.norm>
0

>  <SCORE.SYSTEM>
0

>  <SCORE.SYSTEM.CONST>
0

>  <SCORE.SYSTEM.DIHEDRAL>
0

>  <SCORE.SYSTEM.SOLV>
0

>  <SCORE.SYSTEM.norm>
0

>  <SCORE.heavy>
11

>  <SCORE.norm>
-1.01272

>  <RMSD>
14.847

$$$$

 OpenBabel11021811383D
libRbt.so/2013.1/901 2013/11/27
 11 10  0  0  0  0  0  0  0  0999 V2000
  -12.2480    5.8719   -0.2739 N   0  3  0  0  0  0  0  0  0  0  0  0
  -11.5832    5.3829    0.9714 C   0  0  2  0  0  0  0  0  0  0  0  0
  -12.3411    4.1618    1.5194 C   0  0  0  0  0  0  0  0  0  0  0  0
  -11.8017    3.0729    1.5809 O   0  0  0  0  0  0  0  0  0  0  0  0
  -11.5762    6.5059    2.0170 C   0  0  0  0  0  0  0  0  0  0  0  0
  -10.4147    7.4631    1.7350 C   0  0  0  0  0  0  0  0  0  0  0  0
  -10.7387    8.8415    2.3072 C   0  0  0  0  0  0  0  0  0  0  0  0
  -10.5380    8.8162    3.7820 N   0  3  0  0  0  0  0  0  0  0  0  0
  -11.5468    8.5842    4.5765 C   0  0  0  0  0  0  0  0  0  0  0  0
  -11.5447    7.5186    5.3350 N   0  0  0  0  0  0  0  0  0  0  0  0
  -12.5520    9.4200    4.6174 N   0  0  0  0  0  0  0  0  0  0  0  0
  2  1  1  6  0  0  0
  2  3  1  0  0  0  0
  2  5  1  0  0  0  0
  3  4  2  0  0  0  0
  5  6  1  0  0  0  0
  6  7  1  0  0  0  0
  7  8  1  0  0  0  0
  8  9  2  0  0  0  0
  9 10  1  0  0  0  0
  9 11  1  0  0  0  0
M  CHG  2   1   1   8   1
M  END
>  <CHROM.1>
177.94436154,116.41510696,-81.49776912,154.71241908,77.00542734,-94.72556448
-11.55483323,6.86924274,2.55517102,-1.91326360,1.31706903,1.00717248

>  <Name>


>  <RI>
0

>  <Rbt.Current_Directory>
/home/itssahil/PROJECTS/Mol_Feturizer/New_Systems/rnas/1aju

>  <Rbt.Executable>
rbdock ($Id: //depot/dev/client3/rdock/2013.1/src/exe/rbdock.cxx#4 $)

>  <Rbt.Library>
libRbt.so (2013.1, Build901 2013/11/27)

>  <Rbt.Parameter_File>
/export/apps/rDock/src/rDock_2013.1_src/data/scripts/dock_solv.prm

>  <Rbt.Receptor>
prm/blind_docking_60.prm

>  <SCORE>
-14.7882

>  <SCORE.INTER>
-13.9898

>  <SCORE.INTER.CONST>
1

>  <SCORE.INTER.POLAR>
-3.48456

>  <SCORE.INTER.ROT>
5

>  <SCORE.INTER.SOLV>
13.0151

>  <SCORE.INTER.VDW>
-8.98306

>  <SCORE.INTER.norm>
-1.2718

>  <SCORE.INTRA>
-1.06007

>  <SCORE.INTRA.DIHEDRAL>
-2.07843

>  <SCORE.INTRA.DIHEDRAL.0>
9.90185

>  <SCORE.INTRA.POLAR>
0

>  <SCORE.INTRA.POLAR.0>
0

>  <SCORE.INTRA.REPUL>
0

>  <SCORE.INTRA.REPUL.0>
0

>  <SCORE.INTRA.SOLV>
1.74906

>  <SCORE.INTRA.SOLV.lig_0>
-53.6586

>  <SCORE.INTRA.VDW>
-0.895384

>  <SCORE.INTRA.VDW.0>
-0.556525

>  <SCORE.INTRA.norm>
-0.09637

>  <SCORE.RESTR>
0.2617

>  <SCORE.RESTR.CAVITY>
0.2617

>  <SCORE.RESTR.norm>
0.0237909

>  <SCORE.SYSTEM>
0

>  <SCORE.SYSTEM.CONST>
0

>  <SCORE.SYSTEM.DIHEDRAL>
0

>  <SCORE.SYSTEM.SOLV>
0

>  <SCORE.SYSTEM.norm>
0

>  <SCORE.heavy>
11

>  <SCORE.norm>
-1.34438

>  <RMSD>
14.872

$$$$

 OpenBabel11021811383D
libRbt.so/2013.1/901 2013/11/27
 11 10  0  0  0  0  0  0  0  0999 V2000
  -12.5943    4.9904   -4.8493 N   0  3  0  0  0  0  0  0  0  0  0  0
  -12.1252    5.6788   -6.0893 C   0  0  2  0  0  0  0  0  0  0  0  0
  -13.2372    6.5957   -6.6265 C   0  0  0  0  0  0  0  0  0  0  0  0
  -13.0379    7.7854   -6.7851 O   0  0  0  0  0  0  0  0  0  0  0  0
  -11.7592    4.6274   -7.1455 C   0  0  0  0  0  0  0  0  0  0  0  0
  -11.1892    5.3219   -8.3855 C   0  0  0  0  0  0  0  0  0  0  0  0
  -10.4714    4.2962   -9.2603 C   0  0  0  0  0  0  0  0  0  0  0  0
   -9.3597    4.9686   -9.9870 N   0  3  0  0  0  0  0  0  0  0  0  0
   -8.2407    4.3336  -10.2046 C   0  0  0  0  0  0  0  0  0  0  0  0
   -7.8623    4.0860  -11.4319 N   0  0  0  0  0  0  0  0  0  0  0  0
   -7.4984    3.9536   -9.1970 N   0  0  0  0  0  0  0  0  0  0  0  0
  2  1  1  1  0  0  0
  2  3  1  0  0  0  0
  2  5  1  0  0  0  0
  3  4  2  0  0  0  0
  5  6  1  0  0  0  0
  6  7  1  0  0  0  0
  7  8  1  0  0  0  0
  8  9  2  0  0  0  0
  9 10  1  0  0  0  0
  9 11  1  0  0  0  0
M  CHG  2   1   1   8   1
M  END
>  <CHROM.1>
-54.77497929,122.75403096,-176.23846903,164.19766596,-149.67574935,143.99323395
-10.65579336,5.14676890,-8.15824097,2.74537776,-0.71257604,2.15229079

>  <Name>


>  <RI>
0

>  <Rbt.Current_Directory>
/home/itssahil/PROJECTS/Mol_Feturizer/New_Systems/rnas/1aju

>  <Rbt.Executable>
rbdock ($Id: //depot/dev/client3/rdock/2013.1/src/exe/rbdock.cxx#4 $)

>  <Rbt.Library>
libRbt.so (2013.1, Build901 2013/11/27)

>  <Rbt.Parameter_File>
/export/apps/rDock/src/rDock_2013.1_src/data/scripts/dock_solv.prm

>  <Rbt.Receptor>
prm/blind_docking_40.prm

>  <SCORE>
-25.1867

>  <SCORE.INTER>
-24.6824

>  <SCORE.INTER.CONST>
1

>  <SCORE.INTER.POLAR>
-3.85406

>  <SCORE.INTER.ROT>
5

>  <SCORE.INTER.SOLV>
18.7832

>  <SCORE.INTER.VDW>
-16.8025

>  <SCORE.INTER.norm>
-2.24386

>  <SCORE.INTRA>
-1.25666

>  <SCORE.INTRA.DIHEDRAL>
-2.97373

>  <SCORE.INTRA.DIHEDRAL.0>
9.90185

>  <SCORE.INTRA.POLAR>
0

>  <SCORE.INTRA.POLAR.0>
0

>  <SCORE.INTRA.REPUL>
0

>  <SCORE.INTRA.REPUL.0>
0

>  <SCORE.INTRA.SOLV>
0.0250273

>  <SCORE.INTRA.SOLV.lig_0>
-53.6586

>  <SCORE.INTRA.VDW>
0.217692

>  <SCORE.INTRA.VDW.0>
-0.556525

>  <SCORE.INTRA.norm>
-0.114242

>  <SCORE.RESTR>
0.752411

>  <SCORE.RESTR.CAVITY>
0.752411

>  <SCORE.RESTR.norm>
0.068401

>  <SCORE.SYSTEM>
0

>  <SCORE.SYSTEM.CONST>
0

>  <SCORE.SYSTEM.DIHEDRAL>
0

>  <SCORE.SYSTEM.SOLV>
0

>  <SCORE.SYSTEM.norm>
0

>  <SCORE.heavy>
11

>  <SCORE.norm>
-2.2897

>  <RMSD>
14.873

$$$$

 OpenBabel11021811383D
libRbt.so/2013.1/901 2013/11/27
 11 10  0  0  0  0  0  0  0  0999 V2000
  -11.2587    5.9696   -5.3632 N   0  3  0  0  0  0  0  0  0  0  0  0
  -11.6326    6.0064   -6.8091 C   0  0  2  0  0  0  0  0  0  0  0  0
  -13.0081    6.6749   -6.9729 C   0  0  0  0  0  0  0  0  0  0  0  0
  -13.4775    7.3555   -6.0804 O   0  0  0  0  0  0  0  0  0  0  0  0
  -11.6793    4.5739   -7.3574 C   0  0  0  0  0  0  0  0  0  0  0  0
  -11.8581    4.6115   -8.8777 C   0  0  0  0  0  0  0  0  0  0  0  0
  -10.5787    5.1318   -9.5295 C   0  0  0  0  0  0  0  0  0  0  0  0
   -9.6365    3.9965   -9.7277 N   0  3  0  0  0  0  0  0  0  0  0  0
   -8.3717    4.2263   -9.9519 C   0  0  0  0  0  0  0  0  0  0  0  0
   -7.4743    3.8122   -9.0952 N   0  0  0  0  0  0  0  0  0  0  0  0
   -8.0051    4.8627  -11.0341 N   0  0  0  0  0  0  0  0  0  0  0  0
  2  1  1  1  0  0  0
  2  3  1  0  0  0  0
  2  5  1  0  0  0  0
  3  4  2  0  0  0  0
  5  6  1  0  0  0  0
  6  7  1  0  0  0  0
  7  8  1  0  0  0  0
  8  9  2  0  0  0  0
  9 10  1  0  0  0  0
  9 11  1  0  0  0  0
M  CHG  2   1   1   8   1
M  END
>  <CHROM.1>
-93.82544333,17.56013076,-171.74995738,70.04143451,85.49836381,-162.88131522
-10.60464597,5.20684455,-8.21791256,-2.40716743,0.34650069,-1.73810851

>  <Name>


>  <RI>
0

>  <Rbt.Current_Directory>
/home/itssahil/PROJECTS/Mol_Feturizer/New_Systems/rnas/1aju

>  <Rbt.Executable>
rbdock ($Id: //depot/dev/client3/rdock/2013.1/src/exe/rbdock.cxx#4 $)

>  <Rbt.Library>
libRbt.so (2013.1, Build901 2013/11/27)

>  <Rbt.Parameter_File>
/export/apps/rDock/src/rDock_2013.1_src/data/scripts/dock_solv.prm

>  <Rbt.Receptor>
prm/blind_docking_40.prm

>  <SCORE>
-26.6789

>  <SCORE.INTER>
-28.5548

>  <SCORE.INTER.CONST>
1

>  <SCORE.INTER.POLAR>
-5.20561

>  <SCORE.INTER.ROT>
5

>  <SCORE.INTER.SOLV>
25.1562

>  <SCORE.INTER.VDW>
-17.0032

>  <SCORE.INTER.norm>
-2.59589

>  <SCORE.INTRA>
1.06706

>  <SCORE.INTRA.DIHEDRAL>
-1.52502

>  <SCORE.INTRA.DIHEDRAL.0>
9.90185

>  <SCORE.INTRA.POLAR>
0

>  <SCORE.INTRA.POLAR.0>
0

>  <SCORE.INTRA.REPUL>
0

>  <SCORE.INTRA.REPUL.0>
0

>  <SCORE.INTRA.SOLV>
1.18756

>  <SCORE.INTRA.SOLV.lig_0>
-53.6586

>  <SCORE.INTRA.VDW>
1.2358

>  <SCORE.INTRA.VDW.0>
-0.556525

>  <SCORE.INTRA.norm>
0.0970058

>  <SCORE.RESTR>
0.808859

>  <SCORE.RESTR.CAVITY>
0.808859

>  <SCORE.RESTR.norm>
0.0735326

>  <SCORE.SYSTEM>
0

>  <SCORE.SYSTEM.CONST>
0

>  <SCORE.SYSTEM.DIHEDRAL>
0

>  <SCORE.SYSTEM.SOLV>
0

>  <SCORE.SYSTEM.norm>
0

>  <SCORE.heavy>
11

>  <SCORE.norm>
-2.42535

>  <RMSD>
14.883

$$$$

 OpenBabel11021811383D
libRbt.so/2013.1/901 2013/11/27
 11 10  0  0  0  0  0  0  0  0999 V2000
  -11.3998    6.8623    5.7620 N   0  3  0  0  0  0  0  0  0  0  0  0
  -11.4124    8.0377    4.8401 C   0  0  2  0  0  0  0  0  0  0  0  0
  -12.6226    8.9328    5.1565 C   0  0  0  0  0  0  0  0  0  0  0  0
  -12.4702   10.1086    5.4298 O   0  0  0  0  0  0  0  0  0  0  0  0
  -11.4930    7.5437    3.3895 C   0  0  0  0  0  0  0  0  0  0  0  0
  -11.0328    8.6552    2.4421 C   0  0  0  0  0  0  0  0  0  0  0  0
  -11.2096    8.1985    0.9954 C   0  0  0  0  0  0  0  0  0  0  0  0
  -10.1220    7.2426    0.6500 N   0  3  0  0  0  0  0  0  0  0  0  0
  -10.3953    6.1488   -0.0070 C   0  0  0  0  0  0  0  0  0  0  0  0
   -9.8848    5.9606   -1.1964 N   0  0  0  0  0  0  0  0  0  0  0  0
  -11.1716    5.2422    0.5278 N   0  0  0  0  0  0  0  0  0  0  0  0
  2  1  1  1  0  0  0
  2  3  1  0  0  0  0
  2  5  1  0  0  0  0
  3  4  2  0  0  0  0
  5  6  1  0  0  0  0
  6  7  1  0  0  0  0
  7  8  1  0  0  0  0
  8  9  2  0  0  0  0
  9 10  1  0  0  0  0
  9 11  1  0  0  0  0
M  CHG  2   1   1   8   1
M  END
>  <CHROM.1>
172.65518563,123.63680358,-160.77580529,-175.90854438,-76.20804726,135.96167557
-11.19240925,7.50458914,2.56074011,-2.99135840,1.29841748,-0.57852119

>  <Name>


>  <RI>
0

>  <Rbt.Current_Directory>
/home/itssahil/PROJECTS/Mol_Feturizer/New_Systems/rnas/1aju

>  <Rbt.Executable>
rbdock ($Id: //depot/dev/client3/rdock/2013.1/src/exe/rbdock.cxx#4 $)

>  <Rbt.Library>
libRbt.so (2013.1, Build901 2013/11/27)

>  <Rbt.Parameter_File>
/export/apps/rDock/src/rDock_2013.1_src/data/scripts/dock_solv.prm

>  <Rbt.Receptor>
prm/blind_docking_80.prm

>  <SCORE>
-19.1032

>  <SCORE.INTER>
-17.0226

>  <SCORE.INTER.CONST>
1

>  <SCORE.INTER.POLAR>
-3.22681

>  <SCORE.INTER.ROT>
5

>  <SCORE.INTER.SOLV>
16.6379

>  <SCORE.INTER.VDW>
-13.0717

>  <SCORE.INTER.norm>
-1.54751

>  <SCORE.INTRA>
-2.37437

>  <SCORE.INTRA.DIHEDRAL>
-4.55522

>  <SCORE.INTRA.DIHEDRAL.0>
9.90185

>  <SCORE.INTRA.POLAR>
0

>  <SCORE.INTRA.POLAR.0>
0

>  <SCORE.INTRA.REPUL>
0

>  <SCORE.INTRA.REPUL.0>
0

>  <SCORE.INTRA.SOLV>
0.702191

>  <SCORE.INTRA.SOLV.lig_0>
-53.6586

>  <SCORE.INTRA.VDW>
-0.447859

>  <SCORE.INTRA.VDW.0>
-0.556525

>  <SCORE.INTRA.norm>
-0.215852

>  <SCORE.RESTR>
0.293823

>  <SCORE.RESTR.CAVITY>
0.293823

>  <SCORE.RESTR.norm>
0.0267112

>  <SCORE.SYSTEM>
0

>  <SCORE.SYSTEM.CONST>
0

>  <SCORE.SYSTEM.DIHEDRAL>
0

>  <SCORE.SYSTEM.SOLV>
0

>  <SCORE.SYSTEM.norm>
0

>  <SCORE.heavy>
11

>  <SCORE.norm>
-1.73665

>  <RMSD>
14.904

$$$$

 OpenBabel11021811383D
libRbt.so/2013.1/901 2013/11/27
 11 10  0  0  0  0  0  0  0  0999 V2000
  -10.6542    9.3850    5.2617 N   0  3  0  0  0  0  0  0  0  0  0  0
  -11.3512    9.2965    3.9434 C   0  0  2  0  0  0  0  0  0  0  0  0
  -12.8404    9.6386    4.1193 C   0  0  0  0  0  0  0  0  0  0  0  0
  -13.2711    9.9986    5.1987 O   0  0  0  0  0  0  0  0  0  0  0  0
  -11.2040    7.8742    3.3864 C   0  0  0  0  0  0  0  0  0  0  0  0
  -11.4184    7.8916    1.8703 C   0  0  0  0  0  0  0  0  0  0  0  0
  -11.3719    6.4631    1.3318 C   0  0  0  0  0  0  0  0  0  0  0  0
  -11.3098    6.5047   -0.1549 N   0  3  0  0  0  0  0  0  0  0  0  0
  -10.7127    5.5489   -0.8126 C   0  0  0  0  0  0  0  0  0  0  0  0
  -11.4000    4.7972   -1.6332 N   0  0  0  0  0  0  0  0  0  0  0  0
   -9.4295    5.3502   -0.6553 N   0  0  0  0  0  0  0  0  0  0  0  0
  2  1  1  1  0  0  0
  2  3  1  0  0  0  0
  2  5  1  0  0  0  0
  3  4  2  0  0  0  0
  5  6  1  0  0  0  0
  6  7  1  0  0  0  0
  7  8  1  0  0  0  0
  8  9  2  0  0  0  0
  9 10  1  0  0  0  0
  9 11  1  0  0  0  0
M  CHG  2   1   1   8   1
M  END
>  <CHROM.1>
-177.09435615,4.15261580,-158.55086556,-175.93653990,-168.90079257,150.66490412
-11.34230730,7.52162979,2.00559567,-1.76332584,0.23704159,-2.15912090

>  <Name>


>  <RI>
0

>  <Rbt.Current_Directory>
/home/itssahil/PROJECTS/Mol_Feturizer/New_Systems/rnas/1aju

>  <Rbt.Executable>
rbdock ($Id: //depot/dev/client3/rdock/2013.1/src/exe/rbdock.cxx#4 $)

>  <Rbt.Library>
libRbt.so (2013.1, Build901 2013/11/27)

>  <Rbt.Parameter_File>
/export/apps/rDock/src/rDock_2013.1_src/data/scripts/dock_solv.prm

>  <Rbt.Receptor>
prm/blind_docking_80.prm

>  <SCORE>
-26.0257

>  <SCORE.INTER>
-24.2731

>  <SCORE.INTER.CONST>
1

>  <SCORE.INTER.POLAR>
-5.62644

>  <SCORE.INTER.ROT>
5

>  <SCORE.INTER.SOLV>
18.0086

>  <SCORE.INTER.VDW>
-10.3635

>  <SCORE.INTER.norm>
-2.20665

>  <SCORE.INTRA>
-1.92563

>  <SCORE.INTRA.DIHEDRAL>
-4.86379

>  <SCORE.INTRA.DIHEDRAL.0>
9.90185

>  <SCORE.INTRA.POLAR>
0

>  <SCORE.INTRA.POLAR.0>
0

>  <SCORE.INTRA.REPUL>
0

>  <SCORE.INTRA.REPUL.0>
0

>  <SCORE.INTRA.SOLV>
1.01854

>  <SCORE.INTRA.SOLV.lig_0>
-53.6586

>  <SCORE.INTRA.VDW>
-0.00300134

>  <SCORE.INTRA.VDW.0>
-0.556525

>  <SCORE.INTRA.norm>
-0.175057

>  <SCORE.RESTR>
0.173009

>  <SCORE.RESTR.CAVITY>
0.173009

>  <SCORE.RESTR.norm>
0.0157281

>  <SCORE.SYSTEM>
0

>  <SCORE.SYSTEM.CONST>
0

>  <SCORE.SYSTEM.DIHEDRAL>
0

>  <SCORE.SYSTEM.SOLV>
0

>  <SCORE.SYSTEM.norm>
0

>  <SCORE.heavy>
11

>  <SCORE.norm>
-2.36598

>  <RMSD>
14.955

$$$$

 OpenBabel11021811383D
libRbt.so/2013.1/901 2013/11/27
 11 10  0  0  0  0  0  0  0  0999 V2000
  -12.9421    9.9432    4.9606 N   0  3  0  0  0  0  0  0  0  0  0  0
  -11.8177    9.0939    4.4643 C   0  0  2  0  0  0  0  0  0  0  0  0
  -10.4809    9.8221    4.6839 C   0  0  0  0  0  0  0  0  0  0  0  0
  -10.3914   10.7238    5.4958 O   0  0  0  0  0  0  0  0  0  0  0  0
  -12.0185    8.8095    2.9698 C   0  0  0  0  0  0  0  0  0  0  0  0
  -10.8859    7.9134    2.4609 C   0  0  0  0  0  0  0  0  0  0  0  0
  -11.1754    7.4926    1.0216 C   0  0  0  0  0  0  0  0  0  0  0  0
  -10.0963    6.5798    0.5544 N   0  3  0  0  0  0  0  0  0  0  0  0
  -10.3978    5.4258    0.0252 C   0  0  0  0  0  0  0  0  0  0  0  0
  -10.0829    5.1801   -1.2203 N   0  0  0  0  0  0  0  0  0  0  0  0
  -11.0065    4.5171    0.7424 N   0  0  0  0  0  0  0  0  0  0  0  0
  2  1  1  6  0  0  0
  2  3  1  0  0  0  0
  2  5  1  0  0  0  0
  3  4  2  0  0  0  0
  5  6  1  0  0  0  0
  6  7  1  0  0  0  0
  7  8  1  0  0  0  0
  8  9  2  0  0  0  0
  9 10  1  0  0  0  0
  9 11  1  0  0  0  0
M  CHG  2   1   1   8   1
M  END
>  <CHROM.1>
176.18853510,20.19648768,-178.75436251,173.17800362,-177.82176165,128.20184295
-11.04392837,7.77787227,2.39055516,1.73365502,0.29417680,0.78034969

>  <Name>


>  <RI>
0

>  <Rbt.Current_Directory>
/home/itssahil/PROJECTS/Mol_Feturizer/New_Systems/rnas/1aju

>  <Rbt.Executable>
rbdock ($Id: //depot/dev/client3/rdock/2013.1/src/exe/rbdock.cxx#4 $)

>  <Rbt.Library>
libRbt.so (2013.1, Build901 2013/11/27)

>  <Rbt.Parameter_File>
/export/apps/rDock/src/rDock_2013.1_src/data/scripts/dock_solv.prm

>  <Rbt.Receptor>
prm/blind_docking_80.prm

>  <SCORE>
-22.0417

>  <SCORE.INTER>
-20.661

>  <SCORE.INTER.CONST>
1

>  <SCORE.INTER.POLAR>
-3.65257

>  <SCORE.INTER.ROT>
5

>  <SCORE.INTER.SOLV>
17.9386

>  <SCORE.INTER.VDW>
-14.5116

>  <SCORE.INTER.norm>
-1.87827

>  <SCORE.INTRA>
-2.06178

>  <SCORE.INTRA.DIHEDRAL>
-5.97467

>  <SCORE.INTRA.DIHEDRAL.0>
9.90185

>  <SCORE.INTRA.POLAR>
0

>  <SCORE.INTRA.POLAR.0>
0

>  <SCORE.INTRA.REPUL>
0

>  <SCORE.INTRA.REPUL.0>
0

>  <SCORE.INTRA.SOLV>
1.02716

>  <SCORE.INTRA.SOLV.lig_0>
-53.6586

>  <SCORE.INTRA.VDW>
0.41197

>  <SCORE.INTRA.VDW.0>
-0.556525

>  <SCORE.INTRA.norm>
-0.187435

>  <SCORE.RESTR>
0.681133

>  <SCORE.RESTR.CAVITY>
0.681133

>  <SCORE.RESTR.norm>
0.0619212

>  <SCORE.SYSTEM>
0

>  <SCORE.SYSTEM.CONST>
0

>  <SCORE.SYSTEM.DIHEDRAL>
0

>  <SCORE.SYSTEM.SOLV>
0

>  <SCORE.SYSTEM.norm>
0

>  <SCORE.heavy>
11

>  <SCORE.norm>
-2.00379

>  <RMSD>
15.012

$$$$

 OpenBabel11021811383D
libRbt.so/2013.1/901 2013/11/27
 11 10  0  0  0  0  0  0  0  0999 V2000
  -11.5258    7.7411    5.1167 N   0  3  0  0  0  0  0  0  0  0  0  0
  -11.7481    8.9914    4.3299 C   0  0  2  0  0  0  0  0  0  0  0  0
  -12.9067    9.7937    4.9462 C   0  0  0  0  0  0  0  0  0  0  0  0
  -13.4410    9.4221    5.9741 O   0  0  0  0  0  0  0  0  0  0  0  0
  -12.0811    8.6243    2.8776 C   0  0  0  0  0  0  0  0  0  0  0  0
  -10.8407    8.0362    2.1992 C   0  0  0  0  0  0  0  0  0  0  0  0
  -11.2413    7.3902    0.8746 C   0  0  0  0  0  0  0  0  0  0  0  0
  -10.1193    6.5418    0.3873 N   0  3  0  0  0  0  0  0  0  0  0  0
  -10.3005    5.7304   -0.6185 C   0  0  0  0  0  0  0  0  0  0  0  0
   -9.6263    5.9070   -1.7253 N   0  0  0  0  0  0  0  0  0  0  0  0
  -11.1489    4.7404   -0.5147 N   0  0  0  0  0  0  0  0  0  0  0  0
  2  1  1  1  0  0  0
  2  3  1  0  0  0  0
  2  5  1  0  0  0  0
  3  4  2  0  0  0  0
  5  6  1  0  0  0  0
  6  7  1  0  0  0  0
  7  8  1  0  0  0  0
  8  9  2  0  0  0  0
  9 10  1  0  0  0  0
  9 11  1  0  0  0  0
M  CHG  2   1   1   8   1
M  END
>  <CHROM.1>
-177.20222396,4.24153762,-68.94257594,167.50606523,-166.25089796,169.54203572
-11.35400031,7.49411517,2.18251324,2.47260168,1.15215532,0.19886850

>  <Name>


>  <RI>
0

>  <Rbt.Current_Directory>
/home/itssahil/PROJECTS/Mol_Feturizer/New_Systems/rnas/1aju

>  <Rbt.Executable>
rbdock ($Id: //depot/dev/client3/rdock/2013.1/src/exe/rbdock.cxx#4 $)

>  <Rbt.Library>
libRbt.so (2013.1, Build901 2013/11/27)

>  <Rbt.Parameter_File>
/export/apps/rDock/src/rDock_2013.1_src/data/scripts/dock_solv.prm

>  <Rbt.Receptor>
prm/blind_docking_80.prm

>  <SCORE>
-21.5313

>  <SCORE.INTER>
-20.0493

>  <SCORE.INTER.CONST>
1

>  <SCORE.INTER.POLAR>
-3.74341

>  <SCORE.INTER.ROT>
5

>  <SCORE.INTER.SOLV>
17.1905

>  <SCORE.INTER.VDW>
-13.5517

>  <SCORE.INTER.norm>
-1.82266

>  <SCORE.INTRA>
-1.48203

>  <SCORE.INTRA.DIHEDRAL>
-5.27847

>  <SCORE.INTRA.DIHEDRAL.0>
9.90185

>  <SCORE.INTRA.POLAR>
0

>  <SCORE.INTRA.POLAR.0>
0

>  <SCORE.INTRA.REPUL>
0

>  <SCORE.INTRA.REPUL.0>
0

>  <SCORE.INTRA.SOLV>
2.1305

>  <SCORE.INTRA.SOLV.lig_0>
-53.6586

>  <SCORE.INTRA.VDW>
0.0919587

>  <SCORE.INTRA.VDW.0>
-0.556525

>  <SCORE.INTRA.norm>
-0.13473

>  <SCORE.RESTR>
0

>  <SCORE.RESTR.CAVITY>
0

>  <SCORE.RESTR.norm>
0

>  <SCORE.SYSTEM>
0

>  <SCORE.SYSTEM.CONST>
0

>  <SCORE.SYSTEM.DIHEDRAL>
0

>  <SCORE.SYSTEM.SOLV>
0

>  <SCORE.SYSTEM.norm>
0

>  <SCORE.heavy>
11

>  <SCORE.norm>
-1.95739

>  <RMSD>
15.019

$$$$

 OpenBabel11021811383D
libRbt.so/2013.1/901 2013/11/27
 11 10  0  0  0  0  0  0  0  0999 V2000
  -11.2953    6.9046    6.0580 N   0  3  0  0  0  0  0  0  0  0  0  0
  -11.0532    8.1417    5.2563 C   0  0  2  0  0  0  0  0  0  0  0  0
  -11.8161    9.3225    5.8804 C   0  0  0  0  0  0  0  0  0  0  0  0
  -12.6644    9.9190    5.2442 O   0  0  0  0  0  0  0  0  0  0  0  0
  -11.5307    7.9140    3.8158 C   0  0  0  0  0  0  0  0  0  0  0  0
  -10.6645    8.7304    2.8525 C   0  0  0  0  0  0  0  0  0  0  0  0
  -11.1473    8.5103    1.4204 C   0  0  0  0  0  0  0  0  0  0  0  0
  -10.1230    7.7277    0.6758 N   0  3  0  0  0  0  0  0  0  0  0  0
  -10.3337    6.4703    0.3979 C   0  0  0  0  0  0  0  0  0  0  0  0
  -10.4156    6.0855   -0.8495 N   0  0  0  0  0  0  0  0  0  0  0  0
  -10.4549    5.5987    1.3655 N   0  0  0  0  0  0  0  0  0  0  0  0
  2  1  1  1  0  0  0
  2  3  1  0  0  0  0
  2  5  1  0  0  0  0
  3  4  2  0  0  0  0
  5  6  1  0  0  0  0
  6  7  1  0  0  0  0
  7  8  1  0  0  0  0
  8  9  2  0  0  0  0
  9 10  1  0  0  0  0
  9 11  1  0  0  0  0
M  CHG  2   1   1   8   1
M  END
>  <CHROM.1>
61.40989823,-119.72901376,-148.72133911,-179.60551804,-110.66068035,106.00487199
-11.04987066,7.71472458,2.92581174,-2.54115003,1.27925089,-0.99877976

>  <Name>


>  <RI>
0

>  <Rbt.Current_Directory>
/home/itssahil/PROJECTS/Mol_Feturizer/New_Systems/rnas/1aju

>  <Rbt.Executable>
rbdock ($Id: //depot/dev/client3/rdock/2013.1/src/exe/rbdock.cxx#4 $)

>  <Rbt.Library>
libRbt.so (2013.1, Build901 2013/11/27)

>  <Rbt.Parameter_File>
/export/apps/rDock/src/rDock_2013.1_src/data/scripts/dock_solv.prm

>  <Rbt.Receptor>
prm/blind_docking_80.prm

>  <SCORE>
-19.5097

>  <SCORE.INTER>
-21.3353

>  <SCORE.INTER.CONST>
1

>  <SCORE.INTER.POLAR>
-4.21907

>  <SCORE.INTER.ROT>
5

>  <SCORE.INTER.SOLV>
18.128

>  <SCORE.INTER.VDW>
-13.136

>  <SCORE.INTER.norm>
-1.93957

>  <SCORE.INTRA>
1.19268

>  <SCORE.INTRA.DIHEDRAL>
0.956681

>  <SCORE.INTRA.DIHEDRAL.0>
9.90185

>  <SCORE.INTRA.POLAR>
0

>  <SCORE.INTRA.POLAR.0>
0

>  <SCORE.INTRA.REPUL>
0

>  <SCORE.INTRA.REPUL.0>
0

>  <SCORE.INTRA.SOLV>
1.16363

>  <SCORE.INTRA.SOLV.lig_0>
-53.6586

>  <SCORE.INTRA.VDW>
0.132519

>  <SCORE.INTRA.VDW.0>
-0.556525

>  <SCORE.INTRA.norm>
0.108425

>  <SCORE.RESTR>
0.63299

>  <SCORE.RESTR.CAVITY>
0.63299

>  <SCORE.RESTR.norm>
0.0575445

>  <SCORE.SYSTEM>
0

>  <SCORE.SYSTEM.CONST>
0

>  <SCORE.SYSTEM.DIHEDRAL>
0

>  <SCORE.SYSTEM.SOLV>
0

>  <SCORE.SYSTEM.norm>
0

>  <SCORE.heavy>
11

>  <SCORE.norm>
-1.7736

>  <RMSD>
15.032

$$$$

 OpenBabel11021811383D
libRbt.so/2013.1/901 2013/11/27
 11 10  0  0  0  0  0  0  0  0999 V2000
  -11.7908    7.5284    5.0450 N   0  3  0  0  0  0  0  0  0  0  0  0
  -12.1097    8.7783    4.2915 C   0  0  2  0  0  0  0  0  0  0  0  0
  -13.4095    9.3952    4.8354 C   0  0  0  0  0  0  0  0  0  0  0  0
  -13.4687   10.5802    5.1045 O   0  0  0  0  0  0  0  0  0  0  0  0
  -12.2726    8.4451    2.8025 C   0  0  0  0  0  0  0  0  0  0  0  0
  -10.9233    8.0115    2.2226 C   0  0  0  0  0  0  0  0  0  0  0  0
  -11.1337    7.4106    0.8344 C   0  0  0  0  0  0  0  0  0  0  0  0
  -10.0369    6.4451    0.5501 N   0  3  0  0  0  0  0  0  0  0  0  0
  -10.3002    5.3073   -0.0320 C   0  0  0  0  0  0  0  0  0  0  0  0
   -9.7904    5.0457   -1.2077 N   0  0  0  0  0  0  0  0  0  0  0  0
  -11.0659    4.4303    0.5641 N   0  0  0  0  0  0  0  0  0  0  0  0
  2  1  1  1  0  0  0
  2  3  1  0  0  0  0
  2  5  1  0  0  0  0
  3  4  2  0  0  0  0
  5  6  1  0  0  0  0
  6  7  1  0  0  0  0
  7  8  1  0  0  0  0
  8  9  2  0  0  0  0
  9 10  1  0  0  0  0
  9 11  1  0  0  0  0
M  CHG  2   1   1   8   1
M  END
>  <CHROM.1>
-55.39546102,131.98036529,-67.18077666,168.46856180,-153.32725902,138.49157157
-11.46982115,7.36295878,2.28744206,3.00158838,1.18417963,-0.53252023

>  <Name>


>  <RI>
0

>  <Rbt.Current_Directory>
/home/itssahil/PROJECTS/Mol_Feturizer/New_Systems/rnas/1aju

>  <Rbt.Executable>
rbdock ($Id: //depot/dev/client3/rdock/2013.1/src/exe/rbdock.cxx#4 $)

>  <Rbt.Library>
libRbt.so (2013.1, Build901 2013/11/27)

>  <Rbt.Parameter_File>
/export/apps/rDock/src/rDock_2013.1_src/data/scripts/dock_solv.prm

>  <Rbt.Receptor>
prm/blind_docking_80.prm

>  <SCORE>
-20.3789

>  <SCORE.INTER>
-19.5802

>  <SCORE.INTER.CONST>
1

>  <SCORE.INTER.POLAR>
-3.77695

>  <SCORE.INTER.ROT>
5

>  <SCORE.INTER.SOLV>
18.011

>  <SCORE.INTER.VDW>
-13.4006

>  <SCORE.INTER.norm>
-1.78002

>  <SCORE.INTRA>
-1.49419

>  <SCORE.INTRA.DIHEDRAL>
-3.59085

>  <SCORE.INTRA.DIHEDRAL.0>
9.90185

>  <SCORE.INTRA.POLAR>
0

>  <SCORE.INTRA.POLAR.0>
0

>  <SCORE.INTRA.REPUL>
0

>  <SCORE.INTRA.REPUL.0>
0

>  <SCORE.INTRA.SOLV>
1.14026

>  <SCORE.INTRA.SOLV.lig_0>
-53.6586

>  <SCORE.INTRA.VDW>
-0.268894

>  <SCORE.INTRA.VDW.0>
-0.556525

>  <SCORE.INTRA.norm>
-0.135836

>  <SCORE.RESTR>
0.695504

>  <SCORE.RESTR.CAVITY>
0.695504

>  <SCORE.RESTR.norm>
0.0632277

>  <SCORE.SYSTEM>
0

>  <SCORE.SYSTEM.CONST>
0

>  <SCORE.SYSTEM.DIHEDRAL>
0

>  <SCORE.SYSTEM.SOLV>
0

>  <SCORE.SYSTEM.norm>
0

>  <SCORE.heavy>
11

>  <SCORE.norm>
-1.85262

>  <RMSD>
15.066

$$$$

 OpenBabel11021811383D
libRbt.so/2013.1/901 2013/11/27
 11 10  0  0  0  0  0  0  0  0999 V2000
  -10.6620    9.8405    4.3521 N   0  3  0  0  0  0  0  0  0  0  0  0
  -11.9575    9.2597    3.8872 C   0  0  2  0  0  0  0  0  0  0  0  0
  -12.9675    9.2482    5.0471 C   0  0  0  0  0  0  0  0  0  0  0  0
  -14.0426    9.8075    4.9394 O   0  0  0  0  0  0  0  0  0  0  0  0
  -11.7209    7.8287    3.3861 C   0  0  0  0  0  0  0  0  0  0  0  0
  -11.3545    7.8590    1.8996 C   0  0  0  0  0  0  0  0  0  0  0  0
  -11.4044    6.4418    1.3326 C   0  0  0  0  0  0  0  0  0  0  0  0
  -11.3076    6.5071   -0.1514 N   0  3  0  0  0  0  0  0  0  0  0  0
  -10.7065    5.5553   -0.8112 C   0  0  0  0  0  0  0  0  0  0  0  0
  -11.3832    4.8254   -1.6597 N   0  0  0  0  0  0  0  0  0  0  0  0
   -9.4297    5.3388   -0.6279 N   0  0  0  0  0  0  0  0  0  0  0  0
  2  1  1  1  0  0  0
  2  3  1  0  0  0  0
  2  5  1  0  0  0  0
  3  4  2  0  0  0  0
  5  6  1  0  0  0  0
  6  7  1  0  0  0  0
  7  8  1  0  0  0  0
  8  9  2  0  0  0  0
  9 10  1  0  0  0  0
  9 11  1  0  0  0  0
M  CHG  2   1   1   8   1
M  END
>  <CHROM.1>
-72.61344240,123.17080266,-88.46094114,-168.29383564,169.19742341,146.98625113
-11.51719915,7.51219405,1.95325381,-1.83364642,-0.06872008,-2.23111061

>  <Name>


>  <RI>
0

>  <Rbt.Current_Directory>
/home/itssahil/PROJECTS/Mol_Feturizer/New_Systems/rnas/1aju

>  <Rbt.Executable>
rbdock ($Id: //depot/dev/client3/rdock/2013.1/src/exe/rbdock.cxx#4 $)

>  <Rbt.Library>
libRbt.so (2013.1, Build901 2013/11/27)

>  <Rbt.Parameter_File>
/export/apps/rDock/src/rDock_2013.1_src/data/scripts/dock_solv.prm

>  <Rbt.Receptor>
prm/blind_docking_80.prm

>  <SCORE>
-23.2495

>  <SCORE.INTER>
-21.9134

>  <SCORE.INTER.CONST>
1

>  <SCORE.INTER.POLAR>
-5.19253

>  <SCORE.INTER.ROT>
5

>  <SCORE.INTER.SOLV>
20.0553

>  <SCORE.INTER.VDW>
-10.9189

>  <SCORE.INTER.norm>
-1.99213

>  <SCORE.INTRA>
-1.55761

>  <SCORE.INTRA.DIHEDRAL>
-3.16454

>  <SCORE.INTRA.DIHEDRAL.0>
9.90185

>  <SCORE.INTRA.POLAR>
0

>  <SCORE.INTRA.POLAR.0>
0

>  <SCORE.INTRA.REPUL>
0

>  <SCORE.INTRA.REPUL.0>
0

>  <SCORE.INTRA.SOLV>
0.660598

>  <SCORE.INTRA.SOLV.lig_0>
-53.6586

>  <SCORE.INTRA.VDW>
-0.305636

>  <SCORE.INTRA.VDW.0>
-0.556525

>  <SCORE.INTRA.norm>
-0.1416

>  <SCORE.RESTR>
0.221582

>  <SCORE.RESTR.CAVITY>
0.221582

>  <SCORE.RESTR.norm>
0.0201438

>  <SCORE.SYSTEM>
0

>  <SCORE.SYSTEM.CONST>
0

>  <SCORE.SYSTEM.DIHEDRAL>
0

>  <SCORE.SYSTEM.SOLV>
0

>  <SCORE.SYSTEM.norm>
0

>  <SCORE.heavy>
11

>  <SCORE.norm>
-2.11359

>  <RMSD>
15.075

$$$$

 OpenBabel11021811383D
libRbt.so/2013.1/901 2013/11/27
 11 10  0  0  0  0  0  0  0  0999 V2000
  -13.5888    9.7220    3.5199 N   0  3  0  0  0  0  0  0  0  0  0  0
  -13.0570    8.4873    4.1713 C   0  0  2  0  0  0  0  0  0  0  0  0
  -11.9573    8.8640    5.1785 C   0  0  0  0  0  0  0  0  0  0  0  0
  -11.9658    8.4075    6.3062 O   0  0  0  0  0  0  0  0  0  0  0  0
  -12.4838    7.5537    3.0968 C   0  0  0  0  0  0  0  0  0  0  0  0
  -11.3348    8.2550    2.3669 C   0  0  0  0  0  0  0  0  0  0  0  0
  -10.5230    7.2250    1.5842 C   0  0  0  0  0  0  0  0  0  0  0  0
  -11.3365    6.7313    0.4395 N   0  3  0  0  0  0  0  0  0  0  0  0
  -10.8426    5.8453   -0.3814 C   0  0  0  0  0  0  0  0  0  0  0  0
  -11.4007    4.6663   -0.4774 N   0  0  0  0  0  0  0  0  0  0  0  0
   -9.7972    6.1406   -1.1097 N   0  0  0  0  0  0  0  0  0  0  0  0
  2  1  1  6  0  0  0
  2  3  1  0  0  0  0
  2  5  1  0  0  0  0
  3  4  2  0  0  0  0
  5  6  1  0  0  0  0
  6  7  1  0  0  0  0
  7  8  1  0  0  0  0
  8  9  2  0  0  0  0
  9 10  1  0  0  0  0
  9 11  1  0  0  0  0
M  CHG  2   1   1   8   1
M  END
>  <CHROM.1>
-83.92603289,131.80146586,61.07021941,164.50234766,69.98594852,179.50785075
-11.67932385,7.45248280,2.22684597,1.96351436,-0.70604576,1.31289909

>  <Name>


>  <RI>
0

>  <Rbt.Current_Directory>
/home/itssahil/PROJECTS/Mol_Feturizer/New_Systems/rnas/1aju

>  <Rbt.Executable>
rbdock ($Id: //depot/dev/client3/rdock/2013.1/src/exe/rbdock.cxx#4 $)

>  <Rbt.Library>
libRbt.so (2013.1, Build901 2013/11/27)

>  <Rbt.Parameter_File>
/export/apps/rDock/src/rDock_2013.1_src/data/scripts/dock_solv.prm

>  <Rbt.Receptor>
prm/blind_docking_80.prm

>  <SCORE>
-10.9243

>  <SCORE.INTER>
-11.0697

>  <SCORE.INTER.CONST>
1

>  <SCORE.INTER.POLAR>
-2.35543

>  <SCORE.INTER.ROT>
5

>  <SCORE.INTER.SOLV>
16.8343

>  <SCORE.INTER.VDW>
-12.0731

>  <SCORE.INTER.norm>
-1.00633

>  <SCORE.INTRA>
-0.20093

>  <SCORE.INTRA.DIHEDRAL>
-4.13168

>  <SCORE.INTRA.DIHEDRAL.0>
9.90185

>  <SCORE.INTRA.POLAR>
0

>  <SCORE.INTRA.POLAR.0>
0

>  <SCORE.INTRA.REPUL>
0

>  <SCORE.INTRA.REPUL.0>
0

>  <SCORE.INTRA.SOLV>
1.35983

>  <SCORE.INTRA.SOLV.lig_0>
-53.6586

>  <SCORE.INTRA.VDW>
1.18499

>  <SCORE.INTRA.VDW.0>
-0.556525

>  <SCORE.INTRA.norm>
-0.0182664

>  <SCORE.RESTR>
0.346346

>  <SCORE.RESTR.CAVITY>
0.346346

>  <SCORE.RESTR.norm>
0.031486

>  <SCORE.SYSTEM>
0

>  <SCORE.SYSTEM.CONST>
0

>  <SCORE.SYSTEM.DIHEDRAL>
0

>  <SCORE.SYSTEM.SOLV>
0

>  <SCORE.SYSTEM.norm>
0

>  <SCORE.heavy>
11

>  <SCORE.norm>
-0.993114

>  <RMSD>
15.107

$$$$

 OpenBabel11021811383D
libRbt.so/2013.1/901 2013/11/27
 11 10  0  0  0  0  0  0  0  0999 V2000
  -12.0949    5.0707   -6.0009 N   0  3  0  0  0  0  0  0  0  0  0  0
  -11.8234    6.1183   -7.0307 C   0  0  2  0  0  0  0  0  0  0  0  0
  -12.8762    7.2348   -6.9257 C   0  0  0  0  0  0  0  0  0  0  0  0
  -13.6021    7.4938   -7.8671 O   0  0  0  0  0  0  0  0  0  0  0  0
  -11.8736    5.4825   -8.4264 C   0  0  0  0  0  0  0  0  0  0  0  0
  -10.6318    4.6121   -8.6392 C   0  0  0  0  0  0  0  0  0  0  0  0
  -10.5622    4.1704  -10.0996 C   0  0  0  0  0  0  0  0  0  0  0  0
   -9.3004    3.4119  -10.3195 N   0  3  0  0  0  0  0  0  0  0  0  0
   -8.1610    4.0434  -10.3945 C   0  0  0  0  0  0  0  0  0  0  0  0
   -7.2329    3.8175   -9.5010 N   0  0  0  0  0  0  0  0  0  0  0  0
   -7.9479    4.8936  -11.3653 N   0  0  0  0  0  0  0  0  0  0  0  0
  2  1  1  1  0  0  0
  2  3  1  0  0  0  0
  2  5  1  0  0  0  0
  3  4  2  0  0  0  0
  5  6  1  0  0  0  0
  6  7  1  0  0  0  0
  7  8  1  0  0  0  0
  8  9  2  0  0  0  0
  9 10  1  0  0  0  0
  9 11  1  0  0  0  0
M  CHG  2   1   1   8   1
M  END
>  <CHROM.1>
-57.06158163,-119.77424031,-72.57250278,-170.57497766,175.77869347,-75.14795911
-10.54330087,5.10738858,-8.76516887,-2.78604688,0.65889038,-1.17822930

>  <Name>


>  <RI>
0

>  <Rbt.Current_Directory>
/home/itssahil/PROJECTS/Mol_Feturizer/New_Systems/rnas/1aju

>  <Rbt.Executable>
rbdock ($Id: //depot/dev/client3/rdock/2013.1/src/exe/rbdock.cxx#4 $)

>  <Rbt.Library>
libRbt.so (2013.1, Build901 2013/11/27)

>  <Rbt.Parameter_File>
/export/apps/rDock/src/rDock_2013.1_src/data/scripts/dock_solv.prm

>  <Rbt.Receptor>
prm/blind_docking_40.prm

>  <SCORE>
-27.8759

>  <SCORE.INTER>
-27.0177

>  <SCORE.INTER.CONST>
1

>  <SCORE.INTER.POLAR>
-4.60362

>  <SCORE.INTER.ROT>
5

>  <SCORE.INTER.SOLV>
21.2112

>  <SCORE.INTER.VDW>
-16.6701

>  <SCORE.INTER.norm>
-2.45616

>  <SCORE.INTRA>
-1.73444

>  <SCORE.INTRA.DIHEDRAL>
-5.9277

>  <SCORE.INTRA.DIHEDRAL.0>
9.90185

>  <SCORE.INTRA.POLAR>
0

>  <SCORE.INTRA.POLAR.0>
0

>  <SCORE.INTRA.REPUL>
0

>  <SCORE.INTRA.REPUL.0>
0

>  <SCORE.INTRA.SOLV>
1.26502

>  <SCORE.INTRA.SOLV.lig_0>
-53.6586

>  <SCORE.INTRA.VDW>
0.596898

>  <SCORE.INTRA.VDW.0>
-0.556525

>  <SCORE.INTRA.norm>
-0.157676

>  <SCORE.RESTR>
0.87626

>  <SCORE.RESTR.CAVITY>
0.87626

>  <SCORE.RESTR.norm>
0.07966

>  <SCORE.SYSTEM>
0

>  <SCORE.SYSTEM.CONST>
0

>  <SCORE.SYSTEM.DIHEDRAL>
0

>  <SCORE.SYSTEM.SOLV>
0

>  <SCORE.SYSTEM.norm>
0

>  <SCORE.heavy>
11

>  <SCORE.norm>
-2.53418

>  <RMSD>
15.135

$$$$

 OpenBabel11021811383D
libRbt.so/2013.1/901 2013/11/27
 11 10  0  0  0  0  0  0  0  0999 V2000
  -11.0950    9.5443    4.3320 N   0  3  0  0  0  0  0  0  0  0  0  0
  -12.0851    8.7643    3.5302 C   0  0  2  0  0  0  0  0  0  0  0  0
  -13.5025    9.3020    3.7898 C   0  0  0  0  0  0  0  0  0  0  0  0
  -13.6791   10.2585    4.5207 O   0  0  0  0  0  0  0  0  0  0  0  0
  -12.0066    7.2843    3.9281 C   0  0  0  0  0  0  0  0  0  0  0  0
  -12.9736    6.4686    3.0654 C   0  0  0  0  0  0  0  0  0  0  0  0
  -12.4868    6.4643    1.6178 C   0  0  0  0  0  0  0  0  0  0  0  0
  -11.2418    5.6537    1.5249 N   0  3  0  0  0  0  0  0  0  0  0  0
  -10.8165    5.2370    0.3638 C   0  0  0  0  0  0  0  0  0  0  0  0
   -9.6616    5.6493   -0.0914 N   0  0  0  0  0  0  0  0  0  0  0  0
  -11.5415    4.4042   -0.3372 N   0  0  0  0  0  0  0  0  0  0  0  0
  2  1  1  1  0  0  0
  2  3  1  0  0  0  0
  2  5  1  0  0  0  0
  3  4  2  0  0  0  0
  5  6  1  0  0  0  0
  6  7  1  0  0  0  0
  7  8  1  0  0  0  0
  8  9  2  0  0  0  0
  9 10  1  0  0  0  0
  9 11  1  0  0  0  0
M  CHG  2   1   1   8   1
M  END
>  <CHROM.1>
-179.16407722,2.42046783,-177.44127236,67.55912250,69.47139596,163.57830584
-11.87980541,7.20476636,2.39105571,-1.88172682,-0.23543574,-2.46740747

>  <Name>


>  <RI>
0

>  <Rbt.Current_Directory>
/home/itssahil/PROJECTS/Mol_Feturizer/New_Systems/rnas/1aju

>  <Rbt.Executable>
rbdock ($Id: //depot/dev/client3/rdock/2013.1/src/exe/rbdock.cxx#4 $)

>  <Rbt.Library>
libRbt.so (2013.1, Build901 2013/11/27)

>  <Rbt.Parameter_File>
/export/apps/rDock/src/rDock_2013.1_src/data/scripts/dock_solv.prm

>  <Rbt.Receptor>
prm/blind_docking_60.prm

>  <SCORE>
-16.3436

>  <SCORE.INTER>
-15.0898

>  <SCORE.INTER.CONST>
1

>  <SCORE.INTER.POLAR>
-3.75234

>  <SCORE.INTER.ROT>
5

>  <SCORE.INTER.SOLV>
17.4033

>  <SCORE.INTER.VDW>
-10.2865

>  <SCORE.INTER.norm>
-1.3718

>  <SCORE.INTRA>
-1.25378

>  <SCORE.INTRA.DIHEDRAL>
-6.30592

>  <SCORE.INTRA.DIHEDRAL.0>
9.90185

>  <SCORE.INTRA.POLAR>
0

>  <SCORE.INTRA.POLAR.0>
0

>  <SCORE.INTRA.REPUL>
0

>  <SCORE.INTRA.REPUL.0>
0

>  <SCORE.INTRA.SOLV>
1.51403

>  <SCORE.INTRA.SOLV.lig_0>
-53.6586

>  <SCORE.INTRA.VDW>
1.14216

>  <SCORE.INTRA.VDW.0>
-0.556525

>  <SCORE.INTRA.norm>
-0.11398

>  <SCORE.RESTR>
0

>  <SCORE.RESTR.CAVITY>
0

>  <SCORE.RESTR.norm>
0

>  <SCORE.SYSTEM>
0

>  <SCORE.SYSTEM.CONST>
0

>  <SCORE.SYSTEM.DIHEDRAL>
0

>  <SCORE.SYSTEM.SOLV>
0

>  <SCORE.SYSTEM.norm>
0

>  <SCORE.heavy>
11

>  <SCORE.norm>
-1.48578

>  <RMSD>
15.175

$$$$

 OpenBabel11021811383D
libRbt.so/2013.1/901 2013/11/27
 11 10  0  0  0  0  0  0  0  0999 V2000
  -11.3674    8.1139    4.4486 N   0  3  0  0  0  0  0  0  0  0  0  0
  -12.4350    8.2095    3.4080 C   0  0  2  0  0  0  0  0  0  0  0  0
  -13.5783    9.1033    3.9175 C   0  0  0  0  0  0  0  0  0  0  0  0
  -13.9626   10.0533    3.2618 O   0  0  0  0  0  0  0  0  0  0  0  0
  -12.9686    6.8044    3.0984 C   0  0  0  0  0  0  0  0  0  0  0  0
  -13.7051    6.8190    1.7559 C   0  0  0  0  0  0  0  0  0  0  0  0
  -12.7025    7.0442    0.6261 C   0  0  0  0  0  0  0  0  0  0  0  0
  -11.6483    5.9954    0.6939 N   0  3  0  0  0  0  0  0  0  0  0  0
  -11.1266    5.5190   -0.4032 C   0  0  0  0  0  0  0  0  0  0  0  0
   -9.8528    5.6911   -0.6449 N   0  0  0  0  0  0  0  0  0  0  0  0
  -11.8761    4.8657   -1.2530 N   0  0  0  0  0  0  0  0  0  0  0  0
  2  1  1  1  0  0  0
  2  3  1  0  0  0  0
  2  5  1  0  0  0  0
  3  4  2  0  0  0  0
  5  6  1  0  0  0  0
  6  7  1  0  0  0  0
  7  8  1  0  0  0  0
  8  9  2  0  0  0  0
  9 10  1  0  0  0  0
  9 11  1  0  0  0  0
M  CHG  2   1   1   8   1
M  END
>  <CHROM.1>
-68.10174159,126.26886921,-161.69935111,68.45323614,56.10018013,144.62172745
-12.25317208,7.10908122,1.72350589,-1.92449092,0.32362583,-2.11842329

>  <Name>


>  <RI>
0

>  <Rbt.Current_Directory>
/home/itssahil/PROJECTS/Mol_Feturizer/New_Systems/rnas/1aju

>  <Rbt.Executable>
rbdock ($Id: //depot/dev/client3/rdock/2013.1/src/exe/rbdock.cxx#4 $)

>  <Rbt.Library>
libRbt.so (2013.1, Build901 2013/11/27)

>  <Rbt.Parameter_File>
/export/apps/rDock/src/rDock_2013.1_src/data/scripts/dock_solv.prm

>  <Rbt.Receptor>
prm/blind_docking_60.prm

>  <SCORE>
-12.1831

>  <SCORE.INTER>
-10.9348

>  <SCORE.INTER.CONST>
1

>  <SCORE.INTER.POLAR>
-2.98164

>  <SCORE.INTER.ROT>
5

>  <SCORE.INTER.SOLV>
13.5791

>  <SCORE.INTER.VDW>
-8.81076

>  <SCORE.INTER.norm>
-0.994071

>  <SCORE.INTRA>
-1.24829

>  <SCORE.INTRA.DIHEDRAL>
-5.22254

>  <SCORE.INTRA.DIHEDRAL.0>
9.90185

>  <SCORE.INTRA.POLAR>
0

>  <SCORE.INTRA.POLAR.0>
0

>  <SCORE.INTRA.REPUL>
0

>  <SCORE.INTRA.REPUL.0>
0

>  <SCORE.INTRA.SOLV>
1.11567

>  <SCORE.INTRA.SOLV.lig_0>
-53.6586

>  <SCORE.INTRA.VDW>
0.805147

>  <SCORE.INTRA.VDW.0>
-0.556525

>  <SCORE.INTRA.norm>
-0.113481

>  <SCORE.RESTR>
0

>  <SCORE.RESTR.CAVITY>
0

>  <SCORE.RESTR.norm>
0

>  <SCORE.SYSTEM>
0

>  <SCORE.SYSTEM.CONST>
0

>  <SCORE.SYSTEM.DIHEDRAL>
0

>  <SCORE.SYSTEM.SOLV>
0

>  <SCORE.SYSTEM.norm>
0

>  <SCORE.heavy>
11

>  <SCORE.norm>
-1.10755

>  <RMSD>
15.197

$$$$

 OpenBabel11021811383D
libRbt.so/2013.1/901 2013/11/27
 11 10  0  0  0  0  0  0  0  0999 V2000
   -7.5300    3.8307   -9.1856 N   0  3  0  0  0  0  0  0  0  0  0  0
   -8.4585    3.9133  -10.3530 C   0  0  2  0  0  0  0  0  0  0  0  0
   -8.1222    5.1541  -11.1973 C   0  0  0  0  0  0  0  0  0  0  0  0
   -8.9145    5.5811  -12.0159 O   0  0  0  0  0  0  0  0  0  0  0  0
   -9.9041    4.0025   -9.8458 C   0  0  0  0  0  0  0  0  0  0  0  0
  -10.1178    5.3430   -9.1370 C   0  0  0  0  0  0  0  0  0  0  0  0
  -11.4772    5.3412   -8.4409 C   0  0  0  0  0  0  0  0  0  0  0  0
  -11.5564    6.5110   -7.5237 N   0  3  0  0  0  0  0  0  0  0  0  0
  -12.7181    6.9832   -7.1630 C   0  0  0  0  0  0  0  0  0  0  0  0
  -13.0696    6.9516   -5.9035 N   0  0  0  0  0  0  0  0  0  0  0  0
  -13.5233    7.4924   -8.0591 N   0  0  0  0  0  0  0  0  0  0  0  0
  2  1  1  1  0  0  0
  2  3  1  0  0  0  0
  2  5  1  0  0  0  0
  3  4  2  0  0  0  0
  5  6  1  0  0  0  0
  6  7  1  0  0  0  0
  7  8  1  0  0  0  0
  8  9  2  0  0  0  0
  9 10  1  0  0  0  0
  9 11  1  0  0  0  0
M  CHG  2   1   1   8   1
M  END
>  <CHROM.1>
-143.84788568,-163.86860305,67.70060034,-170.99004748,168.00137605,157.26912942
-10.48764922,5.56977583,-8.95762147,-0.43903367,-0.64120547,1.86394117

>  <Name>


>  <RI>
0

>  <Rbt.Current_Directory>
/home/itssahil/PROJECTS/Mol_Feturizer/New_Systems/rnas/1aju

>  <Rbt.Executable>
rbdock ($Id: //depot/dev/client3/rdock/2013.1/src/exe/rbdock.cxx#4 $)

>  <Rbt.Library>
libRbt.so (2013.1, Build901 2013/11/27)

>  <Rbt.Parameter_File>
/export/apps/rDock/src/rDock_2013.1_src/data/scripts/dock_solv.prm

>  <Rbt.Receptor>
prm/blind_docking_40.prm

>  <SCORE>
-24.3142

>  <SCORE.INTER>
-27.5544

>  <SCORE.INTER.CONST>
1

>  <SCORE.INTER.POLAR>
-5.05861

>  <SCORE.INTER.ROT>
5

>  <SCORE.INTER.SOLV>
23.7723

>  <SCORE.INTER.VDW>
-16.365

>  <SCORE.INTER.norm>
-2.50495

>  <SCORE.INTRA>
2.50603

>  <SCORE.INTRA.DIHEDRAL>
-1.19449

>  <SCORE.INTRA.DIHEDRAL.0>
9.90185

>  <SCORE.INTRA.POLAR>
0

>  <SCORE.INTRA.POLAR.0>
0

>  <SCORE.INTRA.REPUL>
0

>  <SCORE.INTRA.REPUL.0>
0

>  <SCORE.INTRA.SOLV>
1.28125

>  <SCORE.INTRA.SOLV.lig_0>
-53.6586

>  <SCORE.INTRA.VDW>
2.46265

>  <SCORE.INTRA.VDW.0>
-0.556525

>  <SCORE.INTRA.norm>
0.22782

>  <SCORE.RESTR>
0.73419

>  <SCORE.RESTR.CAVITY>
0.73419

>  <SCORE.RESTR.norm>
0.0667446

>  <SCORE.SYSTEM>
0

>  <SCORE.SYSTEM.CONST>
0

>  <SCORE.SYSTEM.DIHEDRAL>
0

>  <SCORE.SYSTEM.SOLV>
0

>  <SCORE.SYSTEM.norm>
0

>  <SCORE.heavy>
11

>  <SCORE.norm>
-2.21038

>  <RMSD>
15.222

$$$$

 OpenBabel11021811383D
libRbt.so/2013.1/901 2013/11/27
 11 10  0  0  0  0  0  0  0  0999 V2000
  -13.8583   10.0975    4.0603 N   0  3  0  0  0  0  0  0  0  0  0  0
  -13.2968    9.1616    3.0402 C   0  0  2  0  0  0  0  0  0  0  0  0
  -14.2294    7.9492    2.8787 C   0  0  0  0  0  0  0  0  0  0  0  0
  -14.0070    6.9116    3.4738 O   0  0  0  0  0  0  0  0  0  0  0  0
  -11.9063    8.6948    3.4911 C   0  0  0  0  0  0  0  0  0  0  0  0
  -11.0644    8.3302    2.2652 C   0  0  0  0  0  0  0  0  0  0  0  0
  -11.6225    7.0626    1.6214 C   0  0  0  0  0  0  0  0  0  0  0  0
  -10.5075    6.3060    0.9888 N   0  3  0  0  0  0  0  0  0  0  0  0
  -10.7406    5.1639    0.4023 C   0  0  0  0  0  0  0  0  0  0  0  0
  -10.5272    5.0374   -0.8819 N   0  0  0  0  0  0  0  0  0  0  0  0
  -11.1794    4.1485    1.1004 N   0  0  0  0  0  0  0  0  0  0  0  0
  2  1  1  1  0  0  0
  2  3  1  0  0  0  0
  2  5  1  0  0  0  0
  3  4  2  0  0  0  0
  5  6  1  0  0  0  0
  6  7  1  0  0  0  0
  7  8  1  0  0  0  0
  8  9  2  0  0  0  0
  9 10  1  0  0  0  0
  9 11  1  0  0  0  0
M  CHG  2   1   1   8   1
M  END
>  <CHROM.1>
-61.37319076,-96.86791300,-152.92346291,-69.24529643,-149.04317096,178.26869052
-12.09544841,7.16033971,2.05175918,-2.14868021,-0.52138124,-2.75854637

>  <Name>


>  <RI>
0

>  <Rbt.Current_Directory>
/home/itssahil/PROJECTS/Mol_Feturizer/New_Systems/rnas/1aju

>  <Rbt.Executable>
rbdock ($Id: //depot/dev/client3/rdock/2013.1/src/exe/rbdock.cxx#4 $)

>  <Rbt.Library>
libRbt.so (2013.1, Build901 2013/11/27)

>  <Rbt.Parameter_File>
/export/apps/rDock/src/rDock_2013.1_src/data/scripts/dock_solv.prm

>  <Rbt.Receptor>
prm/blind_docking_60.prm

>  <SCORE>
-18.2089

>  <SCORE.INTER>
-19.8003

>  <SCORE.INTER.CONST>
1

>  <SCORE.INTER.POLAR>
-3.93773

>  <SCORE.INTER.ROT>
5

>  <SCORE.INTER.SOLV>
17.3326

>  <SCORE.INTER.VDW>
-12.7853

>  <SCORE.INTER.norm>
-1.80002

>  <SCORE.INTRA>
1.59131

>  <SCORE.INTRA.DIHEDRAL>
-0.616745

>  <SCORE.INTRA.DIHEDRAL.0>
9.90185

>  <SCORE.INTRA.POLAR>
0

>  <SCORE.INTRA.POLAR.0>
0

>  <SCORE.INTRA.REPUL>
0

>  <SCORE.INTRA.REPUL.0>
0

>  <SCORE.INTRA.SOLV>
0.558155

>  <SCORE.INTRA.SOLV.lig_0>
-53.6586

>  <SCORE.INTRA.VDW>
1.6206

>  <SCORE.INTRA.VDW.0>
-0.556525

>  <SCORE.INTRA.norm>
0.144664

>  <SCORE.RESTR>
0

>  <SCORE.RESTR.CAVITY>
0

>  <SCORE.RESTR.norm>
0

>  <SCORE.SYSTEM>
0

>  <SCORE.SYSTEM.CONST>
0

>  <SCORE.SYSTEM.DIHEDRAL>
0

>  <SCORE.SYSTEM.SOLV>
0

>  <SCORE.SYSTEM.norm>
0

>  <SCORE.heavy>
11

>  <SCORE.norm>
-1.65536

>  <RMSD>
15.222

$$$$

 OpenBabel11021811383D
libRbt.so/2013.1/901 2013/11/27
 11 10  0  0  0  0  0  0  0  0999 V2000
  -12.1305   10.2449    5.9718 N   0  3  0  0  0  0  0  0  0  0  0  0
  -11.1546    9.4457    5.1713 C   0  0  2  0  0  0  0  0  0  0  0  0
   -9.7835   10.1427    5.1778 C   0  0  0  0  0  0  0  0  0  0  0  0
   -9.4044   10.7754    4.2101 O   0  0  0  0  0  0  0  0  0  0  0  0
  -11.6673    9.3145    3.7309 C   0  0  0  0  0  0  0  0  0  0  0  0
  -10.6765    8.4879    2.9064 C   0  0  0  0  0  0  0  0  0  0  0  0
  -11.0959    8.5041    1.4380 C   0  0  0  0  0  0  0  0  0  0  0  0
  -10.1201    7.7086    0.6437 N   0  3  0  0  0  0  0  0  0  0  0  0
  -10.3586    6.4530    0.3805 C   0  0  0  0  0  0  0  0  0  0  0  0
  -10.5090    6.0665   -0.8600 N   0  0  0  0  0  0  0  0  0  0  0  0
  -10.4393    5.5849    1.3555 N   0  0  0  0  0  0  0  0  0  0  0  0
  2  1  1  1  0  0  0
  2  3  1  0  0  0  0
  2  5  1  0  0  0  0
  3  4  2  0  0  0  0
  5  6  1  0  0  0  0
  6  7  1  0  0  0  0
  7  8  1  0  0  0  0
  8  9  2  0  0  0  0
  9 10  1  0  0  0  0
  9 11  1  0  0  0  0
M  CHG  2   1   1   8   1
M  END
>  <CHROM.1>
-173.83427225,-102.79485565,-179.60980972,-172.98343548,179.48933753,94.88702513
-10.67750208,8.43127849,2.74162373,1.67421879,0.69095294,0.85719491

>  <Name>


>  <RI>
0

>  <Rbt.Current_Directory>
/home/itssahil/PROJECTS/Mol_Feturizer/New_Systems/rnas/1aju

>  <Rbt.Executable>
rbdock ($Id: //depot/dev/client3/rdock/2013.1/src/exe/rbdock.cxx#4 $)

>  <Rbt.Library>
libRbt.so (2013.1, Build901 2013/11/27)

>  <Rbt.Parameter_File>
/export/apps/rDock/src/rDock_2013.1_src/data/scripts/dock_solv.prm

>  <Rbt.Receptor>
prm/blind_docking_80.prm

>  <SCORE>
-23.9426

>  <SCORE.INTER>
-23.2359

>  <SCORE.INTER.CONST>
1

>  <SCORE.INTER.POLAR>
-4.21135

>  <SCORE.INTER.ROT>
5

>  <SCORE.INTER.SOLV>
17.8825

>  <SCORE.INTER.VDW>
-14.3469

>  <SCORE.INTER.norm>
-2.11235

>  <SCORE.INTRA>
-1.30839

>  <SCORE.INTRA.DIHEDRAL>
-6.1755

>  <SCORE.INTRA.DIHEDRAL.0>
9.90185

>  <SCORE.INTRA.POLAR>
0

>  <SCORE.INTRA.POLAR.0>
0

>  <SCORE.INTRA.REPUL>
0

>  <SCORE.INTRA.REPUL.0>
0

>  <SCORE.INTRA.SOLV>
0.741597

>  <SCORE.INTRA.SOLV.lig_0>
-53.6586

>  <SCORE.INTRA.VDW>
1.40856

>  <SCORE.INTRA.VDW.0>
-0.556525

>  <SCORE.INTRA.norm>
-0.118944

>  <SCORE.RESTR>
0.601671

>  <SCORE.RESTR.CAVITY>
0.601671

>  <SCORE.RESTR.norm>
0.0546974

>  <SCORE.SYSTEM>
0

>  <SCORE.SYSTEM.CONST>
0

>  <SCORE.SYSTEM.DIHEDRAL>
0

>  <SCORE.SYSTEM.SOLV>
0

>  <SCORE.SYSTEM.norm>
0

>  <SCORE.heavy>
11

>  <SCORE.norm>
-2.1766

>  <RMSD>
15.266

$$$$

 OpenBabel11021811383D
libRbt.so/2013.1/901 2013/11/27
 11 10  0  0  0  0  0  0  0  0999 V2000
  -11.5439    7.4872    5.7297 N   0  3  0  0  0  0  0  0  0  0  0  0
  -11.2511    8.8940    5.3213 C   0  0  2  0  0  0  0  0  0  0  0  0
  -12.0529    9.8679    6.2013 C   0  0  0  0  0  0  0  0  0  0  0  0
  -11.4905   10.5735    7.0174 O   0  0  0  0  0  0  0  0  0  0  0  0
  -11.6347    9.0845    3.8477 C   0  0  0  0  0  0  0  0  0  0  0  0
  -10.7142    8.2381    2.9638 C   0  0  0  0  0  0  0  0  0  0  0  0
  -11.0430    8.4918    1.4941 C   0  0  0  0  0  0  0  0  0  0  0  0
  -10.1130    7.7001    0.6431 N   0  3  0  0  0  0  0  0  0  0  0  0
  -10.3878    6.4581    0.3524 C   0  0  0  0  0  0  0  0  0  0  0  0
  -10.5897    6.1116   -0.8925 N   0  0  0  0  0  0  0  0  0  0  0  0
  -10.4533    5.5634    1.3042 N   0  0  0  0  0  0  0  0  0  0  0  0
  2  1  1  1  0  0  0
  2  3  1  0  0  0  0
  2  5  1  0  0  0  0
  3  4  2  0  0  0  0
  5  6  1  0  0  0  0
  6  7  1  0  0  0  0
  7  8  1  0  0  0  0
  8  9  2  0  0  0  0
  9 10  1  0  0  0  0
  9 11  1  0  0  0  0
M  CHG  2   1   1   8   1
M  END
>  <CHROM.1>
-177.20537451,110.32420315,-66.42254465,-176.68773563,178.10949865,85.60008032
-11.01970620,8.00002239,3.09925182,2.92124754,1.39391837,-0.24505404

>  <Name>


>  <RI>
0

>  <Rbt.Current_Directory>
/home/itssahil/PROJECTS/Mol_Feturizer/New_Systems/rnas/1aju

>  <Rbt.Executable>
rbdock ($Id: //depot/dev/client3/rdock/2013.1/src/exe/rbdock.cxx#4 $)

>  <Rbt.Library>
libRbt.so (2013.1, Build901 2013/11/27)

>  <Rbt.Parameter_File>
/export/apps/rDock/src/rDock_2013.1_src/data/scripts/dock_solv.prm

>  <Rbt.Receptor>
prm/blind_docking_80.prm

>  <SCORE>
-23.4083

>  <SCORE.INTER>
-21.6465

>  <SCORE.INTER.CONST>
1

>  <SCORE.INTER.POLAR>
-4.31864

>  <SCORE.INTER.ROT>
5

>  <SCORE.INTER.SOLV>
16.9438

>  <SCORE.INTER.VDW>
-12.6168

>  <SCORE.INTER.norm>
-1.96786

>  <SCORE.INTRA>
-2.34611

>  <SCORE.INTRA.DIHEDRAL>
-6.61476

>  <SCORE.INTRA.DIHEDRAL.0>
9.90185

>  <SCORE.INTRA.POLAR>
0

>  <SCORE.INTRA.POLAR.0>
0

>  <SCORE.INTRA.REPUL>
0

>  <SCORE.INTRA.REPUL.0>
0

>  <SCORE.INTRA.SOLV>
1.88042

>  <SCORE.INTRA.SOLV.lig_0>
-53.6586

>  <SCORE.INTRA.VDW>
0.0210582

>  <SCORE.INTRA.VDW.0>
-0.556525

>  <SCORE.INTRA.norm>
-0.213283

>  <SCORE.RESTR>
0.584277

>  <SCORE.RESTR.CAVITY>
0.584277

>  <SCORE.RESTR.norm>
0.0531161

>  <SCORE.SYSTEM>
0

>  <SCORE.SYSTEM.CONST>
0

>  <SCORE.SYSTEM.DIHEDRAL>
0

>  <SCORE.SYSTEM.SOLV>
0

>  <SCORE.SYSTEM.norm>
0

>  <SCORE.heavy>
11

>  <SCORE.norm>
-2.12803

>  <RMSD>
15.317

$$$$

 OpenBabel11021811383D
libRbt.so/2013.1/901 2013/11/27
 11 10  0  0  0  0  0  0  0  0999 V2000
  -11.8276    8.8035    6.0954 N   0  3  0  0  0  0  0  0  0  0  0  0
  -11.6799    8.5976    4.6231 C   0  0  2  0  0  0  0  0  0  0  0  0
  -10.5425    9.4832    4.0865 C   0  0  0  0  0  0  0  0  0  0  0  0
   -9.9970    9.2208    3.0311 O   0  0  0  0  0  0  0  0  0  0  0  0
  -12.9978    8.9602    3.9256 C   0  0  0  0  0  0  0  0  0  0  0  0
  -12.8858    8.6603    2.4282 C   0  0  0  0  0  0  0  0  0  0  0  0
  -12.6943    7.1593    2.2212 C   0  0  0  0  0  0  0  0  0  0  0  0
  -12.1507    6.9212    0.8560 N   0  3  0  0  0  0  0  0  0  0  0  0
  -10.8699    7.0321    0.6324 C   0  0  0  0  0  0  0  0  0  0  0  0
  -10.1845    5.9865    0.2483 N   0  0  0  0  0  0  0  0  0  0  0  0
  -10.2775    8.1881    0.7858 N   0  0  0  0  0  0  0  0  0  0  0  0
  2  1  1  1  0  0  0
  2  3  1  0  0  0  0
  2  5  1  0  0  0  0
  3  4  2  0  0  0  0
  5  6  1  0  0  0  0
  6  7  1  0  0  0  0
  7  8  1  0  0  0  0
  8  9  2  0  0  0  0
  9 10  1  0  0  0  0
  9 11  1  0  0  0  0
M  CHG  2   1   1   8   1
M  END
>  <CHROM.1>
179.81765796,159.17610277,-176.12418175,63.91844404,-161.68263975,82.86035910
-11.43683179,8.08831979,2.64076310,1.76075158,0.26327611,1.06569234

>  <Name>


>  <RI>
0

>  <Rbt.Current_Directory>
/home/itssahil/PROJECTS/Mol_Feturizer/New_Systems/rnas/1aju

>  <Rbt.Executable>
rbdock ($Id: //depot/dev/client3/rdock/2013.1/src/exe/rbdock.cxx#4 $)

>  <Rbt.Library>
libRbt.so (2013.1, Build901 2013/11/27)

>  <Rbt.Parameter_File>
/export/apps/rDock/src/rDock_2013.1_src/data/scripts/dock_solv.prm

>  <Rbt.Receptor>
prm/blind_docking_100.prm

>  <SCORE>
-27.525

>  <SCORE.INTER>
-28.3721

>  <SCORE.INTER.CONST>
1

>  <SCORE.INTER.POLAR>
-5.42423

>  <SCORE.INTER.ROT>
5

>  <SCORE.INTER.SOLV>
13.882

>  <SCORE.INTER.VDW>
-12.3946

>  <SCORE.INTER.norm>
-2.57928

>  <SCORE.INTRA>
0.285269

>  <SCORE.INTRA.DIHEDRAL>
-3.69736

>  <SCORE.INTRA.DIHEDRAL.0>
9.90185

>  <SCORE.INTRA.POLAR>
-0.148238

>  <SCORE.INTRA.POLAR.0>
0

>  <SCORE.INTRA.REPUL>
0

>  <SCORE.INTRA.REPUL.0>
0

>  <SCORE.INTRA.SOLV>
2.62672

>  <SCORE.INTRA.SOLV.lig_0>
-53.6586

>  <SCORE.INTRA.VDW>
1.3246

>  <SCORE.INTRA.VDW.0>
-0.556525

>  <SCORE.INTRA.norm>
0.0259335

>  <SCORE.RESTR>
0.561844

>  <SCORE.RESTR.CAVITY>
0.561844

>  <SCORE.RESTR.norm>
0.0510767

>  <SCORE.SYSTEM>
0

>  <SCORE.SYSTEM.CONST>
0

>  <SCORE.SYSTEM.DIHEDRAL>
0

>  <SCORE.SYSTEM.SOLV>
0

>  <SCORE.SYSTEM.norm>
0

>  <SCORE.heavy>
11

>  <SCORE.norm>
-2.50227

>  <RMSD>
15.388

$$$$

 OpenBabel11021811383D
libRbt.so/2013.1/901 2013/11/27
 11 10  0  0  0  0  0  0  0  0999 V2000
  -11.6565    7.3767    5.5273 N   0  3  0  0  0  0  0  0  0  0  0  0
  -11.6168    8.6998    4.8349 C   0  0  2  0  0  0  0  0  0  0  0  0
  -12.0095    9.8136    5.8203 C   0  0  0  0  0  0  0  0  0  0  0  0
  -11.1844   10.6202    6.2060 O   0  0  0  0  0  0  0  0  0  0  0  0
  -12.5925    8.6819    3.6506 C   0  0  0  0  0  0  0  0  0  0  0  0
  -11.9745    7.9005    2.4877 C   0  0  0  0  0  0  0  0  0  0  0  0
  -10.7962    8.6852    1.9145 C   0  0  0  0  0  0  0  0  0  0  0  0
  -10.0871    7.8392    0.9159 N   0  3  0  0  0  0  0  0  0  0  0  0
  -10.5197    6.6371    0.6506 C   0  0  0  0  0  0  0  0  0  0  0  0
  -10.9421    6.3496   -0.5534 N   0  0  0  0  0  0  0  0  0  0  0  0
  -10.5229    5.7226    1.5858 N   0  0  0  0  0  0  0  0  0  0  0  0
  2  1  1  1  0  0  0
  2  3  1  0  0  0  0
  2  5  1  0  0  0  0
  3  4  2  0  0  0  0
  5  6  1  0  0  0  0
  6  7  1  0  0  0  0
  7  8  1  0  0  0  0
  8  9  2  0  0  0  0
  9 10  1  0  0  0  0
  9 11  1  0  0  0  0
M  CHG  2   1   1   8   1
M  END
>  <CHROM.1>
73.29436489,110.68992699,-77.00043766,-68.94391147,172.20381307,0.82820821
-11.24937282,7.99118721,3.01470950,2.37043011,1.32619760,0.29186143

>  <Name>


>  <RI>
0

>  <Rbt.Current_Directory>
/home/itssahil/PROJECTS/Mol_Feturizer/New_Systems/rnas/1aju

>  <Rbt.Executable>
rbdock ($Id: //depot/dev/client3/rdock/2013.1/src/exe/rbdock.cxx#4 $)

>  <Rbt.Library>
libRbt.so (2013.1, Build901 2013/11/27)

>  <Rbt.Parameter_File>
/export/apps/rDock/src/rDock_2013.1_src/data/scripts/dock_solv.prm

>  <Rbt.Receptor>
prm/blind_docking_80.prm

>  <SCORE>
-18.4225

>  <SCORE.INTER>
-21.164

>  <SCORE.INTER.CONST>
1

>  <SCORE.INTER.POLAR>
-4.61667

>  <SCORE.INTER.ROT>
5

>  <SCORE.INTER.SOLV>
16.2457

>  <SCORE.INTER.VDW>
-11.069

>  <SCORE.INTER.norm>
-1.924

>  <SCORE.INTRA>
2.0959

>  <SCORE.INTRA.DIHEDRAL>
-4.87262

>  <SCORE.INTRA.DIHEDRAL.0>
9.90185

>  <SCORE.INTRA.POLAR>
0

>  <SCORE.INTRA.POLAR.0>
0

>  <SCORE.INTRA.REPUL>
0

>  <SCORE.INTRA.REPUL.0>
0

>  <SCORE.INTRA.SOLV>
2.81565

>  <SCORE.INTRA.SOLV.lig_0>
-53.6586

>  <SCORE.INTRA.VDW>
3.12439

>  <SCORE.INTRA.VDW.0>
-0.556525

>  <SCORE.INTRA.norm>
0.190537

>  <SCORE.RESTR>
0.645666

>  <SCORE.RESTR.CAVITY>
0.645666

>  <SCORE.RESTR.norm>
0.0586969

>  <SCORE.SYSTEM>
0

>  <SCORE.SYSTEM.CONST>
0

>  <SCORE.SYSTEM.DIHEDRAL>
0

>  <SCORE.SYSTEM.SOLV>
0

>  <SCORE.SYSTEM.norm>
0

>  <SCORE.heavy>
11

>  <SCORE.norm>
-1.67477

>  <RMSD>
15.404

$$$$

 OpenBabel11021811383D
libRbt.so/2013.1/901 2013/11/27
 11 10  0  0  0  0  0  0  0  0999 V2000
  -10.2889    6.6826    0.3864 N   0  3  0  0  0  0  0  0  0  0  0  0
  -10.9152    6.3226    1.6940 C   0  0  2  0  0  0  0  0  0  0  0  0
  -11.6552    4.9806    1.5633 C   0  0  0  0  0  0  0  0  0  0  0  0
  -11.5840    4.3299    0.5377 O   0  0  0  0  0  0  0  0  0  0  0  0
  -11.9007    7.4248    2.1047 C   0  0  0  0  0  0  0  0  0  0  0  0
  -11.1292    8.7037    2.4426 C   0  0  0  0  0  0  0  0  0  0  0  0
  -10.7573    8.6992    3.9239 C   0  0  0  0  0  0  0  0  0  0  0  0
  -10.6287   10.1044    4.3981 N   0  3  0  0  0  0  0  0  0  0  0  0
   -9.6274   10.4494    5.1604 C   0  0  0  0  0  0  0  0  0  0  0  0
   -8.7591   11.3296    4.7336 N   0  0  0  0  0  0  0  0  0  0  0  0
   -9.4991    9.9206    6.3498 N   0  0  0  0  0  0  0  0  0  0  0  0
  2  1  1  6  0  0  0
  2  3  1  0  0  0  0
  2  5  1  0  0  0  0
  3  4  2  0  0  0  0
  5  6  1  0  0  0  0
  6  7  1  0  0  0  0
  7  8  1  0  0  0  0
  8  9  2  0  0  0  0
  9 10  1  0  0  0  0
  9 11  1  0  0  0  0
M  CHG  2   1   1   8   1
M  END
>  <CHROM.1>
95.64937049,5.63407049,-68.20020579,-89.28959452,-152.89690214,-136.05072597
-10.58278165,8.09770703,3.00472023,-2.18336240,1.10774438,1.26693315

>  <Name>


>  <RI>
0

>  <Rbt.Current_Directory>
/home/itssahil/PROJECTS/Mol_Feturizer/New_Systems/rnas/1aju

>  <Rbt.Executable>
rbdock ($Id: //depot/dev/client3/rdock/2013.1/src/exe/rbdock.cxx#4 $)

>  <Rbt.Library>
libRbt.so (2013.1, Build901 2013/11/27)

>  <Rbt.Parameter_File>
/export/apps/rDock/src/rDock_2013.1_src/data/scripts/dock_solv.prm

>  <Rbt.Receptor>
prm/blind_docking_60.prm

>  <SCORE>
-26.136

>  <SCORE.INTER>
-28.1366

>  <SCORE.INTER.CONST>
1

>  <SCORE.INTER.POLAR>
-5.01365

>  <SCORE.INTER.ROT>
5

>  <SCORE.INTER.SOLV>
21.2436

>  <SCORE.INTER.VDW>
-16.0601

>  <SCORE.INTER.norm>
-2.55787

>  <SCORE.INTRA>
2.00057

>  <SCORE.INTRA.DIHEDRAL>
0.918478

>  <SCORE.INTRA.DIHEDRAL.0>
9.90185

>  <SCORE.INTRA.POLAR>
0

>  <SCORE.INTRA.POLAR.0>
0

>  <SCORE.INTRA.REPUL>
0

>  <SCORE.INTRA.REPUL.0>
0

>  <SCORE.INTRA.SOLV>
2.20723

>  <SCORE.INTRA.SOLV.lig_0>
-53.6586

>  <SCORE.INTRA.VDW>
0.437711

>  <SCORE.INTRA.VDW.0>
-0.556525

>  <SCORE.INTRA.norm>
0.18187

>  <SCORE.RESTR>
0

>  <SCORE.RESTR.CAVITY>
0

>  <SCORE.RESTR.norm>
0

>  <SCORE.SYSTEM>
0

>  <SCORE.SYSTEM.CONST>
0

>  <SCORE.SYSTEM.DIHEDRAL>
0

>  <SCORE.SYSTEM.SOLV>
0

>  <SCORE.SYSTEM.norm>
0

>  <SCORE.heavy>
11

>  <SCORE.norm>
-2.376

>  <RMSD>
15.457

$$$$

 OpenBabel11021811383D
libRbt.so/2013.1/901 2013/11/27
 11 10  0  0  0  0  0  0  0  0999 V2000
  -10.0138    7.3995    0.1274 N   0  3  0  0  0  0  0  0  0  0  0  0
  -10.3951    6.7132    1.3984 C   0  0  2  0  0  0  0  0  0  0  0  0
  -10.9960    5.3329    1.0831 C   0  0  0  0  0  0  0  0  0  0  0  0
  -10.9957    4.9011   -0.0543 O   0  0  0  0  0  0  0  0  0  0  0  0
  -11.4222    7.5710    2.1495 C   0  0  0  0  0  0  0  0  0  0  0  0
  -10.7433    8.8357    2.6829 C   0  0  0  0  0  0  0  0  0  0  0  0
  -10.8453    8.8660    4.2064 C   0  0  0  0  0  0  0  0  0  0  0  0
  -10.5801   10.2503    4.6850 N   0  3  0  0  0  0  0  0  0  0  0  0
   -9.4824   10.5188    5.3376 C   0  0  0  0  0  0  0  0  0  0  0  0
   -8.6136   11.3552    4.8312 N   0  0  0  0  0  0  0  0  0  0  0  0
   -9.2578    9.9574    6.4973 N   0  0  0  0  0  0  0  0  0  0  0  0
  2  1  1  6  0  0  0
  2  3  1  0  0  0  0
  2  5  1  0  0  0  0
  3  4  2  0  0  0  0
  5  6  1  0  0  0  0
  6  7  1  0  0  0  0
  7  8  1  0  0  0  0
  8  9  2  0  0  0  0
  9 10  1  0  0  0  0
  9 11  1  0  0  0  0
M  CHG  2   1   1   8   1
M  END
>  <CHROM.1>
-162.60496692,6.40928196,-69.79593860,-119.11292032,-162.56721230,-110.21738199
-10.27739747,8.35674356,2.96956522,-1.94786077,1.01414161,1.14347582

>  <Name>


>  <RI>
0

>  <Rbt.Current_Directory>
/home/itssahil/PROJECTS/Mol_Feturizer/New_Systems/rnas/1aju

>  <Rbt.Executable>
rbdock ($Id: //depot/dev/client3/rdock/2013.1/src/exe/rbdock.cxx#4 $)

>  <Rbt.Library>
libRbt.so (2013.1, Build901 2013/11/27)

>  <Rbt.Parameter_File>
/export/apps/rDock/src/rDock_2013.1_src/data/scripts/dock_solv.prm

>  <Rbt.Receptor>
prm/blind_docking_60.prm

>  <SCORE>
-27.1484

>  <SCORE.INTER>
-28.6992

>  <SCORE.INTER.CONST>
1

>  <SCORE.INTER.POLAR>
-5.19867

>  <SCORE.INTER.ROT>
5

>  <SCORE.INTER.SOLV>
25.1555

>  <SCORE.INTER.VDW>
-17.1224

>  <SCORE.INTER.norm>
-2.60902

>  <SCORE.INTRA>
1.55078

>  <SCORE.INTRA.DIHEDRAL>
1.3676

>  <SCORE.INTRA.DIHEDRAL.0>
9.90185

>  <SCORE.INTRA.POLAR>
0

>  <SCORE.INTRA.POLAR.0>
0

>  <SCORE.INTRA.REPUL>
0

>  <SCORE.INTRA.REPUL.0>
0

>  <SCORE.INTRA.SOLV>
2.08319

>  <SCORE.INTRA.SOLV.lig_0>
-53.6586

>  <SCORE.INTRA.VDW>
-0.174619

>  <SCORE.INTRA.VDW.0>
-0.556525

>  <SCORE.INTRA.norm>
0.14098

>  <SCORE.RESTR>
0

>  <SCORE.RESTR.CAVITY>
0

>  <SCORE.RESTR.norm>
0

>  <SCORE.SYSTEM>
0

>  <SCORE.SYSTEM.CONST>
0

>  <SCORE.SYSTEM.DIHEDRAL>
0

>  <SCORE.SYSTEM.SOLV>
0

>  <SCORE.SYSTEM.norm>
0

>  <SCORE.heavy>
11

>  <SCORE.norm>
-2.46804

>  <RMSD>
15.485

$$$$

 OpenBabel11021811383D
libRbt.so/2013.1/901 2013/11/27
 11 10  0  0  0  0  0  0  0  0999 V2000
   -9.9978   10.3006    5.1232 N   0  3  0  0  0  0  0  0  0  0  0  0
  -11.1809    9.6541    5.7666 C   0  0  2  0  0  0  0  0  0  0  0  0
  -10.7458    8.3567    6.4689 C   0  0  0  0  0  0  0  0  0  0  0  0
  -11.0268    7.2712    5.9966 O   0  0  0  0  0  0  0  0  0  0  0  0
  -12.2329    9.3404    4.6943 C   0  0  0  0  0  0  0  0  0  0  0  0
  -11.5839    8.5515    3.5535 C   0  0  0  0  0  0  0  0  0  0  0  0
  -12.5834    8.3926    2.4097 C   0  0  0  0  0  0  0  0  0  0  0  0
  -12.0294    7.4417    1.4073 N   0  3  0  0  0  0  0  0  0  0  0  0
  -10.7447    7.4017    1.1824 C   0  0  0  0  0  0  0  0  0  0  0  0
  -10.0728    6.3108    1.4453 N   0  0  0  0  0  0  0  0  0  0  0  0
  -10.1349    8.4482    0.6888 N   0  0  0  0  0  0  0  0  0  0  0  0
  2  1  1  6  0  0  0
  2  3  1  0  0  0  0
  2  5  1  0  0  0  0
  3  4  2  0  0  0  0
  5  6  1  0  0  0  0
  6  7  1  0  0  0  0
  7  8  1  0  0  0  0
  8  9  2  0  0  0  0
  9 10  1  0  0  0  0
  9 11  1  0  0  0  0
M  CHG  2   1   1   8   1
M  END
>  <CHROM.1>
153.66942224,-106.47744630,52.24878996,-172.91163630,-170.78167397,-34.14453658
-11.07840730,8.31265405,3.49755617,1.82043820,-1.50060336,1.48880197

>  <Name>


>  <RI>
0

>  <Rbt.Current_Directory>
/home/itssahil/PROJECTS/Mol_Feturizer/New_Systems/rnas/1aju

>  <Rbt.Executable>
rbdock ($Id: //depot/dev/client3/rdock/2013.1/src/exe/rbdock.cxx#4 $)

>  <Rbt.Library>
libRbt.so (2013.1, Build901 2013/11/27)

>  <Rbt.Parameter_File>
/export/apps/rDock/src/rDock_2013.1_src/data/scripts/dock_solv.prm

>  <Rbt.Receptor>
prm/blind_docking_80.prm

>  <SCORE>
-27.9364

>  <SCORE.INTER>
-30.8609

>  <SCORE.INTER.CONST>
1

>  <SCORE.INTER.POLAR>
-5.69202

>  <SCORE.INTER.ROT>
5

>  <SCORE.INTER.SOLV>
21.0405

>  <SCORE.INTER.VDW>
-15.5474

>  <SCORE.INTER.norm>
-2.80554

>  <SCORE.INTRA>
2.39702

>  <SCORE.INTRA.DIHEDRAL>
-4.4849

>  <SCORE.INTRA.DIHEDRAL.0>
9.90185

>  <SCORE.INTRA.POLAR>
0

>  <SCORE.INTRA.POLAR.0>
0

>  <SCORE.INTRA.REPUL>
0

>  <SCORE.INTRA.REPUL.0>
0

>  <SCORE.INTRA.SOLV>
2.40817

>  <SCORE.INTRA.SOLV.lig_0>
-53.6586

>  <SCORE.INTRA.VDW>
3.43538

>  <SCORE.INTRA.VDW.0>
-0.556525

>  <SCORE.INTRA.norm>
0.217911

>  <SCORE.RESTR>
0.527547

>  <SCORE.RESTR.CAVITY>
0.527547

>  <SCORE.RESTR.norm>
0.0479588

>  <SCORE.SYSTEM>
0

>  <SCORE.SYSTEM.CONST>
0

>  <SCORE.SYSTEM.DIHEDRAL>
0

>  <SCORE.SYSTEM.SOLV>
0

>  <SCORE.SYSTEM.norm>
0

>  <SCORE.heavy>
11

>  <SCORE.norm>
-2.53967

>  <RMSD>
15.513

$$$$

 OpenBabel11021811383D
libRbt.so/2013.1/901 2013/11/27
 11 10  0  0  0  0  0  0  0  0999 V2000
  -11.3755    9.7471    6.9688 N   0  3  0  0  0  0  0  0  0  0  0  0
  -10.8258    9.2117    5.6870 C   0  0  2  0  0  0  0  0  0  0  0  0
   -9.8229   10.2150    5.0928 C   0  0  0  0  0  0  0  0  0  0  0  0
   -9.5327   10.1768    3.9118 O   0  0  0  0  0  0  0  0  0  0  0  0
  -11.9773    8.9772    4.7002 C   0  0  0  0  0  0  0  0  0  0  0  0
  -11.4912    8.1003    3.5427 C   0  0  0  0  0  0  0  0  0  0  0  0
  -12.5649    8.0456    2.4580 C   0  0  0  0  0  0  0  0  0  0  0  0
  -12.0352    7.2968    1.2855 N   0  3  0  0  0  0  0  0  0  0  0  0
  -10.7543    7.2909    1.0363 C   0  0  0  0  0  0  0  0  0  0  0  0
  -10.0895    6.1653    1.0781 N   0  0  0  0  0  0  0  0  0  0  0  0
  -10.1414    8.4074    0.7388 N   0  0  0  0  0  0  0  0  0  0  0  0
  2  1  1  1  0  0  0
  2  3  1  0  0  0  0
  2  5  1  0  0  0  0
  3  4  2  0  0  0  0
  5  6  1  0  0  0  0
  6  7  1  0  0  0  0
  7  8  1  0  0  0  0
  8  9  2  0  0  0  0
  9 10  1  0  0  0  0
  9 11  1  0  0  0  0
M  CHG  2   1   1   8   1
M  END
>  <CHROM.1>
59.08855723,-159.75577800,-165.21851094,-171.29976505,174.81741802,-28.44922279
-10.95098136,8.51720921,3.32469566,1.57105786,0.48542238,1.08308915

>  <Name>


>  <RI>
0

>  <Rbt.Current_Directory>
/home/itssahil/PROJECTS/Mol_Feturizer/New_Systems/rnas/1aju

>  <Rbt.Executable>
rbdock ($Id: //depot/dev/client3/rdock/2013.1/src/exe/rbdock.cxx#4 $)

>  <Rbt.Library>
libRbt.so (2013.1, Build901 2013/11/27)

>  <Rbt.Parameter_File>
/export/apps/rDock/src/rDock_2013.1_src/data/scripts/dock_solv.prm

>  <Rbt.Receptor>
prm/blind_docking_80.prm

>  <SCORE>
-27.4947

>  <SCORE.INTER>
-28.4252

>  <SCORE.INTER.CONST>
1

>  <SCORE.INTER.POLAR>
-4.99335

>  <SCORE.INTER.ROT>
5

>  <SCORE.INTER.SOLV>
16.2573

>  <SCORE.INTER.VDW>
-14.658

>  <SCORE.INTER.norm>
-2.58411

>  <SCORE.INTRA>
0.502411

>  <SCORE.INTRA.DIHEDRAL>
-3.82797

>  <SCORE.INTRA.DIHEDRAL.0>
9.90185

>  <SCORE.INTRA.POLAR>
0

>  <SCORE.INTRA.POLAR.0>
0

>  <SCORE.INTRA.REPUL>
0

>  <SCORE.INTRA.REPUL.0>
0

>  <SCORE.INTRA.SOLV>
0.846834

>  <SCORE.INTRA.SOLV.lig_0>
-53.6586

>  <SCORE.INTRA.VDW>
1.99298

>  <SCORE.INTRA.VDW.0>
-0.556525

>  <SCORE.INTRA.norm>
0.0456737

>  <SCORE.RESTR>
0.428096

>  <SCORE.RESTR.CAVITY>
0.428096

>  <SCORE.RESTR.norm>
0.0389178

>  <SCORE.SYSTEM>
0

>  <SCORE.SYSTEM.CONST>
0

>  <SCORE.SYSTEM.DIHEDRAL>
0

>  <SCORE.SYSTEM.SOLV>
0

>  <SCORE.SYSTEM.norm>
0

>  <SCORE.heavy>
11

>  <SCORE.norm>
-2.49951

>  <RMSD>
15.553

$$$$

 OpenBabel11021811383D
libRbt.so/2013.1/901 2013/11/27
 11 10  0  0  0  0  0  0  0  0999 V2000
  -12.1512    9.1317    6.7584 N   0  3  0  0  0  0  0  0  0  0  0  0
  -11.1452    9.3035    5.6674 C   0  0  2  0  0  0  0  0  0  0  0  0
  -10.5513   10.7210    5.7271 C   0  0  0  0  0  0  0  0  0  0  0  0
   -9.3467   10.8881    5.7658 O   0  0  0  0  0  0  0  0  0  0  0  0
  -11.8255    9.0788    4.3104 C   0  0  0  0  0  0  0  0  0  0  0  0
  -10.7603    8.9285    3.2205 C   0  0  0  0  0  0  0  0  0  0  0  0
  -11.4369    8.6422    1.8816 C   0  0  0  0  0  0  0  0  0  0  0  0
  -10.4317    8.0810    0.9379 N   0  3  0  0  0  0  0  0  0  0  0  0
  -10.4131    6.8009    0.6856 C   0  0  0  0  0  0  0  0  0  0  0  0
  -10.6504    6.3743   -0.5279 N   0  0  0  0  0  0  0  0  0  0  0  0
  -10.1508    5.9498    1.6435 N   0  0  0  0  0  0  0  0  0  0  0  0
  2  1  1  1  0  0  0
  2  3  1  0  0  0  0
  2  5  1  0  0  0  0
  3  4  2  0  0  0  0
  5  6  1  0  0  0  0
  6  7  1  0  0  0  0
  7  8  1  0  0  0  0
  8  9  2  0  0  0  0
  9 10  1  0  0  0  0
  9 11  1  0  0  0  0
M  CHG  2   1   1   8   1
M  END
>  <CHROM.1>
62.18622413,126.98229936,-166.90676082,177.46712959,-162.31410430,102.92487575
-10.80517413,8.51464590,3.29571416,1.66871868,0.84282228,0.96693111

>  <Name>


>  <RI>
0

>  <Rbt.Current_Directory>
/home/itssahil/PROJECTS/Mol_Feturizer/New_Systems/rnas/1aju

>  <Rbt.Executable>
rbdock ($Id: //depot/dev/client3/rdock/2013.1/src/exe/rbdock.cxx#4 $)

>  <Rbt.Library>
libRbt.so (2013.1, Build901 2013/11/27)

>  <Rbt.Parameter_File>
/export/apps/rDock/src/rDock_2013.1_src/data/scripts/dock_solv.prm

>  <Rbt.Receptor>
prm/blind_docking_80.prm

>  <SCORE>
-19.3697

>  <SCORE.INTER>
-17.093

>  <SCORE.INTER.CONST>
1

>  <SCORE.INTER.POLAR>
-3.71321

>  <SCORE.INTER.ROT>
5

>  <SCORE.INTER.SOLV>
15.532

>  <SCORE.INTER.VDW>
-11.1286

>  <SCORE.INTER.norm>
-1.5539

>  <SCORE.INTRA>
-2.76626

>  <SCORE.INTRA.DIHEDRAL>
-5.17613

>  <SCORE.INTRA.DIHEDRAL.0>
9.90185

>  <SCORE.INTRA.POLAR>
0

>  <SCORE.INTRA.POLAR.0>
0

>  <SCORE.INTRA.REPUL>
0

>  <SCORE.INTRA.REPUL.0>
0

>  <SCORE.INTRA.SOLV>
0.291911

>  <SCORE.INTRA.SOLV.lig_0>
-53.6586

>  <SCORE.INTRA.VDW>
-0.324152

>  <SCORE.INTRA.VDW.0>
-0.556525

>  <SCORE.INTRA.norm>
-0.251478

>  <SCORE.RESTR>
0.489537

>  <SCORE.RESTR.CAVITY>
0.489537

>  <SCORE.RESTR.norm>
0.0445034

>  <SCORE.SYSTEM>
0

>  <SCORE.SYSTEM.CONST>
0

>  <SCORE.SYSTEM.DIHEDRAL>
0

>  <SCORE.SYSTEM.SOLV>
0

>  <SCORE.SYSTEM.norm>
0

>  <SCORE.heavy>
11

>  <SCORE.norm>
-1.76088

>  <RMSD>
15.561

$$$$

 OpenBabel11021811383D
libRbt.so/2013.1/901 2013/11/27
 11 10  0  0  0  0  0  0  0  0999 V2000
  -10.3092    8.3793    0.7562 N   0  3  0  0  0  0  0  0  0  0  0  0
  -10.8302    7.5187    1.8605 C   0  0  2  0  0  0  0  0  0  0  0  0
  -11.0416    6.0848    1.3459 C   0  0  0  0  0  0  0  0  0  0  0  0
  -10.6998    5.1284    2.0158 O   0  0  0  0  0  0  0  0  0  0  0  0
  -12.1599    8.0934    2.3670 C   0  0  0  0  0  0  0  0  0  0  0  0
  -12.6042    7.3327    3.6195 C   0  0  0  0  0  0  0  0  0  0  0  0
  -12.3003    8.1702    4.8600 C   0  0  0  0  0  0  0  0  0  0  0  0
  -10.8257    8.2401    5.0513 N   0  3  0  0  0  0  0  0  0  0  0  0
  -10.2379    9.3961    5.1959 C   0  0  0  0  0  0  0  0  0  0  0  0
   -9.6190    9.6750    6.3139 N   0  0  0  0  0  0  0  0  0  0  0  0
  -10.2631   10.2683    4.2215 N   0  0  0  0  0  0  0  0  0  0  0  0
  2  1  1  6  0  0  0
  2  3  1  0  0  0  0
  2  5  1  0  0  0  0
  3  4  2  0  0  0  0
  5  6  1  0  0  0  0
  6  7  1  0  0  0  0
  7  8  1  0  0  0  0
  8  9  2  0  0  0  0
  9 10  1  0  0  0  0
  9 11  1  0  0  0  0
M  CHG  2   1   1   8   1
M  END
>  <CHROM.1>
34.97499404,136.74731793,-172.33723078,102.28280580,-69.28084915,127.81941548
-10.94822404,8.04907390,3.40428622,-1.84496634,1.01958636,1.17115869

>  <Name>


>  <RI>
224

>  <Rbt.Current_Directory>
/home/itssahil/PROJECTS/Mol_Feturizer/New_Systems/rnas/1aju

>  <Rbt.Executable>
rbdock ($Id: //depot/dev/client3/rdock/2013.1/src/exe/rbdock.cxx#4 $)

>  <Rbt.Library>
libRbt.so (2013.1, Build901 2013/11/27)

>  <Rbt.Parameter_File>
/export/apps/rDock/src/rDock_2013.1_src/data/scripts/dock_solv.prm

>  <Rbt.Receptor>
prm/blind_docking_20.prm

>  <SCORE>
-24.9493

>  <SCORE.INTER>
-26.4387

>  <SCORE.INTER.CONST>
1

>  <SCORE.INTER.POLAR>
-5.55572

>  <SCORE.INTER.ROT>
5

>  <SCORE.INTER.SOLV>
24.4022

>  <SCORE.INTER.VDW>
-14.1741

>  <SCORE.INTER.norm>
-2.40352

>  <SCORE.INTRA>
1.14171

>  <SCORE.INTRA.DIHEDRAL>
0.320578

>  <SCORE.INTRA.DIHEDRAL.0>
9.90185

>  <SCORE.INTRA.POLAR>
0

>  <SCORE.INTRA.POLAR.0>
0

>  <SCORE.INTRA.REPUL>
0

>  <SCORE.INTRA.REPUL.0>
0

>  <SCORE.INTRA.SOLV>
2.62634

>  <SCORE.INTRA.SOLV.lig_0>
-53.6586

>  <SCORE.INTRA.VDW>
-0.331746

>  <SCORE.INTRA.VDW.0>
-0.556525

>  <SCORE.INTRA.norm>
0.103792

>  <SCORE.RESTR>
0.347705

>  <SCORE.RESTR.CAVITY>
0.347705

>  <SCORE.RESTR.norm>
0.0316096

>  <SCORE.SYSTEM>
0

>  <SCORE.SYSTEM.CONST>
0

>  <SCORE.SYSTEM.DIHEDRAL>
0

>  <SCORE.SYSTEM.SOLV>
0

>  <SCORE.SYSTEM.norm>
0

>  <SCORE.heavy>
11

>  <SCORE.norm>
-2.26812

>  <RMSD>
15.582

$$$$

 OpenBabel11021811383D
libRbt.so/2013.1/901 2013/11/27
 11 10  0  0  0  0  0  0  0  0999 V2000
  -10.2935    8.3704    0.7916 N   0  3  0  0  0  0  0  0  0  0  0  0
  -10.6795    7.5116    1.9514 C   0  0  2  0  0  0  0  0  0  0  0  0
  -10.6685    6.0327    1.5289 C   0  0  0  0  0  0  0  0  0  0  0  0
  -10.4282    5.7177    0.3785 O   0  0  0  0  0  0  0  0  0  0  0  0
  -12.0823    7.9076    2.4309 C   0  0  0  0  0  0  0  0  0  0  0  0
  -12.4189    7.1480    3.7172 C   0  0  0  0  0  0  0  0  0  0  0  0
  -12.2585    8.0795    4.9169 C   0  0  0  0  0  0  0  0  0  0  0  0
  -10.8108    8.2227    5.2323 N   0  3  0  0  0  0  0  0  0  0  0  0
  -10.3918    9.2348    5.9414 C   0  0  0  0  0  0  0  0  0  0  0  0
   -9.8331    9.0257    7.1054 N   0  0  0  0  0  0  0  0  0  0  0  0
  -10.5249   10.4529    5.4838 N   0  0  0  0  0  0  0  0  0  0  0  0
  2  1  1  6  0  0  0
  2  3  1  0  0  0  0
  2  5  1  0  0  0  0
  3  4  2  0  0  0  0
  5  6  1  0  0  0  0
  6  7  1  0  0  0  0
  7  8  1  0  0  0  0
  8  9  2  0  0  0  0
  9 10  1  0  0  0  0
  9 11  1  0  0  0  0
M  CHG  2   1   1   8   1
M  END
>  <CHROM.1>
-71.37655096,-3.05872297,-173.41724607,102.66830033,-77.49212848,160.28491002
-10.90860985,8.00186643,3.56442550,-1.63063728,0.87171016,1.15727079

>  <Name>


>  <RI>
0

>  <Rbt.Current_Directory>
/home/itssahil/PROJECTS/Mol_Feturizer/New_Systems/rnas/1aju

>  <Rbt.Executable>
rbdock ($Id: //depot/dev/client3/rdock/2013.1/src/exe/rbdock.cxx#4 $)

>  <Rbt.Library>
libRbt.so (2013.1, Build901 2013/11/27)

>  <Rbt.Parameter_File>
/export/apps/rDock/src/rDock_2013.1_src/data/scripts/dock_solv.prm

>  <Rbt.Receptor>
prm/blind_docking_80.prm

>  <SCORE>
-28.8358

>  <SCORE.INTER>
-30.3407

>  <SCORE.INTER.CONST>
1

>  <SCORE.INTER.POLAR>
-6.12799

>  <SCORE.INTER.ROT>
5

>  <SCORE.INTER.SOLV>
21.5772

>  <SCORE.INTER.VDW>
-13.9262

>  <SCORE.INTER.norm>
-2.75824

>  <SCORE.INTRA>
0.874198

>  <SCORE.INTRA.DIHEDRAL>
-0.408968

>  <SCORE.INTRA.DIHEDRAL.0>
9.90185

>  <SCORE.INTRA.POLAR>
0

>  <SCORE.INTRA.POLAR.0>
0

>  <SCORE.INTRA.REPUL>
0

>  <SCORE.INTRA.REPUL.0>
0

>  <SCORE.INTRA.SOLV>
1.93026

>  <SCORE.INTRA.SOLV.lig_0>
-53.6586

>  <SCORE.INTRA.VDW>
0.113553

>  <SCORE.INTRA.VDW.0>
-0.556525

>  <SCORE.INTRA.norm>
0.0794725

>  <SCORE.RESTR>
0.630647

>  <SCORE.RESTR.CAVITY>
0.630647

>  <SCORE.RESTR.norm>
0.0573316

>  <SCORE.SYSTEM>
0

>  <SCORE.SYSTEM.CONST>
0

>  <SCORE.SYSTEM.DIHEDRAL>
0

>  <SCORE.SYSTEM.SOLV>
0

>  <SCORE.SYSTEM.norm>
0

>  <SCORE.heavy>
11

>  <SCORE.norm>
-2.62144

>  <RMSD>
15.634

$$$$

 OpenBabel11021811383D
libRbt.so/2013.1/901 2013/11/27
 11 10  0  0  0  0  0  0  0  0999 V2000
  -11.0400   10.2665    6.6499 N   0  3  0  0  0  0  0  0  0  0  0  0
  -11.0185    9.6195    5.3036 C   0  0  2  0  0  0  0  0  0  0  0  0
   -9.9598   10.2983    4.4181 C   0  0  0  0  0  0  0  0  0  0  0  0
   -9.5520    9.7531    3.4098 O   0  0  0  0  0  0  0  0  0  0  0  0
  -12.4034    9.7504    4.6559 C   0  0  0  0  0  0  0  0  0  0  0  0
  -12.4140    9.0145    3.3131 C   0  0  0  0  0  0  0  0  0  0  0  0
  -12.0268    7.5530    3.5290 C   0  0  0  0  0  0  0  0  0  0  0  0
  -11.7535    6.9213    2.2090 N   0  3  0  0  0  0  0  0  0  0  0  0
  -10.6009    7.0991    1.6237 C   0  0  0  0  0  0  0  0  0  0  0  0
   -9.8168    6.0747    1.4081 N   0  0  0  0  0  0  0  0  0  0  0  0
  -10.2366    8.2980    1.2486 N   0  0  0  0  0  0  0  0  0  0  0  0
  2  1  1  1  0  0  0
  2  3  1  0  0  0  0
  2  5  1  0  0  0  0
  3  4  2  0  0  0  0
  5  6  1  0  0  0  0
  6  7  1  0  0  0  0
  7  8  1  0  0  0  0
  8  9  2  0  0  0  0
  9 10  1  0  0  0  0
  9 11  1  0  0  0  0
M  CHG  2   1   1   8   1
M  END
>  <CHROM.1>
59.23506781,162.84073915,-176.52294063,57.10050977,-167.91118754,80.55602267
-10.95813979,8.60602984,3.43869111,1.69103488,0.40732168,0.84723358

>  <Name>


>  <RI>
0

>  <Rbt.Current_Directory>
/home/itssahil/PROJECTS/Mol_Feturizer/New_Systems/rnas/1aju

>  <Rbt.Executable>
rbdock ($Id: //depot/dev/client3/rdock/2013.1/src/exe/rbdock.cxx#4 $)

>  <Rbt.Library>
libRbt.so (2013.1, Build901 2013/11/27)

>  <Rbt.Parameter_File>
/export/apps/rDock/src/rDock_2013.1_src/data/scripts/dock_solv.prm

>  <Rbt.Receptor>
prm/blind_docking_60.prm

>  <SCORE>
-28.3843

>  <SCORE.INTER>
-28.8955

>  <SCORE.INTER.CONST>
1

>  <SCORE.INTER.POLAR>
-5.67567

>  <SCORE.INTER.ROT>
5

>  <SCORE.INTER.SOLV>
16.7128

>  <SCORE.INTER.VDW>
-12.849

>  <SCORE.INTER.norm>
-2.62686

>  <SCORE.INTRA>
-0.128571

>  <SCORE.INTRA.DIHEDRAL>
-4.1545

>  <SCORE.INTRA.DIHEDRAL.0>
9.90185

>  <SCORE.INTRA.POLAR>
-0.204279

>  <SCORE.INTRA.POLAR.0>
0

>  <SCORE.INTRA.REPUL>
0

>  <SCORE.INTRA.REPUL.0>
0

>  <SCORE.INTRA.SOLV>
2.25922

>  <SCORE.INTRA.SOLV.lig_0>
-53.6586

>  <SCORE.INTRA.VDW>
1.51362

>  <SCORE.INTRA.VDW.0>
-0.556525

>  <SCORE.INTRA.norm>
-0.0116883

>  <SCORE.RESTR>
0.63982

>  <SCORE.RESTR.CAVITY>
0.63982

>  <SCORE.RESTR.norm>
0.0581655

>  <SCORE.SYSTEM>
0

>  <SCORE.SYSTEM.CONST>
0

>  <SCORE.SYSTEM.DIHEDRAL>
0

>  <SCORE.SYSTEM.SOLV>
0

>  <SCORE.SYSTEM.norm>
0

>  <SCORE.heavy>
11

>  <SCORE.norm>
-2.58039

>  <RMSD>
15.698

$$$$

 OpenBabel11021811383D
libRbt.so/2013.1/901 2013/11/27
 11 10  0  0  0  0  0  0  0  0999 V2000
   -9.6904   10.3335    4.9486 N   0  3  0  0  0  0  0  0  0  0  0  0
  -11.0162    9.6474    5.0054 C   0  0  2  0  0  0  0  0  0  0  0  0
  -11.4308    9.4391    6.4719 C   0  0  0  0  0  0  0  0  0  0  0  0
  -10.6764    9.7379    7.3784 O   0  0  0  0  0  0  0  0  0  0  0  0
  -10.9166    8.2919    4.2930 C   0  0  0  0  0  0  0  0  0  0  0  0
  -12.3045    7.8633    3.8083 C   0  0  0  0  0  0  0  0  0  0  0  0
  -12.6031    8.5255    2.4648 C   0  0  0  0  0  0  0  0  0  0  0  0
  -12.1319    7.6363    1.3679 N   0  3  0  0  0  0  0  0  0  0  0  0
  -10.8545    7.4961    1.1413 C   0  0  0  0  0  0  0  0  0  0  0  0
  -10.2935    6.3237    1.2879 N   0  0  0  0  0  0  0  0  0  0  0  0
  -10.1415    8.5248    0.7618 N   0  0  0  0  0  0  0  0  0  0  0  0
  2  1  1  1  0  0  0
  2  3  1  0  0  0  0
  2  5  1  0  0  0  0
  3  4  2  0  0  0  0
  5  6  1  0  0  0  0
  6  7  1  0  0  0  0
  7  8  1  0  0  0  0
  8  9  2  0  0  0  0
  9 10  1  0  0  0  0
  9 11  1  0  0  0  0
M  CHG  2   1   1   8   1
M  END
>  <CHROM.1>
-172.46574289,-4.65544218,-155.65015969,83.56974818,90.27059031,-72.22552355
-11.04290006,8.54417531,3.53432708,-1.51453174,-0.43359600,-1.96647729

>  <Name>


>  <RI>
0

>  <Rbt.Current_Directory>
/home/itssahil/PROJECTS/Mol_Feturizer/New_Systems/rnas/1aju

>  <Rbt.Executable>
rbdock ($Id: //depot/dev/client3/rdock/2013.1/src/exe/rbdock.cxx#4 $)

>  <Rbt.Library>
libRbt.so (2013.1, Build901 2013/11/27)

>  <Rbt.Parameter_File>
/export/apps/rDock/src/rDock_2013.1_src/data/scripts/dock_solv.prm

>  <Rbt.Receptor>
prm/blind_docking_80.prm

>  <SCORE>
-27.372

>  <SCORE.INTER>
-28.5674

>  <SCORE.INTER.CONST>
1

>  <SCORE.INTER.POLAR>
-5.49582

>  <SCORE.INTER.ROT>
5

>  <SCORE.INTER.SOLV>
21.0676

>  <SCORE.INTER.VDW>
-14.6814

>  <SCORE.INTER.norm>
-2.59704

>  <SCORE.INTRA>
0.666818

>  <SCORE.INTRA.DIHEDRAL>
-0.0730445

>  <SCORE.INTRA.DIHEDRAL.0>
9.90185

>  <SCORE.INTRA.POLAR>
0

>  <SCORE.INTRA.POLAR.0>
0

>  <SCORE.INTRA.REPUL>
0

>  <SCORE.INTRA.REPUL.0>
0

>  <SCORE.INTRA.SOLV>
2.14011

>  <SCORE.INTRA.SOLV.lig_0>
-53.6586

>  <SCORE.INTRA.VDW>
-0.366714

>  <SCORE.INTRA.VDW.0>
-0.556525

>  <SCORE.INTRA.norm>
0.0606198

>  <SCORE.RESTR>
0.528597

>  <SCORE.RESTR.CAVITY>
0.528597

>  <SCORE.RESTR.norm>
0.0480543

>  <SCORE.SYSTEM>
0

>  <SCORE.SYSTEM.CONST>
0

>  <SCORE.SYSTEM.DIHEDRAL>
0

>  <SCORE.SYSTEM.SOLV>
0

>  <SCORE.SYSTEM.norm>
0

>  <SCORE.heavy>
11

>  <SCORE.norm>
-2.48836

>  <RMSD>
15.716

$$$$

 OpenBabel11021811383D
libRbt.so/2013.1/901 2013/11/27
 11 10  0  0  0  0  0  0  0  0999 V2000
  -10.2778    8.2297    0.6754 N   0  3  0  0  0  0  0  0  0  0  0  0
  -10.5829    7.0893    1.5909 C   0  0  2  0  0  0  0  0  0  0  0  0
  -10.4495    5.7606    0.8277 C   0  0  0  0  0  0  0  0  0  0  0  0
   -9.9636    5.7316   -0.2874 O   0  0  0  0  0  0  0  0  0  0  0  0
  -12.0114    7.2406    2.1307 C   0  0  0  0  0  0  0  0  0  0  0  0
  -12.0499    8.3597    3.1752 C   0  0  0  0  0  0  0  0  0  0  0  0
  -10.9857    8.1011    4.2397 C   0  0  0  0  0  0  0  0  0  0  0  0
  -11.4373    8.6857    5.5321 N   0  3  0  0  0  0  0  0  0  0  0  0
  -11.0849    9.8982    5.8613 C   0  0  0  0  0  0  0  0  0  0  0  0
  -11.9984   10.8223    6.0109 N   0  0  0  0  0  0  0  0  0  0  0  0
   -9.8222   10.1838    6.0476 N   0  0  0  0  0  0  0  0  0  0  0  0
  2  1  1  6  0  0  0
  2  3  1  0  0  0  0
  2  5  1  0  0  0  0
  3  4  2  0  0  0  0
  5  6  1  0  0  0  0
  6  7  1  0  0  0  0
  7  8  1  0  0  0  0
  8  9  2  0  0  0  0
  9 10  1  0  0  0  0
  9 11  1  0  0  0  0
M  CHG  2   1   1   8   1
M  END
>  <CHROM.1>
164.67507641,10.05774395,-73.96971389,-53.17316197,-150.80344733,-92.97517995
-10.95034014,8.23048025,3.24047226,-1.45279146,0.33192192,0.94894538

>  <Name>


>  <RI>
0

>  <Rbt.Current_Directory>
/home/itssahil/PROJECTS/Mol_Feturizer/New_Systems/rnas/1aju

>  <Rbt.Executable>
rbdock ($Id: //depot/dev/client3/rdock/2013.1/src/exe/rbdock.cxx#4 $)

>  <Rbt.Library>
libRbt.so (2013.1, Build901 2013/11/27)

>  <Rbt.Parameter_File>
/export/apps/rDock/src/rDock_2013.1_src/data/scripts/dock_solv.prm

>  <Rbt.Receptor>
prm/blind_docking_80.prm

>  <SCORE>
-24.2759

>  <SCORE.INTER>
-26.3171

>  <SCORE.INTER.CONST>
1

>  <SCORE.INTER.POLAR>
-5.29388

>  <SCORE.INTER.ROT>
5

>  <SCORE.INTER.SOLV>
18.8291

>  <SCORE.INTER.VDW>
-13.1082

>  <SCORE.INTER.norm>
-2.39247

>  <SCORE.INTRA>
1.07386

>  <SCORE.INTRA.DIHEDRAL>
-2.67486

>  <SCORE.INTRA.DIHEDRAL.0>
9.90185

>  <SCORE.INTRA.POLAR>
0

>  <SCORE.INTRA.POLAR.0>
0

>  <SCORE.INTRA.REPUL>
0

>  <SCORE.INTRA.REPUL.0>
0

>  <SCORE.INTRA.SOLV>
2.61902

>  <SCORE.INTRA.SOLV.lig_0>
-53.6586

>  <SCORE.INTRA.VDW>
1.10178

>  <SCORE.INTRA.VDW.0>
-0.556525

>  <SCORE.INTRA.norm>
0.0976235

>  <SCORE.RESTR>
0.967377

>  <SCORE.RESTR.CAVITY>
0.967377

>  <SCORE.RESTR.norm>
0.0879434

>  <SCORE.SYSTEM>
0

>  <SCORE.SYSTEM.CONST>
0

>  <SCORE.SYSTEM.DIHEDRAL>
0

>  <SCORE.SYSTEM.SOLV>
0

>  <SCORE.SYSTEM.norm>
0

>  <SCORE.heavy>
11

>  <SCORE.norm>
-2.2069

>  <RMSD>
15.719

$$$$

 OpenBabel11021811383D
libRbt.so/2013.1/901 2013/11/27
 11 10  0  0  0  0  0  0  0  0999 V2000
  -10.9922    6.5218    6.3119 N   0  3  0  0  0  0  0  0  0  0  0  0
  -11.5300    7.7368    5.6292 C   0  0  2  0  0  0  0  0  0  0  0  0
  -11.9981    8.7583    6.6796 C   0  0  0  0  0  0  0  0  0  0  0  0
  -11.5697    9.8970    6.6719 O   0  0  0  0  0  0  0  0  0  0  0  0
  -12.7071    7.3345    4.7308 C   0  0  0  0  0  0  0  0  0  0  0  0
  -13.2067    8.5594    3.9596 C   0  0  0  0  0  0  0  0  0  0  0  0
  -12.1322    9.0158    2.9749 C   0  0  0  0  0  0  0  0  0  0  0  0
  -11.9814    7.9888    1.9078 N   0  3  0  0  0  0  0  0  0  0  0  0
  -10.7967    7.6873    1.4515 C   0  0  0  0  0  0  0  0  0  0  0  0
  -10.3286    6.4762    1.6092 N   0  0  0  0  0  0  0  0  0  0  0  0
  -10.0850    8.5933    0.8324 N   0  0  0  0  0  0  0  0  0  0  0  0
  2  1  1  1  0  0  0
  2  3  1  0  0  0  0
  2  5  1  0  0  0  0
  3  4  2  0  0  0  0
  5  6  1  0  0  0  0
  6  7  1  0  0  0  0
  7  8  1  0  0  0  0
  8  9  2  0  0  0  0
  9 10  1  0  0  0  0
  9 11  1  0  0  0  0
M  CHG  2   1   1   8   1
M  END
>  <CHROM.1>
67.96291681,125.07074638,-176.42167884,66.59797001,68.02369302,-140.53642627
-11.53706448,8.02491179,3.88890601,-2.01546100,1.08353613,-1.28484800

>  <Name>


>  <RI>
0

>  <Rbt.Current_Directory>
/home/itssahil/PROJECTS/Mol_Feturizer/New_Systems/rnas/1aju

>  <Rbt.Executable>
rbdock ($Id: //depot/dev/client3/rdock/2013.1/src/exe/rbdock.cxx#4 $)

>  <Rbt.Library>
libRbt.so (2013.1, Build901 2013/11/27)

>  <Rbt.Parameter_File>
/export/apps/rDock/src/rDock_2013.1_src/data/scripts/dock_solv.prm

>  <Rbt.Receptor>
prm/blind_docking_80.prm

>  <SCORE>
-24.34

>  <SCORE.INTER>
-22.3286

>  <SCORE.INTER.CONST>
1

>  <SCORE.INTER.POLAR>
-4.82107

>  <SCORE.INTER.ROT>
5

>  <SCORE.INTER.SOLV>
20.2096

>  <SCORE.INTER.VDW>
-12.4854

>  <SCORE.INTER.norm>
-2.02987

>  <SCORE.INTRA>
-2.30125

>  <SCORE.INTRA.DIHEDRAL>
-6.32524

>  <SCORE.INTRA.DIHEDRAL.0>
9.90185

>  <SCORE.INTRA.POLAR>
0

>  <SCORE.INTRA.POLAR.0>
0

>  <SCORE.INTRA.REPUL>
0

>  <SCORE.INTRA.REPUL.0>
0

>  <SCORE.INTRA.SOLV>
0.70922

>  <SCORE.INTRA.SOLV.lig_0>
-53.6586

>  <SCORE.INTRA.VDW>
0.506756

>  <SCORE.INTRA.VDW.0>
-0.556525

>  <SCORE.INTRA.norm>
-0.209205

>  <SCORE.RESTR>
0.289808

>  <SCORE.RESTR.CAVITY>
0.289808

>  <SCORE.RESTR.norm>
0.0263461

>  <SCORE.SYSTEM>
0

>  <SCORE.SYSTEM.CONST>
0

>  <SCORE.SYSTEM.DIHEDRAL>
0

>  <SCORE.SYSTEM.SOLV>
0

>  <SCORE.SYSTEM.norm>
0

>  <SCORE.heavy>
11

>  <SCORE.norm>
-2.21273

>  <RMSD>
15.751

$$$$

 OpenBabel11021811383D
libRbt.so/2013.1/901 2013/11/27
 11 10  0  0  0  0  0  0  0  0999 V2000
   -8.8413   10.9653    4.6128 N   0  3  0  0  0  0  0  0  0  0  0  0
  -10.2666   10.5178    4.6140 C   0  0  2  0  0  0  0  0  0  0  0  0
  -10.6998   10.1678    6.0477 C   0  0  0  0  0  0  0  0  0  0  0  0
  -11.7424   10.5983    6.5035 O   0  0  0  0  0  0  0  0  0  0  0  0
  -10.4125    9.2873    3.7089 C   0  0  0  0  0  0  0  0  0  0  0  0
  -11.8332    9.2338    3.1400 C   0  0  0  0  0  0  0  0  0  0  0  0
  -12.2635    7.7774    2.9775 C   0  0  0  0  0  0  0  0  0  0  0  0
  -12.0262    7.3534    1.5704 N   0  3  0  0  0  0  0  0  0  0  0  0
  -10.8119    7.3115    1.0948 C   0  0  0  0  0  0  0  0  0  0  0  0
  -10.3038    6.1693    0.7102 N   0  0  0  0  0  0  0  0  0  0  0  0
  -10.1100    8.4109    0.9973 N   0  0  0  0  0  0  0  0  0  0  0  0
  2  1  1  1  0  0  0
  2  3  1  0  0  0  0
  2  5  1  0  0  0  0
  3  4  2  0  0  0  0
  5  6  1  0  0  0  0
  6  7  1  0  0  0  0
  7  8  1  0  0  0  0
  8  9  2  0  0  0  0
  9 10  1  0  0  0  0
  9 11  1  0  0  0  0
M  CHG  2   1   1   8   1
M  END
>  <CHROM.1>
-36.60383123,131.80889278,-151.92338425,-146.70127723,-96.69680773,64.08884404
-10.80899969,8.90255443,3.26043454,-1.49456693,-0.41869873,-2.20112117

>  <Name>


>  <RI>
0

>  <Rbt.Current_Directory>
/home/itssahil/PROJECTS/Mol_Feturizer/New_Systems/rnas/1aju

>  <Rbt.Executable>
rbdock ($Id: //depot/dev/client3/rdock/2013.1/src/exe/rbdock.cxx#4 $)

>  <Rbt.Library>
libRbt.so (2013.1, Build901 2013/11/27)

>  <Rbt.Parameter_File>
/export/apps/rDock/src/rDock_2013.1_src/data/scripts/dock_solv.prm

>  <Rbt.Receptor>
prm/blind_docking_80.prm

>  <SCORE>
-26.3321

>  <SCORE.INTER>
-32.9198

>  <SCORE.INTER.CONST>
1

>  <SCORE.INTER.POLAR>
-6.25845

>  <SCORE.INTER.ROT>
5

>  <SCORE.INTER.SOLV>
22.9875

>  <SCORE.INTER.VDW>
-15.6809

>  <SCORE.INTER.norm>
-2.99271

>  <SCORE.INTRA>
6.03635

>  <SCORE.INTRA.DIHEDRAL>
4.09696

>  <SCORE.INTRA.DIHEDRAL.0>
9.90185

>  <SCORE.INTRA.POLAR>
0

>  <SCORE.INTRA.POLAR.0>
0

>  <SCORE.INTRA.REPUL>
0

>  <SCORE.INTRA.REPUL.0>
0

>  <SCORE.INTRA.SOLV>
1.66831

>  <SCORE.INTRA.SOLV.lig_0>
-53.6586

>  <SCORE.INTRA.VDW>
3.15371

>  <SCORE.INTRA.VDW.0>
-0.556525

>  <SCORE.INTRA.norm>
0.548759

>  <SCORE.RESTR>
0.551386

>  <SCORE.RESTR.CAVITY>
0.551386

>  <SCORE.RESTR.norm>
0.050126

>  <SCORE.SYSTEM>
0

>  <SCORE.SYSTEM.CONST>
0

>  <SCORE.SYSTEM.DIHEDRAL>
0

>  <SCORE.SYSTEM.SOLV>
0

>  <SCORE.SYSTEM.norm>
0

>  <SCORE.heavy>
11

>  <SCORE.norm>
-2.39383

>  <RMSD>
15.823

$$$$

 OpenBabel11021811383D
libRbt.so/2013.1/901 2013/11/27
 11 10  0  0  0  0  0  0  0  0999 V2000
  -10.3143    8.1512    0.6914 N   0  3  0  0  0  0  0  0  0  0  0  0
  -10.6038    7.0779    1.6894 C   0  0  2  0  0  0  0  0  0  0  0  0
  -11.5084    6.0084    1.0542 C   0  0  0  0  0  0  0  0  0  0  0  0
  -11.0349    4.9795    0.6098 O   0  0  0  0  0  0  0  0  0  0  0  0
  -11.3012    7.6946    2.9093 C   0  0  0  0  0  0  0  0  0  0  0  0
  -10.5088    8.9126    3.3926 C   0  0  0  0  0  0  0  0  0  0  0  0
  -10.7537    9.1213    4.8855 C   0  0  0  0  0  0  0  0  0  0  0  0
  -10.4183   10.5270    5.2425 N   0  3  0  0  0  0  0  0  0  0  0  0
   -9.2417   10.8171    5.7265 C   0  0  0  0  0  0  0  0  0  0  0  0
   -8.4430   11.6107    5.0609 N   0  0  0  0  0  0  0  0  0  0  0  0
   -8.8679   10.3201    6.8771 N   0  0  0  0  0  0  0  0  0  0  0  0
  2  1  1  6  0  0  0
  2  3  1  0  0  0  0
  2  5  1  0  0  0  0
  3  4  2  0  0  0  0
  5  6  1  0  0  0  0
  6  7  1  0  0  0  0
  7  8  1  0  0  0  0
  8  9  2  0  0  0  0
  9 10  1  0  0  0  0
  9 11  1  0  0  0  0
M  CHG  2   1   1   8   1
M  END
>  <CHROM.1>
-3.24780726,98.23111085,-49.98745611,-153.23949069,-159.46439325,-95.90777068
-10.24355935,8.68078401,3.44825855,-2.12582009,1.04782168,1.31241077

>  <Name>


>  <RI>
224

>  <Rbt.Current_Directory>
/home/itssahil/PROJECTS/Mol_Feturizer/New_Systems/rnas/1aju

>  <Rbt.Executable>
rbdock ($Id: //depot/dev/client3/rdock/2013.1/src/exe/rbdock.cxx#4 $)

>  <Rbt.Library>
libRbt.so (2013.1, Build901 2013/11/27)

>  <Rbt.Parameter_File>
/export/apps/rDock/src/rDock_2013.1_src/data/scripts/dock_solv.prm

>  <Rbt.Receptor>
prm/blind_docking_20.prm

>  <SCORE>
-34.3116

>  <SCORE.INTER>
-38.0145

>  <SCORE.INTER.CONST>
1

>  <SCORE.INTER.POLAR>
-7.33934

>  <SCORE.INTER.ROT>
5

>  <SCORE.INTER.SOLV>
25.6209

>  <SCORE.INTER.VDW>
-16.3522

>  <SCORE.INTER.norm>
-3.45587

>  <SCORE.INTRA>
3.66437

>  <SCORE.INTRA.DIHEDRAL>
1.79412

>  <SCORE.INTRA.DIHEDRAL.0>
9.90185

>  <SCORE.INTRA.POLAR>
0

>  <SCORE.INTRA.POLAR.0>
0

>  <SCORE.INTRA.REPUL>
0

>  <SCORE.INTRA.REPUL.0>
0

>  <SCORE.INTRA.SOLV>
1.73298

>  <SCORE.INTRA.SOLV.lig_0>
-53.6586

>  <SCORE.INTRA.VDW>
1.90082

>  <SCORE.INTRA.VDW.0>
-0.556525

>  <SCORE.INTRA.norm>
0.333125

>  <SCORE.RESTR>
0.0385191

>  <SCORE.RESTR.CAVITY>
0.0385191

>  <SCORE.RESTR.norm>
0.00350173

>  <SCORE.SYSTEM>
0

>  <SCORE.SYSTEM.CONST>
0

>  <SCORE.SYSTEM.DIHEDRAL>
0

>  <SCORE.SYSTEM.SOLV>
0

>  <SCORE.SYSTEM.norm>
0

>  <SCORE.heavy>
11

>  <SCORE.norm>
-3.11924

>  <RMSD>
15.855

$$$$

 OpenBabel11021811383D
libRbt.so/2013.1/901 2013/11/27
 11 10  0  0  0  0  0  0  0  0999 V2000
  -10.3968   10.4417    7.3107 N   0  3  0  0  0  0  0  0  0  0  0  0
  -10.0492    9.8236    5.9959 C   0  0  2  0  0  0  0  0  0  0  0  0
   -8.9962   10.6855    5.2790 C   0  0  0  0  0  0  0  0  0  0  0  0
   -9.2612   11.2455    4.2318 O   0  0  0  0  0  0  0  0  0  0  0  0
  -11.3145    9.7200    5.1339 C   0  0  0  0  0  0  0  0  0  0  0  0
  -11.0592    8.7721    3.9586 C   0  0  0  0  0  0  0  0  0  0  0  0
  -12.2268    8.8497    2.9773 C   0  0  0  0  0  0  0  0  0  0  0  0
  -12.0056    7.8700    1.8785 N   0  3  0  0  0  0  0  0  0  0  0  0
  -10.7971    7.6284    1.4496 C   0  0  0  0  0  0  0  0  0  0  0  0
  -10.2899    6.4296    1.5776 N   0  0  0  0  0  0  0  0  0  0  0  0
  -10.1005    8.5820    0.8876 N   0  0  0  0  0  0  0  0  0  0  0  0
  2  1  1  1  0  0  0
  2  3  1  0  0  0  0
  2  5  1  0  0  0  0
  3  4  2  0  0  0  0
  5  6  1  0  0  0  0
  6  7  1  0  0  0  0
  7  8  1  0  0  0  0
  8  9  2  0  0  0  0
  9 10  1  0  0  0  0
  9 11  1  0  0  0  0
M  CHG  2   1   1   8   1
M  END
>  <CHROM.1>
57.89921519,-115.15928941,-165.18590336,-170.54300983,-176.86427735,-34.85873956
-10.58093194,9.10225781,3.70489703,1.37547535,0.60334098,1.11895869

>  <Name>


>  <RI>
0

>  <Rbt.Current_Directory>
/home/itssahil/PROJECTS/Mol_Feturizer/New_Systems/rnas/1aju

>  <Rbt.Executable>
rbdock ($Id: //depot/dev/client3/rdock/2013.1/src/exe/rbdock.cxx#4 $)

>  <Rbt.Library>
libRbt.so (2013.1, Build901 2013/11/27)

>  <Rbt.Parameter_File>
/export/apps/rDock/src/rDock_2013.1_src/data/scripts/dock_solv.prm

>  <Rbt.Receptor>
prm/blind_docking_80.prm

>  <SCORE>
-24.557

>  <SCORE.INTER>
-24.1619

>  <SCORE.INTER.CONST>
1

>  <SCORE.INTER.POLAR>
-3.87038

>  <SCORE.INTER.ROT>
5

>  <SCORE.INTER.SOLV>
17.0948

>  <SCORE.INTER.VDW>
-15.8383

>  <SCORE.INTER.norm>
-2.19654

>  <SCORE.INTRA>
-0.560767

>  <SCORE.INTRA.DIHEDRAL>
-5.80346

>  <SCORE.INTRA.DIHEDRAL.0>
9.90185

>  <SCORE.INTRA.POLAR>
0

>  <SCORE.INTRA.POLAR.0>
0

>  <SCORE.INTRA.REPUL>
0

>  <SCORE.INTRA.REPUL.0>
0

>  <SCORE.INTRA.SOLV>
0.771413

>  <SCORE.INTRA.SOLV.lig_0>
-53.6586

>  <SCORE.INTRA.VDW>
1.95526

>  <SCORE.INTRA.VDW.0>
-0.556525

>  <SCORE.INTRA.norm>
-0.0509789

>  <SCORE.RESTR>
0.165723

>  <SCORE.RESTR.CAVITY>
0.165723

>  <SCORE.RESTR.norm>
0.0150657

>  <SCORE.SYSTEM>
0

>  <SCORE.SYSTEM.CONST>
0

>  <SCORE.SYSTEM.DIHEDRAL>
0

>  <SCORE.SYSTEM.SOLV>
0

>  <SCORE.SYSTEM.norm>
0

>  <SCORE.heavy>
11

>  <SCORE.norm>
-2.23245

>  <RMSD>
15.876

$$$$

 OpenBabel11021811383D
libRbt.so/2013.1/901 2013/11/27
 11 10  0  0  0  0  0  0  0  0999 V2000
  -10.7467    8.9913    7.0646 N   0  3  0  0  0  0  0  0  0  0  0  0
  -10.0269    9.5624    5.8867 C   0  0  2  0  0  0  0  0  0  0  0  0
   -9.3385   10.8783    6.2869 C   0  0  0  0  0  0  0  0  0  0  0  0
   -9.5184   11.3628    7.3884 O   0  0  0  0  0  0  0  0  0  0  0  0
  -11.0310    9.8211    4.7554 C   0  0  0  0  0  0  0  0  0  0  0  0
  -11.3192    8.5119    4.0153 C   0  0  0  0  0  0  0  0  0  0  0  0
  -12.2712    8.7820    2.8520 C   0  0  0  0  0  0  0  0  0  0  0  0
  -12.0012    7.8027    1.7640 N   0  3  0  0  0  0  0  0  0  0  0  0
  -10.7781    7.5910    1.3617 C   0  0  0  0  0  0  0  0  0  0  0  0
  -10.2420    6.4069    1.5073 N   0  0  0  0  0  0  0  0  0  0  0  0
  -10.0954    8.5598    0.8085 N   0  0  0  0  0  0  0  0  0  0  0  0
  2  1  1  1  0  0  0
  2  3  1  0  0  0  0
  2  5  1  0  0  0  0
  3  4  2  0  0  0  0
  5  6  1  0  0  0  0
  6  7  1  0  0  0  0
  7  8  1  0  0  0  0
  8  9  2  0  0  0  0
  9 10  1  0  0  0  0
  9 11  1  0  0  0  0
M  CHG  2   1   1   8   1
M  END
>  <CHROM.1>
-56.80402562,-6.14597780,-80.46324281,-177.55072974,150.12779495,-48.40711325
-10.66592237,8.91555667,3.99504683,1.37597077,0.63566083,1.20910984

>  <Name>


>  <RI>
0

>  <Rbt.Current_Directory>
/home/itssahil/PROJECTS/Mol_Feturizer/New_Systems/rnas/1aju

>  <Rbt.Executable>
rbdock ($Id: //depot/dev/client3/rdock/2013.1/src/exe/rbdock.cxx#4 $)

>  <Rbt.Library>
libRbt.so (2013.1, Build901 2013/11/27)

>  <Rbt.Parameter_File>
/export/apps/rDock/src/rDock_2013.1_src/data/scripts/dock_solv.prm

>  <Rbt.Receptor>
prm/blind_docking_80.prm

>  <SCORE>
-22.0884

>  <SCORE.INTER>
-22.2931

>  <SCORE.INTER.CONST>
1

>  <SCORE.INTER.POLAR>
-3.93742

>  <SCORE.INTER.ROT>
5

>  <SCORE.INTER.SOLV>
16.3605

>  <SCORE.INTER.VDW>
-14.1242

>  <SCORE.INTER.norm>
-2.02665

>  <SCORE.INTRA>
-0.0362594

>  <SCORE.INTRA.DIHEDRAL>
-2.78922

>  <SCORE.INTRA.DIHEDRAL.0>
9.90185

>  <SCORE.INTRA.POLAR>
0

>  <SCORE.INTRA.POLAR.0>
0

>  <SCORE.INTRA.REPUL>
0

>  <SCORE.INTRA.REPUL.0>
0

>  <SCORE.INTRA.SOLV>
2.37978

>  <SCORE.INTRA.SOLV.lig_0>
-53.6586

>  <SCORE.INTRA.VDW>
0.168459

>  <SCORE.INTRA.VDW.0>
-0.556525

>  <SCORE.INTRA.norm>
-0.00329631

>  <SCORE.RESTR>
0.241018

>  <SCORE.RESTR.CAVITY>
0.241018

>  <SCORE.RESTR.norm>
0.0219107

>  <SCORE.SYSTEM>
0

>  <SCORE.SYSTEM.CONST>
0

>  <SCORE.SYSTEM.DIHEDRAL>
0

>  <SCORE.SYSTEM.SOLV>
0

>  <SCORE.SYSTEM.norm>
0

>  <SCORE.heavy>
11

>  <SCORE.norm>
-2.00803

>  <RMSD>
15.907

$$$$

 OpenBabel11021811383D
libRbt.so/2013.1/901 2013/11/27
 11 10  0  0  0  0  0  0  0  0999 V2000
   -8.6963   12.2022    5.5259 N   0  3  0  0  0  0  0  0  0  0  0  0
   -9.6779   11.0807    5.6272 C   0  0  2  0  0  0  0  0  0  0  0  0
   -9.3046   10.1689    6.8083 C   0  0  0  0  0  0  0  0  0  0  0  0
  -10.1525    9.7982    7.5982 O   0  0  0  0  0  0  0  0  0  0  0  0
   -9.6645   10.2755    4.3209 C   0  0  0  0  0  0  0  0  0  0  0  0
  -10.9352    9.4261    4.2281 C   0  0  0  0  0  0  0  0  0  0  0  0
  -10.6801    8.2230    3.3225 C   0  0  0  0  0  0  0  0  0  0  0  0
  -11.0653    8.5727    1.9278 N   0  3  0  0  0  0  0  0  0  0  0  0
  -11.2847    7.6298    1.0528 C   0  0  0  0  0  0  0  0  0  0  0  0
  -12.4746    7.4961    0.5263 N   0  0  0  0  0  0  0  0  0  0  0  0
  -10.3142    6.8271    0.7001 N   0  0  0  0  0  0  0  0  0  0  0  0
  2  1  1  6  0  0  0
  2  3  1  0  0  0  0
  2  5  1  0  0  0  0
  3  4  2  0  0  0  0
  5  6  1  0  0  0  0
  6  7  1  0  0  0  0
  7  8  1  0  0  0  0
  8  9  2  0  0  0  0
  9 10  1  0  0  0  0
  9 11  1  0  0  0  0
M  CHG  2   1   1   8   1
M  END
>  <CHROM.1>
54.23132378,133.61087932,-162.23977082,-155.41732890,-92.05381103,-161.36369422
-10.37842616,9.26102513,3.77182028,-0.96665457,-1.03494987,-1.59794923

>  <Name>


>  <RI>
0

>  <Rbt.Current_Directory>
/home/itssahil/PROJECTS/Mol_Feturizer/New_Systems/rnas/1aju

>  <Rbt.Executable>
rbdock ($Id: //depot/dev/client3/rdock/2013.1/src/exe/rbdock.cxx#4 $)

>  <Rbt.Library>
libRbt.so (2013.1, Build901 2013/11/27)

>  <Rbt.Parameter_File>
/export/apps/rDock/src/rDock_2013.1_src/data/scripts/dock_solv.prm

>  <Rbt.Receptor>
prm/blind_docking_80.prm

>  <SCORE>
-24.534

>  <SCORE.INTER>
-24.6581

>  <SCORE.INTER.CONST>
1

>  <SCORE.INTER.POLAR>
-4.90561

>  <SCORE.INTER.ROT>
5

>  <SCORE.INTER.SOLV>
20.4552

>  <SCORE.INTER.VDW>
-13.8384

>  <SCORE.INTER.norm>
-2.24164

>  <SCORE.INTRA>
-0.263927

>  <SCORE.INTRA.DIHEDRAL>
-0.279007

>  <SCORE.INTRA.DIHEDRAL.0>
9.90185

>  <SCORE.INTRA.POLAR>
0

>  <SCORE.INTRA.POLAR.0>
0

>  <SCORE.INTRA.REPUL>
0

>  <SCORE.INTRA.REPUL.0>
0

>  <SCORE.INTRA.SOLV>
0.0291855

>  <SCORE.INTRA.SOLV.lig_0>
-53.6586

>  <SCORE.INTRA.VDW>
-0.139017

>  <SCORE.INTRA.VDW.0>
-0.556525

>  <SCORE.INTRA.norm>
-0.0239934

>  <SCORE.RESTR>
0.38796

>  <SCORE.RESTR.CAVITY>
0.38796

>  <SCORE.RESTR.norm>
0.0352691

>  <SCORE.SYSTEM>
0

>  <SCORE.SYSTEM.CONST>
0

>  <SCORE.SYSTEM.DIHEDRAL>
0

>  <SCORE.SYSTEM.SOLV>
0

>  <SCORE.SYSTEM.norm>
0

>  <SCORE.heavy>
11

>  <SCORE.norm>
-2.23037

>  <RMSD>
15.909

$$$$

 OpenBabel11021811383D
libRbt.so/2013.1/901 2013/11/27
 11 10  0  0  0  0  0  0  0  0999 V2000
   -8.8523   11.5415    5.0437 N   0  3  0  0  0  0  0  0  0  0  0  0
  -10.0041   10.6167    5.2664 C   0  0  2  0  0  0  0  0  0  0  0  0
   -9.7592    9.7778    6.5322 C   0  0  0  0  0  0  0  0  0  0  0  0
  -10.5229    9.8428    7.4771 O   0  0  0  0  0  0  0  0  0  0  0  0
  -10.1565    9.6942    4.0496 C   0  0  0  0  0  0  0  0  0  0  0  0
  -11.4213    8.8450    4.2041 C   0  0  0  0  0  0  0  0  0  0  0  0
  -12.2932    8.9968    2.9594 C   0  0  0  0  0  0  0  0  0  0  0  0
  -11.9931    7.8853    2.0159 N   0  3  0  0  0  0  0  0  0  0  0  0
  -10.8105    7.7881    1.4729 C   0  0  0  0  0  0  0  0  0  0  0  0
  -10.0634    6.7446    1.7253 N   0  0  0  0  0  0  0  0  0  0  0  0
  -10.3792    8.7293    0.6736 N   0  0  0  0  0  0  0  0  0  0  0  0
  2  1  1  6  0  0  0
  2  3  1  0  0  0  0
  2  5  1  0  0  0  0
  3  4  2  0  0  0  0
  5  6  1  0  0  0  0
  6  7  1  0  0  0  0
  7  8  1  0  0  0  0
  8  9  2  0  0  0  0
  9 10  1  0  0  0  0
  9 11  1  0  0  0  0
M  CHG  2   1   1   8   1
M  END
>  <CHROM.1>
-62.20479994,119.16419776,-174.08067688,126.73711435,94.78094880,-64.64182133
-10.53534829,9.14721613,3.75749872,-1.29829487,-0.74932408,-1.88280072

>  <Name>


>  <RI>
0

>  <Rbt.Current_Directory>
/home/itssahil/PROJECTS/Mol_Feturizer/New_Systems/rnas/1aju

>  <Rbt.Executable>
rbdock ($Id: //depot/dev/client3/rdock/2013.1/src/exe/rbdock.cxx#4 $)

>  <Rbt.Library>
libRbt.so (2013.1, Build901 2013/11/27)

>  <Rbt.Parameter_File>
/export/apps/rDock/src/rDock_2013.1_src/data/scripts/dock_solv.prm

>  <Rbt.Receptor>
prm/blind_docking_80.prm

>  <SCORE>
-25.4559

>  <SCORE.INTER>
-27.2473

>  <SCORE.INTER.CONST>
1

>  <SCORE.INTER.POLAR>
-4.93182

>  <SCORE.INTER.ROT>
5

>  <SCORE.INTER.SOLV>
24.8861

>  <SCORE.INTER.VDW>
-16.9542

>  <SCORE.INTER.norm>
-2.47703

>  <SCORE.INTRA>
1.63551

>  <SCORE.INTRA.DIHEDRAL>
2.57215

>  <SCORE.INTRA.DIHEDRAL.0>
9.90185

>  <SCORE.INTRA.POLAR>
0

>  <SCORE.INTRA.POLAR.0>
0

>  <SCORE.INTRA.REPUL>
0

>  <SCORE.INTRA.REPUL.0>
0

>  <SCORE.INTRA.SOLV>
0.873499

>  <SCORE.INTRA.SOLV.lig_0>
-53.6586

>  <SCORE.INTRA.VDW>
-0.0873119

>  <SCORE.INTRA.VDW.0>
-0.556525

>  <SCORE.INTRA.norm>
0.148683

>  <SCORE.RESTR>
0.155873

>  <SCORE.RESTR.CAVITY>
0.155873

>  <SCORE.RESTR.norm>
0.0141703

>  <SCORE.SYSTEM>
0

>  <SCORE.SYSTEM.CONST>
0

>  <SCORE.SYSTEM.DIHEDRAL>
0

>  <SCORE.SYSTEM.SOLV>
0

>  <SCORE.SYSTEM.norm>
0

>  <SCORE.heavy>
11

>  <SCORE.norm>
-2.31417

>  <RMSD>
15.918

$$$$

 OpenBabel11021811383D
libRbt.so/2013.1/901 2013/11/27
 11 10  0  0  0  0  0  0  0  0999 V2000
  -10.2631    8.3405    0.8388 N   0  3  0  0  0  0  0  0  0  0  0  0
  -10.5277    7.4356    1.9976 C   0  0  2  0  0  0  0  0  0  0  0  0
  -10.6809    5.9878    1.5015 C   0  0  0  0  0  0  0  0  0  0  0  0
  -10.4643    5.7042    0.3384 O   0  0  0  0  0  0  0  0  0  0  0  0
  -11.8123    7.8833    2.7077 C   0  0  0  0  0  0  0  0  0  0  0  0
  -11.5717    9.2238    3.4078 C   0  0  0  0  0  0  0  0  0  0  0  0
  -10.6135    9.0227    4.5799 C   0  0  0  0  0  0  0  0  0  0  0  0
  -10.3747   10.3332    5.2444 N   0  3  0  0  0  0  0  0  0  0  0  0
   -9.4956   10.4308    6.2037 C   0  0  0  0  0  0  0  0  0  0  0  0
   -8.4446   11.1934    6.0467 N   0  0  0  0  0  0  0  0  0  0  0  0
   -9.6711    9.7727    7.3202 N   0  0  0  0  0  0  0  0  0  0  0  0
  2  1  1  6  0  0  0
  2  3  1  0  0  0  0
  2  5  1  0  0  0  0
  3  4  2  0  0  0  0
  5  6  1  0  0  0  0
  6  7  1  0  0  0  0
  7  8  1  0  0  0  0
  8  9  2  0  0  0  0
  9 10  1  0  0  0  0
  9 11  1  0  0  0  0
M  CHG  2   1   1   8   1
M  END
>  <CHROM.1>
-79.18632572,6.69610936,-69.30120169,-68.83405552,179.39744176,-174.03128006
-10.32916127,8.69105978,3.63460045,-1.86226333,0.86310480,1.18079988

>  <Name>


>  <RI>
0

>  <Rbt.Current_Directory>
/home/itssahil/PROJECTS/Mol_Feturizer/New_Systems/rnas/1aju

>  <Rbt.Executable>
rbdock ($Id: //depot/dev/client3/rdock/2013.1/src/exe/rbdock.cxx#4 $)

>  <Rbt.Library>
libRbt.so (2013.1, Build901 2013/11/27)

>  <Rbt.Parameter_File>
/export/apps/rDock/src/rDock_2013.1_src/data/scripts/dock_solv.prm

>  <Rbt.Receptor>
prm/blind_docking_80.prm

>  <SCORE>
-34.8639

>  <SCORE.INTER>
-34.6885

>  <SCORE.INTER.CONST>
1

>  <SCORE.INTER.POLAR>
-6.19063

>  <SCORE.INTER.ROT>
5

>  <SCORE.INTER.SOLV>
22.2672

>  <SCORE.INTER.VDW>
-16.846

>  <SCORE.INTER.norm>
-3.1535

>  <SCORE.INTRA>
-0.586193

>  <SCORE.INTRA.DIHEDRAL>
-5.43089

>  <SCORE.INTRA.DIHEDRAL.0>
9.90185

>  <SCORE.INTRA.POLAR>
0

>  <SCORE.INTRA.POLAR.0>
0

>  <SCORE.INTRA.REPUL>
0

>  <SCORE.INTRA.REPUL.0>
0

>  <SCORE.INTRA.SOLV>
2.32656

>  <SCORE.INTRA.SOLV.lig_0>
-53.6586

>  <SCORE.INTRA.VDW>
0.965974

>  <SCORE.INTRA.VDW.0>
-0.556525

>  <SCORE.INTRA.norm>
-0.0532903

>  <SCORE.RESTR>
0.410748

>  <SCORE.RESTR.CAVITY>
0.410748

>  <SCORE.RESTR.norm>
0.0373407

>  <SCORE.SYSTEM>
0

>  <SCORE.SYSTEM.CONST>
0

>  <SCORE.SYSTEM.DIHEDRAL>
0

>  <SCORE.SYSTEM.SOLV>
0

>  <SCORE.SYSTEM.norm>
0

>  <SCORE.heavy>
11

>  <SCORE.norm>
-3.16945

>  <RMSD>
15.933

$$$$

 OpenBabel11021811383D
libRbt.so/2013.1/901 2013/11/27
 11 10  0  0  0  0  0  0  0  0999 V2000
  -10.4221   10.6875    6.9774 N   0  3  0  0  0  0  0  0  0  0  0  0
  -10.0858    9.9905    5.6996 C   0  0  2  0  0  0  0  0  0  0  0  0
   -9.1908   10.8945    4.8350 C   0  0  0  0  0  0  0  0  0  0  0  0
   -8.8972   12.0152    5.2067 O   0  0  0  0  0  0  0  0  0  0  0  0
  -11.3810    9.6621    4.9451 C   0  0  0  0  0  0  0  0  0  0  0  0
  -11.0682    8.7345    3.7675 C   0  0  0  0  0  0  0  0  0  0  0  0
  -12.2905    8.6352    2.8572 C   0  0  0  0  0  0  0  0  0  0  0  0
  -11.9865    7.7086    1.7326 N   0  3  0  0  0  0  0  0  0  0  0  0
  -10.7546    7.5424    1.3355 C   0  0  0  0  0  0  0  0  0  0  0  0
  -10.1921    6.3660    1.4378 N   0  0  0  0  0  0  0  0  0  0  0  0
  -10.0895    8.5490    0.8304 N   0  0  0  0  0  0  0  0  0  0  0  0
  2  1  1  1  0  0  0
  2  3  1  0  0  0  0
  2  5  1  0  0  0  0
  3  4  2  0  0  0  0
  5  6  1  0  0  0  0
  6  7  1  0  0  0  0
  7  8  1  0  0  0  0
  8  9  2  0  0  0  0
  9 10  1  0  0  0  0
  9 11  1  0  0  0  0
M  CHG  2   1   1   8   1
M  END
>  <CHROM.1>
-60.80002431,-2.39974499,-169.95857498,-168.60396359,-178.77409078,-26.68934179
-10.56200072,9.17796426,3.62073551,1.34895482,0.57259225,1.02839687

>  <Name>


>  <RI>
0

>  <Rbt.Current_Directory>
/home/itssahil/PROJECTS/Mol_Feturizer/New_Systems/rnas/1aju

>  <Rbt.Executable>
rbdock ($Id: //depot/dev/client3/rdock/2013.1/src/exe/rbdock.cxx#4 $)

>  <Rbt.Library>
libRbt.so (2013.1, Build901 2013/11/27)

>  <Rbt.Parameter_File>
/export/apps/rDock/src/rDock_2013.1_src/data/scripts/dock_solv.prm

>  <Rbt.Receptor>
prm/blind_docking_80.prm

>  <SCORE>
-25.7553

>  <SCORE.INTER>
-25.559

>  <SCORE.INTER.CONST>
1

>  <SCORE.INTER.POLAR>
-3.97482

>  <SCORE.INTER.ROT>
5

>  <SCORE.INTER.SOLV>
17.189

>  <SCORE.INTER.VDW>
-16.453

>  <SCORE.INTER.norm>
-2.32355

>  <SCORE.INTRA>
-0.515718

>  <SCORE.INTRA.DIHEDRAL>
-6.1094

>  <SCORE.INTRA.DIHEDRAL.0>
9.90185

>  <SCORE.INTRA.POLAR>
0

>  <SCORE.INTRA.POLAR.0>
0

>  <SCORE.INTRA.REPUL>
0

>  <SCORE.INTRA.REPUL.0>
0

>  <SCORE.INTRA.SOLV>
1.62803

>  <SCORE.INTRA.SOLV.lig_0>
-53.6586

>  <SCORE.INTRA.VDW>
1.72497

>  <SCORE.INTRA.VDW.0>
-0.556525

>  <SCORE.INTRA.norm>
-0.0468835

>  <SCORE.RESTR>
0.319482

>  <SCORE.RESTR.CAVITY>
0.319482

>  <SCORE.RESTR.norm>
0.0290438

>  <SCORE.SYSTEM>
0

>  <SCORE.SYSTEM.CONST>
0

>  <SCORE.SYSTEM.DIHEDRAL>
0

>  <SCORE.SYSTEM.SOLV>
0

>  <SCORE.SYSTEM.norm>
0

>  <SCORE.heavy>
11

>  <SCORE.norm>
-2.34139

>  <RMSD>
15.937

$$$$

 OpenBabel11021811383D
libRbt.so/2013.1/901 2013/11/27
 11 10  0  0  0  0  0  0  0  0999 V2000
  -10.2321    8.3710    0.8394 N   0  3  0  0  0  0  0  0  0  0  0  0
  -10.4662    7.4592    1.9993 C   0  0  2  0  0  0  0  0  0  0  0  0
  -10.6767    6.0213    1.4954 C   0  0  0  0  0  0  0  0  0  0  0  0
  -10.5433    5.7511    0.3167 O   0  0  0  0  0  0  0  0  0  0  0  0
  -11.7063    7.9290    2.7715 C   0  0  0  0  0  0  0  0  0  0  0  0
  -11.4223    9.2854    3.4230 C   0  0  0  0  0  0  0  0  0  0  0  0
  -10.5245    9.0877    4.6427 C   0  0  0  0  0  0  0  0  0  0  0  0
  -10.1397   10.4194    5.1853 N   0  3  0  0  0  0  0  0  0  0  0  0
   -9.4379   10.5020    6.2822 C   0  0  0  0  0  0  0  0  0  0  0  0
   -8.2416   11.0299    6.2500 N   0  0  0  0  0  0  0  0  0  0  0  0
   -9.9345   10.0639    7.4101 N   0  0  0  0  0  0  0  0  0  0  0  0
  2  1  1  6  0  0  0
  2  3  1  0  0  0  0
  2  5  1  0  0  0  0
  3  4  2  0  0  0  0
  5  6  1  0  0  0  0
  6  7  1  0  0  0  0
  7  8  1  0  0  0  0
  8  9  2  0  0  0  0
  9 10  1  0  0  0  0
  9 11  1  0  0  0  0
M  CHG  2   1   1   8   1
M  END
>  <CHROM.1>
-82.13254576,5.35053587,-66.81335032,-75.32580587,174.21095988,175.78309551
-10.27746732,8.74501725,3.67372058,-1.81137091,0.66037227,1.11299013

>  <Name>


>  <RI>
0

>  <Rbt.Current_Directory>
/home/itssahil/PROJECTS/Mol_Feturizer/New_Systems/rnas/1aju

>  <Rbt.Executable>
rbdock ($Id: //depot/dev/client3/rdock/2013.1/src/exe/rbdock.cxx#4 $)

>  <Rbt.Library>
libRbt.so (2013.1, Build901 2013/11/27)

>  <Rbt.Parameter_File>
/export/apps/rDock/src/rDock_2013.1_src/data/scripts/dock_solv.prm

>  <Rbt.Receptor>
prm/blind_docking_80.prm

>  <SCORE>
-35.0259

>  <SCORE.INTER>
-35.2946

>  <SCORE.INTER.CONST>
1

>  <SCORE.INTER.POLAR>
-6.35711

>  <SCORE.INTER.ROT>
5

>  <SCORE.INTER.SOLV>
22.2225

>  <SCORE.INTER.VDW>
-16.6802

>  <SCORE.INTER.norm>
-3.2086

>  <SCORE.INTRA>
-0.110028

>  <SCORE.INTRA.DIHEDRAL>
-4.58965

>  <SCORE.INTRA.DIHEDRAL.0>
9.90185

>  <SCORE.INTRA.POLAR>
0

>  <SCORE.INTRA.POLAR.0>
0

>  <SCORE.INTRA.REPUL>
0

>  <SCORE.INTRA.REPUL.0>
0

>  <SCORE.INTRA.SOLV>
2.37029

>  <SCORE.INTRA.SOLV.lig_0>
-53.6586

>  <SCORE.INTRA.VDW>
0.999653

>  <SCORE.INTRA.VDW.0>
-0.556525

>  <SCORE.INTRA.norm>
-0.0100025

>  <SCORE.RESTR>
0.378686

>  <SCORE.RESTR.CAVITY>
0.378686

>  <SCORE.RESTR.norm>
0.034426

>  <SCORE.SYSTEM>
0

>  <SCORE.SYSTEM.CONST>
0

>  <SCORE.SYSTEM.DIHEDRAL>
0

>  <SCORE.SYSTEM.SOLV>
0

>  <SCORE.SYSTEM.norm>
0

>  <SCORE.heavy>
11

>  <SCORE.norm>
-3.18417

>  <RMSD>
15.970

$$$$

 OpenBabel11021811383D
libRbt.so/2013.1/901 2013/11/27
 11 10  0  0  0  0  0  0  0  0999 V2000
  -12.7332    9.3744    3.0475 N   0  3  0  0  0  0  0  0  0  0  0  0
  -14.0847    9.1722    2.4438 C   0  0  2  0  0  0  0  0  0  0  0  0
  -15.1048    8.8527    3.5497 C   0  0  0  0  0  0  0  0  0  0  0  0
  -14.8107    8.9860    4.7227 O   0  0  0  0  0  0  0  0  0  0  0  0
  -14.0232    8.0139    1.4391 C   0  0  0  0  0  0  0  0  0  0  0  0
  -13.5114    6.7525    2.1403 C   0  0  0  0  0  0  0  0  0  0  0  0
  -13.0695    5.7309    1.0945 C   0  0  0  0  0  0  0  0  0  0  0  0
  -12.1100    6.3768    0.1575 N   0  3  0  0  0  0  0  0  0  0  0  0
  -10.8387    6.4199    0.4483 C   0  0  0  0  0  0  0  0  0  0  0  0
   -9.9759    5.8026   -0.3167 N   0  0  0  0  0  0  0  0  0  0  0  0
  -10.4307    7.0851    1.4980 N   0  0  0  0  0  0  0  0  0  0  0  0
  2  1  1  1  0  0  0
  2  3  1  0  0  0  0
  2  5  1  0  0  0  0
  3  4  2  0  0  0  0
  5  6  1  0  0  0  0
  6  7  1  0  0  0  0
  7  8  1  0  0  0  0
  8  9  2  0  0  0  0
  9 10  1  0  0  0  0
  9 11  1  0  0  0  0
M  CHG  2   1   1   8   1
M  END
>  <CHROM.1>
-72.74878309,10.78364168,56.81029971,-163.81100666,52.70285516,85.99213927
-12.73726260,7.52420245,1.85689590,-2.27885413,-0.17244549,-2.41675652

>  <Name>


>  <RI>
0

>  <Rbt.Current_Directory>
/home/itssahil/PROJECTS/Mol_Feturizer/New_Systems/rnas/1aju

>  <Rbt.Executable>
rbdock ($Id: //depot/dev/client3/rdock/2013.1/src/exe/rbdock.cxx#4 $)

>  <Rbt.Library>
libRbt.so (2013.1, Build901 2013/11/27)

>  <Rbt.Parameter_File>
/export/apps/rDock/src/rDock_2013.1_src/data/scripts/dock_solv.prm

>  <Rbt.Receptor>
prm/blind_docking_60.prm

>  <SCORE>
-13.7797

>  <SCORE.INTER>
-15.5312

>  <SCORE.INTER.CONST>
1

>  <SCORE.INTER.POLAR>
-4.32383

>  <SCORE.INTER.ROT>
5

>  <SCORE.INTER.SOLV>
15.5194

>  <SCORE.INTER.VDW>
-8.04783

>  <SCORE.INTER.norm>
-1.41193

>  <SCORE.INTRA>
1.61757

>  <SCORE.INTRA.DIHEDRAL>
-5.13198

>  <SCORE.INTRA.DIHEDRAL.0>
9.90185

>  <SCORE.INTRA.POLAR>
0

>  <SCORE.INTRA.POLAR.0>
0

>  <SCORE.INTRA.REPUL>
0.00982634

>  <SCORE.INTRA.REPUL.0>
0

>  <SCORE.INTRA.SOLV>
6.51314

>  <SCORE.INTRA.SOLV.lig_0>
-53.6586

>  <SCORE.INTRA.VDW>
0.877863

>  <SCORE.INTRA.VDW.0>
-0.556525

>  <SCORE.INTRA.norm>
0.147052

>  <SCORE.RESTR>
0.133942

>  <SCORE.RESTR.CAVITY>
0.133942

>  <SCORE.RESTR.norm>
0.0121766

>  <SCORE.SYSTEM>
0

>  <SCORE.SYSTEM.CONST>
0

>  <SCORE.SYSTEM.DIHEDRAL>
0

>  <SCORE.SYSTEM.SOLV>
0

>  <SCORE.SYSTEM.norm>
0

>  <SCORE.heavy>
11

>  <SCORE.norm>
-1.2527

>  <RMSD>
15.973

$$$$

 OpenBabel11021811383D
libRbt.so/2013.1/901 2013/11/27
 11 10  0  0  0  0  0  0  0  0999 V2000
  -10.3352    8.2286    0.7608 N   0  3  0  0  0  0  0  0  0  0  0  0
  -10.7008    7.2195    1.7999 C   0  0  2  0  0  0  0  0  0  0  0  0
  -11.6056    6.1408    1.1805 C   0  0  0  0  0  0  0  0  0  0  0  0
  -11.4186    4.9624    1.4184 O   0  0  0  0  0  0  0  0  0  0  0  0
  -11.4355    7.9199    2.9507 C   0  0  0  0  0  0  0  0  0  0  0  0
  -10.5615    9.0475    3.5071 C   0  0  0  0  0  0  0  0  0  0  0  0
  -10.8773    9.2552    4.9869 C   0  0  0  0  0  0  0  0  0  0  0  0
  -10.4700   10.6310    5.3835 N   0  3  0  0  0  0  0  0  0  0  0  0
   -9.2558   10.8593    5.8036 C   0  0  0  0  0  0  0  0  0  0  0  0
   -8.4723   11.6562    5.1241 N   0  0  0  0  0  0  0  0  0  0  0  0
   -8.8290   10.2973    6.9048 N   0  0  0  0  0  0  0  0  0  0  0  0
  2  1  1  6  0  0  0
  2  3  1  0  0  0  0
  2  5  1  0  0  0  0
  3  4  2  0  0  0  0
  5  6  1  0  0  0  0
  6  7  1  0  0  0  0
  7  8  1  0  0  0  0
  8  9  2  0  0  0  0
  9 10  1  0  0  0  0
  9 11  1  0  0  0  0
M  CHG  2   1   1   8   1
M  END
>  <CHROM.1>
-118.29597061,135.80470830,-56.15333133,-150.86921816,-157.72735810,-88.53385975
-10.33136715,8.76761478,3.60623763,-2.24761505,1.07667389,1.41059117

>  <Name>


>  <RI>
224

>  <Rbt.Current_Directory>
/home/itssahil/PROJECTS/Mol_Feturizer/New_Systems/rnas/1aju

>  <Rbt.Executable>
rbdock ($Id: //depot/dev/client3/rdock/2013.1/src/exe/rbdock.cxx#4 $)

>  <Rbt.Library>
libRbt.so (2013.1, Build901 2013/11/27)

>  <Rbt.Parameter_File>
/export/apps/rDock/src/rDock_2013.1_src/data/scripts/dock_solv.prm

>  <Rbt.Receptor>
prm/blind_docking_20.prm

>  <SCORE>
-34.1203

>  <SCORE.INTER>
-37.1503

>  <SCORE.INTER.CONST>
1

>  <SCORE.INTER.POLAR>
-7.1311

>  <SCORE.INTER.ROT>
5

>  <SCORE.INTER.SOLV>
25.6405

>  <SCORE.INTER.VDW>
-16.4767

>  <SCORE.INTER.norm>
-3.3773

>  <SCORE.INTRA>
2.99682

>  <SCORE.INTRA.DIHEDRAL>
1.78764

>  <SCORE.INTRA.DIHEDRAL.0>
9.90185

>  <SCORE.INTRA.POLAR>
0

>  <SCORE.INTRA.POLAR.0>
0

>  <SCORE.INTRA.REPUL>
0

>  <SCORE.INTRA.REPUL.0>
0

>  <SCORE.INTRA.SOLV>
1.3542

>  <SCORE.INTRA.SOLV.lig_0>
-53.6586

>  <SCORE.INTRA.VDW>
1.4259

>  <SCORE.INTRA.VDW.0>
-0.556525

>  <SCORE.INTRA.norm>
0.272438

>  <SCORE.RESTR>
0.0331553

>  <SCORE.RESTR.CAVITY>
0.0331553

>  <SCORE.RESTR.norm>
0.00301412

>  <SCORE.SYSTEM>
0

>  <SCORE.SYSTEM.CONST>
0

>  <SCORE.SYSTEM.DIHEDRAL>
0

>  <SCORE.SYSTEM.SOLV>
0

>  <SCORE.SYSTEM.norm>
0

>  <SCORE.heavy>
11

>  <SCORE.norm>
-3.10185

>  <RMSD>
16.002

$$$$

 OpenBabel11021811383D
libRbt.so/2013.1/901 2013/11/27
 11 10  0  0  0  0  0  0  0  0999 V2000
  -10.2579    8.3603    0.8600 N   0  3  0  0  0  0  0  0  0  0  0  0
  -10.5337    7.4419    2.0055 C   0  0  2  0  0  0  0  0  0  0  0  0
  -10.6668    5.9979    1.4929 C   0  0  0  0  0  0  0  0  0  0  0  0
  -10.4760    5.7356    0.3203 O   0  0  0  0  0  0  0  0  0  0  0  0
  -11.8333    7.8722    2.6989 C   0  0  0  0  0  0  0  0  0  0  0  0
  -11.5208    8.3677    4.1137 C   0  0  0  0  0  0  0  0  0  0  0  0
  -10.7947    9.7091    4.0359 C   0  0  0  0  0  0  0  0  0  0  0  0
  -10.4660   10.1657    5.4141 N   0  3  0  0  0  0  0  0  0  0  0  0
   -9.5022   11.0239    5.6075 C   0  0  0  0  0  0  0  0  0  0  0  0
   -9.7710   12.1996    6.1136 N   0  0  0  0  0  0  0  0  0  0  0  0
   -8.2714   10.7039    5.3020 N   0  0  0  0  0  0  0  0  0  0  0  0
  2  1  1  6  0  0  0
  2  3  1  0  0  0  0
  2  5  1  0  0  0  0
  3  4  2  0  0  0  0
  5  6  1  0  0  0  0
  6  7  1  0  0  0  0
  7  8  1  0  0  0  0
  8  9  2  0  0  0  0
  9 10  1  0  0  0  0
  9 11  1  0  0  0  0
M  CHG  2   1   1   8   1
M  END
>  <CHROM.1>
40.76153391,4.02602444,-113.95449641,70.83292692,-178.62054169,157.85209671
-10.34371946,8.90079133,3.42758819,-1.75995234,0.42980682,0.86843044

>  <Name>


>  <RI>
0

>  <Rbt.Current_Directory>
/home/itssahil/PROJECTS/Mol_Feturizer/New_Systems/rnas/1aju

>  <Rbt.Executable>
rbdock ($Id: //depot/dev/client3/rdock/2013.1/src/exe/rbdock.cxx#4 $)

>  <Rbt.Library>
libRbt.so (2013.1, Build901 2013/11/27)

>  <Rbt.Parameter_File>
/export/apps/rDock/src/rDock_2013.1_src/data/scripts/dock_solv.prm

>  <Rbt.Receptor>
prm/blind_docking_80.prm

>  <SCORE>
-31.6109

>  <SCORE.INTER>
-33.0786

>  <SCORE.INTER.CONST>
1

>  <SCORE.INTER.POLAR>
-5.76237

>  <SCORE.INTER.ROT>
5

>  <SCORE.INTER.SOLV>
23.3675

>  <SCORE.INTER.VDW>
-17.567

>  <SCORE.INTER.norm>
-3.00714

>  <SCORE.INTRA>
1.05512

>  <SCORE.INTRA.DIHEDRAL>
-0.549302

>  <SCORE.INTRA.DIHEDRAL.0>
9.90185

>  <SCORE.INTRA.POLAR>
0

>  <SCORE.INTRA.POLAR.0>
0

>  <SCORE.INTRA.REPUL>
0

>  <SCORE.INTRA.REPUL.0>
0

>  <SCORE.INTRA.SOLV>
2.07374

>  <SCORE.INTRA.SOLV.lig_0>
-53.6586

>  <SCORE.INTRA.VDW>
0.292898

>  <SCORE.INTRA.VDW.0>
-0.556525

>  <SCORE.INTRA.norm>
0.0959198

>  <SCORE.RESTR>
0.412598

>  <SCORE.RESTR.CAVITY>
0.412598

>  <SCORE.RESTR.norm>
0.0375089

>  <SCORE.SYSTEM>
0

>  <SCORE.SYSTEM.CONST>
0

>  <SCORE.SYSTEM.DIHEDRAL>
0

>  <SCORE.SYSTEM.SOLV>
0

>  <SCORE.SYSTEM.norm>
0

>  <SCORE.heavy>
11

>  <SCORE.norm>
-2.87371

>  <RMSD>
16.004

$$$$

 OpenBabel11021811383D
libRbt.so/2013.1/901 2013/11/27
 11 10  0  0  0  0  0  0  0  0999 V2000
   -9.7757    9.7750    7.2684 N   0  3  0  0  0  0  0  0  0  0  0  0
   -9.1566   10.2758    6.0045 C   0  0  2  0  0  0  0  0  0  0  0  0
   -8.4609   11.6226    6.2651 C   0  0  0  0  0  0  0  0  0  0  0  0
   -8.5416   12.5292    5.4577 O   0  0  0  0  0  0  0  0  0  0  0  0
  -10.2476   10.4487    4.9393 C   0  0  0  0  0  0  0  0  0  0  0  0
  -10.5789    9.0889    4.3179 C   0  0  0  0  0  0  0  0  0  0  0  0
  -11.7072    9.2532    3.3019 C   0  0  0  0  0  0  0  0  0  0  0  0
  -11.7190    8.0751    2.3921 N   0  3  0  0  0  0  0  0  0  0  0  0
  -10.6945    7.8326    1.6211 C   0  0  0  0  0  0  0  0  0  0  0  0
  -10.0084    6.7304    1.7799 N   0  0  0  0  0  0  0  0  0  0  0  0
  -10.3616    8.6873    0.6888 N   0  0  0  0  0  0  0  0  0  0  0  0
  2  1  1  1  0  0  0
  2  3  1  0  0  0  0
  2  5  1  0  0  0  0
  3  4  2  0  0  0  0
  5  6  1  0  0  0  0
  6  7  1  0  0  0  0
  7  8  1  0  0  0  0
  8  9  2  0  0  0  0
  9 10  1  0  0  0  0
  9 11  1  0  0  0  0
M  CHG  2   1   1   8   1
M  END
>  <CHROM.1>
-56.45773234,-139.06208035,-79.96860627,177.54092912,161.20924032,-62.97704933
-10.11165823,9.46870064,4.00842979,0.95390838,1.05622451,1.50141330

>  <Name>


>  <RI>
0

>  <Rbt.Current_Directory>
/home/itssahil/PROJECTS/Mol_Feturizer/New_Systems/rnas/1aju

>  <Rbt.Executable>
rbdock ($Id: //depot/dev/client3/rdock/2013.1/src/exe/rbdock.cxx#4 $)

>  <Rbt.Library>
libRbt.so (2013.1, Build901 2013/11/27)

>  <Rbt.Parameter_File>
/export/apps/rDock/src/rDock_2013.1_src/data/scripts/dock_solv.prm

>  <Rbt.Receptor>
prm/blind_docking_80.prm

>  <SCORE>
-23.3099

>  <SCORE.INTER>
-22.6215

>  <SCORE.INTER.CONST>
1

>  <SCORE.INTER.POLAR>
-3.94714

>  <SCORE.INTER.ROT>
5

>  <SCORE.INTER.SOLV>
20.1479

>  <SCORE.INTER.VDW>
-15.5732

>  <SCORE.INTER.norm>
-2.0565

>  <SCORE.INTRA>
-0.871276

>  <SCORE.INTRA.DIHEDRAL>
-3.76287

>  <SCORE.INTRA.DIHEDRAL.0>
9.90185

>  <SCORE.INTRA.POLAR>
0

>  <SCORE.INTRA.POLAR.0>
0

>  <SCORE.INTRA.REPUL>
0

>  <SCORE.INTRA.REPUL.0>
0

>  <SCORE.INTRA.SOLV>
1.0907

>  <SCORE.INTRA.SOLV.lig_0>
-53.6586

>  <SCORE.INTRA.VDW>
0.464807

>  <SCORE.INTRA.VDW.0>
-0.556525

>  <SCORE.INTRA.norm>
-0.0792069

>  <SCORE.RESTR>
0.182881

>  <SCORE.RESTR.CAVITY>
0.182881

>  <SCORE.RESTR.norm>
0.0166255

>  <SCORE.SYSTEM>
0

>  <SCORE.SYSTEM.CONST>
0

>  <SCORE.SYSTEM.DIHEDRAL>
0

>  <SCORE.SYSTEM.SOLV>
0

>  <SCORE.SYSTEM.norm>
0

>  <SCORE.heavy>
11

>  <SCORE.norm>
-2.11908

>  <RMSD>
16.042

$$$$

 OpenBabel11021811383D
libRbt.so/2013.1/901 2013/11/27
 11 10  0  0  0  0  0  0  0  0999 V2000
   -9.3584   10.4473    4.8886 N   0  3  0  0  0  0  0  0  0  0  0  0
  -10.7080   10.4519    5.5291 C   0  0  2  0  0  0  0  0  0  0  0  0
  -10.6002   10.9965    6.9635 C   0  0  0  0  0  0  0  0  0  0  0  0
   -9.5349   11.3910    7.3990 O   0  0  0  0  0  0  0  0  0  0  0  0
  -11.2625    9.0212    5.5537 C   0  0  0  0  0  0  0  0  0  0  0  0
  -10.9826    8.3388    4.2118 C   0  0  0  0  0  0  0  0  0  0  0  0
  -12.0220    8.7849    3.1856 C   0  0  0  0  0  0  0  0  0  0  0  0
  -11.9363    7.9022    1.9900 N   0  3  0  0  0  0  0  0  0  0  0  0
  -10.7765    7.6331    1.4561 C   0  0  0  0  0  0  0  0  0  0  0  0
  -10.3394    6.4004    1.4390 N   0  0  0  0  0  0  0  0  0  0  0  0
  -10.0587    8.5938    0.9342 N   0  0  0  0  0  0  0  0  0  0  0  0
  2  1  1  1  0  0  0
  2  3  1  0  0  0  0
  2  5  1  0  0  0  0
  3  4  2  0  0  0  0
  5  6  1  0  0  0  0
  6  7  1  0  0  0  0
  7  8  1  0  0  0  0
  8  9  2  0  0  0  0
  9 10  1  0  0  0  0
  9 11  1  0  0  0  0
M  CHG  2   1   1   8   1
M  END
>  <CHROM.1>
72.45215990,2.68251590,-42.73437883,-80.32297257,-167.43030702,-47.26251216
-10.63841880,9.08821126,3.93258196,-1.43215140,-0.51399347,-2.08094967

>  <Name>


>  <RI>
0

>  <Rbt.Current_Directory>
/home/itssahil/PROJECTS/Mol_Feturizer/New_Systems/rnas/1aju

>  <Rbt.Executable>
rbdock ($Id: //depot/dev/client3/rdock/2013.1/src/exe/rbdock.cxx#4 $)

>  <Rbt.Library>
libRbt.so (2013.1, Build901 2013/11/27)

>  <Rbt.Parameter_File>
/export/apps/rDock/src/rDock_2013.1_src/data/scripts/dock_solv.prm

>  <Rbt.Receptor>
prm/blind_docking_80.prm

>  <SCORE>
-23.4891

>  <SCORE.INTER>
-25.3645

>  <SCORE.INTER.CONST>
1

>  <SCORE.INTER.POLAR>
-4.77125

>  <SCORE.INTER.ROT>
5

>  <SCORE.INTER.SOLV>
21.4132

>  <SCORE.INTER.VDW>
-15.0766

>  <SCORE.INTER.norm>
-2.30586

>  <SCORE.INTRA>
1.87077

>  <SCORE.INTRA.DIHEDRAL>
-3.46281

>  <SCORE.INTRA.DIHEDRAL.0>
9.90185

>  <SCORE.INTRA.POLAR>
0

>  <SCORE.INTRA.POLAR.0>
0

>  <SCORE.INTRA.REPUL>
0

>  <SCORE.INTRA.REPUL.0>
0

>  <SCORE.INTRA.SOLV>
4.05505

>  <SCORE.INTRA.SOLV.lig_0>
-53.6586

>  <SCORE.INTRA.VDW>
1.57465

>  <SCORE.INTRA.VDW.0>
-0.556525

>  <SCORE.INTRA.norm>
0.17007

>  <SCORE.RESTR>
0.00460908

>  <SCORE.RESTR.CAVITY>
0.00460908

>  <SCORE.RESTR.norm>
0.000419007

>  <SCORE.SYSTEM>
0

>  <SCORE.SYSTEM.CONST>
0

>  <SCORE.SYSTEM.DIHEDRAL>
0

>  <SCORE.SYSTEM.SOLV>
0

>  <SCORE.SYSTEM.norm>
0

>  <SCORE.heavy>
11

>  <SCORE.norm>
-2.13537

>  <RMSD>
16.067

$$$$

 OpenBabel11021811383D
libRbt.so/2013.1/901 2013/11/27
 11 10  0  0  0  0  0  0  0  0999 V2000
  -10.5110    7.0491    0.5264 N   0  3  0  0  0  0  0  0  0  0  0  0
  -11.4060    6.7733    1.6902 C   0  0  2  0  0  0  0  0  0  0  0  0
  -12.6497    6.0018    1.2175 C   0  0  0  0  0  0  0  0  0  0  0  0
  -12.5450    4.8858    0.7443 O   0  0  0  0  0  0  0  0  0  0  0  0
  -11.8279    8.1021    2.3315 C   0  0  0  0  0  0  0  0  0  0  0  0
  -10.6256    8.7369    3.0362 C   0  0  0  0  0  0  0  0  0  0  0  0
  -11.0888    9.4178    4.3223 C   0  0  0  0  0  0  0  0  0  0  0  0
   -9.9039    9.7005    5.1779 N   0  3  0  0  0  0  0  0  0  0  0  0
   -9.5441   10.9327    5.4122 C   0  0  0  0  0  0  0  0  0  0  0  0
   -9.5705   11.3959    6.6352 N   0  0  0  0  0  0  0  0  0  0  0  0
   -9.1520   11.6976    4.4264 N   0  0  0  0  0  0  0  0  0  0  0  0
  2  1  1  6  0  0  0
  2  3  1  0  0  0  0
  2  5  1  0  0  0  0
  3  4  2  0  0  0  0
  5  6  1  0  0  0  0
  6  7  1  0  0  0  0
  7  8  1  0  0  0  0
  8  9  2  0  0  0  0
  9 10  1  0  0  0  0
  9 11  1  0  0  0  0
M  CHG  2   1   1   8   1
M  END
>  <CHROM.1>
74.90346418,63.80273348,-70.33401670,-143.02112997,164.63715154,113.38443388
-10.76829275,8.61447958,3.21060907,-2.07473195,0.81840201,1.11833339

>  <Name>


>  <RI>
224

>  <Rbt.Current_Directory>
/home/itssahil/PROJECTS/Mol_Feturizer/New_Systems/rnas/1aju

>  <Rbt.Executable>
rbdock ($Id: //depot/dev/client3/rdock/2013.1/src/exe/rbdock.cxx#4 $)

>  <Rbt.Library>
libRbt.so (2013.1, Build901 2013/11/27)

>  <Rbt.Parameter_File>
/export/apps/rDock/src/rDock_2013.1_src/data/scripts/dock_solv.prm

>  <Rbt.Receptor>
prm/blind_docking_20.prm

>  <SCORE>
-17.4085

>  <SCORE.INTER>
-18.6395

>  <SCORE.INTER.CONST>
1

>  <SCORE.INTER.POLAR>
-3.67965

>  <SCORE.INTER.ROT>
5

>  <SCORE.INTER.SOLV>
18.5985

>  <SCORE.INTER.VDW>
-13.2937

>  <SCORE.INTER.norm>
-1.6945

>  <SCORE.INTRA>
1.23108

>  <SCORE.INTRA.DIHEDRAL>
1.62225

>  <SCORE.INTRA.DIHEDRAL.0>
9.90185

>  <SCORE.INTRA.POLAR>
0

>  <SCORE.INTRA.POLAR.0>
0

>  <SCORE.INTRA.REPUL>
0

>  <SCORE.INTRA.REPUL.0>
0

>  <SCORE.INTRA.SOLV>
1.67832

>  <SCORE.INTRA.SOLV.lig_0>
-53.6586

>  <SCORE.INTRA.VDW>
-0.419203

>  <SCORE.INTRA.VDW.0>
-0.556525

>  <SCORE.INTRA.norm>
0.111917

>  <SCORE.RESTR>
0

>  <SCORE.RESTR.CAVITY>
0

>  <SCORE.RESTR.norm>
0

>  <SCORE.SYSTEM>
0

>  <SCORE.SYSTEM.CONST>
0

>  <SCORE.SYSTEM.DIHEDRAL>
0

>  <SCORE.SYSTEM.SOLV>
0

>  <SCORE.SYSTEM.norm>
0

>  <SCORE.heavy>
11

>  <SCORE.norm>
-1.58259

>  <RMSD>
16.068

$$$$

 OpenBabel11021811383D
libRbt.so/2013.1/901 2013/11/27
 11 10  0  0  0  0  0  0  0  0999 V2000
  -10.2780    8.4636    0.7932 N   0  3  0  0  0  0  0  0  0  0  0  0
  -10.6761    7.8014    2.0718 C   0  0  2  0  0  0  0  0  0  0  0  0
  -10.7625    6.2799    1.8636 C   0  0  0  0  0  0  0  0  0  0  0  0
  -11.5130    5.8093    1.0296 O   0  0  0  0  0  0  0  0  0  0  0  0
  -12.0386    8.3453    2.5218 C   0  0  0  0  0  0  0  0  0  0  0  0
  -12.2282    8.0812    4.0182 C   0  0  0  0  0  0  0  0  0  0  0  0
  -11.8415    9.3287    4.8097 C   0  0  0  0  0  0  0  0  0  0  0  0
  -10.4060    9.2369    5.1931 N   0  3  0  0  0  0  0  0  0  0  0  0
   -9.8432   10.2058    5.8617 C   0  0  0  0  0  0  0  0  0  0  0  0
   -9.3804    9.9820    7.0644 N   0  0  0  0  0  0  0  0  0  0  0  0
   -9.7372   11.3941    5.3256 N   0  0  0  0  0  0  0  0  0  0  0  0
  2  1  1  6  0  0  0
  2  3  1  0  0  0  0
  2  5  1  0  0  0  0
  3  4  2  0  0  0  0
  5  6  1  0  0  0  0
  6  7  1  0  0  0  0
  7  8  1  0  0  0  0
  8  9  2  0  0  0  0
  9 10  1  0  0  0  0
  9 11  1  0  0  0  0
M  CHG  2   1   1   8   1
M  END
>  <CHROM.1>
-72.78805406,-58.50297665,-159.89289687,96.76431874,-92.15483957,178.90637189
-10.76252671,8.64965932,3.66173604,-1.91034474,0.88467545,1.21054838

>  <Name>


>  <RI>
224

>  <Rbt.Current_Directory>
/home/itssahil/PROJECTS/Mol_Feturizer/New_Systems/rnas/1aju

>  <Rbt.Executable>
rbdock ($Id: //depot/dev/client3/rdock/2013.1/src/exe/rbdock.cxx#4 $)

>  <Rbt.Library>
libRbt.so (2013.1, Build901 2013/11/27)

>  <Rbt.Parameter_File>
/export/apps/rDock/src/rDock_2013.1_src/data/scripts/dock_solv.prm

>  <Rbt.Receptor>
prm/blind_docking_20.prm

>  <SCORE>
-22.3702

>  <SCORE.INTER>
-25.3511

>  <SCORE.INTER.CONST>
1

>  <SCORE.INTER.POLAR>
-4.97363

>  <SCORE.INTER.ROT>
5

>  <SCORE.INTER.SOLV>
22.5572

>  <SCORE.INTER.VDW>
-14.7744

>  <SCORE.INTER.norm>
-2.30465

>  <SCORE.INTRA>
2.86839

>  <SCORE.INTRA.DIHEDRAL>
4.65959

>  <SCORE.INTRA.DIHEDRAL.0>
9.90185

>  <SCORE.INTRA.POLAR>
0

>  <SCORE.INTRA.POLAR.0>
0

>  <SCORE.INTRA.REPUL>
0

>  <SCORE.INTRA.REPUL.0>
0

>  <SCORE.INTRA.SOLV>
1.29945

>  <SCORE.INTRA.SOLV.lig_0>
-53.6586

>  <SCORE.INTRA.VDW>
-0.111131

>  <SCORE.INTRA.VDW.0>
-0.556525

>  <SCORE.INTRA.norm>
0.260763

>  <SCORE.RESTR>
0.112516

>  <SCORE.RESTR.CAVITY>
0.112516

>  <SCORE.RESTR.norm>
0.0102287

>  <SCORE.SYSTEM>
0

>  <SCORE.SYSTEM.CONST>
0

>  <SCORE.SYSTEM.DIHEDRAL>
0

>  <SCORE.SYSTEM.SOLV>
0

>  <SCORE.SYSTEM.norm>
0

>  <SCORE.heavy>
11

>  <SCORE.norm>
-2.03366

>  <RMSD>
16.083

$$$$

 OpenBabel11021811383D
libRbt.so/2013.1/901 2013/11/27
 11 10  0  0  0  0  0  0  0  0999 V2000
  -10.2533    8.3615    0.8080 N   0  3  0  0  0  0  0  0  0  0  0  0
  -10.5064    7.4603    1.9722 C   0  0  2  0  0  0  0  0  0  0  0  0
  -10.8076    6.0375    1.4716 C   0  0  0  0  0  0  0  0  0  0  0  0
  -10.5026    5.6990    0.3435 O   0  0  0  0  0  0  0  0  0  0  0  0
  -11.6987    7.9943    2.7772 C   0  0  0  0  0  0  0  0  0  0  0  0
  -11.2095    8.5295    4.1259 C   0  0  0  0  0  0  0  0  0  0  0  0
  -10.3888    9.7983    3.9043 C   0  0  0  0  0  0  0  0  0  0  0  0
   -9.5976   10.0873    5.1317 N   0  3  0  0  0  0  0  0  0  0  0  0
   -9.8189   11.1787    5.8119 C   0  0  0  0  0  0  0  0  0  0  0  0
  -10.2523   11.1000    7.0434 N   0  0  0  0  0  0  0  0  0  0  0  0
   -9.6003   12.3459    5.2637 N   0  0  0  0  0  0  0  0  0  0  0  0
  2  1  1  6  0  0  0
  2  3  1  0  0  0  0
  2  5  1  0  0  0  0
  3  4  2  0  0  0  0
  5  6  1  0  0  0  0
  6  7  1  0  0  0  0
  7  8  1  0  0  0  0
  8  9  2  0  0  0  0
  9 10  1  0  0  0  0
  9 11  1  0  0  0  0
M  CHG  2   1   1   8   1
M  END
>  <CHROM.1>
156.75845797,18.13122335,-110.44567871,69.10822681,-163.63456726,-116.42891463
-10.40207599,8.99230133,3.49364958,-1.83298835,1.12584239,1.04685295

>  <Name>


>  <RI>
0

>  <Rbt.Current_Directory>
/home/itssahil/PROJECTS/Mol_Feturizer/New_Systems/rnas/1aju

>  <Rbt.Executable>
rbdock ($Id: //depot/dev/client3/rdock/2013.1/src/exe/rbdock.cxx#4 $)

>  <Rbt.Library>
libRbt.so (2013.1, Build901 2013/11/27)

>  <Rbt.Parameter_File>
/export/apps/rDock/src/rDock_2013.1_src/data/scripts/dock_solv.prm

>  <Rbt.Receptor>
prm/blind_docking_80.prm

>  <SCORE>
-34.0748

>  <SCORE.INTER>
-36.1986

>  <SCORE.INTER.CONST>
1

>  <SCORE.INTER.POLAR>
-6.55908

>  <SCORE.INTER.ROT>
5

>  <SCORE.INTER.SOLV>
22.1847

>  <SCORE.INTER.VDW>
-16.5971

>  <SCORE.INTER.norm>
-3.29078

>  <SCORE.INTRA>
1.7419

>  <SCORE.INTRA.DIHEDRAL>
0.916671

>  <SCORE.INTRA.DIHEDRAL.0>
9.90185

>  <SCORE.INTRA.POLAR>
0

>  <SCORE.INTRA.POLAR.0>
0

>  <SCORE.INTRA.REPUL>
0

>  <SCORE.INTRA.REPUL.0>
0

>  <SCORE.INTRA.SOLV>
2.21395

>  <SCORE.INTRA.SOLV.lig_0>
-53.6586

>  <SCORE.INTRA.VDW>
0.176586

>  <SCORE.INTRA.VDW.0>
-0.556525

>  <SCORE.INTRA.norm>
0.158354

>  <SCORE.RESTR>
0.381906

>  <SCORE.RESTR.CAVITY>
0.381906

>  <SCORE.RESTR.norm>
0.0347187

>  <SCORE.SYSTEM>
0

>  <SCORE.SYSTEM.CONST>
0

>  <SCORE.SYSTEM.DIHEDRAL>
0

>  <SCORE.SYSTEM.SOLV>
0

>  <SCORE.SYSTEM.norm>
0

>  <SCORE.heavy>
11

>  <SCORE.norm>
-3.09771

>  <RMSD>
16.106

$$$$

 OpenBabel11021811383D
libRbt.so/2013.1/901 2013/11/27
 11 10  0  0  0  0  0  0  0  0999 V2000
   -8.9608   10.8951    7.4050 N   0  3  0  0  0  0  0  0  0  0  0  0
   -9.2829   10.4187    6.0263 C   0  0  2  0  0  0  0  0  0  0  0  0
   -9.0447   11.5536    5.0158 C   0  0  0  0  0  0  0  0  0  0  0  0
   -8.5774   12.6175    5.3763 O   0  0  0  0  0  0  0  0  0  0  0  0
  -10.7500    9.9719    5.9740 C   0  0  0  0  0  0  0  0  0  0  0  0
  -10.9019    8.8240    4.9720 C   0  0  0  0  0  0  0  0  0  0  0  0
  -11.1256    9.3940    3.5728 C   0  0  0  0  0  0  0  0  0  0  0  0
  -11.4322    8.2788    2.6357 N   0  3  0  0  0  0  0  0  0  0  0  0
  -10.5019    7.8078    1.8512 C   0  0  0  0  0  0  0  0  0  0  0  0
  -10.1119    6.5659    1.9787 N   0  0  0  0  0  0  0  0  0  0  0  0
   -9.9682    8.5754    0.9366 N   0  0  0  0  0  0  0  0  0  0  0  0
  2  1  1  1  0  0  0
  2  3  1  0  0  0  0
  2  5  1  0  0  0  0
  3  4  2  0  0  0  0
  5  6  1  0  0  0  0
  6  7  1  0  0  0  0
  7  8  1  0  0  0  0
  8  9  2  0  0  0  0
  9 10  1  0  0  0  0
  9 11  1  0  0  0  0
M  CHG  2   1   1   8   1
M  END
>  <CHROM.1>
60.61693267,4.30046989,-147.94305601,-86.80499767,-173.35549700,-100.38402295
-10.03446775,9.54414297,4.17177010,1.11398425,1.00366394,1.27714292

>  <Name>


>  <RI>
0

>  <Rbt.Current_Directory>
/home/itssahil/PROJECTS/Mol_Feturizer/New_Systems/rnas/1aju

>  <Rbt.Executable>
rbdock ($Id: //depot/dev/client3/rdock/2013.1/src/exe/rbdock.cxx#4 $)

>  <Rbt.Library>
libRbt.so (2013.1, Build901 2013/11/27)

>  <Rbt.Parameter_File>
/export/apps/rDock/src/rDock_2013.1_src/data/scripts/dock_solv.prm

>  <Rbt.Receptor>
prm/blind_docking_60.prm

>  <SCORE>
-27.4632

>  <SCORE.INTER>
-27.2852

>  <SCORE.INTER.CONST>
1

>  <SCORE.INTER.POLAR>
-4.91213

>  <SCORE.INTER.ROT>
5

>  <SCORE.INTER.SOLV>
21.1429

>  <SCORE.INTER.VDW>
-15.7973

>  <SCORE.INTER.norm>
-2.48047

>  <SCORE.INTRA>
-0.333205

>  <SCORE.INTRA.DIHEDRAL>
-1.30917

>  <SCORE.INTRA.DIHEDRAL.0>
9.90185

>  <SCORE.INTRA.POLAR>
0

>  <SCORE.INTRA.POLAR.0>
0

>  <SCORE.INTRA.REPUL>
0

>  <SCORE.INTRA.REPUL.0>
0

>  <SCORE.INTRA.SOLV>
1.16862

>  <SCORE.INTRA.SOLV.lig_0>
-53.6586

>  <SCORE.INTRA.VDW>
-0.26293

>  <SCORE.INTRA.VDW.0>
-0.556525

>  <SCORE.INTRA.norm>
-0.0302913

>  <SCORE.RESTR>
0.155198

>  <SCORE.RESTR.CAVITY>
0.155198

>  <SCORE.RESTR.norm>
0.0141089

>  <SCORE.SYSTEM>
0

>  <SCORE.SYSTEM.CONST>
0

>  <SCORE.SYSTEM.DIHEDRAL>
0

>  <SCORE.SYSTEM.SOLV>
0

>  <SCORE.SYSTEM.norm>
0

>  <SCORE.heavy>
11

>  <SCORE.norm>
-2.49665

>  <RMSD>
16.117

$$$$

 OpenBabel11021811383D
libRbt.so/2013.1/901 2013/11/27
 11 10  0  0  0  0  0  0  0  0999 V2000
  -10.2517    8.3737    0.9423 N   0  3  0  0  0  0  0  0  0  0  0  0
  -10.4917    7.4813    2.1161 C   0  0  2  0  0  0  0  0  0  0  0  0
  -10.9388    6.0924    1.6296 C   0  0  0  0  0  0  0  0  0  0  0  0
  -10.8033    5.7697    0.4643 O   0  0  0  0  0  0  0  0  0  0  0  0
  -11.5781    8.0974    3.0077 C   0  0  0  0  0  0  0  0  0  0  0  0
  -10.9405    8.6539    4.2839 C   0  0  0  0  0  0  0  0  0  0  0  0
  -10.2550    9.9831    3.9743 C   0  0  0  0  0  0  0  0  0  0  0  0
   -9.2671   10.2832    5.0466 N   0  3  0  0  0  0  0  0  0  0  0  0
   -9.3933   11.3614    5.7706 C   0  0  0  0  0  0  0  0  0  0  0  0
   -9.5998   11.2591    7.0581 N   0  0  0  0  0  0  0  0  0  0  0  0
   -9.3060   12.5394    5.2090 N   0  0  0  0  0  0  0  0  0  0  0  0
  2  1  1  6  0  0  0
  2  3  1  0  0  0  0
  2  5  1  0  0  0  0
  3  4  2  0  0  0  0
  5  6  1  0  0  0  0
  6  7  1  0  0  0  0
  7  8  1  0  0  0  0
  8  9  2  0  0  0  0
  9 10  1  0  0  0  0
  9 11  1  0  0  0  0
M  CHG  2   1   1   8   1
M  END
>  <CHROM.1>
28.17277719,14.40940064,-107.00429777,77.09934088,-160.70240625,-119.22512008
-10.23724142,9.11024487,3.56890350,-2.08273955,1.16250939,1.25086874

>  <Name>


>  <RI>
0

>  <Rbt.Current_Directory>
/home/itssahil/PROJECTS/Mol_Feturizer/New_Systems/rnas/1aju

>  <Rbt.Executable>
rbdock ($Id: //depot/dev/client3/rdock/2013.1/src/exe/rbdock.cxx#4 $)

>  <Rbt.Library>
libRbt.so (2013.1, Build901 2013/11/27)

>  <Rbt.Parameter_File>
/export/apps/rDock/src/rDock_2013.1_src/data/scripts/dock_solv.prm

>  <Rbt.Receptor>
prm/blind_docking_60.prm

>  <SCORE>
-32.7526

>  <SCORE.INTER>
-35.2956

>  <SCORE.INTER.CONST>
1

>  <SCORE.INTER.POLAR>
-6.4051

>  <SCORE.INTER.ROT>
5

>  <SCORE.INTER.SOLV>
22.9208

>  <SCORE.INTER.VDW>
-16.7536

>  <SCORE.INTER.norm>
-3.20869

>  <SCORE.INTRA>
2.51845

>  <SCORE.INTRA.DIHEDRAL>
2.39047

>  <SCORE.INTRA.DIHEDRAL.0>
9.90185

>  <SCORE.INTRA.POLAR>
0

>  <SCORE.INTRA.POLAR.0>
0

>  <SCORE.INTRA.REPUL>
0

>  <SCORE.INTRA.REPUL.0>
0

>  <SCORE.INTRA.SOLV>
2.28387

>  <SCORE.INTRA.SOLV.lig_0>
-53.6586

>  <SCORE.INTRA.VDW>
0.181283

>  <SCORE.INTRA.VDW.0>
-0.556525

>  <SCORE.INTRA.norm>
0.22895

>  <SCORE.RESTR>
0.0244947

>  <SCORE.RESTR.CAVITY>
0.0244947

>  <SCORE.RESTR.norm>
0.00222679

>  <SCORE.SYSTEM>
0

>  <SCORE.SYSTEM.CONST>
0

>  <SCORE.SYSTEM.DIHEDRAL>
0

>  <SCORE.SYSTEM.SOLV>
0

>  <SCORE.SYSTEM.norm>
0

>  <SCORE.heavy>
11

>  <SCORE.norm>
-2.97751

>  <RMSD>
16.154

$$$$

 OpenBabel11021811383D
libRbt.so/2013.1/901 2013/11/27
 11 10  0  0  0  0  0  0  0  0999 V2000
  -11.7252    8.2694    1.0935 N   0  3  0  0  0  0  0  0  0  0  0  0
  -11.2872    7.4536    2.2658 C   0  0  2  0  0  0  0  0  0  0  0  0
  -11.5148    5.9607    1.9736 C   0  0  0  0  0  0  0  0  0  0  0  0
  -12.0367    5.6044    0.9340 O   0  0  0  0  0  0  0  0  0  0  0  0
  -12.0914    7.8722    3.5038 C   0  0  0  0  0  0  0  0  0  0  0  0
  -11.1329    8.3072    4.6160 C   0  0  0  0  0  0  0  0  0  0  0  0
  -10.2419    9.4389    4.1083 C   0  0  0  0  0  0  0  0  0  0  0  0
  -10.2202   10.5323    5.1182 N   0  3  0  0  0  0  0  0  0  0  0  0
   -9.3350   10.5212    6.0768 C   0  0  0  0  0  0  0  0  0  0  0  0
   -8.4491   11.4803    6.1542 N   0  0  0  0  0  0  0  0  0  0  0  0
   -9.3407    9.5568    6.9603 N   0  0  0  0  0  0  0  0  0  0  0  0
  2  1  1  6  0  0  0
  2  3  1  0  0  0  0
  2  5  1  0  0  0  0
  3  4  2  0  0  0  0
  5  6  1  0  0  0  0
  6  7  1  0  0  0  0
  7  8  1  0  0  0  0
  8  9  2  0  0  0  0
  9 10  1  0  0  0  0
  9 11  1  0  0  0  0
M  CHG  2   1   1   8   1
M  END
>  <CHROM.1>
70.72980370,-2.92353768,-123.25011620,56.97748868,132.44828437,88.66219255
-10.66946369,8.65925694,3.87031905,-3.03010618,1.16210011,2.31574881

>  <Name>


>  <RI>
0

>  <Rbt.Current_Directory>
/home/itssahil/PROJECTS/Mol_Feturizer/New_Systems/rnas/1aju

>  <Rbt.Executable>
rbdock ($Id: //depot/dev/client3/rdock/2013.1/src/exe/rbdock.cxx#4 $)

>  <Rbt.Library>
libRbt.so (2013.1, Build901 2013/11/27)

>  <Rbt.Parameter_File>
/export/apps/rDock/src/rDock_2013.1_src/data/scripts/dock_solv.prm

>  <Rbt.Receptor>
prm/blind_docking_60.prm

>  <SCORE>
-14.3006

>  <SCORE.INTER>
-18.5081

>  <SCORE.INTER.CONST>
1

>  <SCORE.INTER.POLAR>
-3.8889

>  <SCORE.INTER.ROT>
5

>  <SCORE.INTER.SOLV>
18.063

>  <SCORE.INTER.VDW>
-12.3301

>  <SCORE.INTER.norm>
-1.68256

>  <SCORE.INTRA>
3.64302

>  <SCORE.INTRA.DIHEDRAL>
3.37625

>  <SCORE.INTRA.DIHEDRAL.0>
9.90185

>  <SCORE.INTRA.POLAR>
0

>  <SCORE.INTRA.POLAR.0>
0

>  <SCORE.INTRA.REPUL>
0

>  <SCORE.INTRA.REPUL.0>
0

>  <SCORE.INTRA.SOLV>
2.38217

>  <SCORE.INTRA.SOLV.lig_0>
-53.6586

>  <SCORE.INTRA.VDW>
0.763813

>  <SCORE.INTRA.VDW.0>
-0.556525

>  <SCORE.INTRA.norm>
0.331184

>  <SCORE.RESTR>
0.564489

>  <SCORE.RESTR.CAVITY>
0.564489

>  <SCORE.RESTR.norm>
0.0513172

>  <SCORE.SYSTEM>
0

>  <SCORE.SYSTEM.CONST>
0

>  <SCORE.SYSTEM.DIHEDRAL>
0

>  <SCORE.SYSTEM.SOLV>
0

>  <SCORE.SYSTEM.norm>
0

>  <SCORE.heavy>
11

>  <SCORE.norm>
-1.30005

>  <RMSD>
16.166

$$$$

 OpenBabel11021811383D
libRbt.so/2013.1/901 2013/11/27
 11 10  0  0  0  0  0  0  0  0999 V2000
  -10.1040    7.4385    0.2552 N   0  3  0  0  0  0  0  0  0  0  0  0
  -10.4441    7.2748    1.7006 C   0  0  2  0  0  0  0  0  0  0  0  0
  -11.6308    6.3075    1.8485 C   0  0  0  0  0  0  0  0  0  0  0  0
  -12.0601    5.7002    0.8856 O   0  0  0  0  0  0  0  0  0  0  0  0
  -10.8077    8.6424    2.2940 C   0  0  0  0  0  0  0  0  0  0  0  0
  -10.8088    8.5549    3.8228 C   0  0  0  0  0  0  0  0  0  0  0  0
  -10.7335    9.9609    4.4146 C   0  0  0  0  0  0  0  0  0  0  0  0
   -9.5472   10.0499    5.3094 N   0  3  0  0  0  0  0  0  0  0  0  0
   -9.3182   11.1413    5.9871 C   0  0  0  0  0  0  0  0  0  0  0  0
   -9.3360   11.1099    7.2945 N   0  0  0  0  0  0  0  0  0  0  0  0
   -9.0649   12.2598    5.3583 N   0  0  0  0  0  0  0  0  0  0  0  0
  2  1  1  6  0  0  0
  2  3  1  0  0  0  0
  2  5  1  0  0  0  0
  3  4  2  0  0  0  0
  5  6  1  0  0  0  0
  6  7  1  0  0  0  0
  7  8  1  0  0  0  0
  8  9  2  0  0  0  0
  9 10  1  0  0  0  0
  9 11  1  0  0  0  0
M  CHG  2   1   1   8   1
M  END
>  <CHROM.1>
61.22544657,7.40168748,-165.69157202,162.43510451,-123.12826516,-176.28162478
-10.33115249,8.95636543,3.53513550,-2.04997234,0.98154176,1.23740958

>  <Name>


>  <RI>
224

>  <Rbt.Current_Directory>
/home/itssahil/PROJECTS/Mol_Feturizer/New_Systems/rnas/1aju

>  <Rbt.Executable>
rbdock ($Id: //depot/dev/client3/rdock/2013.1/src/exe/rbdock.cxx#4 $)

>  <Rbt.Library>
libRbt.so (2013.1, Build901 2013/11/27)

>  <Rbt.Parameter_File>
/export/apps/rDock/src/rDock_2013.1_src/data/scripts/dock_solv.prm

>  <Rbt.Receptor>
prm/blind_docking_20.prm

>  <SCORE>
-23.3616

>  <SCORE.INTER>
-24.5839

>  <SCORE.INTER.CONST>
1

>  <SCORE.INTER.POLAR>
-4.75212

>  <SCORE.INTER.ROT>
5

>  <SCORE.INTER.SOLV>
20.781

>  <SCORE.INTER.VDW>
-14.4092

>  <SCORE.INTER.norm>
-2.2349

>  <SCORE.INTRA>
0.974975

>  <SCORE.INTRA.DIHEDRAL>
0.526797

>  <SCORE.INTRA.DIHEDRAL.0>
9.90185

>  <SCORE.INTRA.POLAR>
0

>  <SCORE.INTRA.POLAR.0>
0

>  <SCORE.INTRA.REPUL>
0

>  <SCORE.INTRA.REPUL.0>
0

>  <SCORE.INTRA.SOLV>
0.992575

>  <SCORE.INTRA.SOLV.lig_0>
-53.6586

>  <SCORE.INTRA.VDW>
0.215289

>  <SCORE.INTRA.VDW.0>
-0.556525

>  <SCORE.INTRA.norm>
0.0886341

>  <SCORE.RESTR>
0.247288

>  <SCORE.RESTR.CAVITY>
0.247288

>  <SCORE.RESTR.norm>
0.0224807

>  <SCORE.SYSTEM>
0

>  <SCORE.SYSTEM.CONST>
0

>  <SCORE.SYSTEM.DIHEDRAL>
0

>  <SCORE.SYSTEM.SOLV>
0

>  <SCORE.SYSTEM.norm>
0

>  <SCORE.heavy>
11

>  <SCORE.norm>
-2.12379

>  <RMSD>
16.173

$$$$

 OpenBabel11021811383D
libRbt.so/2013.1/901 2013/11/27
 11 10  0  0  0  0  0  0  0  0999 V2000
   -8.4874   11.1227    4.7451 N   0  3  0  0  0  0  0  0  0  0  0  0
   -9.7553   11.2721    5.5207 C   0  0  2  0  0  0  0  0  0  0  0  0
   -9.4307   11.5728    6.9937 C   0  0  0  0  0  0  0  0  0  0  0  0
   -8.7312   10.8171    7.6418 O   0  0  0  0  0  0  0  0  0  0  0  0
  -10.5679    9.9743    5.4191 C   0  0  0  0  0  0  0  0  0  0  0  0
  -10.7069    9.5691    3.9489 C   0  0  0  0  0  0  0  0  0  0  0  0
  -11.7408    8.4521    3.8229 C   0  0  0  0  0  0  0  0  0  0  0  0
  -11.2724    7.4667    2.8102 N   0  3  0  0  0  0  0  0  0  0  0  0
  -11.4064    7.7214    1.5374 C   0  0  0  0  0  0  0  0  0  0  0  0
  -10.3444    7.8386    0.7830 N   0  0  0  0  0  0  0  0  0  0  0  0
  -12.6002    7.8513    1.0193 N   0  0  0  0  0  0  0  0  0  0  0  0
  2  1  1  6  0  0  0
  2  3  1  0  0  0  0
  2  5  1  0  0  0  0
  3  4  2  0  0  0  0
  5  6  1  0  0  0  0
  6  7  1  0  0  0  0
  7  8  1  0  0  0  0
  8  9  2  0  0  0  0
  9 10  1  0  0  0  0
  9 11  1  0  0  0  0
M  CHG  2   1   1   8   1
M  END
>  <CHROM.1>
-134.21444604,-56.59066748,-51.07199115,-168.59131005,-140.81733080,-78.92357444
-10.42192065,9.41255660,3.99035084,-1.12343761,-0.54045502,-1.91610494

>  <Name>


>  <RI>
224

>  <Rbt.Current_Directory>
/home/itssahil/PROJECTS/Mol_Feturizer/New_Systems/rnas/1aju

>  <Rbt.Executable>
rbdock ($Id: //depot/dev/client3/rdock/2013.1/src/exe/rbdock.cxx#4 $)

>  <Rbt.Library>
libRbt.so (2013.1, Build901 2013/11/27)

>  <Rbt.Parameter_File>
/export/apps/rDock/src/rDock_2013.1_src/data/scripts/dock_solv.prm

>  <Rbt.Receptor>
prm/blind_docking_20.prm

>  <SCORE>
-29.454

>  <SCORE.INTER>
-33.8372

>  <SCORE.INTER.CONST>
1

>  <SCORE.INTER.POLAR>
-6.48436

>  <SCORE.INTER.ROT>
5

>  <SCORE.INTER.SOLV>
24.0583

>  <SCORE.INTER.VDW>
-15.8964

>  <SCORE.INTER.norm>
-3.07611

>  <SCORE.INTRA>
4.37077

>  <SCORE.INTRA.DIHEDRAL>
3.77294

>  <SCORE.INTRA.DIHEDRAL.0>
9.90185

>  <SCORE.INTRA.POLAR>
0

>  <SCORE.INTRA.POLAR.0>
0

>  <SCORE.INTRA.REPUL>
0

>  <SCORE.INTRA.REPUL.0>
0

>  <SCORE.INTRA.SOLV>
2.36736

>  <SCORE.INTRA.SOLV.lig_0>
-53.6586

>  <SCORE.INTRA.VDW>
1.30062

>  <SCORE.INTRA.VDW.0>
-0.556525

>  <SCORE.INTRA.norm>
0.397342

>  <SCORE.RESTR>
0.0124345

>  <SCORE.RESTR.CAVITY>
0.0124345

>  <SCORE.RESTR.norm>
0.00113041

>  <SCORE.SYSTEM>
0

>  <SCORE.SYSTEM.CONST>
0

>  <SCORE.SYSTEM.DIHEDRAL>
0

>  <SCORE.SYSTEM.SOLV>
0

>  <SCORE.SYSTEM.norm>
0

>  <SCORE.heavy>
11

>  <SCORE.norm>
-2.67764

>  <RMSD>
16.178

$$$$

 OpenBabel11021811383D
libRbt.so/2013.1/901 2013/11/27
 11 10  0  0  0  0  0  0  0  0999 V2000
  -10.2677    8.3389    0.9373 N   0  3  0  0  0  0  0  0  0  0  0  0
  -10.5208    7.4408    2.1039 C   0  0  2  0  0  0  0  0  0  0  0  0
  -11.0375    6.0793    1.6086 C   0  0  0  0  0  0  0  0  0  0  0  0
  -11.1384    5.8496    0.4181 O   0  0  0  0  0  0  0  0  0  0  0  0
  -11.5605    8.0897    3.0273 C   0  0  0  0  0  0  0  0  0  0  0  0
  -10.8732    8.5970    4.2981 C   0  0  0  0  0  0  0  0  0  0  0  0
  -10.2718    9.9764    4.0373 C   0  0  0  0  0  0  0  0  0  0  0  0
   -9.2721   10.2805    5.0976 N   0  3  0  0  0  0  0  0  0  0  0  0
   -9.4007   11.3518    5.8314 C   0  0  0  0  0  0  0  0  0  0  0  0
   -9.5873   11.2375    7.1209 N   0  0  0  0  0  0  0  0  0  0  0  0
   -9.3356   12.5348    5.2775 N   0  0  0  0  0  0  0  0  0  0  0  0
  2  1  1  6  0  0  0
  2  3  1  0  0  0  0
  2  5  1  0  0  0  0
  3  4  2  0  0  0  0
  5  6  1  0  0  0  0
  6  7  1  0  0  0  0
  7  8  1  0  0  0  0
  8  9  2  0  0  0  0
  9 10  1  0  0  0  0
  9 11  1  0  0  0  0
M  CHG  2   1   1   8   1
M  END
>  <CHROM.1>
-93.68378564,2.64072655,-107.14205323,83.55284126,-162.81479113,-122.77372015
-10.27942578,9.10038263,3.59198006,-2.14728398,1.16883775,1.32589756

>  <Name>


>  <RI>
224

>  <Rbt.Current_Directory>
/home/itssahil/PROJECTS/Mol_Feturizer/New_Systems/rnas/1aju

>  <Rbt.Executable>
rbdock ($Id: //depot/dev/client3/rdock/2013.1/src/exe/rbdock.cxx#4 $)

>  <Rbt.Library>
libRbt.so (2013.1, Build901 2013/11/27)

>  <Rbt.Parameter_File>
/export/apps/rDock/src/rDock_2013.1_src/data/scripts/dock_solv.prm

>  <Rbt.Receptor>
prm/blind_docking_20.prm

>  <SCORE>
-32.7012

>  <SCORE.INTER>
-35.47

>  <SCORE.INTER.CONST>
1

>  <SCORE.INTER.POLAR>
-6.39319

>  <SCORE.INTER.ROT>
5

>  <SCORE.INTER.SOLV>
22.4135

>  <SCORE.INTER.VDW>
-16.7405

>  <SCORE.INTER.norm>
-3.22455

>  <SCORE.INTRA>
2.70198

>  <SCORE.INTRA.DIHEDRAL>
2.85222

>  <SCORE.INTRA.DIHEDRAL.0>
9.90185

>  <SCORE.INTRA.POLAR>
0

>  <SCORE.INTRA.POLAR.0>
0

>  <SCORE.INTRA.REPUL>
0

>  <SCORE.INTRA.REPUL.0>
0

>  <SCORE.INTRA.SOLV>
2.23219

>  <SCORE.INTRA.SOLV.lig_0>
-53.6586

>  <SCORE.INTRA.VDW>
0.159775

>  <SCORE.INTRA.VDW.0>
-0.556525

>  <SCORE.INTRA.norm>
0.245634

>  <SCORE.RESTR>
0.0668591

>  <SCORE.RESTR.CAVITY>
0.0668591

>  <SCORE.RESTR.norm>
0.0060781

>  <SCORE.SYSTEM>
0

>  <SCORE.SYSTEM.CONST>
0

>  <SCORE.SYSTEM.DIHEDRAL>
0

>  <SCORE.SYSTEM.SOLV>
0

>  <SCORE.SYSTEM.norm>
0

>  <SCORE.heavy>
11

>  <SCORE.norm>
-2.97283

>  <RMSD>
16.187

$$$$

 OpenBabel11021811383D
libRbt.so/2013.1/901 2013/11/27
 11 10  0  0  0  0  0  0  0  0999 V2000
  -10.2705    8.3663    0.9469 N   0  3  0  0  0  0  0  0  0  0  0  0
  -10.5246    7.4729    2.1169 C   0  0  2  0  0  0  0  0  0  0  0  0
  -11.0248    6.1037    1.6258 C   0  0  0  0  0  0  0  0  0  0  0  0
  -11.1289    5.8714    0.4360 O   0  0  0  0  0  0  0  0  0  0  0  0
  -11.5777    8.1177    3.0280 C   0  0  0  0  0  0  0  0  0  0  0  0
  -10.9049    8.6410    4.3002 C   0  0  0  0  0  0  0  0  0  0  0  0
  -10.2320    9.9805    4.0077 C   0  0  0  0  0  0  0  0  0  0  0  0
   -9.2519   10.2794    5.0875 N   0  3  0  0  0  0  0  0  0  0  0  0
   -9.3841   11.3562    5.8125 C   0  0  0  0  0  0  0  0  0  0  0  0
   -9.5996   11.2513    7.0984 N   0  0  0  0  0  0  0  0  0  0  0  0
   -9.2938   12.5353    5.2537 N   0  0  0  0  0  0  0  0  0  0  0  0
  2  1  1  6  0  0  0
  2  3  1  0  0  0  0
  2  5  1  0  0  0  0
  3  4  2  0  0  0  0
  5  6  1  0  0  0  0
  6  7  1  0  0  0  0
  7  8  1  0  0  0  0
  8  9  2  0  0  0  0
  9 10  1  0  0  0  0
  9 11  1  0  0  0  0
M  CHG  2   1   1   8   1
M  END
>  <CHROM.1>
146.78908062,1.76990531,-107.04770465,79.64528095,-162.88255776,-119.98666554
-10.27285569,9.11833463,3.58797275,-2.13159855,1.15185308,1.30596237

>  <Name>


>  <RI>
224

>  <Rbt.Current_Directory>
/home/itssahil/PROJECTS/Mol_Feturizer/New_Systems/rnas/1aju

>  <Rbt.Executable>
rbdock ($Id: //depot/dev/client3/rdock/2013.1/src/exe/rbdock.cxx#4 $)

>  <Rbt.Library>
libRbt.so (2013.1, Build901 2013/11/27)

>  <Rbt.Parameter_File>
/export/apps/rDock/src/rDock_2013.1_src/data/scripts/dock_solv.prm

>  <Rbt.Receptor>
prm/blind_docking_20.prm

>  <SCORE>
-32.8024

>  <SCORE.INTER>
-35.3289

>  <SCORE.INTER.CONST>
1

>  <SCORE.INTER.POLAR>
-6.40576

>  <SCORE.INTER.ROT>
5

>  <SCORE.INTER.SOLV>
22.5473

>  <SCORE.INTER.VDW>
-16.6492

>  <SCORE.INTER.norm>
-3.21172

>  <SCORE.INTRA>
2.45188

>  <SCORE.INTRA.DIHEDRAL>
2.22707

>  <SCORE.INTRA.DIHEDRAL.0>
9.90185

>  <SCORE.INTRA.POLAR>
0

>  <SCORE.INTRA.POLAR.0>
0

>  <SCORE.INTRA.REPUL>
0

>  <SCORE.INTRA.REPUL.0>
0

>  <SCORE.INTRA.SOLV>
2.28911

>  <SCORE.INTRA.SOLV.lig_0>
-53.6586

>  <SCORE.INTRA.VDW>
0.193788

>  <SCORE.INTRA.VDW.0>
-0.556525

>  <SCORE.INTRA.norm>
0.222898

>  <SCORE.RESTR>
0.0746723

>  <SCORE.RESTR.CAVITY>
0.0746723

>  <SCORE.RESTR.norm>
0.00678839

>  <SCORE.SYSTEM>
0

>  <SCORE.SYSTEM.CONST>
0

>  <SCORE.SYSTEM.DIHEDRAL>
0

>  <SCORE.SYSTEM.SOLV>
0

>  <SCORE.SYSTEM.norm>
0

>  <SCORE.heavy>
11

>  <SCORE.norm>
-2.98203

>  <RMSD>
16.193

$$$$

 OpenBabel11021811383D
libRbt.so/2013.1/901 2013/11/27
 11 10  0  0  0  0  0  0  0  0999 V2000
  -10.3384    8.4392    0.8552 N   0  3  0  0  0  0  0  0  0  0  0  0
  -10.8634    7.8638    2.1300 C   0  0  2  0  0  0  0  0  0  0  0  0
  -11.6362    6.5670    1.8350 C   0  0  0  0  0  0  0  0  0  0  0  0
  -11.3503    5.5309    2.4050 O   0  0  0  0  0  0  0  0  0  0  0  0
  -11.7919    8.8839    2.8023 C   0  0  0  0  0  0  0  0  0  0  0  0
  -11.8429    8.6168    4.3093 C   0  0  0  0  0  0  0  0  0  0  0  0
  -10.4703    8.8863    4.9222 C   0  0  0  0  0  0  0  0  0  0  0  0
  -10.3374   10.3431    5.1980 N   0  3  0  0  0  0  0  0  0  0  0  0
   -9.2331   10.8152    5.7083 C   0  0  0  0  0  0  0  0  0  0  0  0
   -8.5128   11.6657    5.0238 N   0  0  0  0  0  0  0  0  0  0  0  0
   -8.8540   10.4427    6.9033 N   0  0  0  0  0  0  0  0  0  0  0  0
  2  1  1  6  0  0  0
  2  3  1  0  0  0  0
  2  5  1  0  0  0  0
  3  4  2  0  0  0  0
  5  6  1  0  0  0  0
  6  7  1  0  0  0  0
  7  8  1  0  0  0  0
  8  9  2  0  0  0  0
  9 10  1  0  0  0  0
  9 11  1  0  0  0  0
M  CHG  2   1   1   8   1
M  END
>  <CHROM.1>
22.60312644,125.75382035,-155.30194466,65.88554741,83.50734781,-179.00078288
-10.44123816,8.93176629,3.81012427,-2.35281820,1.02845208,1.50511940

>  <Name>


>  <RI>
224

>  <Rbt.Current_Directory>
/home/itssahil/PROJECTS/Mol_Feturizer/New_Systems/rnas/1aju

>  <Rbt.Executable>
rbdock ($Id: //depot/dev/client3/rdock/2013.1/src/exe/rbdock.cxx#4 $)

>  <Rbt.Library>
libRbt.so (2013.1, Build901 2013/11/27)

>  <Rbt.Parameter_File>
/export/apps/rDock/src/rDock_2013.1_src/data/scripts/dock_solv.prm

>  <Rbt.Receptor>
prm/blind_docking_20.prm

>  <SCORE>
-34.1174

>  <SCORE.INTER>
-35.0349

>  <SCORE.INTER.CONST>
1

>  <SCORE.INTER.POLAR>
-6.90556

>  <SCORE.INTER.ROT>
5

>  <SCORE.INTER.SOLV>
26.5058

>  <SCORE.INTER.VDW>
-16.1066

>  <SCORE.INTER.norm>
-3.18499

>  <SCORE.INTRA>
0.869922

>  <SCORE.INTRA.DIHEDRAL>
-0.563271

>  <SCORE.INTRA.DIHEDRAL.0>
9.90185

>  <SCORE.INTRA.POLAR>
0

>  <SCORE.INTRA.POLAR.0>
0

>  <SCORE.INTRA.REPUL>
0

>  <SCORE.INTRA.REPUL.0>
0

>  <SCORE.INTRA.SOLV>
0.383946

>  <SCORE.INTRA.SOLV.lig_0>
-53.6586

>  <SCORE.INTRA.VDW>
0.959584

>  <SCORE.INTRA.VDW.0>
-0.556525

>  <SCORE.INTRA.norm>
0.0790838

>  <SCORE.RESTR>
0.0475882

>  <SCORE.RESTR.CAVITY>
0.0475882

>  <SCORE.RESTR.norm>
0.0043262

>  <SCORE.SYSTEM>
0

>  <SCORE.SYSTEM.CONST>
0

>  <SCORE.SYSTEM.DIHEDRAL>
0

>  <SCORE.SYSTEM.SOLV>
0

>  <SCORE.SYSTEM.norm>
0

>  <SCORE.heavy>
11

>  <SCORE.norm>
-3.10158

>  <RMSD>
16.195

$$$$

 OpenBabel11021811383D
libRbt.so/2013.1/901 2013/11/27
 11 10  0  0  0  0  0  0  0  0999 V2000
   -8.7439   10.9477    4.5421 N   0  3  0  0  0  0  0  0  0  0  0  0
  -10.1885   10.5957    4.6870 C   0  0  2  0  0  0  0  0  0  0  0  0
  -10.7126   11.1005    6.0421 C   0  0  0  0  0  0  0  0  0  0  0  0
  -10.9356   12.2833    6.2196 O   0  0  0  0  0  0  0  0  0  0  0  0
  -10.3506    9.0723    4.5988 C   0  0  0  0  0  0  0  0  0  0  0  0
  -11.8255    8.7246    4.3782 C   0  0  0  0  0  0  0  0  0  0  0  0
  -12.2408    9.1340    2.9667 C   0  0  0  0  0  0  0  0  0  0  0  0
  -11.9925    7.9982    2.0371 N   0  3  0  0  0  0  0  0  0  0  0  0
  -10.7787    7.7291    1.6410 C   0  0  0  0  0  0  0  0  0  0  0  0
  -10.2320    6.5830    1.9545 N   0  0  0  0  0  0  0  0  0  0  0  0
  -10.1160    8.6017    0.9267 N   0  0  0  0  0  0  0  0  0  0  0  0
  2  1  1  1  0  0  0
  2  3  1  0  0  0  0
  2  5  1  0  0  0  0
  3  4  2  0  0  0  0
  5  6  1  0  0  0  0
  6  7  1  0  0  0  0
  7  8  1  0  0  0  0
  8  9  2  0  0  0  0
  9 10  1  0  0  0  0
  9 11  1  0  0  0  0
M  CHG  2   1   1   8   1
M  END
>  <CHROM.1>
121.87841050,74.97839414,-165.30347543,70.50216572,89.56085204,-76.41079886
-10.69231058,9.35518075,3.61886446,-1.47191198,-0.30131164,-2.30217254

>  <Name>


>  <RI>
0

>  <Rbt.Current_Directory>
/home/itssahil/PROJECTS/Mol_Feturizer/New_Systems/rnas/1aju

>  <Rbt.Executable>
rbdock ($Id: //depot/dev/client3/rdock/2013.1/src/exe/rbdock.cxx#4 $)

>  <Rbt.Library>
libRbt.so (2013.1, Build901 2013/11/27)

>  <Rbt.Parameter_File>
/export/apps/rDock/src/rDock_2013.1_src/data/scripts/dock_solv.prm

>  <Rbt.Receptor>
prm/blind_docking_80.prm

>  <SCORE>
-25.6983

>  <SCORE.INTER>
-29.3748

>  <SCORE.INTER.CONST>
1

>  <SCORE.INTER.POLAR>
-6.16344

>  <SCORE.INTER.ROT>
5

>  <SCORE.INTER.SOLV>
27.0045

>  <SCORE.INTER.VDW>
-14.9732

>  <SCORE.INTER.norm>
-2.67044

>  <SCORE.INTRA>
2.87887

>  <SCORE.INTRA.DIHEDRAL>
2.87918

>  <SCORE.INTRA.DIHEDRAL.0>
9.90185

>  <SCORE.INTRA.POLAR>
0

>  <SCORE.INTRA.POLAR.0>
0

>  <SCORE.INTRA.REPUL>
0

>  <SCORE.INTRA.REPUL.0>
0

>  <SCORE.INTRA.SOLV>
1.34701

>  <SCORE.INTRA.SOLV.lig_0>
-53.6586

>  <SCORE.INTRA.VDW>
0.765768

>  <SCORE.INTRA.VDW.0>
-0.556525

>  <SCORE.INTRA.norm>
0.261715

>  <SCORE.RESTR>
0.797677

>  <SCORE.RESTR.CAVITY>
0.797677

>  <SCORE.RESTR.norm>
0.0725161

>  <SCORE.SYSTEM>
0

>  <SCORE.SYSTEM.CONST>
0

>  <SCORE.SYSTEM.DIHEDRAL>
0

>  <SCORE.SYSTEM.SOLV>
0

>  <SCORE.SYSTEM.norm>
0

>  <SCORE.heavy>
11

>  <SCORE.norm>
-2.33621

>  <RMSD>
16.219

$$$$

 OpenBabel11021811383D
libRbt.so/2013.1/901 2013/11/27
 11 10  0  0  0  0  0  0  0  0999 V2000
  -10.2984    8.3198    0.8667 N   0  3  0  0  0  0  0  0  0  0  0  0
  -10.6162    7.3712    1.9761 C   0  0  2  0  0  0  0  0  0  0  0  0
  -11.4018    6.1700    1.4232 C   0  0  0  0  0  0  0  0  0  0  0  0
  -10.9712    5.0384    1.5436 O   0  0  0  0  0  0  0  0  0  0  0  0
  -11.4510    8.0966    3.0400 C   0  0  0  0  0  0  0  0  0  0  0  0
  -10.5379    8.9791    3.8956 C   0  0  0  0  0  0  0  0  0  0  0  0
  -11.3432    9.5861    5.0426 C   0  0  0  0  0  0  0  0  0  0  0  0
  -10.4281   10.3637    5.9223 N   0  3  0  0  0  0  0  0  0  0  0  0
   -9.8949   11.4749    5.4939 C   0  0  0  0  0  0  0  0  0  0  0  0
  -10.1765   12.6035    6.0919 N   0  0  0  0  0  0  0  0  0  0  0  0
   -9.0761   11.4561    4.4742 N   0  0  0  0  0  0  0  0  0  0  0  0
  2  1  1  6  0  0  0
  2  3  1  0  0  0  0
  2  5  1  0  0  0  0
  3  4  2  0  0  0  0
  5  6  1  0  0  0  0
  6  7  1  0  0  0  0
  7  8  1  0  0  0  0
  8  9  2  0  0  0  0
  9 10  1  0  0  0  0
  9 11  1  0  0  0  0
M  CHG  2   1   1   8   1
M  END
>  <CHROM.1>
-106.85234004,120.96062321,-77.74699390,-174.13991691,176.04682359,69.36871211
-10.53664236,9.06696354,3.59351826,-1.84072869,1.02340024,0.90413365

>  <Name>


>  <RI>
0

>  <Rbt.Current_Directory>
/home/itssahil/PROJECTS/Mol_Feturizer/New_Systems/rnas/1aju

>  <Rbt.Executable>
rbdock ($Id: //depot/dev/client3/rdock/2013.1/src/exe/rbdock.cxx#4 $)

>  <Rbt.Library>
libRbt.so (2013.1, Build901 2013/11/27)

>  <Rbt.Parameter_File>
/export/apps/rDock/src/rDock_2013.1_src/data/scripts/dock_solv.prm

>  <Rbt.Receptor>
prm/blind_docking_60.prm

>  <SCORE>
-29.0968

>  <SCORE.INTER>
-30.8032

>  <SCORE.INTER.CONST>
1

>  <SCORE.INTER.POLAR>
-5.57324

>  <SCORE.INTER.ROT>
5

>  <SCORE.INTER.SOLV>
24.123

>  <SCORE.INTER.VDW>
-16.9323

>  <SCORE.INTER.norm>
-2.80029

>  <SCORE.INTRA>
1.7064

>  <SCORE.INTRA.DIHEDRAL>
-2.5592

>  <SCORE.INTRA.DIHEDRAL.0>
9.90185

>  <SCORE.INTRA.POLAR>
0

>  <SCORE.INTRA.POLAR.0>
0

>  <SCORE.INTRA.REPUL>
0

>  <SCORE.INTRA.REPUL.0>
0

>  <SCORE.INTRA.SOLV>
1.62986

>  <SCORE.INTRA.SOLV.lig_0>
-53.6586

>  <SCORE.INTRA.VDW>
2.17107

>  <SCORE.INTRA.VDW.0>
-0.556525

>  <SCORE.INTRA.norm>
0.155127

>  <SCORE.RESTR>
0

>  <SCORE.RESTR.CAVITY>
0

>  <SCORE.RESTR.norm>
0

>  <SCORE.SYSTEM>
0

>  <SCORE.SYSTEM.CONST>
0

>  <SCORE.SYSTEM.DIHEDRAL>
0

>  <SCORE.SYSTEM.SOLV>
0

>  <SCORE.SYSTEM.norm>
0

>  <SCORE.heavy>
11

>  <SCORE.norm>
-2.64517

>  <RMSD>
16.247

$$$$

 OpenBabel11021811383D
libRbt.so/2013.1/901 2013/11/27
 11 10  0  0  0  0  0  0  0  0999 V2000
  -10.2678    8.4439    0.8626 N   0  3  0  0  0  0  0  0  0  0  0  0
  -10.5603    7.7712    2.1641 C   0  0  2  0  0  0  0  0  0  0  0  0
  -11.2065    6.3995    1.9059 C   0  0  0  0  0  0  0  0  0  0  0  0
  -11.2479    5.9346    0.7823 O   0  0  0  0  0  0  0  0  0  0  0  0
  -11.5115    8.6504    2.9868 C   0  0  0  0  0  0  0  0  0  0  0  0
  -11.2299    8.4548    4.4793 C   0  0  0  0  0  0  0  0  0  0  0  0
  -11.1630    9.8159    5.1688 C   0  0  0  0  0  0  0  0  0  0  0  0
   -9.8875   10.4878    4.7978 N   0  3  0  0  0  0  0  0  0  0  0  0
   -9.1979   11.1290    5.7011 C   0  0  0  0  0  0  0  0  0  0  0  0
   -7.9944   10.7209    6.0106 N   0  0  0  0  0  0  0  0  0  0  0  0
   -9.7084   12.1803    6.2884 N   0  0  0  0  0  0  0  0  0  0  0  0
  2  1  1  6  0  0  0
  2  3  1  0  0  0  0
  2  5  1  0  0  0  0
  3  4  2  0  0  0  0
  5  6  1  0  0  0  0
  6  7  1  0  0  0  0
  7  8  1  0  0  0  0
  8  9  2  0  0  0  0
  9 10  1  0  0  0  0
  9 11  1  0  0  0  0
M  CHG  2   1   1   8   1
M  END
>  <CHROM.1>
145.44398479,9.73232300,-148.69712665,133.70017969,-73.53872947,-138.20800210
-10.33135929,9.11164694,3.70636846,-1.87633179,0.48687436,0.96340095

>  <Name>


>  <RI>
224

>  <Rbt.Current_Directory>
/home/itssahil/PROJECTS/Mol_Feturizer/New_Systems/rnas/1aju

>  <Rbt.Executable>
rbdock ($Id: //depot/dev/client3/rdock/2013.1/src/exe/rbdock.cxx#4 $)

>  <Rbt.Library>
libRbt.so (2013.1, Build901 2013/11/27)

>  <Rbt.Parameter_File>
/export/apps/rDock/src/rDock_2013.1_src/data/scripts/dock_solv.prm

>  <Rbt.Receptor>
prm/blind_docking_20.prm

>  <SCORE>
-26.9242

>  <SCORE.INTER>
-30.2869

>  <SCORE.INTER.CONST>
1

>  <SCORE.INTER.POLAR>
-5.46517

>  <SCORE.INTER.ROT>
5

>  <SCORE.INTER.SOLV>
24.7539

>  <SCORE.INTER.VDW>
-17.1587

>  <SCORE.INTER.norm>
-2.75336

>  <SCORE.INTRA>
3.2495

>  <SCORE.INTRA.DIHEDRAL>
4.18044

>  <SCORE.INTRA.DIHEDRAL.0>
9.90185

>  <SCORE.INTRA.POLAR>
0

>  <SCORE.INTRA.POLAR.0>
0

>  <SCORE.INTRA.REPUL>
0

>  <SCORE.INTRA.REPUL.0>
0

>  <SCORE.INTRA.SOLV>
1.78918

>  <SCORE.INTRA.SOLV.lig_0>
-53.6586

>  <SCORE.INTRA.VDW>
0.264698

>  <SCORE.INTRA.VDW.0>
-0.556525

>  <SCORE.INTRA.norm>
0.295409

>  <SCORE.RESTR>
0.113266

>  <SCORE.RESTR.CAVITY>
0.113266

>  <SCORE.RESTR.norm>
0.0102969

>  <SCORE.SYSTEM>
0

>  <SCORE.SYSTEM.CONST>
0

>  <SCORE.SYSTEM.DIHEDRAL>
0

>  <SCORE.SYSTEM.SOLV>
0

>  <SCORE.SYSTEM.norm>
0

>  <SCORE.heavy>
11

>  <SCORE.norm>
-2.44765

>  <RMSD>
16.274

$$$$

 OpenBabel11021811383D
libRbt.so/2013.1/901 2013/11/27
 11 10  0  0  0  0  0  0  0  0999 V2000
  -10.3405    8.3025    0.8597 N   0  3  0  0  0  0  0  0  0  0  0  0
  -10.7557    7.3520    1.9348 C   0  0  2  0  0  0  0  0  0  0  0  0
  -11.6620    6.2602    1.3411 C   0  0  0  0  0  0  0  0  0  0  0  0
  -11.4024    5.0826    1.5025 O   0  0  0  0  0  0  0  0  0  0  0  0
  -11.5106    8.1207    3.0275 C   0  0  0  0  0  0  0  0  0  0  0  0
  -10.5232    8.9683    3.8345 C   0  0  0  0  0  0  0  0  0  0  0  0
  -11.2387    9.5777    5.0384 C   0  0  0  0  0  0  0  0  0  0  0  0
  -10.2445   10.2908    5.8864 N   0  3  0  0  0  0  0  0  0  0  0  0
   -9.8217   11.4766    5.5434 C   0  0  0  0  0  0  0  0  0  0  0  0
  -10.0651   12.5023    6.3178 N   0  0  0  0  0  0  0  0  0  0  0  0
   -9.1506   11.6349    4.4320 N   0  0  0  0  0  0  0  0  0  0  0  0
  2  1  1  6  0  0  0
  2  3  1  0  0  0  0
  2  5  1  0  0  0  0
  3  4  2  0  0  0  0
  5  6  1  0  0  0  0
  6  7  1  0  0  0  0
  7  8  1  0  0  0  0
  8  9  2  0  0  0  0
  9 10  1  0  0  0  0
  9 11  1  0  0  0  0
M  CHG  2   1   1   8   1
M  END
>  <CHROM.1>
6.85379028,126.34199636,-72.79850381,-172.12560552,174.61925911,78.65978100
-10.58428642,9.07652123,3.59057198,-1.94493185,1.02930690,1.01227961

>  <Name>


>  <RI>
224

>  <Rbt.Current_Directory>
/home/itssahil/PROJECTS/Mol_Feturizer/New_Systems/rnas/1aju

>  <Rbt.Executable>
rbdock ($Id: //depot/dev/client3/rdock/2013.1/src/exe/rbdock.cxx#4 $)

>  <Rbt.Library>
libRbt.so (2013.1, Build901 2013/11/27)

>  <Rbt.Parameter_File>
/export/apps/rDock/src/rDock_2013.1_src/data/scripts/dock_solv.prm

>  <Rbt.Receptor>
prm/blind_docking_20.prm

>  <SCORE>
-28.1768

>  <SCORE.INTER>
-29.1622

>  <SCORE.INTER.CONST>
1

>  <SCORE.INTER.POLAR>
-5.3161

>  <SCORE.INTER.ROT>
5

>  <SCORE.INTER.SOLV>
23.294

>  <SCORE.INTER.VDW>
-16.4191

>  <SCORE.INTER.norm>
-2.65111

>  <SCORE.INTRA>
0.882213

>  <SCORE.INTRA.DIHEDRAL>
-2.51665

>  <SCORE.INTRA.DIHEDRAL.0>
9.90185

>  <SCORE.INTRA.POLAR>
0

>  <SCORE.INTRA.POLAR.0>
0

>  <SCORE.INTRA.REPUL>
0

>  <SCORE.INTRA.REPUL.0>
0

>  <SCORE.INTRA.SOLV>
1.57936

>  <SCORE.INTRA.SOLV.lig_0>
-53.6586

>  <SCORE.INTRA.VDW>
1.35086

>  <SCORE.INTRA.VDW.0>
-0.556525

>  <SCORE.INTRA.norm>
0.0802012

>  <SCORE.RESTR>
0.103133

>  <SCORE.RESTR.CAVITY>
0.103133

>  <SCORE.RESTR.norm>
0.00937576

>  <SCORE.SYSTEM>
0

>  <SCORE.SYSTEM.CONST>
0

>  <SCORE.SYSTEM.DIHEDRAL>
0

>  <SCORE.SYSTEM.SOLV>
0

>  <SCORE.SYSTEM.norm>
0

>  <SCORE.heavy>
11

>  <SCORE.norm>
-2.56153

>  <RMSD>
16.303

$$$$

 OpenBabel11021811383D
libRbt.so/2013.1/901 2013/11/27
 11 10  0  0  0  0  0  0  0  0999 V2000
   -9.9924    7.7920    0.5523 N   0  3  0  0  0  0  0  0  0  0  0  0
  -10.4823    7.5534    1.9432 C   0  0  2  0  0  0  0  0  0  0  0  0
  -11.6792    6.5879    1.9138 C   0  0  0  0  0  0  0  0  0  0  0  0
  -12.0275    6.0628    0.8729 O   0  0  0  0  0  0  0  0  0  0  0  0
  -10.9043    8.8898    2.5685 C   0  0  0  0  0  0  0  0  0  0  0  0
  -10.7651    8.8109    4.0914 C   0  0  0  0  0  0  0  0  0  0  0  0
  -10.5360   10.2113    4.6562 C   0  0  0  0  0  0  0  0  0  0  0  0
   -9.1621   10.2889    5.2238 N   0  3  0  0  0  0  0  0  0  0  0  0
   -8.8309   11.2806    6.0045 C   0  0  0  0  0  0  0  0  0  0  0  0
   -8.4968   11.0456    7.2471 N   0  0  0  0  0  0  0  0  0  0  0  0
   -8.8269   12.5037    5.5413 N   0  0  0  0  0  0  0  0  0  0  0  0
  2  1  1  6  0  0  0
  2  3  1  0  0  0  0
  2  5  1  0  0  0  0
  3  4  2  0  0  0  0
  5  6  1  0  0  0  0
  6  7  1  0  0  0  0
  7  8  1  0  0  0  0
  8  9  2  0  0  0  0
  9 10  1  0  0  0  0
  9 11  1  0  0  0  0
M  CHG  2   1   1   8   1
M  END
>  <CHROM.1>
-83.79268490,5.48472121,-153.19387760,153.67524129,-113.21062914,-165.69498372
-10.12862687,9.19264202,3.66486419,-2.19124718,0.96141229,1.36466744

>  <Name>


>  <RI>
0

>  <Rbt.Current_Directory>
/home/itssahil/PROJECTS/Mol_Feturizer/New_Systems/rnas/1aju

>  <Rbt.Executable>
rbdock ($Id: //depot/dev/client3/rdock/2013.1/src/exe/rbdock.cxx#4 $)

>  <Rbt.Library>
libRbt.so (2013.1, Build901 2013/11/27)

>  <Rbt.Parameter_File>
/export/apps/rDock/src/rDock_2013.1_src/data/scripts/dock_solv.prm

>  <Rbt.Receptor>
prm/blind_docking_80.prm

>  <SCORE>
-23.2366

>  <SCORE.INTER>
-27.3473

>  <SCORE.INTER.CONST>
1

>  <SCORE.INTER.POLAR>
-5.6285

>  <SCORE.INTER.ROT>
5

>  <SCORE.INTER.SOLV>
24.2039

>  <SCORE.INTER.VDW>
-14.4711

>  <SCORE.INTER.norm>
-2.48611

>  <SCORE.INTRA>
2.91463

>  <SCORE.INTRA.DIHEDRAL>
4.25853

>  <SCORE.INTRA.DIHEDRAL.0>
9.90185

>  <SCORE.INTRA.POLAR>
0

>  <SCORE.INTRA.POLAR.0>
0

>  <SCORE.INTRA.REPUL>
0

>  <SCORE.INTRA.REPUL.0>
0

>  <SCORE.INTRA.SOLV>
1.0444

>  <SCORE.INTRA.SOLV.lig_0>
-53.6586

>  <SCORE.INTRA.VDW>
0.263158

>  <SCORE.INTRA.VDW.0>
-0.556525

>  <SCORE.INTRA.norm>
0.264966

>  <SCORE.RESTR>
1.19604

>  <SCORE.RESTR.CAVITY>
1.19604

>  <SCORE.RESTR.norm>
0.108731

>  <SCORE.SYSTEM>
0

>  <SCORE.SYSTEM.CONST>
0

>  <SCORE.SYSTEM.DIHEDRAL>
0

>  <SCORE.SYSTEM.SOLV>
0

>  <SCORE.SYSTEM.norm>
0

>  <SCORE.heavy>
11

>  <SCORE.norm>
-2.11242

>  <RMSD>
16.309

$$$$

 OpenBabel11021811383D
libRbt.so/2013.1/901 2013/11/27
 11 10  0  0  0  0  0  0  0  0999 V2000
  -10.3028    8.2801    0.8907 N   0  3  0  0  0  0  0  0  0  0  0  0
  -10.5892    7.3251    2.0032 C   0  0  2  0  0  0  0  0  0  0  0  0
  -11.3916    6.1278    1.4661 C   0  0  0  0  0  0  0  0  0  0  0  0
  -11.6681    6.0461    0.2841 O   0  0  0  0  0  0  0  0  0  0  0  0
  -11.3921    8.0447    3.0951 C   0  0  0  0  0  0  0  0  0  0  0  0
  -10.4859    9.0369    3.8293 C   0  0  0  0  0  0  0  0  0  0  0  0
  -11.1795    9.5158    5.1029 C   0  0  0  0  0  0  0  0  0  0  0  0
  -10.2040   10.2736    5.9335 N   0  3  0  0  0  0  0  0  0  0  0  0
   -9.7941   11.4520    5.5512 C   0  0  0  0  0  0  0  0  0  0  0  0
  -10.0595   12.5018    6.2848 N   0  0  0  0  0  0  0  0  0  0  0  0
   -9.1142   11.5788    4.4411 N   0  0  0  0  0  0  0  0  0  0  0  0
  2  1  1  6  0  0  0
  2  3  1  0  0  0  0
  2  5  1  0  0  0  0
  3  4  2  0  0  0  0
  5  6  1  0  0  0  0
  6  7  1  0  0  0  0
  7  8  1  0  0  0  0
  8  9  2  0  0  0  0
  9 10  1  0  0  0  0
  9 11  1  0  0  0  0
M  CHG  2   1   1   8   1
M  END
>  <CHROM.1>
129.48649512,1.92520790,-71.54269430,-167.23802158,169.56490360,70.84596824
-10.54309029,9.14244930,3.50142285,-1.90504987,0.96378364,1.04852291

>  <Name>


>  <RI>
224

>  <Rbt.Current_Directory>
/home/itssahil/PROJECTS/Mol_Feturizer/New_Systems/rnas/1aju

>  <Rbt.Executable>
rbdock ($Id: //depot/dev/client3/rdock/2013.1/src/exe/rbdock.cxx#4 $)

>  <Rbt.Library>
libRbt.so (2013.1, Build901 2013/11/27)

>  <Rbt.Parameter_File>
/export/apps/rDock/src/rDock_2013.1_src/data/scripts/dock_solv.prm

>  <Rbt.Receptor>
prm/blind_docking_20.prm

>  <SCORE>
-27.664

>  <SCORE.INTER>
-30.4406

>  <SCORE.INTER.CONST>
1

>  <SCORE.INTER.POLAR>
-5.46254

>  <SCORE.INTER.ROT>
5

>  <SCORE.INTER.SOLV>
22.5754

>  <SCORE.INTER.VDW>
-16.5438

>  <SCORE.INTER.norm>
-2.76733

>  <SCORE.INTRA>
2.67037

>  <SCORE.INTRA.DIHEDRAL>
-2.08035

>  <SCORE.INTRA.DIHEDRAL.0>
9.90185

>  <SCORE.INTRA.POLAR>
0

>  <SCORE.INTRA.POLAR.0>
0

>  <SCORE.INTRA.REPUL>
0

>  <SCORE.INTRA.REPUL.0>
0

>  <SCORE.INTRA.SOLV>
2.82008

>  <SCORE.INTRA.SOLV.lig_0>
-53.6586

>  <SCORE.INTRA.VDW>
2.30051

>  <SCORE.INTRA.VDW.0>
-0.556525

>  <SCORE.INTRA.norm>
0.242761

>  <SCORE.RESTR>
0.106296

>  <SCORE.RESTR.CAVITY>
0.106296

>  <SCORE.RESTR.norm>
0.00966324

>  <SCORE.SYSTEM>
0

>  <SCORE.SYSTEM.CONST>
0

>  <SCORE.SYSTEM.DIHEDRAL>
0

>  <SCORE.SYSTEM.SOLV>
0

>  <SCORE.SYSTEM.norm>
0

>  <SCORE.heavy>
11

>  <SCORE.norm>
-2.51491

>  <RMSD>
16.311

$$$$

 OpenBabel11021811383D
libRbt.so/2013.1/901 2013/11/27
 11 10  0  0  0  0  0  0  0  0999 V2000
   -8.4827   11.0781    4.7394 N   0  3  0  0  0  0  0  0  0  0  0  0
   -9.7037   11.2788    5.5762 C   0  0  2  0  0  0  0  0  0  0  0  0
   -9.3244   11.9907    6.8859 C   0  0  0  0  0  0  0  0  0  0  0  0
   -9.4932   13.1889    7.0122 O   0  0  0  0  0  0  0  0  0  0  0  0
  -10.3355    9.9153    5.8867 C   0  0  0  0  0  0  0  0  0  0  0  0
  -11.3033    9.5301    4.7642 C   0  0  0  0  0  0  0  0  0  0  0  0
  -10.5174    9.2602    3.4828 C   0  0  0  0  0  0  0  0  0  0  0  0
  -11.3585    8.4544    2.5560 N   0  3  0  0  0  0  0  0  0  0  0  0
  -10.8214    7.5005    1.8458 C   0  0  0  0  0  0  0  0  0  0  0  0
  -11.1996    6.2620    2.0294 N   0  0  0  0  0  0  0  0  0  0  0  0
   -9.9132    7.7859    0.9488 N   0  0  0  0  0  0  0  0  0  0  0  0
  2  1  1  6  0  0  0
  2  3  1  0  0  0  0
  2  5  1  0  0  0  0
  3  4  2  0  0  0  0
  5  6  1  0  0  0  0
  6  7  1  0  0  0  0
  7  8  1  0  0  0  0
  8  9  2  0  0  0  0
  9 10  1  0  0  0  0
  9 11  1  0  0  0  0
M  CHG  2   1   1   8   1
M  END
>  <CHROM.1>
123.98270528,99.36053788,-87.50646108,67.71664982,160.64873390,-140.80902500
-10.19628644,9.65361245,4.12219677,-1.31156295,-0.63276797,-2.21254829

>  <Name>


>  <RI>
0

>  <Rbt.Current_Directory>
/home/itssahil/PROJECTS/Mol_Feturizer/New_Systems/rnas/1aju

>  <Rbt.Executable>
rbdock ($Id: //depot/dev/client3/rdock/2013.1/src/exe/rbdock.cxx#4 $)

>  <Rbt.Library>
libRbt.so (2013.1, Build901 2013/11/27)

>  <Rbt.Parameter_File>
/export/apps/rDock/src/rDock_2013.1_src/data/scripts/dock_solv.prm

>  <Rbt.Receptor>
prm/blind_docking_60.prm

>  <SCORE>
-17.2228

>  <SCORE.INTER>
-20.4669

>  <SCORE.INTER.CONST>
1

>  <SCORE.INTER.POLAR>
-3.87425

>  <SCORE.INTER.ROT>
5

>  <SCORE.INTER.SOLV>
23.2912

>  <SCORE.INTER.VDW>
-15.4275

>  <SCORE.INTER.norm>
-1.86063

>  <SCORE.INTRA>
3.14582

>  <SCORE.INTRA.DIHEDRAL>
1.04706

>  <SCORE.INTRA.DIHEDRAL.0>
9.90185

>  <SCORE.INTRA.POLAR>
0

>  <SCORE.INTRA.POLAR.0>
0

>  <SCORE.INTRA.REPUL>
0

>  <SCORE.INTRA.REPUL.0>
0

>  <SCORE.INTRA.SOLV>
2.25681

>  <SCORE.INTRA.SOLV.lig_0>
-53.6586

>  <SCORE.INTRA.VDW>
1.49388

>  <SCORE.INTRA.VDW.0>
-0.556525

>  <SCORE.INTRA.norm>
0.285983

>  <SCORE.RESTR>
0.0983315

>  <SCORE.RESTR.CAVITY>
0.0983315

>  <SCORE.RESTR.norm>
0.00893922

>  <SCORE.SYSTEM>
0

>  <SCORE.SYSTEM.CONST>
0

>  <SCORE.SYSTEM.DIHEDRAL>
0

>  <SCORE.SYSTEM.SOLV>
0

>  <SCORE.SYSTEM.norm>
0

>  <SCORE.heavy>
11

>  <SCORE.norm>
-1.56571

>  <RMSD>
16.366

$$$$

 OpenBabel11021811383D
libRbt.so/2013.1/901 2013/11/27
 11 10  0  0  0  0  0  0  0  0999 V2000
  -10.6072    7.0736    0.7451 N   0  3  0  0  0  0  0  0  0  0  0  0
  -11.0122    7.2461    2.1726 C   0  0  2  0  0  0  0  0  0  0  0  0
  -12.4762    6.8105    2.3533 C   0  0  0  0  0  0  0  0  0  0  0  0
  -13.0670    6.2342    1.4594 O   0  0  0  0  0  0  0  0  0  0  0  0
  -10.8525    8.7195    2.5706 C   0  0  0  0  0  0  0  0  0  0  0  0
  -10.6683    8.8249    4.0871 C   0  0  0  0  0  0  0  0  0  0  0  0
  -10.3506   10.2705    4.4635 C   0  0  0  0  0  0  0  0  0  0  0  0
   -9.0164   10.3206    5.1216 N   0  3  0  0  0  0  0  0  0  0  0  0
   -8.7499   11.2557    5.9919 C   0  0  0  0  0  0  0  0  0  0  0  0
   -8.4910   10.9335    7.2328 N   0  0  0  0  0  0  0  0  0  0  0  0
   -8.7353   12.5095    5.6200 N   0  0  0  0  0  0  0  0  0  0  0  0
  2  1  1  6  0  0  0
  2  3  1  0  0  0  0
  2  5  1  0  0  0  0
  3  4  2  0  0  0  0
  5  6  1  0  0  0  0
  6  7  1  0  0  0  0
  7  8  1  0  0  0  0
  8  9  2  0  0  0  0
  9 10  1  0  0  0  0
  9 11  1  0  0  0  0
M  CHG  2   1   1   8   1
M  END
>  <CHROM.1>
-57.42928387,9.99935730,-155.77916239,173.57156095,-119.50431322,-151.89032917
-10.34742149,9.10656328,3.77736734,-2.22173654,0.76668296,1.26909635

>  <Name>


>  <RI>
0

>  <Rbt.Current_Directory>
/home/itssahil/PROJECTS/Mol_Feturizer/New_Systems/rnas/1aju

>  <Rbt.Executable>
rbdock ($Id: //depot/dev/client3/rdock/2013.1/src/exe/rbdock.cxx#4 $)

>  <Rbt.Library>
libRbt.so (2013.1, Build901 2013/11/27)

>  <Rbt.Parameter_File>
/export/apps/rDock/src/rDock_2013.1_src/data/scripts/dock_solv.prm

>  <Rbt.Receptor>
prm/blind_docking_60.prm

>  <SCORE>
-25.2682

>  <SCORE.INTER>
-26.0889

>  <SCORE.INTER.CONST>
1

>  <SCORE.INTER.POLAR>
-5.30944

>  <SCORE.INTER.ROT>
5

>  <SCORE.INTER.SOLV>
19.3809

>  <SCORE.INTER.VDW>
-13.0881

>  <SCORE.INTER.norm>
-2.37172

>  <SCORE.INTRA>
0.820682

>  <SCORE.INTRA.DIHEDRAL>
0.698162

>  <SCORE.INTRA.DIHEDRAL.0>
9.90185

>  <SCORE.INTRA.POLAR>
0

>  <SCORE.INTRA.POLAR.0>
0

>  <SCORE.INTRA.REPUL>
0

>  <SCORE.INTRA.REPUL.0>
0

>  <SCORE.INTRA.SOLV>
1.02391

>  <SCORE.INTRA.SOLV.lig_0>
-53.6586

>  <SCORE.INTRA.VDW>
-0.040355

>  <SCORE.INTRA.VDW.0>
-0.556525

>  <SCORE.INTRA.norm>
0.0746074

>  <SCORE.RESTR>
0

>  <SCORE.RESTR.CAVITY>
0

>  <SCORE.RESTR.norm>
0

>  <SCORE.SYSTEM>
0

>  <SCORE.SYSTEM.CONST>
0

>  <SCORE.SYSTEM.DIHEDRAL>
0

>  <SCORE.SYSTEM.SOLV>
0

>  <SCORE.SYSTEM.norm>
0

>  <SCORE.heavy>
11

>  <SCORE.norm>
-2.29711

>  <RMSD>
16.424

$$$$

 OpenBabel11021811383D
libRbt.so/2013.1/901 2013/11/27
 11 10  0  0  0  0  0  0  0  0999 V2000
   -8.3695   10.5999    5.8499 N   0  3  0  0  0  0  0  0  0  0  0  0
   -9.6393   11.1729    5.3104 C   0  0  2  0  0  0  0  0  0  0  0  0
   -9.8615   12.5801    5.8901 C   0  0  0  0  0  0  0  0  0  0  0  0
   -9.7540   13.5658    5.1850 O   0  0  0  0  0  0  0  0  0  0  0  0
  -10.8110   10.2590    5.6935 C   0  0  0  0  0  0  0  0  0  0  0  0
  -10.8496    9.0516    4.7523 C   0  0  0  0  0  0  0  0  0  0  0  0
  -11.3419    9.4931    3.3757 C   0  0  0  0  0  0  0  0  0  0  0  0
  -11.5274    8.2918    2.5163 N   0  3  0  0  0  0  0  0  0  0  0  0
  -10.5322    7.8334    1.8076 C   0  0  0  0  0  0  0  0  0  0  0  0
  -10.0621    6.6363    2.0459 N   0  0  0  0  0  0  0  0  0  0  0  0
  -10.0134    8.5680    0.8579 N   0  0  0  0  0  0  0  0  0  0  0  0
  2  1  1  1  0  0  0
  2  3  1  0  0  0  0
  2  5  1  0  0  0  0
  3  4  2  0  0  0  0
  5  6  1  0  0  0  0
  6  7  1  0  0  0  0
  7  8  1  0  0  0  0
  8  9  2  0  0  0  0
  9 10  1  0  0  0  0
  9 11  1  0  0  0  0
M  CHG  2   1   1   8   1
M  END
>  <CHROM.1>
57.02846677,109.68679985,-78.98683914,-72.76472312,-173.47049753,-88.44692891
-10.21019479,9.81034557,3.92023581,-0.40185709,1.39923115,2.69161860

>  <Name>


>  <RI>
0

>  <Rbt.Current_Directory>
/home/itssahil/PROJECTS/Mol_Feturizer/New_Systems/rnas/1aju

>  <Rbt.Executable>
rbdock ($Id: //depot/dev/client3/rdock/2013.1/src/exe/rbdock.cxx#4 $)

>  <Rbt.Library>
libRbt.so (2013.1, Build901 2013/11/27)

>  <Rbt.Parameter_File>
/export/apps/rDock/src/rDock_2013.1_src/data/scripts/dock_solv.prm

>  <Rbt.Receptor>
prm/blind_docking_60.prm

>  <SCORE>
-30.5748

>  <SCORE.INTER>
-28.6571

>  <SCORE.INTER.CONST>
1

>  <SCORE.INTER.POLAR>
-5.77642

>  <SCORE.INTER.ROT>
5

>  <SCORE.INTER.SOLV>
27.3663

>  <SCORE.INTER.VDW>
-15.9054

>  <SCORE.INTER.norm>
-2.60519

>  <SCORE.INTRA>
-1.94246

>  <SCORE.INTRA.DIHEDRAL>
-4.7104

>  <SCORE.INTRA.DIHEDRAL.0>
9.90185

>  <SCORE.INTRA.POLAR>
0

>  <SCORE.INTRA.POLAR.0>
0

>  <SCORE.INTRA.REPUL>
0

>  <SCORE.INTRA.REPUL.0>
0

>  <SCORE.INTRA.SOLV>
1.26867

>  <SCORE.INTRA.SOLV.lig_0>
-53.6586

>  <SCORE.INTRA.VDW>
-0.221598

>  <SCORE.INTRA.VDW.0>
-0.556525

>  <SCORE.INTRA.norm>
-0.176587

>  <SCORE.RESTR>
0.0247696

>  <SCORE.RESTR.CAVITY>
0.0247696

>  <SCORE.RESTR.norm>
0.00225178

>  <SCORE.SYSTEM>
0

>  <SCORE.SYSTEM.CONST>
0

>  <SCORE.SYSTEM.DIHEDRAL>
0

>  <SCORE.SYSTEM.SOLV>
0

>  <SCORE.SYSTEM.norm>
0

>  <SCORE.heavy>
11

>  <SCORE.norm>
-2.77953

>  <RMSD>
16.450

$$$$

 OpenBabel11021811383D
libRbt.so/2013.1/901 2013/11/27
 11 10  0  0  0  0  0  0  0  0999 V2000
   -8.4625   10.4084    6.2865 N   0  3  0  0  0  0  0  0  0  0  0  0
   -9.5530   11.1338    5.5679 C   0  0  2  0  0  0  0  0  0  0  0  0
   -9.6557   12.5740    6.0980 C   0  0  0  0  0  0  0  0  0  0  0  0
   -8.8108   13.4018    5.8130 O   0  0  0  0  0  0  0  0  0  0  0  0
  -10.8822   10.3995    5.7895 C   0  0  0  0  0  0  0  0  0  0  0  0
  -10.8674    9.0701    5.0297 C   0  0  0  0  0  0  0  0  0  0  0  0
  -10.9654    9.3386    3.5294 C   0  0  0  0  0  0  0  0  0  0  0  0
  -10.7663    8.0610    2.7919 N   0  3  0  0  0  0  0  0  0  0  0  0
  -11.0544    7.9862    1.5214 C   0  0  0  0  0  0  0  0  0  0  0  0
  -10.1074    7.7376    0.6540 N   0  0  0  0  0  0  0  0  0  0  0  0
  -12.2881    8.1527    1.1202 N   0  0  0  0  0  0  0  0  0  0  0  0
  2  1  1  1  0  0  0
  2  3  1  0  0  0  0
  2  5  1  0  0  0  0
  3  4  2  0  0  0  0
  5  6  1  0  0  0  0
  6  7  1  0  0  0  0
  7  8  1  0  0  0  0
  8  9  2  0  0  0  0
  9 10  1  0  0  0  0
  9 11  1  0  0  0  0
M  CHG  2   1   1   8   1
M  END
>  <CHROM.1>
-30.34441202,73.04836061,-70.23115001,-71.45229866,172.44757349,166.99280212
-10.27595106,9.82781305,4.00598810,0.92377151,1.05269971,1.44123027

>  <Name>


>  <RI>
0

>  <Rbt.Current_Directory>
/home/itssahil/PROJECTS/Mol_Feturizer/New_Systems/rnas/1aju

>  <Rbt.Executable>
rbdock ($Id: //depot/dev/client3/rdock/2013.1/src/exe/rbdock.cxx#4 $)

>  <Rbt.Library>
libRbt.so (2013.1, Build901 2013/11/27)

>  <Rbt.Parameter_File>
/export/apps/rDock/src/rDock_2013.1_src/data/scripts/dock_solv.prm

>  <Rbt.Receptor>
prm/blind_docking_60.prm

>  <SCORE>
-35.9506

>  <SCORE.INTER>
-36.7116

>  <SCORE.INTER.CONST>
1

>  <SCORE.INTER.POLAR>
-6.89194

>  <SCORE.INTER.ROT>
5

>  <SCORE.INTER.SOLV>
23.4559

>  <SCORE.INTER.VDW>
-16.2532

>  <SCORE.INTER.norm>
-3.33741

>  <SCORE.INTRA>
0.639609

>  <SCORE.INTRA.DIHEDRAL>
-1.62259

>  <SCORE.INTRA.DIHEDRAL.0>
9.90185

>  <SCORE.INTRA.POLAR>
0

>  <SCORE.INTRA.POLAR.0>
0

>  <SCORE.INTRA.REPUL>
0

>  <SCORE.INTRA.REPUL.0>
0

>  <SCORE.INTRA.SOLV>
1.70954

>  <SCORE.INTRA.SOLV.lig_0>
-53.6586

>  <SCORE.INTRA.VDW>
0.596131

>  <SCORE.INTRA.VDW.0>
-0.556525

>  <SCORE.INTRA.norm>
0.0581462

>  <SCORE.RESTR>
0.121301

>  <SCORE.RESTR.CAVITY>
0.121301

>  <SCORE.RESTR.norm>
0.0110274

>  <SCORE.SYSTEM>
0

>  <SCORE.SYSTEM.CONST>
0

>  <SCORE.SYSTEM.DIHEDRAL>
0

>  <SCORE.SYSTEM.SOLV>
0

>  <SCORE.SYSTEM.norm>
0

>  <SCORE.heavy>
11

>  <SCORE.norm>
-3.26824

>  <RMSD>
16.473

$$$$

 OpenBabel11021811383D
libRbt.so/2013.1/901 2013/11/27
 11 10  0  0  0  0  0  0  0  0999 V2000
   -9.5070   10.9970    7.6935 N   0  3  0  0  0  0  0  0  0  0  0  0
   -9.3391   11.0602    6.2104 C   0  0  2  0  0  0  0  0  0  0  0  0
   -9.0383   12.5067    5.7830 C   0  0  0  0  0  0  0  0  0  0  0  0
   -7.9006   12.9371    5.8071 O   0  0  0  0  0  0  0  0  0  0  0  0
  -10.6267   10.5722    5.5331 C   0  0  0  0  0  0  0  0  0  0  0  0
  -10.3375    9.2944    4.7404 C   0  0  0  0  0  0  0  0  0  0  0  0
  -11.4722    9.0402    3.7502 C   0  0  0  0  0  0  0  0  0  0  0  0
  -11.1136    7.8831    2.8850 N   0  3  0  0  0  0  0  0  0  0  0  0
  -11.2844    7.9532    1.5932 C   0  0  0  0  0  0  0  0  0  0  0  0
  -10.2500    7.8793    0.7962 N   0  0  0  0  0  0  0  0  0  0  0  0
  -12.4879    8.0898    1.0997 N   0  0  0  0  0  0  0  0  0  0  0  0
  2  1  1  1  0  0  0
  2  3  1  0  0  0  0
  2  5  1  0  0  0  0
  3  4  2  0  0  0  0
  5  6  1  0  0  0  0
  6  7  1  0  0  0  0
  7  8  1  0  0  0  0
  8  9  2  0  0  0  0
  9 10  1  0  0  0  0
  9 11  1  0  0  0  0
M  CHG  2   1   1   8   1
M  END
>  <CHROM.1>
-59.40368637,84.91279868,-115.94513175,-163.28287593,173.93998454,-133.81662110
-10.29302010,9.83330465,4.18221809,1.03434672,0.79840483,1.30791628

>  <Name>


>  <RI>
224

>  <Rbt.Current_Directory>
/home/itssahil/PROJECTS/Mol_Feturizer/New_Systems/rnas/1aju

>  <Rbt.Executable>
rbdock ($Id: //depot/dev/client3/rdock/2013.1/src/exe/rbdock.cxx#4 $)

>  <Rbt.Library>
libRbt.so (2013.1, Build901 2013/11/27)

>  <Rbt.Parameter_File>
/export/apps/rDock/src/rDock_2013.1_src/data/scripts/dock_solv.prm

>  <Rbt.Receptor>
prm/blind_docking_20.prm

>  <SCORE>
-28.2533

>  <SCORE.INTER>
-28.6698

>  <SCORE.INTER.CONST>
1

>  <SCORE.INTER.POLAR>
-5.44533

>  <SCORE.INTER.ROT>
5

>  <SCORE.INTER.SOLV>
16.2164

>  <SCORE.INTER.VDW>
-13.3009

>  <SCORE.INTER.norm>
-2.60635

>  <SCORE.INTRA>
0.277657

>  <SCORE.INTRA.DIHEDRAL>
1.04009

>  <SCORE.INTRA.DIHEDRAL.0>
9.90185

>  <SCORE.INTRA.POLAR>
0

>  <SCORE.INTRA.POLAR.0>
0

>  <SCORE.INTRA.REPUL>
0

>  <SCORE.INTRA.REPUL.0>
0

>  <SCORE.INTRA.SOLV>
0.491502

>  <SCORE.INTRA.SOLV.lig_0>
-53.6586

>  <SCORE.INTRA.VDW>
-0.488141

>  <SCORE.INTRA.VDW.0>
-0.556525

>  <SCORE.INTRA.norm>
0.0252415

>  <SCORE.RESTR>
0.138877

>  <SCORE.RESTR.CAVITY>
0.138877

>  <SCORE.RESTR.norm>
0.0126252

>  <SCORE.SYSTEM>
0

>  <SCORE.SYSTEM.CONST>
0

>  <SCORE.SYSTEM.DIHEDRAL>
0

>  <SCORE.SYSTEM.SOLV>
0

>  <SCORE.SYSTEM.norm>
0

>  <SCORE.heavy>
11

>  <SCORE.norm>
-2.56848

>  <RMSD>
16.484

$$$$

 OpenBabel11021811383D
libRbt.so/2013.1/901 2013/11/27
 11 10  0  0  0  0  0  0  0  0999 V2000
   -8.8152   10.3401    6.9945 N   0  3  0  0  0  0  0  0  0  0  0  0
   -9.4747   11.0861    5.8808 C   0  0  2  0  0  0  0  0  0  0  0  0
   -9.6626   12.5590    6.2822 C   0  0  0  0  0  0  0  0  0  0  0  0
   -9.0075   13.4355    5.7503 O   0  0  0  0  0  0  0  0  0  0  0  0
  -10.8377   10.4484    5.5806 C   0  0  0  0  0  0  0  0  0  0  0  0
  -10.6864    8.9267    5.5008 C   0  0  0  0  0  0  0  0  0  0  0  0
  -11.5526    8.3864    4.3649 C   0  0  0  0  0  0  0  0  0  0  0  0
  -10.7725    8.4230    3.0976 N   0  3  0  0  0  0  0  0  0  0  0  0
  -11.1708    7.7347    2.0630 C   0  0  0  0  0  0  0  0  0  0  0  0
  -11.5159    8.3544    0.9641 N   0  0  0  0  0  0  0  0  0  0  0  0
  -11.2167    6.4290    2.1253 N   0  0  0  0  0  0  0  0  0  0  0  0
  2  1  1  1  0  0  0
  2  3  1  0  0  0  0
  2  5  1  0  0  0  0
  3  4  2  0  0  0  0
  5  6  1  0  0  0  0
  6  7  1  0  0  0  0
  7  8  1  0  0  0  0
  8  9  2  0  0  0  0
  9 10  1  0  0  0  0
  9 11  1  0  0  0  0
M  CHG  2   1   1   8   1
M  END
>  <CHROM.1>
-48.30266227,109.91339344,-46.51644747,-140.40844408,87.57690922,163.87997702
-10.40147026,9.63706728,4.41172646,-0.07515654,1.25469104,2.41114576

>  <Name>


>  <RI>
224

>  <Rbt.Current_Directory>
/home/itssahil/PROJECTS/Mol_Feturizer/New_Systems/rnas/1aju

>  <Rbt.Executable>
rbdock ($Id: //depot/dev/client3/rdock/2013.1/src/exe/rbdock.cxx#4 $)

>  <Rbt.Library>
libRbt.so (2013.1, Build901 2013/11/27)

>  <Rbt.Parameter_File>
/export/apps/rDock/src/rDock_2013.1_src/data/scripts/dock_solv.prm

>  <Rbt.Receptor>
prm/blind_docking_20.prm

>  <SCORE>
-22.877

>  <SCORE.INTER>
-25.1065

>  <SCORE.INTER.CONST>
1

>  <SCORE.INTER.POLAR>
-5.45834

>  <SCORE.INTER.ROT>
5

>  <SCORE.INTER.SOLV>
18.6799

>  <SCORE.INTER.VDW>
-11.7031

>  <SCORE.INTER.norm>
-2.28241

>  <SCORE.INTRA>
2.22952

>  <SCORE.INTRA.DIHEDRAL>
1.15702

>  <SCORE.INTRA.DIHEDRAL.0>
9.90185

>  <SCORE.INTRA.POLAR>
0

>  <SCORE.INTRA.POLAR.0>
0

>  <SCORE.INTRA.REPUL>
0

>  <SCORE.INTRA.REPUL.0>
0

>  <SCORE.INTRA.SOLV>
1.90051

>  <SCORE.INTRA.SOLV.lig_0>
-53.6586

>  <SCORE.INTRA.VDW>
0.700753

>  <SCORE.INTRA.VDW.0>
-0.556525

>  <SCORE.INTRA.norm>
0.202684

>  <SCORE.RESTR>
0

>  <SCORE.RESTR.CAVITY>
0

>  <SCORE.RESTR.norm>
0

>  <SCORE.SYSTEM>
0

>  <SCORE.SYSTEM.CONST>
0

>  <SCORE.SYSTEM.DIHEDRAL>
0

>  <SCORE.SYSTEM.SOLV>
0

>  <SCORE.SYSTEM.norm>
0

>  <SCORE.heavy>
11

>  <SCORE.norm>
-2.07972

>  <RMSD>
16.508

$$$$

 OpenBabel11021811383D
libRbt.so/2013.1/901 2013/11/27
 11 10  0  0  0  0  0  0  0  0999 V2000
  -10.2667    8.4354    0.8163 N   0  3  0  0  0  0  0  0  0  0  0  0
  -10.5868    7.7799    2.1199 C   0  0  2  0  0  0  0  0  0  0  0  0
  -11.5778    6.6261    1.8915 C   0  0  0  0  0  0  0  0  0  0  0  0
  -12.7286    6.7110    2.2770 O   0  0  0  0  0  0  0  0  0  0  0  0
  -11.2011    8.8158    3.0710 C   0  0  0  0  0  0  0  0  0  0  0  0
  -11.1315    8.2967    4.5099 C   0  0  0  0  0  0  0  0  0  0  0  0
  -11.5040    9.4193    5.4761 C   0  0  0  0  0  0  0  0  0  0  0  0
  -10.2627    9.9657    6.0899 N   0  3  0  0  0  0  0  0  0  0  0  0
   -9.8034   11.1281    5.7150 C   0  0  0  0  0  0  0  0  0  0  0  0
   -9.7384   12.1097    6.5769 N   0  0  0  0  0  0  0  0  0  0  0  0
   -9.4032   11.3060    4.4825 N   0  0  0  0  0  0  0  0  0  0  0  0
  2  1  1  6  0  0  0
  2  3  1  0  0  0  0
  2  5  1  0  0  0  0
  3  4  2  0  0  0  0
  5  6  1  0  0  0  0
  6  7  1  0  0  0  0
  7  8  1  0  0  0  0
  8  9  2  0  0  0  0
  9 10  1  0  0  0  0
  9 11  1  0  0  0  0
M  CHG  2   1   1   8   1
M  END
>  <CHROM.1>
127.95823887,-109.95789672,-162.54770779,169.76661643,-102.41775449,105.82918867
-10.72999194,9.17522363,3.88525274,-1.99221979,0.86564681,1.14202774

>  <Name>


>  <RI>
0

>  <Rbt.Current_Directory>
/home/itssahil/PROJECTS/Mol_Feturizer/New_Systems/rnas/1aju

>  <Rbt.Executable>
rbdock ($Id: //depot/dev/client3/rdock/2013.1/src/exe/rbdock.cxx#4 $)

>  <Rbt.Library>
libRbt.so (2013.1, Build901 2013/11/27)

>  <Rbt.Parameter_File>
/export/apps/rDock/src/rDock_2013.1_src/data/scripts/dock_solv.prm

>  <Rbt.Receptor>
prm/blind_docking_60.prm

>  <SCORE>
-26.736

>  <SCORE.INTER>
-30.1495

>  <SCORE.INTER.CONST>
1

>  <SCORE.INTER.POLAR>
-5.47024

>  <SCORE.INTER.ROT>
5

>  <SCORE.INTER.SOLV>
22.4208

>  <SCORE.INTER.VDW>
-16.2725

>  <SCORE.INTER.norm>
-2.74086

>  <SCORE.INTRA>
3.4135

>  <SCORE.INTRA.DIHEDRAL>
2.50729

>  <SCORE.INTRA.DIHEDRAL.0>
9.90185

>  <SCORE.INTRA.POLAR>
0

>  <SCORE.INTRA.POLAR.0>
0

>  <SCORE.INTRA.REPUL>
0

>  <SCORE.INTRA.REPUL.0>
0

>  <SCORE.INTRA.SOLV>
1.4628

>  <SCORE.INTRA.SOLV.lig_0>
-53.6586

>  <SCORE.INTRA.VDW>
1.42846

>  <SCORE.INTRA.VDW.0>
-0.556525

>  <SCORE.INTRA.norm>
0.310319

>  <SCORE.RESTR>
0

>  <SCORE.RESTR.CAVITY>
0

>  <SCORE.RESTR.norm>
0

>  <SCORE.SYSTEM>
0

>  <SCORE.SYSTEM.CONST>
0

>  <SCORE.SYSTEM.DIHEDRAL>
0

>  <SCORE.SYSTEM.SOLV>
0

>  <SCORE.SYSTEM.norm>
0

>  <SCORE.heavy>
11

>  <SCORE.norm>
-2.43054

>  <RMSD>
16.512

$$$$

 OpenBabel11021811383D
libRbt.so/2013.1/901 2013/11/27
 11 10  0  0  0  0  0  0  0  0999 V2000
  -10.4369    8.1454    0.8219 N   0  3  0  0  0  0  0  0  0  0  0  0
  -11.5276    7.4532    1.5723 C   0  0  2  0  0  0  0  0  0  0  0  0
  -12.8797    8.1103    1.2470 C   0  0  0  0  0  0  0  0  0  0  0  0
  -13.7271    7.5069    0.6161 O   0  0  0  0  0  0  0  0  0  0  0  0
  -11.2481    7.5507    3.0780 C   0  0  0  0  0  0  0  0  0  0  0  0
  -11.0532    9.0180    3.4703 C   0  0  0  0  0  0  0  0  0  0  0  0
  -10.6160    9.1021    4.9312 C   0  0  0  0  0  0  0  0  0  0  0  0
  -10.3681   10.5268    5.2843 N   0  3  0  0  0  0  0  0  0  0  0  0
   -9.2325   10.8808    5.8207 C   0  0  0  0  0  0  0  0  0  0  0  0
   -8.4422   11.7055    5.1836 N   0  0  0  0  0  0  0  0  0  0  0  0
   -8.8916   10.4163    6.9949 N   0  0  0  0  0  0  0  0  0  0  0  0
  2  1  1  6  0  0  0
  2  3  1  0  0  0  0
  2  5  1  0  0  0  0
  3  4  2  0  0  0  0
  5  6  1  0  0  0  0
  6  7  1  0  0  0  0
  7  8  1  0  0  0  0
  8  9  2  0  0  0  0
  9 10  1  0  0  0  0
  9 11  1  0  0  0  0
M  CHG  2   1   1   8   1
M  END
>  <CHROM.1>
54.24740059,112.18102573,54.28395442,-173.46728913,177.39285876,-127.10411773
-10.73663152,9.15105477,3.53058801,-2.17861330,0.53836346,1.34078922

>  <Name>


>  <RI>
224

>  <Rbt.Current_Directory>
/home/itssahil/PROJECTS/Mol_Feturizer/New_Systems/rnas/1aju

>  <Rbt.Executable>
rbdock ($Id: //depot/dev/client3/rdock/2013.1/src/exe/rbdock.cxx#4 $)

>  <Rbt.Library>
libRbt.so (2013.1, Build901 2013/11/27)

>  <Rbt.Parameter_File>
/export/apps/rDock/src/rDock_2013.1_src/data/scripts/dock_solv.prm

>  <Rbt.Receptor>
prm/blind_docking_20.prm

>  <SCORE>
-36.6664

>  <SCORE.INTER>
-34.9703

>  <SCORE.INTER.CONST>
1

>  <SCORE.INTER.POLAR>
-6.78408

>  <SCORE.INTER.ROT>
5

>  <SCORE.INTER.SOLV>
24.1919

>  <SCORE.INTER.VDW>
-15.6972

>  <SCORE.INTER.norm>
-3.17912

>  <SCORE.INTRA>
-1.69608

>  <SCORE.INTRA.DIHEDRAL>
-6.46844

>  <SCORE.INTRA.DIHEDRAL.0>
9.90185

>  <SCORE.INTRA.POLAR>
0

>  <SCORE.INTRA.POLAR.0>
0

>  <SCORE.INTRA.REPUL>
0

>  <SCORE.INTRA.REPUL.0>
0

>  <SCORE.INTRA.SOLV>
1.48336

>  <SCORE.INTRA.SOLV.lig_0>
-53.6586

>  <SCORE.INTRA.VDW>
0.79646

>  <SCORE.INTRA.VDW.0>
-0.556525

>  <SCORE.INTRA.norm>
-0.154189

>  <SCORE.RESTR>
0

>  <SCORE.RESTR.CAVITY>
0

>  <SCORE.RESTR.norm>
0

>  <SCORE.SYSTEM>
0

>  <SCORE.SYSTEM.CONST>
0

>  <SCORE.SYSTEM.DIHEDRAL>
0

>  <SCORE.SYSTEM.SOLV>
0

>  <SCORE.SYSTEM.norm>
0

>  <SCORE.heavy>
11

>  <SCORE.norm>
-3.33331

>  <RMSD>
16.585

$$$$

 OpenBabel11021811383D
libRbt.so/2013.1/901 2013/11/27
 11 10  0  0  0  0  0  0  0  0999 V2000
   -8.5466   10.5740    6.8881 N   0  3  0  0  0  0  0  0  0  0  0  0
   -9.1673   11.3703    5.7871 C   0  0  2  0  0  0  0  0  0  0  0  0
   -9.4667   12.7954    6.2821 C   0  0  0  0  0  0  0  0  0  0  0  0
   -8.8212   13.7425    5.8740 O   0  0  0  0  0  0  0  0  0  0  0  0
  -10.4672   10.6889    5.3391 C   0  0  0  0  0  0  0  0  0  0  0  0
  -10.1615    9.6782    4.2301 C   0  0  0  0  0  0  0  0  0  0  0  0
  -11.4564    9.0016    3.7849 C   0  0  0  0  0  0  0  0  0  0  0  0
  -11.1262    7.8585    2.8904 N   0  3  0  0  0  0  0  0  0  0  0  0
  -11.2908    7.9671    1.6005 C   0  0  0  0  0  0  0  0  0  0  0  0
  -10.2562    7.8864    0.8044 N   0  0  0  0  0  0  0  0  0  0  0  0
  -12.4887    8.1489    1.1078 N   0  0  0  0  0  0  0  0  0  0  0  0
  2  1  1  1  0  0  0
  2  3  1  0  0  0  0
  2  5  1  0  0  0  0
  3  4  2  0  0  0  0
  5  6  1  0  0  0  0
  6  7  1  0  0  0  0
  7  8  1  0  0  0  0
  8  9  2  0  0  0  0
  9 10  1  0  0  0  0
  9 11  1  0  0  0  0
M  CHG  2   1   1   8   1
M  END
>  <CHROM.1>
-177.31322639,109.44203614,-89.23462996,-179.96551115,-169.95751638,-103.72779826
-10.27198319,9.96006791,4.05169173,-0.55191161,1.14946972,2.99951628

>  <Name>


>  <RI>
224

>  <Rbt.Current_Directory>
/home/itssahil/PROJECTS/Mol_Feturizer/New_Systems/rnas/1aju

>  <Rbt.Executable>
rbdock ($Id: //depot/dev/client3/rdock/2013.1/src/exe/rbdock.cxx#4 $)

>  <Rbt.Library>
libRbt.so (2013.1, Build901 2013/11/27)

>  <Rbt.Parameter_File>
/export/apps/rDock/src/rDock_2013.1_src/data/scripts/dock_solv.prm

>  <Rbt.Receptor>
prm/blind_docking_20.prm

>  <SCORE>
-40.2425

>  <SCORE.INTER>
-38.1014

>  <SCORE.INTER.CONST>
1

>  <SCORE.INTER.POLAR>
-7.34153

>  <SCORE.INTER.ROT>
5

>  <SCORE.INTER.SOLV>
21.5284

>  <SCORE.INTER.VDW>
-15.0386

>  <SCORE.INTER.norm>
-3.46376

>  <SCORE.INTRA>
-2.17024

>  <SCORE.INTRA.DIHEDRAL>
-3.86765

>  <SCORE.INTRA.DIHEDRAL.0>
9.90185

>  <SCORE.INTRA.POLAR>
0

>  <SCORE.INTRA.POLAR.0>
0

>  <SCORE.INTRA.REPUL>
0

>  <SCORE.INTRA.REPUL.0>
0

>  <SCORE.INTRA.SOLV>
0.754676

>  <SCORE.INTRA.SOLV.lig_0>
-53.6586

>  <SCORE.INTRA.VDW>
-0.61375

>  <SCORE.INTRA.VDW.0>
-0.556525

>  <SCORE.INTRA.norm>
-0.197294

>  <SCORE.RESTR>
0.0290788

>  <SCORE.RESTR.CAVITY>
0.0290788

>  <SCORE.RESTR.norm>
0.00264353

>  <SCORE.SYSTEM>
0

>  <SCORE.SYSTEM.CONST>
0

>  <SCORE.SYSTEM.DIHEDRAL>
0

>  <SCORE.SYSTEM.SOLV>
0

>  <SCORE.SYSTEM.norm>
0

>  <SCORE.heavy>
11

>  <SCORE.norm>
-3.65841

>  <RMSD>
16.586

$$$$

 OpenBabel11021811383D
libRbt.so/2013.1/901 2013/11/27
 11 10  0  0  0  0  0  0  0  0999 V2000
  -12.3461    6.2316   -0.1468 N   0  3  0  0  0  0  0  0  0  0  0  0
  -12.7071    7.0528    1.0478 C   0  0  2  0  0  0  0  0  0  0  0  0
  -13.8160    8.0516    0.6755 C   0  0  0  0  0  0  0  0  0  0  0  0
  -14.0761    8.2839   -0.4901 O   0  0  0  0  0  0  0  0  0  0  0  0
  -11.4650    7.8096    1.5371 C   0  0  0  0  0  0  0  0  0  0  0  0
  -11.8133    8.6087    2.7960 C   0  0  0  0  0  0  0  0  0  0  0  0
  -10.5476    8.8441    3.6176 C   0  0  0  0  0  0  0  0  0  0  0  0
  -10.6505   10.1607    4.3046 N   0  3  0  0  0  0  0  0  0  0  0  0
   -9.7623   10.5056    5.1961 C   0  0  0  0  0  0  0  0  0  0  0  0
   -8.9990   11.5464    4.9839 N   0  0  0  0  0  0  0  0  0  0  0  0
   -9.6429    9.8153    6.3006 N   0  0  0  0  0  0  0  0  0  0  0  0
  2  1  1  6  0  0  0
  2  3  1  0  0  0  0
  2  5  1  0  0  0  0
  3  4  2  0  0  0  0
  5  6  1  0  0  0  0
  6  7  1  0  0  0  0
  7  8  1  0  0  0  0
  8  9  2  0  0  0  0
  9 10  1  0  0  0  0
  9 11  1  0  0  0  0
M  CHG  2   1   1   8   1
M  END
>  <CHROM.1>
58.40894608,-15.11817970,-177.68164505,155.23254209,147.04570478,171.43642689
-11.42757815,8.80662034,2.69061375,-2.39693833,-0.81669779,0.35200802

>  <Name>


>  <RI>
224

>  <Rbt.Current_Directory>
/home/itssahil/PROJECTS/Mol_Feturizer/New_Systems/rnas/1aju

>  <Rbt.Executable>
rbdock ($Id: //depot/dev/client3/rdock/2013.1/src/exe/rbdock.cxx#4 $)

>  <Rbt.Library>
libRbt.so (2013.1, Build901 2013/11/27)

>  <Rbt.Parameter_File>
/export/apps/rDock/src/rDock_2013.1_src/data/scripts/dock_solv.prm

>  <Rbt.Receptor>
prm/blind_docking_20.prm

>  <SCORE>
-19.7457

>  <SCORE.INTER>
-20.3606

>  <SCORE.INTER.CONST>
1

>  <SCORE.INTER.POLAR>
-4.06756

>  <SCORE.INTER.ROT>
5

>  <SCORE.INTER.SOLV>
15.9068

>  <SCORE.INTER.VDW>
-12.2508

>  <SCORE.INTER.norm>
-1.85097

>  <SCORE.INTRA>
0.60795

>  <SCORE.INTRA.DIHEDRAL>
-1.08784

>  <SCORE.INTRA.DIHEDRAL.0>
9.90185

>  <SCORE.INTRA.POLAR>
0

>  <SCORE.INTRA.POLAR.0>
0

>  <SCORE.INTRA.REPUL>
0

>  <SCORE.INTRA.REPUL.0>
0

>  <SCORE.INTRA.SOLV>
0.967201

>  <SCORE.INTRA.SOLV.lig_0>
-53.6586

>  <SCORE.INTRA.VDW>
0.66827

>  <SCORE.INTRA.VDW.0>
-0.556525

>  <SCORE.INTRA.norm>
0.0552681

>  <SCORE.RESTR>
0.00695261

>  <SCORE.RESTR.CAVITY>
0.00695261

>  <SCORE.RESTR.norm>
0.000632056

>  <SCORE.SYSTEM>
0

>  <SCORE.SYSTEM.CONST>
0

>  <SCORE.SYSTEM.DIHEDRAL>
0

>  <SCORE.SYSTEM.SOLV>
0

>  <SCORE.SYSTEM.norm>
0

>  <SCORE.heavy>
11

>  <SCORE.norm>
-1.79507

>  <RMSD>
16.593

$$$$

 OpenBabel11021811383D
libRbt.so/2013.1/901 2013/11/27
 11 10  0  0  0  0  0  0  0  0999 V2000
  -10.2601    8.4763    0.8194 N   0  3  0  0  0  0  0  0  0  0  0  0
  -10.5273    8.0203    2.2166 C   0  0  2  0  0  0  0  0  0  0  0  0
  -11.6034    6.9214    2.2074 C   0  0  0  0  0  0  0  0  0  0  0  0
  -11.7257    6.1806    1.2500 O   0  0  0  0  0  0  0  0  0  0  0  0
  -11.0051    9.2124    3.0566 C   0  0  0  0  0  0  0  0  0  0  0  0
  -10.4127    9.1182    4.4655 C   0  0  0  0  0  0  0  0  0  0  0  0
   -9.7940   10.4605    4.8499 C   0  0  0  0  0  0  0  0  0  0  0  0
   -9.0131   10.2951    6.1063 N   0  3  0  0  0  0  0  0  0  0  0  0
   -8.6955   11.3386    6.8225 C   0  0  0  0  0  0  0  0  0  0  0  0
   -9.1604   11.4575    8.0392 N   0  0  0  0  0  0  0  0  0  0  0  0
   -7.9087   12.2575    6.3252 N   0  0  0  0  0  0  0  0  0  0  0  0
  2  1  1  6  0  0  0
  2  3  1  0  0  0  0
  2  5  1  0  0  0  0
  3  4  2  0  0  0  0
  5  6  1  0  0  0  0
  6  7  1  0  0  0  0
  7  8  1  0  0  0  0
  8  9  2  0  0  0  0
  9 10  1  0  0  0  0
  9 11  1  0  0  0  0
M  CHG  2   1   1   8   1
M  END
>  <CHROM.1>
3.23977766,29.54193913,-141.86321981,130.98067906,-169.97902570,-161.57485288
-9.99138099,9.44059559,4.17394189,-2.16555963,0.91944232,1.40655818

>  <Name>


>  <RI>
0

>  <Rbt.Current_Directory>
/home/itssahil/PROJECTS/Mol_Feturizer/New_Systems/rnas/1aju

>  <Rbt.Executable>
rbdock ($Id: //depot/dev/client3/rdock/2013.1/src/exe/rbdock.cxx#4 $)

>  <Rbt.Library>
libRbt.so (2013.1, Build901 2013/11/27)

>  <Rbt.Parameter_File>
/export/apps/rDock/src/rDock_2013.1_src/data/scripts/dock_solv.prm

>  <Rbt.Receptor>
prm/blind_docking_60.prm

>  <SCORE>
-24.5028

>  <SCORE.INTER>
-30.03

>  <SCORE.INTER.CONST>
1

>  <SCORE.INTER.POLAR>
-5.76405

>  <SCORE.INTER.ROT>
5

>  <SCORE.INTER.SOLV>
22.8948

>  <SCORE.INTER.VDW>
-15.3714

>  <SCORE.INTER.norm>
-2.73

>  <SCORE.INTRA>
5.08912

>  <SCORE.INTRA.DIHEDRAL>
7.55353

>  <SCORE.INTRA.DIHEDRAL.0>
9.90185

>  <SCORE.INTRA.POLAR>
0

>  <SCORE.INTRA.POLAR.0>
0

>  <SCORE.INTRA.REPUL>
0

>  <SCORE.INTRA.REPUL.0>
0

>  <SCORE.INTRA.SOLV>
0.890595

>  <SCORE.INTRA.SOLV.lig_0>
-53.6586

>  <SCORE.INTRA.VDW>
0.867058

>  <SCORE.INTRA.VDW.0>
-0.556525

>  <SCORE.INTRA.norm>
0.462647

>  <SCORE.RESTR>
0.438136

>  <SCORE.RESTR.CAVITY>
0.438136

>  <SCORE.RESTR.norm>
0.0398305

>  <SCORE.SYSTEM>
0

>  <SCORE.SYSTEM.CONST>
0

>  <SCORE.SYSTEM.DIHEDRAL>
0

>  <SCORE.SYSTEM.SOLV>
0

>  <SCORE.SYSTEM.norm>
0

>  <SCORE.heavy>
11

>  <SCORE.norm>
-2.22752

>  <RMSD>
16.614

$$$$

 OpenBabel11021811383D
libRbt.so/2013.1/901 2013/11/27
 11 10  0  0  0  0  0  0  0  0999 V2000
  -10.4204    8.3169    0.8765 N   0  3  0  0  0  0  0  0  0  0  0  0
  -11.1270    7.9993    2.1538 C   0  0  2  0  0  0  0  0  0  0  0  0
  -12.6468    7.9872    1.9174 C   0  0  0  0  0  0  0  0  0  0  0  0
  -13.2993    6.9817    2.1259 O   0  0  0  0  0  0  0  0  0  0  0  0
  -10.7705    9.0567    3.2071 C   0  0  0  0  0  0  0  0  0  0  0  0
  -11.3419    8.6414    4.5657 C   0  0  0  0  0  0  0  0  0  0  0  0
  -11.0769    9.7435    5.5894 C   0  0  0  0  0  0  0  0  0  0  0  0
   -9.6081    9.8805    5.7885 N   0  3  0  0  0  0  0  0  0  0  0  0
   -9.0192   11.0216    5.5566 C   0  0  0  0  0  0  0  0  0  0  0  0
   -8.4312   11.6599    6.5351 N   0  0  0  0  0  0  0  0  0  0  0  0
   -9.0123   11.5194    4.3471 N   0  0  0  0  0  0  0  0  0  0  0  0
  2  1  1  6  0  0  0
  2  3  1  0  0  0  0
  2  5  1  0  0  0  0
  3  4  2  0  0  0  0
  5  6  1  0  0  0  0
  6  7  1  0  0  0  0
  7  8  1  0  0  0  0
  8  9  2  0  0  0  0
  9 10  1  0  0  0  0
  9 11  1  0  0  0  0
M  CHG  2   1   1   8   1
M  END
>  <CHROM.1>
-160.89703330,119.90832002,-172.70157340,-175.79677750,-64.46553385,121.40992489
-10.58480638,9.35490248,3.84865260,-2.26223102,0.65643936,1.33149362

>  <Name>


>  <RI>
224

>  <Rbt.Current_Directory>
/home/itssahil/PROJECTS/Mol_Feturizer/New_Systems/rnas/1aju

>  <Rbt.Executable>
rbdock ($Id: //depot/dev/client3/rdock/2013.1/src/exe/rbdock.cxx#4 $)

>  <Rbt.Library>
libRbt.so (2013.1, Build901 2013/11/27)

>  <Rbt.Parameter_File>
/export/apps/rDock/src/rDock_2013.1_src/data/scripts/dock_solv.prm

>  <Rbt.Receptor>
prm/blind_docking_20.prm

>  <SCORE>
-31.355

>  <SCORE.INTER>
-29.9245

>  <SCORE.INTER.CONST>
1

>  <SCORE.INTER.POLAR>
-5.56384

>  <SCORE.INTER.ROT>
5

>  <SCORE.INTER.SOLV>
25.2334

>  <SCORE.INTER.VDW>
-16.748

>  <SCORE.INTER.norm>
-2.72041

>  <SCORE.INTRA>
-1.43055

>  <SCORE.INTRA.DIHEDRAL>
-5.78317

>  <SCORE.INTRA.DIHEDRAL.0>
9.90185

>  <SCORE.INTRA.POLAR>
0

>  <SCORE.INTRA.POLAR.0>
0

>  <SCORE.INTRA.REPUL>
0

>  <SCORE.INTRA.REPUL.0>
0

>  <SCORE.INTRA.SOLV>
1.17557

>  <SCORE.INTRA.SOLV.lig_0>
-53.6586

>  <SCORE.INTRA.VDW>
0.873249

>  <SCORE.INTRA.VDW.0>
-0.556525

>  <SCORE.INTRA.norm>
-0.13005

>  <SCORE.RESTR>
0

>  <SCORE.RESTR.CAVITY>
0

>  <SCORE.RESTR.norm>
0

>  <SCORE.SYSTEM>
0

>  <SCORE.SYSTEM.CONST>
0

>  <SCORE.SYSTEM.DIHEDRAL>
0

>  <SCORE.SYSTEM.SOLV>
0

>  <SCORE.SYSTEM.norm>
0

>  <SCORE.heavy>
11

>  <SCORE.norm>
-2.85046

>  <RMSD>
16.667

$$$$

 OpenBabel11021811383D
libRbt.so/2013.1/901 2013/11/27
 11 10  0  0  0  0  0  0  0  0999 V2000
  -10.4357    8.2820    0.8800 N   0  3  0  0  0  0  0  0  0  0  0  0
  -11.1269    7.9684    2.1667 C   0  0  2  0  0  0  0  0  0  0  0  0
  -12.6475    7.9184    1.9406 C   0  0  0  0  0  0  0  0  0  0  0  0
  -13.1178    8.1229    0.8373 O   0  0  0  0  0  0  0  0  0  0  0  0
  -10.7878    9.0498    3.2013 C   0  0  0  0  0  0  0  0  0  0  0  0
  -11.2754    8.6086    4.5842 C   0  0  0  0  0  0  0  0  0  0  0  0
  -11.0200    9.7242    5.5954 C   0  0  0  0  0  0  0  0  0  0  0  0
   -9.5519    9.8891    5.7785 N   0  3  0  0  0  0  0  0  0  0  0  0
   -8.9847   11.0363    5.5238 C   0  0  0  0  0  0  0  0  0  0  0  0
   -8.3987   11.6994    6.4869 N   0  0  0  0  0  0  0  0  0  0  0  0
   -8.9975   11.5156    4.3069 N   0  0  0  0  0  0  0  0  0  0  0  0
  2  1  1  6  0  0  0
  2  3  1  0  0  0  0
  2  5  1  0  0  0  0
  3  4  2  0  0  0  0
  5  6  1  0  0  0  0
  6  7  1  0  0  0  0
  7  8  1  0  0  0  0
  8  9  2  0  0  0  0
  9 10  1  0  0  0  0
  9 11  1  0  0  0  0
M  CHG  2   1   1   8   1
M  END
>  <CHROM.1>
81.75139065,-0.19400635,-169.70172434,-176.30362163,-67.25789944,121.03850755
-10.54653353,9.45745158,3.71257644,-2.22814790,0.64315642,1.40887490

>  <Name>


>  <RI>
224

>  <Rbt.Current_Directory>
/home/itssahil/PROJECTS/Mol_Feturizer/New_Systems/rnas/1aju

>  <Rbt.Executable>
rbdock ($Id: //depot/dev/client3/rdock/2013.1/src/exe/rbdock.cxx#4 $)

>  <Rbt.Library>
libRbt.so (2013.1, Build901 2013/11/27)

>  <Rbt.Parameter_File>
/export/apps/rDock/src/rDock_2013.1_src/data/scripts/dock_solv.prm

>  <Rbt.Receptor>
prm/blind_docking_20.prm

>  <SCORE>
-31.0799

>  <SCORE.INTER>
-30.5214

>  <SCORE.INTER.CONST>
1

>  <SCORE.INTER.POLAR>
-5.68175

>  <SCORE.INTER.ROT>
5

>  <SCORE.INTER.SOLV>
25.6841

>  <SCORE.INTER.VDW>
-16.9031

>  <SCORE.INTER.norm>
-2.77467

>  <SCORE.INTRA>
-0.558519

>  <SCORE.INTRA.DIHEDRAL>
-5.28047

>  <SCORE.INTRA.DIHEDRAL.0>
9.90185

>  <SCORE.INTRA.POLAR>
0

>  <SCORE.INTRA.POLAR.0>
0

>  <SCORE.INTRA.REPUL>
0

>  <SCORE.INTRA.REPUL.0>
0

>  <SCORE.INTRA.SOLV>
2.22077

>  <SCORE.INTRA.SOLV.lig_0>
-53.6586

>  <SCORE.INTRA.VDW>
0.97133

>  <SCORE.INTRA.VDW.0>
-0.556525

>  <SCORE.INTRA.norm>
-0.0507744

>  <SCORE.RESTR>
0

>  <SCORE.RESTR.CAVITY>
0

>  <SCORE.RESTR.norm>
0

>  <SCORE.SYSTEM>
0

>  <SCORE.SYSTEM.CONST>
0

>  <SCORE.SYSTEM.DIHEDRAL>
0

>  <SCORE.SYSTEM.SOLV>
0

>  <SCORE.SYSTEM.norm>
0

>  <SCORE.heavy>
11

>  <SCORE.norm>
-2.82545

>  <RMSD>
16.704

$$$$

 OpenBabel11021811383D
libRbt.so/2013.1/901 2013/11/27
 11 10  0  0  0  0  0  0  0  0999 V2000
  -10.3641    8.4410    0.8877 N   0  3  0  0  0  0  0  0  0  0  0  0
  -10.9519    8.0668    2.2091 C   0  0  2  0  0  0  0  0  0  0  0  0
  -12.4727    7.8848    2.0681 C   0  0  0  0  0  0  0  0  0  0  0  0
  -12.9996    7.8927    0.9715 O   0  0  0  0  0  0  0  0  0  0  0  0
  -10.6504    9.1724    3.2296 C   0  0  0  0  0  0  0  0  0  0  0  0
  -10.8177    8.6213    4.6485 C   0  0  0  0  0  0  0  0  0  0  0  0
  -10.6155    9.7470    5.6606 C   0  0  0  0  0  0  0  0  0  0  0  0
   -9.2070   10.2228    5.5851 N   0  3  0  0  0  0  0  0  0  0  0  0
   -8.9381   11.4945    5.6997 C   0  0  0  0  0  0  0  0  0  0  0  0
   -8.2136   11.9175    6.7031 N   0  0  0  0  0  0  0  0  0  0  0  0
   -9.3868   12.3401    4.8085 N   0  0  0  0  0  0  0  0  0  0  0  0
  2  1  1  6  0  0  0
  2  3  1  0  0  0  0
  2  5  1  0  0  0  0
  3  4  2  0  0  0  0
  5  6  1  0  0  0  0
  6  7  1  0  0  0  0
  7  8  1  0  0  0  0
  8  9  2  0  0  0  0
  9 10  1  0  0  0  0
  9 11  1  0  0  0  0
M  CHG  2   1   1   8   1
M  END
>  <CHROM.1>
85.80833811,8.52875576,-161.23744191,-175.97153931,-65.11381942,141.49916580
-10.39648974,9.64192699,3.82002656,-2.36793206,0.86914326,1.57583700

>  <Name>


>  <RI>
224

>  <Rbt.Current_Directory>
/home/itssahil/PROJECTS/Mol_Feturizer/New_Systems/rnas/1aju

>  <Rbt.Executable>
rbdock ($Id: //depot/dev/client3/rdock/2013.1/src/exe/rbdock.cxx#4 $)

>  <Rbt.Library>
libRbt.so (2013.1, Build901 2013/11/27)

>  <Rbt.Parameter_File>
/export/apps/rDock/src/rDock_2013.1_src/data/scripts/dock_solv.prm

>  <Rbt.Receptor>
prm/blind_docking_20.prm

>  <SCORE>
-28.7764

>  <SCORE.INTER>
-27.9503

>  <SCORE.INTER.CONST>
1

>  <SCORE.INTER.POLAR>
-5.55526

>  <SCORE.INTER.ROT>
5

>  <SCORE.INTER.SOLV>
26.5635

>  <SCORE.INTER.VDW>
-15.9038

>  <SCORE.INTER.norm>
-2.54094

>  <SCORE.INTRA>
-0.910097

>  <SCORE.INTRA.DIHEDRAL>
-4.0442

>  <SCORE.INTRA.DIHEDRAL.0>
9.90185

>  <SCORE.INTRA.POLAR>
0

>  <SCORE.INTRA.POLAR.0>
0

>  <SCORE.INTRA.REPUL>
0

>  <SCORE.INTRA.REPUL.0>
0

>  <SCORE.INTRA.SOLV>
1.75791

>  <SCORE.INTRA.SOLV.lig_0>
-53.6586

>  <SCORE.INTRA.VDW>
0.233048

>  <SCORE.INTRA.VDW.0>
-0.556525

>  <SCORE.INTRA.norm>
-0.0827361

>  <SCORE.RESTR>
0.0840355

>  <SCORE.RESTR.CAVITY>
0.0840355

>  <SCORE.RESTR.norm>
0.00763959

>  <SCORE.SYSTEM>
0

>  <SCORE.SYSTEM.CONST>
0

>  <SCORE.SYSTEM.DIHEDRAL>
0

>  <SCORE.SYSTEM.SOLV>
0

>  <SCORE.SYSTEM.norm>
0

>  <SCORE.heavy>
11

>  <SCORE.norm>
-2.61604

>  <RMSD>
16.807

$$$$

 OpenBabel11021811383D
libRbt.so/2013.1/901 2013/11/27
 11 10  0  0  0  0  0  0  0  0999 V2000
  -10.9340    6.7264    2.1994 N   0  3  0  0  0  0  0  0  0  0  0  0
  -12.1683    7.5603    2.3122 C   0  0  2  0  0  0  0  0  0  0  0  0
  -12.3731    8.3629    1.0162 C   0  0  0  0  0  0  0  0  0  0  0  0
  -13.3706    8.2028    0.3382 O   0  0  0  0  0  0  0  0  0  0  0  0
  -12.0263    8.5179    3.5029 C   0  0  0  0  0  0  0  0  0  0  0  0
  -10.6004    9.0744    3.5471 C   0  0  0  0  0  0  0  0  0  0  0  0
  -10.5237   10.2009    4.5755 C   0  0  0  0  0  0  0  0  0  0  0  0
   -9.1391   10.2724    5.1175 N   0  3  0  0  0  0  0  0  0  0  0  0
   -8.8023   11.2370    5.9292 C   0  0  0  0  0  0  0  0  0  0  0  0
   -8.4399   10.9582    7.1546 N   0  0  0  0  0  0  0  0  0  0  0  0
   -8.8211   12.4770    5.5137 N   0  0  0  0  0  0  0  0  0  0  0  0
  2  1  1  6  0  0  0
  2  3  1  0  0  0  0
  2  5  1  0  0  0  0
  3  4  2  0  0  0  0
  5  6  1  0  0  0  0
  6  7  1  0  0  0  0
  7  8  1  0  0  0  0
  8  9  2  0  0  0  0
  9 10  1  0  0  0  0
  9 11  1  0  0  0  0
M  CHG  2   1   1   8   1
M  END
>  <CHROM.1>
46.44583868,118.76697303,40.59355925,170.33646102,151.77476588,174.01449396
-10.62505069,9.40651313,3.74856502,-2.53973058,-0.88654302,0.07329806

>  <Name>


>  <RI>
0

>  <Rbt.Current_Directory>
/home/itssahil/PROJECTS/Mol_Feturizer/New_Systems/rnas/1aju

>  <Rbt.Executable>
rbdock ($Id: //depot/dev/client3/rdock/2013.1/src/exe/rbdock.cxx#4 $)

>  <Rbt.Library>
libRbt.so (2013.1, Build901 2013/11/27)

>  <Rbt.Parameter_File>
/export/apps/rDock/src/rDock_2013.1_src/data/scripts/dock_solv.prm

>  <Rbt.Receptor>
prm/blind_docking_60.prm

>  <SCORE>
-15.3825

>  <SCORE.INTER>
-16.3891

>  <SCORE.INTER.CONST>
1

>  <SCORE.INTER.POLAR>
-3.81045

>  <SCORE.INTER.ROT>
5

>  <SCORE.INTER.SOLV>
19.6899

>  <SCORE.INTER.VDW>
-11.7212

>  <SCORE.INTER.norm>
-1.48992

>  <SCORE.INTRA>
1.00662

>  <SCORE.INTRA.DIHEDRAL>
-2.40438

>  <SCORE.INTRA.DIHEDRAL.0>
9.90185

>  <SCORE.INTRA.POLAR>
0

>  <SCORE.INTRA.POLAR.0>
0

>  <SCORE.INTRA.REPUL>
0

>  <SCORE.INTRA.REPUL.0>
0

>  <SCORE.INTRA.SOLV>
1.61072

>  <SCORE.INTRA.SOLV.lig_0>
-53.6586

>  <SCORE.INTRA.VDW>
1.40345

>  <SCORE.INTRA.VDW.0>
-0.556525

>  <SCORE.INTRA.norm>
0.0915105

>  <SCORE.RESTR>
0

>  <SCORE.RESTR.CAVITY>
0

>  <SCORE.RESTR.norm>
0

>  <SCORE.SYSTEM>
0

>  <SCORE.SYSTEM.CONST>
0

>  <SCORE.SYSTEM.DIHEDRAL>
0

>  <SCORE.SYSTEM.SOLV>
0

>  <SCORE.SYSTEM.norm>
0

>  <SCORE.heavy>
11

>  <SCORE.norm>
-1.39841

>  <RMSD>
16.817

$$$$

 OpenBabel11021811383D
libRbt.so/2013.1/901 2013/11/27
 11 10  0  0  0  0  0  0  0  0999 V2000
  -10.4314    8.1872    0.9829 N   0  3  0  0  0  0  0  0  0  0  0  0
  -11.4113    7.5638    1.9225 C   0  0  2  0  0  0  0  0  0  0  0  0
  -12.8272    8.0791    1.6132 C   0  0  0  0  0  0  0  0  0  0  0  0
  -13.7325    7.3016    1.3763 O   0  0  0  0  0  0  0  0  0  0  0  0
  -11.0287    7.9212    3.3649 C   0  0  0  0  0  0  0  0  0  0  0  0
  -10.8795    9.4396    3.4956 C   0  0  0  0  0  0  0  0  0  0  0  0
  -10.4477    9.7895    4.9181 C   0  0  0  0  0  0  0  0  0  0  0  0
   -9.7053   11.0796    4.8984 N   0  3  0  0  0  0  0  0  0  0  0  0
   -9.1858   11.5534    5.9977 C   0  0  0  0  0  0  0  0  0  0  0  0
   -7.8893   11.6971    6.0942 N   0  0  0  0  0  0  0  0  0  0  0  0
   -9.9620   11.8893    6.9953 N   0  0  0  0  0  0  0  0  0  0  0  0
  2  1  1  6  0  0  0
  2  3  1  0  0  0  0
  2  5  1  0  0  0  0
  3  4  2  0  0  0  0
  5  6  1  0  0  0  0
  6  7  1  0  0  0  0
  7  8  1  0  0  0  0
  8  9  2  0  0  0  0
  9 10  1  0  0  0  0
  9 11  1  0  0  0  0
M  CHG  2   1   1   8   1
M  END
>  <CHROM.1>
-179.86783878,124.63239251,53.01902806,-177.89113832,153.56384526,-177.02404308
-10.65823004,9.51876279,3.77385602,-2.06758021,0.24271543,1.00214920

>  <Name>


>  <RI>
224

>  <Rbt.Current_Directory>
/home/itssahil/PROJECTS/Mol_Feturizer/New_Systems/rnas/1aju

>  <Rbt.Executable>
rbdock ($Id: //depot/dev/client3/rdock/2013.1/src/exe/rbdock.cxx#4 $)

>  <Rbt.Library>
libRbt.so (2013.1, Build901 2013/11/27)

>  <Rbt.Parameter_File>
/export/apps/rDock/src/rDock_2013.1_src/data/scripts/dock_solv.prm

>  <Rbt.Receptor>
prm/blind_docking_20.prm

>  <SCORE>
-27.4282

>  <SCORE.INTER>
-27.1536

>  <SCORE.INTER.CONST>
1

>  <SCORE.INTER.POLAR>
-5.11904

>  <SCORE.INTER.ROT>
5

>  <SCORE.INTER.SOLV>
21.9098

>  <SCORE.INTER.VDW>
-15.2755

>  <SCORE.INTER.norm>
-2.46851

>  <SCORE.INTRA>
-0.280242

>  <SCORE.INTRA.DIHEDRAL>
-4.48247

>  <SCORE.INTRA.DIHEDRAL.0>
9.90185

>  <SCORE.INTRA.POLAR>
0

>  <SCORE.INTRA.POLAR.0>
0

>  <SCORE.INTRA.REPUL>
0

>  <SCORE.INTRA.REPUL.0>
0

>  <SCORE.INTRA.SOLV>
1.3439

>  <SCORE.INTRA.SOLV.lig_0>
-53.6586

>  <SCORE.INTRA.VDW>
1.28904

>  <SCORE.INTRA.VDW.0>
-0.556525

>  <SCORE.INTRA.norm>
-0.0254765

>  <SCORE.RESTR>
0.00568631

>  <SCORE.RESTR.CAVITY>
0.00568631

>  <SCORE.RESTR.norm>
0.000516938

>  <SCORE.SYSTEM>
0

>  <SCORE.SYSTEM.CONST>
0

>  <SCORE.SYSTEM.DIHEDRAL>
0

>  <SCORE.SYSTEM.SOLV>
0

>  <SCORE.SYSTEM.norm>
0

>  <SCORE.heavy>
11

>  <SCORE.norm>
-2.49347

>  <RMSD>
16.882

$$$$

 OpenBabel11021811383D
libRbt.so/2013.1/901 2013/11/27
 11 10  0  0  0  0  0  0  0  0999 V2000
  -12.1716    6.3917    3.7995 N   0  3  0  0  0  0  0  0  0  0  0  0
  -12.0938    7.8819    3.8703 C   0  0  2  0  0  0  0  0  0  0  0  0
  -11.2475    8.4138    2.7012 C   0  0  0  0  0  0  0  0  0  0  0  0
  -10.3507    9.2123    2.8973 O   0  0  0  0  0  0  0  0  0  0  0  0
  -11.4585    8.2937    5.2050 C   0  0  0  0  0  0  0  0  0  0  0  0
  -11.8153    9.7500    5.5160 C   0  0  0  0  0  0  0  0  0  0  0  0
  -10.9168   10.2674    6.6374 C   0  0  0  0  0  0  0  0  0  0  0  0
   -9.4929   10.1048    6.2351 N   0  3  0  0  0  0  0  0  0  0  0  0
   -8.8722   11.0721    5.6172 C   0  0  0  0  0  0  0  0  0  0  0  0
   -7.8422   11.6479    6.1813 N   0  0  0  0  0  0  0  0  0  0  0  0
   -9.2765   11.4574    4.4345 N   0  0  0  0  0  0  0  0  0  0  0  0
  2  1  1  1  0  0  0
  2  3  1  0  0  0  0
  2  5  1  0  0  0  0
  3  4  2  0  0  0  0
  5  6  1  0  0  0  0
  6  7  1  0  0  0  0
  7  8  1  0  0  0  0
  8  9  2  0  0  0  0
  9 10  1  0  0  0  0
  9 11  1  0  0  0  0
M  CHG  2   1   1   8   1
M  END
>  <CHROM.1>
-157.74107200,-130.75145178,-159.95620317,-165.87190905,56.53349111,91.33274714
-10.47832063,9.48245659,4.81193630,2.53907590,-0.79154110,-1.82077164

>  <Name>


>  <RI>
0

>  <Rbt.Current_Directory>
/home/itssahil/PROJECTS/Mol_Feturizer/New_Systems/rnas/1aju

>  <Rbt.Executable>
rbdock ($Id: //depot/dev/client3/rdock/2013.1/src/exe/rbdock.cxx#4 $)

>  <Rbt.Library>
libRbt.so (2013.1, Build901 2013/11/27)

>  <Rbt.Parameter_File>
/export/apps/rDock/src/rDock_2013.1_src/data/scripts/dock_solv.prm

>  <Rbt.Receptor>
prm/blind_docking_80.prm

>  <SCORE>
-30.4553

>  <SCORE.INTER>
-28.9628

>  <SCORE.INTER.CONST>
1

>  <SCORE.INTER.POLAR>
-5.94204

>  <SCORE.INTER.ROT>
5

>  <SCORE.INTER.SOLV>
18.3707

>  <SCORE.INTER.VDW>
-12.5586

>  <SCORE.INTER.norm>
-2.63298

>  <SCORE.INTRA>
-1.79269

>  <SCORE.INTRA.DIHEDRAL>
-3.56807

>  <SCORE.INTRA.DIHEDRAL.0>
9.90185

>  <SCORE.INTRA.POLAR>
-0.587612

>  <SCORE.INTRA.POLAR.0>
0

>  <SCORE.INTRA.REPUL>
0

>  <SCORE.INTRA.REPUL.0>
0

>  <SCORE.INTRA.SOLV>
2.62537

>  <SCORE.INTRA.SOLV.lig_0>
-53.6586

>  <SCORE.INTRA.VDW>
0.67654

>  <SCORE.INTRA.VDW.0>
-0.556525

>  <SCORE.INTRA.norm>
-0.162972

>  <SCORE.RESTR>
0.300149

>  <SCORE.RESTR.CAVITY>
0.300149

>  <SCORE.RESTR.norm>
0.0272863

>  <SCORE.SYSTEM>
0

>  <SCORE.SYSTEM.CONST>
0

>  <SCORE.SYSTEM.DIHEDRAL>
0

>  <SCORE.SYSTEM.SOLV>
0

>  <SCORE.SYSTEM.norm>
0

>  <SCORE.heavy>
11

>  <SCORE.norm>
-2.76867

>  <RMSD>
16.893

$$$$

 OpenBabel11021811383D
libRbt.so/2013.1/901 2013/11/27
 11 10  0  0  0  0  0  0  0  0999 V2000
  -12.6082    9.4788    3.5951 N   0  3  0  0  0  0  0  0  0  0  0  0
  -11.5273    8.4767    3.8383 C   0  0  2  0  0  0  0  0  0  0  0  0
  -12.1367    7.0675    3.9306 C   0  0  0  0  0  0  0  0  0  0  0  0
  -13.3381    6.9032    3.8304 O   0  0  0  0  0  0  0  0  0  0  0  0
  -10.8030    8.8195    5.1470 C   0  0  0  0  0  0  0  0  0  0  0  0
   -9.9377   10.0664    4.9437 C   0  0  0  0  0  0  0  0  0  0  0  0
   -9.2144   10.4037    6.2459 C   0  0  0  0  0  0  0  0  0  0  0  0
   -8.1939   11.4538    5.9785 N   0  3  0  0  0  0  0  0  0  0  0  0
   -8.3427   12.6527    6.4717 C   0  0  0  0  0  0  0  0  0  0  0  0
   -7.4707   13.1150    7.3299 N   0  0  0  0  0  0  0  0  0  0  0  0
   -9.3576   13.3900    6.1016 N   0  0  0  0  0  0  0  0  0  0  0  0
  2  1  1  1  0  0  0
  2  3  1  0  0  0  0
  2  5  1  0  0  0  0
  3  4  2  0  0  0  0
  5  6  1  0  0  0  0
  6  7  1  0  0  0  0
  7  8  1  0  0  0  0
  8  9  2  0  0  0  0
  9 10  1  0  0  0  0
  9 11  1  0  0  0  0
M  CHG  2   1   1   8   1
M  END
>  <CHROM.1>
59.64172466,-1.16098602,-72.33843247,-179.83140597,169.73490126,112.05093838
-10.29410657,10.20556819,5.21261327,2.35334404,0.54220226,-3.10543425

>  <Name>


>  <RI>
224

>  <Rbt.Current_Directory>
/home/itssahil/PROJECTS/Mol_Feturizer/New_Systems/rnas/1aju

>  <Rbt.Executable>
rbdock ($Id: //depot/dev/client3/rdock/2013.1/src/exe/rbdock.cxx#4 $)

>  <Rbt.Library>
libRbt.so (2013.1, Build901 2013/11/27)

>  <Rbt.Parameter_File>
/export/apps/rDock/src/rDock_2013.1_src/data/scripts/dock_solv.prm

>  <Rbt.Receptor>
prm/blind_docking_20.prm

>  <SCORE>
-19.4719

>  <SCORE.INTER>
-17.2213

>  <SCORE.INTER.CONST>
1

>  <SCORE.INTER.POLAR>
-3.49687

>  <SCORE.INTER.ROT>
5

>  <SCORE.INTER.SOLV>
17.7363

>  <SCORE.INTER.VDW>
-12.67

>  <SCORE.INTER.norm>
-1.56557

>  <SCORE.INTRA>
-2.25428

>  <SCORE.INTRA.DIHEDRAL>
-6.06907

>  <SCORE.INTRA.DIHEDRAL.0>
9.90185

>  <SCORE.INTRA.POLAR>
0

>  <SCORE.INTRA.POLAR.0>
0

>  <SCORE.INTRA.REPUL>
0

>  <SCORE.INTRA.REPUL.0>
0

>  <SCORE.INTRA.SOLV>
2.26619

>  <SCORE.INTRA.SOLV.lig_0>
-53.6586

>  <SCORE.INTRA.VDW>
-0.352843

>  <SCORE.INTRA.VDW.0>
-0.556525

>  <SCORE.INTRA.norm>
-0.204935

>  <SCORE.RESTR>
0.00360814

>  <SCORE.RESTR.CAVITY>
0.00360814

>  <SCORE.RESTR.norm>
0.000328013

>  <SCORE.SYSTEM>
0

>  <SCORE.SYSTEM.CONST>
0

>  <SCORE.SYSTEM.DIHEDRAL>
0

>  <SCORE.SYSTEM.SOLV>
0

>  <SCORE.SYSTEM.norm>
0

>  <SCORE.heavy>
11

>  <SCORE.norm>
-1.77018

>  <RMSD>
17.574

$$$$

 OpenBabel11021811383D
libRbt.so/2013.1/901 2013/11/27
 11 10  0  0  0  0  0  0  0  0999 V2000
  -13.7838    7.8222    5.4781 N   0  3  0  0  0  0  0  0  0  0  0  0
  -12.9453    9.0574    5.4238 C   0  0  2  0  0  0  0  0  0  0  0  0
  -12.6488    9.4196    3.9587 C   0  0  0  0  0  0  0  0  0  0  0  0
  -11.5236    9.3123    3.5084 O   0  0  0  0  0  0  0  0  0  0  0  0
  -11.6314    8.8120    6.1776 C   0  0  0  0  0  0  0  0  0  0  0  0
  -10.9040   10.1429    6.3885 C   0  0  0  0  0  0  0  0  0  0  0  0
   -9.5429    9.8845    7.0311 C   0  0  0  0  0  0  0  0  0  0  0  0
   -8.6272   11.0113    6.7027 N   0  3  0  0  0  0  0  0  0  0  0  0
   -8.7635   11.6598    5.5786 C   0  0  0  0  0  0  0  0  0  0  0  0
   -9.0705   12.9311    5.5952 N   0  0  0  0  0  0  0  0  0  0  0  0
   -8.5860   11.0397    4.4408 N   0  0  0  0  0  0  0  0  0  0  0  0
  2  1  1  6  0  0  0
  2  3  1  0  0  0  0
  2  5  1  0  0  0  0
  3  4  2  0  0  0  0
  5  6  1  0  0  0  0
  6  7  1  0  0  0  0
  7  8  1  0  0  0  0
  8  9  2  0  0  0  0
  9 10  1  0  0  0  0
  9 11  1  0  0  0  0
M  CHG  2   1   1   8   1
M  END
>  <CHROM.1>
-64.22121217,-110.78973973,-167.89969220,-175.18046943,155.48664503,-30.52657754
-10.73498183,10.09015496,5.45956932,-3.10867215,-0.65070520,-1.28833306

>  <Name>


>  <RI>
0

>  <Rbt.Current_Directory>
/home/itssahil/PROJECTS/Mol_Feturizer/New_Systems/rnas/1aju

>  <Rbt.Executable>
rbdock ($Id: //depot/dev/client3/rdock/2013.1/src/exe/rbdock.cxx#4 $)

>  <Rbt.Library>
libRbt.so (2013.1, Build901 2013/11/27)

>  <Rbt.Parameter_File>
/export/apps/rDock/src/rDock_2013.1_src/data/scripts/dock_solv.prm

>  <Rbt.Receptor>
prm/blind_docking_80.prm

>  <SCORE>
-18.943

>  <SCORE.INTER>
-19.889

>  <SCORE.INTER.CONST>
1

>  <SCORE.INTER.POLAR>
-4.34106

>  <SCORE.INTER.ROT>
5

>  <SCORE.INTER.SOLV>
14.6352

>  <SCORE.INTER.VDW>
-10.6009

>  <SCORE.INTER.norm>
-1.80809

>  <SCORE.INTRA>
0.643566

>  <SCORE.INTRA.DIHEDRAL>
-4.22447

>  <SCORE.INTRA.DIHEDRAL.0>
9.90185

>  <SCORE.INTRA.POLAR>
0

>  <SCORE.INTRA.POLAR.0>
0

>  <SCORE.INTRA.REPUL>
0

>  <SCORE.INTRA.REPUL.0>
0

>  <SCORE.INTRA.SOLV>
1.38071

>  <SCORE.INTRA.SOLV.lig_0>
-53.6586

>  <SCORE.INTRA.VDW>
2.06545

>  <SCORE.INTRA.VDW.0>
-0.556525

>  <SCORE.INTRA.norm>
0.058506

>  <SCORE.RESTR>
0.30246

>  <SCORE.RESTR.CAVITY>
0.30246

>  <SCORE.RESTR.norm>
0.0274964

>  <SCORE.SYSTEM>
0

>  <SCORE.SYSTEM.CONST>
0

>  <SCORE.SYSTEM.DIHEDRAL>
0

>  <SCORE.SYSTEM.SOLV>
0

>  <SCORE.SYSTEM.norm>
0

>  <SCORE.heavy>
11

>  <SCORE.norm>
-1.72209

>  <RMSD>
17.681

$$$$
