ligand
  PyMOL2.3          3D                             0

  9  8  0  0  0  0  0  0  0  0999 V2000
  -46.2780   67.5170  -24.0760 C   0  0  0  0  0  0  0  0  0  0  0  0
  -45.1280   67.1210  -24.4890 O   0  0  0  0  0  0  0  0  0  0  0  0
  -46.8160   67.0130  -22.8060 C   0  0  0  0  0  0  0  0  0  0  0  0
  -46.9950   68.3120  -24.7670 O   0  0  0  0  0  0  0  0  0  0  0  0
  -47.6980   67.9640  -22.0610 C   0  0  0  0  0  0  0  0  0  0  0  0
  -48.2380   67.5280  -20.7490 C   0  0  0  0  0  0  0  0  0  0  0  0
  -48.9530   68.6170  -19.9670 C   0  0  0  0  0  0  0  0  0  0  0  0
  -49.8270   68.2350  -18.7620 C   0  0  0  0  0  0  0  0  0  0  0  0
  -51.0980   68.7680  -18.6940 N   0  0  0  0  0  0  0  0  0  0  0  0
  1  2  4  0  0  0  0
  1  3  1  0  0  0  0
  1  4  4  0  0  0  0
  3  5  1  0  0  0  0
  5  6  1  0  0  0  0
  6  7  1  0  0  0  0
  7  8  1  0  0  0  0
  8  9  1  0  0  0  0
M  END
$$$$
