ligand
 OpenBabel02271912143D
libRbt.so/2013.1/901 2013/11/27
  9  8  0  0  0  0  0  0  0  0999 V2000
  -45.9593   67.6261  -23.4463 C   0  0  0  0  0  0  0  0  0  0  0  0
  -44.7274   67.5948  -23.0839 O   0  0  0  0  0  0  0  0  0  0  0  0
  -47.0126   67.2270  -22.5041 C   0  0  0  0  0  0  0  0  0  0  0  0
  -46.2959   67.9563  -24.6300 O   0  0  0  0  0  0  0  0  0  0  0  0
  -47.1933   68.1292  -21.3248 C   0  0  0  0  0  0  0  0  0  0  0  0
  -48.2886   67.8174  -20.3730 C   0  0  0  0  0  0  0  0  0  0  0  0
  -48.3896   68.7689  -19.1926 C   0  0  0  0  0  0  0  0  0  0  0  0
  -49.5236   68.5909  -18.1708 C   0  0  0  0  0  0  0  0  0  0  0  0
  -50.8125   68.8543  -18.5872 N   0  0  0  0  0  0  0  0  0  0  0  0
  1  2  1  0  0  0  0
  1  3  1  0  0  0  0
  1  4  1  0  0  0  0
  3  5  1  0  0  0  0
  5  6  1  0  0  0  0
  6  7  1  0  0  0  0
  7  8  1  0  0  0  0
  8  9  1  0  0  0  0
M  END
>  <CHROM.1>
66.95681886,176.93638181,179.07406147,177.19209171,-68.43838087,-47.53941487
68.06067605,-21.30300416,0.90325426,0.13285192,-1.66285368

>  <Name>
ligand

>  <RI>
0

>  <Rbt.Current_Directory>
/home/itssahil/PROJECTS/Mol_Feturizer/Test_systems_manuscript/rnas/4erj

>  <Rbt.Executable>
rbdock ($Id: //depot/dev/client3/rdock/2013.1/src/exe/rbdock.cxx#4 $)

>  <Rbt.Library>
libRbt.so (2013.1, Build901 2013/11/27)

>  <Rbt.Parameter_File>
/export/apps/rDock/src/rDock_2013.1_src/data/scripts/dock_solv.prm

>  <Rbt.Receptor>
prm/blind_docking_100.prm

>  <SCORE>
-10.3625

>  <SCORE.INTER>
-7.28904

>  <SCORE.INTER.CONST>
1

>  <SCORE.INTER.POLAR>
0

>  <SCORE.INTER.ROT>
5

>  <SCORE.INTER.SOLV>
10.439

>  <SCORE.INTER.VDW>
-15.2724

>  <SCORE.INTER.norm>
-0.809894

>  <SCORE.INTRA>
-3.07347

>  <SCORE.INTRA.DIHEDRAL>
-5.68633

>  <SCORE.INTRA.DIHEDRAL.0>
7.73744

>  <SCORE.INTRA.POLAR>
0

>  <SCORE.INTRA.POLAR.0>
0

>  <SCORE.INTRA.REPUL>
0

>  <SCORE.INTRA.REPUL.0>
0

>  <SCORE.INTRA.SOLV>
0.462296

>  <SCORE.INTRA.SOLV.lig_0>
-15.8342

>  <SCORE.INTRA.VDW>
-0.461447

>  <SCORE.INTRA.VDW.0>
-0.219494

>  <SCORE.INTRA.norm>
-0.341496

>  <SCORE.RESTR>
0

>  <SCORE.RESTR.CAVITY>
0

>  <SCORE.RESTR.norm>
0

>  <SCORE.SYSTEM>
0

>  <SCORE.SYSTEM.CONST>
0

>  <SCORE.SYSTEM.DIHEDRAL>
0

>  <SCORE.SYSTEM.SOLV>
0

>  <SCORE.SYSTEM.norm>
0

>  <SCORE.heavy>
9

>  <SCORE.norm>
-1.15139

>  <RMSD>
0.839

$$$$
ligand
 OpenBabel02271912143D
libRbt.so/2013.1/901 2013/11/27
  9  8  0  0  0  0  0  0  0  0999 V2000
  -46.8291   67.5822  -23.5457 C   0  0  0  0  0  0  0  0  0  0  0  0
  -46.4406   66.4905  -24.0998 O   0  0  0  0  0  0  0  0  0  0  0  0
  -47.2114   67.5909  -22.1279 C   0  0  0  0  0  0  0  0  0  0  0  0
  -46.9356   68.6640  -24.2106 O   0  0  0  0  0  0  0  0  0  0  0  0
  -48.5117   66.9232  -21.8105 C   0  0  0  0  0  0  0  0  0  0  0  0
  -48.9909   66.9677  -20.4064 C   0  0  0  0  0  0  0  0  0  0  0  0
  -49.2639   68.3652  -19.8763 C   0  0  0  0  0  0  0  0  0  0  0  0
  -49.9222   68.5378  -18.4984 C   0  0  0  0  0  0  0  0  0  0  0  0
  -49.3043   67.9529  -17.4120 N   0  0  0  0  0  0  0  0  0  0  0  0
  1  2  1  0  0  0  0
  1  3  1  0  0  0  0
  1  4  1  0  0  0  0
  3  5  1  0  0  0  0
  5  6  1  0  0  0  0
  6  7  1  0  0  0  0
  7  8  1  0  0  0  0
  8  9  1  0  0  0  0
M  END
>  <CHROM.1>
-72.17818430,-176.53493882,62.19563271,172.71193317,56.42243648,-48.13211354
67.67332572,-21.38466508,0.10171348,1.10021323,-0.22564240

>  <Name>
ligand

>  <RI>
0

>  <Rbt.Current_Directory>
/home/itssahil/PROJECTS/Mol_Feturizer/Test_systems_manuscript/rnas/4erj

>  <Rbt.Executable>
rbdock ($Id: //depot/dev/client3/rdock/2013.1/src/exe/rbdock.cxx#4 $)

>  <Rbt.Library>
libRbt.so (2013.1, Build901 2013/11/27)

>  <Rbt.Parameter_File>
/export/apps/rDock/src/rDock_2013.1_src/data/scripts/dock_solv.prm

>  <Rbt.Receptor>
prm/pocket_docking_4.prm

>  <SCORE>
-10.1937

>  <SCORE.INTER>
-7.5025

>  <SCORE.INTER.CONST>
1

>  <SCORE.INTER.POLAR>
0

>  <SCORE.INTER.ROT>
5

>  <SCORE.INTER.SOLV>
12.636

>  <SCORE.INTER.VDW>
-16.147

>  <SCORE.INTER.norm>
-0.833612

>  <SCORE.INTRA>
-2.69116

>  <SCORE.INTRA.DIHEDRAL>
-5.78331

>  <SCORE.INTRA.DIHEDRAL.0>
7.73744

>  <SCORE.INTRA.POLAR>
0

>  <SCORE.INTRA.POLAR.0>
0

>  <SCORE.INTRA.REPUL>
0

>  <SCORE.INTRA.REPUL.0>
0

>  <SCORE.INTRA.SOLV>
0.539547

>  <SCORE.INTRA.SOLV.lig_0>
-15.8342

>  <SCORE.INTRA.VDW>
-0.0692749

>  <SCORE.INTRA.VDW.0>
-0.219494

>  <SCORE.INTRA.norm>
-0.299017

>  <SCORE.RESTR>
0

>  <SCORE.RESTR.CAVITY>
0

>  <SCORE.RESTR.norm>
0

>  <SCORE.SYSTEM>
0

>  <SCORE.SYSTEM.CONST>
0

>  <SCORE.SYSTEM.DIHEDRAL>
0

>  <SCORE.SYSTEM.SOLV>
0

>  <SCORE.SYSTEM.norm>
0

>  <SCORE.heavy>
9

>  <SCORE.norm>
-1.13263

>  <RMSD>
1.198

$$$$
ligand
 OpenBabel02271912143D
libRbt.so/2013.1/901 2013/11/27
  9  8  0  0  0  0  0  0  0  0999 V2000
  -46.9093   68.6582  -24.2251 C   0  0  0  0  0  0  0  0  0  0  0  0
  -45.7632   68.0916  -24.3489 O   0  0  0  0  0  0  0  0  0  0  0  0
  -47.6639   68.5235  -22.9726 C   0  0  0  0  0  0  0  0  0  0  0  0
  -47.4377   69.3065  -25.1863 O   0  0  0  0  0  0  0  0  0  0  0  0
  -47.7897   67.1288  -22.4468 C   0  0  0  0  0  0  0  0  0  0  0  0
  -48.6397   66.9118  -21.2495 C   0  0  0  0  0  0  0  0  0  0  0  0
  -48.0956   67.5235  -19.9695 C   0  0  0  0  0  0  0  0  0  0  0  0
  -48.9496   67.4921  -18.6922 C   0  0  0  0  0  0  0  0  0  0  0  0
  -50.1292   68.2081  -18.6888 N   0  0  0  0  0  0  0  0  0  0  0  0
  1  2  1  0  0  0  0
  1  3  1  0  0  0  0
  1  4  1  0  0  0  0
  3  5  1  0  0  0  0
  5  6  1  0  0  0  0
  6  7  1  0  0  0  0
  7  8  1  0  0  0  0
  8  9  1  0  0  0  0
M  END
>  <CHROM.1>
-48.65494855,-174.78270533,-67.79012077,173.83021341,-65.00490303,-47.90563808
67.99406581,-22.02660899,1.01991706,0.68006272,-1.02123611

>  <Name>
ligand

>  <RI>
0

>  <Rbt.Current_Directory>
/home/itssahil/PROJECTS/Mol_Feturizer/Test_systems_manuscript/rnas/4erj

>  <Rbt.Executable>
rbdock ($Id: //depot/dev/client3/rdock/2013.1/src/exe/rbdock.cxx#4 $)

>  <Rbt.Library>
libRbt.so (2013.1, Build901 2013/11/27)

>  <Rbt.Parameter_File>
/export/apps/rDock/src/rDock_2013.1_src/data/scripts/dock_solv.prm

>  <Rbt.Receptor>
prm/pocket_docking_3.prm

>  <SCORE>
-11.0174

>  <SCORE.INTER>
-8.54025

>  <SCORE.INTER.CONST>
1

>  <SCORE.INTER.POLAR>
0

>  <SCORE.INTER.ROT>
5

>  <SCORE.INTER.SOLV>
8.96067

>  <SCORE.INTER.VDW>
-15.6137

>  <SCORE.INTER.norm>
-0.948916

>  <SCORE.INTRA>
-2.47717

>  <SCORE.INTRA.DIHEDRAL>
-5.38916

>  <SCORE.INTRA.DIHEDRAL.0>
7.73744

>  <SCORE.INTRA.POLAR>
0

>  <SCORE.INTRA.POLAR.0>
0

>  <SCORE.INTRA.REPUL>
0

>  <SCORE.INTRA.REPUL.0>
0

>  <SCORE.INTRA.SOLV>
0.507468

>  <SCORE.INTRA.SOLV.lig_0>
-15.8342

>  <SCORE.INTRA.VDW>
-0.0363277

>  <SCORE.INTRA.VDW.0>
-0.219494

>  <SCORE.INTRA.norm>
-0.275241

>  <SCORE.RESTR>
0

>  <SCORE.RESTR.CAVITY>
0

>  <SCORE.RESTR.norm>
0

>  <SCORE.SYSTEM>
0

>  <SCORE.SYSTEM.CONST>
0

>  <SCORE.SYSTEM.DIHEDRAL>
0

>  <SCORE.SYSTEM.SOLV>
0

>  <SCORE.SYSTEM.norm>
0

>  <SCORE.heavy>
9

>  <SCORE.norm>
-1.22416

>  <RMSD>
1.231

$$$$
ligand
 OpenBabel02271912143D
libRbt.so/2013.1/901 2013/11/27
  9  8  0  0  0  0  0  0  0  0999 V2000
  -46.5393   67.6305  -23.9597 C   0  0  0  0  0  0  0  0  0  0  0  0
  -46.2010   66.4773  -24.4131 O   0  0  0  0  0  0  0  0  0  0  0  0
  -46.2271   67.9947  -22.5718 C   0  0  0  0  0  0  0  0  0  0  0  0
  -47.1857   68.4629  -24.6758 O   0  0  0  0  0  0  0  0  0  0  0  0
  -46.9273   67.1883  -21.5245 C   0  0  0  0  0  0  0  0  0  0  0  0
  -48.4110   67.1548  -21.5500 C   0  0  0  0  0  0  0  0  0  0  0  0
  -49.0478   66.4687  -20.3533 C   0  0  0  0  0  0  0  0  0  0  0  0
  -48.9405   67.1155  -18.9633 C   0  0  0  0  0  0  0  0  0  0  0  0
  -49.5518   68.3380  -18.7734 N   0  0  0  0  0  0  0  0  0  0  0  0
  1  2  1  0  0  0  0
  1  3  1  0  0  0  0
  1  4  1  0  0  0  0
  3  5  1  0  0  0  0
  5  6  1  0  0  0  0
  6  7  1  0  0  0  0
  7  8  1  0  0  0  0
  8  9  1  0  0  0  0
M  END
>  <CHROM.1>
-65.21449014,-56.98970859,-172.35739656,67.73747156,64.12102061,-47.65758951
67.42363408,-21.91502433,0.49167562,1.00461161,-0.54335436

>  <Name>
ligand

>  <RI>
0

>  <Rbt.Current_Directory>
/home/itssahil/PROJECTS/Mol_Feturizer/Test_systems_manuscript/rnas/4erj

>  <Rbt.Executable>
rbdock ($Id: //depot/dev/client3/rdock/2013.1/src/exe/rbdock.cxx#4 $)

>  <Rbt.Library>
libRbt.so (2013.1, Build901 2013/11/27)

>  <Rbt.Parameter_File>
/export/apps/rDock/src/rDock_2013.1_src/data/scripts/dock_solv.prm

>  <Rbt.Receptor>
prm/pocket_docking_4.prm

>  <SCORE>
-11.0119

>  <SCORE.INTER>
-8.49196

>  <SCORE.INTER.CONST>
1

>  <SCORE.INTER.POLAR>
0

>  <SCORE.INTER.ROT>
5

>  <SCORE.INTER.SOLV>
8.82794

>  <SCORE.INTER.VDW>
-15.5373

>  <SCORE.INTER.norm>
-0.943551

>  <SCORE.INTRA>
-2.51992

>  <SCORE.INTRA.DIHEDRAL>
-5.49896

>  <SCORE.INTRA.DIHEDRAL.0>
7.73744

>  <SCORE.INTRA.POLAR>
0

>  <SCORE.INTRA.POLAR.0>
0

>  <SCORE.INTRA.REPUL>
0

>  <SCORE.INTRA.REPUL.0>
0

>  <SCORE.INTRA.SOLV>
0.945498

>  <SCORE.INTRA.SOLV.lig_0>
-15.8342

>  <SCORE.INTRA.VDW>
-0.243185

>  <SCORE.INTRA.VDW.0>
-0.219494

>  <SCORE.INTRA.norm>
-0.279991

>  <SCORE.RESTR>
0

>  <SCORE.RESTR.CAVITY>
0

>  <SCORE.RESTR.norm>
0

>  <SCORE.SYSTEM>
0

>  <SCORE.SYSTEM.CONST>
0

>  <SCORE.SYSTEM.DIHEDRAL>
0

>  <SCORE.SYSTEM.SOLV>
0

>  <SCORE.SYSTEM.norm>
0

>  <SCORE.heavy>
9

>  <SCORE.norm>
-1.22354

>  <RMSD>
1.284

$$$$
ligand
 OpenBabel02271912143D
libRbt.so/2013.1/901 2013/11/27
  9  8  0  0  0  0  0  0  0  0999 V2000
  -47.1596   67.8716  -23.5592 C   0  0  0  0  0  0  0  0  0  0  0  0
  -46.3016   67.2184  -24.2571 O   0  0  0  0  0  0  0  0  0  0  0  0
  -47.9073   67.1941  -22.4923 C   0  0  0  0  0  0  0  0  0  0  0  0
  -47.4163   69.0967  -23.7978 O   0  0  0  0  0  0  0  0  0  0  0  0
  -47.3565   67.3694  -21.1127 C   0  0  0  0  0  0  0  0  0  0  0  0
  -48.0482   66.6789  -19.9956 C   0  0  0  0  0  0  0  0  0  0  0  0
  -49.4643   67.1637  -19.7338 C   0  0  0  0  0  0  0  0  0  0  0  0
  -49.6972   68.6138  -19.2812 C   0  0  0  0  0  0  0  0  0  0  0  0
  -49.0783   69.0334  -18.1215 N   0  0  0  0  0  0  0  0  0  0  0  0
  1  2  1  0  0  0  0
  1  3  1  0  0  0  0
  1  4  1  0  0  0  0
  3  5  1  0  0  0  0
  5  6  1  0  0  0  0
  6  7  1  0  0  0  0
  7  8  1  0  0  0  0
  8  9  1  0  0  0  0
M  END
>  <CHROM.1>
97.36511847,-178.41890171,-64.86904516,-63.61957957,-58.15333201,-48.02491398
67.81405294,-21.42022126,0.46291253,1.07437298,-0.58462241

>  <Name>
ligand

>  <RI>
0

>  <Rbt.Current_Directory>
/home/itssahil/PROJECTS/Mol_Feturizer/Test_systems_manuscript/rnas/4erj

>  <Rbt.Executable>
rbdock ($Id: //depot/dev/client3/rdock/2013.1/src/exe/rbdock.cxx#4 $)

>  <Rbt.Library>
libRbt.so (2013.1, Build901 2013/11/27)

>  <Rbt.Parameter_File>
/export/apps/rDock/src/rDock_2013.1_src/data/scripts/dock_solv.prm

>  <Rbt.Receptor>
prm/pocket_docking_6.prm

>  <SCORE>
-9.25201

>  <SCORE.INTER>
-6.89803

>  <SCORE.INTER.CONST>
1

>  <SCORE.INTER.POLAR>
0

>  <SCORE.INTER.ROT>
5

>  <SCORE.INTER.SOLV>
10.7552

>  <SCORE.INTER.VDW>
-15.1171

>  <SCORE.INTER.norm>
-0.766448

>  <SCORE.INTRA>
-2.35397

>  <SCORE.INTRA.DIHEDRAL>
-5.78497

>  <SCORE.INTRA.DIHEDRAL.0>
7.73744

>  <SCORE.INTRA.POLAR>
0

>  <SCORE.INTRA.POLAR.0>
0

>  <SCORE.INTRA.REPUL>
0

>  <SCORE.INTRA.REPUL.0>
0

>  <SCORE.INTRA.SOLV>
1.08886

>  <SCORE.INTRA.SOLV.lig_0>
-15.8342

>  <SCORE.INTRA.VDW>
-0.00591907

>  <SCORE.INTRA.VDW.0>
-0.219494

>  <SCORE.INTRA.norm>
-0.261553

>  <SCORE.RESTR>
0

>  <SCORE.RESTR.CAVITY>
0

>  <SCORE.RESTR.norm>
0

>  <SCORE.SYSTEM>
0

>  <SCORE.SYSTEM.CONST>
0

>  <SCORE.SYSTEM.DIHEDRAL>
0

>  <SCORE.SYSTEM.SOLV>
0

>  <SCORE.SYSTEM.norm>
0

>  <SCORE.heavy>
9

>  <SCORE.norm>
-1.028

>  <RMSD>
1.321

$$$$
ligand
 OpenBabel02271912143D
libRbt.so/2013.1/901 2013/11/27
  9  8  0  0  0  0  0  0  0  0999 V2000
  -45.7582   67.8602  -22.8515 C   0  0  0  0  0  0  0  0  0  0  0  0
  -44.6022   67.5965  -22.3577 O   0  0  0  0  0  0  0  0  0  0  0  0
  -46.9179   68.0163  -21.9643 C   0  0  0  0  0  0  0  0  0  0  0  0
  -45.9393   67.9484  -24.1097 O   0  0  0  0  0  0  0  0  0  0  0  0
  -47.6388   66.7510  -21.6229 C   0  0  0  0  0  0  0  0  0  0  0  0
  -48.8160   66.8431  -20.7236 C   0  0  0  0  0  0  0  0  0  0  0  0
  -48.4892   67.2427  -19.2946 C   0  0  0  0  0  0  0  0  0  0  0  0
  -49.5663   67.9189  -18.4318 C   0  0  0  0  0  0  0  0  0  0  0  0
  -50.0146   69.1645  -18.8212 N   0  0  0  0  0  0  0  0  0  0  0  0
  1  2  1  0  0  0  0
  1  3  1  0  0  0  0
  1  4  1  0  0  0  0
  3  5  1  0  0  0  0
  5  6  1  0  0  0  0
  6  7  1  0  0  0  0
  7  8  1  0  0  0  0
  8  9  1  0  0  0  0
M  END
>  <CHROM.1>
-86.91399794,179.69006270,-67.62603438,155.21639160,-64.78251747,-47.48490396
67.70405043,-21.16884934,-0.24475478,0.78460072,0.26605234

>  <Name>
ligand

>  <RI>
0

>  <Rbt.Current_Directory>
/home/itssahil/PROJECTS/Mol_Feturizer/Test_systems_manuscript/rnas/4erj

>  <Rbt.Executable>
rbdock ($Id: //depot/dev/client3/rdock/2013.1/src/exe/rbdock.cxx#4 $)

>  <Rbt.Library>
libRbt.so (2013.1, Build901 2013/11/27)

>  <Rbt.Parameter_File>
/export/apps/rDock/src/rDock_2013.1_src/data/scripts/dock_solv.prm

>  <Rbt.Receptor>
prm/pocket_docking_7.prm

>  <SCORE>
-10.858

>  <SCORE.INTER>
-9.14732

>  <SCORE.INTER.CONST>
1

>  <SCORE.INTER.POLAR>
0

>  <SCORE.INTER.ROT>
5

>  <SCORE.INTER.SOLV>
9.18372

>  <SCORE.INTER.VDW>
-16.0928

>  <SCORE.INTER.norm>
-1.01637

>  <SCORE.INTRA>
-1.71064

>  <SCORE.INTRA.DIHEDRAL>
-3.59583

>  <SCORE.INTRA.DIHEDRAL.0>
7.73744

>  <SCORE.INTRA.POLAR>
0

>  <SCORE.INTRA.POLAR.0>
0

>  <SCORE.INTRA.REPUL>
0

>  <SCORE.INTRA.REPUL.0>
0

>  <SCORE.INTRA.SOLV>
0.727495

>  <SCORE.INTRA.SOLV.lig_0>
-15.8342

>  <SCORE.INTRA.VDW>
-0.276477

>  <SCORE.INTRA.VDW.0>
-0.219494

>  <SCORE.INTRA.norm>
-0.190072

>  <SCORE.RESTR>
0

>  <SCORE.RESTR.CAVITY>
0

>  <SCORE.RESTR.norm>
0

>  <SCORE.SYSTEM>
0

>  <SCORE.SYSTEM.CONST>
0

>  <SCORE.SYSTEM.DIHEDRAL>
0

>  <SCORE.SYSTEM.SOLV>
0

>  <SCORE.SYSTEM.norm>
0

>  <SCORE.heavy>
9

>  <SCORE.norm>
-1.20644

>  <RMSD>
1.374

$$$$
ligand
 OpenBabel02271912143D
libRbt.so/2013.1/901 2013/11/27
  9  8  0  0  0  0  0  0  0  0999 V2000
  -46.4169   67.7474  -22.8327 C   0  0  0  0  0  0  0  0  0  0  0  0
  -46.6862   68.5797  -23.7732 O   0  0  0  0  0  0  0  0  0  0  0  0
  -47.4976   66.9852  -22.1944 C   0  0  0  0  0  0  0  0  0  0  0  0
  -45.2278   67.5936  -22.4012 O   0  0  0  0  0  0  0  0  0  0  0  0
  -47.7832   67.3468  -20.7713 C   0  0  0  0  0  0  0  0  0  0  0  0
  -48.9050   66.6536  -20.0902 C   0  0  0  0  0  0  0  0  0  0  0  0
  -49.0994   67.0458  -18.6352 C   0  0  0  0  0  0  0  0  0  0  0  0
  -49.3875   68.5125  -18.2778 C   0  0  0  0  0  0  0  0  0  0  0  0
  -50.4662   69.1229  -18.8845 N   0  0  0  0  0  0  0  0  0  0  0  0
  1  2  1  0  0  0  0
  1  3  1  0  0  0  0
  1  4  1  0  0  0  0
  3  5  1  0  0  0  0
  5  6  1  0  0  0  0
  6  7  1  0  0  0  0
  7  8  1  0  0  0  0
  8  9  1  0  0  0  0
M  END
>  <CHROM.1>
-111.41132676,177.32700102,178.12639784,59.44743475,55.42386509,-47.90358373
67.74241785,-20.91104588,0.48795284,0.78000241,-0.70345245

>  <Name>
ligand

>  <RI>
0

>  <Rbt.Current_Directory>
/home/itssahil/PROJECTS/Mol_Feturizer/Test_systems_manuscript/rnas/4erj

>  <Rbt.Executable>
rbdock ($Id: //depot/dev/client3/rdock/2013.1/src/exe/rbdock.cxx#4 $)

>  <Rbt.Library>
libRbt.so (2013.1, Build901 2013/11/27)

>  <Rbt.Parameter_File>
/export/apps/rDock/src/rDock_2013.1_src/data/scripts/dock_solv.prm

>  <Rbt.Receptor>
prm/blind_docking_100.prm

>  <SCORE>
-12.5884

>  <SCORE.INTER>
-10.0645

>  <SCORE.INTER.CONST>
1

>  <SCORE.INTER.POLAR>
0

>  <SCORE.INTER.ROT>
5

>  <SCORE.INTER.SOLV>
9.61434

>  <SCORE.INTER.VDW>
-16.8478

>  <SCORE.INTER.norm>
-1.11828

>  <SCORE.INTRA>
-2.52388

>  <SCORE.INTRA.DIHEDRAL>
-5.97093

>  <SCORE.INTRA.DIHEDRAL.0>
7.73744

>  <SCORE.INTRA.POLAR>
0

>  <SCORE.INTRA.POLAR.0>
0

>  <SCORE.INTRA.REPUL>
0

>  <SCORE.INTRA.REPUL.0>
0

>  <SCORE.INTRA.SOLV>
1.18597

>  <SCORE.INTRA.SOLV.lig_0>
-15.8342

>  <SCORE.INTRA.VDW>
-0.131401

>  <SCORE.INTRA.VDW.0>
-0.219494

>  <SCORE.INTRA.norm>
-0.280431

>  <SCORE.RESTR>
0

>  <SCORE.RESTR.CAVITY>
0

>  <SCORE.RESTR.norm>
0

>  <SCORE.SYSTEM>
0

>  <SCORE.SYSTEM.CONST>
0

>  <SCORE.SYSTEM.DIHEDRAL>
0

>  <SCORE.SYSTEM.SOLV>
0

>  <SCORE.SYSTEM.norm>
0

>  <SCORE.heavy>
9

>  <SCORE.norm>
-1.39871

>  <RMSD>
1.384

$$$$
ligand
 OpenBabel02271912143D
libRbt.so/2013.1/901 2013/11/27
  9  8  0  0  0  0  0  0  0  0999 V2000
  -46.7645   67.7394  -23.0388 C   0  0  0  0  0  0  0  0  0  0  0  0
  -47.3465   68.3051  -24.0344 O   0  0  0  0  0  0  0  0  0  0  0  0
  -47.5249   66.8492  -22.1523 C   0  0  0  0  0  0  0  0  0  0  0  0
  -45.5401   67.9655  -22.7683 O   0  0  0  0  0  0  0  0  0  0  0  0
  -47.9102   67.4362  -20.8315 C   0  0  0  0  0  0  0  0  0  0  0  0
  -48.6729   66.5817  -19.8876 C   0  0  0  0  0  0  0  0  0  0  0  0
  -48.9951   67.2417  -18.5575 C   0  0  0  0  0  0  0  0  0  0  0  0
  -49.9708   68.4284  -18.5172 C   0  0  0  0  0  0  0  0  0  0  0  0
  -49.6579   69.5446  -19.2657 N   0  0  0  0  0  0  0  0  0  0  0  0
  1  2  1  0  0  0  0
  1  3  1  0  0  0  0
  1  4  1  0  0  0  0
  3  5  1  0  0  0  0
  5  6  1  0  0  0  0
  6  7  1  0  0  0  0
  7  8  1  0  0  0  0
  8  9  1  0  0  0  0
M  END
>  <CHROM.1>
-103.33525678,-179.61000828,178.59285281,67.20743435,-58.55215278,-48.01314742
67.79915560,-21.04795470,0.49430252,0.89969381,-0.66228810

>  <Name>
ligand

>  <RI>
0

>  <Rbt.Current_Directory>
/home/itssahil/PROJECTS/Mol_Feturizer/Test_systems_manuscript/rnas/4erj

>  <Rbt.Executable>
rbdock ($Id: //depot/dev/client3/rdock/2013.1/src/exe/rbdock.cxx#4 $)

>  <Rbt.Library>
libRbt.so (2013.1, Build901 2013/11/27)

>  <Rbt.Parameter_File>
/export/apps/rDock/src/rDock_2013.1_src/data/scripts/dock_solv.prm

>  <Rbt.Receptor>
prm/pocket_docking_4.prm

>  <SCORE>
-12.5761

>  <SCORE.INTER>
-10.2116

>  <SCORE.INTER.CONST>
1

>  <SCORE.INTER.POLAR>
0

>  <SCORE.INTER.ROT>
5

>  <SCORE.INTER.SOLV>
7.67626

>  <SCORE.INTER.VDW>
-16.2998

>  <SCORE.INTER.norm>
-1.13462

>  <SCORE.INTRA>
-2.36452

>  <SCORE.INTRA.DIHEDRAL>
-5.89836

>  <SCORE.INTRA.DIHEDRAL.0>
7.73744

>  <SCORE.INTRA.POLAR>
0

>  <SCORE.INTRA.POLAR.0>
0

>  <SCORE.INTRA.REPUL>
0

>  <SCORE.INTRA.REPUL.0>
0

>  <SCORE.INTRA.SOLV>
1.7462

>  <SCORE.INTRA.SOLV.lig_0>
-15.8342

>  <SCORE.INTRA.VDW>
-0.288442

>  <SCORE.INTRA.VDW.0>
-0.219494

>  <SCORE.INTRA.norm>
-0.262725

>  <SCORE.RESTR>
0

>  <SCORE.RESTR.CAVITY>
0

>  <SCORE.RESTR.norm>
0

>  <SCORE.SYSTEM>
0

>  <SCORE.SYSTEM.CONST>
0

>  <SCORE.SYSTEM.DIHEDRAL>
0

>  <SCORE.SYSTEM.SOLV>
0

>  <SCORE.SYSTEM.norm>
0

>  <SCORE.heavy>
9

>  <SCORE.norm>
-1.39734

>  <RMSD>
1.394

$$$$
ligand
 OpenBabel02271912143D
libRbt.so/2013.1/901 2013/11/27
  9  8  0  0  0  0  0  0  0  0999 V2000
  -46.7805   67.6795  -22.9785 C   0  0  0  0  0  0  0  0  0  0  0  0
  -45.5174   67.8796  -22.8589 O   0  0  0  0  0  0  0  0  0  0  0  0
  -47.4797   66.8078  -22.0258 C   0  0  0  0  0  0  0  0  0  0  0  0
  -47.4461   68.1874  -23.9390 O   0  0  0  0  0  0  0  0  0  0  0  0
  -47.9183   67.4668  -20.7567 C   0  0  0  0  0  0  0  0  0  0  0  0
  -48.6167   66.6332  -19.7465 C   0  0  0  0  0  0  0  0  0  0  0  0
  -49.0093   67.3737  -18.4791 C   0  0  0  0  0  0  0  0  0  0  0  0
  -50.0481   68.5039  -18.5528 C   0  0  0  0  0  0  0  0  0  0  0  0
  -49.7746   69.5767  -19.3765 N   0  0  0  0  0  0  0  0  0  0  0  0
  1  2  1  0  0  0  0
  1  3  1  0  0  0  0
  1  4  1  0  0  0  0
  3  5  1  0  0  0  0
  5  6  1  0  0  0  0
  6  7  1  0  0  0  0
  7  8  1  0  0  0  0
  8  9  1  0  0  0  0
M  END
>  <CHROM.1>
84.59315530,-179.29337751,179.11707359,65.15143492,-58.66830520,-48.03681872
67.79880403,-21.01166905,0.57475902,0.84311731,-0.81269354

>  <Name>
ligand

>  <RI>
0

>  <Rbt.Current_Directory>
/home/itssahil/PROJECTS/Mol_Feturizer/Test_systems_manuscript/rnas/4erj

>  <Rbt.Executable>
rbdock ($Id: //depot/dev/client3/rdock/2013.1/src/exe/rbdock.cxx#4 $)

>  <Rbt.Library>
libRbt.so (2013.1, Build901 2013/11/27)

>  <Rbt.Parameter_File>
/export/apps/rDock/src/rDock_2013.1_src/data/scripts/dock_solv.prm

>  <Rbt.Receptor>
prm/pocket_docking_8.prm

>  <SCORE>
-12.5306

>  <SCORE.INTER>
-10.2119

>  <SCORE.INTER.CONST>
1

>  <SCORE.INTER.POLAR>
0

>  <SCORE.INTER.ROT>
5

>  <SCORE.INTER.SOLV>
7.53901

>  <SCORE.INTER.VDW>
-16.2543

>  <SCORE.INTER.norm>
-1.13466

>  <SCORE.INTRA>
-2.31871

>  <SCORE.INTRA.DIHEDRAL>
-5.83991

>  <SCORE.INTRA.DIHEDRAL.0>
7.73744

>  <SCORE.INTRA.POLAR>
0

>  <SCORE.INTRA.POLAR.0>
0

>  <SCORE.INTRA.REPUL>
0

>  <SCORE.INTRA.REPUL.0>
0

>  <SCORE.INTRA.SOLV>
1.77868

>  <SCORE.INTRA.SOLV.lig_0>
-15.8342

>  <SCORE.INTRA.VDW>
-0.288093

>  <SCORE.INTRA.VDW.0>
-0.219494

>  <SCORE.INTRA.norm>
-0.257634

>  <SCORE.RESTR>
0

>  <SCORE.RESTR.CAVITY>
0

>  <SCORE.RESTR.norm>
0

>  <SCORE.SYSTEM>
0

>  <SCORE.SYSTEM.CONST>
0

>  <SCORE.SYSTEM.DIHEDRAL>
0

>  <SCORE.SYSTEM.SOLV>
0

>  <SCORE.SYSTEM.norm>
0

>  <SCORE.heavy>
9

>  <SCORE.norm>
-1.39229

>  <RMSD>
1.399

$$$$
ligand
 OpenBabel02271912143D
libRbt.so/2013.1/901 2013/11/27
  9  8  0  0  0  0  0  0  0  0999 V2000
  -46.2997   67.6079  -22.7676 C   0  0  0  0  0  0  0  0  0  0  0  0
  -45.1134   67.5379  -22.2801 O   0  0  0  0  0  0  0  0  0  0  0  0
  -47.4003   66.8737  -22.1305 C   0  0  0  0  0  0  0  0  0  0  0  0
  -46.5445   68.2700  -23.8284 O   0  0  0  0  0  0  0  0  0  0  0  0
  -47.7212   67.2884  -20.7296 C   0  0  0  0  0  0  0  0  0  0  0  0
  -48.8630   66.6240  -20.0528 C   0  0  0  0  0  0  0  0  0  0  0  0
  -49.0798   67.0540  -18.6117 C   0  0  0  0  0  0  0  0  0  0  0  0
  -49.3564   68.5323  -18.2956 C   0  0  0  0  0  0  0  0  0  0  0  0
  -50.4539   69.1228  -18.8881 N   0  0  0  0  0  0  0  0  0  0  0  0
  1  2  1  0  0  0  0
  1  3  1  0  0  0  0
  1  4  1  0  0  0  0
  3  5  1  0  0  0  0
  5  6  1  0  0  0  0
  6  7  1  0  0  0  0
  7  8  1  0  0  0  0
  8  9  1  0  0  0  0
M  END
>  <CHROM.1>
62.88090035,177.37832869,177.19775533,59.36553489,58.46070040,-47.83170023
67.66491264,-20.88081619,0.48672301,0.76076804,-0.75384410

>  <Name>
ligand

>  <RI>
0

>  <Rbt.Current_Directory>
/home/itssahil/PROJECTS/Mol_Feturizer/Test_systems_manuscript/rnas/4erj

>  <Rbt.Executable>
rbdock ($Id: //depot/dev/client3/rdock/2013.1/src/exe/rbdock.cxx#4 $)

>  <Rbt.Library>
libRbt.so (2013.1, Build901 2013/11/27)

>  <Rbt.Parameter_File>
/export/apps/rDock/src/rDock_2013.1_src/data/scripts/dock_solv.prm

>  <Rbt.Receptor>
prm/pocket_docking_7.prm

>  <SCORE>
-12.6225

>  <SCORE.INTER>
-10.0673

>  <SCORE.INTER.CONST>
1

>  <SCORE.INTER.POLAR>
0

>  <SCORE.INTER.ROT>
5

>  <SCORE.INTER.SOLV>
9.67393

>  <SCORE.INTER.VDW>
-16.8695

>  <SCORE.INTER.norm>
-1.11859

>  <SCORE.INTRA>
-2.55524

>  <SCORE.INTRA.DIHEDRAL>
-5.97599

>  <SCORE.INTRA.DIHEDRAL.0>
7.73744

>  <SCORE.INTRA.POLAR>
0

>  <SCORE.INTRA.POLAR.0>
0

>  <SCORE.INTRA.REPUL>
0

>  <SCORE.INTRA.REPUL.0>
0

>  <SCORE.INTRA.SOLV>
1.13709

>  <SCORE.INTRA.SOLV.lig_0>
-15.8342

>  <SCORE.INTRA.VDW>
-0.135792

>  <SCORE.INTRA.VDW.0>
-0.219494

>  <SCORE.INTRA.norm>
-0.283916

>  <SCORE.RESTR>
0

>  <SCORE.RESTR.CAVITY>
0

>  <SCORE.RESTR.norm>
0

>  <SCORE.SYSTEM>
0

>  <SCORE.SYSTEM.CONST>
0

>  <SCORE.SYSTEM.DIHEDRAL>
0

>  <SCORE.SYSTEM.SOLV>
0

>  <SCORE.SYSTEM.norm>
0

>  <SCORE.heavy>
9

>  <SCORE.norm>
-1.4025

>  <RMSD>
1.414

$$$$
ligand
 OpenBabel02271912143D
libRbt.so/2013.1/901 2013/11/27
  9  8  0  0  0  0  0  0  0  0999 V2000
  -46.1096   67.5192  -22.7263 C   0  0  0  0  0  0  0  0  0  0  0  0
  -44.9729   67.4797  -22.1295 O   0  0  0  0  0  0  0  0  0  0  0  0
  -47.2692   66.8314  -22.1445 C   0  0  0  0  0  0  0  0  0  0  0  0
  -46.2521   68.1094  -23.8466 O   0  0  0  0  0  0  0  0  0  0  0  0
  -47.6209   67.2369  -20.7483 C   0  0  0  0  0  0  0  0  0  0  0  0
  -48.8319   66.6367  -20.1349 C   0  0  0  0  0  0  0  0  0  0  0  0
  -49.1016   67.0791  -18.7065 C   0  0  0  0  0  0  0  0  0  0  0  0
  -49.2322   68.5771  -18.3892 C   0  0  0  0  0  0  0  0  0  0  0  0
  -50.1539   69.3096  -19.1089 N   0  0  0  0  0  0  0  0  0  0  0  0
  1  2  1  0  0  0  0
  1  3  1  0  0  0  0
  1  4  1  0  0  0  0
  3  5  1  0  0  0  0
  5  6  1  0  0  0  0
  6  7  1  0  0  0  0
  7  8  1  0  0  0  0
  8  9  1  0  0  0  0
M  END
>  <CHROM.1>
56.50797716,176.41022494,178.78825895,55.83818997,54.47121305,-47.68709753
67.64850748,-20.91773054,0.31641236,0.80552606,-0.56631933

>  <Name>
ligand

>  <RI>
0

>  <Rbt.Current_Directory>
/home/itssahil/PROJECTS/Mol_Feturizer/Test_systems_manuscript/rnas/4erj

>  <Rbt.Executable>
rbdock ($Id: //depot/dev/client3/rdock/2013.1/src/exe/rbdock.cxx#4 $)

>  <Rbt.Library>
libRbt.so (2013.1, Build901 2013/11/27)

>  <Rbt.Parameter_File>
/export/apps/rDock/src/rDock_2013.1_src/data/scripts/dock_solv.prm

>  <Rbt.Receptor>
prm/pocket_docking_4.prm

>  <SCORE>
-12.6109

>  <SCORE.INTER>
-10.2992

>  <SCORE.INTER.CONST>
1

>  <SCORE.INTER.POLAR>
0

>  <SCORE.INTER.ROT>
5

>  <SCORE.INTER.SOLV>
8.52652

>  <SCORE.INTER.VDW>
-16.6417

>  <SCORE.INTER.norm>
-1.14436

>  <SCORE.INTRA>
-2.31166

>  <SCORE.INTRA.DIHEDRAL>
-5.83439

>  <SCORE.INTRA.DIHEDRAL.0>
7.73744

>  <SCORE.INTRA.POLAR>
0

>  <SCORE.INTRA.POLAR.0>
0

>  <SCORE.INTRA.REPUL>
0

>  <SCORE.INTRA.REPUL.0>
0

>  <SCORE.INTRA.SOLV>
1.24382

>  <SCORE.INTRA.SOLV.lig_0>
-15.8342

>  <SCORE.INTRA.VDW>
-0.0163771

>  <SCORE.INTRA.VDW.0>
-0.219494

>  <SCORE.INTRA.norm>
-0.256851

>  <SCORE.RESTR>
0

>  <SCORE.RESTR.CAVITY>
0

>  <SCORE.RESTR.norm>
0

>  <SCORE.SYSTEM>
0

>  <SCORE.SYSTEM.CONST>
0

>  <SCORE.SYSTEM.DIHEDRAL>
0

>  <SCORE.SYSTEM.SOLV>
0

>  <SCORE.SYSTEM.norm>
0

>  <SCORE.heavy>
9

>  <SCORE.norm>
-1.40121

>  <RMSD>
1.469

$$$$
ligand
 OpenBabel02271912143D
libRbt.so/2013.1/901 2013/11/27
  9  8  0  0  0  0  0  0  0  0999 V2000
  -46.1306   67.5455  -22.7174 C   0  0  0  0  0  0  0  0  0  0  0  0
  -44.9954   67.5307  -22.1166 O   0  0  0  0  0  0  0  0  0  0  0  0
  -47.2801   66.8426  -22.1334 C   0  0  0  0  0  0  0  0  0  0  0  0
  -46.2796   68.1238  -23.8430 O   0  0  0  0  0  0  0  0  0  0  0  0
  -47.6249   67.2324  -20.7311 C   0  0  0  0  0  0  0  0  0  0  0  0
  -48.8268   66.6172  -20.1147 C   0  0  0  0  0  0  0  0  0  0  0  0
  -49.0957   67.0524  -18.6840 C   0  0  0  0  0  0  0  0  0  0  0  0
  -49.2569   68.5470  -18.3643 C   0  0  0  0  0  0  0  0  0  0  0  0
  -50.1878   69.2634  -19.0885 N   0  0  0  0  0  0  0  0  0  0  0  0
  1  2  1  0  0  0  0
  1  3  1  0  0  0  0
  1  4  1  0  0  0  0
  3  5  1  0  0  0  0
  5  6  1  0  0  0  0
  6  7  1  0  0  0  0
  7  8  1  0  0  0  0
  8  9  1  0  0  0  0
M  END
>  <CHROM.1>
55.22984989,176.36829275,179.23763295,56.50822555,53.65886562,-47.70214228
67.64644046,-20.90214261,0.34371304,0.79889452,-0.58734912

>  <Name>
ligand

>  <RI>
0

>  <Rbt.Current_Directory>
/home/itssahil/PROJECTS/Mol_Feturizer/Test_systems_manuscript/rnas/4erj

>  <Rbt.Executable>
rbdock ($Id: //depot/dev/client3/rdock/2013.1/src/exe/rbdock.cxx#4 $)

>  <Rbt.Library>
libRbt.so (2013.1, Build901 2013/11/27)

>  <Rbt.Parameter_File>
/export/apps/rDock/src/rDock_2013.1_src/data/scripts/dock_solv.prm

>  <Rbt.Receptor>
prm/pocket_docking_7.prm

>  <SCORE>
-12.6311

>  <SCORE.INTER>
-10.3253

>  <SCORE.INTER.CONST>
1

>  <SCORE.INTER.POLAR>
0

>  <SCORE.INTER.ROT>
5

>  <SCORE.INTER.SOLV>
8.62174

>  <SCORE.INTER.VDW>
-16.6908

>  <SCORE.INTER.norm>
-1.14726

>  <SCORE.INTRA>
-2.30584

>  <SCORE.INTRA.DIHEDRAL>
-5.8288

>  <SCORE.INTRA.DIHEDRAL.0>
7.73744

>  <SCORE.INTRA.POLAR>
0

>  <SCORE.INTRA.POLAR.0>
0

>  <SCORE.INTRA.REPUL>
0

>  <SCORE.INTRA.REPUL.0>
0

>  <SCORE.INTRA.SOLV>
1.24937

>  <SCORE.INTRA.SOLV.lig_0>
-15.8342

>  <SCORE.INTRA.VDW>
-0.0161277

>  <SCORE.INTRA.VDW.0>
-0.219494

>  <SCORE.INTRA.norm>
-0.256205

>  <SCORE.RESTR>
0

>  <SCORE.RESTR.CAVITY>
0

>  <SCORE.RESTR.norm>
0

>  <SCORE.SYSTEM>
0

>  <SCORE.SYSTEM.CONST>
0

>  <SCORE.SYSTEM.DIHEDRAL>
0

>  <SCORE.SYSTEM.SOLV>
0

>  <SCORE.SYSTEM.norm>
0

>  <SCORE.heavy>
9

>  <SCORE.norm>
-1.40346

>  <RMSD>
1.475

$$$$
ligand
 OpenBabel02271912143D
libRbt.so/2013.1/901 2013/11/27
  9  8  0  0  0  0  0  0  0  0999 V2000
  -46.1971   67.7217  -22.6111 C   0  0  0  0  0  0  0  0  0  0  0  0
  -45.0149   67.5134  -22.1540 O   0  0  0  0  0  0  0  0  0  0  0  0
  -47.3420   66.9974  -22.0446 C   0  0  0  0  0  0  0  0  0  0  0  0
  -46.4027   68.5174  -23.5849 O   0  0  0  0  0  0  0  0  0  0  0  0
  -47.7126   67.3774  -20.6462 C   0  0  0  0  0  0  0  0  0  0  0  0
  -48.8695   66.6877  -20.0224 C   0  0  0  0  0  0  0  0  0  0  0  0
  -49.1441   67.0908  -18.5834 C   0  0  0  0  0  0  0  0  0  0  0  0
  -49.4183   68.5655  -18.2488 C   0  0  0  0  0  0  0  0  0  0  0  0
  -50.4663   69.1882  -18.8954 N   0  0  0  0  0  0  0  0  0  0  0  0
  1  2  1  0  0  0  0
  1  3  1  0  0  0  0
  1  4  1  0  0  0  0
  3  5  1  0  0  0  0
  5  6  1  0  0  0  0
  6  7  1  0  0  0  0
  7  8  1  0  0  0  0
  8  9  1  0  0  0  0
M  END
>  <CHROM.1>
69.20115640,179.49886191,177.64198534,57.92849609,57.21006995,-47.80062957
67.74849418,-20.79074787,0.42366505,0.74187328,-0.67547410

>  <Name>
ligand

>  <RI>
0

>  <Rbt.Current_Directory>
/home/itssahil/PROJECTS/Mol_Feturizer/Test_systems_manuscript/rnas/4erj

>  <Rbt.Executable>
rbdock ($Id: //depot/dev/client3/rdock/2013.1/src/exe/rbdock.cxx#4 $)

>  <Rbt.Library>
libRbt.so (2013.1, Build901 2013/11/27)

>  <Rbt.Parameter_File>
/export/apps/rDock/src/rDock_2013.1_src/data/scripts/dock_solv.prm

>  <Rbt.Receptor>
prm/pocket_docking_7.prm

>  <SCORE>
-12.5343

>  <SCORE.INTER>
-10.002

>  <SCORE.INTER.CONST>
1

>  <SCORE.INTER.POLAR>
0

>  <SCORE.INTER.ROT>
5

>  <SCORE.INTER.SOLV>
9.73906

>  <SCORE.INTER.VDW>
-16.8477

>  <SCORE.INTER.norm>
-1.11133

>  <SCORE.INTRA>
-2.53231

>  <SCORE.INTRA.DIHEDRAL>
-5.94449

>  <SCORE.INTRA.DIHEDRAL.0>
7.73744

>  <SCORE.INTRA.POLAR>
0

>  <SCORE.INTRA.POLAR.0>
0

>  <SCORE.INTRA.REPUL>
0

>  <SCORE.INTRA.REPUL.0>
0

>  <SCORE.INTRA.SOLV>
1.17423

>  <SCORE.INTRA.SOLV.lig_0>
-15.8342

>  <SCORE.INTRA.VDW>
-0.147178

>  <SCORE.INTRA.VDW.0>
-0.219494

>  <SCORE.INTRA.norm>
-0.281368

>  <SCORE.RESTR>
0

>  <SCORE.RESTR.CAVITY>
0

>  <SCORE.RESTR.norm>
0

>  <SCORE.SYSTEM>
0

>  <SCORE.SYSTEM.CONST>
0

>  <SCORE.SYSTEM.DIHEDRAL>
0

>  <SCORE.SYSTEM.SOLV>
0

>  <SCORE.SYSTEM.norm>
0

>  <SCORE.heavy>
9

>  <SCORE.norm>
-1.3927

>  <RMSD>
1.486

$$$$
ligand
 OpenBabel02271912143D
libRbt.so/2013.1/901 2013/11/27
  9  8  0  0  0  0  0  0  0  0999 V2000
  -47.2838   67.5384  -23.0622 C   0  0  0  0  0  0  0  0  0  0  0  0
  -48.2557   68.2184  -23.5552 O   0  0  0  0  0  0  0  0  0  0  0  0
  -46.5804   68.0224  -21.8674 C   0  0  0  0  0  0  0  0  0  0  0  0
  -46.8781   66.4633  -23.6126 O   0  0  0  0  0  0  0  0  0  0  0  0
  -47.4311   68.1979  -20.6497 C   0  0  0  0  0  0  0  0  0  0  0  0
  -48.1185   67.0008  -20.1041 C   0  0  0  0  0  0  0  0  0  0  0  0
  -48.8554   67.2370  -18.7965 C   0  0  0  0  0  0  0  0  0  0  0  0
  -50.0185   68.2406  -18.7528 C   0  0  0  0  0  0  0  0  0  0  0  0
  -49.7780   69.5243  -19.1983 N   0  0  0  0  0  0  0  0  0  0  0  0
  1  2  1  0  0  0  0
  1  3  1  0  0  0  0
  1  4  1  0  0  0  0
  3  5  1  0  0  0  0
  5  6  1  0  0  0  0
  6  7  1  0  0  0  0
  7  8  1  0  0  0  0
  8  9  1  0  0  0  0
M  END
>  <CHROM.1>
59.72958389,60.83675232,174.57155901,62.06918356,-54.42728355,-48.12894354
67.81631252,-21.11293757,0.83436729,0.82907438,-1.19681611

>  <Name>
ligand

>  <RI>
0

>  <Rbt.Current_Directory>
/home/itssahil/PROJECTS/Mol_Feturizer/Test_systems_manuscript/rnas/4erj

>  <Rbt.Executable>
rbdock ($Id: //depot/dev/client3/rdock/2013.1/src/exe/rbdock.cxx#4 $)

>  <Rbt.Library>
libRbt.so (2013.1, Build901 2013/11/27)

>  <Rbt.Parameter_File>
/export/apps/rDock/src/rDock_2013.1_src/data/scripts/dock_solv.prm

>  <Rbt.Receptor>
prm/pocket_docking_3.prm

>  <SCORE>
-11.3096

>  <SCORE.INTER>
-9.25403

>  <SCORE.INTER.CONST>
1

>  <SCORE.INTER.POLAR>
0

>  <SCORE.INTER.ROT>
5

>  <SCORE.INTER.SOLV>
7.46352

>  <SCORE.INTER.VDW>
-15.5905

>  <SCORE.INTER.norm>
-1.02823

>  <SCORE.INTRA>
-2.05559

>  <SCORE.INTRA.DIHEDRAL>
-5.80458

>  <SCORE.INTRA.DIHEDRAL.0>
7.73744

>  <SCORE.INTRA.POLAR>
0

>  <SCORE.INTRA.POLAR.0>
0

>  <SCORE.INTRA.REPUL>
0

>  <SCORE.INTRA.REPUL.0>
0

>  <SCORE.INTRA.SOLV>
1.8758

>  <SCORE.INTRA.SOLV.lig_0>
-15.8342

>  <SCORE.INTRA.VDW>
-0.0911948

>  <SCORE.INTRA.VDW.0>
-0.219494

>  <SCORE.INTRA.norm>
-0.228398

>  <SCORE.RESTR>
0

>  <SCORE.RESTR.CAVITY>
0

>  <SCORE.RESTR.norm>
0

>  <SCORE.SYSTEM>
0

>  <SCORE.SYSTEM.CONST>
0

>  <SCORE.SYSTEM.DIHEDRAL>
0

>  <SCORE.SYSTEM.SOLV>
0

>  <SCORE.SYSTEM.norm>
0

>  <SCORE.heavy>
9

>  <SCORE.norm>
-1.25662

>  <RMSD>
1.492

$$$$
ligand
 OpenBabel02271912143D
libRbt.so/2013.1/901 2013/11/27
  9  8  0  0  0  0  0  0  0  0999 V2000
  -46.4090   67.7233  -22.8351 C   0  0  0  0  0  0  0  0  0  0  0  0
  -46.7587   68.3122  -23.9218 O   0  0  0  0  0  0  0  0  0  0  0  0
  -47.3641   66.8621  -22.1261 C   0  0  0  0  0  0  0  0  0  0  0  0
  -45.2557   67.9016  -22.3237 O   0  0  0  0  0  0  0  0  0  0  0  0
  -47.8202   67.3704  -20.7954 C   0  0  0  0  0  0  0  0  0  0  0  0
  -48.7546   66.5244  -20.0116 C   0  0  0  0  0  0  0  0  0  0  0  0
  -49.0842   67.0614  -18.6290 C   0  0  0  0  0  0  0  0  0  0  0  0
  -49.8997   68.3569  -18.4939 C   0  0  0  0  0  0  0  0  0  0  0  0
  -49.3816   69.5053  -19.0569 N   0  0  0  0  0  0  0  0  0  0  0  0
  1  2  1  0  0  0  0
  1  3  1  0  0  0  0
  1  4  1  0  0  0  0
  3  5  1  0  0  0  0
  5  6  1  0  0  0  0
  6  7  1  0  0  0  0
  7  8  1  0  0  0  0
  8  9  1  0  0  0  0
M  END
>  <CHROM.1>
-112.50631574,-178.18483333,175.51341785,67.33584049,-59.67281515,-47.82420190
67.74663798,-20.94852915,0.12885549,0.91711407,-0.20686758

>  <Name>
ligand

>  <RI>
0

>  <Rbt.Current_Directory>
/home/itssahil/PROJECTS/Mol_Feturizer/Test_systems_manuscript/rnas/4erj

>  <Rbt.Executable>
rbdock ($Id: //depot/dev/client3/rdock/2013.1/src/exe/rbdock.cxx#4 $)

>  <Rbt.Library>
libRbt.so (2013.1, Build901 2013/11/27)

>  <Rbt.Parameter_File>
/export/apps/rDock/src/rDock_2013.1_src/data/scripts/dock_solv.prm

>  <Rbt.Receptor>
prm/pocket_docking_6.prm

>  <SCORE>
-12.4044

>  <SCORE.INTER>
-10.1326

>  <SCORE.INTER.CONST>
1

>  <SCORE.INTER.POLAR>
0

>  <SCORE.INTER.ROT>
5

>  <SCORE.INTER.SOLV>
8.49551

>  <SCORE.INTER.VDW>
-16.5202

>  <SCORE.INTER.norm>
-1.12584

>  <SCORE.INTRA>
-2.27182

>  <SCORE.INTRA.DIHEDRAL>
-5.76907

>  <SCORE.INTRA.DIHEDRAL.0>
7.73744

>  <SCORE.INTRA.POLAR>
0

>  <SCORE.INTRA.POLAR.0>
0

>  <SCORE.INTRA.REPUL>
0

>  <SCORE.INTRA.REPUL.0>
0

>  <SCORE.INTRA.SOLV>
1.70704

>  <SCORE.INTRA.SOLV.lig_0>
-15.8342

>  <SCORE.INTRA.VDW>
-0.240805

>  <SCORE.INTRA.VDW.0>
-0.219494

>  <SCORE.INTRA.norm>
-0.252424

>  <SCORE.RESTR>
0

>  <SCORE.RESTR.CAVITY>
0

>  <SCORE.RESTR.norm>
0

>  <SCORE.SYSTEM>
0

>  <SCORE.SYSTEM.CONST>
0

>  <SCORE.SYSTEM.DIHEDRAL>
0

>  <SCORE.SYSTEM.SOLV>
0

>  <SCORE.SYSTEM.norm>
0

>  <SCORE.heavy>
9

>  <SCORE.norm>
-1.37826

>  <RMSD>
1.498

$$$$
ligand
 OpenBabel02271912143D
libRbt.so/2013.1/901 2013/11/27
  9  8  0  0  0  0  0  0  0  0999 V2000
  -47.5531   67.9905  -23.4177 C   0  0  0  0  0  0  0  0  0  0  0  0
  -46.5022   68.2370  -24.1139 O   0  0  0  0  0  0  0  0  0  0  0  0
  -47.4748   67.0842  -22.2650 C   0  0  0  0  0  0  0  0  0  0  0  0
  -48.6869   68.4820  -23.7286 O   0  0  0  0  0  0  0  0  0  0  0  0
  -48.3813   67.4193  -21.1233 C   0  0  0  0  0  0  0  0  0  0  0  0
  -48.2045   66.6717  -19.8534 C   0  0  0  0  0  0  0  0  0  0  0  0
  -49.1761   67.0598  -18.7516 C   0  0  0  0  0  0  0  0  0  0  0  0
  -49.2375   68.5196  -18.2750 C   0  0  0  0  0  0  0  0  0  0  0  0
  -49.6789   69.4713  -19.1714 N   0  0  0  0  0  0  0  0  0  0  0  0
  1  2  1  0  0  0  0
  1  3  1  0  0  0  0
  1  4  1  0  0  0  0
  3  5  1  0  0  0  0
  5  6  1  0  0  0  0
  6  7  1  0  0  0  0
  7  8  1  0  0  0  0
  8  9  1  0  0  0  0
M  END
>  <CHROM.1>
146.46573955,-170.86782424,-179.23284432,-57.70524792,65.40928108,-48.31118969
67.89447367,-21.23827657,0.89587858,0.98044842,-0.98369701

>  <Name>
ligand

>  <RI>
0

>  <Rbt.Current_Directory>
/home/itssahil/PROJECTS/Mol_Feturizer/Test_systems_manuscript/rnas/4erj

>  <Rbt.Executable>
rbdock ($Id: //depot/dev/client3/rdock/2013.1/src/exe/rbdock.cxx#4 $)

>  <Rbt.Library>
libRbt.so (2013.1, Build901 2013/11/27)

>  <Rbt.Parameter_File>
/export/apps/rDock/src/rDock_2013.1_src/data/scripts/dock_solv.prm

>  <Rbt.Receptor>
prm/pocket_docking_3.prm

>  <SCORE>
-12.1975

>  <SCORE.INTER>
-10.5324

>  <SCORE.INTER.CONST>
1

>  <SCORE.INTER.POLAR>
0

>  <SCORE.INTER.ROT>
5

>  <SCORE.INTER.SOLV>
7.59654

>  <SCORE.INTER.VDW>
-16.4871

>  <SCORE.INTER.norm>
-1.17027

>  <SCORE.INTRA>
-1.66512

>  <SCORE.INTRA.DIHEDRAL>
-5.67743

>  <SCORE.INTRA.DIHEDRAL.0>
7.73744

>  <SCORE.INTRA.POLAR>
0

>  <SCORE.INTRA.POLAR.0>
0

>  <SCORE.INTRA.REPUL>
0

>  <SCORE.INTRA.REPUL.0>
0

>  <SCORE.INTRA.SOLV>
1.73835

>  <SCORE.INTRA.SOLV.lig_0>
-15.8342

>  <SCORE.INTRA.VDW>
0.304413

>  <SCORE.INTRA.VDW.0>
-0.219494

>  <SCORE.INTRA.norm>
-0.185014

>  <SCORE.RESTR>
0

>  <SCORE.RESTR.CAVITY>
0

>  <SCORE.RESTR.norm>
0

>  <SCORE.SYSTEM>
0

>  <SCORE.SYSTEM.CONST>
0

>  <SCORE.SYSTEM.DIHEDRAL>
0

>  <SCORE.SYSTEM.SOLV>
0

>  <SCORE.SYSTEM.norm>
0

>  <SCORE.heavy>
9

>  <SCORE.norm>
-1.35528

>  <RMSD>
1.520

$$$$
ligand
 OpenBabel02271912143D
libRbt.so/2013.1/901 2013/11/27
  9  8  0  0  0  0  0  0  0  0999 V2000
  -47.6447   67.9177  -23.4234 C   0  0  0  0  0  0  0  0  0  0  0  0
  -48.7313   68.5830  -23.5860 O   0  0  0  0  0  0  0  0  0  0  0  0
  -47.4684   67.0787  -22.2311 C   0  0  0  0  0  0  0  0  0  0  0  0
  -46.6840   67.9996  -24.2564 O   0  0  0  0  0  0  0  0  0  0  0  0
  -48.4334   67.3362  -21.1177 C   0  0  0  0  0  0  0  0  0  0  0  0
  -48.1650   66.6988  -19.8044 C   0  0  0  0  0  0  0  0  0  0  0  0
  -49.1638   67.0517  -18.7152 C   0  0  0  0  0  0  0  0  0  0  0  0
  -49.3114   68.5145  -18.2676 C   0  0  0  0  0  0  0  0  0  0  0  0
  -49.7727   69.4276  -19.1937 N   0  0  0  0  0  0  0  0  0  0  0  0
  1  2  1  0  0  0  0
  1  3  1  0  0  0  0
  1  4  1  0  0  0  0
  3  5  1  0  0  0  0
  5  6  1  0  0  0  0
  6  7  1  0  0  0  0
  7  8  1  0  0  0  0
  8  9  1  0  0  0  0
M  END
>  <CHROM.1>
-15.14896560,-169.41761651,177.86925952,-61.84738204,63.98079054,-48.36567941
67.85765905,-21.22674685,0.94484216,0.95266810,-1.05594786

>  <Name>
ligand

>  <RI>
0

>  <Rbt.Current_Directory>
/home/itssahil/PROJECTS/Mol_Feturizer/Test_systems_manuscript/rnas/4erj

>  <Rbt.Executable>
rbdock ($Id: //depot/dev/client3/rdock/2013.1/src/exe/rbdock.cxx#4 $)

>  <Rbt.Library>
libRbt.so (2013.1, Build901 2013/11/27)

>  <Rbt.Parameter_File>
/export/apps/rDock/src/rDock_2013.1_src/data/scripts/dock_solv.prm

>  <Rbt.Receptor>
prm/blind_docking_100.prm

>  <SCORE>
-12.2123

>  <SCORE.INTER>
-10.7177

>  <SCORE.INTER.CONST>
1

>  <SCORE.INTER.POLAR>
0

>  <SCORE.INTER.ROT>
5

>  <SCORE.INTER.SOLV>
7.51265

>  <SCORE.INTER.VDW>
-16.5827

>  <SCORE.INTER.norm>
-1.19086

>  <SCORE.INTRA>
-1.49457

>  <SCORE.INTRA.DIHEDRAL>
-5.43068

>  <SCORE.INTRA.DIHEDRAL.0>
7.73744

>  <SCORE.INTRA.POLAR>
0

>  <SCORE.INTRA.POLAR.0>
0

>  <SCORE.INTRA.REPUL>
0

>  <SCORE.INTRA.REPUL.0>
0

>  <SCORE.INTRA.SOLV>
1.73178

>  <SCORE.INTRA.SOLV.lig_0>
-15.8342

>  <SCORE.INTRA.VDW>
0.354875

>  <SCORE.INTRA.VDW.0>
-0.219494

>  <SCORE.INTRA.norm>
-0.166064

>  <SCORE.RESTR>
0

>  <SCORE.RESTR.CAVITY>
0

>  <SCORE.RESTR.norm>
0

>  <SCORE.SYSTEM>
0

>  <SCORE.SYSTEM.CONST>
0

>  <SCORE.SYSTEM.DIHEDRAL>
0

>  <SCORE.SYSTEM.SOLV>
0

>  <SCORE.SYSTEM.norm>
0

>  <SCORE.heavy>
9

>  <SCORE.norm>
-1.35692

>  <RMSD>
1.544

$$$$
ligand
 OpenBabel02271912143D
libRbt.so/2013.1/901 2013/11/27
  9  8  0  0  0  0  0  0  0  0999 V2000
  -46.3858   67.3201  -22.7905 C   0  0  0  0  0  0  0  0  0  0  0  0
  -45.4965   67.9536  -22.1141 O   0  0  0  0  0  0  0  0  0  0  0  0
  -47.5459   66.7316  -22.1092 C   0  0  0  0  0  0  0  0  0  0  0  0
  -46.2669   67.1471  -24.0473 O   0  0  0  0  0  0  0  0  0  0  0  0
  -47.7885   67.2220  -20.7171 C   0  0  0  0  0  0  0  0  0  0  0  0
  -48.9337   66.6474  -19.9678 C   0  0  0  0  0  0  0  0  0  0  0  0
  -49.0560   67.1314  -18.5327 C   0  0  0  0  0  0  0  0  0  0  0  0
  -49.2855   68.6252  -18.2538 C   0  0  0  0  0  0  0  0  0  0  0  0
  -50.3950   69.2221  -18.8168 N   0  0  0  0  0  0  0  0  0  0  0  0
  1  2  1  0  0  0  0
  1  3  1  0  0  0  0
  1  4  1  0  0  0  0
  3  5  1  0  0  0  0
  5  6  1  0  0  0  0
  6  7  1  0  0  0  0
  7  8  1  0  0  0  0
  8  9  1  0  0  0  0
M  END
>  <CHROM.1>
15.46407674,-178.99822378,176.20568711,61.76358942,57.56402991,-47.86716321
67.55890037,-20.85556860,-0.48998877,0.82206052,0.42717271

>  <Name>
ligand

>  <RI>
0

>  <Rbt.Current_Directory>
/home/itssahil/PROJECTS/Mol_Feturizer/Test_systems_manuscript/rnas/4erj

>  <Rbt.Executable>
rbdock ($Id: //depot/dev/client3/rdock/2013.1/src/exe/rbdock.cxx#4 $)

>  <Rbt.Library>
libRbt.so (2013.1, Build901 2013/11/27)

>  <Rbt.Parameter_File>
/export/apps/rDock/src/rDock_2013.1_src/data/scripts/dock_solv.prm

>  <Rbt.Receptor>
prm/pocket_docking_5.prm

>  <SCORE>
-12.4757

>  <SCORE.INTER>
-10.3954

>  <SCORE.INTER.CONST>
1

>  <SCORE.INTER.POLAR>
0

>  <SCORE.INTER.ROT>
5

>  <SCORE.INTER.SOLV>
10.1518

>  <SCORE.INTER.VDW>
-17.2476

>  <SCORE.INTER.norm>
-1.15505

>  <SCORE.INTRA>
-2.08024

>  <SCORE.INTRA.DIHEDRAL>
-6.0262

>  <SCORE.INTRA.DIHEDRAL.0>
7.73744

>  <SCORE.INTRA.POLAR>
0

>  <SCORE.INTRA.POLAR.0>
0

>  <SCORE.INTRA.REPUL>
0

>  <SCORE.INTRA.REPUL.0>
0

>  <SCORE.INTRA.SOLV>
1.12424

>  <SCORE.INTRA.SOLV.lig_0>
-15.8342

>  <SCORE.INTRA.VDW>
0.370741

>  <SCORE.INTRA.VDW.0>
-0.219494

>  <SCORE.INTRA.norm>
-0.231138

>  <SCORE.RESTR>
0

>  <SCORE.RESTR.CAVITY>
0

>  <SCORE.RESTR.norm>
0

>  <SCORE.SYSTEM>
0

>  <SCORE.SYSTEM.CONST>
0

>  <SCORE.SYSTEM.DIHEDRAL>
0

>  <SCORE.SYSTEM.SOLV>
0

>  <SCORE.SYSTEM.norm>
0

>  <SCORE.heavy>
9

>  <SCORE.norm>
-1.38619

>  <RMSD>
1.549

$$$$
ligand
 OpenBabel02271912143D
libRbt.so/2013.1/901 2013/11/27
  9  8  0  0  0  0  0  0  0  0999 V2000
  -47.6020   68.0429  -23.4178 C   0  0  0  0  0  0  0  0  0  0  0  0
  -46.5715   68.2830  -24.1460 O   0  0  0  0  0  0  0  0  0  0  0  0
  -47.4923   67.1409  -22.2642 C   0  0  0  0  0  0  0  0  0  0  0  0
  -48.7429   68.5371  -23.6966 O   0  0  0  0  0  0  0  0  0  0  0  0
  -48.3781   67.4718  -21.1052 C   0  0  0  0  0  0  0  0  0  0  0  0
  -48.2049   66.6927  -19.8538 C   0  0  0  0  0  0  0  0  0  0  0  0
  -49.1808   67.0520  -18.7460 C   0  0  0  0  0  0  0  0  0  0  0  0
  -49.2310   68.4948  -18.2191 C   0  0  0  0  0  0  0  0  0  0  0  0
  -49.5953   69.4903  -19.1025 N   0  0  0  0  0  0  0  0  0  0  0  0
  1  2  1  0  0  0  0
  1  3  1  0  0  0  0
  1  4  1  0  0  0  0
  3  5  1  0  0  0  0
  5  6  1  0  0  0  0
  6  7  1  0  0  0  0
  7  8  1  0  0  0  0
  8  9  1  0  0  0  0
M  END
>  <CHROM.1>
147.34467021,-173.23856593,-177.59564003,-58.58680908,62.40143772,-48.32369909
67.92474855,-21.22199091,0.90955465,0.99977822,-0.97958369

>  <Name>
ligand

>  <RI>
0

>  <Rbt.Current_Directory>
/home/itssahil/PROJECTS/Mol_Feturizer/Test_systems_manuscript/rnas/4erj

>  <Rbt.Executable>
rbdock ($Id: //depot/dev/client3/rdock/2013.1/src/exe/rbdock.cxx#4 $)

>  <Rbt.Library>
libRbt.so (2013.1, Build901 2013/11/27)

>  <Rbt.Parameter_File>
/export/apps/rDock/src/rDock_2013.1_src/data/scripts/dock_solv.prm

>  <Rbt.Receptor>
prm/pocket_docking_8.prm

>  <SCORE>
-12.2033

>  <SCORE.INTER>
-10.4646

>  <SCORE.INTER.CONST>
1

>  <SCORE.INTER.POLAR>
0

>  <SCORE.INTER.ROT>
5

>  <SCORE.INTER.SOLV>
7.85108

>  <SCORE.INTER.VDW>
-16.5267

>  <SCORE.INTER.norm>
-1.16273

>  <SCORE.INTRA>
-1.7387

>  <SCORE.INTRA.DIHEDRAL>
-5.91199

>  <SCORE.INTRA.DIHEDRAL.0>
7.73744

>  <SCORE.INTRA.POLAR>
0

>  <SCORE.INTRA.POLAR.0>
0

>  <SCORE.INTRA.REPUL>
0

>  <SCORE.INTRA.REPUL.0>
0

>  <SCORE.INTRA.SOLV>
1.78735

>  <SCORE.INTRA.SOLV.lig_0>
-15.8342

>  <SCORE.INTRA.VDW>
0.323617

>  <SCORE.INTRA.VDW.0>
-0.219494

>  <SCORE.INTRA.norm>
-0.193189

>  <SCORE.RESTR>
0

>  <SCORE.RESTR.CAVITY>
0

>  <SCORE.RESTR.norm>
0

>  <SCORE.SYSTEM>
0

>  <SCORE.SYSTEM.CONST>
0

>  <SCORE.SYSTEM.DIHEDRAL>
0

>  <SCORE.SYSTEM.SOLV>
0

>  <SCORE.SYSTEM.norm>
0

>  <SCORE.heavy>
9

>  <SCORE.norm>
-1.35592

>  <RMSD>
1.557

$$$$
ligand
 OpenBabel02271912143D
libRbt.so/2013.1/901 2013/11/27
  9  8  0  0  0  0  0  0  0  0999 V2000
  -47.5117   68.4510  -24.0829 C   0  0  0  0  0  0  0  0  0  0  0  0
  -48.7141   68.7952  -23.7903 O   0  0  0  0  0  0  0  0  0  0  0  0
  -46.8858   67.3131  -23.3976 C   0  0  0  0  0  0  0  0  0  0  0  0
  -46.8209   69.1044  -24.9312 O   0  0  0  0  0  0  0  0  0  0  0  0
  -46.8909   67.3830  -21.9034 C   0  0  0  0  0  0  0  0  0  0  0  0
  -48.1957   67.2606  -21.2067 C   0  0  0  0  0  0  0  0  0  0  0  0
  -48.1402   67.5241  -19.7113 C   0  0  0  0  0  0  0  0  0  0  0  0
  -49.4219   67.4012  -18.8722 C   0  0  0  0  0  0  0  0  0  0  0  0
  -49.3576   67.7629  -17.5421 N   0  0  0  0  0  0  0  0  0  0  0  0
  1  2  1  0  0  0  0
  1  3  1  0  0  0  0
  1  4  1  0  0  0  0
  3  5  1  0  0  0  0
  5  6  1  0  0  0  0
  6  7  1  0  0  0  0
  7  8  1  0  0  0  0
  8  9  1  0  0  0  0
M  END
>  <CHROM.1>
-54.19426820,68.52377765,-172.31627796,-178.79770680,-174.35058199,-47.99362862
67.91223216,-21.76015894,1.22132837,0.56142409,-1.20488480

>  <Name>
ligand

>  <RI>
0

>  <Rbt.Current_Directory>
/home/itssahil/PROJECTS/Mol_Feturizer/Test_systems_manuscript/rnas/4erj

>  <Rbt.Executable>
rbdock ($Id: //depot/dev/client3/rdock/2013.1/src/exe/rbdock.cxx#4 $)

>  <Rbt.Library>
libRbt.so (2013.1, Build901 2013/11/27)

>  <Rbt.Parameter_File>
/export/apps/rDock/src/rDock_2013.1_src/data/scripts/dock_solv.prm

>  <Rbt.Receptor>
prm/pocket_docking_7.prm

>  <SCORE>
-10.5187

>  <SCORE.INTER>
-7.49885

>  <SCORE.INTER.CONST>
1

>  <SCORE.INTER.POLAR>
0

>  <SCORE.INTER.ROT>
5

>  <SCORE.INTER.SOLV>
12.7522

>  <SCORE.INTER.VDW>
-16.1833

>  <SCORE.INTER.norm>
-0.833205

>  <SCORE.INTRA>
-3.01983

>  <SCORE.INTRA.DIHEDRAL>
-5.36312

>  <SCORE.INTRA.DIHEDRAL.0>
7.73744

>  <SCORE.INTRA.POLAR>
0

>  <SCORE.INTRA.POLAR.0>
0

>  <SCORE.INTRA.REPUL>
0

>  <SCORE.INTRA.REPUL.0>
0

>  <SCORE.INTRA.SOLV>
-0.121573

>  <SCORE.INTRA.SOLV.lig_0>
-15.8342

>  <SCORE.INTRA.VDW>
-0.277482

>  <SCORE.INTRA.VDW.0>
-0.219494

>  <SCORE.INTRA.norm>
-0.335537

>  <SCORE.RESTR>
0

>  <SCORE.RESTR.CAVITY>
0

>  <SCORE.RESTR.norm>
0

>  <SCORE.SYSTEM>
0

>  <SCORE.SYSTEM.CONST>
0

>  <SCORE.SYSTEM.DIHEDRAL>
0

>  <SCORE.SYSTEM.SOLV>
0

>  <SCORE.SYSTEM.norm>
0

>  <SCORE.heavy>
9

>  <SCORE.norm>
-1.16874

>  <RMSD>
1.614

$$$$
ligand
 OpenBabel02271912143D
libRbt.so/2013.1/901 2013/11/27
  9  8  0  0  0  0  0  0  0  0999 V2000
  -47.6924   68.5073  -23.8775 C   0  0  0  0  0  0  0  0  0  0  0  0
  -48.8920   68.7287  -23.4753 O   0  0  0  0  0  0  0  0  0  0  0  0
  -46.8864   67.4573  -23.2417 C   0  0  0  0  0  0  0  0  0  0  0  0
  -47.1584   69.2112  -24.7956 O   0  0  0  0  0  0  0  0  0  0  0  0
  -47.5641   66.7088  -22.1381 C   0  0  0  0  0  0  0  0  0  0  0  0
  -47.9097   67.4552  -20.9026 C   0  0  0  0  0  0  0  0  0  0  0  0
  -48.6078   66.6256  -19.8381 C   0  0  0  0  0  0  0  0  0  0  0  0
  -49.0757   67.2993  -18.5385 C   0  0  0  0  0  0  0  0  0  0  0  0
  -50.0014   68.3177  -18.6386 N   0  0  0  0  0  0  0  0  0  0  0  0
  1  2  1  0  0  0  0
  1  3  1  0  0  0  0
  1  4  1  0  0  0  0
  3  5  1  0  0  0  0
  5  6  1  0  0  0  0
  6  7  1  0  0  0  0
  7  8  1  0  0  0  0
  8  9  1  0  0  0  0
M  END
>  <CHROM.1>
0.05078725,-65.78415070,179.39621834,-177.17947779,60.79312622,-48.20098328
67.83698008,-21.75719140,1.11151210,0.79822593,-1.01730816

>  <Name>
ligand

>  <RI>
0

>  <Rbt.Current_Directory>
/home/itssahil/PROJECTS/Mol_Feturizer/Test_systems_manuscript/rnas/4erj

>  <Rbt.Executable>
rbdock ($Id: //depot/dev/client3/rdock/2013.1/src/exe/rbdock.cxx#4 $)

>  <Rbt.Library>
libRbt.so (2013.1, Build901 2013/11/27)

>  <Rbt.Parameter_File>
/export/apps/rDock/src/rDock_2013.1_src/data/scripts/dock_solv.prm

>  <Rbt.Receptor>
prm/pocket_docking_5.prm

>  <SCORE>
-11.8735

>  <SCORE.INTER>
-9.52959

>  <SCORE.INTER.CONST>
1

>  <SCORE.INTER.POLAR>
0

>  <SCORE.INTER.ROT>
5

>  <SCORE.INTER.SOLV>
9.53464

>  <SCORE.INTER.VDW>
-16.4646

>  <SCORE.INTER.norm>
-1.05884

>  <SCORE.INTRA>
-2.34392

>  <SCORE.INTRA.DIHEDRAL>
-5.87519

>  <SCORE.INTRA.DIHEDRAL.0>
7.73744

>  <SCORE.INTRA.POLAR>
0

>  <SCORE.INTRA.POLAR.0>
0

>  <SCORE.INTRA.REPUL>
0

>  <SCORE.INTRA.REPUL.0>
0

>  <SCORE.INTRA.SOLV>
0.532441

>  <SCORE.INTRA.SOLV.lig_0>
-15.8342

>  <SCORE.INTRA.VDW>
0.327453

>  <SCORE.INTRA.VDW.0>
-0.219494

>  <SCORE.INTRA.norm>
-0.260436

>  <SCORE.RESTR>
0

>  <SCORE.RESTR.CAVITY>
0

>  <SCORE.RESTR.norm>
0

>  <SCORE.SYSTEM>
0

>  <SCORE.SYSTEM.CONST>
0

>  <SCORE.SYSTEM.DIHEDRAL>
0

>  <SCORE.SYSTEM.SOLV>
0

>  <SCORE.SYSTEM.norm>
0

>  <SCORE.heavy>
9

>  <SCORE.norm>
-1.31928

>  <RMSD>
1.705

$$$$
ligand
 OpenBabel02271912143D
libRbt.so/2013.1/901 2013/11/27
  9  8  0  0  0  0  0  0  0  0999 V2000
  -47.6849   68.5066  -23.8511 C   0  0  0  0  0  0  0  0  0  0  0  0
  -47.1807   69.2516  -24.7680 O   0  0  0  0  0  0  0  0  0  0  0  0
  -46.8695   67.4576  -23.2258 C   0  0  0  0  0  0  0  0  0  0  0  0
  -48.9024   68.6239  -23.4940 O   0  0  0  0  0  0  0  0  0  0  0  0
  -47.5331   66.7060  -22.1158 C   0  0  0  0  0  0  0  0  0  0  0  0
  -47.8951   67.4569  -20.8877 C   0  0  0  0  0  0  0  0  0  0  0  0
  -48.6055   66.6308  -19.8287 C   0  0  0  0  0  0  0  0  0  0  0  0
  -49.1077   67.3128  -18.5464 C   0  0  0  0  0  0  0  0  0  0  0  0
  -50.0252   68.3351  -18.6780 N   0  0  0  0  0  0  0  0  0  0  0  0
  1  2  1  0  0  0  0
  1  3  1  0  0  0  0
  1  4  1  0  0  0  0
  3  5  1  0  0  0  0
  5  6  1  0  0  0  0
  6  7  1  0  0  0  0
  7  8  1  0  0  0  0
  8  9  1  0  0  0  0
M  END
>  <CHROM.1>
176.53091111,-64.39646782,178.08181864,-176.34301197,59.69017932,-48.20338435
67.83273991,-21.75193900,1.11297248,0.78381804,-1.02425259

>  <Name>
ligand

>  <RI>
0

>  <Rbt.Current_Directory>
/home/itssahil/PROJECTS/Mol_Feturizer/Test_systems_manuscript/rnas/4erj

>  <Rbt.Executable>
rbdock ($Id: //depot/dev/client3/rdock/2013.1/src/exe/rbdock.cxx#4 $)

>  <Rbt.Library>
libRbt.so (2013.1, Build901 2013/11/27)

>  <Rbt.Parameter_File>
/export/apps/rDock/src/rDock_2013.1_src/data/scripts/dock_solv.prm

>  <Rbt.Receptor>
prm/pocket_docking_6.prm

>  <SCORE>
-11.8092

>  <SCORE.INTER>
-9.60832

>  <SCORE.INTER.CONST>
1

>  <SCORE.INTER.POLAR>
0

>  <SCORE.INTER.ROT>
5

>  <SCORE.INTER.SOLV>
9.43559

>  <SCORE.INTER.VDW>
-16.4841

>  <SCORE.INTER.norm>
-1.06759

>  <SCORE.INTRA>
-2.2009

>  <SCORE.INTRA.DIHEDRAL>
-5.9291

>  <SCORE.INTRA.DIHEDRAL.0>
7.73744

>  <SCORE.INTRA.POLAR>
0

>  <SCORE.INTRA.POLAR.0>
0

>  <SCORE.INTRA.REPUL>
0

>  <SCORE.INTRA.REPUL.0>
0

>  <SCORE.INTRA.SOLV>
0.546702

>  <SCORE.INTRA.SOLV.lig_0>
-15.8342

>  <SCORE.INTRA.VDW>
0.4903

>  <SCORE.INTRA.VDW.0>
-0.219494

>  <SCORE.INTRA.norm>
-0.244544

>  <SCORE.RESTR>
0

>  <SCORE.RESTR.CAVITY>
0

>  <SCORE.RESTR.norm>
0

>  <SCORE.SYSTEM>
0

>  <SCORE.SYSTEM.CONST>
0

>  <SCORE.SYSTEM.DIHEDRAL>
0

>  <SCORE.SYSTEM.SOLV>
0

>  <SCORE.SYSTEM.norm>
0

>  <SCORE.heavy>
9

>  <SCORE.norm>
-1.31214

>  <RMSD>
1.705

$$$$
ligand
 OpenBabel02271912143D
libRbt.so/2013.1/901 2013/11/27
  9  8  0  0  0  0  0  0  0  0999 V2000
  -46.3475   68.1801  -22.4526 C   0  0  0  0  0  0  0  0  0  0  0  0
  -45.1558   68.3004  -21.9887 O   0  0  0  0  0  0  0  0  0  0  0  0
  -47.4915   68.1244  -21.5336 C   0  0  0  0  0  0  0  0  0  0  0  0
  -46.5657   68.0621  -23.7025 O   0  0  0  0  0  0  0  0  0  0  0  0
  -47.8823   66.7541  -21.0789 C   0  0  0  0  0  0  0  0  0  0  0  0
  -49.0956   66.6222  -20.2341 C   0  0  0  0  0  0  0  0  0  0  0  0
  -48.9631   67.2157  -18.8416 C   0  0  0  0  0  0  0  0  0  0  0  0
  -48.8811   68.7410  -18.6728 C   0  0  0  0  0  0  0  0  0  0  0  0
  -49.9286   69.4992  -19.1545 N   0  0  0  0  0  0  0  0  0  0  0  0
  1  2  1  0  0  0  0
  1  3  1  0  0  0  0
  1  4  1  0  0  0  0
  3  5  1  0  0  0  0
  5  6  1  0  0  0  0
  6  7  1  0  0  0  0
  7  8  1  0  0  0  0
  8  9  1  0  0  0  0
M  END
>  <CHROM.1>
-90.29360867,-175.31647615,-68.35272166,69.72692342,58.55585330,-47.77497582
67.94770893,-20.88752887,-0.28490444,0.81720321,0.35318295

>  <Name>
ligand

>  <RI>
0

>  <Rbt.Current_Directory>
/home/itssahil/PROJECTS/Mol_Feturizer/Test_systems_manuscript/rnas/4erj

>  <Rbt.Executable>
rbdock ($Id: //depot/dev/client3/rdock/2013.1/src/exe/rbdock.cxx#4 $)

>  <Rbt.Library>
libRbt.so (2013.1, Build901 2013/11/27)

>  <Rbt.Parameter_File>
/export/apps/rDock/src/rDock_2013.1_src/data/scripts/dock_solv.prm

>  <Rbt.Receptor>
prm/blind_docking_100.prm

>  <SCORE>
-11.65

>  <SCORE.INTER>
-9.86412

>  <SCORE.INTER.CONST>
1

>  <SCORE.INTER.POLAR>
0

>  <SCORE.INTER.ROT>
5

>  <SCORE.INTER.SOLV>
7.77142

>  <SCORE.INTER.VDW>
-16.0999

>  <SCORE.INTER.norm>
-1.09601

>  <SCORE.INTRA>
-1.78586

>  <SCORE.INTRA.DIHEDRAL>
-5.38204

>  <SCORE.INTRA.DIHEDRAL.0>
7.73744

>  <SCORE.INTRA.POLAR>
0

>  <SCORE.INTRA.POLAR.0>
0

>  <SCORE.INTRA.REPUL>
0

>  <SCORE.INTRA.REPUL.0>
0

>  <SCORE.INTRA.SOLV>
1.74384

>  <SCORE.INTRA.SOLV.lig_0>
-15.8342

>  <SCORE.INTRA.VDW>
0.0332372

>  <SCORE.INTRA.VDW.0>
-0.219494

>  <SCORE.INTRA.norm>
-0.198429

>  <SCORE.RESTR>
0

>  <SCORE.RESTR.CAVITY>
0

>  <SCORE.RESTR.norm>
0

>  <SCORE.SYSTEM>
0

>  <SCORE.SYSTEM.CONST>
0

>  <SCORE.SYSTEM.DIHEDRAL>
0

>  <SCORE.SYSTEM.SOLV>
0

>  <SCORE.SYSTEM.norm>
0

>  <SCORE.heavy>
9

>  <SCORE.norm>
-1.29444

>  <RMSD>
1.706

$$$$
ligand
 OpenBabel02271912143D
libRbt.so/2013.1/901 2013/11/27
  9  8  0  0  0  0  0  0  0  0999 V2000
  -46.6634   67.7755  -22.2262 C   0  0  0  0  0  0  0  0  0  0  0  0
  -45.4592   67.4241  -21.9496 O   0  0  0  0  0  0  0  0  0  0  0  0
  -47.7533   66.7954  -22.1382 C   0  0  0  0  0  0  0  0  0  0  0  0
  -46.9373   68.9552  -22.6223 O   0  0  0  0  0  0  0  0  0  0  0  0
  -48.6859   66.9757  -20.9828 C   0  0  0  0  0  0  0  0  0  0  0  0
  -48.1637   66.7059  -19.6198 C   0  0  0  0  0  0  0  0  0  0  0  0
  -49.1062   67.0963  -18.4938 C   0  0  0  0  0  0  0  0  0  0  0  0
  -49.4079   68.5815  -18.2388 C   0  0  0  0  0  0  0  0  0  0  0  0
  -49.9964   69.3028  -19.2574 N   0  0  0  0  0  0  0  0  0  0  0  0
  1  2  1  0  0  0  0
  1  3  1  0  0  0  0
  1  4  1  0  0  0  0
  3  5  1  0  0  0  0
  5  6  1  0  0  0  0
  6  7  1  0  0  0  0
  7  8  1  0  0  0  0
  8  9  1  0  0  0  0
M  END
>  <CHROM.1>
107.61994211,-69.05730475,171.86677602,-67.93319533,60.56870266,-47.98420319
67.74784994,-20.64065620,0.26567221,0.84792351,-0.45272917

>  <Name>
ligand

>  <RI>
0

>  <Rbt.Current_Directory>
/home/itssahil/PROJECTS/Mol_Feturizer/Test_systems_manuscript/rnas/4erj

>  <Rbt.Executable>
rbdock ($Id: //depot/dev/client3/rdock/2013.1/src/exe/rbdock.cxx#4 $)

>  <Rbt.Library>
libRbt.so (2013.1, Build901 2013/11/27)

>  <Rbt.Parameter_File>
/export/apps/rDock/src/rDock_2013.1_src/data/scripts/dock_solv.prm

>  <Rbt.Receptor>
prm/pocket_docking_5.prm

>  <SCORE>
-12.6196

>  <SCORE.INTER>
-10.4615

>  <SCORE.INTER.CONST>
1

>  <SCORE.INTER.POLAR>
0

>  <SCORE.INTER.ROT>
5

>  <SCORE.INTER.SOLV>
7.69291

>  <SCORE.INTER.VDW>
-16.472

>  <SCORE.INTER.norm>
-1.16239

>  <SCORE.INTRA>
-2.15806

>  <SCORE.INTRA.DIHEDRAL>
-5.11951

>  <SCORE.INTRA.DIHEDRAL.0>
7.73744

>  <SCORE.INTRA.POLAR>
0

>  <SCORE.INTRA.POLAR.0>
0

>  <SCORE.INTRA.REPUL>
0

>  <SCORE.INTRA.REPUL.0>
0

>  <SCORE.INTRA.SOLV>
1.7499

>  <SCORE.INTRA.SOLV.lig_0>
-15.8342

>  <SCORE.INTRA.VDW>
-0.473256

>  <SCORE.INTRA.VDW.0>
-0.219494

>  <SCORE.INTRA.norm>
-0.239784

>  <SCORE.RESTR>
0

>  <SCORE.RESTR.CAVITY>
0

>  <SCORE.RESTR.norm>
0

>  <SCORE.SYSTEM>
0

>  <SCORE.SYSTEM.CONST>
0

>  <SCORE.SYSTEM.DIHEDRAL>
0

>  <SCORE.SYSTEM.SOLV>
0

>  <SCORE.SYSTEM.norm>
0

>  <SCORE.heavy>
9

>  <SCORE.norm>
-1.40218

>  <RMSD>
1.784

$$$$
ligand
 OpenBabel02271912143D
libRbt.so/2013.1/901 2013/11/27
  9  8  0  0  0  0  0  0  0  0999 V2000
  -48.0418   68.6652  -23.5038 C   0  0  0  0  0  0  0  0  0  0  0  0
  -48.7477   69.0725  -24.4967 O   0  0  0  0  0  0  0  0  0  0  0  0
  -48.6858   68.3648  -22.2187 C   0  0  0  0  0  0  0  0  0  0  0  0
  -46.7754   68.5544  -23.5895 O   0  0  0  0  0  0  0  0  0  0  0  0
  -48.4085   67.0031  -21.6655 C   0  0  0  0  0  0  0  0  0  0  0  0
  -49.1040   66.6061  -20.4158 C   0  0  0  0  0  0  0  0  0  0  0  0
  -48.5982   67.3019  -19.1633 C   0  0  0  0  0  0  0  0  0  0  0  0
  -48.7540   68.8248  -19.0273 C   0  0  0  0  0  0  0  0  0  0  0  0
  -50.0255   69.3527  -19.1214 N   0  0  0  0  0  0  0  0  0  0  0  0
  1  2  1  0  0  0  0
  1  3  1  0  0  0  0
  1  4  1  0  0  0  0
  3  5  1  0  0  0  0
  5  6  1  0  0  0  0
  6  7  1  0  0  0  0
  7  8  1  0  0  0  0
  8  9  1  0  0  0  0
M  END
>  <CHROM.1>
126.19754333,-175.93934288,-72.26341164,63.91650379,57.13263969,-48.55438570
68.20541115,-21.51455992,0.96040890,1.11104196,-0.88970644

>  <Name>
ligand

>  <RI>
0

>  <Rbt.Current_Directory>
/home/itssahil/PROJECTS/Mol_Feturizer/Test_systems_manuscript/rnas/4erj

>  <Rbt.Executable>
rbdock ($Id: //depot/dev/client3/rdock/2013.1/src/exe/rbdock.cxx#4 $)

>  <Rbt.Library>
libRbt.so (2013.1, Build901 2013/11/27)

>  <Rbt.Parameter_File>
/export/apps/rDock/src/rDock_2013.1_src/data/scripts/dock_solv.prm

>  <Rbt.Receptor>
prm/blind_docking_100.prm

>  <SCORE>
-11.3043

>  <SCORE.INTER>
-9.83231

>  <SCORE.INTER.CONST>
1

>  <SCORE.INTER.POLAR>
0

>  <SCORE.INTER.ROT>
5

>  <SCORE.INTER.SOLV>
7.81465

>  <SCORE.INTER.VDW>
-16.0931

>  <SCORE.INTER.norm>
-1.09248

>  <SCORE.INTRA>
-1.47203

>  <SCORE.INTRA.DIHEDRAL>
-5.31025

>  <SCORE.INTRA.DIHEDRAL.0>
7.73744

>  <SCORE.INTRA.POLAR>
0

>  <SCORE.INTRA.POLAR.0>
0

>  <SCORE.INTRA.REPUL>
0

>  <SCORE.INTRA.REPUL.0>
0

>  <SCORE.INTRA.SOLV>
1.94022

>  <SCORE.INTRA.SOLV.lig_0>
-15.8342

>  <SCORE.INTRA.VDW>
0.212984

>  <SCORE.INTRA.VDW.0>
-0.219494

>  <SCORE.INTRA.norm>
-0.163559

>  <SCORE.RESTR>
0

>  <SCORE.RESTR.CAVITY>
0

>  <SCORE.RESTR.norm>
0

>  <SCORE.SYSTEM>
0

>  <SCORE.SYSTEM.CONST>
0

>  <SCORE.SYSTEM.DIHEDRAL>
0

>  <SCORE.SYSTEM.SOLV>
0

>  <SCORE.SYSTEM.norm>
0

>  <SCORE.heavy>
9

>  <SCORE.norm>
-1.25604

>  <RMSD>
1.788

$$$$
ligand
 OpenBabel02271912143D
libRbt.so/2013.1/901 2013/11/27
  9  8  0  0  0  0  0  0  0  0999 V2000
  -47.7090   67.2016  -22.7716 C   0  0  0  0  0  0  0  0  0  0  0  0
  -48.4062   68.1580  -23.2706 O   0  0  0  0  0  0  0  0  0  0  0  0
  -48.0219   66.6853  -21.4330 C   0  0  0  0  0  0  0  0  0  0  0  0
  -46.7121   66.7102  -23.3948 O   0  0  0  0  0  0  0  0  0  0  0  0
  -48.3902   67.7194  -20.4169 C   0  0  0  0  0  0  0  0  0  0  0  0
  -48.8752   67.2520  -19.0943 C   0  0  0  0  0  0  0  0  0  0  0  0
  -49.4498   68.3458  -18.2099 C   0  0  0  0  0  0  0  0  0  0  0  0
  -50.6581   69.1594  -18.6994 C   0  0  0  0  0  0  0  0  0  0  0  0
  -50.5147   69.8885  -19.8622 N   0  0  0  0  0  0  0  0  0  0  0  0
  1  2  1  0  0  0  0
  1  3  1  0  0  0  0
  1  4  1  0  0  0  0
  3  5  1  0  0  0  0
  5  6  1  0  0  0  0
  6  7  1  0  0  0  0
  7  8  1  0  0  0  0
  8  9  1  0  0  0  0
M  END
>  <CHROM.1>
-40.04531405,172.75739255,-170.03632057,59.75973128,-60.45820078,-48.72804068
67.89854156,-20.84193761,0.72061133,0.84722352,-1.25667873

>  <Name>
ligand

>  <RI>
0

>  <Rbt.Current_Directory>
/home/itssahil/PROJECTS/Mol_Feturizer/Test_systems_manuscript/rnas/4erj

>  <Rbt.Executable>
rbdock ($Id: //depot/dev/client3/rdock/2013.1/src/exe/rbdock.cxx#4 $)

>  <Rbt.Library>
libRbt.so (2013.1, Build901 2013/11/27)

>  <Rbt.Parameter_File>
/export/apps/rDock/src/rDock_2013.1_src/data/scripts/dock_solv.prm

>  <Rbt.Receptor>
prm/blind_docking_100.prm

>  <SCORE>
-12.1804

>  <SCORE.INTER>
-10.5157

>  <SCORE.INTER.CONST>
1

>  <SCORE.INTER.POLAR>
0

>  <SCORE.INTER.ROT>
5

>  <SCORE.INTER.SOLV>
8.3992

>  <SCORE.INTER.VDW>
-16.7435

>  <SCORE.INTER.norm>
-1.16841

>  <SCORE.INTRA>
-1.66467

>  <SCORE.INTRA.DIHEDRAL>
-5.34805

>  <SCORE.INTRA.DIHEDRAL.0>
7.73744

>  <SCORE.INTRA.POLAR>
0

>  <SCORE.INTRA.POLAR.0>
0

>  <SCORE.INTRA.REPUL>
0

>  <SCORE.INTRA.REPUL.0>
0

>  <SCORE.INTRA.SOLV>
1.87983

>  <SCORE.INTRA.SOLV.lig_0>
-15.8342

>  <SCORE.INTRA.VDW>
0.0694355

>  <SCORE.INTRA.VDW.0>
-0.219494

>  <SCORE.INTRA.norm>
-0.184964

>  <SCORE.RESTR>
0

>  <SCORE.RESTR.CAVITY>
0

>  <SCORE.RESTR.norm>
0

>  <SCORE.SYSTEM>
0

>  <SCORE.SYSTEM.CONST>
0

>  <SCORE.SYSTEM.DIHEDRAL>
0

>  <SCORE.SYSTEM.SOLV>
0

>  <SCORE.SYSTEM.norm>
0

>  <SCORE.heavy>
9

>  <SCORE.norm>
-1.35337

>  <RMSD>
1.820

$$$$
ligand
 OpenBabel02271912143D
libRbt.so/2013.1/901 2013/11/27
  9  8  0  0  0  0  0  0  0  0999 V2000
  -46.5828   67.5310  -22.2547 C   0  0  0  0  0  0  0  0  0  0  0  0
  -45.4424   68.0674  -22.0063 O   0  0  0  0  0  0  0  0  0  0  0  0
  -47.3460   66.8939  -21.1739 C   0  0  0  0  0  0  0  0  0  0  0  0
  -47.0580   67.4965  -23.4364 O   0  0  0  0  0  0  0  0  0  0  0  0
  -48.0236   67.8334  -20.2276 C   0  0  0  0  0  0  0  0  0  0  0  0
  -48.7948   67.2494  -19.1019 C   0  0  0  0  0  0  0  0  0  0  0  0
  -49.4965   68.2692  -18.2209 C   0  0  0  0  0  0  0  0  0  0  0  0
  -50.6042   69.1516  -18.8178 C   0  0  0  0  0  0  0  0  0  0  0  0
  -50.2685   69.9860  -19.8644 N   0  0  0  0  0  0  0  0  0  0  0  0
  1  2  1  0  0  0  0
  1  3  1  0  0  0  0
  1  4  1  0  0  0  0
  3  5  1  0  0  0  0
  5  6  1  0  0  0  0
  6  7  1  0  0  0  0
  7  8  1  0  0  0  0
  8  9  1  0  0  0  0
M  END
>  <CHROM.1>
75.42841902,-179.13892747,-177.69073194,63.67714321,-60.73687725,-48.14502508
68.05270521,-20.60699567,0.49335168,0.67211571,-1.05643083

>  <Name>
ligand

>  <RI>
0

>  <Rbt.Current_Directory>
/home/itssahil/PROJECTS/Mol_Feturizer/Test_systems_manuscript/rnas/4erj

>  <Rbt.Executable>
rbdock ($Id: //depot/dev/client3/rdock/2013.1/src/exe/rbdock.cxx#4 $)

>  <Rbt.Library>
libRbt.so (2013.1, Build901 2013/11/27)

>  <Rbt.Parameter_File>
/export/apps/rDock/src/rDock_2013.1_src/data/scripts/dock_solv.prm

>  <Rbt.Receptor>
prm/pocket_docking_5.prm

>  <SCORE>
-12.2481

>  <SCORE.INTER>
-9.93077

>  <SCORE.INTER.CONST>
1

>  <SCORE.INTER.POLAR>
0

>  <SCORE.INTER.ROT>
5

>  <SCORE.INTER.SOLV>
8.19597

>  <SCORE.INTER.VDW>
-16.2858

>  <SCORE.INTER.norm>
-1.10342

>  <SCORE.INTRA>
-2.31732

>  <SCORE.INTRA.DIHEDRAL>
-5.90492

>  <SCORE.INTRA.DIHEDRAL.0>
7.73744

>  <SCORE.INTRA.POLAR>
0

>  <SCORE.INTRA.POLAR.0>
0

>  <SCORE.INTRA.REPUL>
0

>  <SCORE.INTRA.REPUL.0>
0

>  <SCORE.INTRA.SOLV>
1.77663

>  <SCORE.INTRA.SOLV.lig_0>
-15.8342

>  <SCORE.INTRA.VDW>
-0.253177

>  <SCORE.INTRA.VDW.0>
-0.219494

>  <SCORE.INTRA.norm>
-0.25748

>  <SCORE.RESTR>
0

>  <SCORE.RESTR.CAVITY>
0

>  <SCORE.RESTR.norm>
0

>  <SCORE.SYSTEM>
0

>  <SCORE.SYSTEM.CONST>
0

>  <SCORE.SYSTEM.DIHEDRAL>
0

>  <SCORE.SYSTEM.SOLV>
0

>  <SCORE.SYSTEM.norm>
0

>  <SCORE.heavy>
9

>  <SCORE.norm>
-1.3609

>  <RMSD>
1.856

$$$$
ligand
 OpenBabel02271912143D
libRbt.so/2013.1/901 2013/11/27
  9  8  0  0  0  0  0  0  0  0999 V2000
  -47.8996   67.8626  -22.4327 C   0  0  0  0  0  0  0  0  0  0  0  0
  -46.7179   68.3428  -22.5847 O   0  0  0  0  0  0  0  0  0  0  0  0
  -48.1272   66.7533  -21.4979 C   0  0  0  0  0  0  0  0  0  0  0  0
  -48.8864   68.2979  -23.1112 O   0  0  0  0  0  0  0  0  0  0  0  0
  -48.9721   67.0808  -20.3079 C   0  0  0  0  0  0  0  0  0  0  0  0
  -48.4740   68.1134  -19.3652 C   0  0  0  0  0  0  0  0  0  0  0  0
  -49.4955   68.5791  -18.3413 C   0  0  0  0  0  0  0  0  0  0  0  0
  -50.8092   69.2181  -18.8182 C   0  0  0  0  0  0  0  0  0  0  0  0
  -50.7266   70.3494  -19.6041 N   0  0  0  0  0  0  0  0  0  0  0  0
  1  2  1  0  0  0  0
  1  3  1  0  0  0  0
  1  4  1  0  0  0  0
  3  5  1  0  0  0  0
  5  6  1  0  0  0  0
  6  7  1  0  0  0  0
  7  8  1  0  0  0  0
  8  9  1  0  0  0  0
M  END
>  <CHROM.1>
113.94912762,-62.07905117,168.80718752,-59.67172631,-58.44557651,-48.88257790
68.29595145,-20.71315073,0.65223635,0.81749265,-1.16773975

>  <Name>
ligand

>  <RI>
0

>  <Rbt.Current_Directory>
/home/itssahil/PROJECTS/Mol_Feturizer/Test_systems_manuscript/rnas/4erj

>  <Rbt.Executable>
rbdock ($Id: //depot/dev/client3/rdock/2013.1/src/exe/rbdock.cxx#4 $)

>  <Rbt.Library>
libRbt.so (2013.1, Build901 2013/11/27)

>  <Rbt.Parameter_File>
/export/apps/rDock/src/rDock_2013.1_src/data/scripts/dock_solv.prm

>  <Rbt.Receptor>
prm/pocket_docking_8.prm

>  <SCORE>
-11.7022

>  <SCORE.INTER>
-9.24308

>  <SCORE.INTER.CONST>
1

>  <SCORE.INTER.POLAR>
0

>  <SCORE.INTER.ROT>
5

>  <SCORE.INTER.SOLV>
9.90488

>  <SCORE.INTER.VDW>
-16.397

>  <SCORE.INTER.norm>
-1.02701

>  <SCORE.INTRA>
-2.45912

>  <SCORE.INTRA.DIHEDRAL>
-5.48207

>  <SCORE.INTRA.DIHEDRAL.0>
7.73744

>  <SCORE.INTRA.POLAR>
0

>  <SCORE.INTRA.POLAR.0>
0

>  <SCORE.INTRA.REPUL>
0

>  <SCORE.INTRA.REPUL.0>
0

>  <SCORE.INTRA.SOLV>
1.12782

>  <SCORE.INTRA.SOLV.lig_0>
-15.8342

>  <SCORE.INTRA.VDW>
-0.282004

>  <SCORE.INTRA.VDW.0>
-0.219494

>  <SCORE.INTRA.norm>
-0.273236

>  <SCORE.RESTR>
0

>  <SCORE.RESTR.CAVITY>
0

>  <SCORE.RESTR.norm>
0

>  <SCORE.SYSTEM>
0

>  <SCORE.SYSTEM.CONST>
0

>  <SCORE.SYSTEM.DIHEDRAL>
0

>  <SCORE.SYSTEM.SOLV>
0

>  <SCORE.SYSTEM.norm>
0

>  <SCORE.heavy>
9

>  <SCORE.norm>
-1.30025

>  <RMSD>
2.083

$$$$
ligand
 OpenBabel02271912143D
libRbt.so/2013.1/901 2013/11/27
  9  8  0  0  0  0  0  0  0  0999 V2000
  -47.8002   67.3823  -22.2903 C   0  0  0  0  0  0  0  0  0  0  0  0
  -47.3470   66.2734  -22.7537 O   0  0  0  0  0  0  0  0  0  0  0  0
  -47.3457   67.8726  -20.9828 C   0  0  0  0  0  0  0  0  0  0  0  0
  -48.6779   68.0573  -22.9209 O   0  0  0  0  0  0  0  0  0  0  0  0
  -48.1964   67.4757  -19.8183 C   0  0  0  0  0  0  0  0  0  0  0  0
  -49.5967   67.9663  -19.7817 C   0  0  0  0  0  0  0  0  0  0  0  0
  -49.7346   69.4776  -19.7063 C   0  0  0  0  0  0  0  0  0  0  0  0
  -51.1316   70.1150  -19.7682 C   0  0  0  0  0  0  0  0  0  0  0  0
  -52.0456   69.7579  -18.7980 N   0  0  0  0  0  0  0  0  0  0  0  0
  1  2  1  0  0  0  0
  1  3  1  0  0  0  0
  1  4  1  0  0  0  0
  3  5  1  0  0  0  0
  5  6  1  0  0  0  0
  6  7  1  0  0  0  0
  7  8  1  0  0  0  0
  8  9  1  0  0  0  0
M  END
>  <CHROM.1>
-92.78799314,-63.17761168,-62.73226762,175.47552105,59.34267420,-49.08383102
68.24404876,-20.79802232,0.60828341,0.63693251,-1.57255922

>  <Name>
ligand

>  <RI>
0

>  <Rbt.Current_Directory>
/home/itssahil/PROJECTS/Mol_Feturizer/Test_systems_manuscript/rnas/4erj

>  <Rbt.Executable>
rbdock ($Id: //depot/dev/client3/rdock/2013.1/src/exe/rbdock.cxx#4 $)

>  <Rbt.Library>
libRbt.so (2013.1, Build901 2013/11/27)

>  <Rbt.Parameter_File>
/export/apps/rDock/src/rDock_2013.1_src/data/scripts/dock_solv.prm

>  <Rbt.Receptor>
prm/pocket_docking_3.prm

>  <SCORE>
-10.905

>  <SCORE.INTER>
-7.91755

>  <SCORE.INTER.CONST>
1

>  <SCORE.INTER.POLAR>
0

>  <SCORE.INTER.ROT>
5

>  <SCORE.INTER.SOLV>
11.5427

>  <SCORE.INTER.VDW>
-16.0593

>  <SCORE.INTER.norm>
-0.879728

>  <SCORE.INTRA>
-2.98743

>  <SCORE.INTRA.DIHEDRAL>
-5.99538

>  <SCORE.INTRA.DIHEDRAL.0>
7.73744

>  <SCORE.INTRA.POLAR>
0

>  <SCORE.INTRA.POLAR.0>
0

>  <SCORE.INTRA.REPUL>
0

>  <SCORE.INTRA.REPUL.0>
0

>  <SCORE.INTRA.SOLV>
0.508964

>  <SCORE.INTRA.SOLV.lig_0>
-15.8342

>  <SCORE.INTRA.VDW>
-0.244221

>  <SCORE.INTRA.VDW.0>
-0.219494

>  <SCORE.INTRA.norm>
-0.331937

>  <SCORE.RESTR>
0

>  <SCORE.RESTR.CAVITY>
0

>  <SCORE.RESTR.norm>
0

>  <SCORE.SYSTEM>
0

>  <SCORE.SYSTEM.CONST>
0

>  <SCORE.SYSTEM.DIHEDRAL>
0

>  <SCORE.SYSTEM.SOLV>
0

>  <SCORE.SYSTEM.norm>
0

>  <SCORE.heavy>
9

>  <SCORE.norm>
-1.21166

>  <RMSD>
2.183

$$$$
ligand
 OpenBabel02271912143D
libRbt.so/2013.1/901 2013/11/27
  9  8  0  0  0  0  0  0  0  0999 V2000
  -47.9115   67.1818  -22.3088 C   0  0  0  0  0  0  0  0  0  0  0  0
  -48.6338   67.9625  -23.0288 O   0  0  0  0  0  0  0  0  0  0  0  0
  -47.8636   67.3609  -20.8521 C   0  0  0  0  0  0  0  0  0  0  0  0
  -47.1908   66.2711  -22.8332 O   0  0  0  0  0  0  0  0  0  0  0  0
  -49.0014   66.7543  -20.0939 C   0  0  0  0  0  0  0  0  0  0  0  0
  -49.0720   67.0010  -18.6320 C   0  0  0  0  0  0  0  0  0  0  0  0
  -49.2833   68.4555  -18.2466 C   0  0  0  0  0  0  0  0  0  0  0  0
  -50.5210   69.2046  -18.7651 C   0  0  0  0  0  0  0  0  0  0  0  0
  -50.5794   69.4956  -20.1127 N   0  0  0  0  0  0  0  0  0  0  0  0
  1  2  1  0  0  0  0
  1  3  1  0  0  0  0
  1  4  1  0  0  0  0
  3  5  1  0  0  0  0
  5  6  1  0  0  0  0
  6  7  1  0  0  0  0
  7  8  1  0  0  0  0
  8  9  1  0  0  0  0
M  END
>  <CHROM.1>
81.80083874,-174.83167845,64.31851682,58.12490354,-69.46715340,-48.88016117
67.73230441,-20.58730937,0.75650086,0.87184764,-1.30765381

>  <Name>
ligand

>  <RI>
0

>  <Rbt.Current_Directory>
/home/itssahil/PROJECTS/Mol_Feturizer/Test_systems_manuscript/rnas/4erj

>  <Rbt.Executable>
rbdock ($Id: //depot/dev/client3/rdock/2013.1/src/exe/rbdock.cxx#4 $)

>  <Rbt.Library>
libRbt.so (2013.1, Build901 2013/11/27)

>  <Rbt.Parameter_File>
/export/apps/rDock/src/rDock_2013.1_src/data/scripts/dock_solv.prm

>  <Rbt.Receptor>
prm/blind_docking_100.prm

>  <SCORE>
-13.3578

>  <SCORE.INTER>
-11.7675

>  <SCORE.INTER.CONST>
1

>  <SCORE.INTER.POLAR>
0

>  <SCORE.INTER.ROT>
5

>  <SCORE.INTER.SOLV>
8.33712

>  <SCORE.INTER.VDW>
-17.5574

>  <SCORE.INTER.norm>
-1.3075

>  <SCORE.INTRA>
-1.59022

>  <SCORE.INTRA.DIHEDRAL>
-5.43237

>  <SCORE.INTRA.DIHEDRAL.0>
7.73744

>  <SCORE.INTRA.POLAR>
0

>  <SCORE.INTRA.POLAR.0>
0

>  <SCORE.INTRA.REPUL>
0

>  <SCORE.INTRA.REPUL.0>
0

>  <SCORE.INTRA.SOLV>
2.42078

>  <SCORE.INTRA.SOLV.lig_0>
-15.8342

>  <SCORE.INTRA.VDW>
-0.0844239

>  <SCORE.INTRA.VDW.0>
-0.219494

>  <SCORE.INTRA.norm>
-0.176691

>  <SCORE.RESTR>
0

>  <SCORE.RESTR.CAVITY>
0

>  <SCORE.RESTR.norm>
0

>  <SCORE.SYSTEM>
0

>  <SCORE.SYSTEM.CONST>
0

>  <SCORE.SYSTEM.DIHEDRAL>
0

>  <SCORE.SYSTEM.SOLV>
0

>  <SCORE.SYSTEM.norm>
0

>  <SCORE.heavy>
9

>  <SCORE.norm>
-1.4842

>  <RMSD>
2.219

$$$$
ligand
 OpenBabel02271912143D
libRbt.so/2013.1/901 2013/11/27
  9  8  0  0  0  0  0  0  0  0999 V2000
  -47.8095   67.1552  -22.2395 C   0  0  0  0  0  0  0  0  0  0  0  0
  -48.4403   67.9918  -22.9825 O   0  0  0  0  0  0  0  0  0  0  0  0
  -47.7939   67.3336  -20.7820 C   0  0  0  0  0  0  0  0  0  0  0  0
  -47.1511   66.1861  -22.7402 O   0  0  0  0  0  0  0  0  0  0  0  0
  -48.9541   66.7366  -20.0506 C   0  0  0  0  0  0  0  0  0  0  0  0
  -49.0742   67.0105  -18.5968 C   0  0  0  0  0  0  0  0  0  0  0  0
  -49.2980   68.4718  -18.2458 C   0  0  0  0  0  0  0  0  0  0  0  0
  -50.5356   69.2012  -18.7917 C   0  0  0  0  0  0  0  0  0  0  0  0
  -50.5972   69.4363  -20.1501 N   0  0  0  0  0  0  0  0  0  0  0  0
  1  2  1  0  0  0  0
  1  3  1  0  0  0  0
  1  4  1  0  0  0  0
  3  5  1  0  0  0  0
  5  6  1  0  0  0  0
  6  7  1  0  0  0  0
  7  8  1  0  0  0  0
  8  9  1  0  0  0  0
M  END
>  <CHROM.1>
86.14893149,-173.40495095,64.09346014,59.62632122,-68.11210208,-48.83404038
67.71390773,-20.55406016,0.70504048,0.86719595,-1.27368836

>  <Name>
ligand

>  <RI>
0

>  <Rbt.Current_Directory>
/home/itssahil/PROJECTS/Mol_Feturizer/Test_systems_manuscript/rnas/4erj

>  <Rbt.Executable>
rbdock ($Id: //depot/dev/client3/rdock/2013.1/src/exe/rbdock.cxx#4 $)

>  <Rbt.Library>
libRbt.so (2013.1, Build901 2013/11/27)

>  <Rbt.Parameter_File>
/export/apps/rDock/src/rDock_2013.1_src/data/scripts/dock_solv.prm

>  <Rbt.Receptor>
prm/blind_docking_100.prm

>  <SCORE>
-13.3321

>  <SCORE.INTER>
-11.6926

>  <SCORE.INTER.CONST>
1

>  <SCORE.INTER.POLAR>
0

>  <SCORE.INTER.ROT>
5

>  <SCORE.INTER.SOLV>
8.34195

>  <SCORE.INTER.VDW>
-17.5091

>  <SCORE.INTER.norm>
-1.29918

>  <SCORE.INTRA>
-1.63947

>  <SCORE.INTRA.DIHEDRAL>
-5.46369

>  <SCORE.INTRA.DIHEDRAL.0>
7.73744

>  <SCORE.INTRA.POLAR>
0

>  <SCORE.INTRA.POLAR.0>
0

>  <SCORE.INTRA.REPUL>
0

>  <SCORE.INTRA.REPUL.0>
0

>  <SCORE.INTRA.SOLV>
2.40129

>  <SCORE.INTRA.SOLV.lig_0>
-15.8342

>  <SCORE.INTRA.VDW>
-0.108272

>  <SCORE.INTRA.VDW.0>
-0.219494

>  <SCORE.INTRA.norm>
-0.182164

>  <SCORE.RESTR>
0

>  <SCORE.RESTR.CAVITY>
0

>  <SCORE.RESTR.norm>
0

>  <SCORE.SYSTEM>
0

>  <SCORE.SYSTEM.CONST>
0

>  <SCORE.SYSTEM.DIHEDRAL>
0

>  <SCORE.SYSTEM.SOLV>
0

>  <SCORE.SYSTEM.norm>
0

>  <SCORE.heavy>
9

>  <SCORE.norm>
-1.48134

>  <RMSD>
2.223

$$$$
ligand
 OpenBabel02271912143D
libRbt.so/2013.1/901 2013/11/27
  9  8  0  0  0  0  0  0  0  0999 V2000
  -48.1347   67.1559  -22.3198 C   0  0  0  0  0  0  0  0  0  0  0  0
  -48.1591   68.2120  -23.0505 O   0  0  0  0  0  0  0  0  0  0  0  0
  -48.9693   67.0773  -21.1140 C   0  0  0  0  0  0  0  0  0  0  0  0
  -47.3641   66.1779  -22.5903 O   0  0  0  0  0  0  0  0  0  0  0  0
  -48.2216   66.9876  -19.8217 C   0  0  0  0  0  0  0  0  0  0  0  0
  -49.0080   66.9856  -18.5628 C   0  0  0  0  0  0  0  0  0  0  0  0
  -49.4345   68.3625  -18.0825 C   0  0  0  0  0  0  0  0  0  0  0  0
  -50.4584   69.1663  -18.8995 C   0  0  0  0  0  0  0  0  0  0  0  0
  -50.0468   69.6955  -20.1056 N   0  0  0  0  0  0  0  0  0  0  0  0
  1  2  1  0  0  0  0
  1  3  1  0  0  0  0
  1  4  1  0  0  0  0
  3  5  1  0  0  0  0
  5  6  1  0  0  0  0
  6  7  1  0  0  0  0
  7  8  1  0  0  0  0
  8  9  1  0  0  0  0
M  END
>  <CHROM.1>
-115.43091804,176.49895716,-81.69344615,67.45298133,-71.63575533,-48.84358208
67.74967524,-20.54798342,0.69094053,0.99070478,-1.16463621

>  <Name>
ligand

>  <RI>
0

>  <Rbt.Current_Directory>
/home/itssahil/PROJECTS/Mol_Feturizer/Test_systems_manuscript/rnas/4erj

>  <Rbt.Executable>
rbdock ($Id: //depot/dev/client3/rdock/2013.1/src/exe/rbdock.cxx#4 $)

>  <Rbt.Library>
libRbt.so (2013.1, Build901 2013/11/27)

>  <Rbt.Parameter_File>
/export/apps/rDock/src/rDock_2013.1_src/data/scripts/dock_solv.prm

>  <Rbt.Receptor>
prm/pocket_docking_8.prm

>  <SCORE>
-12.5021

>  <SCORE.INTER>
-11.9712

>  <SCORE.INTER.CONST>
1

>  <SCORE.INTER.POLAR>
0

>  <SCORE.INTER.ROT>
5

>  <SCORE.INTER.SOLV>
7.71279

>  <SCORE.INTER.VDW>
-17.4851

>  <SCORE.INTER.norm>
-1.33013

>  <SCORE.INTRA>
-0.530903

>  <SCORE.INTRA.DIHEDRAL>
-3.52681

>  <SCORE.INTRA.DIHEDRAL.0>
7.73744

>  <SCORE.INTRA.POLAR>
0

>  <SCORE.INTRA.POLAR.0>
0

>  <SCORE.INTRA.REPUL>
0

>  <SCORE.INTRA.REPUL.0>
0

>  <SCORE.INTRA.SOLV>
2.78442

>  <SCORE.INTRA.SOLV.lig_0>
-15.8342

>  <SCORE.INTRA.VDW>
-0.159707

>  <SCORE.INTRA.VDW.0>
-0.219494

>  <SCORE.INTRA.norm>
-0.0589892

>  <SCORE.RESTR>
0

>  <SCORE.RESTR.CAVITY>
0

>  <SCORE.RESTR.norm>
0

>  <SCORE.SYSTEM>
0

>  <SCORE.SYSTEM.CONST>
0

>  <SCORE.SYSTEM.DIHEDRAL>
0

>  <SCORE.SYSTEM.SOLV>
0

>  <SCORE.SYSTEM.norm>
0

>  <SCORE.heavy>
9

>  <SCORE.norm>
-1.38912

>  <RMSD>
2.333

$$$$
ligand
 OpenBabel02271912143D
libRbt.so/2013.1/901 2013/11/27
  9  8  0  0  0  0  0  0  0  0999 V2000
  -47.7578   68.2244  -21.4117 C   0  0  0  0  0  0  0  0  0  0  0  0
  -48.5576   68.7223  -22.2848 O   0  0  0  0  0  0  0  0  0  0  0  0
  -47.9808   66.8657  -20.9014 C   0  0  0  0  0  0  0  0  0  0  0  0
  -46.7882   68.9007  -20.9362 O   0  0  0  0  0  0  0  0  0  0  0  0
  -49.1813   66.6990  -20.0248 C   0  0  0  0  0  0  0  0  0  0  0  0
  -49.1651   67.3538  -18.6928 C   0  0  0  0  0  0  0  0  0  0  0  0
  -49.1287   68.8722  -18.7360 C   0  0  0  0  0  0  0  0  0  0  0  0
  -50.2752   69.6386  -19.4141 C   0  0  0  0  0  0  0  0  0  0  0  0
  -51.5389   69.5175  -18.8731 N   0  0  0  0  0  0  0  0  0  0  0  0
  1  2  1  0  0  0  0
  1  3  1  0  0  0  0
  1  4  1  0  0  0  0
  3  5  1  0  0  0  0
  5  6  1  0  0  0  0
  6  7  1  0  0  0  0
  7  8  1  0  0  0  0
  8  9  1  0  0  0  0
M  END
>  <CHROM.1>
-69.61087856,-68.03667686,64.84127903,60.55780722,62.88296377,-48.90972732
68.32705820,-20.16709687,0.12245819,0.73624734,-0.55078167

>  <Name>
ligand

>  <RI>
0

>  <Rbt.Current_Directory>
/home/itssahil/PROJECTS/Mol_Feturizer/Test_systems_manuscript/rnas/4erj

>  <Rbt.Executable>
rbdock ($Id: //depot/dev/client3/rdock/2013.1/src/exe/rbdock.cxx#4 $)

>  <Rbt.Library>
libRbt.so (2013.1, Build901 2013/11/27)

>  <Rbt.Parameter_File>
/export/apps/rDock/src/rDock_2013.1_src/data/scripts/dock_solv.prm

>  <Rbt.Receptor>
prm/pocket_docking_8.prm

>  <SCORE>
-12.145

>  <SCORE.INTER>
-9.63806

>  <SCORE.INTER.CONST>
1

>  <SCORE.INTER.POLAR>
0

>  <SCORE.INTER.ROT>
5

>  <SCORE.INTER.SOLV>
11.3094

>  <SCORE.INTER.VDW>
-17.1285

>  <SCORE.INTER.norm>
-1.0709

>  <SCORE.INTRA>
-2.50691

>  <SCORE.INTRA.DIHEDRAL>
-5.71377

>  <SCORE.INTRA.DIHEDRAL.0>
7.73744

>  <SCORE.INTRA.POLAR>
0

>  <SCORE.INTRA.POLAR.0>
0

>  <SCORE.INTRA.REPUL>
0

>  <SCORE.INTRA.REPUL.0>
0

>  <SCORE.INTRA.SOLV>
1.04377

>  <SCORE.INTRA.SOLV.lig_0>
-15.8342

>  <SCORE.INTRA.VDW>
-0.171909

>  <SCORE.INTRA.VDW.0>
-0.219494

>  <SCORE.INTRA.norm>
-0.278546

>  <SCORE.RESTR>
0

>  <SCORE.RESTR.CAVITY>
0

>  <SCORE.RESTR.norm>
0

>  <SCORE.SYSTEM>
0

>  <SCORE.SYSTEM.CONST>
0

>  <SCORE.SYSTEM.DIHEDRAL>
0

>  <SCORE.SYSTEM.SOLV>
0

>  <SCORE.SYSTEM.norm>
0

>  <SCORE.heavy>
9

>  <SCORE.norm>
-1.34944

>  <RMSD>
2.586

$$$$
ligand
 OpenBabel02271912143D
libRbt.so/2013.1/901 2013/11/27
  9  8  0  0  0  0  0  0  0  0999 V2000
  -48.2637   68.1237  -21.6762 C   0  0  0  0  0  0  0  0  0  0  0  0
  -47.1265   68.6314  -21.3617 O   0  0  0  0  0  0  0  0  0  0  0  0
  -48.6911   66.8523  -21.0786 C   0  0  0  0  0  0  0  0  0  0  0  0
  -49.0235   68.6767  -22.5368 O   0  0  0  0  0  0  0  0  0  0  0  0
  -48.3644   66.6834  -19.6288 C   0  0  0  0  0  0  0  0  0  0  0  0
  -49.2379   67.3585  -18.6367 C   0  0  0  0  0  0  0  0  0  0  0  0
  -49.0953   68.8706  -18.5953 C   0  0  0  0  0  0  0  0  0  0  0  0
  -49.7906   69.7268  -19.6655 C   0  0  0  0  0  0  0  0  0  0  0  0
  -51.1701   69.7247  -19.6953 N   0  0  0  0  0  0  0  0  0  0  0  0
  1  2  1  0  0  0  0
  1  3  1  0  0  0  0
  1  4  1  0  0  0  0
  3  5  1  0  0  0  0
  5  6  1  0  0  0  0
  6  7  1  0  0  0  0
  7  8  1  0  0  0  0
  8  9  1  0  0  0  0
M  END
>  <CHROM.1>
39.85743950,79.09467246,-71.13222382,79.01550587,64.94232750,-48.95683443
68.30776303,-20.34835411,0.56310838,0.83392910,-1.07176402

>  <Name>
ligand

>  <RI>
0

>  <Rbt.Current_Directory>
/home/itssahil/PROJECTS/Mol_Feturizer/Test_systems_manuscript/rnas/4erj

>  <Rbt.Executable>
rbdock ($Id: //depot/dev/client3/rdock/2013.1/src/exe/rbdock.cxx#4 $)

>  <Rbt.Library>
libRbt.so (2013.1, Build901 2013/11/27)

>  <Rbt.Parameter_File>
/export/apps/rDock/src/rDock_2013.1_src/data/scripts/dock_solv.prm

>  <Rbt.Receptor>
prm/pocket_docking_3.prm

>  <SCORE>
-11.0845

>  <SCORE.INTER>
-10.4384

>  <SCORE.INTER.CONST>
1

>  <SCORE.INTER.POLAR>
0

>  <SCORE.INTER.ROT>
5

>  <SCORE.INTER.SOLV>
8.87425

>  <SCORE.INTER.VDW>
-16.8503

>  <SCORE.INTER.norm>
-1.15982

>  <SCORE.INTRA>
-0.646123

>  <SCORE.INTRA.DIHEDRAL>
-2.74903

>  <SCORE.INTRA.DIHEDRAL.0>
7.73744

>  <SCORE.INTRA.POLAR>
0

>  <SCORE.INTRA.POLAR.0>
0

>  <SCORE.INTRA.REPUL>
0

>  <SCORE.INTRA.REPUL.0>
0

>  <SCORE.INTRA.SOLV>
1.54492

>  <SCORE.INTRA.SOLV.lig_0>
-15.8342

>  <SCORE.INTRA.VDW>
-0.0440657

>  <SCORE.INTRA.VDW.0>
-0.219494

>  <SCORE.INTRA.norm>
-0.0717915

>  <SCORE.RESTR>
0

>  <SCORE.RESTR.CAVITY>
0

>  <SCORE.RESTR.norm>
0

>  <SCORE.SYSTEM>
0

>  <SCORE.SYSTEM.CONST>
0

>  <SCORE.SYSTEM.DIHEDRAL>
0

>  <SCORE.SYSTEM.SOLV>
0

>  <SCORE.SYSTEM.norm>
0

>  <SCORE.heavy>
9

>  <SCORE.norm>
-1.23161

>  <RMSD>
2.631

$$$$
ligand
 OpenBabel02271912143D
libRbt.so/2013.1/901 2013/11/27
  9  8  0  0  0  0  0  0  0  0999 V2000
  -47.8992   68.4352  -21.2725 C   0  0  0  0  0  0  0  0  0  0  0  0
  -47.0711   69.1681  -20.6191 O   0  0  0  0  0  0  0  0  0  0  0  0
  -48.0124   67.0033  -20.9671 C   0  0  0  0  0  0  0  0  0  0  0  0
  -48.6039   68.9118  -22.2211 O   0  0  0  0  0  0  0  0  0  0  0  0
  -49.1476   66.6273  -20.0685 C   0  0  0  0  0  0  0  0  0  0  0  0
  -49.0991   67.0878  -18.6583 C   0  0  0  0  0  0  0  0  0  0  0  0
  -49.2651   68.5873  -18.4776 C   0  0  0  0  0  0  0  0  0  0  0  0
  -50.5878   69.2574  -18.8818 C   0  0  0  0  0  0  0  0  0  0  0  0
  -50.9231   69.2644  -20.2203 N   0  0  0  0  0  0  0  0  0  0  0  0
  1  2  1  0  0  0  0
  1  3  1  0  0  0  0
  1  4  1  0  0  0  0
  3  5  1  0  0  0  0
  5  6  1  0  0  0  0
  6  7  1  0  0  0  0
  7  8  1  0  0  0  0
  8  9  1  0  0  0  0
M  END
>  <CHROM.1>
98.27969684,-67.31124009,68.98421265,63.94677681,-65.94049545,-48.93845125
68.28140180,-20.17541281,0.47608783,0.68283028,-0.74744873

>  <Name>
ligand

>  <RI>
0

>  <Rbt.Current_Directory>
/home/itssahil/PROJECTS/Mol_Feturizer/Test_systems_manuscript/rnas/4erj

>  <Rbt.Executable>
rbdock ($Id: //depot/dev/client3/rdock/2013.1/src/exe/rbdock.cxx#4 $)

>  <Rbt.Library>
libRbt.so (2013.1, Build901 2013/11/27)

>  <Rbt.Parameter_File>
/export/apps/rDock/src/rDock_2013.1_src/data/scripts/dock_solv.prm

>  <Rbt.Receptor>
prm/blind_docking_100.prm

>  <SCORE>
-12.3622

>  <SCORE.INTER>
-10.7252

>  <SCORE.INTER.CONST>
1

>  <SCORE.INTER.POLAR>
0

>  <SCORE.INTER.ROT>
5

>  <SCORE.INTER.SOLV>
8.47103

>  <SCORE.INTER.VDW>
-16.9071

>  <SCORE.INTER.norm>
-1.19169

>  <SCORE.INTRA>
-1.63702

>  <SCORE.INTRA.DIHEDRAL>
-5.21228

>  <SCORE.INTRA.DIHEDRAL.0>
7.73744

>  <SCORE.INTRA.POLAR>
0

>  <SCORE.INTRA.POLAR.0>
0

>  <SCORE.INTRA.REPUL>
0

>  <SCORE.INTRA.REPUL.0>
0

>  <SCORE.INTRA.SOLV>
3.0741

>  <SCORE.INTRA.SOLV.lig_0>
-15.8342

>  <SCORE.INTRA.VDW>
-0.567931

>  <SCORE.INTRA.VDW.0>
-0.219494

>  <SCORE.INTRA.norm>
-0.181891

>  <SCORE.RESTR>
0

>  <SCORE.RESTR.CAVITY>
0

>  <SCORE.RESTR.norm>
0

>  <SCORE.SYSTEM>
0

>  <SCORE.SYSTEM.CONST>
0

>  <SCORE.SYSTEM.DIHEDRAL>
0

>  <SCORE.SYSTEM.SOLV>
0

>  <SCORE.SYSTEM.norm>
0

>  <SCORE.heavy>
9

>  <SCORE.norm>
-1.37358

>  <RMSD>
2.754

$$$$
ligand
 OpenBabel02271912143D
libRbt.so/2013.1/901 2013/11/27
  9  8  0  0  0  0  0  0  0  0999 V2000
  -47.3131   67.6150  -21.1416 C   0  0  0  0  0  0  0  0  0  0  0  0
  -47.0278   68.8096  -20.7658 O   0  0  0  0  0  0  0  0  0  0  0  0
  -48.6610   67.0768  -20.9184 C   0  0  0  0  0  0  0  0  0  0  0  0
  -46.4360   66.8571  -21.6706 O   0  0  0  0  0  0  0  0  0  0  0  0
  -48.9774   66.7067  -19.5041 C   0  0  0  0  0  0  0  0  0  0  0  0
  -48.9498   67.7823  -18.4818 C   0  0  0  0  0  0  0  0  0  0  0  0
  -50.0389   68.8302  -18.6381 C   0  0  0  0  0  0  0  0  0  0  0  0
  -49.9924   69.7994  -19.8299 C   0  0  0  0  0  0  0  0  0  0  0  0
  -50.9993   70.7368  -19.9369 N   0  0  0  0  0  0  0  0  0  0  0  0
  1  2  1  0  0  0  0
  1  3  1  0  0  0  0
  1  4  1  0  0  0  0
  3  5  1  0  0  0  0
  5  6  1  0  0  0  0
  6  7  1  0  0  0  0
  7  8  1  0  0  0  0
  8  9  1  0  0  0  0
M  END
>  <CHROM.1>
-74.12849280,61.69896081,67.24907820,-69.16164321,-179.98809255,-48.67134952
68.24282632,-20.11666061,-0.30015052,0.69516790,-0.49836031

>  <Name>
ligand

>  <RI>
0

>  <Rbt.Current_Directory>
/home/itssahil/PROJECTS/Mol_Feturizer/Test_systems_manuscript/rnas/4erj

>  <Rbt.Executable>
rbdock ($Id: //depot/dev/client3/rdock/2013.1/src/exe/rbdock.cxx#4 $)

>  <Rbt.Library>
libRbt.so (2013.1, Build901 2013/11/27)

>  <Rbt.Parameter_File>
/export/apps/rDock/src/rDock_2013.1_src/data/scripts/dock_solv.prm

>  <Rbt.Receptor>
prm/pocket_docking_7.prm

>  <SCORE>
-12.5356

>  <SCORE.INTER>
-9.84553

>  <SCORE.INTER.CONST>
1

>  <SCORE.INTER.POLAR>
0

>  <SCORE.INTER.ROT>
5

>  <SCORE.INTER.SOLV>
11.2563

>  <SCORE.INTER.VDW>
-17.2491

>  <SCORE.INTER.norm>
-1.09395

>  <SCORE.INTRA>
-2.69007

>  <SCORE.INTRA.DIHEDRAL>
-5.55439

>  <SCORE.INTRA.DIHEDRAL.0>
7.73744

>  <SCORE.INTRA.POLAR>
0

>  <SCORE.INTRA.POLAR.0>
0

>  <SCORE.INTRA.REPUL>
0

>  <SCORE.INTRA.REPUL.0>
0

>  <SCORE.INTRA.SOLV>
0.198268

>  <SCORE.INTRA.SOLV.lig_0>
-15.8342

>  <SCORE.INTRA.VDW>
-0.0120147

>  <SCORE.INTRA.VDW.0>
-0.219494

>  <SCORE.INTRA.norm>
-0.298897

>  <SCORE.RESTR>
0

>  <SCORE.RESTR.CAVITY>
0

>  <SCORE.RESTR.norm>
0

>  <SCORE.SYSTEM>
0

>  <SCORE.SYSTEM.CONST>
0

>  <SCORE.SYSTEM.DIHEDRAL>
0

>  <SCORE.SYSTEM.SOLV>
0

>  <SCORE.SYSTEM.norm>
0

>  <SCORE.heavy>
9

>  <SCORE.norm>
-1.39285

>  <RMSD>
2.792

$$$$
ligand
 OpenBabel02271912143D
libRbt.so/2013.1/901 2013/11/27
  9  8  0  0  0  0  0  0  0  0999 V2000
  -47.8327   68.3667  -21.1680 C   0  0  0  0  0  0  0  0  0  0  0  0
  -47.0829   69.1987  -20.5392 O   0  0  0  0  0  0  0  0  0  0  0  0
  -47.8928   66.9633  -20.7400 C   0  0  0  0  0  0  0  0  0  0  0  0
  -48.5018   68.7185  -22.1937 O   0  0  0  0  0  0  0  0  0  0  0  0
  -49.0705   66.6017  -19.8917 C   0  0  0  0  0  0  0  0  0  0  0  0
  -49.1167   67.1302  -18.5055 C   0  0  0  0  0  0  0  0  0  0  0  0
  -49.2992   68.6356  -18.4094 C   0  0  0  0  0  0  0  0  0  0  0  0
  -50.6019   69.2747  -18.9155 C   0  0  0  0  0  0  0  0  0  0  0  0
  -50.8818   69.1843  -20.2637 N   0  0  0  0  0  0  0  0  0  0  0  0
  1  2  1  0  0  0  0
  1  3  1  0  0  0  0
  1  4  1  0  0  0  0
  3  5  1  0  0  0  0
  5  6  1  0  0  0  0
  6  7  1  0  0  0  0
  7  8  1  0  0  0  0
  8  9  1  0  0  0  0
M  END
>  <CHROM.1>
99.13605412,-70.43469565,67.81049417,64.70921717,-64.41702201,-48.90210337
68.25052934,-20.09226548,0.48236985,0.65863378,-0.79371386

>  <Name>
ligand

>  <RI>
0

>  <Rbt.Current_Directory>
/home/itssahil/PROJECTS/Mol_Feturizer/Test_systems_manuscript/rnas/4erj

>  <Rbt.Executable>
rbdock ($Id: //depot/dev/client3/rdock/2013.1/src/exe/rbdock.cxx#4 $)

>  <Rbt.Library>
libRbt.so (2013.1, Build901 2013/11/27)

>  <Rbt.Parameter_File>
/export/apps/rDock/src/rDock_2013.1_src/data/scripts/dock_solv.prm

>  <Rbt.Receptor>
prm/pocket_docking_7.prm

>  <SCORE>
-12.271

>  <SCORE.INTER>
-10.682

>  <SCORE.INTER.CONST>
1

>  <SCORE.INTER.POLAR>
0

>  <SCORE.INTER.ROT>
5

>  <SCORE.INTER.SOLV>
8.5162

>  <SCORE.INTER.VDW>
-16.8934

>  <SCORE.INTER.norm>
-1.18689

>  <SCORE.INTRA>
-1.58899

>  <SCORE.INTRA.DIHEDRAL>
-5.10159

>  <SCORE.INTRA.DIHEDRAL.0>
7.73744

>  <SCORE.INTRA.POLAR>
0

>  <SCORE.INTRA.POLAR.0>
0

>  <SCORE.INTRA.REPUL>
0

>  <SCORE.INTRA.REPUL.0>
0

>  <SCORE.INTRA.SOLV>
3.12838

>  <SCORE.INTRA.SOLV.lig_0>
-15.8342

>  <SCORE.INTRA.VDW>
-0.602384

>  <SCORE.INTRA.VDW.0>
-0.219494

>  <SCORE.INTRA.norm>
-0.176554

>  <SCORE.RESTR>
0

>  <SCORE.RESTR.CAVITY>
0

>  <SCORE.RESTR.norm>
0

>  <SCORE.SYSTEM>
0

>  <SCORE.SYSTEM.CONST>
0

>  <SCORE.SYSTEM.DIHEDRAL>
0

>  <SCORE.SYSTEM.SOLV>
0

>  <SCORE.SYSTEM.norm>
0

>  <SCORE.heavy>
9

>  <SCORE.norm>
-1.36345

>  <RMSD>
2.812

$$$$
ligand
 OpenBabel02271912143D
libRbt.so/2013.1/901 2013/11/27
  9  8  0  0  0  0  0  0  0  0999 V2000
  -48.6269   67.0915  -21.6176 C   0  0  0  0  0  0  0  0  0  0  0  0
  -49.0605   68.1499  -22.2020 O   0  0  0  0  0  0  0  0  0  0  0  0
  -49.2832   66.6049  -20.3974 C   0  0  0  0  0  0  0  0  0  0  0  0
  -47.6025   66.4672  -22.0470 O   0  0  0  0  0  0  0  0  0  0  0  0
  -48.6838   67.0828  -19.1130 C   0  0  0  0  0  0  0  0  0  0  0  0
  -48.7329   68.5375  -18.8224 C   0  0  0  0  0  0  0  0  0  0  0  0
  -50.1331   69.0973  -18.6356 C   0  0  0  0  0  0  0  0  0  0  0  0
  -51.0186   69.3492  -19.8661 C   0  0  0  0  0  0  0  0  0  0  0  0
  -50.5832   70.2729  -20.7943 N   0  0  0  0  0  0  0  0  0  0  0  0
  1  2  1  0  0  0  0
  1  3  1  0  0  0  0
  1  4  1  0  0  0  0
  3  5  1  0  0  0  0
  5  6  1  0  0  0  0
  6  7  1  0  0  0  0
  7  8  1  0  0  0  0
  8  9  1  0  0  0  0
M  END
>  <CHROM.1>
-93.53786675,64.16964685,64.93478105,-76.70863826,-62.37758399,-49.28327488
68.06413784,-20.42242329,0.49566270,0.92101818,-1.49261346

>  <Name>
ligand

>  <RI>
0

>  <Rbt.Current_Directory>
/home/itssahil/PROJECTS/Mol_Feturizer/Test_systems_manuscript/rnas/4erj

>  <Rbt.Executable>
rbdock ($Id: //depot/dev/client3/rdock/2013.1/src/exe/rbdock.cxx#4 $)

>  <Rbt.Library>
libRbt.so (2013.1, Build901 2013/11/27)

>  <Rbt.Parameter_File>
/export/apps/rDock/src/rDock_2013.1_src/data/scripts/dock_solv.prm

>  <Rbt.Receptor>
prm/pocket_docking_4.prm

>  <SCORE>
-12.1282

>  <SCORE.INTER>
-10.3173

>  <SCORE.INTER.CONST>
1

>  <SCORE.INTER.POLAR>
0

>  <SCORE.INTER.ROT>
5

>  <SCORE.INTER.SOLV>
9.83411

>  <SCORE.INTER.VDW>
-17.0896

>  <SCORE.INTER.norm>
-1.14637

>  <SCORE.INTRA>
-1.81086

>  <SCORE.INTRA.DIHEDRAL>
-4.86131

>  <SCORE.INTRA.DIHEDRAL.0>
7.73744

>  <SCORE.INTRA.POLAR>
0

>  <SCORE.INTRA.POLAR.0>
0

>  <SCORE.INTRA.REPUL>
0

>  <SCORE.INTRA.REPUL.0>
0

>  <SCORE.INTRA.SOLV>
2.11218

>  <SCORE.INTRA.SOLV.lig_0>
-15.8342

>  <SCORE.INTRA.VDW>
-0.436296

>  <SCORE.INTRA.VDW.0>
-0.219494

>  <SCORE.INTRA.norm>
-0.201207

>  <SCORE.RESTR>
0

>  <SCORE.RESTR.CAVITY>
0

>  <SCORE.RESTR.norm>
0

>  <SCORE.SYSTEM>
0

>  <SCORE.SYSTEM.CONST>
0

>  <SCORE.SYSTEM.DIHEDRAL>
0

>  <SCORE.SYSTEM.SOLV>
0

>  <SCORE.SYSTEM.norm>
0

>  <SCORE.heavy>
9

>  <SCORE.norm>
-1.34757

>  <RMSD>
2.921

$$$$
ligand
 OpenBabel02271912143D
libRbt.so/2013.1/901 2013/11/27
  9  8  0  0  0  0  0  0  0  0999 V2000
  -48.4856   66.7913  -21.5839 C   0  0  0  0  0  0  0  0  0  0  0  0
  -49.2002   67.5565  -22.3281 O   0  0  0  0  0  0  0  0  0  0  0  0
  -48.9402   66.4505  -20.2298 C   0  0  0  0  0  0  0  0  0  0  0  0
  -47.3570   66.3482  -21.9756 O   0  0  0  0  0  0  0  0  0  0  0  0
  -48.5371   67.4120  -19.1573 C   0  0  0  0  0  0  0  0  0  0  0  0
  -49.0225   68.8109  -19.2601 C   0  0  0  0  0  0  0  0  0  0  0  0
  -50.5297   68.9663  -19.1463 C   0  0  0  0  0  0  0  0  0  0  0  0
  -51.1800   70.3164  -19.4870 C   0  0  0  0  0  0  0  0  0  0  0  0
  -51.0449   70.7888  -20.7764 N   0  0  0  0  0  0  0  0  0  0  0  0
  1  2  1  0  0  0  0
  1  3  1  0  0  0  0
  1  4  1  0  0  0  0
  3  5  1  0  0  0  0
  5  6  1  0  0  0  0
  6  7  1  0  0  0  0
  7  8  1  0  0  0  0
  8  9  1  0  0  0  0
M  END
>  <CHROM.1>
-87.65408235,61.42132466,64.78872482,-169.01467736,61.92993078,-49.34645562
68.14402901,-20.47296175,0.36831432,0.91374343,-1.56215875

>  <Name>
ligand

>  <RI>
0

>  <Rbt.Current_Directory>
/home/itssahil/PROJECTS/Mol_Feturizer/Test_systems_manuscript/rnas/4erj

>  <Rbt.Executable>
rbdock ($Id: //depot/dev/client3/rdock/2013.1/src/exe/rbdock.cxx#4 $)

>  <Rbt.Library>
libRbt.so (2013.1, Build901 2013/11/27)

>  <Rbt.Parameter_File>
/export/apps/rDock/src/rDock_2013.1_src/data/scripts/dock_solv.prm

>  <Rbt.Receptor>
prm/pocket_docking_8.prm

>  <SCORE>
-12.6299

>  <SCORE.INTER>
-9.75104

>  <SCORE.INTER.CONST>
1

>  <SCORE.INTER.POLAR>
0

>  <SCORE.INTER.ROT>
5

>  <SCORE.INTER.SOLV>
12.0176

>  <SCORE.INTER.VDW>
-17.4399

>  <SCORE.INTER.norm>
-1.08345

>  <SCORE.INTRA>
-2.87881

>  <SCORE.INTRA.DIHEDRAL>
-5.54731

>  <SCORE.INTRA.DIHEDRAL.0>
7.73744

>  <SCORE.INTRA.POLAR>
0

>  <SCORE.INTRA.POLAR.0>
0

>  <SCORE.INTRA.REPUL>
0

>  <SCORE.INTRA.REPUL.0>
0

>  <SCORE.INTRA.SOLV>
0.553016

>  <SCORE.INTRA.SOLV.lig_0>
-15.8342

>  <SCORE.INTRA.VDW>
-0.381668

>  <SCORE.INTRA.VDW.0>
-0.219494

>  <SCORE.INTRA.norm>
-0.319868

>  <SCORE.RESTR>
0

>  <SCORE.RESTR.CAVITY>
0

>  <SCORE.RESTR.norm>
0

>  <SCORE.SYSTEM>
0

>  <SCORE.SYSTEM.CONST>
0

>  <SCORE.SYSTEM.DIHEDRAL>
0

>  <SCORE.SYSTEM.SOLV>
0

>  <SCORE.SYSTEM.norm>
0

>  <SCORE.heavy>
9

>  <SCORE.norm>
-1.40332

>  <RMSD>
2.956

$$$$
ligand
 OpenBabel02271912143D
libRbt.so/2013.1/901 2013/11/27
  9  8  0  0  0  0  0  0  0  0999 V2000
  -47.3597   67.6807  -20.9113 C   0  0  0  0  0  0  0  0  0  0  0  0
  -46.4771   67.0271  -21.5773 O   0  0  0  0  0  0  0  0  0  0  0  0
  -48.6567   67.0629  -20.6071 C   0  0  0  0  0  0  0  0  0  0  0  0
  -47.1567   68.8823  -20.5392 O   0  0  0  0  0  0  0  0  0  0  0  0
  -48.9587   66.8895  -19.1525 C   0  0  0  0  0  0  0  0  0  0  0  0
  -49.0635   68.1100  -18.3143 C   0  0  0  0  0  0  0  0  0  0  0  0
  -50.2063   69.0381  -18.6905 C   0  0  0  0  0  0  0  0  0  0  0  0
  -50.1062   69.8830  -19.9702 C   0  0  0  0  0  0  0  0  0  0  0  0
  -51.1504   70.7370  -20.2610 N   0  0  0  0  0  0  0  0  0  0  0  0
  1  2  1  0  0  0  0
  1  3  1  0  0  0  0
  1  4  1  0  0  0  0
  3  5  1  0  0  0  0
  5  6  1  0  0  0  0
  6  7  1  0  0  0  0
  7  8  1  0  0  0  0
  8  9  1  0  0  0  0
M  END
>  <CHROM.1>
118.19314264,62.61870592,63.85162778,-73.28442877,-178.49899331,-48.75415243
68.36556616,-20.02077019,-0.22598337,0.67003576,-0.68779236

>  <Name>
ligand

>  <RI>
0

>  <Rbt.Current_Directory>
/home/itssahil/PROJECTS/Mol_Feturizer/Test_systems_manuscript/rnas/4erj

>  <Rbt.Executable>
rbdock ($Id: //depot/dev/client3/rdock/2013.1/src/exe/rbdock.cxx#4 $)

>  <Rbt.Library>
libRbt.so (2013.1, Build901 2013/11/27)

>  <Rbt.Parameter_File>
/export/apps/rDock/src/rDock_2013.1_src/data/scripts/dock_solv.prm

>  <Rbt.Receptor>
prm/pocket_docking_4.prm

>  <SCORE>
-12.6289

>  <SCORE.INTER>
-10.259

>  <SCORE.INTER.CONST>
1

>  <SCORE.INTER.POLAR>
0

>  <SCORE.INTER.ROT>
5

>  <SCORE.INTER.SOLV>
11.4322

>  <SCORE.INTER.VDW>
-17.5834

>  <SCORE.INTER.norm>
-1.13989

>  <SCORE.INTRA>
-2.36988

>  <SCORE.INTRA.DIHEDRAL>
-5.23181

>  <SCORE.INTRA.DIHEDRAL.0>
7.73744

>  <SCORE.INTRA.POLAR>
0

>  <SCORE.INTRA.POLAR.0>
0

>  <SCORE.INTRA.REPUL>
0

>  <SCORE.INTRA.REPUL.0>
0

>  <SCORE.INTRA.SOLV>
0.171556

>  <SCORE.INTRA.SOLV.lig_0>
-15.8342

>  <SCORE.INTRA.VDW>
0.160243

>  <SCORE.INTRA.VDW.0>
-0.219494

>  <SCORE.INTRA.norm>
-0.26332

>  <SCORE.RESTR>
0

>  <SCORE.RESTR.CAVITY>
0

>  <SCORE.RESTR.norm>
0

>  <SCORE.SYSTEM>
0

>  <SCORE.SYSTEM.CONST>
0

>  <SCORE.SYSTEM.DIHEDRAL>
0

>  <SCORE.SYSTEM.SOLV>
0

>  <SCORE.SYSTEM.norm>
0

>  <SCORE.heavy>
9

>  <SCORE.norm>
-1.40321

>  <RMSD>
2.983

$$$$
ligand
 OpenBabel02271912143D
libRbt.so/2013.1/901 2013/11/27
  9  8  0  0  0  0  0  0  0  0999 V2000
  -48.1685   67.0638  -20.9319 C   0  0  0  0  0  0  0  0  0  0  0  0
  -49.1674   66.8890  -21.7203 O   0  0  0  0  0  0  0  0  0  0  0  0
  -48.2110   66.5331  -19.5634 C   0  0  0  0  0  0  0  0  0  0  0  0
  -47.1451   67.7314  -21.2934 O   0  0  0  0  0  0  0  0  0  0  0  0
  -49.2278   67.1608  -18.6637 C   0  0  0  0  0  0  0  0  0  0  0  0
  -49.0566   68.5933  -18.3148 C   0  0  0  0  0  0  0  0  0  0  0  0
  -49.2095   69.5508  -19.4847 C   0  0  0  0  0  0  0  0  0  0  0  0
  -50.5609   69.6521  -20.2093 C   0  0  0  0  0  0  0  0  0  0  0  0
  -51.6668   70.0039  -19.4627 N   0  0  0  0  0  0  0  0  0  0  0  0
  1  2  1  0  0  0  0
  1  3  1  0  0  0  0
  1  4  1  0  0  0  0
  3  5  1  0  0  0  0
  5  6  1  0  0  0  0
  6  7  1  0  0  0  0
  7  8  1  0  0  0  0
  8  9  1  0  0  0  0
M  END
>  <CHROM.1>
-66.11238788,-65.29837047,66.16615317,63.46497287,58.22629037,-49.14141254
68.12214699,-19.99287249,0.33801551,0.78922303,-1.53020523

>  <Name>
ligand

>  <RI>
0

>  <Rbt.Current_Directory>
/home/itssahil/PROJECTS/Mol_Feturizer/Test_systems_manuscript/rnas/4erj

>  <Rbt.Executable>
rbdock ($Id: //depot/dev/client3/rdock/2013.1/src/exe/rbdock.cxx#4 $)

>  <Rbt.Library>
libRbt.so (2013.1, Build901 2013/11/27)

>  <Rbt.Parameter_File>
/export/apps/rDock/src/rDock_2013.1_src/data/scripts/dock_solv.prm

>  <Rbt.Receptor>
prm/blind_docking_100.prm

>  <SCORE>
-12.9701

>  <SCORE.INTER>
-10.4543

>  <SCORE.INTER.CONST>
1

>  <SCORE.INTER.POLAR>
0

>  <SCORE.INTER.ROT>
5

>  <SCORE.INTER.SOLV>
10.5355

>  <SCORE.INTER.VDW>
-17.4147

>  <SCORE.INTER.norm>
-1.16159

>  <SCORE.INTRA>
-2.5158

>  <SCORE.INTRA.DIHEDRAL>
-5.75757

>  <SCORE.INTRA.DIHEDRAL.0>
7.73744

>  <SCORE.INTRA.POLAR>
0

>  <SCORE.INTRA.POLAR.0>
0

>  <SCORE.INTRA.REPUL>
0

>  <SCORE.INTRA.REPUL.0>
0

>  <SCORE.INTRA.SOLV>
1.0853

>  <SCORE.INTRA.SOLV.lig_0>
-15.8342

>  <SCORE.INTRA.VDW>
-0.179664

>  <SCORE.INTRA.VDW.0>
-0.219494

>  <SCORE.INTRA.norm>
-0.279533

>  <SCORE.RESTR>
0

>  <SCORE.RESTR.CAVITY>
0

>  <SCORE.RESTR.norm>
0

>  <SCORE.SYSTEM>
0

>  <SCORE.SYSTEM.CONST>
0

>  <SCORE.SYSTEM.DIHEDRAL>
0

>  <SCORE.SYSTEM.SOLV>
0

>  <SCORE.SYSTEM.norm>
0

>  <SCORE.heavy>
9

>  <SCORE.norm>
-1.44112

>  <RMSD>
3.119

$$$$
ligand
 OpenBabel02271912143D
libRbt.so/2013.1/901 2013/11/27
  9  8  0  0  0  0  0  0  0  0999 V2000
  -48.7056   66.7823  -19.6084 C   0  0  0  0  0  0  0  0  0  0  0  0
  -48.8821   66.7277  -18.3373 O   0  0  0  0  0  0  0  0  0  0  0  0
  -47.7445   67.7363  -20.1763 C   0  0  0  0  0  0  0  0  0  0  0  0
  -49.3813   66.0530  -20.4054 O   0  0  0  0  0  0  0  0  0  0  0  0
  -48.3452   68.8727  -20.9414 C   0  0  0  0  0  0  0  0  0  0  0  0
  -49.2493   69.7986  -20.2145 C   0  0  0  0  0  0  0  0  0  0  0  0
  -50.5864   69.1950  -19.8193 C   0  0  0  0  0  0  0  0  0  0  0  0
  -51.6017   70.0464  -19.0407 C   0  0  0  0  0  0  0  0  0  0  0  0
  -52.8023   69.4606  -18.6950 N   0  0  0  0  0  0  0  0  0  0  0  0
  1  2  1  0  0  0  0
  1  3  1  0  0  0  0
  1  4  1  0  0  0  0
  3  5  1  0  0  0  0
  5  6  1  0  0  0  0
  6  7  1  0  0  0  0
  7  8  1  0  0  0  0
  8  9  1  0  0  0  0
M  END
>  <CHROM.1>
-110.10020806,61.30732360,-69.91891463,178.98668952,-179.72368490,-49.69748021
68.26190567,-19.68472643,0.55231299,-0.46748943,2.79531866

>  <Name>
ligand

>  <RI>
0

>  <Rbt.Current_Directory>
/home/itssahil/PROJECTS/Mol_Feturizer/Test_systems_manuscript/rnas/4erj

>  <Rbt.Executable>
rbdock ($Id: //depot/dev/client3/rdock/2013.1/src/exe/rbdock.cxx#4 $)

>  <Rbt.Library>
libRbt.so (2013.1, Build901 2013/11/27)

>  <Rbt.Parameter_File>
/export/apps/rDock/src/rDock_2013.1_src/data/scripts/dock_solv.prm

>  <Rbt.Receptor>
prm/blind_docking_100.prm

>  <SCORE>
-11.3653

>  <SCORE.INTER>
-8.23247

>  <SCORE.INTER.CONST>
1

>  <SCORE.INTER.POLAR>
0

>  <SCORE.INTER.ROT>
5

>  <SCORE.INTER.SOLV>
12.3547

>  <SCORE.INTER.VDW>
-16.5399

>  <SCORE.INTER.norm>
-0.914719

>  <SCORE.INTRA>
-3.13281

>  <SCORE.INTRA.DIHEDRAL>
-5.68674

>  <SCORE.INTRA.DIHEDRAL.0>
7.73744

>  <SCORE.INTRA.POLAR>
0

>  <SCORE.INTRA.POLAR.0>
0

>  <SCORE.INTRA.REPUL>
0

>  <SCORE.INTRA.REPUL.0>
0

>  <SCORE.INTRA.SOLV>
-0.139394

>  <SCORE.INTRA.SOLV.lig_0>
-15.8342

>  <SCORE.INTRA.VDW>
-0.219741

>  <SCORE.INTRA.VDW.0>
-0.219494

>  <SCORE.INTRA.norm>
-0.34809

>  <SCORE.RESTR>
0

>  <SCORE.RESTR.CAVITY>
0

>  <SCORE.RESTR.norm>
0

>  <SCORE.SYSTEM>
0

>  <SCORE.SYSTEM.CONST>
0

>  <SCORE.SYSTEM.DIHEDRAL>
0

>  <SCORE.SYSTEM.SOLV>
0

>  <SCORE.SYSTEM.norm>
0

>  <SCORE.heavy>
9

>  <SCORE.norm>
-1.26281

>  <RMSD>
3.923

$$$$
ligand
 OpenBabel02271912143D
libRbt.so/2013.1/901 2013/11/27
  9  8  0  0  0  0  0  0  0  0999 V2000
  -48.4965   66.9261  -19.7886 C   0  0  0  0  0  0  0  0  0  0  0  0
  -47.4573   67.6176  -20.0915 O   0  0  0  0  0  0  0  0  0  0  0  0
  -49.0479   66.9858  -18.4289 C   0  0  0  0  0  0  0  0  0  0  0  0
  -49.0447   66.1451  -20.6330 O   0  0  0  0  0  0  0  0  0  0  0  0
  -49.3579   68.3587  -17.9226 C   0  0  0  0  0  0  0  0  0  0  0  0
  -50.4219   69.1299  -18.6128 C   0  0  0  0  0  0  0  0  0  0  0  0
  -50.0841   69.5364  -20.0373 C   0  0  0  0  0  0  0  0  0  0  0  0
  -50.9800   70.5480  -20.7692 C   0  0  0  0  0  0  0  0  0  0  0  0
  -51.0061   71.8444  -20.2970 N   0  0  0  0  0  0  0  0  0  0  0  0
  1  2  1  0  0  0  0
  1  3  1  0  0  0  0
  1  4  1  0  0  0  0
  3  5  1  0  0  0  0
  5  6  1  0  0  0  0
  6  7  1  0  0  0  0
  7  8  1  0  0  0  0
  8  9  1  0  0  0  0
M  END
>  <CHROM.1>
53.88680684,64.73112963,-67.13111649,-168.87617029,66.75948025,-49.52047509
68.53919927,-19.64020080,-0.30566452,1.02349705,-1.34319258

>  <Name>
ligand

>  <RI>
0

>  <Rbt.Current_Directory>
/home/itssahil/PROJECTS/Mol_Feturizer/Test_systems_manuscript/rnas/4erj

>  <Rbt.Executable>
rbdock ($Id: //depot/dev/client3/rdock/2013.1/src/exe/rbdock.cxx#4 $)

>  <Rbt.Library>
libRbt.so (2013.1, Build901 2013/11/27)

>  <Rbt.Parameter_File>
/export/apps/rDock/src/rDock_2013.1_src/data/scripts/dock_solv.prm

>  <Rbt.Receptor>
prm/blind_docking_100.prm

>  <SCORE>
-13.6705

>  <SCORE.INTER>
-11.2751

>  <SCORE.INTER.CONST>
1

>  <SCORE.INTER.POLAR>
0

>  <SCORE.INTER.ROT>
5

>  <SCORE.INTER.SOLV>
14.5125

>  <SCORE.INTER.VDW>
-19.2876

>  <SCORE.INTER.norm>
-1.25279

>  <SCORE.INTRA>
-2.39534

>  <SCORE.INTRA.DIHEDRAL>
-5.11495

>  <SCORE.INTRA.DIHEDRAL.0>
7.73744

>  <SCORE.INTRA.POLAR>
0

>  <SCORE.INTRA.POLAR.0>
0

>  <SCORE.INTRA.REPUL>
0

>  <SCORE.INTRA.REPUL.0>
0

>  <SCORE.INTRA.SOLV>
0.500288

>  <SCORE.INTRA.SOLV.lig_0>
-15.8342

>  <SCORE.INTRA.VDW>
-0.0880108

>  <SCORE.INTRA.VDW.0>
-0.219494

>  <SCORE.INTRA.norm>
-0.266149

>  <SCORE.RESTR>
0

>  <SCORE.RESTR.CAVITY>
0

>  <SCORE.RESTR.norm>
0

>  <SCORE.SYSTEM>
0

>  <SCORE.SYSTEM.CONST>
0

>  <SCORE.SYSTEM.DIHEDRAL>
0

>  <SCORE.SYSTEM.SOLV>
0

>  <SCORE.SYSTEM.norm>
0

>  <SCORE.heavy>
9

>  <SCORE.norm>
-1.51894

>  <RMSD>
4.158

$$$$
ligand
 OpenBabel02271912143D
libRbt.so/2013.1/901 2013/11/27
  9  8  0  0  0  0  0  0  0  0999 V2000
  -50.0074   69.9054  -19.9706 C   0  0  0  0  0  0  0  0  0  0  0  0
  -50.7624   70.1045  -20.9905 O   0  0  0  0  0  0  0  0  0  0  0  0
  -50.5184   69.1609  -18.8125 C   0  0  0  0  0  0  0  0  0  0  0  0
  -48.8259   70.3792  -19.9154 O   0  0  0  0  0  0  0  0  0  0  0  0
  -49.5020   68.3512  -18.0717 C   0  0  0  0  0  0  0  0  0  0  0  0
  -49.0864   67.0527  -18.6584 C   0  0  0  0  0  0  0  0  0  0  0  0
  -48.1390   67.1683  -19.8406 C   0  0  0  0  0  0  0  0  0  0  0  0
  -48.7034   67.4752  -21.2367 C   0  0  0  0  0  0  0  0  0  0  0  0
  -47.8078   67.6090  -22.2779 N   0  0  0  0  0  0  0  0  0  0  0  0
  1  2  1  0  0  0  0
  1  3  1  0  0  0  0
  1  4  1  0  0  0  0
  3  5  1  0  0  0  0
  5  6  1  0  0  0  0
  6  7  1  0  0  0  0
  7  8  1  0  0  0  0
  8  9  1  0  0  0  0
M  END
>  <CHROM.1>
147.82305528,-77.98573608,75.78590801,-81.03326511,178.24115793,-49.26628919
68.60898324,-19.98936079,3.13098560,-0.96725761,2.05938334

>  <Name>
ligand

>  <RI>
0

>  <Rbt.Current_Directory>
/home/itssahil/PROJECTS/Mol_Feturizer/Test_systems_manuscript/rnas/4erj

>  <Rbt.Executable>
rbdock ($Id: //depot/dev/client3/rdock/2013.1/src/exe/rbdock.cxx#4 $)

>  <Rbt.Library>
libRbt.so (2013.1, Build901 2013/11/27)

>  <Rbt.Parameter_File>
/export/apps/rDock/src/rDock_2013.1_src/data/scripts/dock_solv.prm

>  <Rbt.Receptor>
prm/pocket_docking_5.prm

>  <SCORE>
-12.954

>  <SCORE.INTER>
-11.8692

>  <SCORE.INTER.CONST>
1

>  <SCORE.INTER.POLAR>
0

>  <SCORE.INTER.ROT>
5

>  <SCORE.INTER.SOLV>
7.21944

>  <SCORE.INTER.VDW>
-17.2526

>  <SCORE.INTER.norm>
-1.3188

>  <SCORE.INTRA>
-1.08478

>  <SCORE.INTRA.DIHEDRAL>
-2.22275

>  <SCORE.INTRA.DIHEDRAL.0>
7.73744

>  <SCORE.INTRA.POLAR>
0

>  <SCORE.INTRA.POLAR.0>
0

>  <SCORE.INTRA.REPUL>
0

>  <SCORE.INTRA.REPUL.0>
0

>  <SCORE.INTRA.SOLV>
0.181645

>  <SCORE.INTRA.SOLV.lig_0>
-15.8342

>  <SCORE.INTRA.VDW>
-0.0642323

>  <SCORE.INTRA.VDW.0>
-0.219494

>  <SCORE.INTRA.norm>
-0.120531

>  <SCORE.RESTR>
0

>  <SCORE.RESTR.CAVITY>
0

>  <SCORE.RESTR.norm>
0

>  <SCORE.SYSTEM>
0

>  <SCORE.SYSTEM.CONST>
0

>  <SCORE.SYSTEM.DIHEDRAL>
0

>  <SCORE.SYSTEM.SOLV>
0

>  <SCORE.SYSTEM.norm>
0

>  <SCORE.heavy>
9

>  <SCORE.norm>
-1.43934

>  <RMSD>
4.807

$$$$
ligand
 OpenBabel02271912143D
libRbt.so/2013.1/901 2013/11/27
  9  8  0  0  0  0  0  0  0  0999 V2000
  -50.0542   69.9522  -19.9986 C   0  0  0  0  0  0  0  0  0  0  0  0
  -50.8578   70.1588  -20.9791 O   0  0  0  0  0  0  0  0  0  0  0  0
  -50.5016   69.1803  -18.8322 C   0  0  0  0  0  0  0  0  0  0  0  0
  -48.8777   70.4414  -19.9888 O   0  0  0  0  0  0  0  0  0  0  0  0
  -49.4443   68.3627  -18.1607 C   0  0  0  0  0  0  0  0  0  0  0  0
  -49.0513   67.0794  -18.7944 C   0  0  0  0  0  0  0  0  0  0  0  0
  -48.1167   67.2226  -19.9838 C   0  0  0  0  0  0  0  0  0  0  0  0
  -48.6948   67.5744  -21.3636 C   0  0  0  0  0  0  0  0  0  0  0  0
  -47.8090   67.7472  -22.4076 N   0  0  0  0  0  0  0  0  0  0  0  0
  1  2  1  0  0  0  0
  1  3  1  0  0  0  0
  1  4  1  0  0  0  0
  3  5  1  0  0  0  0
  5  6  1  0  0  0  0
  6  7  1  0  0  0  0
  7  8  1  0  0  0  0
  8  9  1  0  0  0  0
M  END
>  <CHROM.1>
147.32211363,-78.00834466,78.32218623,-81.34773865,177.51734361,-49.27382690
68.66611344,-20.07023575,3.09344641,-0.95215825,2.04980724

>  <Name>
ligand

>  <RI>
0

>  <Rbt.Current_Directory>
/home/itssahil/PROJECTS/Mol_Feturizer/Test_systems_manuscript/rnas/4erj

>  <Rbt.Executable>
rbdock ($Id: //depot/dev/client3/rdock/2013.1/src/exe/rbdock.cxx#4 $)

>  <Rbt.Library>
libRbt.so (2013.1, Build901 2013/11/27)

>  <Rbt.Parameter_File>
/export/apps/rDock/src/rDock_2013.1_src/data/scripts/dock_solv.prm

>  <Rbt.Receptor>
prm/blind_docking_100.prm

>  <SCORE>
-12.9934

>  <SCORE.INTER>
-11.9635

>  <SCORE.INTER.CONST>
1

>  <SCORE.INTER.POLAR>
0

>  <SCORE.INTER.ROT>
5

>  <SCORE.INTER.SOLV>
7.0086

>  <SCORE.INTER.VDW>
-17.2452

>  <SCORE.INTER.norm>
-1.32927

>  <SCORE.INTRA>
-1.02992

>  <SCORE.INTRA.DIHEDRAL>
-1.84632

>  <SCORE.INTRA.DIHEDRAL.0>
7.73744

>  <SCORE.INTRA.POLAR>
0

>  <SCORE.INTRA.POLAR.0>
0

>  <SCORE.INTRA.REPUL>
0

>  <SCORE.INTRA.REPUL.0>
0

>  <SCORE.INTRA.SOLV>
0.140401

>  <SCORE.INTRA.SOLV.lig_0>
-15.8342

>  <SCORE.INTRA.VDW>
-0.176962

>  <SCORE.INTRA.VDW.0>
-0.219494

>  <SCORE.INTRA.norm>
-0.114436

>  <SCORE.RESTR>
0

>  <SCORE.RESTR.CAVITY>
0

>  <SCORE.RESTR.norm>
0

>  <SCORE.SYSTEM>
0

>  <SCORE.SYSTEM.CONST>
0

>  <SCORE.SYSTEM.DIHEDRAL>
0

>  <SCORE.SYSTEM.SOLV>
0

>  <SCORE.SYSTEM.norm>
0

>  <SCORE.heavy>
9

>  <SCORE.norm>
-1.44371

>  <RMSD>
4.817

$$$$
ligand
 OpenBabel02271912143D
libRbt.so/2013.1/901 2013/11/27
  9  8  0  0  0  0  0  0  0  0999 V2000
  -50.0835   69.9648  -19.9812 C   0  0  0  0  0  0  0  0  0  0  0  0
  -48.8932   70.4474  -19.9982 O   0  0  0  0  0  0  0  0  0  0  0  0
  -50.5354   69.1646  -18.8358 C   0  0  0  0  0  0  0  0  0  0  0  0
  -50.8801   70.1255  -20.9626 O   0  0  0  0  0  0  0  0  0  0  0  0
  -49.4740   68.3560  -18.1600 C   0  0  0  0  0  0  0  0  0  0  0  0
  -49.0638   67.0787  -18.7949 C   0  0  0  0  0  0  0  0  0  0  0  0
  -48.1177   67.2346  -19.9736 C   0  0  0  0  0  0  0  0  0  0  0  0
  -48.6823   67.6019  -21.3549 C   0  0  0  0  0  0  0  0  0  0  0  0
  -47.7884   67.7616  -22.3939 N   0  0  0  0  0  0  0  0  0  0  0  0
  1  2  1  0  0  0  0
  1  3  1  0  0  0  0
  1  4  1  0  0  0  0
  3  5  1  0  0  0  0
  5  6  1  0  0  0  0
  6  7  1  0  0  0  0
  7  8  1  0  0  0  0
  8  9  1  0  0  0  0
M  END
>  <CHROM.1>
-32.07858341,-79.14351781,78.61769133,-80.72142379,178.68528448,-49.28610948
68.66724857,-20.06452555,3.09678657,-0.93746947,2.06807001

>  <Name>
ligand

>  <RI>
0

>  <Rbt.Current_Directory>
/home/itssahil/PROJECTS/Mol_Feturizer/Test_systems_manuscript/rnas/4erj

>  <Rbt.Executable>
rbdock ($Id: //depot/dev/client3/rdock/2013.1/src/exe/rbdock.cxx#4 $)

>  <Rbt.Library>
libRbt.so (2013.1, Build901 2013/11/27)

>  <Rbt.Parameter_File>
/export/apps/rDock/src/rDock_2013.1_src/data/scripts/dock_solv.prm

>  <Rbt.Receptor>
prm/pocket_docking_8.prm

>  <SCORE>
-12.9557

>  <SCORE.INTER>
-11.9818

>  <SCORE.INTER.CONST>
1

>  <SCORE.INTER.POLAR>
0

>  <SCORE.INTER.ROT>
5

>  <SCORE.INTER.SOLV>
6.92375

>  <SCORE.INTER.VDW>
-17.2291

>  <SCORE.INTER.norm>
-1.33131

>  <SCORE.INTRA>
-0.973896

>  <SCORE.INTRA.DIHEDRAL>
-1.56537

>  <SCORE.INTRA.DIHEDRAL.0>
7.73744

>  <SCORE.INTRA.POLAR>
0

>  <SCORE.INTRA.POLAR.0>
0

>  <SCORE.INTRA.REPUL>
0

>  <SCORE.INTRA.REPUL.0>
0

>  <SCORE.INTRA.SOLV>
0.125316

>  <SCORE.INTRA.SOLV.lig_0>
-15.8342

>  <SCORE.INTRA.VDW>
-0.25387

>  <SCORE.INTRA.VDW.0>
-0.219494

>  <SCORE.INTRA.norm>
-0.108211

>  <SCORE.RESTR>
0

>  <SCORE.RESTR.CAVITY>
0

>  <SCORE.RESTR.norm>
0

>  <SCORE.SYSTEM>
0

>  <SCORE.SYSTEM.CONST>
0

>  <SCORE.SYSTEM.DIHEDRAL>
0

>  <SCORE.SYSTEM.SOLV>
0

>  <SCORE.SYSTEM.norm>
0

>  <SCORE.heavy>
9

>  <SCORE.norm>
-1.43952

>  <RMSD>
4.827

$$$$
ligand
 OpenBabel02271912143D
libRbt.so/2013.1/901 2013/11/27
  9  8  0  0  0  0  0  0  0  0999 V2000
  -50.1220   69.8471  -19.9416 C   0  0  0  0  0  0  0  0  0  0  0  0
  -48.9835   70.4392  -19.9983 O   0  0  0  0  0  0  0  0  0  0  0  0
  -50.5309   69.1576  -18.7113 C   0  0  0  0  0  0  0  0  0  0  0  0
  -50.8992   69.8026  -20.9503 O   0  0  0  0  0  0  0  0  0  0  0  0
  -49.4593   68.3622  -18.0357 C   0  0  0  0  0  0  0  0  0  0  0  0
  -49.0832   67.0561  -18.6320 C   0  0  0  0  0  0  0  0  0  0  0  0
  -48.1390   67.1521  -19.8186 C   0  0  0  0  0  0  0  0  0  0  0  0
  -48.6964   67.5209  -21.2025 C   0  0  0  0  0  0  0  0  0  0  0  0
  -47.8024   67.6323  -22.2477 N   0  0  0  0  0  0  0  0  0  0  0  0
  1  2  1  0  0  0  0
  1  3  1  0  0  0  0
  1  4  1  0  0  0  0
  3  5  1  0  0  0  0
  5  6  1  0  0  0  0
  6  7  1  0  0  0  0
  7  8  1  0  0  0  0
  8  9  1  0  0  0  0
M  END
>  <CHROM.1>
-41.67346034,-75.89783168,80.28218743,-79.35184450,178.34089786,-49.30880444
68.58030475,-19.96459423,3.02558661,-0.93313696,2.00902209

>  <Name>
ligand

>  <RI>
0

>  <Rbt.Current_Directory>
/home/itssahil/PROJECTS/Mol_Feturizer/Test_systems_manuscript/rnas/4erj

>  <Rbt.Executable>
rbdock ($Id: //depot/dev/client3/rdock/2013.1/src/exe/rbdock.cxx#4 $)

>  <Rbt.Library>
libRbt.so (2013.1, Build901 2013/11/27)

>  <Rbt.Parameter_File>
/export/apps/rDock/src/rDock_2013.1_src/data/scripts/dock_solv.prm

>  <Rbt.Receptor>
prm/pocket_docking_5.prm

>  <SCORE>
-12.828

>  <SCORE.INTER>
-11.6842

>  <SCORE.INTER.CONST>
1

>  <SCORE.INTER.POLAR>
0

>  <SCORE.INTER.ROT>
5

>  <SCORE.INTER.SOLV>
7.11481

>  <SCORE.INTER.VDW>
-17.0944

>  <SCORE.INTER.norm>
-1.29824

>  <SCORE.INTRA>
-1.14387

>  <SCORE.INTRA.DIHEDRAL>
-1.95757

>  <SCORE.INTRA.DIHEDRAL.0>
7.73744

>  <SCORE.INTRA.POLAR>
0

>  <SCORE.INTRA.POLAR.0>
0

>  <SCORE.INTRA.REPUL>
0

>  <SCORE.INTRA.REPUL.0>
0

>  <SCORE.INTRA.SOLV>
0.149561

>  <SCORE.INTRA.SOLV.lig_0>
-15.8342

>  <SCORE.INTRA.VDW>
-0.239864

>  <SCORE.INTRA.VDW.0>
-0.219494

>  <SCORE.INTRA.norm>
-0.127097

>  <SCORE.RESTR>
0

>  <SCORE.RESTR.CAVITY>
0

>  <SCORE.RESTR.norm>
0

>  <SCORE.SYSTEM>
0

>  <SCORE.SYSTEM.CONST>
0

>  <SCORE.SYSTEM.DIHEDRAL>
0

>  <SCORE.SYSTEM.SOLV>
0

>  <SCORE.SYSTEM.norm>
0

>  <SCORE.heavy>
9

>  <SCORE.norm>
-1.42534

>  <RMSD>
4.839

$$$$
ligand
 OpenBabel02271912143D
libRbt.so/2013.1/901 2013/11/27
  9  8  0  0  0  0  0  0  0  0999 V2000
  -50.0781   69.8965  -19.9325 C   0  0  0  0  0  0  0  0  0  0  0  0
  -50.8661   70.1148  -20.9231 O   0  0  0  0  0  0  0  0  0  0  0  0
  -50.5498   69.1269  -18.7742 C   0  0  0  0  0  0  0  0  0  0  0  0
  -48.8963   70.3722  -19.9057 O   0  0  0  0  0  0  0  0  0  0  0  0
  -49.4987   68.3431  -18.0543 C   0  0  0  0  0  0  0  0  0  0  0  0
  -49.0779   67.0451  -18.6385 C   0  0  0  0  0  0  0  0  0  0  0  0
  -48.1375   67.1624  -19.8262 C   0  0  0  0  0  0  0  0  0  0  0  0
  -48.7063   67.5052  -21.2121 C   0  0  0  0  0  0  0  0  0  0  0  0
  -47.8127   67.6838  -22.2483 N   0  0  0  0  0  0  0  0  0  0  0  0
  1  2  1  0  0  0  0
  1  3  1  0  0  0  0
  1  4  1  0  0  0  0
  3  5  1  0  0  0  0
  5  6  1  0  0  0  0
  6  7  1  0  0  0  0
  7  8  1  0  0  0  0
  8  9  1  0  0  0  0
M  END
>  <CHROM.1>
149.91225035,-79.62716316,77.33499849,-79.08039358,176.09496213,-49.29749377
68.61392837,-19.96038909,-3.13436193,-0.94037668,2.05155237

>  <Name>
ligand

>  <RI>
0

>  <Rbt.Current_Directory>
/home/itssahil/PROJECTS/Mol_Feturizer/Test_systems_manuscript/rnas/4erj

>  <Rbt.Executable>
rbdock ($Id: //depot/dev/client3/rdock/2013.1/src/exe/rbdock.cxx#4 $)

>  <Rbt.Library>
libRbt.so (2013.1, Build901 2013/11/27)

>  <Rbt.Parameter_File>
/export/apps/rDock/src/rDock_2013.1_src/data/scripts/dock_solv.prm

>  <Rbt.Receptor>
prm/pocket_docking_6.prm

>  <SCORE>
-12.9357

>  <SCORE.INTER>
-11.9915

>  <SCORE.INTER.CONST>
1

>  <SCORE.INTER.POLAR>
0

>  <SCORE.INTER.ROT>
5

>  <SCORE.INTER.SOLV>
7.00583

>  <SCORE.INTER.VDW>
-17.2629

>  <SCORE.INTER.norm>
-1.33239

>  <SCORE.INTRA>
-0.944185

>  <SCORE.INTRA.DIHEDRAL>
-2.04136

>  <SCORE.INTRA.DIHEDRAL.0>
7.73744

>  <SCORE.INTRA.POLAR>
0

>  <SCORE.INTRA.POLAR.0>
0

>  <SCORE.INTRA.REPUL>
0

>  <SCORE.INTRA.REPUL.0>
0

>  <SCORE.INTRA.SOLV>
0.249272

>  <SCORE.INTRA.SOLV.lig_0>
-15.8342

>  <SCORE.INTRA.VDW>
-0.0481432

>  <SCORE.INTRA.VDW.0>
-0.219494

>  <SCORE.INTRA.norm>
-0.104909

>  <SCORE.RESTR>
0

>  <SCORE.RESTR.CAVITY>
0

>  <SCORE.RESTR.norm>
0

>  <SCORE.SYSTEM>
0

>  <SCORE.SYSTEM.CONST>
0

>  <SCORE.SYSTEM.DIHEDRAL>
0

>  <SCORE.SYSTEM.SOLV>
0

>  <SCORE.SYSTEM.norm>
0

>  <SCORE.heavy>
9

>  <SCORE.norm>
-1.4373

>  <RMSD>
4.839

$$$$
ligand
 OpenBabel02271912143D
libRbt.so/2013.1/901 2013/11/27
  9  8  0  0  0  0  0  0  0  0999 V2000
  -50.0259   69.7796  -19.8852 C   0  0  0  0  0  0  0  0  0  0  0  0
  -49.0219   70.5566  -20.0809 O   0  0  0  0  0  0  0  0  0  0  0  0
  -50.1602   69.0592  -18.6127 C   0  0  0  0  0  0  0  0  0  0  0  0
  -50.8980   69.5790  -20.7922 O   0  0  0  0  0  0  0  0  0  0  0  0
  -49.0449   68.1166  -18.2889 C   0  0  0  0  0  0  0  0  0  0  0  0
  -48.9778   66.8365  -19.0372 C   0  0  0  0  0  0  0  0  0  0  0  0
  -48.8270   66.9914  -20.5412 C   0  0  0  0  0  0  0  0  0  0  0  0
  -47.5661   67.6598  -21.1114 C   0  0  0  0  0  0  0  0  0  0  0  0
  -47.4846   67.8188  -22.4797 N   0  0  0  0  0  0  0  0  0  0  0  0
  1  2  1  0  0  0  0
  1  3  1  0  0  0  0
  1  4  1  0  0  0  0
  3  5  1  0  0  0  0
  5  6  1  0  0  0  0
  6  7  1  0  0  0  0
  7  8  1  0  0  0  0
  8  9  1  0  0  0  0
M  END
>  <CHROM.1>
-60.68215422,-74.11842038,60.22994064,63.28234234,-178.06627173,-49.12380264
68.51703160,-20.10564314,3.12613449,-0.91141539,2.26144894

>  <Name>
ligand

>  <RI>
0

>  <Rbt.Current_Directory>
/home/itssahil/PROJECTS/Mol_Feturizer/Test_systems_manuscript/rnas/4erj

>  <Rbt.Executable>
rbdock ($Id: //depot/dev/client3/rdock/2013.1/src/exe/rbdock.cxx#4 $)

>  <Rbt.Library>
libRbt.so (2013.1, Build901 2013/11/27)

>  <Rbt.Parameter_File>
/export/apps/rDock/src/rDock_2013.1_src/data/scripts/dock_solv.prm

>  <Rbt.Receptor>
prm/pocket_docking_4.prm

>  <SCORE>
-13.5023

>  <SCORE.INTER>
-10.7494

>  <SCORE.INTER.CONST>
1

>  <SCORE.INTER.POLAR>
0

>  <SCORE.INTER.ROT>
5

>  <SCORE.INTER.SOLV>
6.83025

>  <SCORE.INTER.VDW>
-16.3763

>  <SCORE.INTER.norm>
-1.19437

>  <SCORE.INTRA>
-2.75296

>  <SCORE.INTRA.DIHEDRAL>
-5.20891

>  <SCORE.INTRA.DIHEDRAL.0>
7.73744

>  <SCORE.INTRA.POLAR>
0

>  <SCORE.INTRA.POLAR.0>
0

>  <SCORE.INTRA.REPUL>
0

>  <SCORE.INTRA.REPUL.0>
0

>  <SCORE.INTRA.SOLV>
0.0773523

>  <SCORE.INTRA.SOLV.lig_0>
-15.8342

>  <SCORE.INTRA.VDW>
-0.187182

>  <SCORE.INTRA.VDW.0>
-0.219494

>  <SCORE.INTRA.norm>
-0.305884

>  <SCORE.RESTR>
0

>  <SCORE.RESTR.CAVITY>
0

>  <SCORE.RESTR.norm>
0

>  <SCORE.SYSTEM>
0

>  <SCORE.SYSTEM.CONST>
0

>  <SCORE.SYSTEM.DIHEDRAL>
0

>  <SCORE.SYSTEM.SOLV>
0

>  <SCORE.SYSTEM.norm>
0

>  <SCORE.heavy>
9

>  <SCORE.norm>
-1.50026

>  <RMSD>
4.842

$$$$
ligand
 OpenBabel02271912143D
libRbt.so/2013.1/901 2013/11/27
  9  8  0  0  0  0  0  0  0  0999 V2000
  -50.0124   69.6796  -19.7288 C   0  0  0  0  0  0  0  0  0  0  0  0
  -51.1610   69.7312  -20.3014 O   0  0  0  0  0  0  0  0  0  0  0  0
  -49.7972   68.7724  -18.5943 C   0  0  0  0  0  0  0  0  0  0  0  0
  -49.0532   70.4349  -20.0934 O   0  0  0  0  0  0  0  0  0  0  0  0
  -48.7828   67.6960  -18.8177 C   0  0  0  0  0  0  0  0  0  0  0  0
  -49.0807   66.6621  -19.8401 C   0  0  0  0  0  0  0  0  0  0  0  0
  -48.9138   67.1280  -21.2766 C   0  0  0  0  0  0  0  0  0  0  0  0
  -47.5042   67.3941  -21.8280 C   0  0  0  0  0  0  0  0  0  0  0  0
  -46.7812   68.4304  -21.2735 N   0  0  0  0  0  0  0  0  0  0  0  0
  1  2  1  0  0  0  0
  1  3  1  0  0  0  0
  1  4  1  0  0  0  0
  3  5  1  0  0  0  0
  5  6  1  0  0  0  0
  6  7  1  0  0  0  0
  7  8  1  0  0  0  0
  8  9  1  0  0  0  0
M  END
>  <CHROM.1>
116.93727361,-65.44858238,75.62692658,70.63404870,-65.26186574,-49.02797961
68.46766821,-20.20210504,-2.70163752,-0.71864233,2.80018321

>  <Name>
ligand

>  <RI>
0

>  <Rbt.Current_Directory>
/home/itssahil/PROJECTS/Mol_Feturizer/Test_systems_manuscript/rnas/4erj

>  <Rbt.Executable>
rbdock ($Id: //depot/dev/client3/rdock/2013.1/src/exe/rbdock.cxx#4 $)

>  <Rbt.Library>
libRbt.so (2013.1, Build901 2013/11/27)

>  <Rbt.Parameter_File>
/export/apps/rDock/src/rDock_2013.1_src/data/scripts/dock_solv.prm

>  <Rbt.Receptor>
prm/pocket_docking_3.prm

>  <SCORE>
-11.6663

>  <SCORE.INTER>
-10.0423

>  <SCORE.INTER.CONST>
1

>  <SCORE.INTER.POLAR>
0

>  <SCORE.INTER.ROT>
5

>  <SCORE.INTER.SOLV>
8.73815

>  <SCORE.INTER.VDW>
-16.5409

>  <SCORE.INTER.norm>
-1.11581

>  <SCORE.INTRA>
-1.62394

>  <SCORE.INTRA.DIHEDRAL>
-4.37702

>  <SCORE.INTRA.DIHEDRAL.0>
7.73744

>  <SCORE.INTRA.POLAR>
0

>  <SCORE.INTRA.POLAR.0>
0

>  <SCORE.INTRA.REPUL>
0

>  <SCORE.INTRA.REPUL.0>
0

>  <SCORE.INTRA.SOLV>
2.43416

>  <SCORE.INTRA.SOLV.lig_0>
-15.8342

>  <SCORE.INTRA.VDW>
-0.652514

>  <SCORE.INTRA.VDW.0>
-0.219494

>  <SCORE.INTRA.norm>
-0.180438

>  <SCORE.RESTR>
0

>  <SCORE.RESTR.CAVITY>
0

>  <SCORE.RESTR.norm>
0

>  <SCORE.SYSTEM>
0

>  <SCORE.SYSTEM.CONST>
0

>  <SCORE.SYSTEM.DIHEDRAL>
0

>  <SCORE.SYSTEM.SOLV>
0

>  <SCORE.SYSTEM.norm>
0

>  <SCORE.heavy>
9

>  <SCORE.norm>
-1.29625

>  <RMSD>
4.844

$$$$
ligand
 OpenBabel02271912143D
libRbt.so/2013.1/901 2013/11/27
  9  8  0  0  0  0  0  0  0  0999 V2000
  -49.6446   69.6344  -19.4627 C   0  0  0  0  0  0  0  0  0  0  0  0
  -48.8870   70.4615  -20.0886 O   0  0  0  0  0  0  0  0  0  0  0  0
  -49.0994   68.8235  -18.3666 C   0  0  0  0  0  0  0  0  0  0  0  0
  -50.8617   69.4626  -19.7986 O   0  0  0  0  0  0  0  0  0  0  0  0
  -49.2848   67.3461  -18.5085 C   0  0  0  0  0  0  0  0  0  0  0  0
  -48.3486   66.6104  -19.3948 C   0  0  0  0  0  0  0  0  0  0  0  0
  -48.4889   66.9374  -20.8719 C   0  0  0  0  0  0  0  0  0  0  0  0
  -47.6704   68.0906  -21.4737 C   0  0  0  0  0  0  0  0  0  0  0  0
  -47.7464   68.2910  -22.8368 N   0  0  0  0  0  0  0  0  0  0  0  0
  1  2  1  0  0  0  0
  1  3  1  0  0  0  0
  1  4  1  0  0  0  0
  3  5  1  0  0  0  0
  5  6  1  0  0  0  0
  6  7  1  0  0  0  0
  7  8  1  0  0  0  0
  8  9  1  0  0  0  0
M  END
>  <CHROM.1>
-124.98635273,80.01661674,-67.81993184,89.48673960,175.10681142,-48.91100278
68.43499590,-20.09407984,2.98015839,-1.00441371,2.44130434

>  <Name>
ligand

>  <RI>
0

>  <Rbt.Current_Directory>
/home/itssahil/PROJECTS/Mol_Feturizer/Test_systems_manuscript/rnas/4erj

>  <Rbt.Executable>
rbdock ($Id: //depot/dev/client3/rdock/2013.1/src/exe/rbdock.cxx#4 $)

>  <Rbt.Library>
libRbt.so (2013.1, Build901 2013/11/27)

>  <Rbt.Parameter_File>
/export/apps/rDock/src/rDock_2013.1_src/data/scripts/dock_solv.prm

>  <Rbt.Receptor>
prm/pocket_docking_5.prm

>  <SCORE>
-11.6633

>  <SCORE.INTER>
-10.7706

>  <SCORE.INTER.CONST>
1

>  <SCORE.INTER.POLAR>
0

>  <SCORE.INTER.ROT>
5

>  <SCORE.INTER.SOLV>
7.0829

>  <SCORE.INTER.VDW>
-16.4747

>  <SCORE.INTER.norm>
-1.19674

>  <SCORE.INTRA>
-0.892722

>  <SCORE.INTRA.DIHEDRAL>
-1.17255

>  <SCORE.INTRA.DIHEDRAL.0>
7.73744

>  <SCORE.INTRA.POLAR>
0

>  <SCORE.INTRA.POLAR.0>
0

>  <SCORE.INTRA.REPUL>
0

>  <SCORE.INTRA.REPUL.0>
0

>  <SCORE.INTRA.SOLV>
0.0981097

>  <SCORE.INTRA.SOLV.lig_0>
-15.8342

>  <SCORE.INTRA.VDW>
-0.355501

>  <SCORE.INTRA.VDW.0>
-0.219494

>  <SCORE.INTRA.norm>
-0.0991914

>  <SCORE.RESTR>
0

>  <SCORE.RESTR.CAVITY>
0

>  <SCORE.RESTR.norm>
0

>  <SCORE.SYSTEM>
0

>  <SCORE.SYSTEM.CONST>
0

>  <SCORE.SYSTEM.DIHEDRAL>
0

>  <SCORE.SYSTEM.SOLV>
0

>  <SCORE.SYSTEM.norm>
0

>  <SCORE.heavy>
9

>  <SCORE.norm>
-1.29593

>  <RMSD>
4.872

$$$$
ligand
 OpenBabel02271912143D
libRbt.so/2013.1/901 2013/11/27
  9  8  0  0  0  0  0  0  0  0999 V2000
  -50.2090   69.8775  -19.9303 C   0  0  0  0  0  0  0  0  0  0  0  0
  -51.0588   69.7776  -20.8883 O   0  0  0  0  0  0  0  0  0  0  0  0
  -50.4711   69.2193  -18.6441 C   0  0  0  0  0  0  0  0  0  0  0  0
  -49.1509   70.5772  -20.0505 O   0  0  0  0  0  0  0  0  0  0  0  0
  -49.3555   68.3733  -18.1178 C   0  0  0  0  0  0  0  0  0  0  0  0
  -49.1525   67.0345  -18.7257 C   0  0  0  0  0  0  0  0  0  0  0  0
  -48.8824   67.0542  -20.2208 C   0  0  0  0  0  0  0  0  0  0  0  0
  -47.6271   67.7619  -20.7546 C   0  0  0  0  0  0  0  0  0  0  0  0
  -47.4396   67.7962  -22.1213 N   0  0  0  0  0  0  0  0  0  0  0  0
  1  2  1  0  0  0  0
  1  3  1  0  0  0  0
  1  4  1  0  0  0  0
  3  5  1  0  0  0  0
  5  6  1  0  0  0  0
  6  7  1  0  0  0  0
  7  8  1  0  0  0  0
  8  9  1  0  0  0  0
M  END
>  <CHROM.1>
129.48345748,-77.01468233,58.87464410,62.42589999,-177.90911344,-49.27211226
68.63645911,-19.95539769,-3.05405718,-0.82506129,2.22165162

>  <Name>
ligand

>  <RI>
0

>  <Rbt.Current_Directory>
/home/itssahil/PROJECTS/Mol_Feturizer/Test_systems_manuscript/rnas/4erj

>  <Rbt.Executable>
rbdock ($Id: //depot/dev/client3/rdock/2013.1/src/exe/rbdock.cxx#4 $)

>  <Rbt.Library>
libRbt.so (2013.1, Build901 2013/11/27)

>  <Rbt.Parameter_File>
/export/apps/rDock/src/rDock_2013.1_src/data/scripts/dock_solv.prm

>  <Rbt.Receptor>
prm/pocket_docking_7.prm

>  <SCORE>
-13.7524

>  <SCORE.INTER>
-11.3181

>  <SCORE.INTER.CONST>
1

>  <SCORE.INTER.POLAR>
0

>  <SCORE.INTER.ROT>
5

>  <SCORE.INTER.SOLV>
6.80787

>  <SCORE.INTER.VDW>
-16.748

>  <SCORE.INTER.norm>
-1.25757

>  <SCORE.INTRA>
-2.43431

>  <SCORE.INTRA.DIHEDRAL>
-4.91742

>  <SCORE.INTRA.DIHEDRAL.0>
7.73744

>  <SCORE.INTRA.POLAR>
0

>  <SCORE.INTRA.POLAR.0>
0

>  <SCORE.INTRA.REPUL>
0

>  <SCORE.INTRA.REPUL.0>
0

>  <SCORE.INTRA.SOLV>
0.136373

>  <SCORE.INTRA.SOLV.lig_0>
-15.8342

>  <SCORE.INTRA.VDW>
-0.0437886

>  <SCORE.INTRA.VDW.0>
-0.219494

>  <SCORE.INTRA.norm>
-0.270479

>  <SCORE.RESTR>
0

>  <SCORE.RESTR.CAVITY>
0

>  <SCORE.RESTR.norm>
0

>  <SCORE.SYSTEM>
0

>  <SCORE.SYSTEM.CONST>
0

>  <SCORE.SYSTEM.DIHEDRAL>
0

>  <SCORE.SYSTEM.SOLV>
0

>  <SCORE.SYSTEM.norm>
0

>  <SCORE.heavy>
9

>  <SCORE.norm>
-1.52805

>  <RMSD>
4.905

$$$$
ligand
 OpenBabel02271912143D
libRbt.so/2013.1/901 2013/11/27
  9  8  0  0  0  0  0  0  0  0999 V2000
  -50.2263   69.8860  -19.9042 C   0  0  0  0  0  0  0  0  0  0  0  0
  -51.1066   69.8558  -20.8391 O   0  0  0  0  0  0  0  0  0  0  0  0
  -50.4815   69.1976  -18.6324 C   0  0  0  0  0  0  0  0  0  0  0  0
  -49.1414   70.5416  -20.0334 O   0  0  0  0  0  0  0  0  0  0  0  0
  -49.3527   68.3616  -18.1182 C   0  0  0  0  0  0  0  0  0  0  0  0
  -49.1231   67.0391  -18.7516 C   0  0  0  0  0  0  0  0  0  0  0  0
  -48.8860   67.0899  -20.2515 C   0  0  0  0  0  0  0  0  0  0  0  0
  -47.6660   67.8462  -20.8005 C   0  0  0  0  0  0  0  0  0  0  0  0
  -47.4975   67.8888  -22.1695 N   0  0  0  0  0  0  0  0  0  0  0  0
  1  2  1  0  0  0  0
  1  3  1  0  0  0  0
  1  4  1  0  0  0  0
  3  5  1  0  0  0  0
  5  6  1  0  0  0  0
  6  7  1  0  0  0  0
  7  8  1  0  0  0  0
  8  9  1  0  0  0  0
M  END
>  <CHROM.1>
133.63522528,-77.02159793,57.25275034,62.27630609,-178.92237936,-49.28713353
68.66266127,-19.95991674,-3.08830701,-0.82031458,2.21502015

>  <Name>
ligand

>  <RI>
0

>  <Rbt.Current_Directory>
/home/itssahil/PROJECTS/Mol_Feturizer/Test_systems_manuscript/rnas/4erj

>  <Rbt.Executable>
rbdock ($Id: //depot/dev/client3/rdock/2013.1/src/exe/rbdock.cxx#4 $)

>  <Rbt.Library>
libRbt.so (2013.1, Build901 2013/11/27)

>  <Rbt.Parameter_File>
/export/apps/rDock/src/rDock_2013.1_src/data/scripts/dock_solv.prm

>  <Rbt.Receptor>
prm/pocket_docking_4.prm

>  <SCORE>
-13.7074

>  <SCORE.INTER>
-11.4433

>  <SCORE.INTER.CONST>
1

>  <SCORE.INTER.POLAR>
0

>  <SCORE.INTER.ROT>
5

>  <SCORE.INTER.SOLV>
6.68087

>  <SCORE.INTER.VDW>
-16.7891

>  <SCORE.INTER.norm>
-1.27148

>  <SCORE.INTRA>
-2.26414

>  <SCORE.INTRA.DIHEDRAL>
-4.92402

>  <SCORE.INTRA.DIHEDRAL.0>
7.73744

>  <SCORE.INTRA.POLAR>
0

>  <SCORE.INTRA.POLAR.0>
0

>  <SCORE.INTRA.REPUL>
0

>  <SCORE.INTRA.REPUL.0>
0

>  <SCORE.INTRA.SOLV>
0.185917

>  <SCORE.INTRA.SOLV.lig_0>
-15.8342

>  <SCORE.INTRA.VDW>
0.104911

>  <SCORE.INTRA.VDW.0>
-0.219494

>  <SCORE.INTRA.norm>
-0.251571

>  <SCORE.RESTR>
0

>  <SCORE.RESTR.CAVITY>
0

>  <SCORE.RESTR.norm>
0

>  <SCORE.SYSTEM>
0

>  <SCORE.SYSTEM.CONST>
0

>  <SCORE.SYSTEM.DIHEDRAL>
0

>  <SCORE.SYSTEM.SOLV>
0

>  <SCORE.SYSTEM.norm>
0

>  <SCORE.heavy>
9

>  <SCORE.norm>
-1.52305

>  <RMSD>
4.913

$$$$
ligand
 OpenBabel02271912143D
libRbt.so/2013.1/901 2013/11/27
  9  8  0  0  0  0  0  0  0  0999 V2000
  -50.2272   69.9073  -19.9005 C   0  0  0  0  0  0  0  0  0  0  0  0
  -49.1862   70.6475  -20.0360 O   0  0  0  0  0  0  0  0  0  0  0  0
  -50.4415   69.1620  -18.6535 C   0  0  0  0  0  0  0  0  0  0  0  0
  -51.0690   69.7644  -20.8463 O   0  0  0  0  0  0  0  0  0  0  0  0
  -49.2830   68.3350  -18.1938 C   0  0  0  0  0  0  0  0  0  0  0  0
  -49.0504   67.0316  -18.8648 C   0  0  0  0  0  0  0  0  0  0  0  0
  -48.8316   67.1240  -20.3655 C   0  0  0  0  0  0  0  0  0  0  0  0
  -47.6109   67.8841  -20.9078 C   0  0  0  0  0  0  0  0  0  0  0  0
  -47.4534   67.9558  -22.2768 N   0  0  0  0  0  0  0  0  0  0  0  0
  1  2  1  0  0  0  0
  1  3  1  0  0  0  0
  1  4  1  0  0  0  0
  3  5  1  0  0  0  0
  5  6  1  0  0  0  0
  6  7  1  0  0  0  0
  7  8  1  0  0  0  0
  8  9  1  0  0  0  0
M  END
>  <CHROM.1>
-51.11946788,-78.32115059,58.48605437,63.32959325,-179.43486633,-49.25132998
68.67405088,-20.01971177,-3.11578753,-0.82578824,2.23373367

>  <Name>
ligand

>  <RI>
0

>  <Rbt.Current_Directory>
/home/itssahil/PROJECTS/Mol_Feturizer/Test_systems_manuscript/rnas/4erj

>  <Rbt.Executable>
rbdock ($Id: //depot/dev/client3/rdock/2013.1/src/exe/rbdock.cxx#4 $)

>  <Rbt.Library>
libRbt.so (2013.1, Build901 2013/11/27)

>  <Rbt.Parameter_File>
/export/apps/rDock/src/rDock_2013.1_src/data/scripts/dock_solv.prm

>  <Rbt.Receptor>
prm/pocket_docking_5.prm

>  <SCORE>
-13.65

>  <SCORE.INTER>
-11.2581

>  <SCORE.INTER.CONST>
1

>  <SCORE.INTER.POLAR>
0

>  <SCORE.INTER.ROT>
5

>  <SCORE.INTER.SOLV>
6.66787

>  <SCORE.INTER.VDW>
-16.6614

>  <SCORE.INTER.norm>
-1.2509

>  <SCORE.INTRA>
-2.39184

>  <SCORE.INTRA.DIHEDRAL>
-4.65731

>  <SCORE.INTRA.DIHEDRAL.0>
7.73744

>  <SCORE.INTRA.POLAR>
0

>  <SCORE.INTRA.POLAR.0>
0

>  <SCORE.INTRA.REPUL>
0

>  <SCORE.INTRA.REPUL.0>
0

>  <SCORE.INTRA.SOLV>
0.099463

>  <SCORE.INTRA.SOLV.lig_0>
-15.8342

>  <SCORE.INTRA.VDW>
-0.112915

>  <SCORE.INTRA.VDW.0>
-0.219494

>  <SCORE.INTRA.norm>
-0.26576

>  <SCORE.RESTR>
0

>  <SCORE.RESTR.CAVITY>
0

>  <SCORE.RESTR.norm>
0

>  <SCORE.SYSTEM>
0

>  <SCORE.SYSTEM.CONST>
0

>  <SCORE.SYSTEM.DIHEDRAL>
0

>  <SCORE.SYSTEM.SOLV>
0

>  <SCORE.SYSTEM.norm>
0

>  <SCORE.heavy>
9

>  <SCORE.norm>
-1.51666

>  <RMSD>
4.915

$$$$
ligand
 OpenBabel02271912143D
libRbt.so/2013.1/901 2013/11/27
  9  8  0  0  0  0  0  0  0  0999 V2000
  -50.2388   69.8834  -19.9135 C   0  0  0  0  0  0  0  0  0  0  0  0
  -51.1119   69.8258  -20.8539 O   0  0  0  0  0  0  0  0  0  0  0  0
  -50.4876   69.2012  -18.6372 C   0  0  0  0  0  0  0  0  0  0  0  0
  -49.1674   70.5611  -20.0417 O   0  0  0  0  0  0  0  0  0  0  0  0
  -49.3554   68.3697  -18.1234 C   0  0  0  0  0  0  0  0  0  0  0  0
  -49.1324   67.0400  -18.7442 C   0  0  0  0  0  0  0  0  0  0  0  0
  -48.8929   67.0756  -20.2442 C   0  0  0  0  0  0  0  0  0  0  0  0
  -47.6641   67.8140  -20.7980 C   0  0  0  0  0  0  0  0  0  0  0  0
  -47.5005   67.8542  -22.1676 N   0  0  0  0  0  0  0  0  0  0  0  0
  1  2  1  0  0  0  0
  1  3  1  0  0  0  0
  1  4  1  0  0  0  0
  3  5  1  0  0  0  0
  5  6  1  0  0  0  0
  6  7  1  0  0  0  0
  7  8  1  0  0  0  0
  8  9  1  0  0  0  0
M  END
>  <CHROM.1>
132.31560116,-77.46023730,57.88205170,62.57642969,-178.30917141,-49.29504676
68.65361659,-19.96266164,-3.08178635,-0.82390420,2.20861758

>  <Name>
ligand

>  <RI>
0

>  <Rbt.Current_Directory>
/home/itssahil/PROJECTS/Mol_Feturizer/Test_systems_manuscript/rnas/4erj

>  <Rbt.Executable>
rbdock ($Id: //depot/dev/client3/rdock/2013.1/src/exe/rbdock.cxx#4 $)

>  <Rbt.Library>
libRbt.so (2013.1, Build901 2013/11/27)

>  <Rbt.Parameter_File>
/export/apps/rDock/src/rDock_2013.1_src/data/scripts/dock_solv.prm

>  <Rbt.Receptor>
prm/pocket_docking_4.prm

>  <SCORE>
-13.73

>  <SCORE.INTER>
-11.4093

>  <SCORE.INTER.CONST>
1

>  <SCORE.INTER.POLAR>
0

>  <SCORE.INTER.ROT>
5

>  <SCORE.INTER.SOLV>
6.71779

>  <SCORE.INTER.VDW>
-16.7788

>  <SCORE.INTER.norm>
-1.2677

>  <SCORE.INTRA>
-2.32066

>  <SCORE.INTRA.DIHEDRAL>
-4.86348

>  <SCORE.INTRA.DIHEDRAL.0>
7.73744

>  <SCORE.INTRA.POLAR>
0

>  <SCORE.INTRA.POLAR.0>
0

>  <SCORE.INTRA.REPUL>
0

>  <SCORE.INTRA.REPUL.0>
0

>  <SCORE.INTRA.SOLV>
0.160603

>  <SCORE.INTRA.SOLV.lig_0>
-15.8342

>  <SCORE.INTRA.VDW>
0.0307841

>  <SCORE.INTRA.VDW.0>
-0.219494

>  <SCORE.INTRA.norm>
-0.257851

>  <SCORE.RESTR>
0

>  <SCORE.RESTR.CAVITY>
0

>  <SCORE.RESTR.norm>
0

>  <SCORE.SYSTEM>
0

>  <SCORE.SYSTEM.CONST>
0

>  <SCORE.SYSTEM.DIHEDRAL>
0

>  <SCORE.SYSTEM.SOLV>
0

>  <SCORE.SYSTEM.norm>
0

>  <SCORE.heavy>
9

>  <SCORE.norm>
-1.52555

>  <RMSD>
4.916

$$$$
ligand
 OpenBabel02271912143D
libRbt.so/2013.1/901 2013/11/27
  9  8  0  0  0  0  0  0  0  0999 V2000
  -50.2425   69.8918  -19.9164 C   0  0  0  0  0  0  0  0  0  0  0  0
  -51.1158   69.8555  -20.8576 O   0  0  0  0  0  0  0  0  0  0  0  0
  -50.5024   69.2025  -18.6461 C   0  0  0  0  0  0  0  0  0  0  0  0
  -49.1608   70.5542  -20.0382 O   0  0  0  0  0  0  0  0  0  0  0  0
  -49.3713   68.3757  -18.1222 C   0  0  0  0  0  0  0  0  0  0  0  0
  -49.1468   67.0406  -18.7305 C   0  0  0  0  0  0  0  0  0  0  0  0
  -48.8964   67.0634  -20.2290 C   0  0  0  0  0  0  0  0  0  0  0  0
  -47.6703   67.8074  -20.7811 C   0  0  0  0  0  0  0  0  0  0  0  0
  -47.5090   67.8549  -22.1507 N   0  0  0  0  0  0  0  0  0  0  0  0
  1  2  1  0  0  0  0
  1  3  1  0  0  0  0
  1  4  1  0  0  0  0
  3  5  1  0  0  0  0
  5  6  1  0  0  0  0
  6  7  1  0  0  0  0
  7  8  1  0  0  0  0
  8  9  1  0  0  0  0
M  END
>  <CHROM.1>
133.72932052,-78.46556513,58.19252115,61.92316622,-177.23623031,-49.30199633
68.65614206,-19.95695015,-3.06122810,-0.82246966,2.21394480

>  <Name>
ligand

>  <RI>
0

>  <Rbt.Current_Directory>
/home/itssahil/PROJECTS/Mol_Feturizer/Test_systems_manuscript/rnas/4erj

>  <Rbt.Executable>
rbdock ($Id: //depot/dev/client3/rdock/2013.1/src/exe/rbdock.cxx#4 $)

>  <Rbt.Library>
libRbt.so (2013.1, Build901 2013/11/27)

>  <Rbt.Parameter_File>
/export/apps/rDock/src/rDock_2013.1_src/data/scripts/dock_solv.prm

>  <Rbt.Receptor>
prm/pocket_docking_8.prm

>  <SCORE>
-13.7268

>  <SCORE.INTER>
-11.4807

>  <SCORE.INTER.CONST>
1

>  <SCORE.INTER.POLAR>
0

>  <SCORE.INTER.ROT>
5

>  <SCORE.INTER.SOLV>
6.71439

>  <SCORE.INTER.VDW>
-16.8252

>  <SCORE.INTER.norm>
-1.27563

>  <SCORE.INTRA>
-2.24619

>  <SCORE.INTRA.DIHEDRAL>
-4.73879

>  <SCORE.INTRA.DIHEDRAL.0>
7.73744

>  <SCORE.INTRA.POLAR>
0

>  <SCORE.INTRA.POLAR.0>
0

>  <SCORE.INTRA.REPUL>
0

>  <SCORE.INTRA.REPUL.0>
0

>  <SCORE.INTRA.SOLV>
0.180959

>  <SCORE.INTRA.SOLV.lig_0>
-15.8342

>  <SCORE.INTRA.VDW>
0.0327243

>  <SCORE.INTRA.VDW.0>
-0.219494

>  <SCORE.INTRA.norm>
-0.249577

>  <SCORE.RESTR>
0

>  <SCORE.RESTR.CAVITY>
0

>  <SCORE.RESTR.norm>
0

>  <SCORE.SYSTEM>
0

>  <SCORE.SYSTEM.CONST>
0

>  <SCORE.SYSTEM.DIHEDRAL>
0

>  <SCORE.SYSTEM.SOLV>
0

>  <SCORE.SYSTEM.norm>
0

>  <SCORE.heavy>
9

>  <SCORE.norm>
-1.5252

>  <RMSD>
4.916

$$$$
ligand
 OpenBabel02271912143D
libRbt.so/2013.1/901 2013/11/27
  9  8  0  0  0  0  0  0  0  0999 V2000
  -50.2376   69.8897  -19.9130 C   0  0  0  0  0  0  0  0  0  0  0  0
  -51.1103   69.8404  -20.8542 O   0  0  0  0  0  0  0  0  0  0  0  0
  -50.4940   69.2098  -18.6369 C   0  0  0  0  0  0  0  0  0  0  0  0
  -49.1597   70.5573  -20.0401 O   0  0  0  0  0  0  0  0  0  0  0  0
  -49.3682   68.3719  -18.1195 C   0  0  0  0  0  0  0  0  0  0  0  0
  -49.1575   67.0365  -18.7322 C   0  0  0  0  0  0  0  0  0  0  0  0
  -48.9091   67.0615  -20.2309 C   0  0  0  0  0  0  0  0  0  0  0  0
  -47.6609   67.7700  -20.7803 C   0  0  0  0  0  0  0  0  0  0  0  0
  -47.5047   67.8288  -22.1501 N   0  0  0  0  0  0  0  0  0  0  0  0
  1  2  1  0  0  0  0
  1  3  1  0  0  0  0
  1  4  1  0  0  0  0
  3  5  1  0  0  0  0
  5  6  1  0  0  0  0
  6  7  1  0  0  0  0
  7  8  1  0  0  0  0
  8  9  1  0  0  0  0
M  END
>  <CHROM.1>
132.54233229,-77.88890860,58.33879162,63.19639027,-176.83854971,-49.30050990
68.64721319,-19.95538231,-3.06220099,-0.82772879,2.21477901

>  <Name>
ligand

>  <RI>
0

>  <Rbt.Current_Directory>
/home/itssahil/PROJECTS/Mol_Feturizer/Test_systems_manuscript/rnas/4erj

>  <Rbt.Executable>
rbdock ($Id: //depot/dev/client3/rdock/2013.1/src/exe/rbdock.cxx#4 $)

>  <Rbt.Library>
libRbt.so (2013.1, Build901 2013/11/27)

>  <Rbt.Parameter_File>
/export/apps/rDock/src/rDock_2013.1_src/data/scripts/dock_solv.prm

>  <Rbt.Receptor>
prm/pocket_docking_6.prm

>  <SCORE>
-13.7779

>  <SCORE.INTER>
-11.4633

>  <SCORE.INTER.CONST>
1

>  <SCORE.INTER.POLAR>
0

>  <SCORE.INTER.ROT>
5

>  <SCORE.INTER.SOLV>
6.74648

>  <SCORE.INTER.VDW>
-16.8243

>  <SCORE.INTER.norm>
-1.2737

>  <SCORE.INTRA>
-2.31466

>  <SCORE.INTRA.DIHEDRAL>
-4.77496

>  <SCORE.INTRA.DIHEDRAL.0>
7.73744

>  <SCORE.INTRA.POLAR>
0

>  <SCORE.INTRA.POLAR.0>
0

>  <SCORE.INTRA.REPUL>
0

>  <SCORE.INTRA.REPUL.0>
0

>  <SCORE.INTRA.SOLV>
0.163695

>  <SCORE.INTRA.SOLV.lig_0>
-15.8342

>  <SCORE.INTRA.VDW>
-0.00902644

>  <SCORE.INTRA.VDW.0>
-0.219494

>  <SCORE.INTRA.norm>
-0.257184

>  <SCORE.RESTR>
0

>  <SCORE.RESTR.CAVITY>
0

>  <SCORE.RESTR.norm>
0

>  <SCORE.SYSTEM>
0

>  <SCORE.SYSTEM.CONST>
0

>  <SCORE.SYSTEM.DIHEDRAL>
0

>  <SCORE.SYSTEM.SOLV>
0

>  <SCORE.SYSTEM.norm>
0

>  <SCORE.heavy>
9

>  <SCORE.norm>
-1.53088

>  <RMSD>
4.918

$$$$
ligand
 OpenBabel02271912143D
libRbt.so/2013.1/901 2013/11/27
  9  8  0  0  0  0  0  0  0  0999 V2000
  -50.2563   69.8900  -19.9087 C   0  0  0  0  0  0  0  0  0  0  0  0
  -51.1498   69.8780  -20.8313 O   0  0  0  0  0  0  0  0  0  0  0  0
  -50.5068   69.2045  -18.6344 C   0  0  0  0  0  0  0  0  0  0  0  0
  -49.1610   70.5251  -20.0521 O   0  0  0  0  0  0  0  0  0  0  0  0
  -49.3742   68.3741  -18.1197 C   0  0  0  0  0  0  0  0  0  0  0  0
  -49.1606   67.0372  -18.7281 C   0  0  0  0  0  0  0  0  0  0  0  0
  -48.9136   67.0578  -20.2272 C   0  0  0  0  0  0  0  0  0  0  0  0
  -47.6740   67.7779  -20.7811 C   0  0  0  0  0  0  0  0  0  0  0  0
  -47.5036   67.8053  -22.1501 N   0  0  0  0  0  0  0  0  0  0  0  0
  1  2  1  0  0  0  0
  1  3  1  0  0  0  0
  1  4  1  0  0  0  0
  3  5  1  0  0  0  0
  5  6  1  0  0  0  0
  6  7  1  0  0  0  0
  7  8  1  0  0  0  0
  8  9  1  0  0  0  0
M  END
>  <CHROM.1>
135.11763559,-78.40772412,58.62622602,62.68701502,-178.29922850,-49.31155656
68.64554214,-19.95261934,-3.06319391,-0.82214735,2.20839516

>  <Name>
ligand

>  <RI>
0

>  <Rbt.Current_Directory>
/home/itssahil/PROJECTS/Mol_Feturizer/Test_systems_manuscript/rnas/4erj

>  <Rbt.Executable>
rbdock ($Id: //depot/dev/client3/rdock/2013.1/src/exe/rbdock.cxx#4 $)

>  <Rbt.Library>
libRbt.so (2013.1, Build901 2013/11/27)

>  <Rbt.Parameter_File>
/export/apps/rDock/src/rDock_2013.1_src/data/scripts/dock_solv.prm

>  <Rbt.Receptor>
prm/pocket_docking_5.prm

>  <SCORE>
-13.7597

>  <SCORE.INTER>
-11.4957

>  <SCORE.INTER.CONST>
1

>  <SCORE.INTER.POLAR>
0

>  <SCORE.INTER.ROT>
5

>  <SCORE.INTER.SOLV>
6.75012

>  <SCORE.INTER.VDW>
-16.8472

>  <SCORE.INTER.norm>
-1.2773

>  <SCORE.INTRA>
-2.26393

>  <SCORE.INTRA.DIHEDRAL>
-4.76099

>  <SCORE.INTRA.DIHEDRAL.0>
7.73744

>  <SCORE.INTRA.POLAR>
0

>  <SCORE.INTRA.POLAR.0>
0

>  <SCORE.INTRA.REPUL>
0

>  <SCORE.INTRA.REPUL.0>
0

>  <SCORE.INTRA.SOLV>
0.166393

>  <SCORE.INTRA.SOLV.lig_0>
-15.8342

>  <SCORE.INTRA.VDW>
0.0333721

>  <SCORE.INTRA.VDW.0>
-0.219494

>  <SCORE.INTRA.norm>
-0.251547

>  <SCORE.RESTR>
0

>  <SCORE.RESTR.CAVITY>
0

>  <SCORE.RESTR.norm>
0

>  <SCORE.SYSTEM>
0

>  <SCORE.SYSTEM.CONST>
0

>  <SCORE.SYSTEM.DIHEDRAL>
0

>  <SCORE.SYSTEM.SOLV>
0

>  <SCORE.SYSTEM.norm>
0

>  <SCORE.heavy>
9

>  <SCORE.norm>
-1.52885

>  <RMSD>
4.925

$$$$
ligand
 OpenBabel02271912143D
libRbt.so/2013.1/901 2013/11/27
  9  8  0  0  0  0  0  0  0  0999 V2000
  -50.3952   69.7295  -19.7800 C   0  0  0  0  0  0  0  0  0  0  0  0
  -49.7396   70.7467  -20.2106 O   0  0  0  0  0  0  0  0  0  0  0  0
  -50.0534   69.1303  -18.4836 C   0  0  0  0  0  0  0  0  0  0  0  0
  -51.3177   69.1906  -20.4744 O   0  0  0  0  0  0  0  0  0  0  0  0
  -48.8284   68.2720  -18.4771 C   0  0  0  0  0  0  0  0  0  0  0  0
  -48.9656   66.8622  -18.9206 C   0  0  0  0  0  0  0  0  0  0  0  0
  -49.2506   66.6914  -20.4032 C   0  0  0  0  0  0  0  0  0  0  0  0
  -48.1196   66.9050  -21.4216 C   0  0  0  0  0  0  0  0  0  0  0  0
  -47.5777   68.1698  -21.5258 N   0  0  0  0  0  0  0  0  0  0  0  0
  1  2  1  0  0  0  0
  1  3  1  0  0  0  0
  1  4  1  0  0  0  0
  3  5  1  0  0  0  0
  5  6  1  0  0  0  0
  6  7  1  0  0  0  0
  7  8  1  0  0  0  0
  8  9  1  0  0  0  0
M  END
>  <CHROM.1>
-76.95674645,-82.93190424,69.01509671,74.83667254,-64.36212328,-49.38083747
68.43809798,-19.98059179,-2.90126593,-0.93625759,2.19676746

>  <Name>
ligand

>  <RI>
0

>  <Rbt.Current_Directory>
/home/itssahil/PROJECTS/Mol_Feturizer/Test_systems_manuscript/rnas/4erj

>  <Rbt.Executable>
rbdock ($Id: //depot/dev/client3/rdock/2013.1/src/exe/rbdock.cxx#4 $)

>  <Rbt.Library>
libRbt.so (2013.1, Build901 2013/11/27)

>  <Rbt.Parameter_File>
/export/apps/rDock/src/rDock_2013.1_src/data/scripts/dock_solv.prm

>  <Rbt.Receptor>
prm/pocket_docking_8.prm

>  <SCORE>
-12.3931

>  <SCORE.INTER>
-11.2858

>  <SCORE.INTER.CONST>
1

>  <SCORE.INTER.POLAR>
0

>  <SCORE.INTER.ROT>
5

>  <SCORE.INTER.SOLV>
6.73101

>  <SCORE.INTER.VDW>
-16.7009

>  <SCORE.INTER.norm>
-1.25398

>  <SCORE.INTRA>
-1.10721

>  <SCORE.INTRA.DIHEDRAL>
-2.90187

>  <SCORE.INTRA.DIHEDRAL.0>
7.73744

>  <SCORE.INTRA.POLAR>
0

>  <SCORE.INTRA.POLAR.0>
0

>  <SCORE.INTRA.REPUL>
0

>  <SCORE.INTRA.REPUL.0>
0

>  <SCORE.INTRA.SOLV>
2.29394

>  <SCORE.INTRA.SOLV.lig_0>
-15.8342

>  <SCORE.INTRA.VDW>
-0.803245

>  <SCORE.INTRA.VDW.0>
-0.219494

>  <SCORE.INTRA.norm>
-0.123024

>  <SCORE.RESTR>
0

>  <SCORE.RESTR.CAVITY>
0

>  <SCORE.RESTR.norm>
0

>  <SCORE.SYSTEM>
0

>  <SCORE.SYSTEM.CONST>
0

>  <SCORE.SYSTEM.DIHEDRAL>
0

>  <SCORE.SYSTEM.SOLV>
0

>  <SCORE.SYSTEM.norm>
0

>  <SCORE.heavy>
9

>  <SCORE.norm>
-1.37701

>  <RMSD>
4.940

$$$$
ligand
 OpenBabel02271912143D
libRbt.so/2013.1/901 2013/11/27
  9  8  0  0  0  0  0  0  0  0999 V2000
  -50.2241   70.8612  -20.1832 C   0  0  0  0  0  0  0  0  0  0  0  0
  -48.9426   70.9088  -20.2559 O   0  0  0  0  0  0  0  0  0  0  0  0
  -50.8981   69.5827  -19.9233 C   0  0  0  0  0  0  0  0  0  0  0  0
  -50.9400   71.8975  -20.3760 O   0  0  0  0  0  0  0  0  0  0  0  0
  -50.5941   68.9550  -18.6001 C   0  0  0  0  0  0  0  0  0  0  0  0
  -49.2172   68.4507  -18.3704 C   0  0  0  0  0  0  0  0  0  0  0  0
  -48.9135   67.1186  -19.0353 C   0  0  0  0  0  0  0  0  0  0  0  0
  -48.8824   67.0271  -20.5690 C   0  0  0  0  0  0  0  0  0  0  0  0
  -47.9354   67.7740  -21.2393 N   0  0  0  0  0  0  0  0  0  0  0  0
  1  2  1  0  0  0  0
  1  3  1  0  0  0  0
  1  4  1  0  0  0  0
  3  5  1  0  0  0  0
  5  6  1  0  0  0  0
  6  7  1  0  0  0  0
  7  8  1  0  0  0  0
  8  9  1  0  0  0  0
M  END
>  <CHROM.1>
63.29957641,-67.68623476,-77.55886284,66.12359504,62.54622496,-49.61709276
69.21735608,-19.84822186,-2.22966440,-0.83238865,2.55621380

>  <Name>
ligand

>  <RI>
0

>  <Rbt.Current_Directory>
/home/itssahil/PROJECTS/Mol_Feturizer/Test_systems_manuscript/rnas/4erj

>  <Rbt.Executable>
rbdock ($Id: //depot/dev/client3/rdock/2013.1/src/exe/rbdock.cxx#4 $)

>  <Rbt.Library>
libRbt.so (2013.1, Build901 2013/11/27)

>  <Rbt.Parameter_File>
/export/apps/rDock/src/rDock_2013.1_src/data/scripts/dock_solv.prm

>  <Rbt.Receptor>
prm/pocket_docking_7.prm

>  <SCORE>
-15.436

>  <SCORE.INTER>
-13.932

>  <SCORE.INTER.CONST>
1

>  <SCORE.INTER.POLAR>
0

>  <SCORE.INTER.ROT>
5

>  <SCORE.INTER.SOLV>
6.5429

>  <SCORE.INTER.VDW>
-18.4023

>  <SCORE.INTER.norm>
-1.548

>  <SCORE.INTRA>
-1.50403

>  <SCORE.INTRA.DIHEDRAL>
-4.4165

>  <SCORE.INTRA.DIHEDRAL.0>
7.73744

>  <SCORE.INTRA.POLAR>
0

>  <SCORE.INTRA.POLAR.0>
0

>  <SCORE.INTRA.REPUL>
0

>  <SCORE.INTRA.REPUL.0>
0

>  <SCORE.INTRA.SOLV>
2.00987

>  <SCORE.INTRA.SOLV.lig_0>
-15.8342

>  <SCORE.INTRA.VDW>
-0.300718

>  <SCORE.INTRA.VDW.0>
-0.219494

>  <SCORE.INTRA.norm>
-0.167115

>  <SCORE.RESTR>
0

>  <SCORE.RESTR.CAVITY>
0

>  <SCORE.RESTR.norm>
0

>  <SCORE.SYSTEM>
0

>  <SCORE.SYSTEM.CONST>
0

>  <SCORE.SYSTEM.DIHEDRAL>
0

>  <SCORE.SYSTEM.SOLV>
0

>  <SCORE.SYSTEM.norm>
0

>  <SCORE.heavy>
9

>  <SCORE.norm>
-1.71511

>  <RMSD>
4.978

$$$$
ligand
 OpenBabel02271912143D
libRbt.so/2013.1/901 2013/11/27
  9  8  0  0  0  0  0  0  0  0999 V2000
  -49.3482   68.8371  -18.7585 C   0  0  0  0  0  0  0  0  0  0  0  0
  -50.4708   69.4580  -18.8223 O   0  0  0  0  0  0  0  0  0  0  0  0
  -49.3240   67.3757  -18.6172 C   0  0  0  0  0  0  0  0  0  0  0  0
  -48.2395   69.4650  -18.7706 O   0  0  0  0  0  0  0  0  0  0  0  0
  -49.0625   66.6139  -19.8776 C   0  0  0  0  0  0  0  0  0  0  0  0
  -47.7198   66.7373  -20.4980 C   0  0  0  0  0  0  0  0  0  0  0  0
  -47.4984   68.0251  -21.2735 C   0  0  0  0  0  0  0  0  0  0  0  0
  -48.2377   68.2458  -22.6026 C   0  0  0  0  0  0  0  0  0  0  0  0
  -47.8695   69.3309  -23.3715 N   0  0  0  0  0  0  0  0  0  0  0  0
  1  2  1  0  0  0  0
  1  3  1  0  0  0  0
  1  4  1  0  0  0  0
  3  5  1  0  0  0  0
  5  6  1  0  0  0  0
  6  7  1  0  0  0  0
  7  8  1  0  0  0  0
  8  9  1  0  0  0  0
M  END
>  <CHROM.1>
100.51170586,67.26005526,-77.74906318,-70.30279553,-170.82273882,-48.65213464
68.26025781,-20.26561557,2.65412996,-1.11163560,2.56769254

>  <Name>
ligand

>  <RI>
0

>  <Rbt.Current_Directory>
/home/itssahil/PROJECTS/Mol_Feturizer/Test_systems_manuscript/rnas/4erj

>  <Rbt.Executable>
rbdock ($Id: //depot/dev/client3/rdock/2013.1/src/exe/rbdock.cxx#4 $)

>  <Rbt.Library>
libRbt.so (2013.1, Build901 2013/11/27)

>  <Rbt.Parameter_File>
/export/apps/rDock/src/rDock_2013.1_src/data/scripts/dock_solv.prm

>  <Rbt.Receptor>
prm/blind_docking_100.prm

>  <SCORE>
-11.0025

>  <SCORE.INTER>
-8.81158

>  <SCORE.INTER.CONST>
1

>  <SCORE.INTER.POLAR>
0

>  <SCORE.INTER.ROT>
5

>  <SCORE.INTER.SOLV>
9.25184

>  <SCORE.INTER.VDW>
-15.8917

>  <SCORE.INTER.norm>
-0.979065

>  <SCORE.INTRA>
-2.19094

>  <SCORE.INTRA.DIHEDRAL>
-3.77406

>  <SCORE.INTRA.DIHEDRAL.0>
7.73744

>  <SCORE.INTRA.POLAR>
0

>  <SCORE.INTRA.POLAR.0>
0

>  <SCORE.INTRA.REPUL>
0

>  <SCORE.INTRA.REPUL.0>
0

>  <SCORE.INTRA.SOLV>
-0.0363103

>  <SCORE.INTRA.SOLV.lig_0>
-15.8342

>  <SCORE.INTRA.VDW>
-0.285756

>  <SCORE.INTRA.VDW.0>
-0.219494

>  <SCORE.INTRA.norm>
-0.243438

>  <SCORE.RESTR>
0

>  <SCORE.RESTR.CAVITY>
0

>  <SCORE.RESTR.norm>
0

>  <SCORE.SYSTEM>
0

>  <SCORE.SYSTEM.CONST>
0

>  <SCORE.SYSTEM.DIHEDRAL>
0

>  <SCORE.SYSTEM.SOLV>
0

>  <SCORE.SYSTEM.norm>
0

>  <SCORE.heavy>
9

>  <SCORE.norm>
-1.2225

>  <RMSD>
4.983

$$$$
ligand
 OpenBabel02271912143D
libRbt.so/2013.1/901 2013/11/27
  9  8  0  0  0  0  0  0  0  0999 V2000
  -50.4853   69.9286  -20.0184 C   0  0  0  0  0  0  0  0  0  0  0  0
  -50.2180   71.1850  -20.0122 O   0  0  0  0  0  0  0  0  0  0  0  0
  -50.6689   69.2104  -18.7508 C   0  0  0  0  0  0  0  0  0  0  0  0
  -50.5536   69.2688  -21.1063 O   0  0  0  0  0  0  0  0  0  0  0  0
  -49.4437   68.5467  -18.2068 C   0  0  0  0  0  0  0  0  0  0  0  0
  -49.1201   67.1814  -18.6911 C   0  0  0  0  0  0  0  0  0  0  0  0
  -48.8352   67.0909  -20.1808 C   0  0  0  0  0  0  0  0  0  0  0  0
  -47.6582   67.8793  -20.7764 C   0  0  0  0  0  0  0  0  0  0  0  0
  -47.4521   67.7974  -22.1384 N   0  0  0  0  0  0  0  0  0  0  0  0
  1  2  1  0  0  0  0
  1  3  1  0  0  0  0
  1  4  1  0  0  0  0
  3  5  1  0  0  0  0
  5  6  1  0  0  0  0
  6  7  1  0  0  0  0
  7  8  1  0  0  0  0
  8  9  1  0  0  0  0
M  END
>  <CHROM.1>
-93.47596640,-85.72138173,62.50618175,61.02329188,-178.42592896,-49.39553502
68.70467826,-20.00359626,-3.03651873,-0.85338037,2.16786188

>  <Name>
ligand

>  <RI>
0

>  <Rbt.Current_Directory>
/home/itssahil/PROJECTS/Mol_Feturizer/Test_systems_manuscript/rnas/4erj

>  <Rbt.Executable>
rbdock ($Id: //depot/dev/client3/rdock/2013.1/src/exe/rbdock.cxx#4 $)

>  <Rbt.Library>
libRbt.so (2013.1, Build901 2013/11/27)

>  <Rbt.Parameter_File>
/export/apps/rDock/src/rDock_2013.1_src/data/scripts/dock_solv.prm

>  <Rbt.Receptor>
prm/pocket_docking_5.prm

>  <SCORE>
-13.7081

>  <SCORE.INTER>
-11.8775

>  <SCORE.INTER.CONST>
1

>  <SCORE.INTER.POLAR>
0

>  <SCORE.INTER.ROT>
5

>  <SCORE.INTER.SOLV>
6.76515

>  <SCORE.INTER.VDW>
-17.1067

>  <SCORE.INTER.norm>
-1.31972

>  <SCORE.INTRA>
-1.83056

>  <SCORE.INTRA.DIHEDRAL>
-3.73493

>  <SCORE.INTRA.DIHEDRAL.0>
7.73744

>  <SCORE.INTRA.POLAR>
0

>  <SCORE.INTRA.POLAR.0>
0

>  <SCORE.INTRA.REPUL>
0

>  <SCORE.INTRA.REPUL.0>
0

>  <SCORE.INTRA.SOLV>
0.31413

>  <SCORE.INTRA.SOLV.lig_0>
-15.8342

>  <SCORE.INTRA.VDW>
-0.120154

>  <SCORE.INTRA.VDW.0>
-0.219494

>  <SCORE.INTRA.norm>
-0.203395

>  <SCORE.RESTR>
0

>  <SCORE.RESTR.CAVITY>
0

>  <SCORE.RESTR.norm>
0

>  <SCORE.SYSTEM>
0

>  <SCORE.SYSTEM.CONST>
0

>  <SCORE.SYSTEM.DIHEDRAL>
0

>  <SCORE.SYSTEM.SOLV>
0

>  <SCORE.SYSTEM.norm>
0

>  <SCORE.heavy>
9

>  <SCORE.norm>
-1.52312

>  <RMSD>
4.984

$$$$
ligand
 OpenBabel02271912143D
libRbt.so/2013.1/901 2013/11/27
  9  8  0  0  0  0  0  0  0  0999 V2000
  -50.4918   69.9584  -20.0404 C   0  0  0  0  0  0  0  0  0  0  0  0
  -50.2573   71.2213  -20.0339 O   0  0  0  0  0  0  0  0  0  0  0  0
  -50.6621   69.2363  -18.7732 C   0  0  0  0  0  0  0  0  0  0  0  0
  -50.5382   69.2964  -21.1282 O   0  0  0  0  0  0  0  0  0  0  0  0
  -49.4317   68.5694  -18.2450 C   0  0  0  0  0  0  0  0  0  0  0  0
  -49.1311   67.1939  -18.7146 C   0  0  0  0  0  0  0  0  0  0  0  0
  -48.8703   67.0790  -20.2071 C   0  0  0  0  0  0  0  0  0  0  0  0
  -47.6675   67.8097  -20.8245 C   0  0  0  0  0  0  0  0  0  0  0  0
  -47.4914   67.7197  -22.1901 N   0  0  0  0  0  0  0  0  0  0  0  0
  1  2  1  0  0  0  0
  1  3  1  0  0  0  0
  1  4  1  0  0  0  0
  3  5  1  0  0  0  0
  5  6  1  0  0  0  0
  6  7  1  0  0  0  0
  7  8  1  0  0  0  0
  8  9  1  0  0  0  0
M  END
>  <CHROM.1>
-95.27988935,-87.02871205,62.87555827,62.94658021,-177.75158454,-49.40743813
68.70473471,-20.03410344,-3.03905418,-0.87296010,2.15030584

>  <Name>
ligand

>  <RI>
0

>  <Rbt.Current_Directory>
/home/itssahil/PROJECTS/Mol_Feturizer/Test_systems_manuscript/rnas/4erj

>  <Rbt.Executable>
rbdock ($Id: //depot/dev/client3/rdock/2013.1/src/exe/rbdock.cxx#4 $)

>  <Rbt.Library>
libRbt.so (2013.1, Build901 2013/11/27)

>  <Rbt.Parameter_File>
/export/apps/rDock/src/rDock_2013.1_src/data/scripts/dock_solv.prm

>  <Rbt.Receptor>
prm/pocket_docking_7.prm

>  <SCORE>
-13.8058

>  <SCORE.INTER>
-12.06

>  <SCORE.INTER.CONST>
1

>  <SCORE.INTER.POLAR>
0

>  <SCORE.INTER.ROT>
5

>  <SCORE.INTER.SOLV>
6.80443

>  <SCORE.INTER.VDW>
-17.2415

>  <SCORE.INTER.norm>
-1.34

>  <SCORE.INTRA>
-1.74573

>  <SCORE.INTRA.DIHEDRAL>
-3.47656

>  <SCORE.INTRA.DIHEDRAL.0>
7.73744

>  <SCORE.INTRA.POLAR>
0

>  <SCORE.INTRA.POLAR.0>
0

>  <SCORE.INTRA.REPUL>
0

>  <SCORE.INTRA.REPUL.0>
0

>  <SCORE.INTRA.SOLV>
0.30386

>  <SCORE.INTRA.SOLV.lig_0>
-15.8342

>  <SCORE.INTRA.VDW>
-0.15938

>  <SCORE.INTRA.VDW.0>
-0.219494

>  <SCORE.INTRA.norm>
-0.19397

>  <SCORE.RESTR>
0

>  <SCORE.RESTR.CAVITY>
0

>  <SCORE.RESTR.norm>
0

>  <SCORE.SYSTEM>
0

>  <SCORE.SYSTEM.CONST>
0

>  <SCORE.SYSTEM.DIHEDRAL>
0

>  <SCORE.SYSTEM.SOLV>
0

>  <SCORE.SYSTEM.norm>
0

>  <SCORE.heavy>
9

>  <SCORE.norm>
-1.53397

>  <RMSD>
4.985

$$$$
ligand
 OpenBabel02271912143D
libRbt.so/2013.1/901 2013/11/27
  9  8  0  0  0  0  0  0  0  0999 V2000
  -49.8229   69.6293  -19.2626 C   0  0  0  0  0  0  0  0  0  0  0  0
  -49.0944   70.4217  -19.9635 O   0  0  0  0  0  0  0  0  0  0  0  0
  -49.2297   68.8780  -18.1490 C   0  0  0  0  0  0  0  0  0  0  0  0
  -51.0529   69.4400  -19.5365 O   0  0  0  0  0  0  0  0  0  0  0  0
  -49.4043   67.3938  -18.2119 C   0  0  0  0  0  0  0  0  0  0  0  0
  -48.4574   66.6179  -19.0512 C   0  0  0  0  0  0  0  0  0  0  0  0
  -48.4939   66.9650  -20.5300 C   0  0  0  0  0  0  0  0  0  0  0  0
  -47.6212   68.1134  -21.0605 C   0  0  0  0  0  0  0  0  0  0  0  0
  -47.6315   68.3550  -22.4191 N   0  0  0  0  0  0  0  0  0  0  0  0
  1  2  1  0  0  0  0
  1  3  1  0  0  0  0
  1  4  1  0  0  0  0
  3  5  1  0  0  0  0
  5  6  1  0  0  0  0
  6  7  1  0  0  0  0
  7  8  1  0  0  0  0
  8  9  1  0  0  0  0
M  END
>  <CHROM.1>
-124.31075205,82.49428491,-61.99255863,87.24567437,176.84192366,-48.99935136
68.45124864,-19.80476432,3.01615947,-0.90771688,2.44406984

>  <Name>
ligand

>  <RI>
0

>  <Rbt.Current_Directory>
/home/itssahil/PROJECTS/Mol_Feturizer/Test_systems_manuscript/rnas/4erj

>  <Rbt.Executable>
rbdock ($Id: //depot/dev/client3/rdock/2013.1/src/exe/rbdock.cxx#4 $)

>  <Rbt.Library>
libRbt.so (2013.1, Build901 2013/11/27)

>  <Rbt.Parameter_File>
/export/apps/rDock/src/rDock_2013.1_src/data/scripts/dock_solv.prm

>  <Rbt.Receptor>
prm/pocket_docking_8.prm

>  <SCORE>
-11.7386

>  <SCORE.INTER>
-11.0341

>  <SCORE.INTER.CONST>
1

>  <SCORE.INTER.POLAR>
0

>  <SCORE.INTER.ROT>
5

>  <SCORE.INTER.SOLV>
6.83439

>  <SCORE.INTER.VDW>
-16.5675

>  <SCORE.INTER.norm>
-1.22601

>  <SCORE.INTRA>
-0.704515

>  <SCORE.INTRA.DIHEDRAL>
-1.46641

>  <SCORE.INTRA.DIHEDRAL.0>
7.73744

>  <SCORE.INTRA.POLAR>
0

>  <SCORE.INTRA.POLAR.0>
0

>  <SCORE.INTRA.REPUL>
0

>  <SCORE.INTRA.REPUL.0>
0

>  <SCORE.INTRA.SOLV>
0.292513

>  <SCORE.INTRA.SOLV.lig_0>
-15.8342

>  <SCORE.INTRA.VDW>
-0.117568

>  <SCORE.INTRA.VDW.0>
-0.219494

>  <SCORE.INTRA.norm>
-0.0782795

>  <SCORE.RESTR>
0

>  <SCORE.RESTR.CAVITY>
0

>  <SCORE.RESTR.norm>
0

>  <SCORE.SYSTEM>
0

>  <SCORE.SYSTEM.CONST>
0

>  <SCORE.SYSTEM.DIHEDRAL>
0

>  <SCORE.SYSTEM.SOLV>
0

>  <SCORE.SYSTEM.norm>
0

>  <SCORE.heavy>
9

>  <SCORE.norm>
-1.30429

>  <RMSD>
4.997

$$$$
ligand
 OpenBabel02271912143D
libRbt.so/2013.1/901 2013/11/27
  9  8  0  0  0  0  0  0  0  0999 V2000
  -49.3105   67.0862  -18.9853 C   0  0  0  0  0  0  0  0  0  0  0  0
  -48.4150   66.3928  -18.3792 O   0  0  0  0  0  0  0  0  0  0  0  0
  -49.7109   68.3950  -18.4533 C   0  0  0  0  0  0  0  0  0  0  0  0
  -49.9013   66.6460  -20.0249 O   0  0  0  0  0  0  0  0  0  0  0  0
  -49.9149   69.4674  -19.4759 C   0  0  0  0  0  0  0  0  0  0  0  0
  -48.7934   69.7681  -20.4004 C   0  0  0  0  0  0  0  0  0  0  0  0
  -48.5586   68.7162  -21.4715 C   0  0  0  0  0  0  0  0  0  0  0  0
  -47.3596   68.8577  -22.4224 C   0  0  0  0  0  0  0  0  0  0  0  0
  -47.1530   67.8579  -23.3508 N   0  0  0  0  0  0  0  0  0  0  0  0
  1  2  1  0  0  0  0
  1  3  1  0  0  0  0
  1  4  1  0  0  0  0
  3  5  1  0  0  0  0
  5  6  1  0  0  0  0
  6  7  1  0  0  0  0
  7  8  1  0  0  0  0
  8  9  1  0  0  0  0
M  END
>  <CHROM.1>
138.97817017,-55.54693409,73.36977790,-175.31425986,177.76129901,-48.79419847
68.09877729,-20.31526849,-2.50892629,1.02324471,-0.42592593

>  <Name>
ligand

>  <RI>
0

>  <Rbt.Current_Directory>
/home/itssahil/PROJECTS/Mol_Feturizer/Test_systems_manuscript/rnas/4erj

>  <Rbt.Executable>
rbdock ($Id: //depot/dev/client3/rdock/2013.1/src/exe/rbdock.cxx#4 $)

>  <Rbt.Library>
libRbt.so (2013.1, Build901 2013/11/27)

>  <Rbt.Parameter_File>
/export/apps/rDock/src/rDock_2013.1_src/data/scripts/dock_solv.prm

>  <Rbt.Receptor>
prm/pocket_docking_6.prm

>  <SCORE>
-11.1661

>  <SCORE.INTER>
-8.97034

>  <SCORE.INTER.CONST>
1

>  <SCORE.INTER.POLAR>
0

>  <SCORE.INTER.ROT>
5

>  <SCORE.INTER.SOLV>
7.10381

>  <SCORE.INTER.VDW>
-15.2815

>  <SCORE.INTER.norm>
-0.996705

>  <SCORE.INTRA>
-2.19574

>  <SCORE.INTRA.DIHEDRAL>
-5.22534

>  <SCORE.INTRA.DIHEDRAL.0>
7.73744

>  <SCORE.INTRA.POLAR>
0

>  <SCORE.INTRA.POLAR.0>
0

>  <SCORE.INTRA.REPUL>
0

>  <SCORE.INTRA.REPUL.0>
0

>  <SCORE.INTRA.SOLV>
-0.13782

>  <SCORE.INTRA.SOLV.lig_0>
-15.8342

>  <SCORE.INTRA.VDW>
0.485839

>  <SCORE.INTRA.VDW.0>
-0.219494

>  <SCORE.INTRA.norm>
-0.243971

>  <SCORE.RESTR>
0

>  <SCORE.RESTR.CAVITY>
0

>  <SCORE.RESTR.norm>
0

>  <SCORE.SYSTEM>
0

>  <SCORE.SYSTEM.CONST>
0

>  <SCORE.SYSTEM.DIHEDRAL>
0

>  <SCORE.SYSTEM.SOLV>
0

>  <SCORE.SYSTEM.norm>
0

>  <SCORE.heavy>
9

>  <SCORE.norm>
-1.24068

>  <RMSD>
5.018

$$$$
ligand
 OpenBabel02271912143D
libRbt.so/2013.1/901 2013/11/27
  9  8  0  0  0  0  0  0  0  0999 V2000
  -48.8866   68.6482  -18.7666 C   0  0  0  0  0  0  0  0  0  0  0  0
  -49.9456   69.1156  -18.2099 O   0  0  0  0  0  0  0  0  0  0  0  0
  -48.7144   67.1975  -18.9159 C   0  0  0  0  0  0  0  0  0  0  0  0
  -47.9480   69.4152  -19.1592 O   0  0  0  0  0  0  0  0  0  0  0  0
  -49.2934   66.6082  -20.1629 C   0  0  0  0  0  0  0  0  0  0  0  0
  -48.6067   66.8901  -21.4482 C   0  0  0  0  0  0  0  0  0  0  0  0
  -48.7461   68.3218  -21.9379 C   0  0  0  0  0  0  0  0  0  0  0  0
  -48.1541   68.7177  -23.2997 C   0  0  0  0  0  0  0  0  0  0  0  0
  -46.8100   68.4860  -23.5092 N   0  0  0  0  0  0  0  0  0  0  0  0
  1  2  1  0  0  0  0
  1  3  1  0  0  0  0
  1  4  1  0  0  0  0
  3  5  1  0  0  0  0
  5  6  1  0  0  0  0
  6  7  1  0  0  0  0
  7  8  1  0  0  0  0
  8  9  1  0  0  0  0
M  END
>  <CHROM.1>
87.88361033,72.06359228,-71.00969960,-176.22527049,-56.15658813,-48.57414708
68.18196941,-20.57043330,-2.38075200,-1.12877484,-2.36970291

>  <Name>
ligand

>  <RI>
0

>  <Rbt.Current_Directory>
/home/itssahil/PROJECTS/Mol_Feturizer/Test_systems_manuscript/rnas/4erj

>  <Rbt.Executable>
rbdock ($Id: //depot/dev/client3/rdock/2013.1/src/exe/rbdock.cxx#4 $)

>  <Rbt.Library>
libRbt.so (2013.1, Build901 2013/11/27)

>  <Rbt.Parameter_File>
/export/apps/rDock/src/rDock_2013.1_src/data/scripts/dock_solv.prm

>  <Rbt.Receptor>
prm/blind_docking_100.prm

>  <SCORE>
-12.5585

>  <SCORE.INTER>
-10.019

>  <SCORE.INTER.CONST>
1

>  <SCORE.INTER.POLAR>
0

>  <SCORE.INTER.ROT>
5

>  <SCORE.INTER.SOLV>
7.76571

>  <SCORE.INTER.VDW>
-16.2012

>  <SCORE.INTER.norm>
-1.11322

>  <SCORE.INTRA>
-2.53955

>  <SCORE.INTRA.DIHEDRAL>
-4.75802

>  <SCORE.INTRA.DIHEDRAL.0>
7.73744

>  <SCORE.INTRA.POLAR>
0

>  <SCORE.INTRA.POLAR.0>
0

>  <SCORE.INTRA.REPUL>
0

>  <SCORE.INTRA.REPUL.0>
0

>  <SCORE.INTRA.SOLV>
0.539898

>  <SCORE.INTRA.SOLV.lig_0>
-15.8342

>  <SCORE.INTRA.VDW>
-0.430487

>  <SCORE.INTRA.VDW.0>
-0.219494

>  <SCORE.INTRA.norm>
-0.282172

>  <SCORE.RESTR>
0

>  <SCORE.RESTR.CAVITY>
0

>  <SCORE.RESTR.norm>
0

>  <SCORE.SYSTEM>
0

>  <SCORE.SYSTEM.CONST>
0

>  <SCORE.SYSTEM.DIHEDRAL>
0

>  <SCORE.SYSTEM.SOLV>
0

>  <SCORE.SYSTEM.norm>
0

>  <SCORE.heavy>
9

>  <SCORE.norm>
-1.39539

>  <RMSD>
5.026

$$$$
ligand
 OpenBabel02271912143D
libRbt.so/2013.1/901 2013/11/27
  9  8  0  0  0  0  0  0  0  0999 V2000
  -49.2141   66.8692  -19.1069 C   0  0  0  0  0  0  0  0  0  0  0  0
  -49.4479   66.2409  -20.2025 O   0  0  0  0  0  0  0  0  0  0  0  0
  -49.8120   68.1903  -18.8757 C   0  0  0  0  0  0  0  0  0  0  0  0
  -48.4324   66.3923  -18.2208 O   0  0  0  0  0  0  0  0  0  0  0  0
  -48.9376   69.3571  -19.2095 C   0  0  0  0  0  0  0  0  0  0  0  0
  -48.4884   69.5086  -20.6160 C   0  0  0  0  0  0  0  0  0  0  0  0
  -47.4717   68.4743  -21.0691 C   0  0  0  0  0  0  0  0  0  0  0  0
  -47.0103   68.4570  -22.5349 C   0  0  0  0  0  0  0  0  0  0  0  0
  -46.0532   67.5315  -22.8975 N   0  0  0  0  0  0  0  0  0  0  0  0
  1  2  1  0  0  0  0
  1  3  1  0  0  0  0
  1  4  1  0  0  0  0
  3  5  1  0  0  0  0
  5  6  1  0  0  0  0
  6  7  1  0  0  0  0
  7  8  1  0  0  0  0
  8  9  1  0  0  0  0
M  END
>  <CHROM.1>
-96.10531825,61.48463991,-70.53994921,175.29568414,177.89282629,-48.32401325
67.85890771,-20.28844597,-2.80341417,0.93429747,-0.15168976

>  <Name>
ligand

>  <RI>
0

>  <Rbt.Current_Directory>
/home/itssahil/PROJECTS/Mol_Feturizer/Test_systems_manuscript/rnas/4erj

>  <Rbt.Executable>
rbdock ($Id: //depot/dev/client3/rdock/2013.1/src/exe/rbdock.cxx#4 $)

>  <Rbt.Library>
libRbt.so (2013.1, Build901 2013/11/27)

>  <Rbt.Parameter_File>
/export/apps/rDock/src/rDock_2013.1_src/data/scripts/dock_solv.prm

>  <Rbt.Receptor>
prm/blind_docking_100.prm

>  <SCORE>
-12.6867

>  <SCORE.INTER>
-9.56419

>  <SCORE.INTER.CONST>
1

>  <SCORE.INTER.POLAR>
0

>  <SCORE.INTER.ROT>
5

>  <SCORE.INTER.SOLV>
6.74644

>  <SCORE.INTER.VDW>
-15.5583

>  <SCORE.INTER.norm>
-1.06269

>  <SCORE.INTRA>
-3.12255

>  <SCORE.INTRA.DIHEDRAL>
-5.57831

>  <SCORE.INTRA.DIHEDRAL.0>
7.73744

>  <SCORE.INTRA.POLAR>
0

>  <SCORE.INTRA.POLAR.0>
0

>  <SCORE.INTRA.REPUL>
0

>  <SCORE.INTRA.REPUL.0>
0

>  <SCORE.INTRA.SOLV>
-0.136976

>  <SCORE.INTRA.SOLV.lig_0>
-15.8342

>  <SCORE.INTRA.VDW>
-0.264914

>  <SCORE.INTRA.VDW.0>
-0.219494

>  <SCORE.INTRA.norm>
-0.346951

>  <SCORE.RESTR>
0

>  <SCORE.RESTR.CAVITY>
0

>  <SCORE.RESTR.norm>
0

>  <SCORE.SYSTEM>
0

>  <SCORE.SYSTEM.CONST>
0

>  <SCORE.SYSTEM.DIHEDRAL>
0

>  <SCORE.SYSTEM.SOLV>
0

>  <SCORE.SYSTEM.norm>
0

>  <SCORE.heavy>
9

>  <SCORE.norm>
-1.40964

>  <RMSD>
5.026

$$$$
ligand
 OpenBabel02271912143D
libRbt.so/2013.1/901 2013/11/27
  9  8  0  0  0  0  0  0  0  0999 V2000
  -50.1865   69.6377  -19.5560 C   0  0  0  0  0  0  0  0  0  0  0  0
  -51.3730   69.7634  -20.0317 O   0  0  0  0  0  0  0  0  0  0  0  0
  -49.9240   68.6707  -18.4825 C   0  0  0  0  0  0  0  0  0  0  0  0
  -49.2258   70.3688  -19.9637 O   0  0  0  0  0  0  0  0  0  0  0  0
  -48.8010   67.7167  -18.7396 C   0  0  0  0  0  0  0  0  0  0  0  0
  -48.9574   66.7420  -19.8480 C   0  0  0  0  0  0  0  0  0  0  0  0
  -48.9128   67.3539  -21.2380 C   0  0  0  0  0  0  0  0  0  0  0  0
  -47.6264   68.0412  -21.7224 C   0  0  0  0  0  0  0  0  0  0  0  0
  -46.5005   67.2597  -21.8832 N   0  0  0  0  0  0  0  0  0  0  0  0
  1  2  1  0  0  0  0
  1  3  1  0  0  0  0
  1  4  1  0  0  0  0
  3  5  1  0  0  0  0
  5  6  1  0  0  0  0
  6  7  1  0  0  0  0
  7  8  1  0  0  0  0
  8  9  1  0  0  0  0
M  END
>  <CHROM.1>
127.65133119,-65.36410652,70.21460499,63.63134608,64.81723015,-49.07727922
68.42697907,-20.16697558,-3.02449050,-0.78009965,2.46129090

>  <Name>
ligand

>  <RI>
0

>  <Rbt.Current_Directory>
/home/itssahil/PROJECTS/Mol_Feturizer/Test_systems_manuscript/rnas/4erj

>  <Rbt.Executable>
rbdock ($Id: //depot/dev/client3/rdock/2013.1/src/exe/rbdock.cxx#4 $)

>  <Rbt.Library>
libRbt.so (2013.1, Build901 2013/11/27)

>  <Rbt.Parameter_File>
/export/apps/rDock/src/rDock_2013.1_src/data/scripts/dock_solv.prm

>  <Rbt.Receptor>
prm/pocket_docking_3.prm

>  <SCORE>
-12.7184

>  <SCORE.INTER>
-10.3636

>  <SCORE.INTER.CONST>
1

>  <SCORE.INTER.POLAR>
0

>  <SCORE.INTER.ROT>
5

>  <SCORE.INTER.SOLV>
7.58631

>  <SCORE.INTER.VDW>
-16.3712

>  <SCORE.INTER.norm>
-1.15151

>  <SCORE.INTRA>
-2.35482

>  <SCORE.INTRA.DIHEDRAL>
-5.40138

>  <SCORE.INTRA.DIHEDRAL.0>
7.73744

>  <SCORE.INTRA.POLAR>
0

>  <SCORE.INTRA.POLAR.0>
0

>  <SCORE.INTRA.REPUL>
0

>  <SCORE.INTRA.REPUL.0>
0

>  <SCORE.INTRA.SOLV>
0.975666

>  <SCORE.INTRA.SOLV.lig_0>
-15.8342

>  <SCORE.INTRA.VDW>
-0.141965

>  <SCORE.INTRA.VDW.0>
-0.219494

>  <SCORE.INTRA.norm>
-0.261647

>  <SCORE.RESTR>
0

>  <SCORE.RESTR.CAVITY>
0

>  <SCORE.RESTR.norm>
0

>  <SCORE.SYSTEM>
0

>  <SCORE.SYSTEM.CONST>
0

>  <SCORE.SYSTEM.DIHEDRAL>
0

>  <SCORE.SYSTEM.SOLV>
0

>  <SCORE.SYSTEM.norm>
0

>  <SCORE.heavy>
9

>  <SCORE.norm>
-1.41316

>  <RMSD>
5.028

$$$$
ligand
 OpenBabel02271912143D
libRbt.so/2013.1/901 2013/11/27
  9  8  0  0  0  0  0  0  0  0999 V2000
  -50.2399   70.0646  -19.9115 C   0  0  0  0  0  0  0  0  0  0  0  0
  -49.1011   70.6566  -19.9621 O   0  0  0  0  0  0  0  0  0  0  0  0
  -50.5708   69.2049  -18.7679 C   0  0  0  0  0  0  0  0  0  0  0  0
  -51.0856   70.1680  -20.8589 O   0  0  0  0  0  0  0  0  0  0  0  0
  -49.4786   68.2868  -18.3189 C   0  0  0  0  0  0  0  0  0  0  0  0
  -49.0178   67.2404  -19.2653 C   0  0  0  0  0  0  0  0  0  0  0  0
  -48.2251   67.7656  -20.4504 C   0  0  0  0  0  0  0  0  0  0  0  0
  -47.7602   66.7901  -21.5432 C   0  0  0  0  0  0  0  0  0  0  0  0
  -47.0364   67.3044  -22.5995 N   0  0  0  0  0  0  0  0  0  0  0  0
  1  2  1  0  0  0  0
  1  3  1  0  0  0  0
  1  4  1  0  0  0  0
  3  5  1  0  0  0  0
  5  6  1  0  0  0  0
  6  7  1  0  0  0  0
  7  8  1  0  0  0  0
  8  9  1  0  0  0  0
M  END
>  <CHROM.1>
-43.54811607,-63.64857866,71.13542694,-176.56978302,-179.64625453,-49.18033810
68.64187357,-20.19727565,3.12959839,-0.88907124,2.18923508

>  <Name>
ligand

>  <RI>
0

>  <Rbt.Current_Directory>
/home/itssahil/PROJECTS/Mol_Feturizer/Test_systems_manuscript/rnas/4erj

>  <Rbt.Executable>
rbdock ($Id: //depot/dev/client3/rdock/2013.1/src/exe/rbdock.cxx#4 $)

>  <Rbt.Library>
libRbt.so (2013.1, Build901 2013/11/27)

>  <Rbt.Parameter_File>
/export/apps/rDock/src/rDock_2013.1_src/data/scripts/dock_solv.prm

>  <Rbt.Receptor>
prm/pocket_docking_4.prm

>  <SCORE>
-13.3189

>  <SCORE.INTER>
-10.5642

>  <SCORE.INTER.CONST>
1

>  <SCORE.INTER.POLAR>
0

>  <SCORE.INTER.ROT>
5

>  <SCORE.INTER.SOLV>
7.92418

>  <SCORE.INTER.VDW>
-16.6175

>  <SCORE.INTER.norm>
-1.1738

>  <SCORE.INTRA>
-2.75472

>  <SCORE.INTRA.DIHEDRAL>
-5.37419

>  <SCORE.INTRA.DIHEDRAL.0>
7.73744

>  <SCORE.INTRA.POLAR>
0

>  <SCORE.INTRA.POLAR.0>
0

>  <SCORE.INTRA.REPUL>
0

>  <SCORE.INTRA.REPUL.0>
0

>  <SCORE.INTRA.SOLV>
-0.138685

>  <SCORE.INTRA.SOLV.lig_0>
-15.8342

>  <SCORE.INTRA.VDW>
0.00172024

>  <SCORE.INTRA.VDW.0>
-0.219494

>  <SCORE.INTRA.norm>
-0.30608

>  <SCORE.RESTR>
0

>  <SCORE.RESTR.CAVITY>
0

>  <SCORE.RESTR.norm>
0

>  <SCORE.SYSTEM>
0

>  <SCORE.SYSTEM.CONST>
0

>  <SCORE.SYSTEM.DIHEDRAL>
0

>  <SCORE.SYSTEM.SOLV>
0

>  <SCORE.SYSTEM.norm>
0

>  <SCORE.heavy>
9

>  <SCORE.norm>
-1.47988

>  <RMSD>
5.040

$$$$
ligand
 OpenBabel02271912143D
libRbt.so/2013.1/901 2013/11/27
  9  8  0  0  0  0  0  0  0  0999 V2000
  -49.4468   68.6329  -18.5654 C   0  0  0  0  0  0  0  0  0  0  0  0
  -50.5967   69.1914  -18.6906 O   0  0  0  0  0  0  0  0  0  0  0  0
  -49.3242   67.1730  -18.6663 C   0  0  0  0  0  0  0  0  0  0  0  0
  -48.4011   69.3143  -18.3090 O   0  0  0  0  0  0  0  0  0  0  0  0
  -49.0786   66.6440  -20.0437 C   0  0  0  0  0  0  0  0  0  0  0  0
  -47.7275   66.8309  -20.6289 C   0  0  0  0  0  0  0  0  0  0  0  0
  -47.4030   68.2616  -21.0245 C   0  0  0  0  0  0  0  0  0  0  0  0
  -48.1355   68.9037  -22.2132 C   0  0  0  0  0  0  0  0  0  0  0  0
  -47.9309   68.3602  -23.4650 N   0  0  0  0  0  0  0  0  0  0  0  0
  1  2  1  0  0  0  0
  1  3  1  0  0  0  0
  1  4  1  0  0  0  0
  3  5  1  0  0  0  0
  5  6  1  0  0  0  0
  6  7  1  0  0  0  0
  7  8  1  0  0  0  0
  8  9  1  0  0  0  0
M  END
>  <CHROM.1>
89.74805509,73.80321344,-71.67456268,-69.18796736,-64.36098702,-48.68497551
68.17217431,-20.15166104,2.80316612,-1.13065700,2.67494720

>  <Name>
ligand

>  <RI>
0

>  <Rbt.Current_Directory>
/home/itssahil/PROJECTS/Mol_Feturizer/Test_systems_manuscript/rnas/4erj

>  <Rbt.Executable>
rbdock ($Id: //depot/dev/client3/rdock/2013.1/src/exe/rbdock.cxx#4 $)

>  <Rbt.Library>
libRbt.so (2013.1, Build901 2013/11/27)

>  <Rbt.Parameter_File>
/export/apps/rDock/src/rDock_2013.1_src/data/scripts/dock_solv.prm

>  <Rbt.Receptor>
prm/pocket_docking_8.prm

>  <SCORE>
-11.8252

>  <SCORE.INTER>
-9.7466

>  <SCORE.INTER.CONST>
1

>  <SCORE.INTER.POLAR>
0

>  <SCORE.INTER.ROT>
5

>  <SCORE.INTER.SOLV>
7.98856

>  <SCORE.INTER.VDW>
-16.0939

>  <SCORE.INTER.norm>
-1.08296

>  <SCORE.INTRA>
-2.07855

>  <SCORE.INTRA.DIHEDRAL>
-4.21893

>  <SCORE.INTRA.DIHEDRAL.0>
7.73744

>  <SCORE.INTRA.POLAR>
0

>  <SCORE.INTRA.POLAR.0>
0

>  <SCORE.INTRA.REPUL>
0

>  <SCORE.INTRA.REPUL.0>
0

>  <SCORE.INTRA.SOLV>
0.919977

>  <SCORE.INTRA.SOLV.lig_0>
-15.8342

>  <SCORE.INTRA.VDW>
-0.429074

>  <SCORE.INTRA.VDW.0>
-0.219494

>  <SCORE.INTRA.norm>
-0.23095

>  <SCORE.RESTR>
0

>  <SCORE.RESTR.CAVITY>
0

>  <SCORE.RESTR.norm>
0

>  <SCORE.SYSTEM>
0

>  <SCORE.SYSTEM.CONST>
0

>  <SCORE.SYSTEM.DIHEDRAL>
0

>  <SCORE.SYSTEM.SOLV>
0

>  <SCORE.SYSTEM.norm>
0

>  <SCORE.heavy>
9

>  <SCORE.norm>
-1.31391

>  <RMSD>
5.053

$$$$
ligand
 OpenBabel02271912143D
libRbt.so/2013.1/901 2013/11/27
  9  8  0  0  0  0  0  0  0  0999 V2000
  -50.5745   70.2141  -20.2034 C   0  0  0  0  0  0  0  0  0  0  0  0
  -50.4748   69.6475  -21.3518 O   0  0  0  0  0  0  0  0  0  0  0  0
  -50.9495   69.4235  -19.0242 C   0  0  0  0  0  0  0  0  0  0  0  0
  -50.3977   71.4682  -20.0632 O   0  0  0  0  0  0  0  0  0  0  0  0
  -49.8230   68.7113  -18.3451 C   0  0  0  0  0  0  0  0  0  0  0  0
  -49.1759   67.5875  -19.0671 C   0  0  0  0  0  0  0  0  0  0  0  0
  -48.2607   68.0107  -20.2038 C   0  0  0  0  0  0  0  0  0  0  0  0
  -47.5923   66.9378  -21.0778 C   0  0  0  0  0  0  0  0  0  0  0  0
  -46.7409   67.3610  -22.0779 N   0  0  0  0  0  0  0  0  0  0  0  0
  1  2  1  0  0  0  0
  1  3  1  0  0  0  0
  1  4  1  0  0  0  0
  3  5  1  0  0  0  0
  5  6  1  0  0  0  0
  6  7  1  0  0  0  0
  7  8  1  0  0  0  0
  8  9  1  0  0  0  0
M  END
>  <CHROM.1>
84.35398208,-68.32932037,74.62131350,-176.64611175,-178.35124091,-49.34700710
68.84978274,-20.17307206,-3.01907045,-0.80447607,2.17244631

>  <Name>
ligand

>  <RI>
0

>  <Rbt.Current_Directory>
/home/itssahil/PROJECTS/Mol_Feturizer/Test_systems_manuscript/rnas/4erj

>  <Rbt.Executable>
rbdock ($Id: //depot/dev/client3/rdock/2013.1/src/exe/rbdock.cxx#4 $)

>  <Rbt.Library>
libRbt.so (2013.1, Build901 2013/11/27)

>  <Rbt.Parameter_File>
/export/apps/rDock/src/rDock_2013.1_src/data/scripts/dock_solv.prm

>  <Rbt.Receptor>
prm/pocket_docking_7.prm

>  <SCORE>
-13.9518

>  <SCORE.INTER>
-11.1395

>  <SCORE.INTER.CONST>
1

>  <SCORE.INTER.POLAR>
0

>  <SCORE.INTER.ROT>
5

>  <SCORE.INTER.SOLV>
7.53342

>  <SCORE.INTER.VDW>
-16.8708

>  <SCORE.INTER.norm>
-1.23772

>  <SCORE.INTRA>
-2.8123

>  <SCORE.INTRA.DIHEDRAL>
-4.7655

>  <SCORE.INTRA.DIHEDRAL.0>
7.73744

>  <SCORE.INTRA.POLAR>
0

>  <SCORE.INTRA.POLAR.0>
0

>  <SCORE.INTRA.REPUL>
0

>  <SCORE.INTRA.REPUL.0>
0

>  <SCORE.INTRA.SOLV>
-0.134079

>  <SCORE.INTRA.SOLV.lig_0>
-15.8342

>  <SCORE.INTRA.VDW>
-0.36251

>  <SCORE.INTRA.VDW.0>
-0.219494

>  <SCORE.INTRA.norm>
-0.312478

>  <SCORE.RESTR>
0

>  <SCORE.RESTR.CAVITY>
0

>  <SCORE.RESTR.norm>
0

>  <SCORE.SYSTEM>
0

>  <SCORE.SYSTEM.CONST>
0

>  <SCORE.SYSTEM.DIHEDRAL>
0

>  <SCORE.SYSTEM.SOLV>
0

>  <SCORE.SYSTEM.norm>
0

>  <SCORE.heavy>
9

>  <SCORE.norm>
-1.5502

>  <RMSD>
5.103

$$$$
ligand
 OpenBabel02271912143D
libRbt.so/2013.1/901 2013/11/27
  9  8  0  0  0  0  0  0  0  0999 V2000
  -50.6342   70.2482  -20.2248 C   0  0  0  0  0  0  0  0  0  0  0  0
  -50.3436   71.4947  -20.1164 O   0  0  0  0  0  0  0  0  0  0  0  0
  -51.0544   69.4863  -19.0418 C   0  0  0  0  0  0  0  0  0  0  0  0
  -50.5249   69.6342  -21.3359 O   0  0  0  0  0  0  0  0  0  0  0  0
  -49.9606   68.7598  -18.3254 C   0  0  0  0  0  0  0  0  0  0  0  0
  -49.3262   67.6071  -19.0124 C   0  0  0  0  0  0  0  0  0  0  0  0
  -48.3950   67.9856  -20.1518 C   0  0  0  0  0  0  0  0  0  0  0  0
  -47.7560   66.8802  -21.0072 C   0  0  0  0  0  0  0  0  0  0  0  0
  -46.9242   67.2646  -22.0389 N   0  0  0  0  0  0  0  0  0  0  0  0
  1  2  1  0  0  0  0
  1  3  1  0  0  0  0
  1  4  1  0  0  0  0
  3  5  1  0  0  0  0
  5  6  1  0  0  0  0
  6  7  1  0  0  0  0
  7  8  1  0  0  0  0
  8  9  1  0  0  0  0
M  END
>  <CHROM.1>
-93.74703568,-68.48418852,73.63060866,-175.60951287,179.51800713,-49.44772946
68.84936965,-20.15583726,-2.97844114,-0.82904745,2.19623316

>  <Name>
ligand

>  <RI>
0

>  <Rbt.Current_Directory>
/home/itssahil/PROJECTS/Mol_Feturizer/Test_systems_manuscript/rnas/4erj

>  <Rbt.Executable>
rbdock ($Id: //depot/dev/client3/rdock/2013.1/src/exe/rbdock.cxx#4 $)

>  <Rbt.Library>
libRbt.so (2013.1, Build901 2013/11/27)

>  <Rbt.Parameter_File>
/export/apps/rDock/src/rDock_2013.1_src/data/scripts/dock_solv.prm

>  <Rbt.Receptor>
prm/pocket_docking_7.prm

>  <SCORE>
-13.957

>  <SCORE.INTER>
-11.0952

>  <SCORE.INTER.CONST>
1

>  <SCORE.INTER.POLAR>
0

>  <SCORE.INTER.ROT>
5

>  <SCORE.INTER.SOLV>
7.70482

>  <SCORE.INTER.VDW>
-16.8984

>  <SCORE.INTER.norm>
-1.23281

>  <SCORE.INTRA>
-2.86178

>  <SCORE.INTRA.DIHEDRAL>
-5.02966

>  <SCORE.INTRA.DIHEDRAL.0>
7.73744

>  <SCORE.INTRA.POLAR>
0

>  <SCORE.INTRA.POLAR.0>
0

>  <SCORE.INTRA.REPUL>
0

>  <SCORE.INTRA.REPUL.0>
0

>  <SCORE.INTRA.SOLV>
-0.134508

>  <SCORE.INTRA.SOLV.lig_0>
-15.8342

>  <SCORE.INTRA.VDW>
-0.279691

>  <SCORE.INTRA.VDW.0>
-0.219494

>  <SCORE.INTRA.norm>
-0.317975

>  <SCORE.RESTR>
0

>  <SCORE.RESTR.CAVITY>
0

>  <SCORE.RESTR.norm>
0

>  <SCORE.SYSTEM>
0

>  <SCORE.SYSTEM.CONST>
0

>  <SCORE.SYSTEM.DIHEDRAL>
0

>  <SCORE.SYSTEM.SOLV>
0

>  <SCORE.SYSTEM.norm>
0

>  <SCORE.heavy>
9

>  <SCORE.norm>
-1.55078

>  <RMSD>
5.105

$$$$
ligand
 OpenBabel02271912143D
libRbt.so/2013.1/901 2013/11/27
  9  8  0  0  0  0  0  0  0  0999 V2000
  -49.4616   68.5113  -18.5014 C   0  0  0  0  0  0  0  0  0  0  0  0
  -48.4766   69.3161  -18.3230 O   0  0  0  0  0  0  0  0  0  0  0  0
  -49.2221   67.0651  -18.5891 C   0  0  0  0  0  0  0  0  0  0  0  0
  -50.6521   68.9403  -18.6505 O   0  0  0  0  0  0  0  0  0  0  0  0
  -48.9258   66.5463  -19.9603 C   0  0  0  0  0  0  0  0  0  0  0  0
  -47.6496   66.9567  -20.5975 C   0  0  0  0  0  0  0  0  0  0  0  0
  -47.6395   68.3788  -21.1324 C   0  0  0  0  0  0  0  0  0  0  0  0
  -48.3217   68.6885  -22.4742 C   0  0  0  0  0  0  0  0  0  0  0  0
  -47.7652   68.1533  -23.6179 N   0  0  0  0  0  0  0  0  0  0  0  0
  1  2  1  0  0  0  0
  1  3  1  0  0  0  0
  1  4  1  0  0  0  0
  3  5  1  0  0  0  0
  5  6  1  0  0  0  0
  6  7  1  0  0  0  0
  7  8  1  0  0  0  0
  8  9  1  0  0  0  0
M  END
>  <CHROM.1>
-88.41335609,67.38686164,-75.95348635,-78.62471162,-67.17648514,-48.69444255
68.08756646,-20.17849192,2.65406202,-1.12698515,2.53587901

>  <Name>
ligand

>  <RI>
0

>  <Rbt.Current_Directory>
/home/itssahil/PROJECTS/Mol_Feturizer/Test_systems_manuscript/rnas/4erj

>  <Rbt.Executable>
rbdock ($Id: //depot/dev/client3/rdock/2013.1/src/exe/rbdock.cxx#4 $)

>  <Rbt.Library>
libRbt.so (2013.1, Build901 2013/11/27)

>  <Rbt.Parameter_File>
/export/apps/rDock/src/rDock_2013.1_src/data/scripts/dock_solv.prm

>  <Rbt.Receptor>
prm/pocket_docking_8.prm

>  <SCORE>
-11.794

>  <SCORE.INTER>
-10.035

>  <SCORE.INTER.CONST>
1

>  <SCORE.INTER.POLAR>
0

>  <SCORE.INTER.ROT>
5

>  <SCORE.INTER.SOLV>
8.05807

>  <SCORE.INTER.VDW>
-16.3094

>  <SCORE.INTER.norm>
-1.115

>  <SCORE.INTRA>
-1.759

>  <SCORE.INTRA.DIHEDRAL>
-3.38926

>  <SCORE.INTRA.DIHEDRAL.0>
7.73744

>  <SCORE.INTRA.POLAR>
0

>  <SCORE.INTRA.POLAR.0>
0

>  <SCORE.INTRA.REPUL>
0

>  <SCORE.INTRA.REPUL.0>
0

>  <SCORE.INTRA.SOLV>
0.775008

>  <SCORE.INTRA.SOLV.lig_0>
-15.8342

>  <SCORE.INTRA.VDW>
-0.45187

>  <SCORE.INTRA.VDW.0>
-0.219494

>  <SCORE.INTRA.norm>
-0.195444

>  <SCORE.RESTR>
0

>  <SCORE.RESTR.CAVITY>
0

>  <SCORE.RESTR.norm>
0

>  <SCORE.SYSTEM>
0

>  <SCORE.SYSTEM.CONST>
0

>  <SCORE.SYSTEM.DIHEDRAL>
0

>  <SCORE.SYSTEM.SOLV>
0

>  <SCORE.SYSTEM.norm>
0

>  <SCORE.heavy>
9

>  <SCORE.norm>
-1.31045

>  <RMSD>
5.107

$$$$
ligand
 OpenBabel02271912143D
libRbt.so/2013.1/901 2013/11/27
  9  8  0  0  0  0  0  0  0  0999 V2000
  -49.4569   68.8434  -18.6545 C   0  0  0  0  0  0  0  0  0  0  0  0
  -50.6256   69.3763  -18.6684 O   0  0  0  0  0  0  0  0  0  0  0  0
  -49.3031   67.4181  -18.3362 C   0  0  0  0  0  0  0  0  0  0  0  0
  -48.4083   69.5348  -18.8689 O   0  0  0  0  0  0  0  0  0  0  0  0
  -48.4308   66.6428  -19.2718 C   0  0  0  0  0  0  0  0  0  0  0  0
  -48.8549   66.5373  -20.6903 C   0  0  0  0  0  0  0  0  0  0  0  0
  -48.6688   67.8086  -21.5013 C   0  0  0  0  0  0  0  0  0  0  0  0
  -47.2541   68.3677  -21.7198 C   0  0  0  0  0  0  0  0  0  0  0  0
  -46.3603   67.5961  -22.4338 N   0  0  0  0  0  0  0  0  0  0  0  0
  1  2  1  0  0  0  0
  1  3  1  0  0  0  0
  1  4  1  0  0  0  0
  3  5  1  0  0  0  0
  5  6  1  0  0  0  0
  6  7  1  0  0  0  0
  7  8  1  0  0  0  0
  8  9  1  0  0  0  0
M  END
>  <CHROM.1>
132.09358678,-62.50740344,73.89818269,63.11085351,63.58603207,-48.61103772
68.04531662,-19.99875487,-2.82040797,-0.91733936,-3.07932397

>  <Name>
ligand

>  <RI>
0

>  <Rbt.Current_Directory>
/home/itssahil/PROJECTS/Mol_Feturizer/Test_systems_manuscript/rnas/4erj

>  <Rbt.Executable>
rbdock ($Id: //depot/dev/client3/rdock/2013.1/src/exe/rbdock.cxx#4 $)

>  <Rbt.Library>
libRbt.so (2013.1, Build901 2013/11/27)

>  <Rbt.Parameter_File>
/export/apps/rDock/src/rDock_2013.1_src/data/scripts/dock_solv.prm

>  <Rbt.Receptor>
prm/pocket_docking_7.prm

>  <SCORE>
-13.0576

>  <SCORE.INTER>
-10.8746

>  <SCORE.INTER.CONST>
1

>  <SCORE.INTER.POLAR>
0

>  <SCORE.INTER.ROT>
5

>  <SCORE.INTER.SOLV>
7.08348

>  <SCORE.INTER.VDW>
-16.5442

>  <SCORE.INTER.norm>
-1.20829

>  <SCORE.INTRA>
-2.18298

>  <SCORE.INTRA.DIHEDRAL>
-5.22161

>  <SCORE.INTRA.DIHEDRAL.0>
7.73744

>  <SCORE.INTRA.POLAR>
0

>  <SCORE.INTRA.POLAR.0>
0

>  <SCORE.INTRA.REPUL>
0

>  <SCORE.INTRA.REPUL.0>
0

>  <SCORE.INTRA.SOLV>
1.00103

>  <SCORE.INTRA.SOLV.lig_0>
-15.8342

>  <SCORE.INTRA.VDW>
-0.0726922

>  <SCORE.INTRA.VDW.0>
-0.219494

>  <SCORE.INTRA.norm>
-0.242554

>  <SCORE.RESTR>
0

>  <SCORE.RESTR.CAVITY>
0

>  <SCORE.RESTR.norm>
0

>  <SCORE.SYSTEM>
0

>  <SCORE.SYSTEM.CONST>
0

>  <SCORE.SYSTEM.DIHEDRAL>
0

>  <SCORE.SYSTEM.SOLV>
0

>  <SCORE.SYSTEM.norm>
0

>  <SCORE.heavy>
9

>  <SCORE.norm>
-1.45084

>  <RMSD>
5.110

$$$$
ligand
 OpenBabel02271912143D
libRbt.so/2013.1/901 2013/11/27
  9  8  0  0  0  0  0  0  0  0999 V2000
  -50.9537   70.5648  -20.2990 C   0  0  0  0  0  0  0  0  0  0  0  0
  -50.9887   71.7552  -19.8176 O   0  0  0  0  0  0  0  0  0  0  0  0
  -50.8271   69.4117  -19.3985 C   0  0  0  0  0  0  0  0  0  0  0  0
  -50.9819   70.3546  -21.5554 O   0  0  0  0  0  0  0  0  0  0  0  0
  -49.4767   69.2240  -18.7833 C   0  0  0  0  0  0  0  0  0  0  0  0
  -49.1854   67.9231  -18.1307 C   0  0  0  0  0  0  0  0  0  0  0  0
  -49.0405   66.7538  -19.0901 C   0  0  0  0  0  0  0  0  0  0  0  0
  -47.9636   66.8013  -20.1854 C   0  0  0  0  0  0  0  0  0  0  0  0
  -48.0459   67.8079  -21.1257 N   0  0  0  0  0  0  0  0  0  0  0  0
  1  2  1  0  0  0  0
  1  3  1  0  0  0  0
  1  4  1  0  0  0  0
  3  5  1  0  0  0  0
  5  6  1  0  0  0  0
  6  7  1  0  0  0  0
  7  8  1  0  0  0  0
  8  9  1  0  0  0  0
M  END
>  <CHROM.1>
-73.09116599,-165.82904538,70.25744200,58.97314121,-61.53923543,-49.73800523
68.99464366,-19.83957030,-2.78685232,-0.94227068,1.81900762

>  <Name>
ligand

>  <RI>
0

>  <Rbt.Current_Directory>
/home/itssahil/PROJECTS/Mol_Feturizer/Test_systems_manuscript/rnas/4erj

>  <Rbt.Executable>
rbdock ($Id: //depot/dev/client3/rdock/2013.1/src/exe/rbdock.cxx#4 $)

>  <Rbt.Library>
libRbt.so (2013.1, Build901 2013/11/27)

>  <Rbt.Parameter_File>
/export/apps/rDock/src/rDock_2013.1_src/data/scripts/dock_solv.prm

>  <Rbt.Receptor>
prm/pocket_docking_6.prm

>  <SCORE>
-14.1246

>  <SCORE.INTER>
-12.7562

>  <SCORE.INTER.CONST>
1

>  <SCORE.INTER.POLAR>
0

>  <SCORE.INTER.ROT>
5

>  <SCORE.INTER.SOLV>
6.38939

>  <SCORE.INTER.VDW>
-17.5673

>  <SCORE.INTER.norm>
-1.41736

>  <SCORE.INTRA>
-1.36834

>  <SCORE.INTRA.DIHEDRAL>
-4.87713

>  <SCORE.INTRA.DIHEDRAL.0>
7.73744

>  <SCORE.INTRA.POLAR>
0

>  <SCORE.INTRA.POLAR.0>
0

>  <SCORE.INTRA.REPUL>
0

>  <SCORE.INTRA.REPUL.0>
0

>  <SCORE.INTRA.SOLV>
2.39747

>  <SCORE.INTRA.SOLV.lig_0>
-15.8342

>  <SCORE.INTRA.VDW>
-0.128514

>  <SCORE.INTRA.VDW.0>
-0.219494

>  <SCORE.INTRA.norm>
-0.152038

>  <SCORE.RESTR>
0

>  <SCORE.RESTR.CAVITY>
0

>  <SCORE.RESTR.norm>
0

>  <SCORE.SYSTEM>
0

>  <SCORE.SYSTEM.CONST>
0

>  <SCORE.SYSTEM.DIHEDRAL>
0

>  <SCORE.SYSTEM.SOLV>
0

>  <SCORE.SYSTEM.norm>
0

>  <SCORE.heavy>
9

>  <SCORE.norm>
-1.5694

>  <RMSD>
5.119

$$$$
ligand
 OpenBabel02271912143D
libRbt.so/2013.1/901 2013/11/27
  9  8  0  0  0  0  0  0  0  0999 V2000
  -50.6753   70.3104  -20.2460 C   0  0  0  0  0  0  0  0  0  0  0  0
  -50.4163   71.5612  -20.1113 O   0  0  0  0  0  0  0  0  0  0  0  0
  -51.0818   69.5147  -19.0807 C   0  0  0  0  0  0  0  0  0  0  0  0
  -50.5458   69.7217  -21.3687 O   0  0  0  0  0  0  0  0  0  0  0  0
  -49.9773   68.7808  -18.3887 C   0  0  0  0  0  0  0  0  0  0  0  0
  -49.3679   67.6223  -19.0883 C   0  0  0  0  0  0  0  0  0  0  0  0
  -48.4417   67.9925  -20.2345 C   0  0  0  0  0  0  0  0  0  0  0  0
  -47.8047   66.8810  -21.0832 C   0  0  0  0  0  0  0  0  0  0  0  0
  -46.9524   67.2568  -22.1012 N   0  0  0  0  0  0  0  0  0  0  0  0
  1  2  1  0  0  0  0
  1  3  1  0  0  0  0
  1  4  1  0  0  0  0
  3  5  1  0  0  0  0
  5  6  1  0  0  0  0
  6  7  1  0  0  0  0
  7  8  1  0  0  0  0
  8  9  1  0  0  0  0
M  END
>  <CHROM.1>
-94.83245068,-70.59178151,74.63821781,-176.91721590,-178.97067956,-49.48620249
68.88149547,-20.20495087,-2.96543420,-0.83895033,2.21104783

>  <Name>
ligand

>  <RI>
0

>  <Rbt.Current_Directory>
/home/itssahil/PROJECTS/Mol_Feturizer/Test_systems_manuscript/rnas/4erj

>  <Rbt.Executable>
rbdock ($Id: //depot/dev/client3/rdock/2013.1/src/exe/rbdock.cxx#4 $)

>  <Rbt.Library>
libRbt.so (2013.1, Build901 2013/11/27)

>  <Rbt.Parameter_File>
/export/apps/rDock/src/rDock_2013.1_src/data/scripts/dock_solv.prm

>  <Rbt.Receptor>
prm/pocket_docking_6.prm

>  <SCORE>
-14.0032

>  <SCORE.INTER>
-11.2034

>  <SCORE.INTER.CONST>
1

>  <SCORE.INTER.POLAR>
0

>  <SCORE.INTER.ROT>
5

>  <SCORE.INTER.SOLV>
7.6795

>  <SCORE.INTER.VDW>
-16.9621

>  <SCORE.INTER.norm>
-1.24482

>  <SCORE.INTRA>
-2.79982

>  <SCORE.INTRA.DIHEDRAL>
-4.79516

>  <SCORE.INTRA.DIHEDRAL.0>
7.73744

>  <SCORE.INTRA.POLAR>
0

>  <SCORE.INTRA.POLAR.0>
0

>  <SCORE.INTRA.REPUL>
0

>  <SCORE.INTRA.REPUL.0>
0

>  <SCORE.INTRA.SOLV>
-0.134172

>  <SCORE.INTRA.SOLV.lig_0>
-15.8342

>  <SCORE.INTRA.VDW>
-0.335157

>  <SCORE.INTRA.VDW.0>
-0.219494

>  <SCORE.INTRA.norm>
-0.311091

>  <SCORE.RESTR>
0

>  <SCORE.RESTR.CAVITY>
0

>  <SCORE.RESTR.norm>
0

>  <SCORE.SYSTEM>
0

>  <SCORE.SYSTEM.CONST>
0

>  <SCORE.SYSTEM.DIHEDRAL>
0

>  <SCORE.SYSTEM.SOLV>
0

>  <SCORE.SYSTEM.norm>
0

>  <SCORE.heavy>
9

>  <SCORE.norm>
-1.55591

>  <RMSD>
5.125

$$$$
ligand
 OpenBabel02271912143D
libRbt.so/2013.1/901 2013/11/27
  9  8  0  0  0  0  0  0  0  0999 V2000
  -50.6949   71.0325  -20.3602 C   0  0  0  0  0  0  0  0  0  0  0  0
  -51.4356   71.2955  -21.3761 O   0  0  0  0  0  0  0  0  0  0  0  0
  -51.2175   70.2067  -19.2642 C   0  0  0  0  0  0  0  0  0  0  0  0
  -49.5183   71.5099  -20.2538 O   0  0  0  0  0  0  0  0  0  0  0  0
  -50.6227   68.8389  -19.1522 C   0  0  0  0  0  0  0  0  0  0  0  0
  -49.1755   68.7341  -18.8396 C   0  0  0  0  0  0  0  0  0  0  0  0
  -48.5965   67.3374  -18.9900 C   0  0  0  0  0  0  0  0  0  0  0  0
  -48.5849   66.6669  -20.3728 C   0  0  0  0  0  0  0  0  0  0  0  0
  -47.9145   67.3088  -21.3939 N   0  0  0  0  0  0  0  0  0  0  0  0
  1  2  1  0  0  0  0
  1  3  1  0  0  0  0
  1  4  1  0  0  0  0
  3  5  1  0  0  0  0
  5  6  1  0  0  0  0
  6  7  1  0  0  0  0
  7  8  1  0  0  0  0
  8  9  1  0  0  0  0
M  END
>  <CHROM.1>
109.51884522,63.94550609,-169.46381654,63.24158986,58.75429353,-49.75894857
69.25359995,-20.01951160,-2.54800883,-0.90054927,2.18659015

>  <Name>
ligand

>  <RI>
0

>  <Rbt.Current_Directory>
/home/itssahil/PROJECTS/Mol_Feturizer/Test_systems_manuscript/rnas/4erj

>  <Rbt.Executable>
rbdock ($Id: //depot/dev/client3/rdock/2013.1/src/exe/rbdock.cxx#4 $)

>  <Rbt.Library>
libRbt.so (2013.1, Build901 2013/11/27)

>  <Rbt.Parameter_File>
/export/apps/rDock/src/rDock_2013.1_src/data/scripts/dock_solv.prm

>  <Rbt.Receptor>
prm/blind_docking_100.prm

>  <SCORE>
-14.7691

>  <SCORE.INTER>
-12.3226

>  <SCORE.INTER.CONST>
1

>  <SCORE.INTER.POLAR>
0

>  <SCORE.INTER.ROT>
5

>  <SCORE.INTER.SOLV>
7.65383

>  <SCORE.INTER.VDW>
-17.6997

>  <SCORE.INTER.norm>
-1.36918

>  <SCORE.INTRA>
-2.44651

>  <SCORE.INTRA.DIHEDRAL>
-5.431

>  <SCORE.INTRA.DIHEDRAL.0>
7.73744

>  <SCORE.INTRA.POLAR>
0

>  <SCORE.INTRA.POLAR.0>
0

>  <SCORE.INTRA.REPUL>
0

>  <SCORE.INTRA.REPUL.0>
0

>  <SCORE.INTRA.SOLV>
1.08234

>  <SCORE.INTRA.SOLV.lig_0>
-15.8342

>  <SCORE.INTRA.VDW>
-0.272183

>  <SCORE.INTRA.VDW.0>
-0.219494

>  <SCORE.INTRA.norm>
-0.271835

>  <SCORE.RESTR>
0

>  <SCORE.RESTR.CAVITY>
0

>  <SCORE.RESTR.norm>
0

>  <SCORE.SYSTEM>
0

>  <SCORE.SYSTEM.CONST>
0

>  <SCORE.SYSTEM.DIHEDRAL>
0

>  <SCORE.SYSTEM.SOLV>
0

>  <SCORE.SYSTEM.norm>
0

>  <SCORE.heavy>
9

>  <SCORE.norm>
-1.64101

>  <RMSD>
5.132

$$$$
ligand
 OpenBabel02271912143D
libRbt.so/2013.1/901 2013/11/27
  9  8  0  0  0  0  0  0  0  0999 V2000
  -50.6928   70.3340  -20.2631 C   0  0  0  0  0  0  0  0  0  0  0  0
  -50.5154   69.7420  -21.3891 O   0  0  0  0  0  0  0  0  0  0  0  0
  -51.1372   69.5675  -19.0920 C   0  0  0  0  0  0  0  0  0  0  0  0
  -50.5345   71.5925  -20.1414 O   0  0  0  0  0  0  0  0  0  0  0  0
  -50.0638   68.8104  -18.3765 C   0  0  0  0  0  0  0  0  0  0  0  0
  -49.4706   67.6337  -19.0594 C   0  0  0  0  0  0  0  0  0  0  0  0
  -48.5087   67.9753  -20.1849 C   0  0  0  0  0  0  0  0  0  0  0  0
  -47.8610   66.8433  -20.9979 C   0  0  0  0  0  0  0  0  0  0  0  0
  -46.9656   67.1928  -21.9879 N   0  0  0  0  0  0  0  0  0  0  0  0
  1  2  1  0  0  0  0
  1  3  1  0  0  0  0
  1  4  1  0  0  0  0
  3  5  1  0  0  0  0
  5  6  1  0  0  0  0
  6  7  1  0  0  0  0
  7  8  1  0  0  0  0
  8  9  1  0  0  0  0
M  END
>  <CHROM.1>
80.61594361,-69.88059404,74.97487142,-178.15436660,-178.29301964,-49.54050876
68.88740540,-20.18245362,-2.92661352,-0.83584749,2.22195209

>  <Name>
ligand

>  <RI>
0

>  <Rbt.Current_Directory>
/home/itssahil/PROJECTS/Mol_Feturizer/Test_systems_manuscript/rnas/4erj

>  <Rbt.Executable>
rbdock ($Id: //depot/dev/client3/rdock/2013.1/src/exe/rbdock.cxx#4 $)

>  <Rbt.Library>
libRbt.so (2013.1, Build901 2013/11/27)

>  <Rbt.Parameter_File>
/export/apps/rDock/src/rDock_2013.1_src/data/scripts/dock_solv.prm

>  <Rbt.Receptor>
prm/pocket_docking_4.prm

>  <SCORE>
-14.0121

>  <SCORE.INTER>
-11.3182

>  <SCORE.INTER.CONST>
1

>  <SCORE.INTER.POLAR>
0

>  <SCORE.INTER.ROT>
5

>  <SCORE.INTER.SOLV>
7.80455

>  <SCORE.INTER.VDW>
-17.0803

>  <SCORE.INTER.norm>
-1.25757

>  <SCORE.INTRA>
-2.69399

>  <SCORE.INTRA.DIHEDRAL>
-4.65252

>  <SCORE.INTRA.DIHEDRAL.0>
7.73744

>  <SCORE.INTRA.POLAR>
0

>  <SCORE.INTRA.POLAR.0>
0

>  <SCORE.INTRA.REPUL>
0

>  <SCORE.INTRA.REPUL.0>
0

>  <SCORE.INTRA.SOLV>
-0.133654

>  <SCORE.INTRA.SOLV.lig_0>
-15.8342

>  <SCORE.INTRA.VDW>
-0.300904

>  <SCORE.INTRA.VDW.0>
-0.219494

>  <SCORE.INTRA.norm>
-0.299332

>  <SCORE.RESTR>
0

>  <SCORE.RESTR.CAVITY>
0

>  <SCORE.RESTR.norm>
0

>  <SCORE.SYSTEM>
0

>  <SCORE.SYSTEM.CONST>
0

>  <SCORE.SYSTEM.DIHEDRAL>
0

>  <SCORE.SYSTEM.SOLV>
0

>  <SCORE.SYSTEM.norm>
0

>  <SCORE.heavy>
9

>  <SCORE.norm>
-1.55691

>  <RMSD>
5.135

$$$$
ligand
 OpenBabel02271912143D
libRbt.so/2013.1/901 2013/11/27
  9  8  0  0  0  0  0  0  0  0999 V2000
  -50.5479   70.5236  -20.1496 C   0  0  0  0  0  0  0  0  0  0  0  0
  -51.3587   70.8626  -21.0864 O   0  0  0  0  0  0  0  0  0  0  0  0
  -51.0052   69.6472  -19.0636 C   0  0  0  0  0  0  0  0  0  0  0  0
  -49.3540   70.9670  -20.1109 O   0  0  0  0  0  0  0  0  0  0  0  0
  -49.9595   68.7512  -18.4796 C   0  0  0  0  0  0  0  0  0  0  0  0
  -49.4620   67.6286  -19.3135 C   0  0  0  0  0  0  0  0  0  0  0  0
  -48.6572   68.0541  -20.5300 C   0  0  0  0  0  0  0  0  0  0  0  0
  -48.1287   66.9859  -21.5003 C   0  0  0  0  0  0  0  0  0  0  0  0
  -47.4091   67.4126  -22.5976 N   0  0  0  0  0  0  0  0  0  0  0  0
  1  2  1  0  0  0  0
  1  3  1  0  0  0  0
  1  4  1  0  0  0  0
  3  5  1  0  0  0  0
  5  6  1  0  0  0  0
  6  7  1  0  0  0  0
  7  8  1  0  0  0  0
  8  9  1  0  0  0  0
M  END
>  <CHROM.1>
148.87792401,-70.30426289,67.72934524,-177.86169607,179.61240912,-49.55203830
69.01693192,-20.32560064,-3.00523420,-0.90690876,2.23992289

>  <Name>
ligand

>  <RI>
0

>  <Rbt.Current_Directory>
/home/itssahil/PROJECTS/Mol_Feturizer/Test_systems_manuscript/rnas/4erj

>  <Rbt.Executable>
rbdock ($Id: //depot/dev/client3/rdock/2013.1/src/exe/rbdock.cxx#4 $)

>  <Rbt.Library>
libRbt.so (2013.1, Build901 2013/11/27)

>  <Rbt.Parameter_File>
/export/apps/rDock/src/rDock_2013.1_src/data/scripts/dock_solv.prm

>  <Rbt.Receptor>
prm/pocket_docking_4.prm

>  <SCORE>
-13.7208

>  <SCORE.INTER>
-11.2097

>  <SCORE.INTER.CONST>
1

>  <SCORE.INTER.POLAR>
0

>  <SCORE.INTER.ROT>
5

>  <SCORE.INTER.SOLV>
7.68593

>  <SCORE.INTER.VDW>
-16.9684

>  <SCORE.INTER.norm>
-1.24552

>  <SCORE.INTRA>
-2.51114

>  <SCORE.INTRA.DIHEDRAL>
-5.45583

>  <SCORE.INTRA.DIHEDRAL.0>
7.73744

>  <SCORE.INTRA.POLAR>
0

>  <SCORE.INTRA.POLAR.0>
0

>  <SCORE.INTRA.REPUL>
0

>  <SCORE.INTRA.REPUL.0>
0

>  <SCORE.INTRA.SOLV>
-0.137565

>  <SCORE.INTRA.SOLV.lig_0>
-15.8342

>  <SCORE.INTRA.VDW>
0.285557

>  <SCORE.INTRA.VDW.0>
-0.219494

>  <SCORE.INTRA.norm>
-0.279015

>  <SCORE.RESTR>
0

>  <SCORE.RESTR.CAVITY>
0

>  <SCORE.RESTR.norm>
0

>  <SCORE.SYSTEM>
0

>  <SCORE.SYSTEM.CONST>
0

>  <SCORE.SYSTEM.DIHEDRAL>
0

>  <SCORE.SYSTEM.SOLV>
0

>  <SCORE.SYSTEM.norm>
0

>  <SCORE.heavy>
9

>  <SCORE.norm>
-1.52453

>  <RMSD>
5.138

$$$$
ligand
 OpenBabel02271912143D
libRbt.so/2013.1/901 2013/11/27
  9  8  0  0  0  0  0  0  0  0999 V2000
  -50.9700   70.8244  -20.3785 C   0  0  0  0  0  0  0  0  0  0  0  0
  -50.9492   72.0558  -20.0136 O   0  0  0  0  0  0  0  0  0  0  0  0
  -50.7523   69.7612  -19.3892 C   0  0  0  0  0  0  0  0  0  0  0  0
  -51.1328   70.4952  -21.5986 O   0  0  0  0  0  0  0  0  0  0  0  0
  -49.3216   69.4776  -19.0572 C   0  0  0  0  0  0  0  0  0  0  0  0
  -49.0309   68.3335  -18.1575 C   0  0  0  0  0  0  0  0  0  0  0  0
  -49.1702   66.9674  -18.8079 C   0  0  0  0  0  0  0  0  0  0  0  0
  -48.2566   66.5921  -19.9853 C   0  0  0  0  0  0  0  0  0  0  0  0
  -48.3225   67.3686  -21.1241 N   0  0  0  0  0  0  0  0  0  0  0  0
  1  2  1  0  0  0  0
  1  3  1  0  0  0  0
  1  4  1  0  0  0  0
  3  5  1  0  0  0  0
  5  6  1  0  0  0  0
  6  7  1  0  0  0  0
  7  8  1  0  0  0  0
  8  9  1  0  0  0  0
M  END
>  <CHROM.1>
-81.83434807,-174.60409076,75.09509177,62.56559883,-60.56175005,-49.78786516
69.13747759,-19.85581928,-3.07048732,-1.04418699,1.44499947

>  <Name>
ligand

>  <RI>
0

>  <Rbt.Current_Directory>
/home/itssahil/PROJECTS/Mol_Feturizer/Test_systems_manuscript/rnas/4erj

>  <Rbt.Executable>
rbdock ($Id: //depot/dev/client3/rdock/2013.1/src/exe/rbdock.cxx#4 $)

>  <Rbt.Library>
libRbt.so (2013.1, Build901 2013/11/27)

>  <Rbt.Parameter_File>
/export/apps/rDock/src/rDock_2013.1_src/data/scripts/dock_solv.prm

>  <Rbt.Receptor>
prm/pocket_docking_7.prm

>  <SCORE>
-14.0773

>  <SCORE.INTER>
-12.4055

>  <SCORE.INTER.CONST>
1

>  <SCORE.INTER.POLAR>
0

>  <SCORE.INTER.ROT>
5

>  <SCORE.INTER.SOLV>
7.32373

>  <SCORE.INTER.VDW>
-17.6449

>  <SCORE.INTER.norm>
-1.37838

>  <SCORE.INTRA>
-1.67184

>  <SCORE.INTRA.DIHEDRAL>
-5.09427

>  <SCORE.INTRA.DIHEDRAL.0>
7.73744

>  <SCORE.INTRA.POLAR>
0

>  <SCORE.INTRA.POLAR.0>
0

>  <SCORE.INTRA.REPUL>
0

>  <SCORE.INTRA.REPUL.0>
0

>  <SCORE.INTRA.SOLV>
2.20851

>  <SCORE.INTRA.SOLV.lig_0>
-15.8342

>  <SCORE.INTRA.VDW>
-0.228961

>  <SCORE.INTRA.VDW.0>
-0.219494

>  <SCORE.INTRA.norm>
-0.18576

>  <SCORE.RESTR>
0

>  <SCORE.RESTR.CAVITY>
0

>  <SCORE.RESTR.norm>
0

>  <SCORE.SYSTEM>
0

>  <SCORE.SYSTEM.CONST>
0

>  <SCORE.SYSTEM.DIHEDRAL>
0

>  <SCORE.SYSTEM.SOLV>
0

>  <SCORE.SYSTEM.norm>
0

>  <SCORE.heavy>
9

>  <SCORE.norm>
-1.56414

>  <RMSD>
5.139

$$$$
ligand
 OpenBabel02271912143D
libRbt.so/2013.1/901 2013/11/27
  9  8  0  0  0  0  0  0  0  0999 V2000
  -50.9568   70.6141  -20.3074 C   0  0  0  0  0  0  0  0  0  0  0  0
  -51.0749   70.4671  -21.5780 O   0  0  0  0  0  0  0  0  0  0  0  0
  -50.8099   69.4368  -19.4422 C   0  0  0  0  0  0  0  0  0  0  0  0
  -51.0080   71.7654  -19.7638 O   0  0  0  0  0  0  0  0  0  0  0  0
  -49.4562   69.2539  -18.8329 C   0  0  0  0  0  0  0  0  0  0  0  0
  -49.1815   67.9815  -18.1196 C   0  0  0  0  0  0  0  0  0  0  0  0
  -49.1110   66.7572  -19.0167 C   0  0  0  0  0  0  0  0  0  0  0  0
  -48.0495   66.6909  -20.1260 C   0  0  0  0  0  0  0  0  0  0  0  0
  -48.1250   67.6181  -21.1453 N   0  0  0  0  0  0  0  0  0  0  0  0
  1  2  1  0  0  0  0
  1  3  1  0  0  0  0
  1  4  1  0  0  0  0
  3  5  1  0  0  0  0
  5  6  1  0  0  0  0
  6  7  1  0  0  0  0
  7  8  1  0  0  0  0
  8  9  1  0  0  0  0
M  END
>  <CHROM.1>
109.23261204,-170.88572063,68.51008881,60.71959263,-63.96149991,-49.77353219
68.99454700,-19.83305639,-2.85569735,-0.97597619,1.72995701

>  <Name>
ligand

>  <RI>
0

>  <Rbt.Current_Directory>
/home/itssahil/PROJECTS/Mol_Feturizer/Test_systems_manuscript/rnas/4erj

>  <Rbt.Executable>
rbdock ($Id: //depot/dev/client3/rdock/2013.1/src/exe/rbdock.cxx#4 $)

>  <Rbt.Library>
libRbt.so (2013.1, Build901 2013/11/27)

>  <Rbt.Parameter_File>
/export/apps/rDock/src/rDock_2013.1_src/data/scripts/dock_solv.prm

>  <Rbt.Receptor>
prm/pocket_docking_6.prm

>  <SCORE>
-13.9183

>  <SCORE.INTER>
-12.3051

>  <SCORE.INTER.CONST>
1

>  <SCORE.INTER.POLAR>
0

>  <SCORE.INTER.ROT>
5

>  <SCORE.INTER.SOLV>
6.78121

>  <SCORE.INTER.VDW>
-17.3971

>  <SCORE.INTER.norm>
-1.36723

>  <SCORE.INTRA>
-1.61325

>  <SCORE.INTRA.DIHEDRAL>
-5.29663

>  <SCORE.INTRA.DIHEDRAL.0>
7.73744

>  <SCORE.INTRA.POLAR>
0

>  <SCORE.INTRA.POLAR.0>
0

>  <SCORE.INTRA.REPUL>
0

>  <SCORE.INTRA.REPUL.0>
0

>  <SCORE.INTRA.SOLV>
2.29274

>  <SCORE.INTRA.SOLV.lig_0>
-15.8342

>  <SCORE.INTRA.VDW>
-0.111303

>  <SCORE.INTRA.VDW.0>
-0.219494

>  <SCORE.INTRA.norm>
-0.179249

>  <SCORE.RESTR>
0

>  <SCORE.RESTR.CAVITY>
0

>  <SCORE.RESTR.norm>
0

>  <SCORE.SYSTEM>
0

>  <SCORE.SYSTEM.CONST>
0

>  <SCORE.SYSTEM.DIHEDRAL>
0

>  <SCORE.SYSTEM.SOLV>
0

>  <SCORE.SYSTEM.norm>
0

>  <SCORE.heavy>
9

>  <SCORE.norm>
-1.54648

>  <RMSD>
5.143

$$$$
ligand
 OpenBabel02271912143D
libRbt.so/2013.1/901 2013/11/27
  9  8  0  0  0  0  0  0  0  0999 V2000
  -50.7404   69.8656  -19.7331 C   0  0  0  0  0  0  0  0  0  0  0  0
  -50.9815   70.0475  -20.9815 O   0  0  0  0  0  0  0  0  0  0  0  0
  -49.3629   69.6422  -19.2758 C   0  0  0  0  0  0  0  0  0  0  0  0
  -51.6797   69.8293  -18.8729 O   0  0  0  0  0  0  0  0  0  0  0  0
  -49.1956   68.5727  -18.2436 C   0  0  0  0  0  0  0  0  0  0  0  0
  -49.3894   67.1631  -18.6661 C   0  0  0  0  0  0  0  0  0  0  0  0
  -48.2611   66.5964  -19.5114 C   0  0  0  0  0  0  0  0  0  0  0  0
  -47.9514   67.2230  -20.8800 C   0  0  0  0  0  0  0  0  0  0  0  0
  -48.9410   67.1913  -21.8412 N   0  0  0  0  0  0  0  0  0  0  0  0
  1  2  1  0  0  0  0
  1  3  1  0  0  0  0
  1  4  1  0  0  0  0
  3  5  1  0  0  0  0
  5  6  1  0  0  0  0
  6  7  1  0  0  0  0
  7  8  1  0  0  0  0
  8  9  1  0  0  0  0
M  END
>  <CHROM.1>
-137.69634258,70.44861793,73.47070312,-62.53858492,-61.56192119,-49.64672807
68.48263079,-19.78338475,2.98317256,-0.84770750,1.60549037

>  <Name>
ligand

>  <RI>
0

>  <Rbt.Current_Directory>
/home/itssahil/PROJECTS/Mol_Feturizer/Test_systems_manuscript/rnas/4erj

>  <Rbt.Executable>
rbdock ($Id: //depot/dev/client3/rdock/2013.1/src/exe/rbdock.cxx#4 $)

>  <Rbt.Library>
libRbt.so (2013.1, Build901 2013/11/27)

>  <Rbt.Parameter_File>
/export/apps/rDock/src/rDock_2013.1_src/data/scripts/dock_solv.prm

>  <Rbt.Receptor>
prm/pocket_docking_6.prm

>  <SCORE>
-12.736

>  <SCORE.INTER>
-11.574

>  <SCORE.INTER.CONST>
1

>  <SCORE.INTER.POLAR>
0

>  <SCORE.INTER.ROT>
5

>  <SCORE.INTER.SOLV>
9.17925

>  <SCORE.INTER.VDW>
-17.7091

>  <SCORE.INTER.norm>
-1.286

>  <SCORE.INTRA>
-1.16198

>  <SCORE.INTRA.DIHEDRAL>
-4.76049

>  <SCORE.INTRA.DIHEDRAL.0>
7.73744

>  <SCORE.INTRA.POLAR>
0

>  <SCORE.INTRA.POLAR.0>
0

>  <SCORE.INTRA.REPUL>
0

>  <SCORE.INTRA.REPUL.0>
0

>  <SCORE.INTRA.SOLV>
2.13728

>  <SCORE.INTRA.SOLV.lig_0>
-15.8342

>  <SCORE.INTRA.VDW>
0.149625

>  <SCORE.INTRA.VDW.0>
-0.219494

>  <SCORE.INTRA.norm>
-0.129109

>  <SCORE.RESTR>
0

>  <SCORE.RESTR.CAVITY>
0

>  <SCORE.RESTR.norm>
0

>  <SCORE.SYSTEM>
0

>  <SCORE.SYSTEM.CONST>
0

>  <SCORE.SYSTEM.DIHEDRAL>
0

>  <SCORE.SYSTEM.SOLV>
0

>  <SCORE.SYSTEM.norm>
0

>  <SCORE.heavy>
9

>  <SCORE.norm>
-1.41511

>  <RMSD>
5.143

$$$$
ligand
 OpenBabel02271912143D
libRbt.so/2013.1/901 2013/11/27
  9  8  0  0  0  0  0  0  0  0999 V2000
  -49.7936   69.5229  -19.1292 C   0  0  0  0  0  0  0  0  0  0  0  0
  -51.0511   69.7784  -19.1886 O   0  0  0  0  0  0  0  0  0  0  0  0
  -49.2788   68.6002  -18.1094 C   0  0  0  0  0  0  0  0  0  0  0  0
  -48.9626   70.0882  -19.9124 O   0  0  0  0  0  0  0  0  0  0  0  0
  -49.2616   67.1567  -18.5011 C   0  0  0  0  0  0  0  0  0  0  0  0
  -48.2636   66.7225  -19.5103 C   0  0  0  0  0  0  0  0  0  0  0  0
  -48.4943   67.2773  -20.9059 C   0  0  0  0  0  0  0  0  0  0  0  0
  -47.5071   66.9312  -22.0316 C   0  0  0  0  0  0  0  0  0  0  0  0
  -47.6750   67.5569  -23.2500 N   0  0  0  0  0  0  0  0  0  0  0  0
  1  2  1  0  0  0  0
  1  3  1  0  0  0  0
  1  4  1  0  0  0  0
  3  5  1  0  0  0  0
  5  6  1  0  0  0  0
  6  7  1  0  0  0  0
  7  8  1  0  0  0  0
  8  9  1  0  0  0  0
M  END
>  <CHROM.1>
88.29490627,71.50730991,-67.45896446,178.37820036,-173.77818881,-48.94075255
68.21451151,-20.05828137,2.81506921,-1.02106839,2.19970837

>  <Name>
ligand

>  <RI>
0

>  <Rbt.Current_Directory>
/home/itssahil/PROJECTS/Mol_Feturizer/Test_systems_manuscript/rnas/4erj

>  <Rbt.Executable>
rbdock ($Id: //depot/dev/client3/rdock/2013.1/src/exe/rbdock.cxx#4 $)

>  <Rbt.Library>
libRbt.so (2013.1, Build901 2013/11/27)

>  <Rbt.Parameter_File>
/export/apps/rDock/src/rDock_2013.1_src/data/scripts/dock_solv.prm

>  <Rbt.Receptor>
prm/pocket_docking_3.prm

>  <SCORE>
-14.145

>  <SCORE.INTER>
-11.2946

>  <SCORE.INTER.CONST>
1

>  <SCORE.INTER.POLAR>
0

>  <SCORE.INTER.ROT>
5

>  <SCORE.INTER.SOLV>
8.51583

>  <SCORE.INTER.VDW>
-17.3016

>  <SCORE.INTER.norm>
-1.25495

>  <SCORE.INTRA>
-2.85042

>  <SCORE.INTRA.DIHEDRAL>
-5.03242

>  <SCORE.INTRA.DIHEDRAL.0>
7.73744

>  <SCORE.INTRA.POLAR>
0

>  <SCORE.INTRA.POLAR.0>
0

>  <SCORE.INTRA.REPUL>
0

>  <SCORE.INTRA.REPUL.0>
0

>  <SCORE.INTRA.SOLV>
-0.133609

>  <SCORE.INTRA.SOLV.lig_0>
-15.8342

>  <SCORE.INTRA.VDW>
-0.267408

>  <SCORE.INTRA.VDW.0>
-0.219494

>  <SCORE.INTRA.norm>
-0.316714

>  <SCORE.RESTR>
0

>  <SCORE.RESTR.CAVITY>
0

>  <SCORE.RESTR.norm>
0

>  <SCORE.SYSTEM>
0

>  <SCORE.SYSTEM.CONST>
0

>  <SCORE.SYSTEM.DIHEDRAL>
0

>  <SCORE.SYSTEM.SOLV>
0

>  <SCORE.SYSTEM.norm>
0

>  <SCORE.heavy>
9

>  <SCORE.norm>
-1.57166

>  <RMSD>
5.145

$$$$
ligand
 OpenBabel02271912143D
libRbt.so/2013.1/901 2013/11/27
  9  8  0  0  0  0  0  0  0  0999 V2000
  -49.7751   69.4948  -19.0886 C   0  0  0  0  0  0  0  0  0  0  0  0
  -48.9493   70.1511  -19.8216 O   0  0  0  0  0  0  0  0  0  0  0  0
  -49.2741   68.5389  -18.0928 C   0  0  0  0  0  0  0  0  0  0  0  0
  -51.0351   69.6184  -19.2323 O   0  0  0  0  0  0  0  0  0  0  0  0
  -49.2683   67.1069  -18.5250 C   0  0  0  0  0  0  0  0  0  0  0  0
  -48.2663   66.6911  -19.5380 C   0  0  0  0  0  0  0  0  0  0  0  0
  -48.4761   67.2922  -20.9176 C   0  0  0  0  0  0  0  0  0  0  0  0
  -47.4565   67.0066  -22.0315 C   0  0  0  0  0  0  0  0  0  0  0  0
  -47.6285   67.6478  -23.2412 N   0  0  0  0  0  0  0  0  0  0  0  0
  1  2  1  0  0  0  0
  1  3  1  0  0  0  0
  1  4  1  0  0  0  0
  3  5  1  0  0  0  0
  5  6  1  0  0  0  0
  6  7  1  0  0  0  0
  7  8  1  0  0  0  0
  8  9  1  0  0  0  0
M  END
>  <CHROM.1>
-97.88767809,71.70257078,-67.20410110,176.30879884,-175.37936862,-48.92326805
68.20398518,-20.05272469,2.84221154,-1.01874915,2.26541613

>  <Name>
ligand

>  <RI>
0

>  <Rbt.Current_Directory>
/home/itssahil/PROJECTS/Mol_Feturizer/Test_systems_manuscript/rnas/4erj

>  <Rbt.Executable>
rbdock ($Id: //depot/dev/client3/rdock/2013.1/src/exe/rbdock.cxx#4 $)

>  <Rbt.Library>
libRbt.so (2013.1, Build901 2013/11/27)

>  <Rbt.Parameter_File>
/export/apps/rDock/src/rDock_2013.1_src/data/scripts/dock_solv.prm

>  <Rbt.Receptor>
prm/pocket_docking_4.prm

>  <SCORE>
-14.1932

>  <SCORE.INTER>
-11.1889

>  <SCORE.INTER.CONST>
1

>  <SCORE.INTER.POLAR>
0

>  <SCORE.INTER.ROT>
5

>  <SCORE.INTER.SOLV>
8.28437

>  <SCORE.INTER.VDW>
-17.1541

>  <SCORE.INTER.norm>
-1.24321

>  <SCORE.INTRA>
-3.00431

>  <SCORE.INTRA.DIHEDRAL>
-5.23789

>  <SCORE.INTRA.DIHEDRAL.0>
7.73744

>  <SCORE.INTRA.POLAR>
0

>  <SCORE.INTRA.POLAR.0>
0

>  <SCORE.INTRA.REPUL>
0

>  <SCORE.INTRA.REPUL.0>
0

>  <SCORE.INTRA.SOLV>
-0.13524

>  <SCORE.INTRA.SOLV.lig_0>
-15.8342

>  <SCORE.INTRA.VDW>
-0.317739

>  <SCORE.INTRA.VDW.0>
-0.219494

>  <SCORE.INTRA.norm>
-0.333812

>  <SCORE.RESTR>
0

>  <SCORE.RESTR.CAVITY>
0

>  <SCORE.RESTR.norm>
0

>  <SCORE.SYSTEM>
0

>  <SCORE.SYSTEM.CONST>
0

>  <SCORE.SYSTEM.DIHEDRAL>
0

>  <SCORE.SYSTEM.SOLV>
0

>  <SCORE.SYSTEM.norm>
0

>  <SCORE.heavy>
9

>  <SCORE.norm>
-1.57702

>  <RMSD>
5.146

$$$$
ligand
 OpenBabel02271912143D
libRbt.so/2013.1/901 2013/11/27
  9  8  0  0  0  0  0  0  0  0999 V2000
  -49.4579   68.6663  -18.4255 C   0  0  0  0  0  0  0  0  0  0  0  0
  -50.6648   69.1055  -18.4485 O   0  0  0  0  0  0  0  0  0  0  0  0
  -49.2023   67.2282  -18.2749 C   0  0  0  0  0  0  0  0  0  0  0  0
  -48.4612   69.4577  -18.4864 O   0  0  0  0  0  0  0  0  0  0  0  0
  -48.3872   66.6046  -19.3631 C   0  0  0  0  0  0  0  0  0  0  0  0
  -48.9478   66.6041  -20.7375 C   0  0  0  0  0  0  0  0  0  0  0  0
  -48.9726   67.9664  -21.4099 C   0  0  0  0  0  0  0  0  0  0  0  0
  -47.6482   68.6585  -21.7686 C   0  0  0  0  0  0  0  0  0  0  0  0
  -46.8184   68.0303  -22.6747 N   0  0  0  0  0  0  0  0  0  0  0  0
  1  2  1  0  0  0  0
  1  3  1  0  0  0  0
  1  4  1  0  0  0  0
  3  5  1  0  0  0  0
  5  6  1  0  0  0  0
  6  7  1  0  0  0  0
  7  8  1  0  0  0  0
  8  9  1  0  0  0  0
M  END
>  <CHROM.1>
123.08696854,-63.12597536,71.48183745,66.59409720,62.32699315,-48.74344726
68.06419140,-19.93218364,-2.91963323,-1.05426437,-3.06218773

>  <Name>
ligand

>  <RI>
0

>  <Rbt.Current_Directory>
/home/itssahil/PROJECTS/Mol_Feturizer/Test_systems_manuscript/rnas/4erj

>  <Rbt.Executable>
rbdock ($Id: //depot/dev/client3/rdock/2013.1/src/exe/rbdock.cxx#4 $)

>  <Rbt.Library>
libRbt.so (2013.1, Build901 2013/11/27)

>  <Rbt.Parameter_File>
/export/apps/rDock/src/rDock_2013.1_src/data/scripts/dock_solv.prm

>  <Rbt.Receptor>
prm/pocket_docking_3.prm

>  <SCORE>
-13.0759

>  <SCORE.INTER>
-10.7184

>  <SCORE.INTER.CONST>
1

>  <SCORE.INTER.POLAR>
0

>  <SCORE.INTER.ROT>
5

>  <SCORE.INTER.SOLV>
6.9854

>  <SCORE.INTER.VDW>
-16.4074

>  <SCORE.INTER.norm>
-1.19093

>  <SCORE.INTRA>
-2.35757

>  <SCORE.INTRA.DIHEDRAL>
-5.28919

>  <SCORE.INTRA.DIHEDRAL.0>
7.73744

>  <SCORE.INTRA.POLAR>
0

>  <SCORE.INTRA.POLAR.0>
0

>  <SCORE.INTRA.REPUL>
0

>  <SCORE.INTRA.REPUL.0>
0

>  <SCORE.INTRA.SOLV>
0.981982

>  <SCORE.INTRA.SOLV.lig_0>
-15.8342

>  <SCORE.INTRA.VDW>
-0.203964

>  <SCORE.INTRA.VDW.0>
-0.219494

>  <SCORE.INTRA.norm>
-0.261952

>  <SCORE.RESTR>
0

>  <SCORE.RESTR.CAVITY>
0

>  <SCORE.RESTR.norm>
0

>  <SCORE.SYSTEM>
0

>  <SCORE.SYSTEM.CONST>
0

>  <SCORE.SYSTEM.DIHEDRAL>
0

>  <SCORE.SYSTEM.SOLV>
0

>  <SCORE.SYSTEM.norm>
0

>  <SCORE.heavy>
9

>  <SCORE.norm>
-1.45288

>  <RMSD>
5.147

$$$$
ligand
 OpenBabel02271912143D
libRbt.so/2013.1/901 2013/11/27
  9  8  0  0  0  0  0  0  0  0999 V2000
  -50.4778   69.4963  -19.2559 C   0  0  0  0  0  0  0  0  0  0  0  0
  -51.6005   69.6242  -18.6451 O   0  0  0  0  0  0  0  0  0  0  0  0
  -49.3418   68.8575  -18.5793 C   0  0  0  0  0  0  0  0  0  0  0  0
  -50.3055   69.9533  -20.4329 O   0  0  0  0  0  0  0  0  0  0  0  0
  -49.3096   67.3638  -18.6525 C   0  0  0  0  0  0  0  0  0  0  0  0
  -49.1796   66.7365  -19.9913 C   0  0  0  0  0  0  0  0  0  0  0  0
  -47.8035   66.8722  -20.6213 C   0  0  0  0  0  0  0  0  0  0  0  0
  -47.3248   68.2496  -21.1065 C   0  0  0  0  0  0  0  0  0  0  0  0
  -48.0374   68.8587  -22.1190 N   0  0  0  0  0  0  0  0  0  0  0  0
  1  2  1  0  0  0  0
  1  3  1  0  0  0  0
  1  4  1  0  0  0  0
  3  5  1  0  0  0  0
  5  6  1  0  0  0  0
  6  7  1  0  0  0  0
  7  8  1  0  0  0  0
  8  9  1  0  0  0  0
M  END
>  <CHROM.1>
84.65001374,62.82962212,72.34009592,-69.92558082,-62.61273667,-49.29758606
68.47054573,-19.93191834,3.12730890,-0.73519233,2.41761038

>  <Name>
ligand

>  <RI>
0

>  <Rbt.Current_Directory>
/home/itssahil/PROJECTS/Mol_Feturizer/Test_systems_manuscript/rnas/4erj

>  <Rbt.Executable>
rbdock ($Id: //depot/dev/client3/rdock/2013.1/src/exe/rbdock.cxx#4 $)

>  <Rbt.Library>
libRbt.so (2013.1, Build901 2013/11/27)

>  <Rbt.Parameter_File>
/export/apps/rDock/src/rDock_2013.1_src/data/scripts/dock_solv.prm

>  <Rbt.Receptor>
prm/pocket_docking_3.prm

>  <SCORE>
-13.5755

>  <SCORE.INTER>
-11.7573

>  <SCORE.INTER.CONST>
1

>  <SCORE.INTER.POLAR>
0

>  <SCORE.INTER.ROT>
5

>  <SCORE.INTER.SOLV>
6.7557

>  <SCORE.INTER.VDW>
-17.0234

>  <SCORE.INTER.norm>
-1.30637

>  <SCORE.INTRA>
-1.81826

>  <SCORE.INTRA.DIHEDRAL>
-4.88236

>  <SCORE.INTRA.DIHEDRAL.0>
7.73744

>  <SCORE.INTRA.POLAR>
0

>  <SCORE.INTRA.POLAR.0>
0

>  <SCORE.INTRA.REPUL>
0

>  <SCORE.INTRA.REPUL.0>
0

>  <SCORE.INTRA.SOLV>
2.24068

>  <SCORE.INTRA.SOLV.lig_0>
-15.8342

>  <SCORE.INTRA.VDW>
-0.497421

>  <SCORE.INTRA.VDW.0>
-0.219494

>  <SCORE.INTRA.norm>
-0.202029

>  <SCORE.RESTR>
0

>  <SCORE.RESTR.CAVITY>
0

>  <SCORE.RESTR.norm>
0

>  <SCORE.SYSTEM>
0

>  <SCORE.SYSTEM.CONST>
0

>  <SCORE.SYSTEM.DIHEDRAL>
0

>  <SCORE.SYSTEM.SOLV>
0

>  <SCORE.SYSTEM.norm>
0

>  <SCORE.heavy>
9

>  <SCORE.norm>
-1.50839

>  <RMSD>
5.147

$$$$
ligand
 OpenBabel02271912143D
libRbt.so/2013.1/901 2013/11/27
  9  8  0  0  0  0  0  0  0  0999 V2000
  -49.4239   68.5945  -18.5593 C   0  0  0  0  0  0  0  0  0  0  0  0
  -48.3856   69.3246  -18.3629 O   0  0  0  0  0  0  0  0  0  0  0  0
  -49.2934   67.1331  -18.6212 C   0  0  0  0  0  0  0  0  0  0  0  0
  -50.5735   69.1105  -18.7483 O   0  0  0  0  0  0  0  0  0  0  0  0
  -48.2666   66.6213  -19.5809 C   0  0  0  0  0  0  0  0  0  0  0  0
  -48.4688   66.8946  -21.0257 C   0  0  0  0  0  0  0  0  0  0  0  0
  -48.2275   68.3378  -21.4352 C   0  0  0  0  0  0  0  0  0  0  0  0
  -48.3003   68.7263  -22.9203 C   0  0  0  0  0  0  0  0  0  0  0  0
  -47.3813   68.1597  -23.7796 N   0  0  0  0  0  0  0  0  0  0  0  0
  1  2  1  0  0  0  0
  1  3  1  0  0  0  0
  1  4  1  0  0  0  0
  3  5  1  0  0  0  0
  5  6  1  0  0  0  0
  6  7  1  0  0  0  0
  7  8  1  0  0  0  0
  8  9  1  0  0  0  0
M  END
>  <CHROM.1>
-52.45915250,-63.60460946,72.80796193,175.39927030,-63.25474896,-48.71511240
68.12689552,-20.30959984,2.53130454,-1.14864729,2.42018613

>  <Name>
ligand

>  <RI>
0

>  <Rbt.Current_Directory>
/home/itssahil/PROJECTS/Mol_Feturizer/Test_systems_manuscript/rnas/4erj

>  <Rbt.Executable>
rbdock ($Id: //depot/dev/client3/rdock/2013.1/src/exe/rbdock.cxx#4 $)

>  <Rbt.Library>
libRbt.so (2013.1, Build901 2013/11/27)

>  <Rbt.Parameter_File>
/export/apps/rDock/src/rDock_2013.1_src/data/scripts/dock_solv.prm

>  <Rbt.Receptor>
prm/pocket_docking_3.prm

>  <SCORE>
-12.7248

>  <SCORE.INTER>
-10.1399

>  <SCORE.INTER.CONST>
1

>  <SCORE.INTER.POLAR>
0

>  <SCORE.INTER.ROT>
5

>  <SCORE.INTER.SOLV>
7.54145

>  <SCORE.INTER.VDW>
-16.2071

>  <SCORE.INTER.norm>
-1.12666

>  <SCORE.INTRA>
-2.58486

>  <SCORE.INTRA.DIHEDRAL>
-5.17898

>  <SCORE.INTRA.DIHEDRAL.0>
7.73744

>  <SCORE.INTRA.POLAR>
0

>  <SCORE.INTRA.POLAR.0>
0

>  <SCORE.INTRA.REPUL>
0

>  <SCORE.INTRA.REPUL.0>
0

>  <SCORE.INTRA.SOLV>
0.501345

>  <SCORE.INTRA.SOLV.lig_0>
-15.8342

>  <SCORE.INTRA.VDW>
-0.246038

>  <SCORE.INTRA.VDW.0>
-0.219494

>  <SCORE.INTRA.norm>
-0.287206

>  <SCORE.RESTR>
0

>  <SCORE.RESTR.CAVITY>
0

>  <SCORE.RESTR.norm>
0

>  <SCORE.SYSTEM>
0

>  <SCORE.SYSTEM.CONST>
0

>  <SCORE.SYSTEM.DIHEDRAL>
0

>  <SCORE.SYSTEM.SOLV>
0

>  <SCORE.SYSTEM.norm>
0

>  <SCORE.heavy>
9

>  <SCORE.norm>
-1.41387

>  <RMSD>
5.156

$$$$
ligand
 OpenBabel02271912143D
libRbt.so/2013.1/901 2013/11/27
  9  8  0  0  0  0  0  0  0  0999 V2000
  -49.4583   68.6097  -18.5327 C   0  0  0  0  0  0  0  0  0  0  0  0
  -48.4080   69.3318  -18.3739 O   0  0  0  0  0  0  0  0  0  0  0  0
  -49.3415   67.1473  -18.5977 C   0  0  0  0  0  0  0  0  0  0  0  0
  -50.6098   69.1346  -18.6813 O   0  0  0  0  0  0  0  0  0  0  0  0
  -48.3350   66.6275  -19.5744 C   0  0  0  0  0  0  0  0  0  0  0  0
  -48.5785   66.8701  -21.0183 C   0  0  0  0  0  0  0  0  0  0  0  0
  -48.4492   68.3226  -21.4452 C   0  0  0  0  0  0  0  0  0  0  0  0
  -48.5328   68.6843  -22.9365 C   0  0  0  0  0  0  0  0  0  0  0  0
  -47.5694   68.1683  -23.7790 N   0  0  0  0  0  0  0  0  0  0  0  0
  1  2  1  0  0  0  0
  1  3  1  0  0  0  0
  1  4  1  0  0  0  0
  3  5  1  0  0  0  0
  5  6  1  0  0  0  0
  6  7  1  0  0  0  0
  7  8  1  0  0  0  0
  8  9  1  0  0  0  0
M  END
>  <CHROM.1>
-51.35672977,-65.32211295,69.15184035,173.67105556,-62.40290766,-48.82069010
68.12646205,-20.29883979,2.45294911,-1.17023389,2.33771056

>  <Name>
ligand

>  <RI>
0

>  <Rbt.Current_Directory>
/home/itssahil/PROJECTS/Mol_Feturizer/Test_systems_manuscript/rnas/4erj

>  <Rbt.Executable>
rbdock ($Id: //depot/dev/client3/rdock/2013.1/src/exe/rbdock.cxx#4 $)

>  <Rbt.Library>
libRbt.so (2013.1, Build901 2013/11/27)

>  <Rbt.Parameter_File>
/export/apps/rDock/src/rDock_2013.1_src/data/scripts/dock_solv.prm

>  <Rbt.Receptor>
prm/pocket_docking_3.prm

>  <SCORE>
-12.7693

>  <SCORE.INTER>
-10.1946

>  <SCORE.INTER.CONST>
1

>  <SCORE.INTER.POLAR>
0

>  <SCORE.INTER.ROT>
5

>  <SCORE.INTER.SOLV>
7.95354

>  <SCORE.INTER.VDW>
-16.3809

>  <SCORE.INTER.norm>
-1.13274

>  <SCORE.INTRA>
-2.57464

>  <SCORE.INTRA.DIHEDRAL>
-5.36792

>  <SCORE.INTRA.DIHEDRAL.0>
7.73744

>  <SCORE.INTRA.POLAR>
0

>  <SCORE.INTRA.POLAR.0>
0

>  <SCORE.INTRA.REPUL>
0

>  <SCORE.INTRA.REPUL.0>
0

>  <SCORE.INTRA.SOLV>
0.517775

>  <SCORE.INTRA.SOLV.lig_0>
-15.8342

>  <SCORE.INTRA.VDW>
-0.149562

>  <SCORE.INTRA.VDW.0>
-0.219494

>  <SCORE.INTRA.norm>
-0.286071

>  <SCORE.RESTR>
0

>  <SCORE.RESTR.CAVITY>
0

>  <SCORE.RESTR.norm>
0

>  <SCORE.SYSTEM>
0

>  <SCORE.SYSTEM.CONST>
0

>  <SCORE.SYSTEM.DIHEDRAL>
0

>  <SCORE.SYSTEM.SOLV>
0

>  <SCORE.SYSTEM.norm>
0

>  <SCORE.heavy>
9

>  <SCORE.norm>
-1.41881

>  <RMSD>
5.158

$$$$
ligand
 OpenBabel02271912143D
libRbt.so/2013.1/901 2013/11/27
  9  8  0  0  0  0  0  0  0  0999 V2000
  -49.7672   69.4555  -19.0434 C   0  0  0  0  0  0  0  0  0  0  0  0
  -48.9338   70.0499  -19.8192 O   0  0  0  0  0  0  0  0  0  0  0  0
  -49.2895   68.4551  -18.0804 C   0  0  0  0  0  0  0  0  0  0  0  0
  -51.0195   69.6797  -19.1161 O   0  0  0  0  0  0  0  0  0  0  0  0
  -49.2571   67.0464  -18.5823 C   0  0  0  0  0  0  0  0  0  0  0  0
  -48.2262   66.6914  -19.5895 C   0  0  0  0  0  0  0  0  0  0  0  0
  -48.4341   67.3231  -20.9556 C   0  0  0  0  0  0  0  0  0  0  0  0
  -47.4069   67.0719  -22.0708 C   0  0  0  0  0  0  0  0  0  0  0  0
  -47.5687   67.7526  -23.2602 N   0  0  0  0  0  0  0  0  0  0  0  0
  1  2  1  0  0  0  0
  1  3  1  0  0  0  0
  1  4  1  0  0  0  0
  3  5  1  0  0  0  0
  5  6  1  0  0  0  0
  6  7  1  0  0  0  0
  7  8  1  0  0  0  0
  8  9  1  0  0  0  0
M  END
>  <CHROM.1>
-90.34269308,71.24748277,-69.05807889,177.88224123,-174.58670037,-48.89816123
68.20153897,-20.05478043,2.83803524,-1.00516617,2.29226037

>  <Name>
ligand

>  <RI>
0

>  <Rbt.Current_Directory>
/home/itssahil/PROJECTS/Mol_Feturizer/Test_systems_manuscript/rnas/4erj

>  <Rbt.Executable>
rbdock ($Id: //depot/dev/client3/rdock/2013.1/src/exe/rbdock.cxx#4 $)

>  <Rbt.Library>
libRbt.so (2013.1, Build901 2013/11/27)

>  <Rbt.Parameter_File>
/export/apps/rDock/src/rDock_2013.1_src/data/scripts/dock_solv.prm

>  <Rbt.Receptor>
prm/pocket_docking_7.prm

>  <SCORE>
-14.1741

>  <SCORE.INTER>
-11.2334

>  <SCORE.INTER.CONST>
1

>  <SCORE.INTER.POLAR>
0

>  <SCORE.INTER.ROT>
5

>  <SCORE.INTER.SOLV>
8.03319

>  <SCORE.INTER.VDW>
-17.1

>  <SCORE.INTER.norm>
-1.24815

>  <SCORE.INTRA>
-2.94069

>  <SCORE.INTRA.DIHEDRAL>
-5.17567

>  <SCORE.INTRA.DIHEDRAL.0>
7.73744

>  <SCORE.INTRA.POLAR>
0

>  <SCORE.INTRA.POLAR.0>
0

>  <SCORE.INTRA.REPUL>
0

>  <SCORE.INTRA.REPUL.0>
0

>  <SCORE.INTRA.SOLV>
-0.134053

>  <SCORE.INTRA.SOLV.lig_0>
-15.8342

>  <SCORE.INTRA.VDW>
-0.285827

>  <SCORE.INTRA.VDW.0>
-0.219494

>  <SCORE.INTRA.norm>
-0.326743

>  <SCORE.RESTR>
0

>  <SCORE.RESTR.CAVITY>
0

>  <SCORE.RESTR.norm>
0

>  <SCORE.SYSTEM>
0

>  <SCORE.SYSTEM.CONST>
0

>  <SCORE.SYSTEM.DIHEDRAL>
0

>  <SCORE.SYSTEM.SOLV>
0

>  <SCORE.SYSTEM.norm>
0

>  <SCORE.heavy>
9

>  <SCORE.norm>
-1.57489

>  <RMSD>
5.159

$$$$
ligand
 OpenBabel02271912143D
libRbt.so/2013.1/901 2013/11/27
  9  8  0  0  0  0  0  0  0  0999 V2000
  -49.8254   69.4174  -19.0399 C   0  0  0  0  0  0  0  0  0  0  0  0
  -48.9893   70.0930  -19.7431 O   0  0  0  0  0  0  0  0  0  0  0  0
  -49.3434   68.5547  -17.9537 C   0  0  0  0  0  0  0  0  0  0  0  0
  -51.0748   69.4405  -19.2888 O   0  0  0  0  0  0  0  0  0  0  0  0
  -49.2403   67.1004  -18.2879 C   0  0  0  0  0  0  0  0  0  0  0  0
  -48.3119   66.7015  -19.3752 C   0  0  0  0  0  0  0  0  0  0  0  0
  -48.7796   67.0720  -20.7725 C   0  0  0  0  0  0  0  0  0  0  0  0
  -47.8532   66.8215  -21.9729 C   0  0  0  0  0  0  0  0  0  0  0  0
  -46.6248   67.4502  -21.9801 N   0  0  0  0  0  0  0  0  0  0  0  0
  1  2  1  0  0  0  0
  1  3  1  0  0  0  0
  1  4  1  0  0  0  0
  3  5  1  0  0  0  0
  5  6  1  0  0  0  0
  6  7  1  0  0  0  0
  7  8  1  0  0  0  0
  8  9  1  0  0  0  0
M  END
>  <CHROM.1>
-99.55204888,61.64704147,-72.08062772,174.80785728,-59.72003028,-48.91438075
68.10346428,-19.82630440,3.13351929,-0.94137994,2.46225656

>  <Name>
ligand

>  <RI>
0

>  <Rbt.Current_Directory>
/home/itssahil/PROJECTS/Mol_Feturizer/Test_systems_manuscript/rnas/4erj

>  <Rbt.Executable>
rbdock ($Id: //depot/dev/client3/rdock/2013.1/src/exe/rbdock.cxx#4 $)

>  <Rbt.Library>
libRbt.so (2013.1, Build901 2013/11/27)

>  <Rbt.Parameter_File>
/export/apps/rDock/src/rDock_2013.1_src/data/scripts/dock_solv.prm

>  <Rbt.Receptor>
prm/pocket_docking_6.prm

>  <SCORE>
-14.6009

>  <SCORE.INTER>
-11.7443

>  <SCORE.INTER.CONST>
1

>  <SCORE.INTER.POLAR>
0

>  <SCORE.INTER.ROT>
5

>  <SCORE.INTER.SOLV>
7.86942

>  <SCORE.INTER.VDW>
-17.386

>  <SCORE.INTER.norm>
-1.30492

>  <SCORE.INTRA>
-2.85659

>  <SCORE.INTRA.DIHEDRAL>
-5.42667

>  <SCORE.INTRA.DIHEDRAL.0>
7.73744

>  <SCORE.INTRA.POLAR>
0

>  <SCORE.INTRA.POLAR.0>
0

>  <SCORE.INTRA.REPUL>
0

>  <SCORE.INTRA.REPUL.0>
0

>  <SCORE.INTRA.SOLV>
0.539747

>  <SCORE.INTRA.SOLV.lig_0>
-15.8342

>  <SCORE.INTRA.VDW>
-0.413126

>  <SCORE.INTRA.VDW.0>
-0.219494

>  <SCORE.INTRA.norm>
-0.317398

>  <SCORE.RESTR>
0

>  <SCORE.RESTR.CAVITY>
0

>  <SCORE.RESTR.norm>
0

>  <SCORE.SYSTEM>
0

>  <SCORE.SYSTEM.CONST>
0

>  <SCORE.SYSTEM.DIHEDRAL>
0

>  <SCORE.SYSTEM.SOLV>
0

>  <SCORE.SYSTEM.norm>
0

>  <SCORE.heavy>
9

>  <SCORE.norm>
-1.62232

>  <RMSD>
5.162

$$$$
ligand
 OpenBabel02271912143D
libRbt.so/2013.1/901 2013/11/27
  9  8  0  0  0  0  0  0  0  0999 V2000
  -49.8251   69.4527  -19.0608 C   0  0  0  0  0  0  0  0  0  0  0  0
  -51.0907   69.6393  -19.1763 O   0  0  0  0  0  0  0  0  0  0  0  0
  -49.3099   68.5099  -18.0598 C   0  0  0  0  0  0  0  0  0  0  0  0
  -48.9898   70.1034  -19.7696 O   0  0  0  0  0  0  0  0  0  0  0  0
  -49.2588   67.0792  -18.4932 C   0  0  0  0  0  0  0  0  0  0  0  0
  -48.2592   66.7005  -19.5230 C   0  0  0  0  0  0  0  0  0  0  0  0
  -48.5068   67.3038  -20.8953 C   0  0  0  0  0  0  0  0  0  0  0  0
  -47.4864   67.0708  -22.0207 C   0  0  0  0  0  0  0  0  0  0  0  0
  -47.6837   67.7323  -23.2155 N   0  0  0  0  0  0  0  0  0  0  0  0
  1  2  1  0  0  0  0
  1  3  1  0  0  0  0
  1  4  1  0  0  0  0
  3  5  1  0  0  0  0
  5  6  1  0  0  0  0
  6  7  1  0  0  0  0
  7  8  1  0  0  0  0
  8  9  1  0  0  0  0
M  END
>  <CHROM.1>
85.02132487,69.97783631,-66.67864807,175.56802976,-174.28759719,-48.95472686
68.20905284,-20.02148952,2.79725525,-1.00420851,2.23313458

>  <Name>
ligand

>  <RI>
0

>  <Rbt.Current_Directory>
/home/itssahil/PROJECTS/Mol_Feturizer/Test_systems_manuscript/rnas/4erj

>  <Rbt.Executable>
rbdock ($Id: //depot/dev/client3/rdock/2013.1/src/exe/rbdock.cxx#4 $)

>  <Rbt.Library>
libRbt.so (2013.1, Build901 2013/11/27)

>  <Rbt.Parameter_File>
/export/apps/rDock/src/rDock_2013.1_src/data/scripts/dock_solv.prm

>  <Rbt.Receptor>
prm/pocket_docking_8.prm

>  <SCORE>
-14.1911

>  <SCORE.INTER>
-11.2859

>  <SCORE.INTER.CONST>
1

>  <SCORE.INTER.POLAR>
0

>  <SCORE.INTER.ROT>
5

>  <SCORE.INTER.SOLV>
8.18091

>  <SCORE.INTER.VDW>
-17.1842

>  <SCORE.INTER.norm>
-1.25399

>  <SCORE.INTRA>
-2.90519

>  <SCORE.INTRA.DIHEDRAL>
-5.16393

>  <SCORE.INTRA.DIHEDRAL.0>
7.73744

>  <SCORE.INTRA.POLAR>
0

>  <SCORE.INTRA.POLAR.0>
0

>  <SCORE.INTRA.REPUL>
0

>  <SCORE.INTRA.REPUL.0>
0

>  <SCORE.INTRA.SOLV>
-0.13422

>  <SCORE.INTRA.SOLV.lig_0>
-15.8342

>  <SCORE.INTRA.VDW>
-0.256116

>  <SCORE.INTRA.VDW.0>
-0.219494

>  <SCORE.INTRA.norm>
-0.322799

>  <SCORE.RESTR>
0

>  <SCORE.RESTR.CAVITY>
0

>  <SCORE.RESTR.norm>
0

>  <SCORE.SYSTEM>
0

>  <SCORE.SYSTEM.CONST>
0

>  <SCORE.SYSTEM.DIHEDRAL>
0

>  <SCORE.SYSTEM.SOLV>
0

>  <SCORE.SYSTEM.norm>
0

>  <SCORE.heavy>
9

>  <SCORE.norm>
-1.57678

>  <RMSD>
5.163

$$$$
ligand
 OpenBabel02271912143D
libRbt.so/2013.1/901 2013/11/27
  9  8  0  0  0  0  0  0  0  0999 V2000
  -50.8410   70.7107  -20.3591 C   0  0  0  0  0  0  0  0  0  0  0  0
  -50.8791   70.1814  -21.5289 O   0  0  0  0  0  0  0  0  0  0  0  0
  -50.8194   69.8549  -19.1660 C   0  0  0  0  0  0  0  0  0  0  0  0
  -50.8658   71.9747  -20.2002 O   0  0  0  0  0  0  0  0  0  0  0  0
  -49.7388   68.8211  -19.1381 C   0  0  0  0  0  0  0  0  0  0  0  0
  -49.8686   67.6558  -20.0482 C   0  0  0  0  0  0  0  0  0  0  0  0
  -48.6059   66.8228  -20.1916 C   0  0  0  0  0  0  0  0  0  0  0  0
  -47.3931   67.4068  -20.9331 C   0  0  0  0  0  0  0  0  0  0  0  0
  -47.5645   67.7858  -22.2489 N   0  0  0  0  0  0  0  0  0  0  0  0
  1  2  1  0  0  0  0
  1  3  1  0  0  0  0
  1  4  1  0  0  0  0
  3  5  1  0  0  0  0
  5  6  1  0  0  0  0
  6  7  1  0  0  0  0
  7  8  1  0  0  0  0
  8  9  1  0  0  0  0
M  END
>  <CHROM.1>
53.91659381,-72.31365066,166.93742880,-69.55649349,-59.23019262,-49.63925395
69.06068698,-20.43808476,-2.71896117,-0.83690441,2.31950862

>  <Name>
ligand

>  <RI>
0

>  <Rbt.Current_Directory>
/home/itssahil/PROJECTS/Mol_Feturizer/Test_systems_manuscript/rnas/4erj

>  <Rbt.Executable>
rbdock ($Id: //depot/dev/client3/rdock/2013.1/src/exe/rbdock.cxx#4 $)

>  <Rbt.Library>
libRbt.so (2013.1, Build901 2013/11/27)

>  <Rbt.Parameter_File>
/export/apps/rDock/src/rDock_2013.1_src/data/scripts/dock_solv.prm

>  <Rbt.Receptor>
prm/blind_docking_100.prm

>  <SCORE>
-12.5626

>  <SCORE.INTER>
-10.5231

>  <SCORE.INTER.CONST>
1

>  <SCORE.INTER.POLAR>
0

>  <SCORE.INTER.ROT>
5

>  <SCORE.INTER.SOLV>
6.56686

>  <SCORE.INTER.VDW>
-16.1377

>  <SCORE.INTER.norm>
-1.16924

>  <SCORE.INTRA>
-2.03947

>  <SCORE.INTRA.DIHEDRAL>
-4.41472

>  <SCORE.INTRA.DIHEDRAL.0>
7.73744

>  <SCORE.INTRA.POLAR>
0

>  <SCORE.INTRA.POLAR.0>
0

>  <SCORE.INTRA.REPUL>
0

>  <SCORE.INTRA.REPUL.0>
0

>  <SCORE.INTRA.SOLV>
1.005

>  <SCORE.INTRA.SOLV.lig_0>
-15.8342

>  <SCORE.INTRA.VDW>
-0.33461

>  <SCORE.INTRA.VDW.0>
-0.219494

>  <SCORE.INTRA.norm>
-0.226608

>  <SCORE.RESTR>
0

>  <SCORE.RESTR.CAVITY>
0

>  <SCORE.RESTR.norm>
0

>  <SCORE.SYSTEM>
0

>  <SCORE.SYSTEM.CONST>
0

>  <SCORE.SYSTEM.DIHEDRAL>
0

>  <SCORE.SYSTEM.SOLV>
0

>  <SCORE.SYSTEM.norm>
0

>  <SCORE.heavy>
9

>  <SCORE.norm>
-1.39584

>  <RMSD>
5.165

$$$$
ligand
 OpenBabel02271912143D
libRbt.so/2013.1/901 2013/11/27
  9  8  0  0  0  0  0  0  0  0999 V2000
  -50.7563   70.7089  -20.1878 C   0  0  0  0  0  0  0  0  0  0  0  0
  -50.5238   71.9679  -20.2923 O   0  0  0  0  0  0  0  0  0  0  0  0
  -49.7210   69.8122  -19.6584 C   0  0  0  0  0  0  0  0  0  0  0  0
  -51.8588   70.2019  -20.5763 O   0  0  0  0  0  0  0  0  0  0  0  0
  -50.1799   68.8543  -18.6052 C   0  0  0  0  0  0  0  0  0  0  0  0
  -49.1990   67.8673  -18.0887 C   0  0  0  0  0  0  0  0  0  0  0  0
  -48.8733   66.7377  -19.0513 C   0  0  0  0  0  0  0  0  0  0  0  0
  -47.9184   66.9960  -20.2274 C   0  0  0  0  0  0  0  0  0  0  0  0
  -48.3533   67.8277  -21.2389 N   0  0  0  0  0  0  0  0  0  0  0  0
  1  2  1  0  0  0  0
  1  3  1  0  0  0  0
  1  4  1  0  0  0  0
  3  5  1  0  0  0  0
  5  6  1  0  0  0  0
  6  7  1  0  0  0  0
  7  8  1  0  0  0  0
  8  9  1  0  0  0  0
M  END
>  <CHROM.1>
132.25645285,176.42774417,-73.35825384,77.42423858,-68.56448624,-49.73869830
69.03463470,-19.78323534,-2.54965522,-0.87915069,2.11355838

>  <Name>
ligand

>  <RI>
0

>  <Rbt.Current_Directory>
/home/itssahil/PROJECTS/Mol_Feturizer/Test_systems_manuscript/rnas/4erj

>  <Rbt.Executable>
rbdock ($Id: //depot/dev/client3/rdock/2013.1/src/exe/rbdock.cxx#4 $)

>  <Rbt.Library>
libRbt.so (2013.1, Build901 2013/11/27)

>  <Rbt.Parameter_File>
/export/apps/rDock/src/rDock_2013.1_src/data/scripts/dock_solv.prm

>  <Rbt.Receptor>
prm/pocket_docking_6.prm

>  <SCORE>
-14.068

>  <SCORE.INTER>
-13.6651

>  <SCORE.INTER.CONST>
1

>  <SCORE.INTER.POLAR>
0

>  <SCORE.INTER.ROT>
5

>  <SCORE.INTER.SOLV>
6.18385

>  <SCORE.INTER.VDW>
-18.1047

>  <SCORE.INTER.norm>
-1.51834

>  <SCORE.INTRA>
-0.402973

>  <SCORE.INTRA.DIHEDRAL>
-3.88046

>  <SCORE.INTRA.DIHEDRAL.0>
7.73744

>  <SCORE.INTRA.POLAR>
0

>  <SCORE.INTRA.POLAR.0>
0

>  <SCORE.INTRA.REPUL>
0

>  <SCORE.INTRA.REPUL.0>
0

>  <SCORE.INTRA.SOLV>
2.71379

>  <SCORE.INTRA.SOLV.lig_0>
-15.8342

>  <SCORE.INTRA.VDW>
0.180361

>  <SCORE.INTRA.VDW.0>
-0.219494

>  <SCORE.INTRA.norm>
-0.0447748

>  <SCORE.RESTR>
0

>  <SCORE.RESTR.CAVITY>
0

>  <SCORE.RESTR.norm>
0

>  <SCORE.SYSTEM>
0

>  <SCORE.SYSTEM.CONST>
0

>  <SCORE.SYSTEM.DIHEDRAL>
0

>  <SCORE.SYSTEM.SOLV>
0

>  <SCORE.SYSTEM.norm>
0

>  <SCORE.heavy>
9

>  <SCORE.norm>
-1.56312

>  <RMSD>
5.166

$$$$
ligand
 OpenBabel02271912143D
libRbt.so/2013.1/901 2013/11/27
  9  8  0  0  0  0  0  0  0  0999 V2000
  -50.2413   69.5712  -19.0415 C   0  0  0  0  0  0  0  0  0  0  0  0
  -51.4630   69.4200  -18.6749 O   0  0  0  0  0  0  0  0  0  0  0  0
  -49.1769   68.8007  -18.3859 C   0  0  0  0  0  0  0  0  0  0  0  0
  -49.9162   70.4141  -19.9401 O   0  0  0  0  0  0  0  0  0  0  0  0
  -49.2625   67.3170  -18.5548 C   0  0  0  0  0  0  0  0  0  0  0  0
  -49.2000   66.7699  -19.9331 C   0  0  0  0  0  0  0  0  0  0  0  0
  -47.8379   66.8840  -20.5966 C   0  0  0  0  0  0  0  0  0  0  0  0
  -47.3198   68.2642  -21.0309 C   0  0  0  0  0  0  0  0  0  0  0  0
  -47.9872   68.9102  -22.0514 N   0  0  0  0  0  0  0  0  0  0  0  0
  1  2  1  0  0  0  0
  1  3  1  0  0  0  0
  1  4  1  0  0  0  0
  3  5  1  0  0  0  0
  5  6  1  0  0  0  0
  6  7  1  0  0  0  0
  7  8  1  0  0  0  0
  8  9  1  0  0  0  0
M  END
>  <CHROM.1>
63.14702855,60.65881253,70.29476191,-70.87413100,-66.61559763,-49.18642680
68.51043802,-19.79741302,-3.04535208,-0.78449680,2.59753064

>  <Name>
ligand

>  <RI>
0

>  <Rbt.Current_Directory>
/home/itssahil/PROJECTS/Mol_Feturizer/Test_systems_manuscript/rnas/4erj

>  <Rbt.Executable>
rbdock ($Id: //depot/dev/client3/rdock/2013.1/src/exe/rbdock.cxx#4 $)

>  <Rbt.Library>
libRbt.so (2013.1, Build901 2013/11/27)

>  <Rbt.Parameter_File>
/export/apps/rDock/src/rDock_2013.1_src/data/scripts/dock_solv.prm

>  <Rbt.Receptor>
prm/blind_docking_100.prm

>  <SCORE>
-13.7232

>  <SCORE.INTER>
-11.8895

>  <SCORE.INTER.CONST>
1

>  <SCORE.INTER.POLAR>
0

>  <SCORE.INTER.ROT>
5

>  <SCORE.INTER.SOLV>
7.07635

>  <SCORE.INTER.VDW>
-17.2184

>  <SCORE.INTER.norm>
-1.32105

>  <SCORE.INTRA>
-1.83367

>  <SCORE.INTRA.DIHEDRAL>
-4.96452

>  <SCORE.INTRA.DIHEDRAL.0>
7.73744

>  <SCORE.INTRA.POLAR>
0

>  <SCORE.INTRA.POLAR.0>
0

>  <SCORE.INTRA.REPUL>
0

>  <SCORE.INTRA.REPUL.0>
0

>  <SCORE.INTRA.SOLV>
2.00926

>  <SCORE.INTRA.SOLV.lig_0>
-15.8342

>  <SCORE.INTRA.VDW>
-0.356038

>  <SCORE.INTRA.VDW.0>
-0.219494

>  <SCORE.INTRA.norm>
-0.203741

>  <SCORE.RESTR>
0

>  <SCORE.RESTR.CAVITY>
0

>  <SCORE.RESTR.norm>
0

>  <SCORE.SYSTEM>
0

>  <SCORE.SYSTEM.CONST>
0

>  <SCORE.SYSTEM.DIHEDRAL>
0

>  <SCORE.SYSTEM.SOLV>
0

>  <SCORE.SYSTEM.norm>
0

>  <SCORE.heavy>
9

>  <SCORE.norm>
-1.52479

>  <RMSD>
5.172

$$$$
ligand
 OpenBabel02271912143D
libRbt.so/2013.1/901 2013/11/27
  9  8  0  0  0  0  0  0  0  0999 V2000
  -49.8506   69.4619  -19.0543 C   0  0  0  0  0  0  0  0  0  0  0  0
  -51.1198   69.6182  -19.1747 O   0  0  0  0  0  0  0  0  0  0  0  0
  -49.3157   68.5586  -18.0275 C   0  0  0  0  0  0  0  0  0  0  0  0
  -49.0290   70.1103  -19.7811 O   0  0  0  0  0  0  0  0  0  0  0  0
  -49.2846   67.1105  -18.4009 C   0  0  0  0  0  0  0  0  0  0  0  0
  -48.3045   66.6790  -19.4286 C   0  0  0  0  0  0  0  0  0  0  0  0
  -48.5399   67.2644  -20.8109 C   0  0  0  0  0  0  0  0  0  0  0  0
  -47.5386   66.9699  -21.9389 C   0  0  0  0  0  0  0  0  0  0  0  0
  -47.7143   67.6223  -23.1421 N   0  0  0  0  0  0  0  0  0  0  0  0
  1  2  1  0  0  0  0
  1  3  1  0  0  0  0
  1  4  1  0  0  0  0
  3  5  1  0  0  0  0
  5  6  1  0  0  0  0
  6  7  1  0  0  0  0
  7  8  1  0  0  0  0
  8  9  1  0  0  0  0
M  END
>  <CHROM.1>
82.69576999,70.58740311,-64.68877984,175.88972058,-173.82127736,-48.98674728
68.18717277,-19.97192846,2.80213176,-1.00861340,2.20725886

>  <Name>
ligand

>  <RI>
0

>  <Rbt.Current_Directory>
/home/itssahil/PROJECTS/Mol_Feturizer/Test_systems_manuscript/rnas/4erj

>  <Rbt.Executable>
rbdock ($Id: //depot/dev/client3/rdock/2013.1/src/exe/rbdock.cxx#4 $)

>  <Rbt.Library>
libRbt.so (2013.1, Build901 2013/11/27)

>  <Rbt.Parameter_File>
/export/apps/rDock/src/rDock_2013.1_src/data/scripts/dock_solv.prm

>  <Rbt.Receptor>
prm/pocket_docking_7.prm

>  <SCORE>
-14.1964

>  <SCORE.INTER>
-11.3233

>  <SCORE.INTER.CONST>
1

>  <SCORE.INTER.POLAR>
0

>  <SCORE.INTER.ROT>
5

>  <SCORE.INTER.SOLV>
8.37975

>  <SCORE.INTER.VDW>
-17.2754

>  <SCORE.INTER.norm>
-1.25814

>  <SCORE.INTRA>
-2.87313

>  <SCORE.INTRA.DIHEDRAL>
-5.20265

>  <SCORE.INTRA.DIHEDRAL.0>
7.73744

>  <SCORE.INTRA.POLAR>
0

>  <SCORE.INTRA.POLAR.0>
0

>  <SCORE.INTRA.REPUL>
0

>  <SCORE.INTRA.REPUL.0>
0

>  <SCORE.INTRA.SOLV>
-0.134308

>  <SCORE.INTRA.SOLV.lig_0>
-15.8342

>  <SCORE.INTRA.VDW>
-0.204652

>  <SCORE.INTRA.VDW.0>
-0.219494

>  <SCORE.INTRA.norm>
-0.319237

>  <SCORE.RESTR>
0

>  <SCORE.RESTR.CAVITY>
0

>  <SCORE.RESTR.norm>
0

>  <SCORE.SYSTEM>
0

>  <SCORE.SYSTEM.CONST>
0

>  <SCORE.SYSTEM.DIHEDRAL>
0

>  <SCORE.SYSTEM.SOLV>
0

>  <SCORE.SYSTEM.norm>
0

>  <SCORE.heavy>
9

>  <SCORE.norm>
-1.57738

>  <RMSD>
5.173

$$$$
ligand
 OpenBabel02271912143D
libRbt.so/2013.1/901 2013/11/27
  9  8  0  0  0  0  0  0  0  0999 V2000
  -49.8176   69.4818  -19.0371 C   0  0  0  0  0  0  0  0  0  0  0  0
  -51.0792   69.7141  -19.1021 O   0  0  0  0  0  0  0  0  0  0  0  0
  -49.2959   68.5297  -18.0483 C   0  0  0  0  0  0  0  0  0  0  0  0
  -48.9892   70.0948  -19.7865 O   0  0  0  0  0  0  0  0  0  0  0  0
  -49.2741   67.0993  -18.4853 C   0  0  0  0  0  0  0  0  0  0  0  0
  -48.2803   66.7021  -19.5137 C   0  0  0  0  0  0  0  0  0  0  0  0
  -48.5193   67.3036  -20.8883 C   0  0  0  0  0  0  0  0  0  0  0  0
  -47.5128   67.0352  -22.0182 C   0  0  0  0  0  0  0  0  0  0  0  0
  -47.6914   67.7043  -23.2118 N   0  0  0  0  0  0  0  0  0  0  0  0
  1  2  1  0  0  0  0
  1  3  1  0  0  0  0
  1  4  1  0  0  0  0
  3  5  1  0  0  0  0
  5  6  1  0  0  0  0
  6  7  1  0  0  0  0
  7  8  1  0  0  0  0
  8  9  1  0  0  0  0
M  END
>  <CHROM.1>
86.92342881,71.32055680,-67.23234106,176.41518535,-173.67371893,-48.96007171
68.21760813,-20.00753072,2.81157223,-1.01583956,2.23791444

>  <Name>
ligand

>  <RI>
0

>  <Rbt.Current_Directory>
/home/itssahil/PROJECTS/Mol_Feturizer/Test_systems_manuscript/rnas/4erj

>  <Rbt.Executable>
rbdock ($Id: //depot/dev/client3/rdock/2013.1/src/exe/rbdock.cxx#4 $)

>  <Rbt.Library>
libRbt.so (2013.1, Build901 2013/11/27)

>  <Rbt.Parameter_File>
/export/apps/rDock/src/rDock_2013.1_src/data/scripts/dock_solv.prm

>  <Rbt.Receptor>
prm/pocket_docking_8.prm

>  <SCORE>
-14.1763

>  <SCORE.INTER>
-11.3209

>  <SCORE.INTER.CONST>
1

>  <SCORE.INTER.POLAR>
0

>  <SCORE.INTER.ROT>
5

>  <SCORE.INTER.SOLV>
8.24901

>  <SCORE.INTER.VDW>
-17.2303

>  <SCORE.INTER.norm>
-1.25788

>  <SCORE.INTRA>
-2.85542

>  <SCORE.INTRA.DIHEDRAL>
-5.01662

>  <SCORE.INTRA.DIHEDRAL.0>
7.73744

>  <SCORE.INTRA.POLAR>
0

>  <SCORE.INTRA.POLAR.0>
0

>  <SCORE.INTRA.REPUL>
0

>  <SCORE.INTRA.REPUL.0>
0

>  <SCORE.INTRA.SOLV>
-0.133502

>  <SCORE.INTRA.SOLV.lig_0>
-15.8342

>  <SCORE.INTRA.VDW>
-0.280355

>  <SCORE.INTRA.VDW.0>
-0.219494

>  <SCORE.INTRA.norm>
-0.317268

>  <SCORE.RESTR>
0

>  <SCORE.RESTR.CAVITY>
0

>  <SCORE.RESTR.norm>
0

>  <SCORE.SYSTEM>
0

>  <SCORE.SYSTEM.CONST>
0

>  <SCORE.SYSTEM.DIHEDRAL>
0

>  <SCORE.SYSTEM.SOLV>
0

>  <SCORE.SYSTEM.norm>
0

>  <SCORE.heavy>
9

>  <SCORE.norm>
-1.57515

>  <RMSD>
5.175

$$$$
ligand
 OpenBabel02271912143D
libRbt.so/2013.1/901 2013/11/27
  9  8  0  0  0  0  0  0  0  0999 V2000
  -50.8915   70.0800  -19.8822 C   0  0  0  0  0  0  0  0  0  0  0  0
  -51.6705   69.8657  -18.8836 O   0  0  0  0  0  0  0  0  0  0  0  0
  -49.4510   69.8232  -19.7585 C   0  0  0  0  0  0  0  0  0  0  0  0
  -51.3319   70.5571  -20.9786 O   0  0  0  0  0  0  0  0  0  0  0  0
  -49.0391   69.0526  -18.5445 C   0  0  0  0  0  0  0  0  0  0  0  0
  -49.4716   67.6366  -18.4406 C   0  0  0  0  0  0  0  0  0  0  0  0
  -48.6448   66.6619  -19.2622 C   0  0  0  0  0  0  0  0  0  0  0  0
  -48.6762   66.7473  -20.7963 C   0  0  0  0  0  0  0  0  0  0  0  0
  -48.0013   67.7903  -21.3969 N   0  0  0  0  0  0  0  0  0  0  0  0
  1  2  1  0  0  0  0
  1  3  1  0  0  0  0
  1  4  1  0  0  0  0
  3  5  1  0  0  0  0
  5  6  1  0  0  0  0
  6  7  1  0  0  0  0
  7  8  1  0  0  0  0
  8  9  1  0  0  0  0
M  END
>  <CHROM.1>
12.29784062,66.86888760,79.02031149,-66.00576033,73.90363533,-49.72362184
68.71561901,-19.77441409,-2.96520745,-0.84995373,1.87964413

>  <Name>
ligand

>  <RI>
0

>  <Rbt.Current_Directory>
/home/itssahil/PROJECTS/Mol_Feturizer/Test_systems_manuscript/rnas/4erj

>  <Rbt.Executable>
rbdock ($Id: //depot/dev/client3/rdock/2013.1/src/exe/rbdock.cxx#4 $)

>  <Rbt.Library>
libRbt.so (2013.1, Build901 2013/11/27)

>  <Rbt.Parameter_File>
/export/apps/rDock/src/rDock_2013.1_src/data/scripts/dock_solv.prm

>  <Rbt.Receptor>
prm/pocket_docking_8.prm

>  <SCORE>
-13.9674

>  <SCORE.INTER>
-13.9024

>  <SCORE.INTER.CONST>
1

>  <SCORE.INTER.POLAR>
0

>  <SCORE.INTER.ROT>
5

>  <SCORE.INTER.SOLV>
5.84461

>  <SCORE.INTER.VDW>
-18.1498

>  <SCORE.INTER.norm>
-1.54472

>  <SCORE.INTRA>
-0.0649128

>  <SCORE.INTRA.DIHEDRAL>
-3.67135

>  <SCORE.INTRA.DIHEDRAL.0>
7.73744

>  <SCORE.INTRA.POLAR>
0

>  <SCORE.INTRA.POLAR.0>
0

>  <SCORE.INTRA.REPUL>
0

>  <SCORE.INTRA.REPUL.0>
0

>  <SCORE.INTRA.SOLV>
2.60948

>  <SCORE.INTRA.SOLV.lig_0>
-15.8342

>  <SCORE.INTRA.VDW>
0.466021

>  <SCORE.INTRA.VDW.0>
-0.219494

>  <SCORE.INTRA.norm>
-0.00721253

>  <SCORE.RESTR>
0

>  <SCORE.RESTR.CAVITY>
0

>  <SCORE.RESTR.norm>
0

>  <SCORE.SYSTEM>
0

>  <SCORE.SYSTEM.CONST>
0

>  <SCORE.SYSTEM.DIHEDRAL>
0

>  <SCORE.SYSTEM.SOLV>
0

>  <SCORE.SYSTEM.norm>
0

>  <SCORE.heavy>
9

>  <SCORE.norm>
-1.55193

>  <RMSD>
5.182

$$$$
ligand
 OpenBabel02271912143D
libRbt.so/2013.1/901 2013/11/27
  9  8  0  0  0  0  0  0  0  0999 V2000
  -50.9673   70.8461  -20.4035 C   0  0  0  0  0  0  0  0  0  0  0  0
  -50.7455   72.1107  -20.3660 O   0  0  0  0  0  0  0  0  0  0  0  0
  -51.3078   70.1232  -19.1715 C   0  0  0  0  0  0  0  0  0  0  0  0
  -50.8561   70.1834  -21.4861 O   0  0  0  0  0  0  0  0  0  0  0  0
  -50.6176   68.8090  -18.9878 C   0  0  0  0  0  0  0  0  0  0  0  0
  -49.1370   68.8105  -18.8839 C   0  0  0  0  0  0  0  0  0  0  0  0
  -48.4919   67.4431  -19.0350 C   0  0  0  0  0  0  0  0  0  0  0  0
  -48.5699   66.7136  -20.3854 C   0  0  0  0  0  0  0  0  0  0  0  0
  -48.0087   67.3316  -21.4841 N   0  0  0  0  0  0  0  0  0  0  0  0
  1  2  1  0  0  0  0
  1  3  1  0  0  0  0
  1  4  1  0  0  0  0
  3  5  1  0  0  0  0
  5  6  1  0  0  0  0
  6  7  1  0  0  0  0
  7  8  1  0  0  0  0
  8  9  1  0  0  0  0
M  END
>  <CHROM.1>
-136.48739277,62.09337434,-165.99122332,66.34143657,60.31391511,-49.86764492
69.18742479,-20.04419068,-2.81612207,-0.95323581,1.92582960

>  <Name>
ligand

>  <RI>
0

>  <Rbt.Current_Directory>
/home/itssahil/PROJECTS/Mol_Feturizer/Test_systems_manuscript/rnas/4erj

>  <Rbt.Executable>
rbdock ($Id: //depot/dev/client3/rdock/2013.1/src/exe/rbdock.cxx#4 $)

>  <Rbt.Library>
libRbt.so (2013.1, Build901 2013/11/27)

>  <Rbt.Parameter_File>
/export/apps/rDock/src/rDock_2013.1_src/data/scripts/dock_solv.prm

>  <Rbt.Receptor>
prm/pocket_docking_8.prm

>  <SCORE>
-14.4132

>  <SCORE.INTER>
-12.314

>  <SCORE.INTER.CONST>
1

>  <SCORE.INTER.POLAR>
0

>  <SCORE.INTER.ROT>
5

>  <SCORE.INTER.SOLV>
7.29299

>  <SCORE.INTER.VDW>
-17.5736

>  <SCORE.INTER.norm>
-1.36822

>  <SCORE.INTRA>
-2.09925

>  <SCORE.INTRA.DIHEDRAL>
-5.00434

>  <SCORE.INTRA.DIHEDRAL.0>
7.73744

>  <SCORE.INTRA.POLAR>
0

>  <SCORE.INTRA.POLAR.0>
0

>  <SCORE.INTRA.REPUL>
0

>  <SCORE.INTRA.REPUL.0>
0

>  <SCORE.INTRA.SOLV>
1.02234

>  <SCORE.INTRA.SOLV.lig_0>
-15.8342

>  <SCORE.INTRA.VDW>
-0.108246

>  <SCORE.INTRA.VDW.0>
-0.219494

>  <SCORE.INTRA.norm>
-0.23325

>  <SCORE.RESTR>
0

>  <SCORE.RESTR.CAVITY>
0

>  <SCORE.RESTR.norm>
0

>  <SCORE.SYSTEM>
0

>  <SCORE.SYSTEM.CONST>
0

>  <SCORE.SYSTEM.DIHEDRAL>
0

>  <SCORE.SYSTEM.SOLV>
0

>  <SCORE.SYSTEM.norm>
0

>  <SCORE.heavy>
9

>  <SCORE.norm>
-1.60147

>  <RMSD>
5.182

$$$$
ligand
 OpenBabel02271912143D
libRbt.so/2013.1/901 2013/11/27
  9  8  0  0  0  0  0  0  0  0999 V2000
  -50.4511   71.0335  -20.1148 C   0  0  0  0  0  0  0  0  0  0  0  0
  -49.1816   70.9153  -20.2709 O   0  0  0  0  0  0  0  0  0  0  0  0
  -51.2487   69.8791  -19.6817 C   0  0  0  0  0  0  0  0  0  0  0  0
  -51.0534   72.1269  -20.3703 O   0  0  0  0  0  0  0  0  0  0  0  0
  -50.6150   69.0185  -18.6351 C   0  0  0  0  0  0  0  0  0  0  0  0
  -49.3510   68.3214  -18.9807 C   0  0  0  0  0  0  0  0  0  0  0  0
  -49.4872   67.2693  -20.0684 C   0  0  0  0  0  0  0  0  0  0  0  0
  -48.2235   66.6771  -20.7121 C   0  0  0  0  0  0  0  0  0  0  0  0
  -47.4268   67.5198  -21.4600 N   0  0  0  0  0  0  0  0  0  0  0  0
  1  2  1  0  0  0  0
  1  3  1  0  0  0  0
  1  4  1  0  0  0  0
  3  5  1  0  0  0  0
  5  6  1  0  0  0  0
  6  7  1  0  0  0  0
  7  8  1  0  0  0  0
  8  9  1  0  0  0  0
M  END
>  <CHROM.1>
39.81067236,-62.99432562,-65.37235033,167.92126606,-65.70859818,-49.67276994
69.23861006,-20.04000424,-2.28162663,-0.69314503,2.77900294

>  <Name>
ligand

>  <RI>
0

>  <Rbt.Current_Directory>
/home/itssahil/PROJECTS/Mol_Feturizer/Test_systems_manuscript/rnas/4erj

>  <Rbt.Executable>
rbdock ($Id: //depot/dev/client3/rdock/2013.1/src/exe/rbdock.cxx#4 $)

>  <Rbt.Library>
libRbt.so (2013.1, Build901 2013/11/27)

>  <Rbt.Parameter_File>
/export/apps/rDock/src/rDock_2013.1_src/data/scripts/dock_solv.prm

>  <Rbt.Receptor>
prm/pocket_docking_4.prm

>  <SCORE>
-14.549

>  <SCORE.INTER>
-12.405

>  <SCORE.INTER.CONST>
1

>  <SCORE.INTER.POLAR>
0

>  <SCORE.INTER.ROT>
5

>  <SCORE.INTER.SOLV>
7.551

>  <SCORE.INTER.VDW>
-17.7203

>  <SCORE.INTER.norm>
-1.37833

>  <SCORE.INTRA>
-2.14399

>  <SCORE.INTRA.DIHEDRAL>
-5.27592

>  <SCORE.INTRA.DIHEDRAL.0>
7.73744

>  <SCORE.INTRA.POLAR>
0

>  <SCORE.INTRA.POLAR.0>
0

>  <SCORE.INTRA.REPUL>
0

>  <SCORE.INTRA.REPUL.0>
0

>  <SCORE.INTRA.SOLV>
0.522161

>  <SCORE.INTRA.SOLV.lig_0>
-15.8342

>  <SCORE.INTRA.VDW>
0.232885

>  <SCORE.INTRA.VDW.0>
-0.219494

>  <SCORE.INTRA.norm>
-0.238222

>  <SCORE.RESTR>
0

>  <SCORE.RESTR.CAVITY>
0

>  <SCORE.RESTR.norm>
0

>  <SCORE.SYSTEM>
0

>  <SCORE.SYSTEM.CONST>
0

>  <SCORE.SYSTEM.DIHEDRAL>
0

>  <SCORE.SYSTEM.SOLV>
0

>  <SCORE.SYSTEM.norm>
0

>  <SCORE.heavy>
9

>  <SCORE.norm>
-1.61655

>  <RMSD>
5.186

$$$$
ligand
 OpenBabel02271912143D
libRbt.so/2013.1/901 2013/11/27
  9  8  0  0  0  0  0  0  0  0999 V2000
  -50.4299   71.0856  -20.1026 C   0  0  0  0  0  0  0  0  0  0  0  0
  -49.1599   70.9751  -20.2603 O   0  0  0  0  0  0  0  0  0  0  0  0
  -51.2190   69.9282  -19.6622 C   0  0  0  0  0  0  0  0  0  0  0  0
  -51.0399   72.1736  -20.3628 O   0  0  0  0  0  0  0  0  0  0  0  0
  -50.5676   69.0635  -18.6301 C   0  0  0  0  0  0  0  0  0  0  0  0
  -49.3357   68.3304  -19.0150 C   0  0  0  0  0  0  0  0  0  0  0  0
  -49.5319   67.2991  -20.1136 C   0  0  0  0  0  0  0  0  0  0  0  0
  -48.3046   66.6320  -20.7544 C   0  0  0  0  0  0  0  0  0  0  0  0
  -47.4218   67.4368  -21.4452 N   0  0  0  0  0  0  0  0  0  0  0  0
  1  2  1  0  0  0  0
  1  3  1  0  0  0  0
  1  4  1  0  0  0  0
  3  5  1  0  0  0  0
  5  6  1  0  0  0  0
  6  7  1  0  0  0  0
  7  8  1  0  0  0  0
  8  9  1  0  0  0  0
M  END
>  <CHROM.1>
38.75869417,-65.18955071,-63.61067693,170.46533021,-63.24579824,-49.66948327
69.25732388,-20.04564292,-2.25697385,-0.70150954,2.80130685

>  <Name>
ligand

>  <RI>
0

>  <Rbt.Current_Directory>
/home/itssahil/PROJECTS/Mol_Feturizer/Test_systems_manuscript/rnas/4erj

>  <Rbt.Executable>
rbdock ($Id: //depot/dev/client3/rdock/2013.1/src/exe/rbdock.cxx#4 $)

>  <Rbt.Library>
libRbt.so (2013.1, Build901 2013/11/27)

>  <Rbt.Parameter_File>
/export/apps/rDock/src/rDock_2013.1_src/data/scripts/dock_solv.prm

>  <Rbt.Receptor>
prm/pocket_docking_6.prm

>  <SCORE>
-14.5348

>  <SCORE.INTER>
-12.2707

>  <SCORE.INTER.CONST>
1

>  <SCORE.INTER.POLAR>
0

>  <SCORE.INTER.ROT>
5

>  <SCORE.INTER.SOLV>
7.74252

>  <SCORE.INTER.VDW>
-17.6947

>  <SCORE.INTER.norm>
-1.36341

>  <SCORE.INTRA>
-2.26406

>  <SCORE.INTRA.DIHEDRAL>
-5.5702

>  <SCORE.INTRA.DIHEDRAL.0>
7.73744

>  <SCORE.INTRA.POLAR>
0

>  <SCORE.INTRA.POLAR.0>
0

>  <SCORE.INTRA.REPUL>
0

>  <SCORE.INTRA.REPUL.0>
0

>  <SCORE.INTRA.SOLV>
0.532106

>  <SCORE.INTRA.SOLV.lig_0>
-15.8342

>  <SCORE.INTRA.VDW>
0.254993

>  <SCORE.INTRA.VDW.0>
-0.219494

>  <SCORE.INTRA.norm>
-0.251562

>  <SCORE.RESTR>
0

>  <SCORE.RESTR.CAVITY>
0

>  <SCORE.RESTR.norm>
0

>  <SCORE.SYSTEM>
0

>  <SCORE.SYSTEM.CONST>
0

>  <SCORE.SYSTEM.DIHEDRAL>
0

>  <SCORE.SYSTEM.SOLV>
0

>  <SCORE.SYSTEM.norm>
0

>  <SCORE.heavy>
9

>  <SCORE.norm>
-1.61497

>  <RMSD>
5.197

$$$$
ligand
 OpenBabel02271912143D
libRbt.so/2013.1/901 2013/11/27
  9  8  0  0  0  0  0  0  0  0999 V2000
  -50.2404   69.5223  -18.9934 C   0  0  0  0  0  0  0  0  0  0  0  0
  -51.4959   69.2816  -18.8678 O   0  0  0  0  0  0  0  0  0  0  0  0
  -49.2736   68.8629  -18.1064 C   0  0  0  0  0  0  0  0  0  0  0  0
  -49.8067   70.3616  -19.8484 O   0  0  0  0  0  0  0  0  0  0  0  0
  -49.2874   67.3676  -18.1417 C   0  0  0  0  0  0  0  0  0  0  0  0
  -48.5837   66.6927  -19.2608 C   0  0  0  0  0  0  0  0  0  0  0  0
  -49.2628   66.8368  -20.6123 C   0  0  0  0  0  0  0  0  0  0  0  0
  -48.9248   68.0409  -21.5055 C   0  0  0  0  0  0  0  0  0  0  0  0
  -47.6394   68.1362  -21.9981 N   0  0  0  0  0  0  0  0  0  0  0  0
  1  2  1  0  0  0  0
  1  3  1  0  0  0  0
  1  4  1  0  0  0  0
  3  5  1  0  0  0  0
  5  6  1  0  0  0  0
  6  7  1  0  0  0  0
  7  8  1  0  0  0  0
  8  9  1  0  0  0  0
M  END
>  <CHROM.1>
58.53051814,79.92377087,-70.80988930,88.64592816,65.24434267,-49.41624201
68.37173034,-19.70401157,2.95733926,-0.96188132,2.27643582

>  <Name>
ligand

>  <RI>
0

>  <Rbt.Current_Directory>
/home/itssahil/PROJECTS/Mol_Feturizer/Test_systems_manuscript/rnas/4erj

>  <Rbt.Executable>
rbdock ($Id: //depot/dev/client3/rdock/2013.1/src/exe/rbdock.cxx#4 $)

>  <Rbt.Library>
libRbt.so (2013.1, Build901 2013/11/27)

>  <Rbt.Parameter_File>
/export/apps/rDock/src/rDock_2013.1_src/data/scripts/dock_solv.prm

>  <Rbt.Receptor>
prm/pocket_docking_4.prm

>  <SCORE>
-12.4403

>  <SCORE.INTER>
-11.9704

>  <SCORE.INTER.CONST>
1

>  <SCORE.INTER.POLAR>
0

>  <SCORE.INTER.ROT>
5

>  <SCORE.INTER.SOLV>
6.85438

>  <SCORE.INTER.VDW>
-17.1984

>  <SCORE.INTER.norm>
-1.33004

>  <SCORE.INTRA>
-0.4699

>  <SCORE.INTRA.DIHEDRAL>
-1.12791

>  <SCORE.INTRA.DIHEDRAL.0>
7.73744

>  <SCORE.INTRA.POLAR>
0

>  <SCORE.INTRA.POLAR.0>
0

>  <SCORE.INTRA.REPUL>
0

>  <SCORE.INTRA.REPUL.0>
0

>  <SCORE.INTRA.SOLV>
1.16079

>  <SCORE.INTRA.SOLV.lig_0>
-15.8342

>  <SCORE.INTRA.VDW>
-0.486343

>  <SCORE.INTRA.VDW.0>
-0.219494

>  <SCORE.INTRA.norm>
-0.0522111

>  <SCORE.RESTR>
0

>  <SCORE.RESTR.CAVITY>
0

>  <SCORE.RESTR.norm>
0

>  <SCORE.SYSTEM>
0

>  <SCORE.SYSTEM.CONST>
0

>  <SCORE.SYSTEM.DIHEDRAL>
0

>  <SCORE.SYSTEM.SOLV>
0

>  <SCORE.SYSTEM.norm>
0

>  <SCORE.heavy>
9

>  <SCORE.norm>
-1.38225

>  <RMSD>
5.203

$$$$
ligand
 OpenBabel02271912143D
libRbt.so/2013.1/901 2013/11/27
  9  8  0  0  0  0  0  0  0  0999 V2000
  -49.9200   69.3996  -19.0011 C   0  0  0  0  0  0  0  0  0  0  0  0
  -49.1496   70.0531  -19.7945 O   0  0  0  0  0  0  0  0  0  0  0  0
  -49.3431   68.5512  -17.9505 C   0  0  0  0  0  0  0  0  0  0  0  0
  -51.1874   69.4322  -19.1285 O   0  0  0  0  0  0  0  0  0  0  0  0
  -49.2356   67.0978  -18.2873 C   0  0  0  0  0  0  0  0  0  0  0  0
  -48.3238   66.7061  -19.3910 C   0  0  0  0  0  0  0  0  0  0  0  0
  -48.7889   67.1288  -20.7744 C   0  0  0  0  0  0  0  0  0  0  0  0
  -47.8801   66.8792  -21.9883 C   0  0  0  0  0  0  0  0  0  0  0  0
  -46.6345   67.4730  -21.9928 N   0  0  0  0  0  0  0  0  0  0  0  0
  1  2  1  0  0  0  0
  1  3  1  0  0  0  0
  1  4  1  0  0  0  0
  3  5  1  0  0  0  0
  5  6  1  0  0  0  0
  6  7  1  0  0  0  0
  7  8  1  0  0  0  0
  8  9  1  0  0  0  0
M  END
>  <CHROM.1>
-97.17668331,64.89085274,-69.47345695,175.25751354,-60.10545279,-48.96308953
68.11062323,-19.81367026,3.06289932,-0.92159249,2.39501189

>  <Name>
ligand

>  <RI>
0

>  <Rbt.Current_Directory>
/home/itssahil/PROJECTS/Mol_Feturizer/Test_systems_manuscript/rnas/4erj

>  <Rbt.Executable>
rbdock ($Id: //depot/dev/client3/rdock/2013.1/src/exe/rbdock.cxx#4 $)

>  <Rbt.Library>
libRbt.so (2013.1, Build901 2013/11/27)

>  <Rbt.Parameter_File>
/export/apps/rDock/src/rDock_2013.1_src/data/scripts/dock_solv.prm

>  <Rbt.Receptor>
prm/pocket_docking_5.prm

>  <SCORE>
-14.7322

>  <SCORE.INTER>
-11.8569

>  <SCORE.INTER.CONST>
1

>  <SCORE.INTER.POLAR>
0

>  <SCORE.INTER.ROT>
5

>  <SCORE.INTER.SOLV>
7.81425

>  <SCORE.INTER.VDW>
-17.4427

>  <SCORE.INTER.norm>
-1.31743

>  <SCORE.INTRA>
-2.87529

>  <SCORE.INTRA.DIHEDRAL>
-5.58624

>  <SCORE.INTRA.DIHEDRAL.0>
7.73744

>  <SCORE.INTRA.POLAR>
0

>  <SCORE.INTRA.POLAR.0>
0

>  <SCORE.INTRA.REPUL>
0

>  <SCORE.INTRA.REPUL.0>
0

>  <SCORE.INTRA.SOLV>
0.534482

>  <SCORE.INTRA.SOLV.lig_0>
-15.8342

>  <SCORE.INTRA.VDW>
-0.349409

>  <SCORE.INTRA.VDW.0>
-0.219494

>  <SCORE.INTRA.norm>
-0.319476

>  <SCORE.RESTR>
0

>  <SCORE.RESTR.CAVITY>
0

>  <SCORE.RESTR.norm>
0

>  <SCORE.SYSTEM>
0

>  <SCORE.SYSTEM.CONST>
0

>  <SCORE.SYSTEM.DIHEDRAL>
0

>  <SCORE.SYSTEM.SOLV>
0

>  <SCORE.SYSTEM.norm>
0

>  <SCORE.heavy>
9

>  <SCORE.norm>
-1.63691

>  <RMSD>
5.203

$$$$
ligand
 OpenBabel02271912143D
libRbt.so/2013.1/901 2013/11/27
  9  8  0  0  0  0  0  0  0  0999 V2000
  -49.8929   69.4277  -19.0009 C   0  0  0  0  0  0  0  0  0  0  0  0
  -51.1654   69.5499  -19.1270 O   0  0  0  0  0  0  0  0  0  0  0  0
  -49.3383   68.5671  -17.9482 C   0  0  0  0  0  0  0  0  0  0  0  0
  -49.0859   70.0746  -19.7450 O   0  0  0  0  0  0  0  0  0  0  0  0
  -49.2536   67.1128  -18.2875 C   0  0  0  0  0  0  0  0  0  0  0  0
  -48.3362   66.7070  -19.3815 C   0  0  0  0  0  0  0  0  0  0  0  0
  -48.7849   67.1283  -20.7707 C   0  0  0  0  0  0  0  0  0  0  0  0
  -47.8722   66.8558  -21.9768 C   0  0  0  0  0  0  0  0  0  0  0  0
  -46.6279   67.4520  -21.9901 N   0  0  0  0  0  0  0  0  0  0  0  0
  1  2  1  0  0  0  0
  1  3  1  0  0  0  0
  1  4  1  0  0  0  0
  3  5  1  0  0  0  0
  5  6  1  0  0  0  0
  6  7  1  0  0  0  0
  7  8  1  0  0  0  0
  8  9  1  0  0  0  0
M  END
>  <CHROM.1>
83.54051543,65.16586751,-70.11169973,175.66352329,-61.46693757,-48.95063412
68.12920435,-19.80406629,3.10518600,-0.93307836,2.42638205

>  <Name>
ligand

>  <RI>
0

>  <Rbt.Current_Directory>
/home/itssahil/PROJECTS/Mol_Feturizer/Test_systems_manuscript/rnas/4erj

>  <Rbt.Executable>
rbdock ($Id: //depot/dev/client3/rdock/2013.1/src/exe/rbdock.cxx#4 $)

>  <Rbt.Library>
libRbt.so (2013.1, Build901 2013/11/27)

>  <Rbt.Parameter_File>
/export/apps/rDock/src/rDock_2013.1_src/data/scripts/dock_solv.prm

>  <Rbt.Receptor>
prm/pocket_docking_6.prm

>  <SCORE>
-14.658

>  <SCORE.INTER>
-11.8453

>  <SCORE.INTER.CONST>
1

>  <SCORE.INTER.POLAR>
0

>  <SCORE.INTER.ROT>
5

>  <SCORE.INTER.SOLV>
7.83931

>  <SCORE.INTER.VDW>
-17.4433

>  <SCORE.INTER.norm>
-1.31614

>  <SCORE.INTRA>
-2.81274

>  <SCORE.INTRA.DIHEDRAL>
-5.34774

>  <SCORE.INTRA.DIHEDRAL.0>
7.73744

>  <SCORE.INTRA.POLAR>
0

>  <SCORE.INTRA.POLAR.0>
0

>  <SCORE.INTRA.REPUL>
0

>  <SCORE.INTRA.REPUL.0>
0

>  <SCORE.INTRA.SOLV>
0.51972

>  <SCORE.INTRA.SOLV.lig_0>
-15.8342

>  <SCORE.INTRA.VDW>
-0.39873

>  <SCORE.INTRA.VDW.0>
-0.219494

>  <SCORE.INTRA.norm>
-0.312526

>  <SCORE.RESTR>
0

>  <SCORE.RESTR.CAVITY>
0

>  <SCORE.RESTR.norm>
0

>  <SCORE.SYSTEM>
0

>  <SCORE.SYSTEM.CONST>
0

>  <SCORE.SYSTEM.DIHEDRAL>
0

>  <SCORE.SYSTEM.SOLV>
0

>  <SCORE.SYSTEM.norm>
0

>  <SCORE.heavy>
9

>  <SCORE.norm>
-1.62867

>  <RMSD>
5.206

$$$$
ligand
 OpenBabel02271912143D
libRbt.so/2013.1/901 2013/11/27
  9  8  0  0  0  0  0  0  0  0999 V2000
  -50.9874   70.5016  -20.2844 C   0  0  0  0  0  0  0  0  0  0  0  0
  -50.9608   71.7562  -20.0101 O   0  0  0  0  0  0  0  0  0  0  0  0
  -51.2279   69.5214  -19.2177 C   0  0  0  0  0  0  0  0  0  0  0  0
  -50.7646   70.0740  -21.4638 O   0  0  0  0  0  0  0  0  0  0  0  0
  -50.0116   69.0772  -18.4691 C   0  0  0  0  0  0  0  0  0  0  0  0
  -48.8521   68.5873  -19.2556 C   0  0  0  0  0  0  0  0  0  0  0  0
  -49.1171   67.3177  -20.0471 C   0  0  0  0  0  0  0  0  0  0  0  0
  -48.0269   66.7638  -20.9780 C   0  0  0  0  0  0  0  0  0  0  0  0
  -47.5779   67.5767  -21.9986 N   0  0  0  0  0  0  0  0  0  0  0  0
  1  2  1  0  0  0  0
  1  3  1  0  0  0  0
  1  4  1  0  0  0  0
  3  5  1  0  0  0  0
  5  6  1  0  0  0  0
  6  7  1  0  0  0  0
  7  8  1  0  0  0  0
  8  9  1  0  0  0  0
M  END
>  <CHROM.1>
-86.47814486,-51.85792770,-64.26654421,175.78873447,-59.23353918,-49.74064965
69.05483379,-20.20665708,-3.05995818,-0.89737123,1.95278929

>  <Name>
ligand

>  <RI>
0

>  <Rbt.Current_Directory>
/home/itssahil/PROJECTS/Mol_Feturizer/Test_systems_manuscript/rnas/4erj

>  <Rbt.Executable>
rbdock ($Id: //depot/dev/client3/rdock/2013.1/src/exe/rbdock.cxx#4 $)

>  <Rbt.Library>
libRbt.so (2013.1, Build901 2013/11/27)

>  <Rbt.Parameter_File>
/export/apps/rDock/src/rDock_2013.1_src/data/scripts/dock_solv.prm

>  <Rbt.Receptor>
prm/pocket_docking_7.prm

>  <SCORE>
-14.3524

>  <SCORE.INTER>
-11.4853

>  <SCORE.INTER.CONST>
1

>  <SCORE.INTER.POLAR>
0

>  <SCORE.INTER.ROT>
5

>  <SCORE.INTER.SOLV>
6.82011

>  <SCORE.INTER.VDW>
-16.8636

>  <SCORE.INTER.norm>
-1.27615

>  <SCORE.INTRA>
-2.8671

>  <SCORE.INTRA.DIHEDRAL>
-5.73111

>  <SCORE.INTRA.DIHEDRAL.0>
7.73744

>  <SCORE.INTRA.POLAR>
0

>  <SCORE.INTRA.POLAR.0>
0

>  <SCORE.INTRA.REPUL>
0

>  <SCORE.INTRA.REPUL.0>
0

>  <SCORE.INTRA.SOLV>
0.542216

>  <SCORE.INTRA.SOLV.lig_0>
-15.8342

>  <SCORE.INTRA.VDW>
-0.272655

>  <SCORE.INTRA.VDW.0>
-0.219494

>  <SCORE.INTRA.norm>
-0.318567

>  <SCORE.RESTR>
0

>  <SCORE.RESTR.CAVITY>
0

>  <SCORE.RESTR.norm>
0

>  <SCORE.SYSTEM>
0

>  <SCORE.SYSTEM.CONST>
0

>  <SCORE.SYSTEM.DIHEDRAL>
0

>  <SCORE.SYSTEM.SOLV>
0

>  <SCORE.SYSTEM.norm>
0

>  <SCORE.heavy>
9

>  <SCORE.norm>
-1.59472

>  <RMSD>
5.206

$$$$
ligand
 OpenBabel02271912143D
libRbt.so/2013.1/901 2013/11/27
  9  8  0  0  0  0  0  0  0  0999 V2000
  -49.9205   69.4207  -18.9953 C   0  0  0  0  0  0  0  0  0  0  0  0
  -49.1475   70.1017  -19.7624 O   0  0  0  0  0  0  0  0  0  0  0  0
  -49.3482   68.5655  -17.9477 C   0  0  0  0  0  0  0  0  0  0  0  0
  -51.1856   69.4317  -19.1471 O   0  0  0  0  0  0  0  0  0  0  0  0
  -49.2598   67.1109  -18.2848 C   0  0  0  0  0  0  0  0  0  0  0  0
  -48.3521   66.7073  -19.3877 C   0  0  0  0  0  0  0  0  0  0  0  0
  -48.7941   67.1631  -20.7681 C   0  0  0  0  0  0  0  0  0  0  0  0
  -47.9065   66.8612  -21.9859 C   0  0  0  0  0  0  0  0  0  0  0  0
  -46.6373   67.4024  -22.0073 N   0  0  0  0  0  0  0  0  0  0  0  0
  1  2  1  0  0  0  0
  1  3  1  0  0  0  0
  1  4  1  0  0  0  0
  3  5  1  0  0  0  0
  5  6  1  0  0  0  0
  6  7  1  0  0  0  0
  7  8  1  0  0  0  0
  8  9  1  0  0  0  0
M  END
>  <CHROM.1>
-99.64125496,65.27429695,-68.19083223,177.31345456,-61.62121949,-48.97271979
68.11582218,-19.81112646,3.08022496,-0.93031398,2.40523245

>  <Name>
ligand

>  <RI>
0

>  <Rbt.Current_Directory>
/home/itssahil/PROJECTS/Mol_Feturizer/Test_systems_manuscript/rnas/4erj

>  <Rbt.Executable>
rbdock ($Id: //depot/dev/client3/rdock/2013.1/src/exe/rbdock.cxx#4 $)

>  <Rbt.Library>
libRbt.so (2013.1, Build901 2013/11/27)

>  <Rbt.Parameter_File>
/export/apps/rDock/src/rDock_2013.1_src/data/scripts/dock_solv.prm

>  <Rbt.Receptor>
prm/pocket_docking_5.prm

>  <SCORE>
-14.6687

>  <SCORE.INTER>
-11.7736

>  <SCORE.INTER.CONST>
1

>  <SCORE.INTER.POLAR>
0

>  <SCORE.INTER.ROT>
5

>  <SCORE.INTER.SOLV>
7.8859

>  <SCORE.INTER.VDW>
-17.4111

>  <SCORE.INTER.norm>
-1.30818

>  <SCORE.INTRA>
-2.89503

>  <SCORE.INTRA.DIHEDRAL>
-5.70926

>  <SCORE.INTRA.DIHEDRAL.0>
7.73744

>  <SCORE.INTRA.POLAR>
0

>  <SCORE.INTRA.POLAR.0>
0

>  <SCORE.INTRA.REPUL>
0

>  <SCORE.INTRA.REPUL.0>
0

>  <SCORE.INTRA.SOLV>
0.509743

>  <SCORE.INTRA.SOLV.lig_0>
-15.8342

>  <SCORE.INTRA.VDW>
-0.295269

>  <SCORE.INTRA.VDW.0>
-0.219494

>  <SCORE.INTRA.norm>
-0.32167

>  <SCORE.RESTR>
0

>  <SCORE.RESTR.CAVITY>
0

>  <SCORE.RESTR.norm>
0

>  <SCORE.SYSTEM>
0

>  <SCORE.SYSTEM.CONST>
0

>  <SCORE.SYSTEM.DIHEDRAL>
0

>  <SCORE.SYSTEM.SOLV>
0

>  <SCORE.SYSTEM.norm>
0

>  <SCORE.heavy>
9

>  <SCORE.norm>
-1.62985

>  <RMSD>
5.211

$$$$
ligand
 OpenBabel02271912143D
libRbt.so/2013.1/901 2013/11/27
  9  8  0  0  0  0  0  0  0  0999 V2000
  -49.8992   69.4729  -18.9930 C   0  0  0  0  0  0  0  0  0  0  0  0
  -51.1696   69.6484  -19.0648 O   0  0  0  0  0  0  0  0  0  0  0  0
  -49.3388   68.5664  -17.9828 C   0  0  0  0  0  0  0  0  0  0  0  0
  -49.0966   70.1048  -19.7547 O   0  0  0  0  0  0  0  0  0  0  0  0
  -49.3019   67.1216  -18.3679 C   0  0  0  0  0  0  0  0  0  0  0  0
  -48.3070   66.6990  -19.3851 C   0  0  0  0  0  0  0  0  0  0  0  0
  -48.5140   67.3076  -20.7619 C   0  0  0  0  0  0  0  0  0  0  0  0
  -47.5025   67.0125  -21.8806 C   0  0  0  0  0  0  0  0  0  0  0  0
  -47.6491   67.6872  -23.0753 N   0  0  0  0  0  0  0  0  0  0  0  0
  1  2  1  0  0  0  0
  1  3  1  0  0  0  0
  1  4  1  0  0  0  0
  3  5  1  0  0  0  0
  5  6  1  0  0  0  0
  6  7  1  0  0  0  0
  7  8  1  0  0  0  0
  8  9  1  0  0  0  0
M  END
>  <CHROM.1>
84.68762811,72.47084915,-64.06805932,176.47361074,-173.65834385,-48.99674258
68.21203014,-19.91686135,2.81478453,-0.98662870,2.22256422

>  <Name>
ligand

>  <RI>
0

>  <Rbt.Current_Directory>
/home/itssahil/PROJECTS/Mol_Feturizer/Test_systems_manuscript/rnas/4erj

>  <Rbt.Executable>
rbdock ($Id: //depot/dev/client3/rdock/2013.1/src/exe/rbdock.cxx#4 $)

>  <Rbt.Library>
libRbt.so (2013.1, Build901 2013/11/27)

>  <Rbt.Parameter_File>
/export/apps/rDock/src/rDock_2013.1_src/data/scripts/dock_solv.prm

>  <Rbt.Receptor>
prm/blind_docking_100.prm

>  <SCORE>
-14.2043

>  <SCORE.INTER>
-11.4174

>  <SCORE.INTER.CONST>
1

>  <SCORE.INTER.POLAR>
0

>  <SCORE.INTER.ROT>
5

>  <SCORE.INTER.SOLV>
8.08279

>  <SCORE.INTER.VDW>
-17.2392

>  <SCORE.INTER.norm>
-1.2686

>  <SCORE.INTRA>
-2.78687

>  <SCORE.INTRA.DIHEDRAL>
-5.06102

>  <SCORE.INTRA.DIHEDRAL.0>
7.73744

>  <SCORE.INTRA.POLAR>
0

>  <SCORE.INTRA.POLAR.0>
0

>  <SCORE.INTRA.REPUL>
0

>  <SCORE.INTRA.REPUL.0>
0

>  <SCORE.INTRA.SOLV>
-0.133807

>  <SCORE.INTRA.SOLV.lig_0>
-15.8342

>  <SCORE.INTRA.VDW>
-0.189459

>  <SCORE.INTRA.VDW.0>
-0.219494

>  <SCORE.INTRA.norm>
-0.309653

>  <SCORE.RESTR>
0

>  <SCORE.RESTR.CAVITY>
0

>  <SCORE.RESTR.norm>
0

>  <SCORE.SYSTEM>
0

>  <SCORE.SYSTEM.CONST>
0

>  <SCORE.SYSTEM.DIHEDRAL>
0

>  <SCORE.SYSTEM.SOLV>
0

>  <SCORE.SYSTEM.norm>
0

>  <SCORE.heavy>
9

>  <SCORE.norm>
-1.57825

>  <RMSD>
5.212

$$$$
ligand
 OpenBabel02271912143D
libRbt.so/2013.1/901 2013/11/27
  9  8  0  0  0  0  0  0  0  0999 V2000
  -48.7185   68.4192  -18.5057 C   0  0  0  0  0  0  0  0  0  0  0  0
  -47.9873   69.2662  -19.1363 O   0  0  0  0  0  0  0  0  0  0  0  0
  -48.7019   67.0027  -18.8926 C   0  0  0  0  0  0  0  0  0  0  0  0
  -49.5020   68.7843  -17.5695 O   0  0  0  0  0  0  0  0  0  0  0  0
  -49.4123   66.6782  -20.1683 C   0  0  0  0  0  0  0  0  0  0  0  0
  -48.8790   67.2566  -21.4269 C   0  0  0  0  0  0  0  0  0  0  0  0
  -47.4952   66.7620  -21.8126 C   0  0  0  0  0  0  0  0  0  0  0  0
  -46.8698   67.2194  -23.1399 C   0  0  0  0  0  0  0  0  0  0  0  0
  -46.6719   68.5723  -23.3257 N   0  0  0  0  0  0  0  0  0  0  0  0
  1  2  1  0  0  0  0
  1  3  1  0  0  0  0
  1  4  1  0  0  0  0
  3  5  1  0  0  0  0
  5  6  1  0  0  0  0
  6  7  1  0  0  0  0
  7  8  1  0  0  0  0
  8  9  1  0  0  0  0
M  END
>  <CHROM.1>
-73.69019104,64.07683814,64.98390829,176.21437580,60.03575169,-48.25677465
67.80168140,-20.40761273,-2.26381984,-0.92821444,-2.33046549

>  <Name>
ligand

>  <RI>
0

>  <Rbt.Current_Directory>
/home/itssahil/PROJECTS/Mol_Feturizer/Test_systems_manuscript/rnas/4erj

>  <Rbt.Executable>
rbdock ($Id: //depot/dev/client3/rdock/2013.1/src/exe/rbdock.cxx#4 $)

>  <Rbt.Library>
libRbt.so (2013.1, Build901 2013/11/27)

>  <Rbt.Parameter_File>
/export/apps/rDock/src/rDock_2013.1_src/data/scripts/dock_solv.prm

>  <Rbt.Receptor>
prm/pocket_docking_8.prm

>  <SCORE>
-13.5103

>  <SCORE.INTER>
-10.5433

>  <SCORE.INTER.CONST>
1

>  <SCORE.INTER.POLAR>
0

>  <SCORE.INTER.ROT>
5

>  <SCORE.INTER.SOLV>
8.25149

>  <SCORE.INTER.VDW>
-16.7127

>  <SCORE.INTER.norm>
-1.17148

>  <SCORE.INTRA>
-2.96699

>  <SCORE.INTRA.DIHEDRAL>
-5.89505

>  <SCORE.INTRA.DIHEDRAL.0>
7.73744

>  <SCORE.INTRA.POLAR>
0

>  <SCORE.INTRA.POLAR.0>
0

>  <SCORE.INTRA.REPUL>
0

>  <SCORE.INTRA.REPUL.0>
0

>  <SCORE.INTRA.SOLV>
0.504803

>  <SCORE.INTRA.SOLV.lig_0>
-15.8342

>  <SCORE.INTRA.VDW>
-0.271868

>  <SCORE.INTRA.VDW.0>
-0.219494

>  <SCORE.INTRA.norm>
-0.329666

>  <SCORE.RESTR>
0

>  <SCORE.RESTR.CAVITY>
0

>  <SCORE.RESTR.norm>
0

>  <SCORE.SYSTEM>
0

>  <SCORE.SYSTEM.CONST>
0

>  <SCORE.SYSTEM.DIHEDRAL>
0

>  <SCORE.SYSTEM.SOLV>
0

>  <SCORE.SYSTEM.norm>
0

>  <SCORE.heavy>
9

>  <SCORE.norm>
-1.50115

>  <RMSD>
5.212

$$$$
ligand
 OpenBabel02271912143D
libRbt.so/2013.1/901 2013/11/27
  9  8  0  0  0  0  0  0  0  0999 V2000
  -50.8836   69.9336  -19.7002 C   0  0  0  0  0  0  0  0  0  0  0  0
  -51.6331   69.6605  -18.6934 O   0  0  0  0  0  0  0  0  0  0  0  0
  -49.4315   69.7343  -19.6106 C   0  0  0  0  0  0  0  0  0  0  0  0
  -51.3651   70.4205  -20.7747 O   0  0  0  0  0  0  0  0  0  0  0  0
  -48.9762   68.8190  -18.5187 C   0  0  0  0  0  0  0  0  0  0  0  0
  -49.3151   67.3785  -18.6334 C   0  0  0  0  0  0  0  0  0  0  0  0
  -48.4435   66.6001  -19.6047 C   0  0  0  0  0  0  0  0  0  0  0  0
  -48.5330   66.8988  -21.1095 C   0  0  0  0  0  0  0  0  0  0  0  0
  -47.9822   68.0791  -21.5653 N   0  0  0  0  0  0  0  0  0  0  0  0
  1  2  1  0  0  0  0
  1  3  1  0  0  0  0
  1  4  1  0  0  0  0
  3  5  1  0  0  0  0
  5  6  1  0  0  0  0
  6  7  1  0  0  0  0
  7  8  1  0  0  0  0
  8  9  1  0  0  0  0
M  END
>  <CHROM.1>
19.13453658,67.98064701,77.56710573,-67.36493014,72.76545249,-49.65640633
68.63707969,-19.80041215,-3.06465032,-0.81228081,1.92427485

>  <Name>
ligand

>  <RI>
0

>  <Rbt.Current_Directory>
/home/itssahil/PROJECTS/Mol_Feturizer/Test_systems_manuscript/rnas/4erj

>  <Rbt.Executable>
rbdock ($Id: //depot/dev/client3/rdock/2013.1/src/exe/rbdock.cxx#4 $)

>  <Rbt.Library>
libRbt.so (2013.1, Build901 2013/11/27)

>  <Rbt.Parameter_File>
/export/apps/rDock/src/rDock_2013.1_src/data/scripts/dock_solv.prm

>  <Rbt.Receptor>
prm/pocket_docking_8.prm

>  <SCORE>
-13.9264

>  <SCORE.INTER>
-13.7581

>  <SCORE.INTER.CONST>
1

>  <SCORE.INTER.POLAR>
0

>  <SCORE.INTER.ROT>
5

>  <SCORE.INTER.SOLV>
5.59707

>  <SCORE.INTER.VDW>
-17.9711

>  <SCORE.INTER.norm>
-1.52868

>  <SCORE.INTRA>
-0.168243

>  <SCORE.INTRA.DIHEDRAL>
-3.85122

>  <SCORE.INTRA.DIHEDRAL.0>
7.73744

>  <SCORE.INTRA.POLAR>
0

>  <SCORE.INTRA.POLAR.0>
0

>  <SCORE.INTRA.REPUL>
0

>  <SCORE.INTRA.REPUL.0>
0

>  <SCORE.INTRA.SOLV>
2.68389

>  <SCORE.INTRA.SOLV.lig_0>
-15.8342

>  <SCORE.INTRA.VDW>
0.415422

>  <SCORE.INTRA.VDW.0>
-0.219494

>  <SCORE.INTRA.norm>
-0.0186937

>  <SCORE.RESTR>
0

>  <SCORE.RESTR.CAVITY>
0

>  <SCORE.RESTR.norm>
0

>  <SCORE.SYSTEM>
0

>  <SCORE.SYSTEM.CONST>
0

>  <SCORE.SYSTEM.DIHEDRAL>
0

>  <SCORE.SYSTEM.SOLV>
0

>  <SCORE.SYSTEM.norm>
0

>  <SCORE.heavy>
9

>  <SCORE.norm>
-1.54737

>  <RMSD>
5.217

$$$$
ligand
 OpenBabel02271912143D
libRbt.so/2013.1/901 2013/11/27
  9  8  0  0  0  0  0  0  0  0999 V2000
  -49.9071   69.4436  -18.9665 C   0  0  0  0  0  0  0  0  0  0  0  0
  -51.1796   69.5899  -19.0635 O   0  0  0  0  0  0  0  0  0  0  0  0
  -49.3471   68.5302  -17.9623 C   0  0  0  0  0  0  0  0  0  0  0  0
  -49.1037   70.1101  -19.6972 O   0  0  0  0  0  0  0  0  0  0  0  0
  -49.3051   67.0887  -18.3594 C   0  0  0  0  0  0  0  0  0  0  0  0
  -48.3136   66.6794  -19.3853 C   0  0  0  0  0  0  0  0  0  0  0  0
  -48.5244   67.3069  -20.7529 C   0  0  0  0  0  0  0  0  0  0  0  0
  -47.5280   67.0095  -21.8846 C   0  0  0  0  0  0  0  0  0  0  0  0
  -47.6753   67.7006  -23.0699 N   0  0  0  0  0  0  0  0  0  0  0  0
  1  2  1  0  0  0  0
  1  3  1  0  0  0  0
  1  4  1  0  0  0  0
  3  5  1  0  0  0  0
  5  6  1  0  0  0  0
  6  7  1  0  0  0  0
  7  8  1  0  0  0  0
  8  9  1  0  0  0  0
M  END
>  <CHROM.1>
82.88800551,71.98228608,-63.59391365,177.38153572,-173.63061272,-49.00837311
68.19396646,-19.90274068,2.80747618,-0.98952238,2.22665617

>  <Name>
ligand

>  <RI>
0

>  <Rbt.Current_Directory>
/home/itssahil/PROJECTS/Mol_Feturizer/Test_systems_manuscript/rnas/4erj

>  <Rbt.Executable>
rbdock ($Id: //depot/dev/client3/rdock/2013.1/src/exe/rbdock.cxx#4 $)

>  <Rbt.Library>
libRbt.so (2013.1, Build901 2013/11/27)

>  <Rbt.Parameter_File>
/export/apps/rDock/src/rDock_2013.1_src/data/scripts/dock_solv.prm

>  <Rbt.Receptor>
prm/pocket_docking_8.prm

>  <SCORE>
-14.1914

>  <SCORE.INTER>
-11.3713

>  <SCORE.INTER.CONST>
1

>  <SCORE.INTER.POLAR>
0

>  <SCORE.INTER.ROT>
5

>  <SCORE.INTER.SOLV>
8.1369

>  <SCORE.INTER.VDW>
-17.2265

>  <SCORE.INTER.norm>
-1.26348

>  <SCORE.INTRA>
-2.82008

>  <SCORE.INTRA.DIHEDRAL>
-5.14847

>  <SCORE.INTRA.DIHEDRAL.0>
7.73744

>  <SCORE.INTRA.POLAR>
0

>  <SCORE.INTRA.POLAR.0>
0

>  <SCORE.INTRA.REPUL>
0

>  <SCORE.INTRA.REPUL.0>
0

>  <SCORE.INTRA.SOLV>
-0.134214

>  <SCORE.INTRA.SOLV.lig_0>
-15.8342

>  <SCORE.INTRA.VDW>
-0.17874

>  <SCORE.INTRA.VDW.0>
-0.219494

>  <SCORE.INTRA.norm>
-0.313342

>  <SCORE.RESTR>
0

>  <SCORE.RESTR.CAVITY>
0

>  <SCORE.RESTR.norm>
0

>  <SCORE.SYSTEM>
0

>  <SCORE.SYSTEM.CONST>
0

>  <SCORE.SYSTEM.DIHEDRAL>
0

>  <SCORE.SYSTEM.SOLV>
0

>  <SCORE.SYSTEM.norm>
0

>  <SCORE.heavy>
9

>  <SCORE.norm>
-1.57682

>  <RMSD>
5.220

$$$$
ligand
 OpenBabel02271912143D
libRbt.so/2013.1/901 2013/11/27
  9  8  0  0  0  0  0  0  0  0999 V2000
  -50.8768   69.9711  -19.6992 C   0  0  0  0  0  0  0  0  0  0  0  0
  -51.6250   69.6805  -18.6964 O   0  0  0  0  0  0  0  0  0  0  0  0
  -49.4271   69.7498  -19.6226 C   0  0  0  0  0  0  0  0  0  0  0  0
  -51.3567   70.4938  -20.7575 O   0  0  0  0  0  0  0  0  0  0  0  0
  -48.9772   68.8164  -18.5438 C   0  0  0  0  0  0  0  0  0  0  0  0
  -49.3345   67.3816  -18.6731 C   0  0  0  0  0  0  0  0  0  0  0  0
  -48.4681   66.6003  -19.6466 C   0  0  0  0  0  0  0  0  0  0  0  0
  -48.5398   66.9185  -21.1484 C   0  0  0  0  0  0  0  0  0  0  0  0
  -47.9574   68.0903  -21.5865 N   0  0  0  0  0  0  0  0  0  0  0  0
  1  2  1  0  0  0  0
  1  3  1  0  0  0  0
  1  4  1  0  0  0  0
  3  5  1  0  0  0  0
  5  6  1  0  0  0  0
  6  7  1  0  0  0  0
  7  8  1  0  0  0  0
  8  9  1  0  0  0  0
M  END
>  <CHROM.1>
18.15248191,68.15396690,78.21256666,-67.03415984,73.19370454,-49.65619814
68.65739247,-19.81809692,-3.04853610,-0.82007021,1.95697634

>  <Name>
ligand

>  <RI>
0

>  <Rbt.Current_Directory>
/home/itssahil/PROJECTS/Mol_Feturizer/Test_systems_manuscript/rnas/4erj

>  <Rbt.Executable>
rbdock ($Id: //depot/dev/client3/rdock/2013.1/src/exe/rbdock.cxx#4 $)

>  <Rbt.Library>
libRbt.so (2013.1, Build901 2013/11/27)

>  <Rbt.Parameter_File>
/export/apps/rDock/src/rDock_2013.1_src/data/scripts/dock_solv.prm

>  <Rbt.Receptor>
prm/pocket_docking_5.prm

>  <SCORE>
-13.9167

>  <SCORE.INTER>
-13.7712

>  <SCORE.INTER.CONST>
1

>  <SCORE.INTER.POLAR>
0

>  <SCORE.INTER.ROT>
5

>  <SCORE.INTER.SOLV>
5.60323

>  <SCORE.INTER.VDW>
-17.9819

>  <SCORE.INTER.norm>
-1.53013

>  <SCORE.INTRA>
-0.145464

>  <SCORE.INTRA.DIHEDRAL>
-3.73398

>  <SCORE.INTRA.DIHEDRAL.0>
7.73744

>  <SCORE.INTRA.POLAR>
0

>  <SCORE.INTRA.POLAR.0>
0

>  <SCORE.INTRA.REPUL>
0

>  <SCORE.INTRA.REPUL.0>
0

>  <SCORE.INTRA.SOLV>
2.64782

>  <SCORE.INTRA.SOLV.lig_0>
-15.8342

>  <SCORE.INTRA.VDW>
0.397617

>  <SCORE.INTRA.VDW.0>
-0.219494

>  <SCORE.INTRA.norm>
-0.0161626

>  <SCORE.RESTR>
0

>  <SCORE.RESTR.CAVITY>
0

>  <SCORE.RESTR.norm>
0

>  <SCORE.SYSTEM>
0

>  <SCORE.SYSTEM.CONST>
0

>  <SCORE.SYSTEM.DIHEDRAL>
0

>  <SCORE.SYSTEM.SOLV>
0

>  <SCORE.SYSTEM.norm>
0

>  <SCORE.heavy>
9

>  <SCORE.norm>
-1.54629

>  <RMSD>
5.222

$$$$
ligand
 OpenBabel02271912143D
libRbt.so/2013.1/901 2013/11/27
  9  8  0  0  0  0  0  0  0  0999 V2000
  -49.9153   69.4484  -18.9549 C   0  0  0  0  0  0  0  0  0  0  0  0
  -51.1848   69.6286  -19.0311 O   0  0  0  0  0  0  0  0  0  0  0  0
  -49.3643   68.5106  -17.9684 C   0  0  0  0  0  0  0  0  0  0  0  0
  -49.1057   70.1013  -19.6910 O   0  0  0  0  0  0  0  0  0  0  0  0
  -49.3128   67.0802  -18.4028 C   0  0  0  0  0  0  0  0  0  0  0  0
  -48.3138   66.7028  -19.4336 C   0  0  0  0  0  0  0  0  0  0  0  0
  -48.5402   67.3385  -20.7950 C   0  0  0  0  0  0  0  0  0  0  0  0
  -47.5344   67.0811  -21.9281 C   0  0  0  0  0  0  0  0  0  0  0  0
  -47.6982   67.7817  -23.1056 N   0  0  0  0  0  0  0  0  0  0  0  0
  1  2  1  0  0  0  0
  1  3  1  0  0  0  0
  1  4  1  0  0  0  0
  3  5  1  0  0  0  0
  5  6  1  0  0  0  0
  6  7  1  0  0  0  0
  7  8  1  0  0  0  0
  8  9  1  0  0  0  0
M  END
>  <CHROM.1>
85.35064214,71.58179434,-65.01024486,177.01098964,-173.53230031,-49.01773394
68.21780519,-19.92081997,2.79820475,-0.98929366,2.23727498

>  <Name>
ligand

>  <RI>
0

>  <Rbt.Current_Directory>
/home/itssahil/PROJECTS/Mol_Feturizer/Test_systems_manuscript/rnas/4erj

>  <Rbt.Executable>
rbdock ($Id: //depot/dev/client3/rdock/2013.1/src/exe/rbdock.cxx#4 $)

>  <Rbt.Library>
libRbt.so (2013.1, Build901 2013/11/27)

>  <Rbt.Parameter_File>
/export/apps/rDock/src/rDock_2013.1_src/data/scripts/dock_solv.prm

>  <Rbt.Receptor>
prm/blind_docking_100.prm

>  <SCORE>
-14.1396

>  <SCORE.INTER>
-11.3106

>  <SCORE.INTER.CONST>
1

>  <SCORE.INTER.POLAR>
0

>  <SCORE.INTER.ROT>
5

>  <SCORE.INTER.SOLV>
8.06331

>  <SCORE.INTER.VDW>
-17.1615

>  <SCORE.INTER.norm>
-1.25673

>  <SCORE.INTRA>
-2.82897

>  <SCORE.INTRA.DIHEDRAL>
-5.11688

>  <SCORE.INTRA.DIHEDRAL.0>
7.73744

>  <SCORE.INTRA.POLAR>
0

>  <SCORE.INTRA.POLAR.0>
0

>  <SCORE.INTRA.REPUL>
0

>  <SCORE.INTRA.REPUL.0>
0

>  <SCORE.INTRA.SOLV>
-0.133777

>  <SCORE.INTRA.SOLV.lig_0>
-15.8342

>  <SCORE.INTRA.VDW>
-0.203637

>  <SCORE.INTRA.VDW.0>
-0.219494

>  <SCORE.INTRA.norm>
-0.31433

>  <SCORE.RESTR>
0

>  <SCORE.RESTR.CAVITY>
0

>  <SCORE.RESTR.norm>
0

>  <SCORE.SYSTEM>
0

>  <SCORE.SYSTEM.CONST>
0

>  <SCORE.SYSTEM.DIHEDRAL>
0

>  <SCORE.SYSTEM.SOLV>
0

>  <SCORE.SYSTEM.norm>
0

>  <SCORE.heavy>
9

>  <SCORE.norm>
-1.57106

>  <RMSD>
5.223

$$$$
ligand
 OpenBabel02271912143D
libRbt.so/2013.1/901 2013/11/27
  9  8  0  0  0  0  0  0  0  0999 V2000
  -49.9147   69.4351  -18.9634 C   0  0  0  0  0  0  0  0  0  0  0  0
  -51.1886   69.5717  -19.0558 O   0  0  0  0  0  0  0  0  0  0  0  0
  -49.3439   68.5327  -17.9553 C   0  0  0  0  0  0  0  0  0  0  0  0
  -49.1192   70.1021  -19.7022 O   0  0  0  0  0  0  0  0  0  0  0  0
  -49.2798   67.0909  -18.3483 C   0  0  0  0  0  0  0  0  0  0  0  0
  -48.2806   66.6935  -19.3714 C   0  0  0  0  0  0  0  0  0  0  0  0
  -48.5141   67.2922  -20.7482 C   0  0  0  0  0  0  0  0  0  0  0  0
  -47.5029   67.0217  -21.8734 C   0  0  0  0  0  0  0  0  0  0  0  0
  -47.6774   67.6874  -23.0695 N   0  0  0  0  0  0  0  0  0  0  0  0
  1  2  1  0  0  0  0
  1  3  1  0  0  0  0
  1  4  1  0  0  0  0
  3  5  1  0  0  0  0
  5  6  1  0  0  0  0
  6  7  1  0  0  0  0
  7  8  1  0  0  0  0
  8  9  1  0  0  0  0
M  END
>  <CHROM.1>
83.52015329,71.94322141,-64.75518300,176.50362933,-173.73374222,-49.00177763
68.19025754,-19.89683587,2.78689752,-0.98061332,2.20199675

>  <Name>
ligand

>  <RI>
0

>  <Rbt.Current_Directory>
/home/itssahil/PROJECTS/Mol_Feturizer/Test_systems_manuscript/rnas/4erj

>  <Rbt.Executable>
rbdock ($Id: //depot/dev/client3/rdock/2013.1/src/exe/rbdock.cxx#4 $)

>  <Rbt.Library>
libRbt.so (2013.1, Build901 2013/11/27)

>  <Rbt.Parameter_File>
/export/apps/rDock/src/rDock_2013.1_src/data/scripts/dock_solv.prm

>  <Rbt.Receptor>
prm/pocket_docking_6.prm

>  <SCORE>
-14.2158

>  <SCORE.INTER>
-11.3757

>  <SCORE.INTER.CONST>
1

>  <SCORE.INTER.POLAR>
0

>  <SCORE.INTER.ROT>
5

>  <SCORE.INTER.SOLV>
8.14619

>  <SCORE.INTER.VDW>
-17.2325

>  <SCORE.INTER.norm>
-1.26396

>  <SCORE.INTRA>
-2.84009

>  <SCORE.INTRA.DIHEDRAL>
-5.09288

>  <SCORE.INTRA.DIHEDRAL.0>
7.73744

>  <SCORE.INTRA.POLAR>
0

>  <SCORE.INTRA.POLAR.0>
0

>  <SCORE.INTRA.REPUL>
0

>  <SCORE.INTRA.REPUL.0>
0

>  <SCORE.INTRA.SOLV>
-0.134032

>  <SCORE.INTRA.SOLV.lig_0>
-15.8342

>  <SCORE.INTRA.VDW>
-0.226639

>  <SCORE.INTRA.VDW.0>
-0.219494

>  <SCORE.INTRA.norm>
-0.315566

>  <SCORE.RESTR>
0

>  <SCORE.RESTR.CAVITY>
0

>  <SCORE.RESTR.norm>
0

>  <SCORE.SYSTEM>
0

>  <SCORE.SYSTEM.CONST>
0

>  <SCORE.SYSTEM.DIHEDRAL>
0

>  <SCORE.SYSTEM.SOLV>
0

>  <SCORE.SYSTEM.norm>
0

>  <SCORE.heavy>
9

>  <SCORE.norm>
-1.57953

>  <RMSD>
5.223

$$$$
ligand
 OpenBabel02271912143D
libRbt.so/2013.1/901 2013/11/27
  9  8  0  0  0  0  0  0  0  0999 V2000
  -49.9647   69.3852  -18.9732 C   0  0  0  0  0  0  0  0  0  0  0  0
  -49.2292   70.0719  -19.7716 O   0  0  0  0  0  0  0  0  0  0  0  0
  -49.3436   68.5504  -17.9371 C   0  0  0  0  0  0  0  0  0  0  0  0
  -51.2341   69.3730  -19.0835 O   0  0  0  0  0  0  0  0  0  0  0  0
  -49.2337   67.0955  -18.2667 C   0  0  0  0  0  0  0  0  0  0  0  0
  -48.3408   66.7021  -19.3852 C   0  0  0  0  0  0  0  0  0  0  0  0
  -48.8335   67.1152  -20.7618 C   0  0  0  0  0  0  0  0  0  0  0  0
  -47.9510   66.8535  -21.9925 C   0  0  0  0  0  0  0  0  0  0  0  0
  -46.7125   67.4603  -22.0372 N   0  0  0  0  0  0  0  0  0  0  0  0
  1  2  1  0  0  0  0
  1  3  1  0  0  0  0
  1  4  1  0  0  0  0
  3  5  1  0  0  0  0
  5  6  1  0  0  0  0
  6  7  1  0  0  0  0
  7  8  1  0  0  0  0
  8  9  1  0  0  0  0
M  END
>  <CHROM.1>
-99.30828030,65.81266326,-69.37164661,175.72549876,-61.08354144,-49.00592946
68.09777356,-19.80215100,3.03244149,-0.93059790,2.36425380

>  <Name>
ligand

>  <RI>
0

>  <Rbt.Current_Directory>
/home/itssahil/PROJECTS/Mol_Feturizer/Test_systems_manuscript/rnas/4erj

>  <Rbt.Executable>
rbdock ($Id: //depot/dev/client3/rdock/2013.1/src/exe/rbdock.cxx#4 $)

>  <Rbt.Library>
libRbt.so (2013.1, Build901 2013/11/27)

>  <Rbt.Parameter_File>
/export/apps/rDock/src/rDock_2013.1_src/data/scripts/dock_solv.prm

>  <Rbt.Receptor>
prm/pocket_docking_8.prm

>  <SCORE>
-14.666

>  <SCORE.INTER>
-11.7695

>  <SCORE.INTER.CONST>
1

>  <SCORE.INTER.POLAR>
0

>  <SCORE.INTER.ROT>
5

>  <SCORE.INTER.SOLV>
7.76836

>  <SCORE.INTER.VDW>
-17.3691

>  <SCORE.INTER.norm>
-1.30772

>  <SCORE.INTRA>
-2.89655

>  <SCORE.INTRA.DIHEDRAL>
-5.56096

>  <SCORE.INTRA.DIHEDRAL.0>
7.73744

>  <SCORE.INTRA.POLAR>
0

>  <SCORE.INTRA.POLAR.0>
0

>  <SCORE.INTRA.REPUL>
0

>  <SCORE.INTRA.REPUL.0>
0

>  <SCORE.INTRA.SOLV>
0.522591

>  <SCORE.INTRA.SOLV.lig_0>
-15.8342

>  <SCORE.INTRA.VDW>
-0.377372

>  <SCORE.INTRA.VDW.0>
-0.219494

>  <SCORE.INTRA.norm>
-0.321839

>  <SCORE.RESTR>
0

>  <SCORE.RESTR.CAVITY>
0

>  <SCORE.RESTR.norm>
0

>  <SCORE.SYSTEM>
0

>  <SCORE.SYSTEM.CONST>
0

>  <SCORE.SYSTEM.DIHEDRAL>
0

>  <SCORE.SYSTEM.SOLV>
0

>  <SCORE.SYSTEM.norm>
0

>  <SCORE.heavy>
9

>  <SCORE.norm>
-1.62956

>  <RMSD>
5.225

$$$$
ligand
 OpenBabel02271912143D
libRbt.so/2013.1/901 2013/11/27
  9  8  0  0  0  0  0  0  0  0999 V2000
  -50.2866   69.4572  -18.9501 C   0  0  0  0  0  0  0  0  0  0  0  0
  -51.5343   69.2454  -18.7306 O   0  0  0  0  0  0  0  0  0  0  0  0
  -49.2729   68.8283  -18.0938 C   0  0  0  0  0  0  0  0  0  0  0  0
  -49.8983   70.2429  -19.8750 O   0  0  0  0  0  0  0  0  0  0  0  0
  -49.2412   67.3333  -18.1300 C   0  0  0  0  0  0  0  0  0  0  0  0
  -48.5564   66.6804  -19.2736 C   0  0  0  0  0  0  0  0  0  0  0  0
  -49.2747   66.8232  -20.6049 C   0  0  0  0  0  0  0  0  0  0  0  0
  -48.9306   68.0021  -21.5288 C   0  0  0  0  0  0  0  0  0  0  0  0
  -47.6495   68.0689  -22.0371 N   0  0  0  0  0  0  0  0  0  0  0  0
  1  2  1  0  0  0  0
  1  3  1  0  0  0  0
  1  4  1  0  0  0  0
  3  5  1  0  0  0  0
  5  6  1  0  0  0  0
  6  7  1  0  0  0  0
  7  8  1  0  0  0  0
  8  9  1  0  0  0  0
M  END
>  <CHROM.1>
63.05087640,79.68311668,-69.82031043,91.75629911,63.64418910,-49.43172686
68.32429438,-19.69086781,2.87046185,-0.94309382,2.20789018

>  <Name>
ligand

>  <RI>
0

>  <Rbt.Current_Directory>
/home/itssahil/PROJECTS/Mol_Feturizer/Test_systems_manuscript/rnas/4erj

>  <Rbt.Executable>
rbdock ($Id: //depot/dev/client3/rdock/2013.1/src/exe/rbdock.cxx#4 $)

>  <Rbt.Library>
libRbt.so (2013.1, Build901 2013/11/27)

>  <Rbt.Parameter_File>
/export/apps/rDock/src/rDock_2013.1_src/data/scripts/dock_solv.prm

>  <Rbt.Receptor>
prm/pocket_docking_6.prm

>  <SCORE>
-12.4516

>  <SCORE.INTER>
-12.1304

>  <SCORE.INTER.CONST>
1

>  <SCORE.INTER.POLAR>
0

>  <SCORE.INTER.ROT>
5

>  <SCORE.INTER.SOLV>
6.82495

>  <SCORE.INTER.VDW>
-17.2953

>  <SCORE.INTER.norm>
-1.34783

>  <SCORE.INTRA>
-0.32114

>  <SCORE.INTRA.DIHEDRAL>
-0.774391

>  <SCORE.INTRA.DIHEDRAL.0>
7.73744

>  <SCORE.INTRA.POLAR>
0

>  <SCORE.INTRA.POLAR.0>
0

>  <SCORE.INTRA.REPUL>
0

>  <SCORE.INTRA.REPUL.0>
0

>  <SCORE.INTRA.SOLV>
1.10689

>  <SCORE.INTRA.SOLV.lig_0>
-15.8342

>  <SCORE.INTRA.VDW>
-0.487388

>  <SCORE.INTRA.VDW.0>
-0.219494

>  <SCORE.INTRA.norm>
-0.0356823

>  <SCORE.RESTR>
0

>  <SCORE.RESTR.CAVITY>
0

>  <SCORE.RESTR.norm>
0

>  <SCORE.SYSTEM>
0

>  <SCORE.SYSTEM.CONST>
0

>  <SCORE.SYSTEM.DIHEDRAL>
0

>  <SCORE.SYSTEM.SOLV>
0

>  <SCORE.SYSTEM.norm>
0

>  <SCORE.heavy>
9

>  <SCORE.norm>
-1.38351

>  <RMSD>
5.232

$$$$
ligand
 OpenBabel02271912143D
libRbt.so/2013.1/901 2013/11/27
  9  8  0  0  0  0  0  0  0  0999 V2000
  -48.7146   68.1328  -18.4816 C   0  0  0  0  0  0  0  0  0  0  0  0
  -49.4082   68.0820  -17.4016 O   0  0  0  0  0  0  0  0  0  0  0  0
  -48.4054   66.8987  -19.2148 C   0  0  0  0  0  0  0  0  0  0  0  0
  -48.2432   69.2333  -18.9179 O   0  0  0  0  0  0  0  0  0  0  0  0
  -49.2340   66.6537  -20.4358 C   0  0  0  0  0  0  0  0  0  0  0  0
  -49.1058   67.6081  -21.5653 C   0  0  0  0  0  0  0  0  0  0  0  0
  -47.8772   67.3971  -22.4339 C   0  0  0  0  0  0  0  0  0  0  0  0
  -46.4877   67.7481  -21.8791 C   0  0  0  0  0  0  0  0  0  0  0  0
  -45.4021   67.5928  -22.7167 N   0  0  0  0  0  0  0  0  0  0  0  0
  1  2  1  0  0  0  0
  1  3  1  0  0  0  0
  1  4  1  0  0  0  0
  3  5  1  0  0  0  0
  5  6  1  0  0  0  0
  6  7  1  0  0  0  0
  7  8  1  0  0  0  0
  8  9  1  0  0  0  0
M  END
>  <CHROM.1>
102.26865162,64.57349098,79.02131555,-71.22860374,-177.46646756,-48.11071692
67.72781055,-20.30027842,-2.15231466,-0.45074283,-1.97998770

>  <Name>
ligand

>  <RI>
0

>  <Rbt.Current_Directory>
/home/itssahil/PROJECTS/Mol_Feturizer/Test_systems_manuscript/rnas/4erj

>  <Rbt.Executable>
rbdock ($Id: //depot/dev/client3/rdock/2013.1/src/exe/rbdock.cxx#4 $)

>  <Rbt.Library>
libRbt.so (2013.1, Build901 2013/11/27)

>  <Rbt.Parameter_File>
/export/apps/rDock/src/rDock_2013.1_src/data/scripts/dock_solv.prm

>  <Rbt.Receptor>
prm/pocket_docking_8.prm

>  <SCORE>
-11.7662

>  <SCORE.INTER>
-9.46496

>  <SCORE.INTER.CONST>
1

>  <SCORE.INTER.POLAR>
0

>  <SCORE.INTER.ROT>
5

>  <SCORE.INTER.SOLV>
8.98766

>  <SCORE.INTER.VDW>
-16.2392

>  <SCORE.INTER.norm>
-1.05166

>  <SCORE.INTRA>
-2.3012

>  <SCORE.INTRA.DIHEDRAL>
-3.95171

>  <SCORE.INTRA.DIHEDRAL.0>
7.73744

>  <SCORE.INTRA.POLAR>
0

>  <SCORE.INTRA.POLAR.0>
0

>  <SCORE.INTRA.REPUL>
0

>  <SCORE.INTRA.REPUL.0>
0

>  <SCORE.INTRA.SOLV>
0.016603

>  <SCORE.INTRA.SOLV.lig_0>
-15.8342

>  <SCORE.INTRA.VDW>
-0.333646

>  <SCORE.INTRA.VDW.0>
-0.219494

>  <SCORE.INTRA.norm>
-0.255689

>  <SCORE.RESTR>
0

>  <SCORE.RESTR.CAVITY>
0

>  <SCORE.RESTR.norm>
0

>  <SCORE.SYSTEM>
0

>  <SCORE.SYSTEM.CONST>
0

>  <SCORE.SYSTEM.DIHEDRAL>
0

>  <SCORE.SYSTEM.SOLV>
0

>  <SCORE.SYSTEM.norm>
0

>  <SCORE.heavy>
9

>  <SCORE.norm>
-1.30735

>  <RMSD>
5.232

$$$$
ligand
 OpenBabel02271912143D
libRbt.so/2013.1/901 2013/11/27
  9  8  0  0  0  0  0  0  0  0999 V2000
  -49.8688   69.4128  -18.8800 C   0  0  0  0  0  0  0  0  0  0  0  0
  -49.1070   70.0494  -19.6950 O   0  0  0  0  0  0  0  0  0  0  0  0
  -49.2912   68.4472  -17.9365 C   0  0  0  0  0  0  0  0  0  0  0  0
  -51.1339   69.5646  -18.8961 O   0  0  0  0  0  0  0  0  0  0  0  0
  -49.2524   67.0299  -18.4131 C   0  0  0  0  0  0  0  0  0  0  0  0
  -48.2561   66.6740  -19.4541 C   0  0  0  0  0  0  0  0  0  0  0  0
  -48.5020   67.3158  -20.8092 C   0  0  0  0  0  0  0  0  0  0  0  0
  -47.5039   67.0766  -21.9531 C   0  0  0  0  0  0  0  0  0  0  0  0
  -47.6866   67.7823  -23.1248 N   0  0  0  0  0  0  0  0  0  0  0  0
  1  2  1  0  0  0  0
  1  3  1  0  0  0  0
  1  4  1  0  0  0  0
  3  5  1  0  0  0  0
  5  6  1  0  0  0  0
  6  7  1  0  0  0  0
  7  8  1  0  0  0  0
  8  9  1  0  0  0  0
M  END
>  <CHROM.1>
-92.76127028,73.29786014,-66.94386304,177.22731573,-173.56658322,-48.97745794
68.18150033,-19.90369901,2.77335426,-0.99322502,2.23289303

>  <Name>
ligand

>  <RI>
0

>  <Rbt.Current_Directory>
/home/itssahil/PROJECTS/Mol_Feturizer/Test_systems_manuscript/rnas/4erj

>  <Rbt.Executable>
rbdock ($Id: //depot/dev/client3/rdock/2013.1/src/exe/rbdock.cxx#4 $)

>  <Rbt.Library>
libRbt.so (2013.1, Build901 2013/11/27)

>  <Rbt.Parameter_File>
/export/apps/rDock/src/rDock_2013.1_src/data/scripts/dock_solv.prm

>  <Rbt.Receptor>
prm/pocket_docking_8.prm

>  <SCORE>
-14.1795

>  <SCORE.INTER>
-11.3104

>  <SCORE.INTER.CONST>
1

>  <SCORE.INTER.POLAR>
0

>  <SCORE.INTER.ROT>
5

>  <SCORE.INTER.SOLV>
8.10288

>  <SCORE.INTER.VDW>
-17.1746

>  <SCORE.INTER.norm>
-1.25671

>  <SCORE.INTRA>
-2.86916

>  <SCORE.INTRA.DIHEDRAL>
-5.05644

>  <SCORE.INTRA.DIHEDRAL.0>
7.73744

>  <SCORE.INTRA.POLAR>
0

>  <SCORE.INTRA.POLAR.0>
0

>  <SCORE.INTRA.REPUL>
0

>  <SCORE.INTRA.REPUL.0>
0

>  <SCORE.INTRA.SOLV>
-0.133508

>  <SCORE.INTRA.SOLV.lig_0>
-15.8342

>  <SCORE.INTRA.VDW>
-0.274186

>  <SCORE.INTRA.VDW.0>
-0.219494

>  <SCORE.INTRA.norm>
-0.318795

>  <SCORE.RESTR>
0

>  <SCORE.RESTR.CAVITY>
0

>  <SCORE.RESTR.norm>
0

>  <SCORE.SYSTEM>
0

>  <SCORE.SYSTEM.CONST>
0

>  <SCORE.SYSTEM.DIHEDRAL>
0

>  <SCORE.SYSTEM.SOLV>
0

>  <SCORE.SYSTEM.norm>
0

>  <SCORE.heavy>
9

>  <SCORE.norm>
-1.57551

>  <RMSD>
5.236

$$$$
ligand
 OpenBabel02271912143D
libRbt.so/2013.1/901 2013/11/27
  9  8  0  0  0  0  0  0  0  0999 V2000
  -49.9913   69.4199  -18.9749 C   0  0  0  0  0  0  0  0  0  0  0  0
  -51.2718   69.4723  -19.0613 O   0  0  0  0  0  0  0  0  0  0  0  0
  -49.3583   68.6089  -17.9270 C   0  0  0  0  0  0  0  0  0  0  0  0
  -49.2441   70.0951  -19.7554 O   0  0  0  0  0  0  0  0  0  0  0  0
  -49.2397   67.1489  -18.2302 C   0  0  0  0  0  0  0  0  0  0  0  0
  -48.3548   66.7416  -19.3500 C   0  0  0  0  0  0  0  0  0  0  0  0
  -48.8702   67.1145  -20.7299 C   0  0  0  0  0  0  0  0  0  0  0  0
  -47.9967   66.8408  -21.9644 C   0  0  0  0  0  0  0  0  0  0  0  0
  -46.7685   67.4657  -22.0352 N   0  0  0  0  0  0  0  0  0  0  0  0
  1  2  1  0  0  0  0
  1  3  1  0  0  0  0
  1  4  1  0  0  0  0
  3  5  1  0  0  0  0
  5  6  1  0  0  0  0
  6  7  1  0  0  0  0
  7  8  1  0  0  0  0
  8  9  1  0  0  0  0
M  END
>  <CHROM.1>
81.97553554,65.55687421,-69.85120064,175.49970886,-60.91279486,-49.03392138
68.13201274,-19.78176965,3.02134816,-0.93744665,2.33192367

>  <Name>
ligand

>  <RI>
0

>  <Rbt.Current_Directory>
/home/itssahil/PROJECTS/Mol_Feturizer/Test_systems_manuscript/rnas/4erj

>  <Rbt.Executable>
rbdock ($Id: //depot/dev/client3/rdock/2013.1/src/exe/rbdock.cxx#4 $)

>  <Rbt.Library>
libRbt.so (2013.1, Build901 2013/11/27)

>  <Rbt.Parameter_File>
/export/apps/rDock/src/rDock_2013.1_src/data/scripts/dock_solv.prm

>  <Rbt.Receptor>
prm/pocket_docking_8.prm

>  <SCORE>
-14.6979

>  <SCORE.INTER>
-11.8791

>  <SCORE.INTER.CONST>
1

>  <SCORE.INTER.POLAR>
0

>  <SCORE.INTER.ROT>
5

>  <SCORE.INTER.SOLV>
7.7322

>  <SCORE.INTER.VDW>
-17.4301

>  <SCORE.INTER.norm>
-1.3199

>  <SCORE.INTRA>
-2.81884

>  <SCORE.INTRA.DIHEDRAL>
-5.35369

>  <SCORE.INTRA.DIHEDRAL.0>
7.73744

>  <SCORE.INTRA.POLAR>
0

>  <SCORE.INTRA.POLAR.0>
0

>  <SCORE.INTRA.REPUL>
0

>  <SCORE.INTRA.REPUL.0>
0

>  <SCORE.INTRA.SOLV>
0.525747

>  <SCORE.INTRA.SOLV.lig_0>
-15.8342

>  <SCORE.INTRA.VDW>
-0.404867

>  <SCORE.INTRA.VDW.0>
-0.219494

>  <SCORE.INTRA.norm>
-0.313204

>  <SCORE.RESTR>
0

>  <SCORE.RESTR.CAVITY>
0

>  <SCORE.RESTR.norm>
0

>  <SCORE.SYSTEM>
0

>  <SCORE.SYSTEM.CONST>
0

>  <SCORE.SYSTEM.DIHEDRAL>
0

>  <SCORE.SYSTEM.SOLV>
0

>  <SCORE.SYSTEM.norm>
0

>  <SCORE.heavy>
9

>  <SCORE.norm>
-1.6331

>  <RMSD>
5.238

$$$$
ligand
 OpenBabel02271912143D
libRbt.so/2013.1/901 2013/11/27
  9  8  0  0  0  0  0  0  0  0999 V2000
  -49.9954   69.4350  -18.9708 C   0  0  0  0  0  0  0  0  0  0  0  0
  -49.2565   70.1221  -19.7657 O   0  0  0  0  0  0  0  0  0  0  0  0
  -49.3787   68.6010  -17.9313 C   0  0  0  0  0  0  0  0  0  0  0  0
  -51.2642   69.4216  -19.0874 O   0  0  0  0  0  0  0  0  0  0  0  0
  -49.2692   67.1455  -18.2585 C   0  0  0  0  0  0  0  0  0  0  0  0
  -48.3469   66.7465  -19.3508 C   0  0  0  0  0  0  0  0  0  0  0  0
  -48.7966   67.1637  -20.7409 C   0  0  0  0  0  0  0  0  0  0  0  0
  -47.8948   66.8676  -21.9497 C   0  0  0  0  0  0  0  0  0  0  0  0
  -46.6513   67.4645  -21.9865 N   0  0  0  0  0  0  0  0  0  0  0  0
  1  2  1  0  0  0  0
  1  3  1  0  0  0  0
  1  4  1  0  0  0  0
  3  5  1  0  0  0  0
  5  6  1  0  0  0  0
  6  7  1  0  0  0  0
  7  8  1  0  0  0  0
  8  9  1  0  0  0  0
M  END
>  <CHROM.1>
-99.46163082,67.31795936,-69.36728503,177.12127200,-62.65856973,-49.00750225
68.13797813,-19.78386643,3.05702412,-0.91412174,2.37597111

>  <Name>
ligand

>  <RI>
0

>  <Rbt.Current_Directory>
/home/itssahil/PROJECTS/Mol_Feturizer/Test_systems_manuscript/rnas/4erj

>  <Rbt.Executable>
rbdock ($Id: //depot/dev/client3/rdock/2013.1/src/exe/rbdock.cxx#4 $)

>  <Rbt.Library>
libRbt.so (2013.1, Build901 2013/11/27)

>  <Rbt.Parameter_File>
/export/apps/rDock/src/rDock_2013.1_src/data/scripts/dock_solv.prm

>  <Rbt.Receptor>
prm/pocket_docking_5.prm

>  <SCORE>
-14.7246

>  <SCORE.INTER>
-11.8386

>  <SCORE.INTER.CONST>
1

>  <SCORE.INTER.POLAR>
0

>  <SCORE.INTER.ROT>
5

>  <SCORE.INTER.SOLV>
7.86189

>  <SCORE.INTER.VDW>
-17.4464

>  <SCORE.INTER.norm>
-1.3154

>  <SCORE.INTRA>
-2.88598

>  <SCORE.INTRA.DIHEDRAL>
-5.49897

>  <SCORE.INTRA.DIHEDRAL.0>
7.73744

>  <SCORE.INTRA.POLAR>
0

>  <SCORE.INTRA.POLAR.0>
0

>  <SCORE.INTRA.REPUL>
0

>  <SCORE.INTRA.REPUL.0>
0

>  <SCORE.INTRA.SOLV>
0.500756

>  <SCORE.INTRA.SOLV.lig_0>
-15.8342

>  <SCORE.INTRA.VDW>
-0.386878

>  <SCORE.INTRA.VDW.0>
-0.219494

>  <SCORE.INTRA.norm>
-0.320665

>  <SCORE.RESTR>
0

>  <SCORE.RESTR.CAVITY>
0

>  <SCORE.RESTR.norm>
0

>  <SCORE.SYSTEM>
0

>  <SCORE.SYSTEM.CONST>
0

>  <SCORE.SYSTEM.DIHEDRAL>
0

>  <SCORE.SYSTEM.SOLV>
0

>  <SCORE.SYSTEM.norm>
0

>  <SCORE.heavy>
9

>  <SCORE.norm>
-1.63607

>  <RMSD>
5.244

$$$$
ligand
 OpenBabel02271912143D
libRbt.so/2013.1/901 2013/11/27
  9  8  0  0  0  0  0  0  0  0999 V2000
  -49.9239   69.3986  -18.9024 C   0  0  0  0  0  0  0  0  0  0  0  0
  -51.1959   69.5737  -18.9377 O   0  0  0  0  0  0  0  0  0  0  0  0
  -49.3394   68.4492  -17.9467 C   0  0  0  0  0  0  0  0  0  0  0  0
  -49.1398   70.0660  -19.6528 O   0  0  0  0  0  0  0  0  0  0  0  0
  -49.2524   67.0334  -18.4214 C   0  0  0  0  0  0  0  0  0  0  0  0
  -48.2393   66.7088  -19.4564 C   0  0  0  0  0  0  0  0  0  0  0  0
  -48.4931   67.3485  -20.8110 C   0  0  0  0  0  0  0  0  0  0  0  0
  -47.4903   67.1255  -21.9541 C   0  0  0  0  0  0  0  0  0  0  0  0
  -47.6927   67.8158  -23.1317 N   0  0  0  0  0  0  0  0  0  0  0  0
  1  2  1  0  0  0  0
  1  3  1  0  0  0  0
  1  4  1  0  0  0  0
  3  5  1  0  0  0  0
  5  6  1  0  0  0  0
  6  7  1  0  0  0  0
  7  8  1  0  0  0  0
  8  9  1  0  0  0  0
M  END
>  <CHROM.1>
87.33073746,72.40708384,-66.55197526,178.04326061,-174.44750959,-48.99610109
68.20038414,-19.90905421,2.75692460,-0.97402953,2.21273437

>  <Name>
ligand

>  <RI>
0

>  <Rbt.Current_Directory>
/home/itssahil/PROJECTS/Mol_Feturizer/Test_systems_manuscript/rnas/4erj

>  <Rbt.Executable>
rbdock ($Id: //depot/dev/client3/rdock/2013.1/src/exe/rbdock.cxx#4 $)

>  <Rbt.Library>
libRbt.so (2013.1, Build901 2013/11/27)

>  <Rbt.Parameter_File>
/export/apps/rDock/src/rDock_2013.1_src/data/scripts/dock_solv.prm

>  <Rbt.Receptor>
prm/pocket_docking_7.prm

>  <SCORE>
-14.2025

>  <SCORE.INTER>
-11.3622

>  <SCORE.INTER.CONST>
1

>  <SCORE.INTER.POLAR>
0

>  <SCORE.INTER.ROT>
5

>  <SCORE.INTER.SOLV>
8.03341

>  <SCORE.INTER.VDW>
-17.1859

>  <SCORE.INTER.norm>
-1.26246

>  <SCORE.INTRA>
-2.84037

>  <SCORE.INTRA.DIHEDRAL>
-5.02527

>  <SCORE.INTRA.DIHEDRAL.0>
7.73744

>  <SCORE.INTRA.POLAR>
0

>  <SCORE.INTRA.POLAR.0>
0

>  <SCORE.INTRA.REPUL>
0

>  <SCORE.INTRA.REPUL.0>
0

>  <SCORE.INTRA.SOLV>
-0.134014

>  <SCORE.INTRA.SOLV.lig_0>
-15.8342

>  <SCORE.INTRA.VDW>
-0.260724

>  <SCORE.INTRA.VDW.0>
-0.219494

>  <SCORE.INTRA.norm>
-0.315596

>  <SCORE.RESTR>
0

>  <SCORE.RESTR.CAVITY>
0

>  <SCORE.RESTR.norm>
0

>  <SCORE.SYSTEM>
0

>  <SCORE.SYSTEM.CONST>
0

>  <SCORE.SYSTEM.DIHEDRAL>
0

>  <SCORE.SYSTEM.SOLV>
0

>  <SCORE.SYSTEM.norm>
0

>  <SCORE.heavy>
9

>  <SCORE.norm>
-1.57806

>  <RMSD>
5.244

$$$$
ligand
 OpenBabel02271912143D
libRbt.so/2013.1/901 2013/11/27
  9  8  0  0  0  0  0  0  0  0999 V2000
  -50.7023   69.6059  -19.5742 C   0  0  0  0  0  0  0  0  0  0  0  0
  -51.6380   69.6718  -18.6967 O   0  0  0  0  0  0  0  0  0  0  0  0
  -49.3123   69.3927  -19.1513 C   0  0  0  0  0  0  0  0  0  0  0  0
  -50.9423   69.7661  -20.8153 O   0  0  0  0  0  0  0  0  0  0  0  0
  -49.0106   68.0347  -18.6017 C   0  0  0  0  0  0  0  0  0  0  0  0
  -49.1986   66.8656  -19.4965 C   0  0  0  0  0  0  0  0  0  0  0  0
  -48.2412   66.8121  -20.6752 C   0  0  0  0  0  0  0  0  0  0  0  0
  -48.3806   67.8371  -21.8117 C   0  0  0  0  0  0  0  0  0  0  0  0
  -47.4707   67.7776  -22.8473 N   0  0  0  0  0  0  0  0  0  0  0  0
  1  2  1  0  0  0  0
  1  3  1  0  0  0  0
  1  4  1  0  0  0  0
  3  5  1  0  0  0  0
  5  6  1  0  0  0  0
  6  7  1  0  0  0  0
  7  8  1  0  0  0  0
  8  9  1  0  0  0  0
M  END
>  <CHROM.1>
69.65651236,61.60388257,66.50031046,-69.82731103,178.34701520,-49.47050942
68.43964266,-20.18151680,2.77021796,-0.77681483,1.93917692

>  <Name>
ligand

>  <RI>
0

>  <Rbt.Current_Directory>
/home/itssahil/PROJECTS/Mol_Feturizer/Test_systems_manuscript/rnas/4erj

>  <Rbt.Executable>
rbdock ($Id: //depot/dev/client3/rdock/2013.1/src/exe/rbdock.cxx#4 $)

>  <Rbt.Library>
libRbt.so (2013.1, Build901 2013/11/27)

>  <Rbt.Parameter_File>
/export/apps/rDock/src/rDock_2013.1_src/data/scripts/dock_solv.prm

>  <Rbt.Receptor>
prm/blind_docking_100.prm

>  <SCORE>
-13.7421

>  <SCORE.INTER>
-11.099

>  <SCORE.INTER.CONST>
1

>  <SCORE.INTER.POLAR>
0

>  <SCORE.INTER.ROT>
5

>  <SCORE.INTER.SOLV>
6.793

>  <SCORE.INTER.VDW>
-16.597

>  <SCORE.INTER.norm>
-1.23322

>  <SCORE.INTRA>
-2.64315

>  <SCORE.INTRA.DIHEDRAL>
-5.42115

>  <SCORE.INTRA.DIHEDRAL.0>
7.73744

>  <SCORE.INTRA.POLAR>
0

>  <SCORE.INTRA.POLAR.0>
0

>  <SCORE.INTRA.REPUL>
0

>  <SCORE.INTRA.REPUL.0>
0

>  <SCORE.INTRA.SOLV>
0.217644

>  <SCORE.INTRA.SOLV.lig_0>
-15.8342

>  <SCORE.INTRA.VDW>
-0.0413951

>  <SCORE.INTRA.VDW.0>
-0.219494

>  <SCORE.INTRA.norm>
-0.293683

>  <SCORE.RESTR>
0

>  <SCORE.RESTR.CAVITY>
0

>  <SCORE.RESTR.norm>
0

>  <SCORE.SYSTEM>
0

>  <SCORE.SYSTEM.CONST>
0

>  <SCORE.SYSTEM.DIHEDRAL>
0

>  <SCORE.SYSTEM.SOLV>
0

>  <SCORE.SYSTEM.norm>
0

>  <SCORE.heavy>
9

>  <SCORE.norm>
-1.5269

>  <RMSD>
5.248

$$$$
ligand
 OpenBabel02271912143D
libRbt.so/2013.1/901 2013/11/27
  9  8  0  0  0  0  0  0  0  0999 V2000
  -50.0922   69.3959  -19.0029 C   0  0  0  0  0  0  0  0  0  0  0  0
  -51.3705   69.5087  -18.9479 O   0  0  0  0  0  0  0  0  0  0  0  0
  -49.3782   68.6227  -17.9788 C   0  0  0  0  0  0  0  0  0  0  0  0
  -49.4115   69.9798  -19.9080 O   0  0  0  0  0  0  0  0  0  0  0  0
  -49.2459   67.1590  -18.2569 C   0  0  0  0  0  0  0  0  0  0  0  0
  -48.3484   66.7403  -19.3625 C   0  0  0  0  0  0  0  0  0  0  0  0
  -48.8336   67.1254  -20.7500 C   0  0  0  0  0  0  0  0  0  0  0  0
  -47.9513   66.8245  -21.9718 C   0  0  0  0  0  0  0  0  0  0  0  0
  -46.7092   67.4227  -22.0317 N   0  0  0  0  0  0  0  0  0  0  0  0
  1  2  1  0  0  0  0
  1  3  1  0  0  0  0
  1  4  1  0  0  0  0
  3  5  1  0  0  0  0
  5  6  1  0  0  0  0
  6  7  1  0  0  0  0
  7  8  1  0  0  0  0
  8  9  1  0  0  0  0
M  END
>  <CHROM.1>
87.62128321,69.65638395,-68.01085216,176.27993819,-61.44405535,-49.06330855
68.11712299,-19.80187755,2.96954203,-0.89936818,2.25685266

>  <Name>
ligand

>  <RI>
0

>  <Rbt.Current_Directory>
/home/itssahil/PROJECTS/Mol_Feturizer/Test_systems_manuscript/rnas/4erj

>  <Rbt.Executable>
rbdock ($Id: //depot/dev/client3/rdock/2013.1/src/exe/rbdock.cxx#4 $)

>  <Rbt.Library>
libRbt.so (2013.1, Build901 2013/11/27)

>  <Rbt.Parameter_File>
/export/apps/rDock/src/rDock_2013.1_src/data/scripts/dock_solv.prm

>  <Rbt.Receptor>
prm/pocket_docking_3.prm

>  <SCORE>
-14.5838

>  <SCORE.INTER>
-11.9165

>  <SCORE.INTER.CONST>
1

>  <SCORE.INTER.POLAR>
0

>  <SCORE.INTER.ROT>
5

>  <SCORE.INTER.SOLV>
7.74842

>  <SCORE.INTER.VDW>
-17.4605

>  <SCORE.INTER.norm>
-1.32406

>  <SCORE.INTRA>
-2.66721

>  <SCORE.INTRA.DIHEDRAL>
-5.24458

>  <SCORE.INTRA.DIHEDRAL.0>
7.73744

>  <SCORE.INTRA.POLAR>
0

>  <SCORE.INTRA.POLAR.0>
0

>  <SCORE.INTRA.REPUL>
0

>  <SCORE.INTRA.REPUL.0>
0

>  <SCORE.INTRA.SOLV>
0.518037

>  <SCORE.INTRA.SOLV.lig_0>
-15.8342

>  <SCORE.INTRA.VDW>
-0.303937

>  <SCORE.INTRA.VDW.0>
-0.219494

>  <SCORE.INTRA.norm>
-0.296357

>  <SCORE.RESTR>
0

>  <SCORE.RESTR.CAVITY>
0

>  <SCORE.RESTR.norm>
0

>  <SCORE.SYSTEM>
0

>  <SCORE.SYSTEM.CONST>
0

>  <SCORE.SYSTEM.DIHEDRAL>
0

>  <SCORE.SYSTEM.SOLV>
0

>  <SCORE.SYSTEM.norm>
0

>  <SCORE.heavy>
9

>  <SCORE.norm>
-1.62042

>  <RMSD>
5.262

$$$$
ligand
 OpenBabel02271912143D
libRbt.so/2013.1/901 2013/11/27
  9  8  0  0  0  0  0  0  0  0999 V2000
  -48.9968   68.3858  -18.6478 C   0  0  0  0  0  0  0  0  0  0  0  0
  -48.3385   69.4098  -19.0577 O   0  0  0  0  0  0  0  0  0  0  0  0
  -49.4818   67.3901  -19.6120 C   0  0  0  0  0  0  0  0  0  0  0  0
  -49.2830   68.2289  -17.4162 O   0  0  0  0  0  0  0  0  0  0  0  0
  -48.4321   66.4987  -20.1958 C   0  0  0  0  0  0  0  0  0  0  0  0
  -47.4190   67.1119  -21.0906 C   0  0  0  0  0  0  0  0  0  0  0  0
  -47.9816   67.6926  -22.3770 C   0  0  0  0  0  0  0  0  0  0  0  0
  -47.0301   68.3386  -23.3965 C   0  0  0  0  0  0  0  0  0  0  0  0
  -47.5825   68.8800  -24.5392 N   0  0  0  0  0  0  0  0  0  0  0  0
  1  2  1  0  0  0  0
  1  3  1  0  0  0  0
  1  4  1  0  0  0  0
  3  5  1  0  0  0  0
  5  6  1  0  0  0  0
  6  7  1  0  0  0  0
  7  8  1  0  0  0  0
  8  9  1  0  0  0  0
M  END
>  <CHROM.1>
73.40324905,-67.13031087,-64.04860033,-179.15210299,-178.64805071,-48.28796704
68.01205222,-20.65944057,-2.95210423,-1.26679182,-2.92349450

>  <Name>
ligand

>  <RI>
0

>  <Rbt.Current_Directory>
/home/itssahil/PROJECTS/Mol_Feturizer/Test_systems_manuscript/rnas/4erj

>  <Rbt.Executable>
rbdock ($Id: //depot/dev/client3/rdock/2013.1/src/exe/rbdock.cxx#4 $)

>  <Rbt.Library>
libRbt.so (2013.1, Build901 2013/11/27)

>  <Rbt.Parameter_File>
/export/apps/rDock/src/rDock_2013.1_src/data/scripts/dock_solv.prm

>  <Rbt.Receptor>
prm/pocket_docking_3.prm

>  <SCORE>
-12.2487

>  <SCORE.INTER>
-9.11429

>  <SCORE.INTER.CONST>
1

>  <SCORE.INTER.POLAR>
0

>  <SCORE.INTER.ROT>
5

>  <SCORE.INTER.SOLV>
8.62098

>  <SCORE.INTER.VDW>
-15.8832

>  <SCORE.INTER.norm>
-1.0127

>  <SCORE.INTRA>
-3.13437

>  <SCORE.INTRA.DIHEDRAL>
-5.70794

>  <SCORE.INTRA.DIHEDRAL.0>
7.73744

>  <SCORE.INTRA.POLAR>
0

>  <SCORE.INTRA.POLAR.0>
0

>  <SCORE.INTRA.REPUL>
0

>  <SCORE.INTRA.REPUL.0>
0

>  <SCORE.INTRA.SOLV>
-0.132053

>  <SCORE.INTRA.SOLV.lig_0>
-15.8342

>  <SCORE.INTRA.VDW>
-0.214369

>  <SCORE.INTRA.VDW.0>
-0.219494

>  <SCORE.INTRA.norm>
-0.348263

>  <SCORE.RESTR>
0

>  <SCORE.RESTR.CAVITY>
0

>  <SCORE.RESTR.norm>
0

>  <SCORE.SYSTEM>
0

>  <SCORE.SYSTEM.CONST>
0

>  <SCORE.SYSTEM.DIHEDRAL>
0

>  <SCORE.SYSTEM.SOLV>
0

>  <SCORE.SYSTEM.norm>
0

>  <SCORE.heavy>
9

>  <SCORE.norm>
-1.36096

>  <RMSD>
5.268

$$$$
ligand
 OpenBabel02271912143D
libRbt.so/2013.1/901 2013/11/27
  9  8  0  0  0  0  0  0  0  0999 V2000
  -50.0451   69.4128  -18.9435 C   0  0  0  0  0  0  0  0  0  0  0  0
  -51.3284   69.4087  -18.9977 O   0  0  0  0  0  0  0  0  0  0  0  0
  -49.3502   68.6168  -17.9238 C   0  0  0  0  0  0  0  0  0  0  0  0
  -49.3487   70.1318  -19.7320 O   0  0  0  0  0  0  0  0  0  0  0  0
  -49.2361   67.1550  -18.2195 C   0  0  0  0  0  0  0  0  0  0  0  0
  -48.3614   66.7400  -19.3446 C   0  0  0  0  0  0  0  0  0  0  0  0
  -48.8698   67.1385  -20.7199 C   0  0  0  0  0  0  0  0  0  0  0  0
  -48.0021   66.8622  -21.9578 C   0  0  0  0  0  0  0  0  0  0  0  0
  -46.7581   67.4565  -22.0176 N   0  0  0  0  0  0  0  0  0  0  0  0
  1  2  1  0  0  0  0
  1  3  1  0  0  0  0
  1  4  1  0  0  0  0
  3  5  1  0  0  0  0
  5  6  1  0  0  0  0
  6  7  1  0  0  0  0
  7  8  1  0  0  0  0
  8  9  1  0  0  0  0
M  END
>  <CHROM.1>
78.96729298,68.19708548,-68.28601582,175.32525631,-60.45747386,-49.05794913
68.13329713,-19.76213571,3.00469457,-0.92588223,2.31261307

>  <Name>
ligand

>  <RI>
0

>  <Rbt.Current_Directory>
/home/itssahil/PROJECTS/Mol_Feturizer/Test_systems_manuscript/rnas/4erj

>  <Rbt.Executable>
rbdock ($Id: //depot/dev/client3/rdock/2013.1/src/exe/rbdock.cxx#4 $)

>  <Rbt.Library>
libRbt.so (2013.1, Build901 2013/11/27)

>  <Rbt.Parameter_File>
/export/apps/rDock/src/rDock_2013.1_src/data/scripts/dock_solv.prm

>  <Rbt.Receptor>
prm/blind_docking_100.prm

>  <SCORE>
-14.727

>  <SCORE.INTER>
-11.9438

>  <SCORE.INTER.CONST>
1

>  <SCORE.INTER.POLAR>
0

>  <SCORE.INTER.ROT>
5

>  <SCORE.INTER.SOLV>
7.79482

>  <SCORE.INTER.VDW>
-17.4942

>  <SCORE.INTER.norm>
-1.32709

>  <SCORE.INTRA>
-2.78321

>  <SCORE.INTRA.DIHEDRAL>
-5.32349

>  <SCORE.INTRA.DIHEDRAL.0>
7.73744

>  <SCORE.INTRA.POLAR>
0

>  <SCORE.INTRA.POLAR.0>
0

>  <SCORE.INTRA.REPUL>
0

>  <SCORE.INTRA.REPUL.0>
0

>  <SCORE.INTRA.SOLV>
0.530889

>  <SCORE.INTRA.SOLV.lig_0>
-15.8342

>  <SCORE.INTRA.VDW>
-0.386914

>  <SCORE.INTRA.VDW.0>
-0.219494

>  <SCORE.INTRA.norm>
-0.309246

>  <SCORE.RESTR>
0

>  <SCORE.RESTR.CAVITY>
0

>  <SCORE.RESTR.norm>
0

>  <SCORE.SYSTEM>
0

>  <SCORE.SYSTEM.CONST>
0

>  <SCORE.SYSTEM.DIHEDRAL>
0

>  <SCORE.SYSTEM.SOLV>
0

>  <SCORE.SYSTEM.norm>
0

>  <SCORE.heavy>
9

>  <SCORE.norm>
-1.63634

>  <RMSD>
5.269

$$$$
ligand
 OpenBabel02271912143D
libRbt.so/2013.1/901 2013/11/27
  9  8  0  0  0  0  0  0  0  0999 V2000
  -50.7965   69.9159  -19.7685 C   0  0  0  0  0  0  0  0  0  0  0  0
  -51.6522   69.7600  -18.8234 O   0  0  0  0  0  0  0  0  0  0  0  0
  -49.3653   69.7220  -19.5032 C   0  0  0  0  0  0  0  0  0  0  0  0
  -51.1542   70.2818  -20.9355 O   0  0  0  0  0  0  0  0  0  0  0  0
  -49.0398   68.7106  -18.4503 C   0  0  0  0  0  0  0  0  0  0  0  0
  -49.2993   67.2815  -18.7560 C   0  0  0  0  0  0  0  0  0  0  0  0
  -48.3715   66.6802  -19.7983 C   0  0  0  0  0  0  0  0  0  0  0  0
  -48.4441   67.1734  -21.2520 C   0  0  0  0  0  0  0  0  0  0  0  0
  -47.5383   66.6537  -22.1540 N   0  0  0  0  0  0  0  0  0  0  0  0
  1  2  1  0  0  0  0
  1  3  1  0  0  0  0
  1  4  1  0  0  0  0
  3  5  1  0  0  0  0
  5  6  1  0  0  0  0
  6  7  1  0  0  0  0
  7  8  1  0  0  0  0
  8  9  1  0  0  0  0
M  END
>  <CHROM.1>
31.15761391,69.39408842,69.85083762,-66.87309853,176.67446783,-49.55615476
68.48972447,-19.93843241,2.93109592,-0.84243161,1.72084841

>  <Name>
ligand

>  <RI>
0

>  <Rbt.Current_Directory>
/home/itssahil/PROJECTS/Mol_Feturizer/Test_systems_manuscript/rnas/4erj

>  <Rbt.Executable>
rbdock ($Id: //depot/dev/client3/rdock/2013.1/src/exe/rbdock.cxx#4 $)

>  <Rbt.Library>
libRbt.so (2013.1, Build901 2013/11/27)

>  <Rbt.Parameter_File>
/export/apps/rDock/src/rDock_2013.1_src/data/scripts/dock_solv.prm

>  <Rbt.Receptor>
prm/blind_docking_100.prm

>  <SCORE>
-14.1419

>  <SCORE.INTER>
-12.0722

>  <SCORE.INTER.CONST>
1

>  <SCORE.INTER.POLAR>
0

>  <SCORE.INTER.ROT>
5

>  <SCORE.INTER.SOLV>
9.50956

>  <SCORE.INTER.VDW>
-18.1513

>  <SCORE.INTER.norm>
-1.34136

>  <SCORE.INTRA>
-2.06964

>  <SCORE.INTRA.DIHEDRAL>
-5.15952

>  <SCORE.INTRA.DIHEDRAL.0>
7.73744

>  <SCORE.INTRA.POLAR>
0

>  <SCORE.INTRA.POLAR.0>
0

>  <SCORE.INTRA.REPUL>
0

>  <SCORE.INTRA.REPUL.0>
0

>  <SCORE.INTRA.SOLV>
0.22567

>  <SCORE.INTRA.SOLV.lig_0>
-15.8342

>  <SCORE.INTRA.VDW>
0.397285

>  <SCORE.INTRA.VDW.0>
-0.219494

>  <SCORE.INTRA.norm>
-0.22996

>  <SCORE.RESTR>
0

>  <SCORE.RESTR.CAVITY>
0

>  <SCORE.RESTR.norm>
0

>  <SCORE.SYSTEM>
0

>  <SCORE.SYSTEM.CONST>
0

>  <SCORE.SYSTEM.DIHEDRAL>
0

>  <SCORE.SYSTEM.SOLV>
0

>  <SCORE.SYSTEM.norm>
0

>  <SCORE.heavy>
9

>  <SCORE.norm>
-1.57132

>  <RMSD>
5.270

$$$$
ligand
 OpenBabel02271912143D
libRbt.so/2013.1/901 2013/11/27
  9  8  0  0  0  0  0  0  0  0999 V2000
  -50.4774   69.4421  -19.2658 C   0  0  0  0  0  0  0  0  0  0  0  0
  -51.5777   69.6095  -18.6246 O   0  0  0  0  0  0  0  0  0  0  0  0
  -49.3118   68.8628  -18.5860 C   0  0  0  0  0  0  0  0  0  0  0  0
  -50.3527   69.8095  -20.4795 O   0  0  0  0  0  0  0  0  0  0  0  0
  -49.2520   67.3682  -18.5773 C   0  0  0  0  0  0  0  0  0  0  0  0
  -49.2287   66.6664  -19.8850 C   0  0  0  0  0  0  0  0  0  0  0  0
  -47.9250   66.8051  -20.6530 C   0  0  0  0  0  0  0  0  0  0  0  0
  -47.5223   68.1751  -21.2209 C   0  0  0  0  0  0  0  0  0  0  0  0
  -46.3959   68.2366  -22.0157 N   0  0  0  0  0  0  0  0  0  0  0  0
  1  2  1  0  0  0  0
  1  3  1  0  0  0  0
  1  4  1  0  0  0  0
  3  5  1  0  0  0  0
  5  6  1  0  0  0  0
  6  7  1  0  0  0  0
  7  8  1  0  0  0  0
  8  9  1  0  0  0  0
M  END
>  <CHROM.1>
86.12785829,59.15073372,71.55267592,-67.97296732,-174.16005309,-49.15190445
68.35558478,-19.92164526,-3.11123584,-0.67665253,2.55827922

>  <Name>
ligand

>  <RI>
0

>  <Rbt.Current_Directory>
/home/itssahil/PROJECTS/Mol_Feturizer/Test_systems_manuscript/rnas/4erj

>  <Rbt.Executable>
rbdock ($Id: //depot/dev/client3/rdock/2013.1/src/exe/rbdock.cxx#4 $)

>  <Rbt.Library>
libRbt.so (2013.1, Build901 2013/11/27)

>  <Rbt.Parameter_File>
/export/apps/rDock/src/rDock_2013.1_src/data/scripts/dock_solv.prm

>  <Rbt.Receptor>
prm/pocket_docking_5.prm

>  <SCORE>
-13.8585

>  <SCORE.INTER>
-11.2262

>  <SCORE.INTER.CONST>
1

>  <SCORE.INTER.POLAR>
0

>  <SCORE.INTER.ROT>
5

>  <SCORE.INTER.SOLV>
8.31094

>  <SCORE.INTER.VDW>
-17.1878

>  <SCORE.INTER.norm>
-1.24736

>  <SCORE.INTRA>
-2.63233

>  <SCORE.INTRA.DIHEDRAL>
-5.02339

>  <SCORE.INTRA.DIHEDRAL.0>
7.73744

>  <SCORE.INTRA.POLAR>
0

>  <SCORE.INTRA.POLAR.0>
0

>  <SCORE.INTRA.REPUL>
0

>  <SCORE.INTRA.REPUL.0>
0

>  <SCORE.INTRA.SOLV>
0.113518

>  <SCORE.INTRA.SOLV.lig_0>
-15.8342

>  <SCORE.INTRA.VDW>
-0.177396

>  <SCORE.INTRA.VDW.0>
-0.219494

>  <SCORE.INTRA.norm>
-0.292482

>  <SCORE.RESTR>
0

>  <SCORE.RESTR.CAVITY>
0

>  <SCORE.RESTR.norm>
0

>  <SCORE.SYSTEM>
0

>  <SCORE.SYSTEM.CONST>
0

>  <SCORE.SYSTEM.DIHEDRAL>
0

>  <SCORE.SYSTEM.SOLV>
0

>  <SCORE.SYSTEM.norm>
0

>  <SCORE.heavy>
9

>  <SCORE.norm>
-1.53984

>  <RMSD>
5.270

$$$$
ligand
 OpenBabel02271912143D
libRbt.so/2013.1/901 2013/11/27
  9  8  0  0  0  0  0  0  0  0999 V2000
  -50.0295   69.3607  -18.9018 C   0  0  0  0  0  0  0  0  0  0  0  0
  -49.3504   69.9836  -19.7967 O   0  0  0  0  0  0  0  0  0  0  0  0
  -49.3434   68.5238  -17.9092 C   0  0  0  0  0  0  0  0  0  0  0  0
  -51.3024   69.4136  -18.8766 O   0  0  0  0  0  0  0  0  0  0  0  0
  -49.2117   67.0783  -18.2706 C   0  0  0  0  0  0  0  0  0  0  0  0
  -48.3145   66.7232  -19.3984 C   0  0  0  0  0  0  0  0  0  0  0  0
  -48.8163   67.1572  -20.7654 C   0  0  0  0  0  0  0  0  0  0  0  0
  -47.9431   66.9120  -22.0060 C   0  0  0  0  0  0  0  0  0  0  0  0
  -46.7018   67.5132  -22.0485 N   0  0  0  0  0  0  0  0  0  0  0  0
  1  2  1  0  0  0  0
  1  3  1  0  0  0  0
  1  4  1  0  0  0  0
  3  5  1  0  0  0  0
  5  6  1  0  0  0  0
  6  7  1  0  0  0  0
  7  8  1  0  0  0  0
  8  9  1  0  0  0  0
M  END
>  <CHROM.1>
-92.88143311,68.28416115,-69.44159551,176.87192706,-60.84773810,-49.02645990
68.10382351,-19.77468815,2.96446930,-0.90969166,2.30813547

>  <Name>
ligand

>  <RI>
0

>  <Rbt.Current_Directory>
/home/itssahil/PROJECTS/Mol_Feturizer/Test_systems_manuscript/rnas/4erj

>  <Rbt.Executable>
rbdock ($Id: //depot/dev/client3/rdock/2013.1/src/exe/rbdock.cxx#4 $)

>  <Rbt.Library>
libRbt.so (2013.1, Build901 2013/11/27)

>  <Rbt.Parameter_File>
/export/apps/rDock/src/rDock_2013.1_src/data/scripts/dock_solv.prm

>  <Rbt.Receptor>
prm/pocket_docking_8.prm

>  <SCORE>
-14.6496

>  <SCORE.INTER>
-11.8561

>  <SCORE.INTER.CONST>
1

>  <SCORE.INTER.POLAR>
0

>  <SCORE.INTER.ROT>
5

>  <SCORE.INTER.SOLV>
7.69277

>  <SCORE.INTER.VDW>
-17.4017

>  <SCORE.INTER.norm>
-1.31734

>  <SCORE.INTRA>
-2.79348

>  <SCORE.INTRA.DIHEDRAL>
-5.46248

>  <SCORE.INTRA.DIHEDRAL.0>
7.73744

>  <SCORE.INTRA.POLAR>
0

>  <SCORE.INTRA.POLAR.0>
0

>  <SCORE.INTRA.REPUL>
0

>  <SCORE.INTRA.REPUL.0>
0

>  <SCORE.INTRA.SOLV>
0.520732

>  <SCORE.INTRA.SOLV.lig_0>
-15.8342

>  <SCORE.INTRA.VDW>
-0.322608

>  <SCORE.INTRA.VDW.0>
-0.219494

>  <SCORE.INTRA.norm>
-0.310387

>  <SCORE.RESTR>
0

>  <SCORE.RESTR.CAVITY>
0

>  <SCORE.RESTR.norm>
0

>  <SCORE.SYSTEM>
0

>  <SCORE.SYSTEM.CONST>
0

>  <SCORE.SYSTEM.DIHEDRAL>
0

>  <SCORE.SYSTEM.SOLV>
0

>  <SCORE.SYSTEM.norm>
0

>  <SCORE.heavy>
9

>  <SCORE.norm>
-1.62773

>  <RMSD>
5.271

$$$$
ligand
 OpenBabel02271912143D
libRbt.so/2013.1/901 2013/11/27
  9  8  0  0  0  0  0  0  0  0999 V2000
  -50.0526   69.4034  -18.8992 C   0  0  0  0  0  0  0  0  0  0  0  0
  -49.3634   70.0411  -19.7757 O   0  0  0  0  0  0  0  0  0  0  0  0
  -49.3747   68.5952  -17.8776 C   0  0  0  0  0  0  0  0  0  0  0  0
  -51.3266   69.4165  -18.9172 O   0  0  0  0  0  0  0  0  0  0  0  0
  -49.2470   67.1387  -18.1931 C   0  0  0  0  0  0  0  0  0  0  0  0
  -48.3617   66.7465  -19.3180 C   0  0  0  0  0  0  0  0  0  0  0  0
  -48.8717   67.1470  -20.6921 C   0  0  0  0  0  0  0  0  0  0  0  0
  -47.9942   66.8965  -21.9286 C   0  0  0  0  0  0  0  0  0  0  0  0
  -46.7814   67.5508  -22.0005 N   0  0  0  0  0  0  0  0  0  0  0  0
  1  2  1  0  0  0  0
  1  3  1  0  0  0  0
  1  4  1  0  0  0  0
  3  5  1  0  0  0  0
  5  6  1  0  0  0  0
  6  7  1  0  0  0  0
  7  8  1  0  0  0  0
  8  9  1  0  0  0  0
M  END
>  <CHROM.1>
-95.82271818,67.37646701,-68.91988603,175.21826620,-62.70988191,-49.06604806
68.13363880,-19.73441812,2.97525877,-0.91636875,2.30725882

>  <Name>
ligand

>  <RI>
0

>  <Rbt.Current_Directory>
/home/itssahil/PROJECTS/Mol_Feturizer/Test_systems_manuscript/rnas/4erj

>  <Rbt.Executable>
rbdock ($Id: //depot/dev/client3/rdock/2013.1/src/exe/rbdock.cxx#4 $)

>  <Rbt.Library>
libRbt.so (2013.1, Build901 2013/11/27)

>  <Rbt.Parameter_File>
/export/apps/rDock/src/rDock_2013.1_src/data/scripts/dock_solv.prm

>  <Rbt.Receptor>
prm/pocket_docking_7.prm

>  <SCORE>
-14.6414

>  <SCORE.INTER>
-11.8117

>  <SCORE.INTER.CONST>
1

>  <SCORE.INTER.POLAR>
0

>  <SCORE.INTER.ROT>
5

>  <SCORE.INTER.SOLV>
7.74025

>  <SCORE.INTER.VDW>
-17.3879

>  <SCORE.INTER.norm>
-1.31241

>  <SCORE.INTRA>
-2.82975

>  <SCORE.INTRA.DIHEDRAL>
-5.47523

>  <SCORE.INTRA.DIHEDRAL.0>
7.73744

>  <SCORE.INTRA.POLAR>
0

>  <SCORE.INTRA.POLAR.0>
0

>  <SCORE.INTRA.REPUL>
0

>  <SCORE.INTRA.REPUL.0>
0

>  <SCORE.INTRA.SOLV>
0.509725

>  <SCORE.INTRA.SOLV.lig_0>
-15.8342

>  <SCORE.INTRA.VDW>
-0.347002

>  <SCORE.INTRA.VDW.0>
-0.219494

>  <SCORE.INTRA.norm>
-0.314417

>  <SCORE.RESTR>
0

>  <SCORE.RESTR.CAVITY>
0

>  <SCORE.RESTR.norm>
0

>  <SCORE.SYSTEM>
0

>  <SCORE.SYSTEM.CONST>
0

>  <SCORE.SYSTEM.DIHEDRAL>
0

>  <SCORE.SYSTEM.SOLV>
0

>  <SCORE.SYSTEM.norm>
0

>  <SCORE.heavy>
9

>  <SCORE.norm>
-1.62683

>  <RMSD>
5.275

$$$$
ligand
 OpenBabel02271912143D
libRbt.so/2013.1/901 2013/11/27
  9  8  0  0  0  0  0  0  0  0999 V2000
  -50.0502   69.4344  -18.9343 C   0  0  0  0  0  0  0  0  0  0  0  0
  -51.3316   69.5227  -18.9341 O   0  0  0  0  0  0  0  0  0  0  0  0
  -49.3704   68.6117  -17.9257 C   0  0  0  0  0  0  0  0  0  0  0  0
  -49.3392   70.0836  -19.7689 O   0  0  0  0  0  0  0  0  0  0  0  0
  -49.2681   67.1550  -18.2494 C   0  0  0  0  0  0  0  0  0  0  0  0
  -48.3763   66.7523  -19.3655 C   0  0  0  0  0  0  0  0  0  0  0  0
  -48.8555   67.1800  -20.7425 C   0  0  0  0  0  0  0  0  0  0  0  0
  -47.9816   66.8894  -21.9728 C   0  0  0  0  0  0  0  0  0  0  0  0
  -46.7272   67.4622  -22.0211 N   0  0  0  0  0  0  0  0  0  0  0  0
  1  2  1  0  0  0  0
  1  3  1  0  0  0  0
  1  4  1  0  0  0  0
  3  5  1  0  0  0  0
  5  6  1  0  0  0  0
  6  7  1  0  0  0  0
  7  8  1  0  0  0  0
  8  9  1  0  0  0  0
M  END
>  <CHROM.1>
84.19013059,68.93947570,-68.54396025,176.70934552,-61.42328045,-49.05778510
68.15249583,-19.76818613,3.01150957,-0.92170447,2.32431422

>  <Name>
ligand

>  <RI>
0

>  <Rbt.Current_Directory>
/home/itssahil/PROJECTS/Mol_Feturizer/Test_systems_manuscript/rnas/4erj

>  <Rbt.Executable>
rbdock ($Id: //depot/dev/client3/rdock/2013.1/src/exe/rbdock.cxx#4 $)

>  <Rbt.Library>
libRbt.so (2013.1, Build901 2013/11/27)

>  <Rbt.Parameter_File>
/export/apps/rDock/src/rDock_2013.1_src/data/scripts/dock_solv.prm

>  <Rbt.Receptor>
prm/pocket_docking_8.prm

>  <SCORE>
-14.654

>  <SCORE.INTER>
-11.9146

>  <SCORE.INTER.CONST>
1

>  <SCORE.INTER.POLAR>
0

>  <SCORE.INTER.ROT>
5

>  <SCORE.INTER.SOLV>
7.76527

>  <SCORE.INTER.VDW>
-17.4649

>  <SCORE.INTER.norm>
-1.32385

>  <SCORE.INTRA>
-2.73935

>  <SCORE.INTRA.DIHEDRAL>
-5.28012

>  <SCORE.INTRA.DIHEDRAL.0>
7.73744

>  <SCORE.INTRA.POLAR>
0

>  <SCORE.INTRA.POLAR.0>
0

>  <SCORE.INTRA.REPUL>
0

>  <SCORE.INTRA.REPUL.0>
0

>  <SCORE.INTRA.SOLV>
0.515756

>  <SCORE.INTRA.SOLV.lig_0>
-15.8342

>  <SCORE.INTRA.VDW>
-0.357164

>  <SCORE.INTRA.VDW.0>
-0.219494

>  <SCORE.INTRA.norm>
-0.304372

>  <SCORE.RESTR>
0

>  <SCORE.RESTR.CAVITY>
0

>  <SCORE.RESTR.norm>
0

>  <SCORE.SYSTEM>
0

>  <SCORE.SYSTEM.CONST>
0

>  <SCORE.SYSTEM.DIHEDRAL>
0

>  <SCORE.SYSTEM.SOLV>
0

>  <SCORE.SYSTEM.norm>
0

>  <SCORE.heavy>
9

>  <SCORE.norm>
-1.62822

>  <RMSD>
5.277

$$$$
ligand
 OpenBabel02271912143D
libRbt.so/2013.1/901 2013/11/27
  9  8  0  0  0  0  0  0  0  0999 V2000
  -48.8910   67.5930  -18.3758 C   0  0  0  0  0  0  0  0  0  0  0  0
  -48.4978   66.3722  -18.4461 O   0  0  0  0  0  0  0  0  0  0  0  0
  -48.4657   68.5616  -19.3942 C   0  0  0  0  0  0  0  0  0  0  0  0
  -49.6141   68.0040  -17.4105 O   0  0  0  0  0  0  0  0  0  0  0  0
  -48.9981   68.3198  -20.7709 C   0  0  0  0  0  0  0  0  0  0  0  0
  -48.5860   67.0751  -21.4665 C   0  0  0  0  0  0  0  0  0  0  0  0
  -47.0916   66.9552  -21.7140 C   0  0  0  0  0  0  0  0  0  0  0  0
  -46.3741   68.0257  -22.5513 C   0  0  0  0  0  0  0  0  0  0  0  0
  -46.8010   68.2211  -23.8489 N   0  0  0  0  0  0  0  0  0  0  0  0
  1  2  1  0  0  0  0
  1  3  1  0  0  0  0
  1  4  1  0  0  0  0
  3  5  1  0  0  0  0
  5  6  1  0  0  0  0
  6  7  1  0  0  0  0
  7  8  1  0  0  0  0
  8  9  1  0  0  0  0
M  END
>  <CHROM.1>
66.69971708,-64.13493652,-61.63089980,-59.29468930,-59.35858055,-48.16309936
67.66698783,-20.39661111,-2.41444071,0.98263558,-0.76276739

>  <Name>
ligand

>  <RI>
0

>  <Rbt.Current_Directory>
/home/itssahil/PROJECTS/Mol_Feturizer/Test_systems_manuscript/rnas/4erj

>  <Rbt.Executable>
rbdock ($Id: //depot/dev/client3/rdock/2013.1/src/exe/rbdock.cxx#4 $)

>  <Rbt.Library>
libRbt.so (2013.1, Build901 2013/11/27)

>  <Rbt.Parameter_File>
/export/apps/rDock/src/rDock_2013.1_src/data/scripts/dock_solv.prm

>  <Rbt.Receptor>
prm/pocket_docking_3.prm

>  <SCORE>
-12.5577

>  <SCORE.INTER>
-10.2991

>  <SCORE.INTER.CONST>
1

>  <SCORE.INTER.POLAR>
0

>  <SCORE.INTER.ROT>
5

>  <SCORE.INTER.SOLV>
6.6584

>  <SCORE.INTER.VDW>
-16.0189

>  <SCORE.INTER.norm>
-1.14435

>  <SCORE.INTRA>
-2.25859

>  <SCORE.INTRA.DIHEDRAL>
-5.94234

>  <SCORE.INTRA.DIHEDRAL.0>
7.73744

>  <SCORE.INTRA.POLAR>
0

>  <SCORE.INTRA.POLAR.0>
0

>  <SCORE.INTRA.REPUL>
0

>  <SCORE.INTRA.REPUL.0>
0

>  <SCORE.INTRA.SOLV>
1.10783

>  <SCORE.INTRA.SOLV.lig_0>
-15.8342

>  <SCORE.INTRA.VDW>
0.158668

>  <SCORE.INTRA.VDW.0>
-0.219494

>  <SCORE.INTRA.norm>
-0.250954

>  <SCORE.RESTR>
0

>  <SCORE.RESTR.CAVITY>
0

>  <SCORE.RESTR.norm>
0

>  <SCORE.SYSTEM>
0

>  <SCORE.SYSTEM.CONST>
0

>  <SCORE.SYSTEM.DIHEDRAL>
0

>  <SCORE.SYSTEM.SOLV>
0

>  <SCORE.SYSTEM.norm>
0

>  <SCORE.heavy>
9

>  <SCORE.norm>
-1.3953

>  <RMSD>
5.279

$$$$
ligand
 OpenBabel02271912143D
libRbt.so/2013.1/901 2013/11/27
  9  8  0  0  0  0  0  0  0  0999 V2000
  -49.1308   67.1976  -18.4463 C   0  0  0  0  0  0  0  0  0  0  0  0
  -48.2647   66.4585  -19.0409 O   0  0  0  0  0  0  0  0  0  0  0  0
  -49.7791   68.2978  -19.1712 C   0  0  0  0  0  0  0  0  0  0  0  0
  -49.4158   67.0291  -17.2159 O   0  0  0  0  0  0  0  0  0  0  0  0
  -48.8845   69.4394  -19.5371 C   0  0  0  0  0  0  0  0  0  0  0  0
  -47.8131   69.1906  -20.5337 C   0  0  0  0  0  0  0  0  0  0  0  0
  -48.3127   68.7818  -21.9092 C   0  0  0  0  0  0  0  0  0  0  0  0
  -47.3043   68.5699  -23.0494 C   0  0  0  0  0  0  0  0  0  0  0  0
  -46.3425   67.5941  -22.8851 N   0  0  0  0  0  0  0  0  0  0  0  0
  1  2  1  0  0  0  0
  1  3  1  0  0  0  0
  1  4  1  0  0  0  0
  3  5  1  0  0  0  0
  5  6  1  0  0  0  0
  6  7  1  0  0  0  0
  7  8  1  0  0  0  0
  8  9  1  0  0  0  0
M  END
>  <CHROM.1>
-68.10396520,66.89048578,62.18545732,176.70595165,60.69755261,-48.36380415
68.03518193,-20.16215543,-2.33994342,0.94344074,-0.67559739

>  <Name>
ligand

>  <RI>
0

>  <Rbt.Current_Directory>
/home/itssahil/PROJECTS/Mol_Feturizer/Test_systems_manuscript/rnas/4erj

>  <Rbt.Executable>
rbdock ($Id: //depot/dev/client3/rdock/2013.1/src/exe/rbdock.cxx#4 $)

>  <Rbt.Library>
libRbt.so (2013.1, Build901 2013/11/27)

>  <Rbt.Parameter_File>
/export/apps/rDock/src/rDock_2013.1_src/data/scripts/dock_solv.prm

>  <Rbt.Receptor>
prm/blind_docking_100.prm

>  <SCORE>
-13.1792

>  <SCORE.INTER>
-10.3138

>  <SCORE.INTER.CONST>
1

>  <SCORE.INTER.POLAR>
0

>  <SCORE.INTER.ROT>
5

>  <SCORE.INTER.SOLV>
6.44977

>  <SCORE.INTER.VDW>
-15.9591

>  <SCORE.INTER.norm>
-1.14598

>  <SCORE.INTRA>
-2.86539

>  <SCORE.INTRA.DIHEDRAL>
-5.84006

>  <SCORE.INTRA.DIHEDRAL.0>
7.73744

>  <SCORE.INTRA.POLAR>
0

>  <SCORE.INTRA.POLAR.0>
0

>  <SCORE.INTRA.REPUL>
0

>  <SCORE.INTRA.REPUL.0>
0

>  <SCORE.INTRA.SOLV>
0.499934

>  <SCORE.INTRA.SOLV.lig_0>
-15.8342

>  <SCORE.INTRA.VDW>
-0.195327

>  <SCORE.INTRA.VDW.0>
-0.219494

>  <SCORE.INTRA.norm>
-0.318377

>  <SCORE.RESTR>
0

>  <SCORE.RESTR.CAVITY>
0

>  <SCORE.RESTR.norm>
0

>  <SCORE.SYSTEM>
0

>  <SCORE.SYSTEM.CONST>
0

>  <SCORE.SYSTEM.DIHEDRAL>
0

>  <SCORE.SYSTEM.SOLV>
0

>  <SCORE.SYSTEM.norm>
0

>  <SCORE.heavy>
9

>  <SCORE.norm>
-1.46435

>  <RMSD>
5.288

$$$$
ligand
 OpenBabel02271912143D
libRbt.so/2013.1/901 2013/11/27
  9  8  0  0  0  0  0  0  0  0999 V2000
  -48.8341   68.0017  -18.5737 C   0  0  0  0  0  0  0  0  0  0  0  0
  -49.3711   68.0222  -17.4070 O   0  0  0  0  0  0  0  0  0  0  0  0
  -48.8873   66.7792  -19.3855 C   0  0  0  0  0  0  0  0  0  0  0  0
  -48.2097   69.0116  -19.0360 O   0  0  0  0  0  0  0  0  0  0  0  0
  -48.5883   66.9619  -20.8397 C   0  0  0  0  0  0  0  0  0  0  0  0
  -47.1909   67.2781  -21.2272 C   0  0  0  0  0  0  0  0  0  0  0  0
  -46.9719   67.4431  -22.7217 C   0  0  0  0  0  0  0  0  0  0  0  0
  -47.6436   68.6107  -23.4615 C   0  0  0  0  0  0  0  0  0  0  0  0
  -47.3496   68.7794  -24.7992 N   0  0  0  0  0  0  0  0  0  0  0  0
  1  2  1  0  0  0  0
  1  3  1  0  0  0  0
  1  4  1  0  0  0  0
  3  5  1  0  0  0  0
  5  6  1  0  0  0  0
  6  7  1  0  0  0  0
  7  8  1  0  0  0  0
  8  9  1  0  0  0  0
M  END
>  <CHROM.1>
163.53289567,70.40580981,179.80411501,65.44670571,175.75179295,-48.12585384
67.89404472,-20.78254360,3.07325327,-1.27996863,3.13482233

>  <Name>
ligand

>  <RI>
0

>  <Rbt.Current_Directory>
/home/itssahil/PROJECTS/Mol_Feturizer/Test_systems_manuscript/rnas/4erj

>  <Rbt.Executable>
rbdock ($Id: //depot/dev/client3/rdock/2013.1/src/exe/rbdock.cxx#4 $)

>  <Rbt.Library>
libRbt.so (2013.1, Build901 2013/11/27)

>  <Rbt.Parameter_File>
/export/apps/rDock/src/rDock_2013.1_src/data/scripts/dock_solv.prm

>  <Rbt.Receptor>
prm/pocket_docking_3.prm

>  <SCORE>
-12.3457

>  <SCORE.INTER>
-10.1686

>  <SCORE.INTER.CONST>
1

>  <SCORE.INTER.POLAR>
0

>  <SCORE.INTER.ROT>
5

>  <SCORE.INTER.SOLV>
8.25814

>  <SCORE.INTER.VDW>
-16.4651

>  <SCORE.INTER.norm>
-1.12984

>  <SCORE.INTRA>
-2.17715

>  <SCORE.INTRA.DIHEDRAL>
-5.50286

>  <SCORE.INTRA.DIHEDRAL.0>
7.73744

>  <SCORE.INTRA.POLAR>
0

>  <SCORE.INTRA.POLAR.0>
0

>  <SCORE.INTRA.REPUL>
0

>  <SCORE.INTRA.REPUL.0>
0

>  <SCORE.INTRA.SOLV>
0.0101023

>  <SCORE.INTRA.SOLV.lig_0>
-15.8342

>  <SCORE.INTRA.VDW>
0.56923

>  <SCORE.INTRA.VDW.0>
-0.219494

>  <SCORE.INTRA.norm>
-0.241905

>  <SCORE.RESTR>
0

>  <SCORE.RESTR.CAVITY>
0

>  <SCORE.RESTR.norm>
0

>  <SCORE.SYSTEM>
0

>  <SCORE.SYSTEM.CONST>
0

>  <SCORE.SYSTEM.DIHEDRAL>
0

>  <SCORE.SYSTEM.SOLV>
0

>  <SCORE.SYSTEM.norm>
0

>  <SCORE.heavy>
9

>  <SCORE.norm>
-1.37175

>  <RMSD>
5.288

$$$$
ligand
 OpenBabel02271912143D
libRbt.so/2013.1/901 2013/11/27
  9  8  0  0  0  0  0  0  0  0999 V2000
  -50.2669   69.6201  -19.1301 C   0  0  0  0  0  0  0  0  0  0  0  0
  -51.4575   69.4657  -18.6733 O   0  0  0  0  0  0  0  0  0  0  0  0
  -49.1484   68.8815  -18.5302 C   0  0  0  0  0  0  0  0  0  0  0  0
  -50.0177   70.4398  -20.0733 O   0  0  0  0  0  0  0  0  0  0  0  0
  -49.2569   67.3910  -18.5936 C   0  0  0  0  0  0  0  0  0  0  0  0
  -49.3196   66.7555  -19.9335 C   0  0  0  0  0  0  0  0  0  0  0  0
  -48.0234   66.8190  -20.7238 C   0  0  0  0  0  0  0  0  0  0  0  0
  -47.5085   68.1768  -21.2269 C   0  0  0  0  0  0  0  0  0  0  0  0
  -46.3716   68.1845  -22.0087 N   0  0  0  0  0  0  0  0  0  0  0  0
  1  2  1  0  0  0  0
  1  3  1  0  0  0  0
  1  4  1  0  0  0  0
  3  5  1  0  0  0  0
  5  6  1  0  0  0  0
  6  7  1  0  0  0  0
  7  8  1  0  0  0  0
  8  9  1  0  0  0  0
M  END
>  <CHROM.1>
60.41206517,61.07380014,69.91777272,-67.57591001,-176.18795607,-49.07454026
68.44331297,-19.87295092,-2.94096568,-0.70870100,2.78710274

>  <Name>
ligand

>  <RI>
0

>  <Rbt.Current_Directory>
/home/itssahil/PROJECTS/Mol_Feturizer/Test_systems_manuscript/rnas/4erj

>  <Rbt.Executable>
rbdock ($Id: //depot/dev/client3/rdock/2013.1/src/exe/rbdock.cxx#4 $)

>  <Rbt.Library>
libRbt.so (2013.1, Build901 2013/11/27)

>  <Rbt.Parameter_File>
/export/apps/rDock/src/rDock_2013.1_src/data/scripts/dock_solv.prm

>  <Rbt.Receptor>
prm/pocket_docking_5.prm

>  <SCORE>
-13.8257

>  <SCORE.INTER>
-11.2294

>  <SCORE.INTER.CONST>
1

>  <SCORE.INTER.POLAR>
0

>  <SCORE.INTER.ROT>
5

>  <SCORE.INTER.SOLV>
8.42775

>  <SCORE.INTER.VDW>
-17.2288

>  <SCORE.INTER.norm>
-1.24771

>  <SCORE.INTRA>
-2.59628

>  <SCORE.INTRA.DIHEDRAL>
-5.36067

>  <SCORE.INTRA.DIHEDRAL.0>
7.73744

>  <SCORE.INTRA.POLAR>
0

>  <SCORE.INTRA.POLAR.0>
0

>  <SCORE.INTRA.REPUL>
0

>  <SCORE.INTRA.REPUL.0>
0

>  <SCORE.INTRA.SOLV>
0.151671

>  <SCORE.INTRA.SOLV.lig_0>
-15.8342

>  <SCORE.INTRA.VDW>
0.00822058

>  <SCORE.INTRA.VDW.0>
-0.219494

>  <SCORE.INTRA.norm>
-0.288475

>  <SCORE.RESTR>
0

>  <SCORE.RESTR.CAVITY>
0

>  <SCORE.RESTR.norm>
0

>  <SCORE.SYSTEM>
0

>  <SCORE.SYSTEM.CONST>
0

>  <SCORE.SYSTEM.DIHEDRAL>
0

>  <SCORE.SYSTEM.SOLV>
0

>  <SCORE.SYSTEM.norm>
0

>  <SCORE.heavy>
9

>  <SCORE.norm>
-1.53618

>  <RMSD>
5.290

$$$$
ligand
 OpenBabel02271912143D
libRbt.so/2013.1/901 2013/11/27
  9  8  0  0  0  0  0  0  0  0999 V2000
  -48.9846   68.7189  -18.6735 C   0  0  0  0  0  0  0  0  0  0  0  0
  -47.9803   69.4251  -19.0509 O   0  0  0  0  0  0  0  0  0  0  0  0
  -49.8419   68.0681  -19.6724 C   0  0  0  0  0  0  0  0  0  0  0  0
  -49.2890   68.6007  -17.4418 O   0  0  0  0  0  0  0  0  0  0  0  0
  -49.3543   66.7449  -20.1712 C   0  0  0  0  0  0  0  0  0  0  0  0
  -48.0867   66.7176  -20.9428 C   0  0  0  0  0  0  0  0  0  0  0  0
  -48.1481   67.4298  -22.2835 C   0  0  0  0  0  0  0  0  0  0  0  0
  -46.9635   67.3174  -23.2561 C   0  0  0  0  0  0  0  0  0  0  0  0
  -45.7310   67.7623  -22.8235 N   0  0  0  0  0  0  0  0  0  0  0  0
  1  2  1  0  0  0  0
  1  3  1  0  0  0  0
  1  4  1  0  0  0  0
  3  5  1  0  0  0  0
  5  6  1  0  0  0  0
  6  7  1  0  0  0  0
  7  8  1  0  0  0  0
  8  9  1  0  0  0  0
M  END
>  <CHROM.1>
84.06390873,-65.00563703,-65.90644939,-172.06918348,-59.41293620,-48.26482856
67.88692063,-20.43880321,-2.14823087,-0.58893543,-2.18250706

>  <Name>
ligand

>  <RI>
0

>  <Rbt.Current_Directory>
/home/itssahil/PROJECTS/Mol_Feturizer/Test_systems_manuscript/rnas/4erj

>  <Rbt.Executable>
rbdock ($Id: //depot/dev/client3/rdock/2013.1/src/exe/rbdock.cxx#4 $)

>  <Rbt.Library>
libRbt.so (2013.1, Build901 2013/11/27)

>  <Rbt.Parameter_File>
/export/apps/rDock/src/rDock_2013.1_src/data/scripts/dock_solv.prm

>  <Rbt.Receptor>
prm/pocket_docking_5.prm

>  <SCORE>
-12.2305

>  <SCORE.INTER>
-9.45528

>  <SCORE.INTER.CONST>
1

>  <SCORE.INTER.POLAR>
0

>  <SCORE.INTER.ROT>
5

>  <SCORE.INTER.SOLV>
8.14345

>  <SCORE.INTER.VDW>
-15.9513

>  <SCORE.INTER.norm>
-1.05059

>  <SCORE.INTRA>
-2.77526

>  <SCORE.INTRA.DIHEDRAL>
-5.45256

>  <SCORE.INTRA.DIHEDRAL.0>
7.73744

>  <SCORE.INTRA.POLAR>
0

>  <SCORE.INTRA.POLAR.0>
0

>  <SCORE.INTRA.REPUL>
0

>  <SCORE.INTRA.REPUL.0>
0

>  <SCORE.INTRA.SOLV>
0.499196

>  <SCORE.INTRA.SOLV.lig_0>
-15.8342

>  <SCORE.INTRA.VDW>
-0.298581

>  <SCORE.INTRA.VDW.0>
-0.219494

>  <SCORE.INTRA.norm>
-0.308362

>  <SCORE.RESTR>
0

>  <SCORE.RESTR.CAVITY>
0

>  <SCORE.RESTR.norm>
0

>  <SCORE.SYSTEM>
0

>  <SCORE.SYSTEM.CONST>
0

>  <SCORE.SYSTEM.DIHEDRAL>
0

>  <SCORE.SYSTEM.SOLV>
0

>  <SCORE.SYSTEM.norm>
0

>  <SCORE.heavy>
9

>  <SCORE.norm>
-1.35895

>  <RMSD>
5.293

$$$$
ligand
 OpenBabel02271912143D
libRbt.so/2013.1/901 2013/11/27
  9  8  0  0  0  0  0  0  0  0999 V2000
  -51.0420   70.4963  -20.1019 C   0  0  0  0  0  0  0  0  0  0  0  0
  -50.9396   71.7549  -20.3373 O   0  0  0  0  0  0  0  0  0  0  0  0
  -49.8411   69.7037  -19.8086 C   0  0  0  0  0  0  0  0  0  0  0  0
  -52.1658   69.8985  -20.1593 O   0  0  0  0  0  0  0  0  0  0  0  0
  -49.9591   68.7666  -18.6487 C   0  0  0  0  0  0  0  0  0  0  0  0
  -48.8756   67.7727  -18.4457 C   0  0  0  0  0  0  0  0  0  0  0  0
  -48.8660   66.6344  -19.4521 C   0  0  0  0  0  0  0  0  0  0  0  0
  -48.6530   66.9427  -20.9426 C   0  0  0  0  0  0  0  0  0  0  0  0
  -47.4729   67.5558  -21.3108 N   0  0  0  0  0  0  0  0  0  0  0  0
  1  2  1  0  0  0  0
  1  3  1  0  0  0  0
  1  4  1  0  0  0  0
  3  5  1  0  0  0  0
  5  6  1  0  0  0  0
  6  7  1  0  0  0  0
  7  8  1  0  0  0  0
  8  9  1  0  0  0  0
M  END
>  <CHROM.1>
134.44920164,169.53143814,-72.68135604,62.06768598,60.34818031,-49.79268097
68.87155675,-19.91903751,-2.67147726,-0.79677119,2.19899345

>  <Name>
ligand

>  <RI>
0

>  <Rbt.Current_Directory>
/home/itssahil/PROJECTS/Mol_Feturizer/Test_systems_manuscript/rnas/4erj

>  <Rbt.Executable>
rbdock ($Id: //depot/dev/client3/rdock/2013.1/src/exe/rbdock.cxx#4 $)

>  <Rbt.Library>
libRbt.so (2013.1, Build901 2013/11/27)

>  <Rbt.Parameter_File>
/export/apps/rDock/src/rDock_2013.1_src/data/scripts/dock_solv.prm

>  <Rbt.Receptor>
prm/blind_docking_100.prm

>  <SCORE>
-14.5024

>  <SCORE.INTER>
-13.2663

>  <SCORE.INTER.CONST>
1

>  <SCORE.INTER.POLAR>
0

>  <SCORE.INTER.ROT>
5

>  <SCORE.INTER.SOLV>
6.96769

>  <SCORE.INTER.VDW>
-18.1001

>  <SCORE.INTER.norm>
-1.47404

>  <SCORE.INTRA>
-1.2361

>  <SCORE.INTRA.DIHEDRAL>
-5.00524

>  <SCORE.INTRA.DIHEDRAL.0>
7.73744

>  <SCORE.INTRA.POLAR>
0

>  <SCORE.INTRA.POLAR.0>
0

>  <SCORE.INTRA.REPUL>
0

>  <SCORE.INTRA.REPUL.0>
0

>  <SCORE.INTRA.SOLV>
1.89857

>  <SCORE.INTRA.SOLV.lig_0>
-15.8342

>  <SCORE.INTRA.VDW>
0.317238

>  <SCORE.INTRA.VDW.0>
-0.219494

>  <SCORE.INTRA.norm>
-0.137344

>  <SCORE.RESTR>
0

>  <SCORE.RESTR.CAVITY>
0

>  <SCORE.RESTR.norm>
0

>  <SCORE.SYSTEM>
0

>  <SCORE.SYSTEM.CONST>
0

>  <SCORE.SYSTEM.DIHEDRAL>
0

>  <SCORE.SYSTEM.SOLV>
0

>  <SCORE.SYSTEM.norm>
0

>  <SCORE.heavy>
9

>  <SCORE.norm>
-1.61138

>  <RMSD>
5.295

$$$$
ligand
 OpenBabel02271912143D
libRbt.so/2013.1/901 2013/11/27
  9  8  0  0  0  0  0  0  0  0999 V2000
  -50.1721   69.4668  -18.9869 C   0  0  0  0  0  0  0  0  0  0  0  0
  -49.7804   70.1686  -19.9889 O   0  0  0  0  0  0  0  0  0  0  0  0
  -49.2220   68.5946  -18.2847 C   0  0  0  0  0  0  0  0  0  0  0  0
  -51.3881   69.4720  -18.6063 O   0  0  0  0  0  0  0  0  0  0  0  0
  -49.2662   67.1517  -18.6765 C   0  0  0  0  0  0  0  0  0  0  0  0
  -49.0564   66.8134  -20.1064 C   0  0  0  0  0  0  0  0  0  0  0  0
  -47.6514   67.0811  -20.6191 C   0  0  0  0  0  0  0  0  0  0  0  0
  -47.3550   66.9491  -22.1212 C   0  0  0  0  0  0  0  0  0  0  0  0
  -47.9171   67.8785  -22.9724 N   0  0  0  0  0  0  0  0  0  0  0  0
  1  2  1  0  0  0  0
  1  3  1  0  0  0  0
  1  4  1  0  0  0  0
  3  5  1  0  0  0  0
  5  6  1  0  0  0  0
  6  7  1  0  0  0  0
  7  8  1  0  0  0  0
  8  9  1  0  0  0  0
M  END
>  <CHROM.1>
-98.62608618,57.03506801,67.82203502,-171.98466184,68.67464983,-49.11903339
68.20546290,-20.03351061,2.88283582,-0.92668778,2.23813075

>  <Name>
ligand

>  <RI>
0

>  <Rbt.Current_Directory>
/home/itssahil/PROJECTS/Mol_Feturizer/Test_systems_manuscript/rnas/4erj

>  <Rbt.Executable>
rbdock ($Id: //depot/dev/client3/rdock/2013.1/src/exe/rbdock.cxx#4 $)

>  <Rbt.Library>
libRbt.so (2013.1, Build901 2013/11/27)

>  <Rbt.Parameter_File>
/export/apps/rDock/src/rDock_2013.1_src/data/scripts/dock_solv.prm

>  <Rbt.Receptor>
prm/pocket_docking_3.prm

>  <SCORE>
-14.303

>  <SCORE.INTER>
-11.499

>  <SCORE.INTER.CONST>
1

>  <SCORE.INTER.POLAR>
0

>  <SCORE.INTER.ROT>
5

>  <SCORE.INTER.SOLV>
8.13054

>  <SCORE.INTER.VDW>
-17.3095

>  <SCORE.INTER.norm>
-1.27766

>  <SCORE.INTRA>
-2.80408

>  <SCORE.INTRA.DIHEDRAL>
-5.30997

>  <SCORE.INTRA.DIHEDRAL.0>
7.73744

>  <SCORE.INTRA.POLAR>
0

>  <SCORE.INTRA.POLAR.0>
0

>  <SCORE.INTRA.REPUL>
0

>  <SCORE.INTRA.REPUL.0>
0

>  <SCORE.INTRA.SOLV>
0.469718

>  <SCORE.INTRA.SOLV.lig_0>
-15.8342

>  <SCORE.INTRA.VDW>
-0.383949

>  <SCORE.INTRA.VDW.0>
-0.219494

>  <SCORE.INTRA.norm>
-0.311564

>  <SCORE.RESTR>
0

>  <SCORE.RESTR.CAVITY>
0

>  <SCORE.RESTR.norm>
0

>  <SCORE.SYSTEM>
0

>  <SCORE.SYSTEM.CONST>
0

>  <SCORE.SYSTEM.DIHEDRAL>
0

>  <SCORE.SYSTEM.SOLV>
0

>  <SCORE.SYSTEM.norm>
0

>  <SCORE.heavy>
9

>  <SCORE.norm>
-1.58923

>  <RMSD>
5.295

$$$$
ligand
 OpenBabel02271912143D
libRbt.so/2013.1/901 2013/11/27
  9  8  0  0  0  0  0  0  0  0999 V2000
  -49.2597   67.2304  -18.4607 C   0  0  0  0  0  0  0  0  0  0  0  0
  -48.5611   66.4010  -19.1492 O   0  0  0  0  0  0  0  0  0  0  0  0
  -49.8460   68.4111  -19.1076 C   0  0  0  0  0  0  0  0  0  0  0  0
  -49.4247   67.0798  -17.2063 O   0  0  0  0  0  0  0  0  0  0  0  0
  -48.8751   69.4859  -19.4811 C   0  0  0  0  0  0  0  0  0  0  0  0
  -47.8238   69.1573  -20.4760 C   0  0  0  0  0  0  0  0  0  0  0  0
  -48.3491   68.8134  -21.8596 C   0  0  0  0  0  0  0  0  0  0  0  0
  -47.3565   68.5376  -23.0000 C   0  0  0  0  0  0  0  0  0  0  0  0
  -46.4649   67.4967  -22.8395 N   0  0  0  0  0  0  0  0  0  0  0  0
  1  2  1  0  0  0  0
  1  3  1  0  0  0  0
  1  4  1  0  0  0  0
  3  5  1  0  0  0  0
  5  6  1  0  0  0  0
  6  7  1  0  0  0  0
  7  8  1  0  0  0  0
  8  9  1  0  0  0  0
M  END
>  <CHROM.1>
-72.34420869,62.69962671,63.85713619,176.32814788,59.68033269,-48.44453745
68.04050116,-20.14059826,-2.46499956,1.00490721,-0.54893565

>  <Name>
ligand

>  <RI>
0

>  <Rbt.Current_Directory>
/home/itssahil/PROJECTS/Mol_Feturizer/Test_systems_manuscript/rnas/4erj

>  <Rbt.Executable>
rbdock ($Id: //depot/dev/client3/rdock/2013.1/src/exe/rbdock.cxx#4 $)

>  <Rbt.Library>
libRbt.so (2013.1, Build901 2013/11/27)

>  <Rbt.Parameter_File>
/export/apps/rDock/src/rDock_2013.1_src/data/scripts/dock_solv.prm

>  <Rbt.Receptor>
prm/blind_docking_100.prm

>  <SCORE>
-13.1632

>  <SCORE.INTER>
-10.2002

>  <SCORE.INTER.CONST>
1

>  <SCORE.INTER.POLAR>
0

>  <SCORE.INTER.ROT>
5

>  <SCORE.INTER.SOLV>
6.65927

>  <SCORE.INTER.VDW>
-15.9532

>  <SCORE.INTER.norm>
-1.13335

>  <SCORE.INTRA>
-2.963

>  <SCORE.INTRA.DIHEDRAL>
-5.97331

>  <SCORE.INTRA.DIHEDRAL.0>
7.73744

>  <SCORE.INTRA.POLAR>
0

>  <SCORE.INTRA.POLAR.0>
0

>  <SCORE.INTRA.REPUL>
0

>  <SCORE.INTRA.REPUL.0>
0

>  <SCORE.INTRA.SOLV>
0.508184

>  <SCORE.INTRA.SOLV.lig_0>
-15.8342

>  <SCORE.INTRA.VDW>
-0.23044

>  <SCORE.INTRA.VDW.0>
-0.219494

>  <SCORE.INTRA.norm>
-0.329223

>  <SCORE.RESTR>
0

>  <SCORE.RESTR.CAVITY>
0

>  <SCORE.RESTR.norm>
0

>  <SCORE.SYSTEM>
0

>  <SCORE.SYSTEM.CONST>
0

>  <SCORE.SYSTEM.DIHEDRAL>
0

>  <SCORE.SYSTEM.SOLV>
0

>  <SCORE.SYSTEM.norm>
0

>  <SCORE.heavy>
9

>  <SCORE.norm>
-1.46258

>  <RMSD>
5.296

$$$$
ligand
 OpenBabel02271912143D
libRbt.so/2013.1/901 2013/11/27
  9  8  0  0  0  0  0  0  0  0999 V2000
  -49.0544   68.2589  -18.6476 C   0  0  0  0  0  0  0  0  0  0  0  0
  -49.3026   68.0177  -17.4106 O   0  0  0  0  0  0  0  0  0  0  0  0
  -49.4931   67.3142  -19.6826 C   0  0  0  0  0  0  0  0  0  0  0  0
  -48.3912   69.2867  -19.0045 O   0  0  0  0  0  0  0  0  0  0  0  0
  -48.3949   66.6342  -20.4369 C   0  0  0  0  0  0  0  0  0  0  0  0
  -47.5941   67.4498  -21.3838 C   0  0  0  0  0  0  0  0  0  0  0  0
  -48.3752   67.9877  -22.5709 C   0  0  0  0  0  0  0  0  0  0  0  0
  -47.6706   68.8914  -23.5949 C   0  0  0  0  0  0  0  0  0  0  0  0
  -46.5888   68.3712  -24.2756 N   0  0  0  0  0  0  0  0  0  0  0  0
  1  2  1  0  0  0  0
  1  3  1  0  0  0  0
  1  4  1  0  0  0  0
  3  5  1  0  0  0  0
  5  6  1  0  0  0  0
  6  7  1  0  0  0  0
  7  8  1  0  0  0  0
  8  9  1  0  0  0  0
M  END
>  <CHROM.1>
-114.76338388,-70.57181343,-65.06198252,177.68416530,60.32045378,-48.32327747
68.03913676,-20.73241542,-2.58369113,-1.18172703,-2.50312077

>  <Name>
ligand

>  <RI>
0

>  <Rbt.Current_Directory>
/home/itssahil/PROJECTS/Mol_Feturizer/Test_systems_manuscript/rnas/4erj

>  <Rbt.Executable>
rbdock ($Id: //depot/dev/client3/rdock/2013.1/src/exe/rbdock.cxx#4 $)

>  <Rbt.Library>
libRbt.so (2013.1, Build901 2013/11/27)

>  <Rbt.Parameter_File>
/export/apps/rDock/src/rDock_2013.1_src/data/scripts/dock_solv.prm

>  <Rbt.Receptor>
prm/pocket_docking_4.prm

>  <SCORE>
-12.4976

>  <SCORE.INTER>
-9.87735

>  <SCORE.INTER.CONST>
1

>  <SCORE.INTER.POLAR>
0

>  <SCORE.INTER.ROT>
5

>  <SCORE.INTER.SOLV>
7.34856

>  <SCORE.INTER.VDW>
-15.9678

>  <SCORE.INTER.norm>
-1.09748

>  <SCORE.INTRA>
-2.6203

>  <SCORE.INTRA.DIHEDRAL>
-5.49218

>  <SCORE.INTRA.DIHEDRAL.0>
7.73744

>  <SCORE.INTRA.POLAR>
0

>  <SCORE.INTRA.POLAR.0>
0

>  <SCORE.INTRA.REPUL>
0

>  <SCORE.INTRA.REPUL.0>
0

>  <SCORE.INTRA.SOLV>
0.508237

>  <SCORE.INTRA.SOLV.lig_0>
-15.8342

>  <SCORE.INTRA.VDW>
-0.128324

>  <SCORE.INTRA.VDW.0>
-0.219494

>  <SCORE.INTRA.norm>
-0.291144

>  <SCORE.RESTR>
0

>  <SCORE.RESTR.CAVITY>
0

>  <SCORE.RESTR.norm>
0

>  <SCORE.SYSTEM>
0

>  <SCORE.SYSTEM.CONST>
0

>  <SCORE.SYSTEM.DIHEDRAL>
0

>  <SCORE.SYSTEM.SOLV>
0

>  <SCORE.SYSTEM.norm>
0

>  <SCORE.heavy>
9

>  <SCORE.norm>
-1.38863

>  <RMSD>
5.297

$$$$
ligand
 OpenBabel02271912143D
libRbt.so/2013.1/901 2013/11/27
  9  8  0  0  0  0  0  0  0  0999 V2000
  -50.2406   69.4535  -19.0319 C   0  0  0  0  0  0  0  0  0  0  0  0
  -51.4465   69.4970  -18.5917 O   0  0  0  0  0  0  0  0  0  0  0  0
  -49.2342   68.6396  -18.3382 C   0  0  0  0  0  0  0  0  0  0  0  0
  -49.8762   70.1400  -20.0416 O   0  0  0  0  0  0  0  0  0  0  0  0
  -49.2313   67.1860  -18.6909 C   0  0  0  0  0  0  0  0  0  0  0  0
  -49.0377   66.8172  -20.1155 C   0  0  0  0  0  0  0  0  0  0  0  0
  -47.6486   67.1060  -20.6594 C   0  0  0  0  0  0  0  0  0  0  0  0
  -47.3797   66.9624  -22.1656 C   0  0  0  0  0  0  0  0  0  0  0  0
  -47.9860   67.8639  -23.0165 N   0  0  0  0  0  0  0  0  0  0  0  0
  1  2  1  0  0  0  0
  1  3  1  0  0  0  0
  1  4  1  0  0  0  0
  3  5  1  0  0  0  0
  5  6  1  0  0  0  0
  6  7  1  0  0  0  0
  7  8  1  0  0  0  0
  8  9  1  0  0  0  0
M  END
>  <CHROM.1>
82.74112122,57.67971426,68.61860294,-171.14408346,68.12751904,-49.15009757
68.21547483,-20.06500823,2.83038183,-0.91091827,2.16845106

>  <Name>
ligand

>  <RI>
0

>  <Rbt.Current_Directory>
/home/itssahil/PROJECTS/Mol_Feturizer/Test_systems_manuscript/rnas/4erj

>  <Rbt.Executable>
rbdock ($Id: //depot/dev/client3/rdock/2013.1/src/exe/rbdock.cxx#4 $)

>  <Rbt.Library>
libRbt.so (2013.1, Build901 2013/11/27)

>  <Rbt.Parameter_File>
/export/apps/rDock/src/rDock_2013.1_src/data/scripts/dock_solv.prm

>  <Rbt.Receptor>
prm/pocket_docking_3.prm

>  <SCORE>
-14.2504

>  <SCORE.INTER>
-11.5405

>  <SCORE.INTER.CONST>
1

>  <SCORE.INTER.POLAR>
0

>  <SCORE.INTER.ROT>
5

>  <SCORE.INTER.SOLV>
8.30949

>  <SCORE.INTER.VDW>
-17.3968

>  <SCORE.INTER.norm>
-1.28227

>  <SCORE.INTRA>
-2.70998

>  <SCORE.INTRA.DIHEDRAL>
-5.06818

>  <SCORE.INTRA.DIHEDRAL.0>
7.73744

>  <SCORE.INTRA.POLAR>
0

>  <SCORE.INTRA.POLAR.0>
0

>  <SCORE.INTRA.REPUL>
0

>  <SCORE.INTRA.REPUL.0>
0

>  <SCORE.INTRA.SOLV>
0.480362

>  <SCORE.INTRA.SOLV.lig_0>
-15.8342

>  <SCORE.INTRA.VDW>
-0.416072

>  <SCORE.INTRA.VDW.0>
-0.219494

>  <SCORE.INTRA.norm>
-0.301109

>  <SCORE.RESTR>
0

>  <SCORE.RESTR.CAVITY>
0

>  <SCORE.RESTR.norm>
0

>  <SCORE.SYSTEM>
0

>  <SCORE.SYSTEM.CONST>
0

>  <SCORE.SYSTEM.DIHEDRAL>
0

>  <SCORE.SYSTEM.SOLV>
0

>  <SCORE.SYSTEM.norm>
0

>  <SCORE.heavy>
9

>  <SCORE.norm>
-1.58338

>  <RMSD>
5.300

$$$$
ligand
 OpenBabel02271912143D
libRbt.so/2013.1/901 2013/11/27
  9  8  0  0  0  0  0  0  0  0999 V2000
  -50.0876   69.3970  -18.9176 C   0  0  0  0  0  0  0  0  0  0  0  0
  -51.3711   69.4473  -18.9154 O   0  0  0  0  0  0  0  0  0  0  0  0
  -49.3831   68.5683  -17.9310 C   0  0  0  0  0  0  0  0  0  0  0  0
  -49.3965   70.0889  -19.7345 O   0  0  0  0  0  0  0  0  0  0  0  0
  -49.2720   67.1169  -18.2753 C   0  0  0  0  0  0  0  0  0  0  0  0
  -48.3436   66.7311  -19.3673 C   0  0  0  0  0  0  0  0  0  0  0  0
  -48.7930   67.1522  -20.7563 C   0  0  0  0  0  0  0  0  0  0  0  0
  -47.8864   66.8683  -21.9644 C   0  0  0  0  0  0  0  0  0  0  0  0
  -46.6372   67.4541  -21.9834 N   0  0  0  0  0  0  0  0  0  0  0  0
  1  2  1  0  0  0  0
  1  3  1  0  0  0  0
  1  4  1  0  0  0  0
  3  5  1  0  0  0  0
  5  6  1  0  0  0  0
  6  7  1  0  0  0  0
  7  8  1  0  0  0  0
  8  9  1  0  0  0  0
M  END
>  <CHROM.1>
82.53259913,71.88961513,-69.99588324,177.18947080,-61.48189484,-49.04451905
68.12273930,-19.76007364,3.03352814,-0.89915926,2.34802094

>  <Name>
ligand

>  <RI>
0

>  <Rbt.Current_Directory>
/home/itssahil/PROJECTS/Mol_Feturizer/Test_systems_manuscript/rnas/4erj

>  <Rbt.Executable>
rbdock ($Id: //depot/dev/client3/rdock/2013.1/src/exe/rbdock.cxx#4 $)

>  <Rbt.Library>
libRbt.so (2013.1, Build901 2013/11/27)

>  <Rbt.Parameter_File>
/export/apps/rDock/src/rDock_2013.1_src/data/scripts/dock_solv.prm

>  <Rbt.Receptor>
prm/pocket_docking_5.prm

>  <SCORE>
-14.6247

>  <SCORE.INTER>
-11.9404

>  <SCORE.INTER.CONST>
1

>  <SCORE.INTER.POLAR>
0

>  <SCORE.INTER.ROT>
5

>  <SCORE.INTER.SOLV>
7.90195

>  <SCORE.INTER.VDW>
-17.5276

>  <SCORE.INTER.norm>
-1.32672

>  <SCORE.INTRA>
-2.68424

>  <SCORE.INTRA.DIHEDRAL>
-4.94175

>  <SCORE.INTRA.DIHEDRAL.0>
7.73744

>  <SCORE.INTRA.POLAR>
0

>  <SCORE.INTRA.POLAR.0>
0

>  <SCORE.INTRA.REPUL>
0

>  <SCORE.INTRA.REPUL.0>
0

>  <SCORE.INTRA.SOLV>
0.513279

>  <SCORE.INTRA.SOLV.lig_0>
-15.8342

>  <SCORE.INTRA.VDW>
-0.470006

>  <SCORE.INTRA.VDW.0>
-0.219494

>  <SCORE.INTRA.norm>
-0.298249

>  <SCORE.RESTR>
0

>  <SCORE.RESTR.CAVITY>
0

>  <SCORE.RESTR.norm>
0

>  <SCORE.SYSTEM>
0

>  <SCORE.SYSTEM.CONST>
0

>  <SCORE.SYSTEM.DIHEDRAL>
0

>  <SCORE.SYSTEM.SOLV>
0

>  <SCORE.SYSTEM.norm>
0

>  <SCORE.heavy>
9

>  <SCORE.norm>
-1.62497

>  <RMSD>
5.302

$$$$
ligand
 OpenBabel02271912143D
libRbt.so/2013.1/901 2013/11/27
  9  8  0  0  0  0  0  0  0  0999 V2000
  -50.4340   69.4327  -19.4015 C   0  0  0  0  0  0  0  0  0  0  0  0
  -50.6632   69.8652  -20.5891 O   0  0  0  0  0  0  0  0  0  0  0  0
  -49.0902   68.9671  -19.0358 C   0  0  0  0  0  0  0  0  0  0  0  0
  -51.3622   69.3536  -18.5321 O   0  0  0  0  0  0  0  0  0  0  0  0
  -48.9203   67.4822  -18.9762 C   0  0  0  0  0  0  0  0  0  0  0  0
  -49.2655   66.6944  -20.1859 C   0  0  0  0  0  0  0  0  0  0  0  0
  -48.5317   67.1192  -21.4467 C   0  0  0  0  0  0  0  0  0  0  0  0
  -47.0012   66.9964  -21.5104 C   0  0  0  0  0  0  0  0  0  0  0  0
  -46.3636   67.4726  -22.6378 N   0  0  0  0  0  0  0  0  0  0  0  0
  1  2  1  0  0  0  0
  1  3  1  0  0  0  0
  1  4  1  0  0  0  0
  3  5  1  0  0  0  0
  5  6  1  0  0  0  0
  6  7  1  0  0  0  0
  7  8  1  0  0  0  0
  8  9  1  0  0  0  0
M  END
>  <CHROM.1>
-103.07609693,55.85674671,55.93209322,62.91178989,-175.88258415,-49.10899420
68.17854437,-20.24890867,3.02524019,-0.76489214,2.28442275

>  <Name>
ligand

>  <RI>
0

>  <Rbt.Current_Directory>
/home/itssahil/PROJECTS/Mol_Feturizer/Test_systems_manuscript/rnas/4erj

>  <Rbt.Executable>
rbdock ($Id: //depot/dev/client3/rdock/2013.1/src/exe/rbdock.cxx#4 $)

>  <Rbt.Library>
libRbt.so (2013.1, Build901 2013/11/27)

>  <Rbt.Parameter_File>
/export/apps/rDock/src/rDock_2013.1_src/data/scripts/dock_solv.prm

>  <Rbt.Receptor>
prm/pocket_docking_6.prm

>  <SCORE>
-13.5991

>  <SCORE.INTER>
-10.8898

>  <SCORE.INTER.CONST>
1

>  <SCORE.INTER.POLAR>
0

>  <SCORE.INTER.ROT>
5

>  <SCORE.INTER.SOLV>
7.08343

>  <SCORE.INTER.VDW>
-16.5543

>  <SCORE.INTER.norm>
-1.20997

>  <SCORE.INTRA>
-2.70931

>  <SCORE.INTRA.DIHEDRAL>
-5.89122

>  <SCORE.INTRA.DIHEDRAL.0>
7.73744

>  <SCORE.INTRA.POLAR>
0

>  <SCORE.INTRA.POLAR.0>
0

>  <SCORE.INTRA.REPUL>
0

>  <SCORE.INTRA.REPUL.0>
0

>  <SCORE.INTRA.SOLV>
0.0476116

>  <SCORE.INTRA.SOLV.lig_0>
-15.8342

>  <SCORE.INTRA.VDW>
0.212499

>  <SCORE.INTRA.VDW.0>
-0.219494

>  <SCORE.INTRA.norm>
-0.301034

>  <SCORE.RESTR>
0

>  <SCORE.RESTR.CAVITY>
0

>  <SCORE.RESTR.norm>
0

>  <SCORE.SYSTEM>
0

>  <SCORE.SYSTEM.CONST>
0

>  <SCORE.SYSTEM.DIHEDRAL>
0

>  <SCORE.SYSTEM.SOLV>
0

>  <SCORE.SYSTEM.norm>
0

>  <SCORE.heavy>
9

>  <SCORE.norm>
-1.51101

>  <RMSD>
5.302

$$$$
ligand
 OpenBabel02271912143D
libRbt.so/2013.1/901 2013/11/27
  9  8  0  0  0  0  0  0  0  0999 V2000
  -50.4318   69.4182  -19.4112 C   0  0  0  0  0  0  0  0  0  0  0  0
  -50.6539   69.8538  -20.5990 O   0  0  0  0  0  0  0  0  0  0  0  0
  -49.0864   68.9666  -19.0339 C   0  0  0  0  0  0  0  0  0  0  0  0
  -51.3677   69.3242  -18.5517 O   0  0  0  0  0  0  0  0  0  0  0  0
  -48.8906   67.4838  -19.0120 C   0  0  0  0  0  0  0  0  0  0  0  0
  -49.2304   66.7200  -20.2385 C   0  0  0  0  0  0  0  0  0  0  0  0
  -48.4942   67.1724  -21.4883 C   0  0  0  0  0  0  0  0  0  0  0  0
  -46.9642   67.0440  -21.5548 C   0  0  0  0  0  0  0  0  0  0  0  0
  -46.3320   67.4689  -22.7054 N   0  0  0  0  0  0  0  0  0  0  0  0
  1  2  1  0  0  0  0
  1  3  1  0  0  0  0
  1  4  1  0  0  0  0
  3  5  1  0  0  0  0
  5  6  1  0  0  0  0
  6  7  1  0  0  0  0
  7  8  1  0  0  0  0
  8  9  1  0  0  0  0
M  END
>  <CHROM.1>
-101.64895535,54.44154572,56.95587943,63.42054350,-179.83638095,-49.08921254
68.18562037,-20.27976105,2.99086419,-0.75632693,2.25369467

>  <Name>
ligand

>  <RI>
0

>  <Rbt.Current_Directory>
/home/itssahil/PROJECTS/Mol_Feturizer/Test_systems_manuscript/rnas/4erj

>  <Rbt.Executable>
rbdock ($Id: //depot/dev/client3/rdock/2013.1/src/exe/rbdock.cxx#4 $)

>  <Rbt.Library>
libRbt.so (2013.1, Build901 2013/11/27)

>  <Rbt.Parameter_File>
/export/apps/rDock/src/rDock_2013.1_src/data/scripts/dock_solv.prm

>  <Rbt.Receptor>
prm/pocket_docking_7.prm

>  <SCORE>
-13.6177

>  <SCORE.INTER>
-10.859

>  <SCORE.INTER.CONST>
1

>  <SCORE.INTER.POLAR>
0

>  <SCORE.INTER.ROT>
5

>  <SCORE.INTER.SOLV>
7.0131

>  <SCORE.INTER.VDW>
-16.5104

>  <SCORE.INTER.norm>
-1.20656

>  <SCORE.INTRA>
-2.75868

>  <SCORE.INTRA.DIHEDRAL>
-5.91985

>  <SCORE.INTRA.DIHEDRAL.0>
7.73744

>  <SCORE.INTRA.POLAR>
0

>  <SCORE.INTRA.POLAR.0>
0

>  <SCORE.INTRA.REPUL>
0

>  <SCORE.INTRA.REPUL.0>
0

>  <SCORE.INTRA.SOLV>
0.0260401

>  <SCORE.INTRA.SOLV.lig_0>
-15.8342

>  <SCORE.INTRA.VDW>
0.188226

>  <SCORE.INTRA.VDW.0>
-0.219494

>  <SCORE.INTRA.norm>
-0.30652

>  <SCORE.RESTR>
0

>  <SCORE.RESTR.CAVITY>
0

>  <SCORE.RESTR.norm>
0

>  <SCORE.SYSTEM>
0

>  <SCORE.SYSTEM.CONST>
0

>  <SCORE.SYSTEM.DIHEDRAL>
0

>  <SCORE.SYSTEM.SOLV>
0

>  <SCORE.SYSTEM.norm>
0

>  <SCORE.heavy>
9

>  <SCORE.norm>
-1.51308

>  <RMSD>
5.303

$$$$
ligand
 OpenBabel02271912143D
libRbt.so/2013.1/901 2013/11/27
  9  8  0  0  0  0  0  0  0  0999 V2000
  -50.2393   69.4142  -18.9957 C   0  0  0  0  0  0  0  0  0  0  0  0
  -49.8715   70.1177  -20.0055 O   0  0  0  0  0  0  0  0  0  0  0  0
  -49.2644   68.5682  -18.2956 C   0  0  0  0  0  0  0  0  0  0  0  0
  -51.4520   69.3951  -18.6050 O   0  0  0  0  0  0  0  0  0  0  0  0
  -49.2651   67.1261  -18.6926 C   0  0  0  0  0  0  0  0  0  0  0  0
  -49.0426   66.7993  -20.1233 C   0  0  0  0  0  0  0  0  0  0  0  0
  -47.6472   67.1168  -20.6339 C   0  0  0  0  0  0  0  0  0  0  0  0
  -47.3417   66.9867  -22.1344 C   0  0  0  0  0  0  0  0  0  0  0  0
  -47.9220   67.8998  -22.9910 N   0  0  0  0  0  0  0  0  0  0  0  0
  1  2  1  0  0  0  0
  1  3  1  0  0  0  0
  1  4  1  0  0  0  0
  3  5  1  0  0  0  0
  5  6  1  0  0  0  0
  6  7  1  0  0  0  0
  7  8  1  0  0  0  0
  8  9  1  0  0  0  0
M  END
>  <CHROM.1>
-97.72022581,57.09397075,67.52930306,-172.55279288,69.51552905,-49.14631147
68.18771172,-20.04613728,2.85144446,-0.90190847,2.21595396

>  <Name>
ligand

>  <RI>
0

>  <Rbt.Current_Directory>
/home/itssahil/PROJECTS/Mol_Feturizer/Test_systems_manuscript/rnas/4erj

>  <Rbt.Executable>
rbdock ($Id: //depot/dev/client3/rdock/2013.1/src/exe/rbdock.cxx#4 $)

>  <Rbt.Library>
libRbt.so (2013.1, Build901 2013/11/27)

>  <Rbt.Parameter_File>
/export/apps/rDock/src/rDock_2013.1_src/data/scripts/dock_solv.prm

>  <Rbt.Receptor>
prm/pocket_docking_3.prm

>  <SCORE>
-14.3564

>  <SCORE.INTER>
-11.5468

>  <SCORE.INTER.CONST>
1

>  <SCORE.INTER.POLAR>
0

>  <SCORE.INTER.ROT>
5

>  <SCORE.INTER.SOLV>
8.11879

>  <SCORE.INTER.VDW>
-17.3374

>  <SCORE.INTER.norm>
-1.28297

>  <SCORE.INTRA>
-2.80964

>  <SCORE.INTRA.DIHEDRAL>
-5.31215

>  <SCORE.INTRA.DIHEDRAL.0>
7.73744

>  <SCORE.INTRA.POLAR>
0

>  <SCORE.INTRA.POLAR.0>
0

>  <SCORE.INTRA.REPUL>
0

>  <SCORE.INTRA.REPUL.0>
0

>  <SCORE.INTRA.SOLV>
0.458003

>  <SCORE.INTRA.SOLV.lig_0>
-15.8342

>  <SCORE.INTRA.VDW>
-0.382566

>  <SCORE.INTRA.VDW.0>
-0.219494

>  <SCORE.INTRA.norm>
-0.312182

>  <SCORE.RESTR>
0

>  <SCORE.RESTR.CAVITY>
0

>  <SCORE.RESTR.norm>
0

>  <SCORE.SYSTEM>
0

>  <SCORE.SYSTEM.CONST>
0

>  <SCORE.SYSTEM.DIHEDRAL>
0

>  <SCORE.SYSTEM.SOLV>
0

>  <SCORE.SYSTEM.norm>
0

>  <SCORE.heavy>
9

>  <SCORE.norm>
-1.59516

>  <RMSD>
5.306

$$$$
ligand
 OpenBabel02271912143D
libRbt.so/2013.1/901 2013/11/27
  9  8  0  0  0  0  0  0  0  0999 V2000
  -48.8303   68.1294  -18.4200 C   0  0  0  0  0  0  0  0  0  0  0  0
  -48.1967   69.1141  -18.9479 O   0  0  0  0  0  0  0  0  0  0  0  0
  -48.7127   66.7850  -18.9990 C   0  0  0  0  0  0  0  0  0  0  0  0
  -49.6032   68.2952  -17.4206 O   0  0  0  0  0  0  0  0  0  0  0  0
  -49.2170   66.6443  -20.4002 C   0  0  0  0  0  0  0  0  0  0  0  0
  -48.5437   67.4315  -21.4632 C   0  0  0  0  0  0  0  0  0  0  0  0
  -47.0808   67.0813  -21.6777 C   0  0  0  0  0  0  0  0  0  0  0  0
  -46.2207   67.9546  -22.6047 C   0  0  0  0  0  0  0  0  0  0  0  0
  -46.6333   68.1050  -23.9129 N   0  0  0  0  0  0  0  0  0  0  0  0
  1  2  1  0  0  0  0
  1  3  1  0  0  0  0
  1  4  1  0  0  0  0
  3  5  1  0  0  0  0
  5  6  1  0  0  0  0
  6  7  1  0  0  0  0
  7  8  1  0  0  0  0
  8  9  1  0  0  0  0
M  END
>  <CHROM.1>
-62.51797034,62.60230434,62.98168529,-171.37671661,-57.88694960,-48.12852853
67.75043986,-20.38932832,-2.33788057,-0.87605541,-2.26810155

>  <Name>
ligand

>  <RI>
0

>  <Rbt.Current_Directory>
/home/itssahil/PROJECTS/Mol_Feturizer/Test_systems_manuscript/rnas/4erj

>  <Rbt.Executable>
rbdock ($Id: //depot/dev/client3/rdock/2013.1/src/exe/rbdock.cxx#4 $)

>  <Rbt.Library>
libRbt.so (2013.1, Build901 2013/11/27)

>  <Rbt.Parameter_File>
/export/apps/rDock/src/rDock_2013.1_src/data/scripts/dock_solv.prm

>  <Rbt.Receptor>
prm/pocket_docking_6.prm

>  <SCORE>
-13.3842

>  <SCORE.INTER>
-10.7302

>  <SCORE.INTER.CONST>
1

>  <SCORE.INTER.POLAR>
0

>  <SCORE.INTER.ROT>
5

>  <SCORE.INTER.SOLV>
7.82435

>  <SCORE.INTER.VDW>
-16.6949

>  <SCORE.INTER.norm>
-1.19225

>  <SCORE.INTRA>
-2.65393

>  <SCORE.INTRA.DIHEDRAL>
-5.68753

>  <SCORE.INTRA.DIHEDRAL.0>
7.73744

>  <SCORE.INTRA.POLAR>
0

>  <SCORE.INTRA.POLAR.0>
0

>  <SCORE.INTRA.REPUL>
0

>  <SCORE.INTRA.REPUL.0>
0

>  <SCORE.INTRA.SOLV>
0.511334

>  <SCORE.INTRA.SOLV.lig_0>
-15.8342

>  <SCORE.INTRA.VDW>
-0.0658334

>  <SCORE.INTRA.VDW.0>
-0.219494

>  <SCORE.INTRA.norm>
-0.294881

>  <SCORE.RESTR>
0

>  <SCORE.RESTR.CAVITY>
0

>  <SCORE.RESTR.norm>
0

>  <SCORE.SYSTEM>
0

>  <SCORE.SYSTEM.CONST>
0

>  <SCORE.SYSTEM.DIHEDRAL>
0

>  <SCORE.SYSTEM.SOLV>
0

>  <SCORE.SYSTEM.norm>
0

>  <SCORE.heavy>
9

>  <SCORE.norm>
-1.48713

>  <RMSD>
5.308

$$$$
ligand
 OpenBabel02271912143D
libRbt.so/2013.1/901 2013/11/27
  9  8  0  0  0  0  0  0  0  0999 V2000
  -49.6108   68.2672  -18.6292 C   0  0  0  0  0  0  0  0  0  0  0  0
  -50.1003   69.3744  -19.0585 O   0  0  0  0  0  0  0  0  0  0  0  0
  -49.4484   67.1314  -19.5458 C   0  0  0  0  0  0  0  0  0  0  0  0
  -49.2982   68.1090  -17.4041 O   0  0  0  0  0  0  0  0  0  0  0  0
  -48.0727   66.9498  -20.1041 C   0  0  0  0  0  0  0  0  0  0  0  0
  -47.5596   67.9838  -21.0371 C   0  0  0  0  0  0  0  0  0  0  0  0
  -48.2622   68.0238  -22.3837 C   0  0  0  0  0  0  0  0  0  0  0  0
  -47.7535   68.9780  -23.4758 C   0  0  0  0  0  0  0  0  0  0  0  0
  -48.4035   68.9683  -24.6929 N   0  0  0  0  0  0  0  0  0  0  0  0
  1  2  1  0  0  0  0
  1  3  1  0  0  0  0
  1  4  1  0  0  0  0
  3  5  1  0  0  0  0
  5  6  1  0  0  0  0
  6  7  1  0  0  0  0
  7  8  1  0  0  0  0
  8  9  1  0  0  0  0
M  END
>  <CHROM.1>
98.52909427,-67.24771611,-68.68033249,-175.39384979,178.88853307,-48.73936553
68.21392809,-20.65935272,1.98194871,-0.87610601,1.99353009

>  <Name>
ligand

>  <RI>
0

>  <Rbt.Current_Directory>
/home/itssahil/PROJECTS/Mol_Feturizer/Test_systems_manuscript/rnas/4erj

>  <Rbt.Executable>
rbdock ($Id: //depot/dev/client3/rdock/2013.1/src/exe/rbdock.cxx#4 $)

>  <Rbt.Library>
libRbt.so (2013.1, Build901 2013/11/27)

>  <Rbt.Parameter_File>
/export/apps/rDock/src/rDock_2013.1_src/data/scripts/dock_solv.prm

>  <Rbt.Receptor>
prm/pocket_docking_8.prm

>  <SCORE>
-11.721

>  <SCORE.INTER>
-8.63835

>  <SCORE.INTER.CONST>
1

>  <SCORE.INTER.POLAR>
0

>  <SCORE.INTER.ROT>
5

>  <SCORE.INTER.SOLV>
9.95302

>  <SCORE.INTER.VDW>
-16.0099

>  <SCORE.INTER.norm>
-0.959816

>  <SCORE.INTRA>
-3.08264

>  <SCORE.INTRA.DIHEDRAL>
-5.34259

>  <SCORE.INTRA.DIHEDRAL.0>
7.73744

>  <SCORE.INTRA.POLAR>
0

>  <SCORE.INTRA.POLAR.0>
0

>  <SCORE.INTRA.REPUL>
0

>  <SCORE.INTRA.REPUL.0>
0

>  <SCORE.INTRA.SOLV>
-0.130513

>  <SCORE.INTRA.SOLV.lig_0>
-15.8342

>  <SCORE.INTRA.VDW>
-0.346091

>  <SCORE.INTRA.VDW.0>
-0.219494

>  <SCORE.INTRA.norm>
-0.342516

>  <SCORE.RESTR>
0

>  <SCORE.RESTR.CAVITY>
0

>  <SCORE.RESTR.norm>
0

>  <SCORE.SYSTEM>
0

>  <SCORE.SYSTEM.CONST>
0

>  <SCORE.SYSTEM.DIHEDRAL>
0

>  <SCORE.SYSTEM.SOLV>
0

>  <SCORE.SYSTEM.norm>
0

>  <SCORE.heavy>
9

>  <SCORE.norm>
-1.30233

>  <RMSD>
5.308

$$$$
ligand
 OpenBabel02271912143D
libRbt.so/2013.1/901 2013/11/27
  9  8  0  0  0  0  0  0  0  0999 V2000
  -50.1589   69.3870  -18.8987 C   0  0  0  0  0  0  0  0  0  0  0  0
  -49.5605   69.9724  -19.8729 O   0  0  0  0  0  0  0  0  0  0  0  0
  -49.3857   68.6074  -17.9236 C   0  0  0  0  0  0  0  0  0  0  0  0
  -51.4266   69.4272  -18.7766 O   0  0  0  0  0  0  0  0  0  0  0  0
  -49.2429   67.1515  -18.2354 C   0  0  0  0  0  0  0  0  0  0  0  0
  -48.3617   66.7663  -19.3660 C   0  0  0  0  0  0  0  0  0  0  0  0
  -48.8955   67.1404  -20.7385 C   0  0  0  0  0  0  0  0  0  0  0  0
  -48.0325   66.8814  -21.9834 C   0  0  0  0  0  0  0  0  0  0  0  0
  -46.8280   67.5477  -22.0816 N   0  0  0  0  0  0  0  0  0  0  0  0
  1  2  1  0  0  0  0
  1  3  1  0  0  0  0
  1  4  1  0  0  0  0
  3  5  1  0  0  0  0
  5  6  1  0  0  0  0
  6  7  1  0  0  0  0
  7  8  1  0  0  0  0
  8  9  1  0  0  0  0
M  END
>  <CHROM.1>
-91.95486582,71.30144275,-69.66083302,175.87194123,-62.65960285,-49.12577035
68.12705950,-19.76379844,2.90523092,-0.89959722,2.22679557

>  <Name>
ligand

>  <RI>
0

>  <Rbt.Current_Directory>
/home/itssahil/PROJECTS/Mol_Feturizer/Test_systems_manuscript/rnas/4erj

>  <Rbt.Executable>
rbdock ($Id: //depot/dev/client3/rdock/2013.1/src/exe/rbdock.cxx#4 $)

>  <Rbt.Library>
libRbt.so (2013.1, Build901 2013/11/27)

>  <Rbt.Parameter_File>
/export/apps/rDock/src/rDock_2013.1_src/data/scripts/dock_solv.prm

>  <Rbt.Receptor>
prm/pocket_docking_4.prm

>  <SCORE>
-14.6718

>  <SCORE.INTER>
-11.9652

>  <SCORE.INTER.CONST>
1

>  <SCORE.INTER.POLAR>
0

>  <SCORE.INTER.ROT>
5

>  <SCORE.INTER.SOLV>
7.616

>  <SCORE.INTER.VDW>
-17.4488

>  <SCORE.INTER.norm>
-1.32946

>  <SCORE.INTRA>
-2.70662

>  <SCORE.INTRA.DIHEDRAL>
-5.15538

>  <SCORE.INTRA.DIHEDRAL.0>
7.73744

>  <SCORE.INTRA.POLAR>
0

>  <SCORE.INTRA.POLAR.0>
0

>  <SCORE.INTRA.REPUL>
0

>  <SCORE.INTRA.REPUL.0>
0

>  <SCORE.INTRA.SOLV>
0.508129

>  <SCORE.INTRA.SOLV.lig_0>
-15.8342

>  <SCORE.INTRA.VDW>
-0.38299

>  <SCORE.INTRA.VDW.0>
-0.219494

>  <SCORE.INTRA.norm>
-0.300735

>  <SCORE.RESTR>
0

>  <SCORE.RESTR.CAVITY>
0

>  <SCORE.RESTR.norm>
0

>  <SCORE.SYSTEM>
0

>  <SCORE.SYSTEM.CONST>
0

>  <SCORE.SYSTEM.DIHEDRAL>
0

>  <SCORE.SYSTEM.SOLV>
0

>  <SCORE.SYSTEM.norm>
0

>  <SCORE.heavy>
9

>  <SCORE.norm>
-1.6302

>  <RMSD>
5.310

$$$$
ligand
 OpenBabel02271912143D
libRbt.so/2013.1/901 2013/11/27
  9  8  0  0  0  0  0  0  0  0999 V2000
  -50.1082   69.4113  -18.8796 C   0  0  0  0  0  0  0  0  0  0  0  0
  -49.4927   70.0512  -19.8078 O   0  0  0  0  0  0  0  0  0  0  0  0
  -49.3488   68.6063  -17.9144 C   0  0  0  0  0  0  0  0  0  0  0  0
  -51.3797   69.4195  -18.7971 O   0  0  0  0  0  0  0  0  0  0  0  0
  -49.2518   67.1478  -18.2319 C   0  0  0  0  0  0  0  0  0  0  0  0
  -48.3605   66.7371  -19.3454 C   0  0  0  0  0  0  0  0  0  0  0  0
  -48.8392   67.1567  -20.7251 C   0  0  0  0  0  0  0  0  0  0  0  0
  -47.9485   66.8917  -21.9491 C   0  0  0  0  0  0  0  0  0  0  0  0
  -46.7024   67.4839  -21.9788 N   0  0  0  0  0  0  0  0  0  0  0  0
  1  2  1  0  0  0  0
  1  3  1  0  0  0  0
  1  4  1  0  0  0  0
  3  5  1  0  0  0  0
  5  6  1  0  0  0  0
  6  7  1  0  0  0  0
  7  8  1  0  0  0  0
  8  9  1  0  0  0  0
M  END
>  <CHROM.1>
-96.37322333,73.14811717,-68.73687856,175.04854599,-60.71679981,-49.07439699
68.13042151,-19.73634767,2.97854321,-0.90054505,2.29418522

>  <Name>
ligand

>  <RI>
0

>  <Rbt.Current_Directory>
/home/itssahil/PROJECTS/Mol_Feturizer/Test_systems_manuscript/rnas/4erj

>  <Rbt.Executable>
rbdock ($Id: //depot/dev/client3/rdock/2013.1/src/exe/rbdock.cxx#4 $)

>  <Rbt.Library>
libRbt.so (2013.1, Build901 2013/11/27)

>  <Rbt.Parameter_File>
/export/apps/rDock/src/rDock_2013.1_src/data/scripts/dock_solv.prm

>  <Rbt.Receptor>
prm/pocket_docking_5.prm

>  <SCORE>
-14.6575

>  <SCORE.INTER>
-11.9821

>  <SCORE.INTER.CONST>
1

>  <SCORE.INTER.POLAR>
0

>  <SCORE.INTER.ROT>
5

>  <SCORE.INTER.SOLV>
7.85635

>  <SCORE.INTER.VDW>
-17.5402

>  <SCORE.INTER.norm>
-1.33134

>  <SCORE.INTRA>
-2.67537

>  <SCORE.INTRA.DIHEDRAL>
-5.03464

>  <SCORE.INTRA.DIHEDRAL.0>
7.73744

>  <SCORE.INTRA.POLAR>
0

>  <SCORE.INTRA.POLAR.0>
0

>  <SCORE.INTRA.REPUL>
0

>  <SCORE.INTRA.REPUL.0>
0

>  <SCORE.INTRA.SOLV>
0.530765

>  <SCORE.INTRA.SOLV.lig_0>
-15.8342

>  <SCORE.INTRA.VDW>
-0.423435

>  <SCORE.INTRA.VDW.0>
-0.219494

>  <SCORE.INTRA.norm>
-0.297264

>  <SCORE.RESTR>
0

>  <SCORE.RESTR.CAVITY>
0

>  <SCORE.RESTR.norm>
0

>  <SCORE.SYSTEM>
0

>  <SCORE.SYSTEM.CONST>
0

>  <SCORE.SYSTEM.DIHEDRAL>
0

>  <SCORE.SYSTEM.SOLV>
0

>  <SCORE.SYSTEM.norm>
0

>  <SCORE.heavy>
9

>  <SCORE.norm>
-1.62861

>  <RMSD>
5.314

$$$$
ligand
 OpenBabel02271912143D
libRbt.so/2013.1/901 2013/11/27
  9  8  0  0  0  0  0  0  0  0999 V2000
  -49.0265   68.5123  -18.6391 C   0  0  0  0  0  0  0  0  0  0  0  0
  -49.2466   68.2571  -17.3996 O   0  0  0  0  0  0  0  0  0  0  0  0
  -49.7833   67.8055  -19.6803 C   0  0  0  0  0  0  0  0  0  0  0  0
  -48.1273   69.3407  -18.9979 O   0  0  0  0  0  0  0  0  0  0  0  0
  -49.1037   66.6087  -20.2660 C   0  0  0  0  0  0  0  0  0  0  0  0
  -47.8591   66.8282  -21.0445 C   0  0  0  0  0  0  0  0  0  0  0  0
  -48.0490   67.6152  -22.3302 C   0  0  0  0  0  0  0  0  0  0  0  0
  -46.8477   67.8497  -23.2595 C   0  0  0  0  0  0  0  0  0  0  0  0
  -47.0605   68.5692  -24.4176 N   0  0  0  0  0  0  0  0  0  0  0  0
  1  2  1  0  0  0  0
  1  3  1  0  0  0  0
  1  4  1  0  0  0  0
  3  5  1  0  0  0  0
  5  6  1  0  0  0  0
  6  7  1  0  0  0  0
  7  8  1  0  0  0  0
  8  9  1  0  0  0  0
M  END
>  <CHROM.1>
-96.04302289,-65.42659228,-65.41648184,-177.03023610,-179.99171557,-48.34485269
67.94931037,-20.62578695,-2.28079032,-1.01364313,-2.26263949

>  <Name>
ligand

>  <RI>
0

>  <Rbt.Current_Directory>
/home/itssahil/PROJECTS/Mol_Feturizer/Test_systems_manuscript/rnas/4erj

>  <Rbt.Executable>
rbdock ($Id: //depot/dev/client3/rdock/2013.1/src/exe/rbdock.cxx#4 $)

>  <Rbt.Library>
libRbt.so (2013.1, Build901 2013/11/27)

>  <Rbt.Parameter_File>
/export/apps/rDock/src/rDock_2013.1_src/data/scripts/dock_solv.prm

>  <Rbt.Receptor>
prm/blind_docking_100.prm

>  <SCORE>
-12.8111

>  <SCORE.INTER>
-9.53223

>  <SCORE.INTER.CONST>
1

>  <SCORE.INTER.POLAR>
0

>  <SCORE.INTER.ROT>
5

>  <SCORE.INTER.SOLV>
8.00051

>  <SCORE.INTER.VDW>
-15.955

>  <SCORE.INTER.norm>
-1.05914

>  <SCORE.INTRA>
-3.27921

>  <SCORE.INTRA.DIHEDRAL>
-5.86923

>  <SCORE.INTRA.DIHEDRAL.0>
7.73744

>  <SCORE.INTRA.POLAR>
0

>  <SCORE.INTRA.POLAR.0>
0

>  <SCORE.INTRA.REPUL>
0

>  <SCORE.INTRA.REPUL.0>
0

>  <SCORE.INTRA.SOLV>
-0.132526

>  <SCORE.INTRA.SOLV.lig_0>
-15.8342

>  <SCORE.INTRA.VDW>
-0.278332

>  <SCORE.INTRA.VDW.0>
-0.219494

>  <SCORE.INTRA.norm>
-0.364357

>  <SCORE.RESTR>
0.00037877

>  <SCORE.RESTR.CAVITY>
0.00037877

>  <SCORE.RESTR.norm>
4.20855e-05

>  <SCORE.SYSTEM>
0

>  <SCORE.SYSTEM.CONST>
0

>  <SCORE.SYSTEM.DIHEDRAL>
0

>  <SCORE.SYSTEM.SOLV>
0

>  <SCORE.SYSTEM.norm>
0

>  <SCORE.heavy>
9

>  <SCORE.norm>
-1.42345

>  <RMSD>
5.315

$$$$
ligand
 OpenBabel02271912143D
libRbt.so/2013.1/901 2013/11/27
  9  8  0  0  0  0  0  0  0  0999 V2000
  -48.8596   68.0454  -18.5892 C   0  0  0  0  0  0  0  0  0  0  0  0
  -48.1228   68.9883  -19.0560 O   0  0  0  0  0  0  0  0  0  0  0  0
  -49.2053   66.8960  -19.4352 C   0  0  0  0  0  0  0  0  0  0  0  0
  -49.3422   68.0999  -17.4112 O   0  0  0  0  0  0  0  0  0  0  0  0
  -48.7968   67.0099  -20.8696 C   0  0  0  0  0  0  0  0  0  0  0  0
  -47.3474   66.9606  -21.1852 C   0  0  0  0  0  0  0  0  0  0  0  0
  -47.0166   67.1152  -22.6602 C   0  0  0  0  0  0  0  0  0  0  0  0
  -47.3806   68.4203  -23.3855 C   0  0  0  0  0  0  0  0  0  0  0  0
  -47.0049   68.5485  -24.7071 N   0  0  0  0  0  0  0  0  0  0  0  0
  1  2  1  0  0  0  0
  1  3  1  0  0  0  0
  1  4  1  0  0  0  0
  3  5  1  0  0  0  0
  5  6  1  0  0  0  0
  6  7  1  0  0  0  0
  7  8  1  0  0  0  0
  8  9  1  0  0  0  0
M  END
>  <CHROM.1>
-7.59116950,69.32099284,-178.65863152,62.60575234,176.85651820,-48.12697344
67.80624244,-20.76601042,-2.63463334,-1.18447425,-2.59307070

>  <Name>
ligand

>  <RI>
0

>  <Rbt.Current_Directory>
/home/itssahil/PROJECTS/Mol_Feturizer/Test_systems_manuscript/rnas/4erj

>  <Rbt.Executable>
rbdock ($Id: //depot/dev/client3/rdock/2013.1/src/exe/rbdock.cxx#4 $)

>  <Rbt.Library>
libRbt.so (2013.1, Build901 2013/11/27)

>  <Rbt.Parameter_File>
/export/apps/rDock/src/rDock_2013.1_src/data/scripts/dock_solv.prm

>  <Rbt.Receptor>
prm/pocket_docking_7.prm

>  <SCORE>
-12.4514

>  <SCORE.INTER>
-10.1627

>  <SCORE.INTER.CONST>
1

>  <SCORE.INTER.POLAR>
0

>  <SCORE.INTER.ROT>
5

>  <SCORE.INTER.SOLV>
7.96066

>  <SCORE.INTER.VDW>
-16.362

>  <SCORE.INTER.norm>
-1.12919

>  <SCORE.INTRA>
-2.28864

>  <SCORE.INTRA.DIHEDRAL>
-5.58243

>  <SCORE.INTRA.DIHEDRAL.0>
7.73744

>  <SCORE.INTRA.POLAR>
0

>  <SCORE.INTRA.POLAR.0>
0

>  <SCORE.INTRA.REPUL>
0

>  <SCORE.INTRA.REPUL.0>
0

>  <SCORE.INTRA.SOLV>
0.0277129

>  <SCORE.INTRA.SOLV.lig_0>
-15.8342

>  <SCORE.INTRA.VDW>
0.488718

>  <SCORE.INTRA.VDW.0>
-0.219494

>  <SCORE.INTRA.norm>
-0.254294

>  <SCORE.RESTR>
0

>  <SCORE.RESTR.CAVITY>
0

>  <SCORE.RESTR.norm>
0

>  <SCORE.SYSTEM>
0

>  <SCORE.SYSTEM.CONST>
0

>  <SCORE.SYSTEM.DIHEDRAL>
0

>  <SCORE.SYSTEM.SOLV>
0

>  <SCORE.SYSTEM.norm>
0

>  <SCORE.heavy>
9

>  <SCORE.norm>
-1.38349

>  <RMSD>
5.315

$$$$
ligand
 OpenBabel02271912143D
libRbt.so/2013.1/901 2013/11/27
  9  8  0  0  0  0  0  0  0  0999 V2000
  -50.1874   69.3701  -18.8937 C   0  0  0  0  0  0  0  0  0  0  0  0
  -49.6215   69.9546  -19.8877 O   0  0  0  0  0  0  0  0  0  0  0  0
  -49.3787   68.6169  -17.9268 C   0  0  0  0  0  0  0  0  0  0  0  0
  -51.4527   69.3885  -18.7442 O   0  0  0  0  0  0  0  0  0  0  0  0
  -49.2093   67.1617  -18.2286 C   0  0  0  0  0  0  0  0  0  0  0  0
  -48.3438   66.7860  -19.3744 C   0  0  0  0  0  0  0  0  0  0  0  0
  -48.9230   67.1188  -20.7391 C   0  0  0  0  0  0  0  0  0  0  0  0
  -48.0697   66.8994  -21.9983 C   0  0  0  0  0  0  0  0  0  0  0  0
  -46.8703   67.5757  -22.0890 N   0  0  0  0  0  0  0  0  0  0  0  0
  1  2  1  0  0  0  0
  1  3  1  0  0  0  0
  1  4  1  0  0  0  0
  3  5  1  0  0  0  0
  5  6  1  0  0  0  0
  6  7  1  0  0  0  0
  7  8  1  0  0  0  0
  8  9  1  0  0  0  0
M  END
>  <CHROM.1>
-91.62983671,71.15708630,-70.40241917,174.36382882,-59.12658871,-49.14460464
68.12539953,-19.76417740,2.86193363,-0.89186372,2.18175912

>  <Name>
ligand

>  <RI>
0

>  <Rbt.Current_Directory>
/home/itssahil/PROJECTS/Mol_Feturizer/Test_systems_manuscript/rnas/4erj

>  <Rbt.Executable>
rbdock ($Id: //depot/dev/client3/rdock/2013.1/src/exe/rbdock.cxx#4 $)

>  <Rbt.Library>
libRbt.so (2013.1, Build901 2013/11/27)

>  <Rbt.Parameter_File>
/export/apps/rDock/src/rDock_2013.1_src/data/scripts/dock_solv.prm

>  <Rbt.Receptor>
prm/pocket_docking_3.prm

>  <SCORE>
-14.6646

>  <SCORE.INTER>
-11.9999

>  <SCORE.INTER.CONST>
1

>  <SCORE.INTER.POLAR>
0

>  <SCORE.INTER.ROT>
5

>  <SCORE.INTER.SOLV>
7.57391

>  <SCORE.INTER.VDW>
-17.4579

>  <SCORE.INTER.norm>
-1.33332

>  <SCORE.INTRA>
-2.66467

>  <SCORE.INTRA.DIHEDRAL>
-5.07165

>  <SCORE.INTRA.DIHEDRAL.0>
7.73744

>  <SCORE.INTRA.POLAR>
0

>  <SCORE.INTRA.POLAR.0>
0

>  <SCORE.INTRA.REPUL>
0

>  <SCORE.INTRA.REPUL.0>
0

>  <SCORE.INTRA.SOLV>
0.549831

>  <SCORE.INTRA.SOLV.lig_0>
-15.8342

>  <SCORE.INTRA.VDW>
-0.403762

>  <SCORE.INTRA.VDW.0>
-0.219494

>  <SCORE.INTRA.norm>
-0.296075

>  <SCORE.RESTR>
0

>  <SCORE.RESTR.CAVITY>
0

>  <SCORE.RESTR.norm>
0

>  <SCORE.SYSTEM>
0

>  <SCORE.SYSTEM.CONST>
0

>  <SCORE.SYSTEM.DIHEDRAL>
0

>  <SCORE.SYSTEM.SOLV>
0

>  <SCORE.SYSTEM.norm>
0

>  <SCORE.heavy>
9

>  <SCORE.norm>
-1.62939

>  <RMSD>
5.316

$$$$
ligand
 OpenBabel02271912143D
libRbt.so/2013.1/901 2013/11/27
  9  8  0  0  0  0  0  0  0  0999 V2000
  -50.1900   69.3393  -18.9134 C   0  0  0  0  0  0  0  0  0  0  0  0
  -51.4637   69.4241  -18.7705 O   0  0  0  0  0  0  0  0  0  0  0  0
  -49.3898   68.5874  -17.9383 C   0  0  0  0  0  0  0  0  0  0  0  0
  -49.5868   69.9333  -19.8657 O   0  0  0  0  0  0  0  0  0  0  0  0
  -49.2083   67.1342  -18.2423 C   0  0  0  0  0  0  0  0  0  0  0  0
  -48.3250   66.7669  -19.3772 C   0  0  0  0  0  0  0  0  0  0  0  0
  -48.8774   67.1210  -20.7477 C   0  0  0  0  0  0  0  0  0  0  0  0
  -48.0222   66.8650  -21.9986 C   0  0  0  0  0  0  0  0  0  0  0  0
  -46.8222   67.5377  -22.1067 N   0  0  0  0  0  0  0  0  0  0  0  0
  1  2  1  0  0  0  0
  1  3  1  0  0  0  0
  1  4  1  0  0  0  0
  3  5  1  0  0  0  0
  5  6  1  0  0  0  0
  6  7  1  0  0  0  0
  7  8  1  0  0  0  0
  8  9  1  0  0  0  0
M  END
>  <CHROM.1>
89.46315887,71.19807550,-69.48087196,176.52556262,-61.95354238,-49.12549927
68.10828097,-19.77251480,2.87735092,-0.88630363,2.19019419

>  <Name>
ligand

>  <RI>
0

>  <Rbt.Current_Directory>
/home/itssahil/PROJECTS/Mol_Feturizer/Test_systems_manuscript/rnas/4erj

>  <Rbt.Executable>
rbdock ($Id: //depot/dev/client3/rdock/2013.1/src/exe/rbdock.cxx#4 $)

>  <Rbt.Library>
libRbt.so (2013.1, Build901 2013/11/27)

>  <Rbt.Parameter_File>
/export/apps/rDock/src/rDock_2013.1_src/data/scripts/dock_solv.prm

>  <Rbt.Receptor>
prm/pocket_docking_3.prm

>  <SCORE>
-14.6187

>  <SCORE.INTER>
-11.9978

>  <SCORE.INTER.CONST>
1

>  <SCORE.INTER.POLAR>
0

>  <SCORE.INTER.ROT>
5

>  <SCORE.INTER.SOLV>
7.58745

>  <SCORE.INTER.VDW>
-17.461

>  <SCORE.INTER.norm>
-1.33309

>  <SCORE.INTRA>
-2.62088

>  <SCORE.INTRA.DIHEDRAL>
-5.01177

>  <SCORE.INTRA.DIHEDRAL.0>
7.73744

>  <SCORE.INTRA.POLAR>
0

>  <SCORE.INTRA.POLAR.0>
0

>  <SCORE.INTRA.REPUL>
0

>  <SCORE.INTRA.REPUL.0>
0

>  <SCORE.INTRA.SOLV>
0.512409

>  <SCORE.INTRA.SOLV.lig_0>
-15.8342

>  <SCORE.INTRA.VDW>
-0.371201

>  <SCORE.INTRA.VDW.0>
-0.219494

>  <SCORE.INTRA.norm>
-0.291209

>  <SCORE.RESTR>
0

>  <SCORE.RESTR.CAVITY>
0

>  <SCORE.RESTR.norm>
0

>  <SCORE.SYSTEM>
0

>  <SCORE.SYSTEM.CONST>
0

>  <SCORE.SYSTEM.DIHEDRAL>
0

>  <SCORE.SYSTEM.SOLV>
0

>  <SCORE.SYSTEM.norm>
0

>  <SCORE.heavy>
9

>  <SCORE.norm>
-1.6243

>  <RMSD>
5.316

$$$$
ligand
 OpenBabel02271912143D
libRbt.so/2013.1/901 2013/11/27
  9  8  0  0  0  0  0  0  0  0999 V2000
  -50.1298   69.3809  -18.8728 C   0  0  0  0  0  0  0  0  0  0  0  0
  -49.5152   70.0048  -19.8124 O   0  0  0  0  0  0  0  0  0  0  0  0
  -49.3713   68.5753  -17.9074 C   0  0  0  0  0  0  0  0  0  0  0  0
  -51.4003   69.4055  -18.7786 O   0  0  0  0  0  0  0  0  0  0  0  0
  -49.2491   67.1222  -18.2408 C   0  0  0  0  0  0  0  0  0  0  0  0
  -48.3550   66.7396  -19.3621 C   0  0  0  0  0  0  0  0  0  0  0  0
  -48.8461   67.1665  -20.7352 C   0  0  0  0  0  0  0  0  0  0  0  0
  -47.9717   66.8971  -21.9700 C   0  0  0  0  0  0  0  0  0  0  0  0
  -46.7362   67.5087  -22.0297 N   0  0  0  0  0  0  0  0  0  0  0  0
  1  2  1  0  0  0  0
  1  3  1  0  0  0  0
  1  4  1  0  0  0  0
  3  5  1  0  0  0  0
  5  6  1  0  0  0  0
  6  7  1  0  0  0  0
  7  8  1  0  0  0  0
  8  9  1  0  0  0  0
M  END
>  <CHROM.1>
-94.05294235,72.15496270,-68.66949855,176.66334361,-62.46817252,-49.09036906
68.11848693,-19.74495108,2.94603975,-0.89705572,2.27321293

>  <Name>
ligand

>  <RI>
0

>  <Rbt.Current_Directory>
/home/itssahil/PROJECTS/Mol_Feturizer/Test_systems_manuscript/rnas/4erj

>  <Rbt.Executable>
rbdock ($Id: //depot/dev/client3/rdock/2013.1/src/exe/rbdock.cxx#4 $)

>  <Rbt.Library>
libRbt.so (2013.1, Build901 2013/11/27)

>  <Rbt.Parameter_File>
/export/apps/rDock/src/rDock_2013.1_src/data/scripts/dock_solv.prm

>  <Rbt.Receptor>
prm/pocket_docking_4.prm

>  <SCORE>
-14.6252

>  <SCORE.INTER>
-11.9097

>  <SCORE.INTER.CONST>
1

>  <SCORE.INTER.POLAR>
0

>  <SCORE.INTER.ROT>
5

>  <SCORE.INTER.SOLV>
7.73656

>  <SCORE.INTER.VDW>
-17.452

>  <SCORE.INTER.norm>
-1.3233

>  <SCORE.INTRA>
-2.71551

>  <SCORE.INTRA.DIHEDRAL>
-5.17585

>  <SCORE.INTRA.DIHEDRAL.0>
7.73744

>  <SCORE.INTRA.POLAR>
0

>  <SCORE.INTRA.POLAR.0>
0

>  <SCORE.INTRA.REPUL>
0

>  <SCORE.INTRA.REPUL.0>
0

>  <SCORE.INTRA.SOLV>
0.506084

>  <SCORE.INTRA.SOLV.lig_0>
-15.8342

>  <SCORE.INTRA.VDW>
-0.38063

>  <SCORE.INTRA.VDW.0>
-0.219494

>  <SCORE.INTRA.norm>
-0.301724

>  <SCORE.RESTR>
0

>  <SCORE.RESTR.CAVITY>
0

>  <SCORE.RESTR.norm>
0

>  <SCORE.SYSTEM>
0

>  <SCORE.SYSTEM.CONST>
0

>  <SCORE.SYSTEM.DIHEDRAL>
0

>  <SCORE.SYSTEM.SOLV>
0

>  <SCORE.SYSTEM.norm>
0

>  <SCORE.heavy>
9

>  <SCORE.norm>
-1.62502

>  <RMSD>
5.318

$$$$
ligand
 OpenBabel02271912143D
libRbt.so/2013.1/901 2013/11/27
  9  8  0  0  0  0  0  0  0  0999 V2000
  -50.1351   69.3900  -18.8914 C   0  0  0  0  0  0  0  0  0  0  0  0
  -51.4150   69.4441  -18.7982 O   0  0  0  0  0  0  0  0  0  0  0  0
  -49.3596   68.6127  -17.9163 C   0  0  0  0  0  0  0  0  0  0  0  0
  -49.5062   70.0356  -19.7921 O   0  0  0  0  0  0  0  0  0  0  0  0
  -49.2318   67.1529  -18.2162 C   0  0  0  0  0  0  0  0  0  0  0  0
  -48.3514   66.7493  -19.3409 C   0  0  0  0  0  0  0  0  0  0  0  0
  -48.8598   67.1491  -20.7158 C   0  0  0  0  0  0  0  0  0  0  0  0
  -47.9909   66.8765  -21.9537 C   0  0  0  0  0  0  0  0  0  0  0  0
  -46.7481   67.4733  -22.0119 N   0  0  0  0  0  0  0  0  0  0  0  0
  1  2  1  0  0  0  0
  1  3  1  0  0  0  0
  1  4  1  0  0  0  0
  3  5  1  0  0  0  0
  5  6  1  0  0  0  0
  6  7  1  0  0  0  0
  7  8  1  0  0  0  0
  8  9  1  0  0  0  0
M  END
>  <CHROM.1>
84.60526582,72.00818277,-68.19749391,175.70577271,-60.45782539,-49.09290939
68.12849305,-19.73672577,2.94666141,-0.90041774,2.25182712

>  <Name>
ligand

>  <RI>
0

>  <Rbt.Current_Directory>
/home/itssahil/PROJECTS/Mol_Feturizer/Test_systems_manuscript/rnas/4erj

>  <Rbt.Executable>
rbdock ($Id: //depot/dev/client3/rdock/2013.1/src/exe/rbdock.cxx#4 $)

>  <Rbt.Library>
libRbt.so (2013.1, Build901 2013/11/27)

>  <Rbt.Parameter_File>
/export/apps/rDock/src/rDock_2013.1_src/data/scripts/dock_solv.prm

>  <Rbt.Receptor>
prm/pocket_docking_5.prm

>  <SCORE>
-14.6527

>  <SCORE.INTER>
-12.0129

>  <SCORE.INTER.CONST>
1

>  <SCORE.INTER.POLAR>
0

>  <SCORE.INTER.ROT>
5

>  <SCORE.INTER.SOLV>
7.77701

>  <SCORE.INTER.VDW>
-17.5343

>  <SCORE.INTER.norm>
-1.33477

>  <SCORE.INTRA>
-2.63977

>  <SCORE.INTRA.DIHEDRAL>
-5.02203

>  <SCORE.INTRA.DIHEDRAL.0>
7.73744

>  <SCORE.INTRA.POLAR>
0

>  <SCORE.INTRA.POLAR.0>
0

>  <SCORE.INTRA.REPUL>
0

>  <SCORE.INTRA.REPUL.0>
0

>  <SCORE.INTRA.SOLV>
0.530328

>  <SCORE.INTRA.SOLV.lig_0>
-15.8342

>  <SCORE.INTRA.VDW>
-0.393924

>  <SCORE.INTRA.VDW.0>
-0.219494

>  <SCORE.INTRA.norm>
-0.293308

>  <SCORE.RESTR>
0

>  <SCORE.RESTR.CAVITY>
0

>  <SCORE.RESTR.norm>
0

>  <SCORE.SYSTEM>
0

>  <SCORE.SYSTEM.CONST>
0

>  <SCORE.SYSTEM.DIHEDRAL>
0

>  <SCORE.SYSTEM.SOLV>
0

>  <SCORE.SYSTEM.norm>
0

>  <SCORE.heavy>
9

>  <SCORE.norm>
-1.62808

>  <RMSD>
5.318

$$$$
ligand
 OpenBabel02271912143D
libRbt.so/2013.1/901 2013/11/27
  9  8  0  0  0  0  0  0  0  0999 V2000
  -50.5869   69.4795  -19.5106 C   0  0  0  0  0  0  0  0  0  0  0  0
  -51.5272   69.4772  -18.6356 O   0  0  0  0  0  0  0  0  0  0  0  0
  -49.2269   69.0784  -19.1285 C   0  0  0  0  0  0  0  0  0  0  0  0
  -50.7928   69.8670  -20.7069 O   0  0  0  0  0  0  0  0  0  0  0  0
  -48.9973   67.6036  -19.0303 C   0  0  0  0  0  0  0  0  0  0  0  0
  -49.3073   66.7715  -20.2197 C   0  0  0  0  0  0  0  0  0  0  0  0
  -48.5422   67.1548  -21.4753 C   0  0  0  0  0  0  0  0  0  0  0  0
  -47.0105   67.0316  -21.4964 C   0  0  0  0  0  0  0  0  0  0  0  0
  -46.3471   67.4444  -22.6338 N   0  0  0  0  0  0  0  0  0  0  0  0
  1  2  1  0  0  0  0
  1  3  1  0  0  0  0
  1  4  1  0  0  0  0
  3  5  1  0  0  0  0
  5  6  1  0  0  0  0
  6  7  1  0  0  0  0
  7  8  1  0  0  0  0
  8  9  1  0  0  0  0
M  END
>  <CHROM.1>
79.05125334,55.75270627,58.48060105,63.17505910,-177.22439772,-49.18844073
68.23714510,-20.30769907,3.01160821,-0.73686540,2.22326985

>  <Name>
ligand

>  <RI>
0

>  <Rbt.Current_Directory>
/home/itssahil/PROJECTS/Mol_Feturizer/Test_systems_manuscript/rnas/4erj

>  <Rbt.Executable>
rbdock ($Id: //depot/dev/client3/rdock/2013.1/src/exe/rbdock.cxx#4 $)

>  <Rbt.Library>
libRbt.so (2013.1, Build901 2013/11/27)

>  <Rbt.Parameter_File>
/export/apps/rDock/src/rDock_2013.1_src/data/scripts/dock_solv.prm

>  <Rbt.Receptor>
prm/pocket_docking_5.prm

>  <SCORE>
-13.5426

>  <SCORE.INTER>
-10.7776

>  <SCORE.INTER.CONST>
1

>  <SCORE.INTER.POLAR>
0

>  <SCORE.INTER.ROT>
5

>  <SCORE.INTER.SOLV>
7.04166

>  <SCORE.INTER.VDW>
-16.4656

>  <SCORE.INTER.norm>
-1.19751

>  <SCORE.INTRA>
-2.76507

>  <SCORE.INTRA.DIHEDRAL>
-5.81995

>  <SCORE.INTRA.DIHEDRAL.0>
7.73744

>  <SCORE.INTRA.POLAR>
0

>  <SCORE.INTRA.POLAR.0>
0

>  <SCORE.INTRA.REPUL>
0

>  <SCORE.INTRA.REPUL.0>
0

>  <SCORE.INTRA.SOLV>
0.0401203

>  <SCORE.INTRA.SOLV.lig_0>
-15.8342

>  <SCORE.INTRA.VDW>
0.124848

>  <SCORE.INTRA.VDW.0>
-0.219494

>  <SCORE.INTRA.norm>
-0.30723

>  <SCORE.RESTR>
0

>  <SCORE.RESTR.CAVITY>
0

>  <SCORE.RESTR.norm>
0

>  <SCORE.SYSTEM>
0

>  <SCORE.SYSTEM.CONST>
0

>  <SCORE.SYSTEM.DIHEDRAL>
0

>  <SCORE.SYSTEM.SOLV>
0

>  <SCORE.SYSTEM.norm>
0

>  <SCORE.heavy>
9

>  <SCORE.norm>
-1.50474

>  <RMSD>
5.318

$$$$
ligand
 OpenBabel02271912143D
libRbt.so/2013.1/901 2013/11/27
  9  8  0  0  0  0  0  0  0  0999 V2000
  -50.2444   69.4532  -18.9571 C   0  0  0  0  0  0  0  0  0  0  0  0
  -49.8557   70.2054  -19.9231 O   0  0  0  0  0  0  0  0  0  0  0  0
  -49.2755   68.6064  -18.2497 C   0  0  0  0  0  0  0  0  0  0  0  0
  -51.4710   69.3866  -18.6185 O   0  0  0  0  0  0  0  0  0  0  0  0
  -49.2780   67.1633  -18.6430 C   0  0  0  0  0  0  0  0  0  0  0  0
  -49.0545   66.8324  -20.0725 C   0  0  0  0  0  0  0  0  0  0  0  0
  -47.6734   67.1905  -20.5950 C   0  0  0  0  0  0  0  0  0  0  0  0
  -47.3646   67.0302  -22.0919 C   0  0  0  0  0  0  0  0  0  0  0  0
  -47.9962   67.8826  -22.9744 N   0  0  0  0  0  0  0  0  0  0  0  0
  1  2  1  0  0  0  0
  1  3  1  0  0  0  0
  1  4  1  0  0  0  0
  3  5  1  0  0  0  0
  5  6  1  0  0  0  0
  6  7  1  0  0  0  0
  7  8  1  0  0  0  0
  8  9  1  0  0  0  0
M  END
>  <CHROM.1>
-101.30613739,56.84881039,65.52140756,-173.83459069,68.62538597,-49.16459345
68.22407153,-20.00719247,2.84548755,-0.90849323,2.20920368

>  <Name>
ligand

>  <RI>
0

>  <Rbt.Current_Directory>
/home/itssahil/PROJECTS/Mol_Feturizer/Test_systems_manuscript/rnas/4erj

>  <Rbt.Executable>
rbdock ($Id: //depot/dev/client3/rdock/2013.1/src/exe/rbdock.cxx#4 $)

>  <Rbt.Library>
libRbt.so (2013.1, Build901 2013/11/27)

>  <Rbt.Parameter_File>
/export/apps/rDock/src/rDock_2013.1_src/data/scripts/dock_solv.prm

>  <Rbt.Receptor>
prm/pocket_docking_7.prm

>  <SCORE>
-14.3809

>  <SCORE.INTER>
-11.5143

>  <SCORE.INTER.CONST>
1

>  <SCORE.INTER.POLAR>
0

>  <SCORE.INTER.ROT>
5

>  <SCORE.INTER.SOLV>
8.32061

>  <SCORE.INTER.VDW>
-17.3831

>  <SCORE.INTER.norm>
-1.27937

>  <SCORE.INTRA>
-2.86663

>  <SCORE.INTRA.DIHEDRAL>
-5.53415

>  <SCORE.INTRA.DIHEDRAL.0>
7.73744

>  <SCORE.INTRA.POLAR>
0

>  <SCORE.INTRA.POLAR.0>
0

>  <SCORE.INTRA.REPUL>
0

>  <SCORE.INTRA.REPUL.0>
0

>  <SCORE.INTRA.SOLV>
0.460137

>  <SCORE.INTRA.SOLV.lig_0>
-15.8342

>  <SCORE.INTRA.VDW>
-0.329625

>  <SCORE.INTRA.VDW.0>
-0.219494

>  <SCORE.INTRA.norm>
-0.318514

>  <SCORE.RESTR>
0

>  <SCORE.RESTR.CAVITY>
0

>  <SCORE.RESTR.norm>
0

>  <SCORE.SYSTEM>
0

>  <SCORE.SYSTEM.CONST>
0

>  <SCORE.SYSTEM.DIHEDRAL>
0

>  <SCORE.SYSTEM.SOLV>
0

>  <SCORE.SYSTEM.norm>
0

>  <SCORE.heavy>
9

>  <SCORE.norm>
-1.59788

>  <RMSD>
5.318

$$$$
ligand
 OpenBabel02271912143D
libRbt.so/2013.1/901 2013/11/27
  9  8  0  0  0  0  0  0  0  0999 V2000
  -49.0065   68.4827  -18.6198 C   0  0  0  0  0  0  0  0  0  0  0  0
  -48.0950   69.3304  -18.9367 O   0  0  0  0  0  0  0  0  0  0  0  0
  -49.8001   67.8305  -19.6692 C   0  0  0  0  0  0  0  0  0  0  0  0
  -49.2758   68.2199  -17.4024 O   0  0  0  0  0  0  0  0  0  0  0  0
  -49.1738   66.6216  -20.2886 C   0  0  0  0  0  0  0  0  0  0  0  0
  -47.9242   66.8085  -21.0674 C   0  0  0  0  0  0  0  0  0  0  0  0
  -48.0889   67.6226  -22.3398 C   0  0  0  0  0  0  0  0  0  0  0  0
  -46.8719   67.8667  -23.2460 C   0  0  0  0  0  0  0  0  0  0  0  0
  -47.0656   68.5961  -24.4012 N   0  0  0  0  0  0  0  0  0  0  0  0
  1  2  1  0  0  0  0
  1  3  1  0  0  0  0
  1  4  1  0  0  0  0
  3  5  1  0  0  0  0
  5  6  1  0  0  0  0
  6  7  1  0  0  0  0
  7  8  1  0  0  0  0
  8  9  1  0  0  0  0
M  END
>  <CHROM.1>
84.10704145,-65.07454537,-66.05851297,-178.99305683,179.18056497,-48.36682083
67.94820074,-20.61820700,-2.23850687,-0.98642069,-2.20808987

>  <Name>
ligand

>  <RI>
0

>  <Rbt.Current_Directory>
/home/itssahil/PROJECTS/Mol_Feturizer/Test_systems_manuscript/rnas/4erj

>  <Rbt.Executable>
rbdock ($Id: //depot/dev/client3/rdock/2013.1/src/exe/rbdock.cxx#4 $)

>  <Rbt.Library>
libRbt.so (2013.1, Build901 2013/11/27)

>  <Rbt.Parameter_File>
/export/apps/rDock/src/rDock_2013.1_src/data/scripts/dock_solv.prm

>  <Rbt.Receptor>
prm/pocket_docking_8.prm

>  <SCORE>
-12.7434

>  <SCORE.INTER>
-9.52245

>  <SCORE.INTER.CONST>
1

>  <SCORE.INTER.POLAR>
0

>  <SCORE.INTER.ROT>
5

>  <SCORE.INTER.SOLV>
8.05421

>  <SCORE.INTER.VDW>
-15.9664

>  <SCORE.INTER.norm>
-1.05805

>  <SCORE.INTRA>
-3.22094

>  <SCORE.INTRA.DIHEDRAL>
-5.69666

>  <SCORE.INTRA.DIHEDRAL.0>
7.73744

>  <SCORE.INTRA.POLAR>
0

>  <SCORE.INTRA.POLAR.0>
0

>  <SCORE.INTRA.REPUL>
0

>  <SCORE.INTRA.REPUL.0>
0

>  <SCORE.INTRA.SOLV>
-0.131934

>  <SCORE.INTRA.SOLV.lig_0>
-15.8342

>  <SCORE.INTRA.VDW>
-0.306641

>  <SCORE.INTRA.VDW.0>
-0.219494

>  <SCORE.INTRA.norm>
-0.357882

>  <SCORE.RESTR>
0

>  <SCORE.RESTR.CAVITY>
0

>  <SCORE.RESTR.norm>
0

>  <SCORE.SYSTEM>
0

>  <SCORE.SYSTEM.CONST>
0

>  <SCORE.SYSTEM.DIHEDRAL>
0

>  <SCORE.SYSTEM.SOLV>
0

>  <SCORE.SYSTEM.norm>
0

>  <SCORE.heavy>
9

>  <SCORE.norm>
-1.41593

>  <RMSD>
5.318

$$$$
ligand
 OpenBabel02271912143D
libRbt.so/2013.1/901 2013/11/27
  9  8  0  0  0  0  0  0  0  0999 V2000
  -50.1057   69.3536  -18.8446 C   0  0  0  0  0  0  0  0  0  0  0  0
  -51.3878   69.4074  -18.7872 O   0  0  0  0  0  0  0  0  0  0  0  0
  -49.3612   68.5304  -17.8831 C   0  0  0  0  0  0  0  0  0  0  0  0
  -49.4490   70.0376  -19.6958 O   0  0  0  0  0  0  0  0  0  0  0  0
  -49.2223   67.0864  -18.2480 C   0  0  0  0  0  0  0  0  0  0  0  0
  -48.3383   66.7402  -19.3889 C   0  0  0  0  0  0  0  0  0  0  0  0
  -48.8664   67.1655  -20.7487 C   0  0  0  0  0  0  0  0  0  0  0  0
  -48.0137   66.9196  -22.0034 C   0  0  0  0  0  0  0  0  0  0  0  0
  -46.7821   67.5376  -22.0759 N   0  0  0  0  0  0  0  0  0  0  0  0
  1  2  1  0  0  0  0
  1  3  1  0  0  0  0
  1  4  1  0  0  0  0
  3  5  1  0  0  0  0
  5  6  1  0  0  0  0
  6  7  1  0  0  0  0
  7  8  1  0  0  0  0
  8  9  1  0  0  0  0
M  END
>  <CHROM.1>
84.84451765,70.14865316,-69.71176880,177.30007987,-61.44878316,-49.08424387
68.11699888,-19.74006808,2.94366262,-0.91412422,2.28772661

>  <Name>
ligand

>  <RI>
0

>  <Rbt.Current_Directory>
/home/itssahil/PROJECTS/Mol_Feturizer/Test_systems_manuscript/rnas/4erj

>  <Rbt.Executable>
rbdock ($Id: //depot/dev/client3/rdock/2013.1/src/exe/rbdock.cxx#4 $)

>  <Rbt.Library>
libRbt.so (2013.1, Build901 2013/11/27)

>  <Rbt.Parameter_File>
/export/apps/rDock/src/rDock_2013.1_src/data/scripts/dock_solv.prm

>  <Rbt.Receptor>
prm/pocket_docking_4.prm

>  <SCORE>
-14.6185

>  <SCORE.INTER>
-11.9006

>  <SCORE.INTER.CONST>
1

>  <SCORE.INTER.POLAR>
0

>  <SCORE.INTER.ROT>
5

>  <SCORE.INTER.SOLV>
7.68632

>  <SCORE.INTER.VDW>
-17.4292

>  <SCORE.INTER.norm>
-1.32229

>  <SCORE.INTRA>
-2.71792

>  <SCORE.INTRA.DIHEDRAL>
-5.11459

>  <SCORE.INTRA.DIHEDRAL.0>
7.73744

>  <SCORE.INTRA.POLAR>
0

>  <SCORE.INTRA.POLAR.0>
0

>  <SCORE.INTRA.REPUL>
0

>  <SCORE.INTRA.REPUL.0>
0

>  <SCORE.INTRA.SOLV>
0.513131

>  <SCORE.INTRA.SOLV.lig_0>
-15.8342

>  <SCORE.INTRA.VDW>
-0.417194

>  <SCORE.INTRA.VDW.0>
-0.219494

>  <SCORE.INTRA.norm>
-0.301992

>  <SCORE.RESTR>
0

>  <SCORE.RESTR.CAVITY>
0

>  <SCORE.RESTR.norm>
0

>  <SCORE.SYSTEM>
0

>  <SCORE.SYSTEM.CONST>
0

>  <SCORE.SYSTEM.DIHEDRAL>
0

>  <SCORE.SYSTEM.SOLV>
0

>  <SCORE.SYSTEM.norm>
0

>  <SCORE.heavy>
9

>  <SCORE.norm>
-1.62428

>  <RMSD>
5.320

$$$$
ligand
 OpenBabel02271912143D
libRbt.so/2013.1/901 2013/11/27
  9  8  0  0  0  0  0  0  0  0999 V2000
  -50.2859   69.4074  -18.9878 C   0  0  0  0  0  0  0  0  0  0  0  0
  -51.5117   69.4356  -18.6051 O   0  0  0  0  0  0  0  0  0  0  0  0
  -49.3080   68.5880  -18.2607 C   0  0  0  0  0  0  0  0  0  0  0  0
  -49.8787   70.1137  -19.9670 O   0  0  0  0  0  0  0  0  0  0  0  0
  -49.2706   67.1429  -18.6449 C   0  0  0  0  0  0  0  0  0  0  0  0
  -49.0421   66.8095  -20.0731 C   0  0  0  0  0  0  0  0  0  0  0  0
  -47.6533   67.1502  -20.5867 C   0  0  0  0  0  0  0  0  0  0  0  0
  -47.3367   66.9853  -22.0815 C   0  0  0  0  0  0  0  0  0  0  0  0
  -47.9674   67.8319  -22.9702 N   0  0  0  0  0  0  0  0  0  0  0  0
  1  2  1  0  0  0  0
  1  3  1  0  0  0  0
  1  4  1  0  0  0  0
  3  5  1  0  0  0  0
  5  6  1  0  0  0  0
  6  7  1  0  0  0  0
  7  8  1  0  0  0  0
  8  9  1  0  0  0  0
M  END
>  <CHROM.1>
83.18406106,55.77196487,67.97121776,-173.87480850,67.66399366,-49.16940871
68.19283059,-20.01284162,2.83503628,-0.89258793,2.18125302

>  <Name>
ligand

>  <RI>
0

>  <Rbt.Current_Directory>
/home/itssahil/PROJECTS/Mol_Feturizer/Test_systems_manuscript/rnas/4erj

>  <Rbt.Executable>
rbdock ($Id: //depot/dev/client3/rdock/2013.1/src/exe/rbdock.cxx#4 $)

>  <Rbt.Library>
libRbt.so (2013.1, Build901 2013/11/27)

>  <Rbt.Parameter_File>
/export/apps/rDock/src/rDock_2013.1_src/data/scripts/dock_solv.prm

>  <Rbt.Receptor>
prm/pocket_docking_3.prm

>  <SCORE>
-14.2644

>  <SCORE.INTER>
-11.488

>  <SCORE.INTER.CONST>
1

>  <SCORE.INTER.POLAR>
0

>  <SCORE.INTER.ROT>
5

>  <SCORE.INTER.SOLV>
8.2993

>  <SCORE.INTER.VDW>
-17.3584

>  <SCORE.INTER.norm>
-1.27645

>  <SCORE.INTRA>
-2.77642

>  <SCORE.INTRA.DIHEDRAL>
-5.25273

>  <SCORE.INTRA.DIHEDRAL.0>
7.73744

>  <SCORE.INTRA.POLAR>
0

>  <SCORE.INTRA.POLAR.0>
0

>  <SCORE.INTRA.REPUL>
0

>  <SCORE.INTRA.REPUL.0>
0

>  <SCORE.INTRA.SOLV>
0.470092

>  <SCORE.INTRA.SOLV.lig_0>
-15.8342

>  <SCORE.INTRA.VDW>
-0.385103

>  <SCORE.INTRA.VDW.0>
-0.219494

>  <SCORE.INTRA.norm>
-0.308491

>  <SCORE.RESTR>
0

>  <SCORE.RESTR.CAVITY>
0

>  <SCORE.RESTR.norm>
0

>  <SCORE.SYSTEM>
0

>  <SCORE.SYSTEM.CONST>
0

>  <SCORE.SYSTEM.DIHEDRAL>
0

>  <SCORE.SYSTEM.SOLV>
0

>  <SCORE.SYSTEM.norm>
0

>  <SCORE.heavy>
9

>  <SCORE.norm>
-1.58494

>  <RMSD>
5.322

$$$$
ligand
 OpenBabel02271912143D
libRbt.so/2013.1/901 2013/11/27
  9  8  0  0  0  0  0  0  0  0999 V2000
  -49.2089   67.4701  -18.6308 C   0  0  0  0  0  0  0  0  0  0  0  0
  -48.5688   66.4354  -19.0428 O   0  0  0  0  0  0  0  0  0  0  0  0
  -49.6861   68.4705  -19.5940 C   0  0  0  0  0  0  0  0  0  0  0  0
  -49.4066   67.6788  -17.3895 O   0  0  0  0  0  0  0  0  0  0  0  0
  -48.6236   69.3221  -20.2132 C   0  0  0  0  0  0  0  0  0  0  0  0
  -47.5212   68.6408  -20.9367 C   0  0  0  0  0  0  0  0  0  0  0  0
  -47.9590   67.8615  -22.1654 C   0  0  0  0  0  0  0  0  0  0  0  0
  -46.9249   67.0362  -22.9473 C   0  0  0  0  0  0  0  0  0  0  0  0
  -45.8528   67.7055  -23.5011 N   0  0  0  0  0  0  0  0  0  0  0  0
  1  2  1  0  0  0  0
  1  3  1  0  0  0  0
  1  4  1  0  0  0  0
  3  5  1  0  0  0  0
  5  6  1  0  0  0  0
  6  7  1  0  0  0  0
  7  8  1  0  0  0  0
  8  9  1  0  0  0  0
M  END
>  <CHROM.1>
-71.94066569,56.99788626,63.67563537,-175.98518877,-60.57592580,-48.20348277
67.82838672,-20.44994706,-2.69393419,0.99200295,-0.52536036

>  <Name>
ligand

>  <RI>
0

>  <Rbt.Current_Directory>
/home/itssahil/PROJECTS/Mol_Feturizer/Test_systems_manuscript/rnas/4erj

>  <Rbt.Executable>
rbdock ($Id: //depot/dev/client3/rdock/2013.1/src/exe/rbdock.cxx#4 $)

>  <Rbt.Library>
libRbt.so (2013.1, Build901 2013/11/27)

>  <Rbt.Parameter_File>
/export/apps/rDock/src/rDock_2013.1_src/data/scripts/dock_solv.prm

>  <Rbt.Receptor>
prm/pocket_docking_3.prm

>  <SCORE>
-12.9388

>  <SCORE.INTER>
-10.0863

>  <SCORE.INTER.CONST>
1

>  <SCORE.INTER.POLAR>
0

>  <SCORE.INTER.ROT>
5

>  <SCORE.INTER.SOLV>
6.67124

>  <SCORE.INTER.VDW>
-15.8813

>  <SCORE.INTER.norm>
-1.1207

>  <SCORE.INTRA>
-2.86299

>  <SCORE.INTRA.DIHEDRAL>
-5.95832

>  <SCORE.INTRA.DIHEDRAL.0>
7.73744

>  <SCORE.INTRA.POLAR>
0

>  <SCORE.INTRA.POLAR.0>
0

>  <SCORE.INTRA.REPUL>
0

>  <SCORE.INTRA.REPUL.0>
0

>  <SCORE.INTRA.SOLV>
0.497128

>  <SCORE.INTRA.SOLV.lig_0>
-15.8342

>  <SCORE.INTRA.VDW>
-0.132395

>  <SCORE.INTRA.VDW.0>
-0.219494

>  <SCORE.INTRA.norm>
-0.31811

>  <SCORE.RESTR>
0.0105426

>  <SCORE.RESTR.CAVITY>
0.0105426

>  <SCORE.RESTR.norm>
0.0011714

>  <SCORE.SYSTEM>
0

>  <SCORE.SYSTEM.CONST>
0

>  <SCORE.SYSTEM.DIHEDRAL>
0

>  <SCORE.SYSTEM.SOLV>
0

>  <SCORE.SYSTEM.norm>
0

>  <SCORE.heavy>
9

>  <SCORE.norm>
-1.43764

>  <RMSD>
5.322

$$$$
ligand
 OpenBabel02271912143D
libRbt.so/2013.1/901 2013/11/27
  9  8  0  0  0  0  0  0  0  0999 V2000
  -49.0713   68.5129  -18.6315 C   0  0  0  0  0  0  0  0  0  0  0  0
  -49.2571   68.2007  -17.3995 O   0  0  0  0  0  0  0  0  0  0  0  0
  -49.7903   67.7907  -19.6888 C   0  0  0  0  0  0  0  0  0  0  0  0
  -48.2368   69.4141  -18.9705 O   0  0  0  0  0  0  0  0  0  0  0  0
  -49.0834   66.5947  -20.2430 C   0  0  0  0  0  0  0  0  0  0  0  0
  -47.8352   66.8207  -21.0137 C   0  0  0  0  0  0  0  0  0  0  0  0
  -48.0208   67.6095  -22.2990 C   0  0  0  0  0  0  0  0  0  0  0  0
  -46.8052   67.8952  -23.1948 C   0  0  0  0  0  0  0  0  0  0  0  0
  -47.0135   68.6196  -24.3507 N   0  0  0  0  0  0  0  0  0  0  0  0
  1  2  1  0  0  0  0
  1  3  1  0  0  0  0
  1  4  1  0  0  0  0
  3  5  1  0  0  0  0
  5  6  1  0  0  0  0
  6  7  1  0  0  0  0
  7  8  1  0  0  0  0
  8  9  1  0  0  0  0
M  END
>  <CHROM.1>
-91.09770712,-66.89047775,-63.87129593,-179.27738375,-179.72912417,-48.34709637
67.95738777,-20.59886720,-2.36059444,-1.03952810,-2.34024322

>  <Name>
ligand

>  <RI>
0

>  <Rbt.Current_Directory>
/home/itssahil/PROJECTS/Mol_Feturizer/Test_systems_manuscript/rnas/4erj

>  <Rbt.Executable>
rbdock ($Id: //depot/dev/client3/rdock/2013.1/src/exe/rbdock.cxx#4 $)

>  <Rbt.Library>
libRbt.so (2013.1, Build901 2013/11/27)

>  <Rbt.Parameter_File>
/export/apps/rDock/src/rDock_2013.1_src/data/scripts/dock_solv.prm

>  <Rbt.Receptor>
prm/pocket_docking_3.prm

>  <SCORE>
-12.8333

>  <SCORE.INTER>
-9.54311

>  <SCORE.INTER.CONST>
1

>  <SCORE.INTER.POLAR>
0

>  <SCORE.INTER.ROT>
5

>  <SCORE.INTER.SOLV>
7.95975

>  <SCORE.INTER.VDW>
-15.9487

>  <SCORE.INTER.norm>
-1.06035

>  <SCORE.INTRA>
-3.2907

>  <SCORE.INTRA.DIHEDRAL>
-5.89532

>  <SCORE.INTRA.DIHEDRAL.0>
7.73744

>  <SCORE.INTRA.POLAR>
0

>  <SCORE.INTRA.POLAR.0>
0

>  <SCORE.INTRA.REPUL>
0

>  <SCORE.INTRA.REPUL.0>
0

>  <SCORE.INTRA.SOLV>
-0.132294

>  <SCORE.INTRA.SOLV.lig_0>
-15.8342

>  <SCORE.INTRA.VDW>
-0.276891

>  <SCORE.INTRA.VDW.0>
-0.219494

>  <SCORE.INTRA.norm>
-0.365633

>  <SCORE.RESTR>
0.000505714

>  <SCORE.RESTR.CAVITY>
0.000505714

>  <SCORE.RESTR.norm>
5.61905e-05

>  <SCORE.SYSTEM>
0

>  <SCORE.SYSTEM.CONST>
0

>  <SCORE.SYSTEM.DIHEDRAL>
0

>  <SCORE.SYSTEM.SOLV>
0

>  <SCORE.SYSTEM.norm>
0

>  <SCORE.heavy>
9

>  <SCORE.norm>
-1.42592

>  <RMSD>
5.324

$$$$
ligand
 OpenBabel02271912143D
libRbt.so/2013.1/901 2013/11/27
  9  8  0  0  0  0  0  0  0  0999 V2000
  -48.8285   67.4579  -18.3312 C   0  0  0  0  0  0  0  0  0  0  0  0
  -49.5581   67.2096  -17.3036 O   0  0  0  0  0  0  0  0  0  0  0  0
  -48.6541   68.8415  -18.7914 C   0  0  0  0  0  0  0  0  0  0  0  0
  -48.2792   66.5216  -18.9985 O   0  0  0  0  0  0  0  0  0  0  0  0
  -49.4288   69.2122  -20.0160 C   0  0  0  0  0  0  0  0  0  0  0  0
  -49.1753   68.4408  -21.2584 C   0  0  0  0  0  0  0  0  0  0  0  0
  -47.7369   68.4841  -21.7462 C   0  0  0  0  0  0  0  0  0  0  0  0
  -47.3420   67.7056  -23.0110 C   0  0  0  0  0  0  0  0  0  0  0  0
  -46.0145   67.7196  -23.3872 N   0  0  0  0  0  0  0  0  0  0  0  0
  1  2  1  0  0  0  0
  1  3  1  0  0  0  0
  1  4  1  0  0  0  0
  3  5  1  0  0  0  0
  5  6  1  0  0  0  0
  6  7  1  0  0  0  0
  7  8  1  0  0  0  0
  8  9  1  0  0  0  0
M  END
>  <CHROM.1>
-104.37754954,-59.29773945,-58.92144557,179.00692636,-177.07666441,-48.34583981
67.92907905,-20.28002554,-2.23850740,0.84695670,-0.95966552

>  <Name>
ligand

>  <RI>
0

>  <Rbt.Current_Directory>
/home/itssahil/PROJECTS/Mol_Feturizer/Test_systems_manuscript/rnas/4erj

>  <Rbt.Executable>
rbdock ($Id: //depot/dev/client3/rdock/2013.1/src/exe/rbdock.cxx#4 $)

>  <Rbt.Library>
libRbt.so (2013.1, Build901 2013/11/27)

>  <Rbt.Parameter_File>
/export/apps/rDock/src/rDock_2013.1_src/data/scripts/dock_solv.prm

>  <Rbt.Receptor>
prm/pocket_docking_4.prm

>  <SCORE>
-13.0444

>  <SCORE.INTER>
-9.90243

>  <SCORE.INTER.CONST>
1

>  <SCORE.INTER.POLAR>
0

>  <SCORE.INTER.ROT>
5

>  <SCORE.INTER.SOLV>
6.45117

>  <SCORE.INTER.VDW>
-15.6853

>  <SCORE.INTER.norm>
-1.10027

>  <SCORE.INTRA>
-3.14201

>  <SCORE.INTRA.DIHEDRAL>
-6.08331

>  <SCORE.INTRA.DIHEDRAL.0>
7.73744

>  <SCORE.INTRA.POLAR>
0

>  <SCORE.INTRA.POLAR.0>
0

>  <SCORE.INTRA.REPUL>
0

>  <SCORE.INTRA.REPUL.0>
0

>  <SCORE.INTRA.SOLV>
-0.134678

>  <SCORE.INTRA.SOLV.lig_0>
-15.8342

>  <SCORE.INTRA.VDW>
-0.0330142

>  <SCORE.INTRA.VDW.0>
-0.219494

>  <SCORE.INTRA.norm>
-0.349112

>  <SCORE.RESTR>
0

>  <SCORE.RESTR.CAVITY>
0

>  <SCORE.RESTR.norm>
0

>  <SCORE.SYSTEM>
0

>  <SCORE.SYSTEM.CONST>
0

>  <SCORE.SYSTEM.DIHEDRAL>
0

>  <SCORE.SYSTEM.SOLV>
0

>  <SCORE.SYSTEM.norm>
0

>  <SCORE.heavy>
9

>  <SCORE.norm>
-1.44938

>  <RMSD>
5.324

$$$$
ligand
 OpenBabel02271912143D
libRbt.so/2013.1/901 2013/11/27
  9  8  0  0  0  0  0  0  0  0999 V2000
  -50.2351   69.4307  -18.9575 C   0  0  0  0  0  0  0  0  0  0  0  0
  -49.8678   70.1787  -19.9350 O   0  0  0  0  0  0  0  0  0  0  0  0
  -49.2529   68.5782  -18.2756 C   0  0  0  0  0  0  0  0  0  0  0  0
  -51.4523   69.3730  -18.5853 O   0  0  0  0  0  0  0  0  0  0  0  0
  -49.2605   67.1391  -18.6833 C   0  0  0  0  0  0  0  0  0  0  0  0
  -49.0462   66.8222  -20.1174 C   0  0  0  0  0  0  0  0  0  0  0  0
  -47.6420   67.1058  -20.6238 C   0  0  0  0  0  0  0  0  0  0  0  0
  -47.3293   66.9455  -22.1199 C   0  0  0  0  0  0  0  0  0  0  0  0
  -47.9064   67.8404  -22.9975 N   0  0  0  0  0  0  0  0  0  0  0  0
  1  2  1  0  0  0  0
  1  3  1  0  0  0  0
  1  4  1  0  0  0  0
  3  5  1  0  0  0  0
  5  6  1  0  0  0  0
  6  7  1  0  0  0  0
  7  8  1  0  0  0  0
  8  9  1  0  0  0  0
M  END
>  <CHROM.1>
-100.30533206,57.51764743,69.00868788,-174.26776910,68.38919462,-49.14050348
68.18691927,-20.02546185,2.86293635,-0.91045907,2.22167868

>  <Name>
ligand

>  <RI>
0

>  <Rbt.Current_Directory>
/home/itssahil/PROJECTS/Mol_Feturizer/Test_systems_manuscript/rnas/4erj

>  <Rbt.Executable>
rbdock ($Id: //depot/dev/client3/rdock/2013.1/src/exe/rbdock.cxx#4 $)

>  <Rbt.Library>
libRbt.so (2013.1, Build901 2013/11/27)

>  <Rbt.Parameter_File>
/export/apps/rDock/src/rDock_2013.1_src/data/scripts/dock_solv.prm

>  <Rbt.Receptor>
prm/pocket_docking_8.prm

>  <SCORE>
-14.3662

>  <SCORE.INTER>
-11.5366

>  <SCORE.INTER.CONST>
1

>  <SCORE.INTER.POLAR>
0

>  <SCORE.INTER.ROT>
5

>  <SCORE.INTER.SOLV>
8.20786

>  <SCORE.INTER.VDW>
-17.3603

>  <SCORE.INTER.norm>
-1.28184

>  <SCORE.INTRA>
-2.82959

>  <SCORE.INTRA.DIHEDRAL>
-5.38179

>  <SCORE.INTRA.DIHEDRAL.0>
7.73744

>  <SCORE.INTRA.POLAR>
0

>  <SCORE.INTRA.POLAR.0>
0

>  <SCORE.INTRA.REPUL>
0

>  <SCORE.INTRA.REPUL.0>
0

>  <SCORE.INTRA.SOLV>
0.461114

>  <SCORE.INTRA.SOLV.lig_0>
-15.8342

>  <SCORE.INTRA.VDW>
-0.369245

>  <SCORE.INTRA.VDW.0>
-0.219494

>  <SCORE.INTRA.norm>
-0.314398

>  <SCORE.RESTR>
0

>  <SCORE.RESTR.CAVITY>
0

>  <SCORE.RESTR.norm>
0

>  <SCORE.SYSTEM>
0

>  <SCORE.SYSTEM.CONST>
0

>  <SCORE.SYSTEM.DIHEDRAL>
0

>  <SCORE.SYSTEM.SOLV>
0

>  <SCORE.SYSTEM.norm>
0

>  <SCORE.heavy>
9

>  <SCORE.norm>
-1.59624

>  <RMSD>
5.328

$$$$
ligand
 OpenBabel02271912143D
libRbt.so/2013.1/901 2013/11/27
  9  8  0  0  0  0  0  0  0  0999 V2000
  -51.1285   70.8596  -20.3642 C   0  0  0  0  0  0  0  0  0  0  0  0
  -50.9274   72.1166  -20.1923 O   0  0  0  0  0  0  0  0  0  0  0  0
  -51.4907   70.0107  -19.2221 C   0  0  0  0  0  0  0  0  0  0  0  0
  -50.9780   70.3121  -21.5049 O   0  0  0  0  0  0  0  0  0  0  0  0
  -50.4265   69.0652  -18.7631 C   0  0  0  0  0  0  0  0  0  0  0  0
  -49.8618   68.1190  -19.7576 C   0  0  0  0  0  0  0  0  0  0  0  0
  -48.6043   67.3987  -19.3008 C   0  0  0  0  0  0  0  0  0  0  0  0
  -47.7792   66.5956  -20.3186 C   0  0  0  0  0  0  0  0  0  0  0  0
  -47.2436   67.2759  -21.3931 N   0  0  0  0  0  0  0  0  0  0  0  0
  1  2  1  0  0  0  0
  1  3  1  0  0  0  0
  1  4  1  0  0  0  0
  3  5  1  0  0  0  0
  5  6  1  0  0  0  0
  6  7  1  0  0  0  0
  7  8  1  0  0  0  0
  8  9  1  0  0  0  0
M  END
>  <CHROM.1>
-108.76928729,-55.95299325,168.00800779,-168.79122080,60.70998391,-49.84126213
69.12166877,-20.10954889,-2.66575070,-0.78731411,2.24099372

>  <Name>
ligand

>  <RI>
0

>  <Rbt.Current_Directory>
/home/itssahil/PROJECTS/Mol_Feturizer/Test_systems_manuscript/rnas/4erj

>  <Rbt.Executable>
rbdock ($Id: //depot/dev/client3/rdock/2013.1/src/exe/rbdock.cxx#4 $)

>  <Rbt.Library>
libRbt.so (2013.1, Build901 2013/11/27)

>  <Rbt.Parameter_File>
/export/apps/rDock/src/rDock_2013.1_src/data/scripts/dock_solv.prm

>  <Rbt.Receptor>
prm/pocket_docking_8.prm

>  <SCORE>
-13.2895

>  <SCORE.INTER>
-10.857

>  <SCORE.INTER.CONST>
1

>  <SCORE.INTER.POLAR>
0

>  <SCORE.INTER.ROT>
5

>  <SCORE.INTER.SOLV>
8.06167

>  <SCORE.INTER.VDW>
-16.8586

>  <SCORE.INTER.norm>
-1.20633

>  <SCORE.INTRA>
-2.43254

>  <SCORE.INTRA.DIHEDRAL>
-4.94213

>  <SCORE.INTRA.DIHEDRAL.0>
7.73744

>  <SCORE.INTRA.POLAR>
0

>  <SCORE.INTRA.POLAR.0>
0

>  <SCORE.INTRA.REPUL>
0

>  <SCORE.INTRA.REPUL.0>
0

>  <SCORE.INTRA.SOLV>
0.574669

>  <SCORE.INTRA.SOLV.lig_0>
-15.8342

>  <SCORE.INTRA.VDW>
-0.248813

>  <SCORE.INTRA.VDW.0>
-0.219494

>  <SCORE.INTRA.norm>
-0.270283

>  <SCORE.RESTR>
0

>  <SCORE.RESTR.CAVITY>
0

>  <SCORE.RESTR.norm>
0

>  <SCORE.SYSTEM>
0

>  <SCORE.SYSTEM.CONST>
0

>  <SCORE.SYSTEM.DIHEDRAL>
0

>  <SCORE.SYSTEM.SOLV>
0

>  <SCORE.SYSTEM.norm>
0

>  <SCORE.heavy>
9

>  <SCORE.norm>
-1.47661

>  <RMSD>
5.329

$$$$
ligand
 OpenBabel02271912143D
libRbt.so/2013.1/901 2013/11/27
  9  8  0  0  0  0  0  0  0  0999 V2000
  -48.8665   67.4582  -18.3793 C   0  0  0  0  0  0  0  0  0  0  0  0
  -48.3309   66.4922  -19.0350 O   0  0  0  0  0  0  0  0  0  0  0  0
  -48.6734   68.8442  -18.8244 C   0  0  0  0  0  0  0  0  0  0  0  0
  -49.5336   67.2493  -17.3140 O   0  0  0  0  0  0  0  0  0  0  0  0
  -49.3961   69.2214  -20.0785 C   0  0  0  0  0  0  0  0  0  0  0  0
  -49.1071   68.4419  -21.3081 C   0  0  0  0  0  0  0  0  0  0  0  0
  -47.6640   68.5153  -21.7777 C   0  0  0  0  0  0  0  0  0  0  0  0
  -47.2261   67.7077  -23.0097 C   0  0  0  0  0  0  0  0  0  0  0  0
  -45.8948   67.7544  -23.3700 N   0  0  0  0  0  0  0  0  0  0  0  0
  1  2  1  0  0  0  0
  1  3  1  0  0  0  0
  1  4  1  0  0  0  0
  3  5  1  0  0  0  0
  5  6  1  0  0  0  0
  6  7  1  0  0  0  0
  7  8  1  0  0  0  0
  8  9  1  0  0  0  0
M  END
>  <CHROM.1>
71.26654038,-58.29751901,-61.61158780,177.67497315,-177.21704608,-48.31010829
67.93928408,-20.30770524,-2.27353206,0.84387346,-0.92531210

>  <Name>
ligand

>  <RI>
0

>  <Rbt.Current_Directory>
/home/itssahil/PROJECTS/Mol_Feturizer/Test_systems_manuscript/rnas/4erj

>  <Rbt.Executable>
rbdock ($Id: //depot/dev/client3/rdock/2013.1/src/exe/rbdock.cxx#4 $)

>  <Rbt.Library>
libRbt.so (2013.1, Build901 2013/11/27)

>  <Rbt.Parameter_File>
/export/apps/rDock/src/rDock_2013.1_src/data/scripts/dock_solv.prm

>  <Rbt.Receptor>
prm/pocket_docking_3.prm

>  <SCORE>
-13.1566

>  <SCORE.INTER>
-10.0337

>  <SCORE.INTER.CONST>
1

>  <SCORE.INTER.POLAR>
0

>  <SCORE.INTER.ROT>
5

>  <SCORE.INTER.SOLV>
6.51078

>  <SCORE.INTER.VDW>
-15.7927

>  <SCORE.INTER.norm>
-1.11486

>  <SCORE.INTRA>
-3.12291

>  <SCORE.INTRA.DIHEDRAL>
-5.93161

>  <SCORE.INTRA.DIHEDRAL.0>
7.73744

>  <SCORE.INTRA.POLAR>
0

>  <SCORE.INTRA.POLAR.0>
0

>  <SCORE.INTRA.REPUL>
0

>  <SCORE.INTRA.REPUL.0>
0

>  <SCORE.INTRA.SOLV>
-0.134164

>  <SCORE.INTRA.SOLV.lig_0>
-15.8342

>  <SCORE.INTRA.VDW>
-0.0900221

>  <SCORE.INTRA.VDW.0>
-0.219494

>  <SCORE.INTRA.norm>
-0.34699

>  <SCORE.RESTR>
0

>  <SCORE.RESTR.CAVITY>
0

>  <SCORE.RESTR.norm>
0

>  <SCORE.SYSTEM>
0

>  <SCORE.SYSTEM.CONST>
0

>  <SCORE.SYSTEM.DIHEDRAL>
0

>  <SCORE.SYSTEM.SOLV>
0

>  <SCORE.SYSTEM.norm>
0

>  <SCORE.heavy>
9

>  <SCORE.norm>
-1.46185

>  <RMSD>
5.330

$$$$
ligand
 OpenBabel02271912143D
libRbt.so/2013.1/901 2013/11/27
  9  8  0  0  0  0  0  0  0  0999 V2000
  -50.3957   69.5188  -19.0733 C   0  0  0  0  0  0  0  0  0  0  0  0
  -51.6084   69.6128  -18.6605 O   0  0  0  0  0  0  0  0  0  0  0  0
  -49.4127   68.7527  -18.2967 C   0  0  0  0  0  0  0  0  0  0  0  0
  -50.0045   70.1156  -20.1290 O   0  0  0  0  0  0  0  0  0  0  0  0
  -49.3583   67.2886  -18.5977 C   0  0  0  0  0  0  0  0  0  0  0  0
  -49.0875   66.8768  -19.9977 C   0  0  0  0  0  0  0  0  0  0  0  0
  -47.6864   67.1974  -20.4905 C   0  0  0  0  0  0  0  0  0  0  0  0
  -47.3291   66.9586  -21.9660 C   0  0  0  0  0  0  0  0  0  0  0  0
  -47.9443   67.7508  -22.9137 N   0  0  0  0  0  0  0  0  0  0  0  0
  1  2  1  0  0  0  0
  1  3  1  0  0  0  0
  1  4  1  0  0  0  0
  3  5  1  0  0  0  0
  5  6  1  0  0  0  0
  6  7  1  0  0  0  0
  7  8  1  0  0  0  0
  8  9  1  0  0  0  0
M  END
>  <CHROM.1>
86.79044794,57.19684906,67.90567900,-173.51309016,67.28191170,-49.23380170
68.26034281,-20.00918334,2.84575242,-0.86742235,2.12777671

>  <Name>
ligand

>  <RI>
0

>  <Rbt.Current_Directory>
/home/itssahil/PROJECTS/Mol_Feturizer/Test_systems_manuscript/rnas/4erj

>  <Rbt.Executable>
rbdock ($Id: //depot/dev/client3/rdock/2013.1/src/exe/rbdock.cxx#4 $)

>  <Rbt.Library>
libRbt.so (2013.1, Build901 2013/11/27)

>  <Rbt.Parameter_File>
/export/apps/rDock/src/rDock_2013.1_src/data/scripts/dock_solv.prm

>  <Rbt.Receptor>
prm/pocket_docking_3.prm

>  <SCORE>
-14.2065

>  <SCORE.INTER>
-11.4136

>  <SCORE.INTER.CONST>
1

>  <SCORE.INTER.POLAR>
0

>  <SCORE.INTER.ROT>
5

>  <SCORE.INTER.SOLV>
8.14189

>  <SCORE.INTER.VDW>
-17.2564

>  <SCORE.INTER.norm>
-1.26818

>  <SCORE.INTRA>
-2.79283

>  <SCORE.INTRA.DIHEDRAL>
-5.295

>  <SCORE.INTRA.DIHEDRAL.0>
7.73744

>  <SCORE.INTRA.POLAR>
0

>  <SCORE.INTRA.POLAR.0>
0

>  <SCORE.INTRA.REPUL>
0

>  <SCORE.INTRA.REPUL.0>
0

>  <SCORE.INTRA.SOLV>
0.475951

>  <SCORE.INTRA.SOLV.lig_0>
-15.8342

>  <SCORE.INTRA.VDW>
-0.383308

>  <SCORE.INTRA.VDW.0>
-0.219494

>  <SCORE.INTRA.norm>
-0.310315

>  <SCORE.RESTR>
0

>  <SCORE.RESTR.CAVITY>
0

>  <SCORE.RESTR.norm>
0

>  <SCORE.SYSTEM>
0

>  <SCORE.SYSTEM.CONST>
0

>  <SCORE.SYSTEM.DIHEDRAL>
0

>  <SCORE.SYSTEM.SOLV>
0

>  <SCORE.SYSTEM.norm>
0

>  <SCORE.heavy>
9

>  <SCORE.norm>
-1.5785

>  <RMSD>
5.332

$$$$
ligand
 OpenBabel02271912143D
libRbt.so/2013.1/901 2013/11/27
  9  8  0  0  0  0  0  0  0  0999 V2000
  -50.2238   69.4539  -18.9520 C   0  0  0  0  0  0  0  0  0  0  0  0
  -49.8459   70.2206  -19.9107 O   0  0  0  0  0  0  0  0  0  0  0  0
  -49.2503   68.5842  -18.2795 C   0  0  0  0  0  0  0  0  0  0  0  0
  -51.4444   69.3927  -18.5914 O   0  0  0  0  0  0  0  0  0  0  0  0
  -49.2859   67.1458  -18.6883 C   0  0  0  0  0  0  0  0  0  0  0  0
  -49.0595   66.8246  -20.1196 C   0  0  0  0  0  0  0  0  0  0  0  0
  -47.6435   67.0799  -20.6078 C   0  0  0  0  0  0  0  0  0  0  0  0
  -47.3178   66.9257  -22.1017 C   0  0  0  0  0  0  0  0  0  0  0  0
  -47.8454   67.8550  -22.9748 N   0  0  0  0  0  0  0  0  0  0  0  0
  1  2  1  0  0  0  0
  1  3  1  0  0  0  0
  1  4  1  0  0  0  0
  3  5  1  0  0  0  0
  5  6  1  0  0  0  0
  6  7  1  0  0  0  0
  7  8  1  0  0  0  0
  8  9  1  0  0  0  0
M  END
>  <CHROM.1>
-102.00054120,58.85725247,68.81213179,-173.71317473,69.47164511,-49.13191207
68.19502741,-20.01766682,2.90760675,-0.91671605,2.26575685

>  <Name>
ligand

>  <RI>
0

>  <Rbt.Current_Directory>
/home/itssahil/PROJECTS/Mol_Feturizer/Test_systems_manuscript/rnas/4erj

>  <Rbt.Executable>
rbdock ($Id: //depot/dev/client3/rdock/2013.1/src/exe/rbdock.cxx#4 $)

>  <Rbt.Library>
libRbt.so (2013.1, Build901 2013/11/27)

>  <Rbt.Parameter_File>
/export/apps/rDock/src/rDock_2013.1_src/data/scripts/dock_solv.prm

>  <Rbt.Receptor>
prm/pocket_docking_4.prm

>  <SCORE>
-14.3406

>  <SCORE.INTER>
-11.5415

>  <SCORE.INTER.CONST>
1

>  <SCORE.INTER.POLAR>
0

>  <SCORE.INTER.ROT>
5

>  <SCORE.INTER.SOLV>
8.02859

>  <SCORE.INTER.VDW>
-17.3039

>  <SCORE.INTER.norm>
-1.28239

>  <SCORE.INTRA>
-2.79908

>  <SCORE.INTRA.DIHEDRAL>
-5.31293

>  <SCORE.INTRA.DIHEDRAL.0>
7.73744

>  <SCORE.INTRA.POLAR>
0

>  <SCORE.INTRA.POLAR.0>
0

>  <SCORE.INTRA.REPUL>
0

>  <SCORE.INTRA.REPUL.0>
0

>  <SCORE.INTRA.SOLV>
0.45316

>  <SCORE.INTRA.SOLV.lig_0>
-15.8342

>  <SCORE.INTRA.VDW>
-0.369199

>  <SCORE.INTRA.VDW.0>
-0.219494

>  <SCORE.INTRA.norm>
-0.311009

>  <SCORE.RESTR>
0

>  <SCORE.RESTR.CAVITY>
0

>  <SCORE.RESTR.norm>
0

>  <SCORE.SYSTEM>
0

>  <SCORE.SYSTEM.CONST>
0

>  <SCORE.SYSTEM.DIHEDRAL>
0

>  <SCORE.SYSTEM.SOLV>
0

>  <SCORE.SYSTEM.norm>
0

>  <SCORE.heavy>
9

>  <SCORE.norm>
-1.5934

>  <RMSD>
5.332

$$$$
ligand
 OpenBabel02271912143D
libRbt.so/2013.1/901 2013/11/27
  9  8  0  0  0  0  0  0  0  0999 V2000
  -50.8404   69.3600  -19.3209 C   0  0  0  0  0  0  0  0  0  0  0  0
  -51.7809   69.7471  -18.5365 O   0  0  0  0  0  0  0  0  0  0  0  0
  -49.4647   69.2487  -18.8195 C   0  0  0  0  0  0  0  0  0  0  0  0
  -51.0614   69.1080  -20.5503 O   0  0  0  0  0  0  0  0  0  0  0  0
  -49.0994   67.9193  -18.2394 C   0  0  0  0  0  0  0  0  0  0  0  0
  -49.0994   66.7428  -19.1444 C   0  0  0  0  0  0  0  0  0  0  0  0
  -48.0988   66.8234  -20.2850 C   0  0  0  0  0  0  0  0  0  0  0  0
  -48.3736   67.7639  -21.4689 C   0  0  0  0  0  0  0  0  0  0  0  0
  -47.4511   67.7939  -22.4948 N   0  0  0  0  0  0  0  0  0  0  0  0
  1  2  1  0  0  0  0
  1  3  1  0  0  0  0
  1  4  1  0  0  0  0
  3  5  1  0  0  0  0
  5  6  1  0  0  0  0
  6  7  1  0  0  0  0
  7  8  1  0  0  0  0
  8  9  1  0  0  0  0
M  END
>  <CHROM.1>
89.66879697,64.10092250,62.43585321,-73.84118030,-179.03461479,-49.51317903
68.29700209,-19.87142496,2.72471382,-0.69054509,1.85044223

>  <Name>
ligand

>  <RI>
0

>  <Rbt.Current_Directory>
/home/itssahil/PROJECTS/Mol_Feturizer/Test_systems_manuscript/rnas/4erj

>  <Rbt.Executable>
rbdock ($Id: //depot/dev/client3/rdock/2013.1/src/exe/rbdock.cxx#4 $)

>  <Rbt.Library>
libRbt.so (2013.1, Build901 2013/11/27)

>  <Rbt.Parameter_File>
/export/apps/rDock/src/rDock_2013.1_src/data/scripts/dock_solv.prm

>  <Rbt.Receptor>
prm/pocket_docking_3.prm

>  <SCORE>
-13.6607

>  <SCORE.INTER>
-11.1619

>  <SCORE.INTER.CONST>
1

>  <SCORE.INTER.POLAR>
0

>  <SCORE.INTER.ROT>
5

>  <SCORE.INTER.SOLV>
6.66192

>  <SCORE.INTER.VDW>
-16.5953

>  <SCORE.INTER.norm>
-1.24022

>  <SCORE.INTRA>
-2.49871

>  <SCORE.INTRA.DIHEDRAL>
-5.08937

>  <SCORE.INTRA.DIHEDRAL.0>
7.73744

>  <SCORE.INTRA.POLAR>
0

>  <SCORE.INTRA.POLAR.0>
0

>  <SCORE.INTRA.REPUL>
0

>  <SCORE.INTRA.REPUL.0>
0

>  <SCORE.INTRA.SOLV>
0.185489

>  <SCORE.INTRA.SOLV.lig_0>
-15.8342

>  <SCORE.INTRA.VDW>
-0.0467738

>  <SCORE.INTRA.VDW.0>
-0.219494

>  <SCORE.INTRA.norm>
-0.277635

>  <SCORE.RESTR>
0

>  <SCORE.RESTR.CAVITY>
0

>  <SCORE.RESTR.norm>
0

>  <SCORE.SYSTEM>
0

>  <SCORE.SYSTEM.CONST>
0

>  <SCORE.SYSTEM.DIHEDRAL>
0

>  <SCORE.SYSTEM.SOLV>
0

>  <SCORE.SYSTEM.norm>
0

>  <SCORE.heavy>
9

>  <SCORE.norm>
-1.51785

>  <RMSD>
5.334

$$$$
ligand
 OpenBabel02271912143D
libRbt.so/2013.1/901 2013/11/27
  9  8  0  0  0  0  0  0  0  0999 V2000
  -48.9195   68.4630  -18.4667 C   0  0  0  0  0  0  0  0  0  0  0  0
  -49.5034   68.8880  -17.4045 O   0  0  0  0  0  0  0  0  0  0  0  0
  -49.0714   67.0615  -18.8779 C   0  0  0  0  0  0  0  0  0  0  0  0
  -48.1663   69.2216  -19.1601 O   0  0  0  0  0  0  0  0  0  0  0  0
  -48.0978   66.5870  -19.9095 C   0  0  0  0  0  0  0  0  0  0  0  0
  -48.1813   67.1791  -21.2680 C   0  0  0  0  0  0  0  0  0  0  0  0
  -47.0138   66.8377  -22.1785 C   0  0  0  0  0  0  0  0  0  0  0  0
  -46.9849   67.3894  -23.6126 C   0  0  0  0  0  0  0  0  0  0  0  0
  -47.0459   68.7581  -23.7771 N   0  0  0  0  0  0  0  0  0  0  0  0
  1  2  1  0  0  0  0
  1  3  1  0  0  0  0
  1  4  1  0  0  0  0
  3  5  1  0  0  0  0
  5  6  1  0  0  0  0
  6  7  1  0  0  0  0
  7  8  1  0  0  0  0
  8  9  1  0  0  0  0
M  END
>  <CHROM.1>
-165.32636139,-66.43117955,169.45855483,179.90137809,57.33304389,-48.11912819
67.84836169,-20.48014144,-2.96439712,-1.19415259,-3.09881459

>  <Name>
ligand

>  <RI>
0

>  <Rbt.Current_Directory>
/home/itssahil/PROJECTS/Mol_Feturizer/Test_systems_manuscript/rnas/4erj

>  <Rbt.Executable>
rbdock ($Id: //depot/dev/client3/rdock/2013.1/src/exe/rbdock.cxx#4 $)

>  <Rbt.Library>
libRbt.so (2013.1, Build901 2013/11/27)

>  <Rbt.Parameter_File>
/export/apps/rDock/src/rDock_2013.1_src/data/scripts/dock_solv.prm

>  <Rbt.Receptor>
prm/blind_docking_100.prm

>  <SCORE>
-12.191

>  <SCORE.INTER>
-10.3305

>  <SCORE.INTER.CONST>
1

>  <SCORE.INTER.POLAR>
0

>  <SCORE.INTER.ROT>
5

>  <SCORE.INTER.SOLV>
7.84792

>  <SCORE.INTER.VDW>
-16.4363

>  <SCORE.INTER.norm>
-1.14784

>  <SCORE.INTRA>
-1.86044

>  <SCORE.INTRA.DIHEDRAL>
-5.33877

>  <SCORE.INTRA.DIHEDRAL.0>
7.73744

>  <SCORE.INTRA.POLAR>
0

>  <SCORE.INTRA.POLAR.0>
0

>  <SCORE.INTRA.REPUL>
0

>  <SCORE.INTRA.REPUL.0>
0

>  <SCORE.INTRA.SOLV>
0.552865

>  <SCORE.INTRA.SOLV.lig_0>
-15.8342

>  <SCORE.INTRA.VDW>
0.532515

>  <SCORE.INTRA.VDW.0>
-0.219494

>  <SCORE.INTRA.norm>
-0.206716

>  <SCORE.RESTR>
0

>  <SCORE.RESTR.CAVITY>
0

>  <SCORE.RESTR.norm>
0

>  <SCORE.SYSTEM>
0

>  <SCORE.SYSTEM.CONST>
0

>  <SCORE.SYSTEM.DIHEDRAL>
0

>  <SCORE.SYSTEM.SOLV>
0

>  <SCORE.SYSTEM.norm>
0

>  <SCORE.heavy>
9

>  <SCORE.norm>
-1.35455

>  <RMSD>
5.335

$$$$
ligand
 OpenBabel02271912143D
libRbt.so/2013.1/901 2013/11/27
  9  8  0  0  0  0  0  0  0  0999 V2000
  -49.6865   68.1863  -18.5969 C   0  0  0  0  0  0  0  0  0  0  0  0
  -49.3862   68.9001  -17.5721 O   0  0  0  0  0  0  0  0  0  0  0  0
  -48.9625   66.9359  -18.8589 C   0  0  0  0  0  0  0  0  0  0  0  0
  -50.5771   68.5587  -19.4286 O   0  0  0  0  0  0  0  0  0  0  0  0
  -48.0537   66.9582  -20.0467 C   0  0  0  0  0  0  0  0  0  0  0  0
  -48.6712   67.0686  -21.3919 C   0  0  0  0  0  0  0  0  0  0  0  0
  -47.6967   66.9203  -22.5482 C   0  0  0  0  0  0  0  0  0  0  0  0
  -46.6579   68.0223  -22.8096 C   0  0  0  0  0  0  0  0  0  0  0  0
  -45.6681   68.2105  -21.8667 N   0  0  0  0  0  0  0  0  0  0  0  0
  1  2  1  0  0  0  0
  1  3  1  0  0  0  0
  1  4  1  0  0  0  0
  3  5  1  0  0  0  0
  5  6  1  0  0  0  0
  6  7  1  0  0  0  0
  7  8  1  0  0  0  0
  8  9  1  0  0  0  0
M  END
>  <CHROM.1>
-110.10038153,-67.36273577,-173.15264087,-69.38025147,66.80033754,-48.40260069
67.77440654,-20.31707269,-2.25573843,-0.32505834,-1.99660921

>  <Name>
ligand

>  <RI>
0

>  <Rbt.Current_Directory>
/home/itssahil/PROJECTS/Mol_Feturizer/Test_systems_manuscript/rnas/4erj

>  <Rbt.Executable>
rbdock ($Id: //depot/dev/client3/rdock/2013.1/src/exe/rbdock.cxx#4 $)

>  <Rbt.Library>
libRbt.so (2013.1, Build901 2013/11/27)

>  <Rbt.Parameter_File>
/export/apps/rDock/src/rDock_2013.1_src/data/scripts/dock_solv.prm

>  <Rbt.Receptor>
prm/pocket_docking_7.prm

>  <SCORE>
-11.2592

>  <SCORE.INTER>
-9.13851

>  <SCORE.INTER.CONST>
1

>  <SCORE.INTER.POLAR>
0

>  <SCORE.INTER.ROT>
5

>  <SCORE.INTER.SOLV>
9.93248

>  <SCORE.INTER.VDW>
-16.3365

>  <SCORE.INTER.norm>
-1.01539

>  <SCORE.INTRA>
-2.12069

>  <SCORE.INTRA.DIHEDRAL>
-5.148

>  <SCORE.INTRA.DIHEDRAL.0>
7.73744

>  <SCORE.INTRA.POLAR>
0

>  <SCORE.INTRA.POLAR.0>
0

>  <SCORE.INTRA.REPUL>
0

>  <SCORE.INTRA.REPUL.0>
0

>  <SCORE.INTRA.SOLV>
1.51454

>  <SCORE.INTRA.SOLV.lig_0>
-15.8342

>  <SCORE.INTRA.VDW>
-0.30396

>  <SCORE.INTRA.VDW.0>
-0.219494

>  <SCORE.INTRA.norm>
-0.235632

>  <SCORE.RESTR>
0

>  <SCORE.RESTR.CAVITY>
0

>  <SCORE.RESTR.norm>
0

>  <SCORE.SYSTEM>
0

>  <SCORE.SYSTEM.CONST>
0

>  <SCORE.SYSTEM.DIHEDRAL>
0

>  <SCORE.SYSTEM.SOLV>
0

>  <SCORE.SYSTEM.norm>
0

>  <SCORE.heavy>
9

>  <SCORE.norm>
-1.25102

>  <RMSD>
5.336

$$$$
ligand
 OpenBabel02271912143D
libRbt.so/2013.1/901 2013/11/27
  9  8  0  0  0  0  0  0  0  0999 V2000
  -50.2534   69.4523  -18.9349 C   0  0  0  0  0  0  0  0  0  0  0  0
  -49.8897   70.2247  -19.8946 O   0  0  0  0  0  0  0  0  0  0  0  0
  -49.2651   68.5972  -18.2652 C   0  0  0  0  0  0  0  0  0  0  0  0
  -51.4719   69.3729  -18.5708 O   0  0  0  0  0  0  0  0  0  0  0  0
  -49.2805   67.1584  -18.6739 C   0  0  0  0  0  0  0  0  0  0  0  0
  -49.0784   66.8420  -20.1099 C   0  0  0  0  0  0  0  0  0  0  0  0
  -47.6768   67.1200  -20.6266 C   0  0  0  0  0  0  0  0  0  0  0  0
  -47.3719   66.9436  -22.1225 C   0  0  0  0  0  0  0  0  0  0  0  0
  -47.9280   67.8482  -23.0038 N   0  0  0  0  0  0  0  0  0  0  0  0
  1  2  1  0  0  0  0
  1  3  1  0  0  0  0
  1  4  1  0  0  0  0
  3  5  1  0  0  0  0
  5  6  1  0  0  0  0
  6  7  1  0  0  0  0
  7  8  1  0  0  0  0
  8  9  1  0  0  0  0
M  END
>  <CHROM.1>
-102.00682958,57.75346240,69.07737812,-174.99523524,69.89420294,-49.16528876
68.20322672,-20.01479598,2.86763691,-0.91834966,2.22922315

>  <Name>
ligand

>  <RI>
0

>  <Rbt.Current_Directory>
/home/itssahil/PROJECTS/Mol_Feturizer/Test_systems_manuscript/rnas/4erj

>  <Rbt.Executable>
rbdock ($Id: //depot/dev/client3/rdock/2013.1/src/exe/rbdock.cxx#4 $)

>  <Rbt.Library>
libRbt.so (2013.1, Build901 2013/11/27)

>  <Rbt.Parameter_File>
/export/apps/rDock/src/rDock_2013.1_src/data/scripts/dock_solv.prm

>  <Rbt.Receptor>
prm/pocket_docking_4.prm

>  <SCORE>
-14.377

>  <SCORE.INTER>
-11.581

>  <SCORE.INTER.CONST>
1

>  <SCORE.INTER.POLAR>
0

>  <SCORE.INTER.ROT>
5

>  <SCORE.INTER.SOLV>
8.29953

>  <SCORE.INTER.VDW>
-17.4205

>  <SCORE.INTER.norm>
-1.28678

>  <SCORE.INTRA>
-2.79599

>  <SCORE.INTRA.DIHEDRAL>
-5.30824

>  <SCORE.INTRA.DIHEDRAL.0>
7.73744

>  <SCORE.INTRA.POLAR>
0

>  <SCORE.INTRA.POLAR.0>
0

>  <SCORE.INTRA.REPUL>
0

>  <SCORE.INTRA.REPUL.0>
0

>  <SCORE.INTRA.SOLV>
0.442131

>  <SCORE.INTRA.SOLV.lig_0>
-15.8342

>  <SCORE.INTRA.VDW>
-0.362932

>  <SCORE.INTRA.VDW.0>
-0.219494

>  <SCORE.INTRA.norm>
-0.310665

>  <SCORE.RESTR>
0

>  <SCORE.RESTR.CAVITY>
0

>  <SCORE.RESTR.norm>
0

>  <SCORE.SYSTEM>
0

>  <SCORE.SYSTEM.CONST>
0

>  <SCORE.SYSTEM.DIHEDRAL>
0

>  <SCORE.SYSTEM.SOLV>
0

>  <SCORE.SYSTEM.norm>
0

>  <SCORE.heavy>
9

>  <SCORE.norm>
-1.59744

>  <RMSD>
5.344

$$$$
ligand
 OpenBabel02271912143D
libRbt.so/2013.1/901 2013/11/27
  9  8  0  0  0  0  0  0  0  0999 V2000
  -50.9034   69.9690  -19.5756 C   0  0  0  0  0  0  0  0  0  0  0  0
  -52.1053   69.6759  -19.9211 O   0  0  0  0  0  0  0  0  0  0  0  0
  -50.1697   69.0926  -18.6537 C   0  0  0  0  0  0  0  0  0  0  0  0
  -50.3367   71.0359  -19.9806 O   0  0  0  0  0  0  0  0  0  0  0  0
  -49.0625   68.2976  -19.2697 C   0  0  0  0  0  0  0  0  0  0  0  0
  -49.4186   67.3012  -20.3106 C   0  0  0  0  0  0  0  0  0  0  0  0
  -48.2299   66.6011  -20.9475 C   0  0  0  0  0  0  0  0  0  0  0  0
  -47.2029   67.4232  -21.7420 C   0  0  0  0  0  0  0  0  0  0  0  0
  -47.6483   68.1083  -22.8539 N   0  0  0  0  0  0  0  0  0  0  0  0
  1  2  1  0  0  0  0
  1  3  1  0  0  0  0
  1  4  1  0  0  0  0
  3  5  1  0  0  0  0
  5  6  1  0  0  0  0
  6  7  1  0  0  0  0
  7  8  1  0  0  0  0
  8  9  1  0  0  0  0
M  END
>  <CHROM.1>
108.33802013,-63.19279872,176.26187826,-62.79262154,-60.97224556,-49.48493208
68.64407785,-20.36094138,-3.00592498,-0.79625032,2.43979369

>  <Name>
ligand

>  <RI>
0

>  <Rbt.Current_Directory>
/home/itssahil/PROJECTS/Mol_Feturizer/Test_systems_manuscript/rnas/4erj

>  <Rbt.Executable>
rbdock ($Id: //depot/dev/client3/rdock/2013.1/src/exe/rbdock.cxx#4 $)

>  <Rbt.Library>
libRbt.so (2013.1, Build901 2013/11/27)

>  <Rbt.Parameter_File>
/export/apps/rDock/src/rDock_2013.1_src/data/scripts/dock_solv.prm

>  <Rbt.Receptor>
prm/pocket_docking_5.prm

>  <SCORE>
-13.0683

>  <SCORE.INTER>
-10.3592

>  <SCORE.INTER.CONST>
1

>  <SCORE.INTER.POLAR>
0

>  <SCORE.INTER.ROT>
5

>  <SCORE.INTER.SOLV>
6.69862

>  <SCORE.INTER.VDW>
-16.0723

>  <SCORE.INTER.norm>
-1.15102

>  <SCORE.INTRA>
-2.70911

>  <SCORE.INTRA.DIHEDRAL>
-5.85755

>  <SCORE.INTRA.DIHEDRAL.0>
7.73744

>  <SCORE.INTRA.POLAR>
0

>  <SCORE.INTRA.POLAR.0>
0

>  <SCORE.INTRA.REPUL>
0

>  <SCORE.INTRA.REPUL.0>
0

>  <SCORE.INTRA.SOLV>
1.05122

>  <SCORE.INTRA.SOLV.lig_0>
-15.8342

>  <SCORE.INTRA.VDW>
-0.305942

>  <SCORE.INTRA.VDW.0>
-0.219494

>  <SCORE.INTRA.norm>
-0.301012

>  <SCORE.RESTR>
0

>  <SCORE.RESTR.CAVITY>
0

>  <SCORE.RESTR.norm>
0

>  <SCORE.SYSTEM>
0

>  <SCORE.SYSTEM.CONST>
0

>  <SCORE.SYSTEM.DIHEDRAL>
0

>  <SCORE.SYSTEM.SOLV>
0

>  <SCORE.SYSTEM.norm>
0

>  <SCORE.heavy>
9

>  <SCORE.norm>
-1.45203

>  <RMSD>
5.351

$$$$
ligand
 OpenBabel02271912143D
libRbt.so/2013.1/901 2013/11/27
  9  8  0  0  0  0  0  0  0  0999 V2000
  -50.1292   69.3469  -18.8016 C   0  0  0  0  0  0  0  0  0  0  0  0
  -49.4728   70.1148  -19.5948 O   0  0  0  0  0  0  0  0  0  0  0  0
  -49.4166   68.3727  -17.9653 C   0  0  0  0  0  0  0  0  0  0  0  0
  -51.4021   69.3759  -18.7503 O   0  0  0  0  0  0  0  0  0  0  0  0
  -49.1402   67.0529  -18.6127 C   0  0  0  0  0  0  0  0  0  0  0  0
  -48.1918   67.0240  -19.7541 C   0  0  0  0  0  0  0  0  0  0  0  0
  -48.7520   67.5750  -21.0546 C   0  0  0  0  0  0  0  0  0  0  0  0
  -47.8100   67.8101  -22.2459 C   0  0  0  0  0  0  0  0  0  0  0  0
  -47.0800   66.7355  -22.7112 N   0  0  0  0  0  0  0  0  0  0  0  0
  1  2  1  0  0  0  0
  1  3  1  0  0  0  0
  1  4  1  0  0  0  0
  3  5  1  0  0  0  0
  5  6  1  0  0  0  0
  6  7  1  0  0  0  0
  7  8  1  0  0  0  0
  8  9  1  0  0  0  0
M  END
>  <CHROM.1>
-86.43661781,66.72222352,-74.69719343,170.24385754,57.03156691,-49.06998911
68.18682476,-19.93718958,2.79748297,-0.92639406,2.18514205

>  <Name>
ligand

>  <RI>
0

>  <Rbt.Current_Directory>
/home/itssahil/PROJECTS/Mol_Feturizer/Test_systems_manuscript/rnas/4erj

>  <Rbt.Executable>
rbdock ($Id: //depot/dev/client3/rdock/2013.1/src/exe/rbdock.cxx#4 $)

>  <Rbt.Library>
libRbt.so (2013.1, Build901 2013/11/27)

>  <Rbt.Parameter_File>
/export/apps/rDock/src/rDock_2013.1_src/data/scripts/dock_solv.prm

>  <Rbt.Receptor>
prm/pocket_docking_6.prm

>  <SCORE>
-13.3813

>  <SCORE.INTER>
-10.9219

>  <SCORE.INTER.CONST>
1

>  <SCORE.INTER.POLAR>
0

>  <SCORE.INTER.ROT>
5

>  <SCORE.INTER.SOLV>
9.36066

>  <SCORE.INTER.VDW>
-17.3348

>  <SCORE.INTER.norm>
-1.21355

>  <SCORE.INTRA>
-2.4594

>  <SCORE.INTRA.DIHEDRAL>
-4.68359

>  <SCORE.INTRA.DIHEDRAL.0>
7.73744

>  <SCORE.INTRA.POLAR>
0

>  <SCORE.INTRA.POLAR.0>
0

>  <SCORE.INTRA.REPUL>
0

>  <SCORE.INTRA.REPUL.0>
0

>  <SCORE.INTRA.SOLV>
0.516408

>  <SCORE.INTRA.SOLV.lig_0>
-15.8342

>  <SCORE.INTRA.VDW>
-0.375807

>  <SCORE.INTRA.VDW.0>
-0.219494

>  <SCORE.INTRA.norm>
-0.273266

>  <SCORE.RESTR>
0

>  <SCORE.RESTR.CAVITY>
0

>  <SCORE.RESTR.norm>
0

>  <SCORE.SYSTEM>
0

>  <SCORE.SYSTEM.CONST>
0

>  <SCORE.SYSTEM.DIHEDRAL>
0

>  <SCORE.SYSTEM.SOLV>
0

>  <SCORE.SYSTEM.norm>
0

>  <SCORE.heavy>
9

>  <SCORE.norm>
-1.48681

>  <RMSD>
5.352

$$$$
ligand
 OpenBabel02271912143D
libRbt.so/2013.1/901 2013/11/27
  9  8  0  0  0  0  0  0  0  0999 V2000
  -49.0097   68.4274  -18.6169 C   0  0  0  0  0  0  0  0  0  0  0  0
  -49.2232   67.9735  -17.4344 O   0  0  0  0  0  0  0  0  0  0  0  0
  -49.7541   67.8812  -19.7588 C   0  0  0  0  0  0  0  0  0  0  0  0
  -48.1273   69.3197  -18.8373 O   0  0  0  0  0  0  0  0  0  0  0  0
  -49.1559   66.6649  -20.3914 C   0  0  0  0  0  0  0  0  0  0  0  0
  -47.8589   66.8155  -21.0973 C   0  0  0  0  0  0  0  0  0  0  0  0
  -47.9270   67.6343  -22.3754 C   0  0  0  0  0  0  0  0  0  0  0  0
  -46.6703   67.7839  -23.2472 C   0  0  0  0  0  0  0  0  0  0  0  0
  -46.7774   68.5189  -24.4101 N   0  0  0  0  0  0  0  0  0  0  0  0
  1  2  1  0  0  0  0
  1  3  1  0  0  0  0
  1  4  1  0  0  0  0
  3  5  1  0  0  0  0
  5  6  1  0  0  0  0
  6  7  1  0  0  0  0
  7  8  1  0  0  0  0
  8  9  1  0  0  0  0
M  END
>  <CHROM.1>
-86.63474664,-67.04336126,-68.47506053,-175.91650845,179.07319920,-48.27916376
67.90575507,-20.63887886,-2.25499606,-0.94178666,-2.20374820

>  <Name>
ligand

>  <RI>
0

>  <Rbt.Current_Directory>
/home/itssahil/PROJECTS/Mol_Feturizer/Test_systems_manuscript/rnas/4erj

>  <Rbt.Executable>
rbdock ($Id: //depot/dev/client3/rdock/2013.1/src/exe/rbdock.cxx#4 $)

>  <Rbt.Library>
libRbt.so (2013.1, Build901 2013/11/27)

>  <Rbt.Parameter_File>
/export/apps/rDock/src/rDock_2013.1_src/data/scripts/dock_solv.prm

>  <Rbt.Receptor>
prm/pocket_docking_6.prm

>  <SCORE>
-12.7833

>  <SCORE.INTER>
-9.57317

>  <SCORE.INTER.CONST>
1

>  <SCORE.INTER.POLAR>
0

>  <SCORE.INTER.ROT>
5

>  <SCORE.INTER.SOLV>
7.91434

>  <SCORE.INTER.VDW>
-15.9536

>  <SCORE.INTER.norm>
-1.06369

>  <SCORE.INTRA>
-3.21013

>  <SCORE.INTRA.DIHEDRAL>
-5.58241

>  <SCORE.INTRA.DIHEDRAL.0>
7.73744

>  <SCORE.INTRA.POLAR>
0

>  <SCORE.INTRA.POLAR.0>
0

>  <SCORE.INTRA.REPUL>
0

>  <SCORE.INTRA.REPUL.0>
0

>  <SCORE.INTRA.SOLV>
-0.131287

>  <SCORE.INTRA.SOLV.lig_0>
-15.8342

>  <SCORE.INTRA.VDW>
-0.353281

>  <SCORE.INTRA.VDW.0>
-0.219494

>  <SCORE.INTRA.norm>
-0.356681

>  <SCORE.RESTR>
0

>  <SCORE.RESTR.CAVITY>
0

>  <SCORE.RESTR.norm>
0

>  <SCORE.SYSTEM>
0

>  <SCORE.SYSTEM.CONST>
0

>  <SCORE.SYSTEM.DIHEDRAL>
0

>  <SCORE.SYSTEM.SOLV>
0

>  <SCORE.SYSTEM.norm>
0

>  <SCORE.heavy>
9

>  <SCORE.norm>
-1.42037

>  <RMSD>
5.357

$$$$
ligand
 OpenBabel02271912143D
libRbt.so/2013.1/901 2013/11/27
  9  8  0  0  0  0  0  0  0  0999 V2000
  -48.7552   68.3882  -18.4583 C   0  0  0  0  0  0  0  0  0  0  0  0
  -49.4665   68.6629  -17.4247 O   0  0  0  0  0  0  0  0  0  0  0  0
  -48.6020   66.9946  -18.8954 C   0  0  0  0  0  0  0  0  0  0  0  0
  -48.1343   69.2978  -19.0990 O   0  0  0  0  0  0  0  0  0  0  0  0
  -49.3251   66.6344  -20.1543 C   0  0  0  0  0  0  0  0  0  0  0  0
  -48.9416   67.3408  -21.4021 C   0  0  0  0  0  0  0  0  0  0  0  0
  -47.5210   67.0717  -21.8690 C   0  0  0  0  0  0  0  0  0  0  0  0
  -47.0035   67.7466  -23.1491 C   0  0  0  0  0  0  0  0  0  0  0  0
  -45.6942   67.5118  -23.5163 N   0  0  0  0  0  0  0  0  0  0  0  0
  1  2  1  0  0  0  0
  1  3  1  0  0  0  0
  1  4  1  0  0  0  0
  3  5  1  0  0  0  0
  5  6  1  0  0  0  0
  6  7  1  0  0  0  0
  7  8  1  0  0  0  0
  8  9  1  0  0  0  0
M  END
>  <CHROM.1>
108.38310704,61.98071976,64.56949790,-179.93092607,177.91490507,-48.17111655
67.76681404,-20.40452072,-2.22130445,-0.76979815,-2.23873034

>  <Name>
ligand

>  <RI>
0

>  <Rbt.Current_Directory>
/home/itssahil/PROJECTS/Mol_Feturizer/Test_systems_manuscript/rnas/4erj

>  <Rbt.Executable>
rbdock ($Id: //depot/dev/client3/rdock/2013.1/src/exe/rbdock.cxx#4 $)

>  <Rbt.Library>
libRbt.so (2013.1, Build901 2013/11/27)

>  <Rbt.Parameter_File>
/export/apps/rDock/src/rDock_2013.1_src/data/scripts/dock_solv.prm

>  <Rbt.Receptor>
prm/pocket_docking_3.prm

>  <SCORE>
-14.0893

>  <SCORE.INTER>
-10.9026

>  <SCORE.INTER.CONST>
1

>  <SCORE.INTER.POLAR>
0

>  <SCORE.INTER.ROT>
5

>  <SCORE.INTER.SOLV>
7.75134

>  <SCORE.INTER.VDW>
-16.7855

>  <SCORE.INTER.norm>
-1.2114

>  <SCORE.INTRA>
-3.1867

>  <SCORE.INTRA.DIHEDRAL>
-5.87499

>  <SCORE.INTRA.DIHEDRAL.0>
7.73744

>  <SCORE.INTRA.POLAR>
0

>  <SCORE.INTRA.POLAR.0>
0

>  <SCORE.INTRA.REPUL>
0

>  <SCORE.INTRA.REPUL.0>
0

>  <SCORE.INTRA.SOLV>
-0.133116

>  <SCORE.INTRA.SOLV.lig_0>
-15.8342

>  <SCORE.INTRA.VDW>
-0.182649

>  <SCORE.INTRA.VDW.0>
-0.219494

>  <SCORE.INTRA.norm>
-0.354078

>  <SCORE.RESTR>
0

>  <SCORE.RESTR.CAVITY>
0

>  <SCORE.RESTR.norm>
0

>  <SCORE.SYSTEM>
0

>  <SCORE.SYSTEM.CONST>
0

>  <SCORE.SYSTEM.DIHEDRAL>
0

>  <SCORE.SYSTEM.SOLV>
0

>  <SCORE.SYSTEM.norm>
0

>  <SCORE.heavy>
9

>  <SCORE.norm>
-1.56548

>  <RMSD>
5.359

$$$$
ligand
 OpenBabel02271912143D
libRbt.so/2013.1/901 2013/11/27
  9  8  0  0  0  0  0  0  0  0999 V2000
  -50.9487   70.0298  -19.5930 C   0  0  0  0  0  0  0  0  0  0  0  0
  -50.4190   71.1336  -19.9815 O   0  0  0  0  0  0  0  0  0  0  0  0
  -50.2427   69.1751  -18.6299 C   0  0  0  0  0  0  0  0  0  0  0  0
  -52.0646   69.6278  -20.0584 O   0  0  0  0  0  0  0  0  0  0  0  0
  -49.1175   68.3671  -19.1943 C   0  0  0  0  0  0  0  0  0  0  0  0
  -49.4454   67.3297  -20.2040 C   0  0  0  0  0  0  0  0  0  0  0  0
  -48.2402   66.6036  -20.7776 C   0  0  0  0  0  0  0  0  0  0  0  0
  -47.2191   67.3809  -21.6231 C   0  0  0  0  0  0  0  0  0  0  0  0
  -47.6555   67.9386  -22.8074 N   0  0  0  0  0  0  0  0  0  0  0  0
  1  2  1  0  0  0  0
  1  3  1  0  0  0  0
  1  4  1  0  0  0  0
  3  5  1  0  0  0  0
  5  6  1  0  0  0  0
  6  7  1  0  0  0  0
  7  8  1  0  0  0  0
  8  9  1  0  0  0  0
M  END
>  <CHROM.1>
-77.10480408,-64.31237769,177.04612427,-65.27787240,-62.95096725,-49.51499970
68.65283563,-20.32063866,-3.02160082,-0.80228293,2.36336322

>  <Name>
ligand

>  <RI>
0

>  <Rbt.Current_Directory>
/home/itssahil/PROJECTS/Mol_Feturizer/Test_systems_manuscript/rnas/4erj

>  <Rbt.Executable>
rbdock ($Id: //depot/dev/client3/rdock/2013.1/src/exe/rbdock.cxx#4 $)

>  <Rbt.Library>
libRbt.so (2013.1, Build901 2013/11/27)

>  <Rbt.Parameter_File>
/export/apps/rDock/src/rDock_2013.1_src/data/scripts/dock_solv.prm

>  <Rbt.Receptor>
prm/pocket_docking_4.prm

>  <SCORE>
-13.1913

>  <SCORE.INTER>
-10.3909

>  <SCORE.INTER.CONST>
1

>  <SCORE.INTER.POLAR>
0

>  <SCORE.INTER.ROT>
5

>  <SCORE.INTER.SOLV>
6.70975

>  <SCORE.INTER.VDW>
-16.0972

>  <SCORE.INTER.norm>
-1.15454

>  <SCORE.INTRA>
-2.80039

>  <SCORE.INTRA.DIHEDRAL>
-5.87648

>  <SCORE.INTRA.DIHEDRAL.0>
7.73744

>  <SCORE.INTRA.POLAR>
0

>  <SCORE.INTRA.POLAR.0>
0

>  <SCORE.INTRA.REPUL>
0

>  <SCORE.INTRA.REPUL.0>
0

>  <SCORE.INTRA.SOLV>
0.991453

>  <SCORE.INTRA.SOLV.lig_0>
-15.8342

>  <SCORE.INTRA.VDW>
-0.357872

>  <SCORE.INTRA.VDW.0>
-0.219494

>  <SCORE.INTRA.norm>
-0.311154

>  <SCORE.RESTR>
0

>  <SCORE.RESTR.CAVITY>
0

>  <SCORE.RESTR.norm>
0

>  <SCORE.SYSTEM>
0

>  <SCORE.SYSTEM.CONST>
0

>  <SCORE.SYSTEM.DIHEDRAL>
0

>  <SCORE.SYSTEM.SOLV>
0

>  <SCORE.SYSTEM.norm>
0

>  <SCORE.heavy>
9

>  <SCORE.norm>
-1.46569

>  <RMSD>
5.361

$$$$
ligand
 OpenBabel02271912143D
libRbt.so/2013.1/901 2013/11/27
  9  8  0  0  0  0  0  0  0  0999 V2000
  -48.7560   68.3755  -18.4468 C   0  0  0  0  0  0  0  0  0  0  0  0
  -49.5004   68.6378  -17.4334 O   0  0  0  0  0  0  0  0  0  0  0  0
  -48.5971   66.9886  -18.9023 C   0  0  0  0  0  0  0  0  0  0  0  0
  -48.1074   69.2915  -19.0501 O   0  0  0  0  0  0  0  0  0  0  0  0
  -49.3275   66.6393  -20.1600 C   0  0  0  0  0  0  0  0  0  0  0  0
  -48.9417   67.3464  -21.4067 C   0  0  0  0  0  0  0  0  0  0  0  0
  -47.5209   67.0758  -21.8723 C   0  0  0  0  0  0  0  0  0  0  0  0
  -47.0040   67.7443  -23.1560 C   0  0  0  0  0  0  0  0  0  0  0  0
  -45.6969   67.5023  -23.5262 N   0  0  0  0  0  0  0  0  0  0  0  0
  1  2  1  0  0  0  0
  1  3  1  0  0  0  0
  1  4  1  0  0  0  0
  3  5  1  0  0  0  0
  5  6  1  0  0  0  0
  6  7  1  0  0  0  0
  7  8  1  0  0  0  0
  8  9  1  0  0  0  0
M  END
>  <CHROM.1>
105.84535160,63.04837808,64.03773384,179.68173907,178.28007984,-48.17215655
67.76132905,-20.40249304,-2.21375004,-0.75951341,-2.22621301

>  <Name>
ligand

>  <RI>
0

>  <Rbt.Current_Directory>
/home/itssahil/PROJECTS/Mol_Feturizer/Test_systems_manuscript/rnas/4erj

>  <Rbt.Executable>
rbdock ($Id: //depot/dev/client3/rdock/2013.1/src/exe/rbdock.cxx#4 $)

>  <Rbt.Library>
libRbt.so (2013.1, Build901 2013/11/27)

>  <Rbt.Parameter_File>
/export/apps/rDock/src/rDock_2013.1_src/data/scripts/dock_solv.prm

>  <Rbt.Receptor>
prm/pocket_docking_4.prm

>  <SCORE>
-14.088

>  <SCORE.INTER>
-10.8815

>  <SCORE.INTER.CONST>
1

>  <SCORE.INTER.POLAR>
0

>  <SCORE.INTER.ROT>
5

>  <SCORE.INTER.SOLV>
7.77354

>  <SCORE.INTER.VDW>
-16.7789

>  <SCORE.INTER.norm>
-1.20906

>  <SCORE.INTRA>
-3.20646

>  <SCORE.INTRA.DIHEDRAL>
-5.8665

>  <SCORE.INTRA.DIHEDRAL.0>
7.73744

>  <SCORE.INTRA.POLAR>
0

>  <SCORE.INTRA.POLAR.0>
0

>  <SCORE.INTRA.REPUL>
0

>  <SCORE.INTRA.REPUL.0>
0

>  <SCORE.INTRA.SOLV>
-0.132992

>  <SCORE.INTRA.SOLV.lig_0>
-15.8342

>  <SCORE.INTRA.VDW>
-0.20672

>  <SCORE.INTRA.VDW.0>
-0.219494

>  <SCORE.INTRA.norm>
-0.356274

>  <SCORE.RESTR>
0

>  <SCORE.RESTR.CAVITY>
0

>  <SCORE.RESTR.norm>
0

>  <SCORE.SYSTEM>
0

>  <SCORE.SYSTEM.CONST>
0

>  <SCORE.SYSTEM.DIHEDRAL>
0

>  <SCORE.SYSTEM.SOLV>
0

>  <SCORE.SYSTEM.norm>
0

>  <SCORE.heavy>
9

>  <SCORE.norm>
-1.56533

>  <RMSD>
5.364

$$$$
ligand
 OpenBabel02271912143D
libRbt.so/2013.1/901 2013/11/27
  9  8  0  0  0  0  0  0  0  0999 V2000
  -50.1772   69.2881  -18.7990 C   0  0  0  0  0  0  0  0  0  0  0  0
  -51.4541   69.3715  -18.6878 O   0  0  0  0  0  0  0  0  0  0  0  0
  -49.4276   68.3393  -17.9659 C   0  0  0  0  0  0  0  0  0  0  0  0
  -49.5279   70.0461  -19.5912 O   0  0  0  0  0  0  0  0  0  0  0  0
  -49.1253   67.0224  -18.6076 C   0  0  0  0  0  0  0  0  0  0  0  0
  -48.1854   67.0088  -19.7563 C   0  0  0  0  0  0  0  0  0  0  0  0
  -48.7623   67.5569  -21.0507 C   0  0  0  0  0  0  0  0  0  0  0  0
  -47.8324   67.8077  -22.2483 C   0  0  0  0  0  0  0  0  0  0  0  0
  -47.1051   66.7399  -22.7331 N   0  0  0  0  0  0  0  0  0  0  0  0
  1  2  1  0  0  0  0
  1  3  1  0  0  0  0
  1  4  1  0  0  0  0
  3  5  1  0  0  0  0
  5  6  1  0  0  0  0
  6  7  1  0  0  0  0
  7  8  1  0  0  0  0
  8  9  1  0  0  0  0
M  END
>  <CHROM.1>
95.92706220,67.11139284,-73.86967623,170.23081948,57.81780601,-49.09306342
68.16178124,-19.93066349,2.76365371,-0.91179329,2.15138799

>  <Name>
ligand

>  <RI>
0

>  <Rbt.Current_Directory>
/home/itssahil/PROJECTS/Mol_Feturizer/Test_systems_manuscript/rnas/4erj

>  <Rbt.Executable>
rbdock ($Id: //depot/dev/client3/rdock/2013.1/src/exe/rbdock.cxx#4 $)

>  <Rbt.Library>
libRbt.so (2013.1, Build901 2013/11/27)

>  <Rbt.Parameter_File>
/export/apps/rDock/src/rDock_2013.1_src/data/scripts/dock_solv.prm

>  <Rbt.Receptor>
prm/blind_docking_100.prm

>  <SCORE>
-13.3975

>  <SCORE.INTER>
-11.0487

>  <SCORE.INTER.CONST>
1

>  <SCORE.INTER.POLAR>
0

>  <SCORE.INTER.ROT>
5

>  <SCORE.INTER.SOLV>
9.40471

>  <SCORE.INTER.VDW>
-17.434

>  <SCORE.INTER.norm>
-1.22763

>  <SCORE.INTRA>
-2.34875

>  <SCORE.INTRA.DIHEDRAL>
-4.56848

>  <SCORE.INTRA.DIHEDRAL.0>
7.73744

>  <SCORE.INTRA.POLAR>
0

>  <SCORE.INTRA.POLAR.0>
0

>  <SCORE.INTRA.REPUL>
0

>  <SCORE.INTRA.REPUL.0>
0

>  <SCORE.INTRA.SOLV>
0.508988

>  <SCORE.INTRA.SOLV.lig_0>
-15.8342

>  <SCORE.INTRA.VDW>
-0.319007

>  <SCORE.INTRA.VDW.0>
-0.219494

>  <SCORE.INTRA.norm>
-0.260973

>  <SCORE.RESTR>
0

>  <SCORE.RESTR.CAVITY>
0

>  <SCORE.RESTR.norm>
0

>  <SCORE.SYSTEM>
0

>  <SCORE.SYSTEM.CONST>
0

>  <SCORE.SYSTEM.DIHEDRAL>
0

>  <SCORE.SYSTEM.SOLV>
0

>  <SCORE.SYSTEM.norm>
0

>  <SCORE.heavy>
9

>  <SCORE.norm>
-1.48861

>  <RMSD>
5.366

$$$$
ligand
 OpenBabel02271912143D
libRbt.so/2013.1/901 2013/11/27
  9  8  0  0  0  0  0  0  0  0999 V2000
  -48.7524   68.3530  -18.4361 C   0  0  0  0  0  0  0  0  0  0  0  0
  -49.4843   68.6142  -17.4133 O   0  0  0  0  0  0  0  0  0  0  0  0
  -48.5989   66.9665  -18.8948 C   0  0  0  0  0  0  0  0  0  0  0  0
  -48.1115   69.2696  -19.0465 O   0  0  0  0  0  0  0  0  0  0  0  0
  -49.3236   66.6252  -20.1579 C   0  0  0  0  0  0  0  0  0  0  0  0
  -48.9402   67.3486  -21.3960 C   0  0  0  0  0  0  0  0  0  0  0  0
  -47.5252   67.0728  -21.8759 C   0  0  0  0  0  0  0  0  0  0  0  0
  -47.0149   67.7488  -23.1583 C   0  0  0  0  0  0  0  0  0  0  0  0
  -45.7045   67.5231  -23.5272 N   0  0  0  0  0  0  0  0  0  0  0  0
  1  2  1  0  0  0  0
  1  3  1  0  0  0  0
  1  4  1  0  0  0  0
  3  5  1  0  0  0  0
  5  6  1  0  0  0  0
  6  7  1  0  0  0  0
  7  8  1  0  0  0  0
  8  9  1  0  0  0  0
M  END
>  <CHROM.1>
106.96662922,62.13217951,65.16496294,179.22444149,177.00681069,-48.17238626
67.75225012,-20.39708305,-2.21360195,-0.76566426,-2.22106308

>  <Name>
ligand

>  <RI>
0

>  <Rbt.Current_Directory>
/home/itssahil/PROJECTS/Mol_Feturizer/Test_systems_manuscript/rnas/4erj

>  <Rbt.Executable>
rbdock ($Id: //depot/dev/client3/rdock/2013.1/src/exe/rbdock.cxx#4 $)

>  <Rbt.Library>
libRbt.so (2013.1, Build901 2013/11/27)

>  <Rbt.Parameter_File>
/export/apps/rDock/src/rDock_2013.1_src/data/scripts/dock_solv.prm

>  <Rbt.Receptor>
prm/pocket_docking_4.prm

>  <SCORE>
-14.0912

>  <SCORE.INTER>
-10.9058

>  <SCORE.INTER.CONST>
1

>  <SCORE.INTER.POLAR>
0

>  <SCORE.INTER.ROT>
5

>  <SCORE.INTER.SOLV>
7.75999

>  <SCORE.INTER.VDW>
-16.7905

>  <SCORE.INTER.norm>
-1.21176

>  <SCORE.INTRA>
-3.18539

>  <SCORE.INTRA.DIHEDRAL>
-5.82275

>  <SCORE.INTRA.DIHEDRAL.0>
7.73744

>  <SCORE.INTRA.POLAR>
0

>  <SCORE.INTRA.POLAR.0>
0

>  <SCORE.INTRA.REPUL>
0

>  <SCORE.INTRA.REPUL.0>
0

>  <SCORE.INTRA.SOLV>
-0.132722

>  <SCORE.INTRA.SOLV.lig_0>
-15.8342

>  <SCORE.INTRA.VDW>
-0.20765

>  <SCORE.INTRA.VDW.0>
-0.219494

>  <SCORE.INTRA.norm>
-0.353932

>  <SCORE.RESTR>
0

>  <SCORE.RESTR.CAVITY>
0

>  <SCORE.RESTR.norm>
0

>  <SCORE.SYSTEM>
0

>  <SCORE.SYSTEM.CONST>
0

>  <SCORE.SYSTEM.DIHEDRAL>
0

>  <SCORE.SYSTEM.SOLV>
0

>  <SCORE.SYSTEM.norm>
0

>  <SCORE.heavy>
9

>  <SCORE.norm>
-1.56569

>  <RMSD>
5.366

$$$$
ligand
 OpenBabel02271912143D
libRbt.so/2013.1/901 2013/11/27
  9  8  0  0  0  0  0  0  0  0999 V2000
  -50.9658   69.9646  -19.5701 C   0  0  0  0  0  0  0  0  0  0  0  0
  -52.1571   69.6498  -19.9328 O   0  0  0  0  0  0  0  0  0  0  0  0
  -50.2397   69.1159  -18.6167 C   0  0  0  0  0  0  0  0  0  0  0  0
  -50.4040   71.0302  -19.9855 O   0  0  0  0  0  0  0  0  0  0  0  0
  -49.1185   68.3138  -19.1972 C   0  0  0  0  0  0  0  0  0  0  0  0
  -49.4526   67.2925  -20.2211 C   0  0  0  0  0  0  0  0  0  0  0  0
  -48.2493   66.5981  -20.8364 C   0  0  0  0  0  0  0  0  0  0  0  0
  -47.2412   67.4160  -21.6591 C   0  0  0  0  0  0  0  0  0  0  0  0
  -47.6948   68.0260  -22.8108 N   0  0  0  0  0  0  0  0  0  0  0  0
  1  2  1  0  0  0  0
  1  3  1  0  0  0  0
  1  4  1  0  0  0  0
  3  5  1  0  0  0  0
  5  6  1  0  0  0  0
  6  7  1  0  0  0  0
  7  8  1  0  0  0  0
  8  9  1  0  0  0  0
M  END
>  <CHROM.1>
107.84703489,-63.03769460,175.50539613,-63.79510698,-62.59058953,-49.53456067
68.63292273,-20.31478836,-3.03165922,-0.79192302,2.38491687

>  <Name>
ligand

>  <RI>
0

>  <Rbt.Current_Directory>
/home/itssahil/PROJECTS/Mol_Feturizer/Test_systems_manuscript/rnas/4erj

>  <Rbt.Executable>
rbdock ($Id: //depot/dev/client3/rdock/2013.1/src/exe/rbdock.cxx#4 $)

>  <Rbt.Library>
libRbt.so (2013.1, Build901 2013/11/27)

>  <Rbt.Parameter_File>
/export/apps/rDock/src/rDock_2013.1_src/data/scripts/dock_solv.prm

>  <Rbt.Receptor>
prm/pocket_docking_8.prm

>  <SCORE>
-13.0501

>  <SCORE.INTER>
-10.34

>  <SCORE.INTER.CONST>
1

>  <SCORE.INTER.POLAR>
0

>  <SCORE.INTER.ROT>
5

>  <SCORE.INTER.SOLV>
6.74506

>  <SCORE.INTER.VDW>
-16.075

>  <SCORE.INTER.norm>
-1.14889

>  <SCORE.INTRA>
-2.71014

>  <SCORE.INTRA.DIHEDRAL>
-5.78432

>  <SCORE.INTRA.DIHEDRAL.0>
7.73744

>  <SCORE.INTRA.POLAR>
0

>  <SCORE.INTRA.POLAR.0>
0

>  <SCORE.INTRA.REPUL>
0

>  <SCORE.INTRA.REPUL.0>
0

>  <SCORE.INTRA.SOLV>
1.01375

>  <SCORE.INTRA.SOLV.lig_0>
-15.8342

>  <SCORE.INTRA.VDW>
-0.324855

>  <SCORE.INTRA.VDW.0>
-0.219494

>  <SCORE.INTRA.norm>
-0.301127

>  <SCORE.RESTR>
0

>  <SCORE.RESTR.CAVITY>
0

>  <SCORE.RESTR.norm>
0

>  <SCORE.SYSTEM>
0

>  <SCORE.SYSTEM.CONST>
0

>  <SCORE.SYSTEM.DIHEDRAL>
0

>  <SCORE.SYSTEM.SOLV>
0

>  <SCORE.SYSTEM.norm>
0

>  <SCORE.heavy>
9

>  <SCORE.norm>
-1.45001

>  <RMSD>
5.369

$$$$
ligand
 OpenBabel02271912143D
libRbt.so/2013.1/901 2013/11/27
  9  8  0  0  0  0  0  0  0  0999 V2000
  -50.3034   69.2086  -18.8698 C   0  0  0  0  0  0  0  0  0  0  0  0
  -51.5676   69.2993  -18.6612 O   0  0  0  0  0  0  0  0  0  0  0  0
  -49.4798   68.3363  -18.0229 C   0  0  0  0  0  0  0  0  0  0  0  0
  -49.7279   69.8965  -19.7748 O   0  0  0  0  0  0  0  0  0  0  0  0
  -49.0989   67.0247  -18.6327 C   0  0  0  0  0  0  0  0  0  0  0  0
  -48.1922   67.0421  -19.8077 C   0  0  0  0  0  0  0  0  0  0  0  0
  -48.8588   67.4393  -21.1140 C   0  0  0  0  0  0  0  0  0  0  0  0
  -47.9913   67.7432  -22.3456 C   0  0  0  0  0  0  0  0  0  0  0  0
  -47.1384   66.7546  -22.7920 N   0  0  0  0  0  0  0  0  0  0  0  0
  1  2  1  0  0  0  0
  1  3  1  0  0  0  0
  1  4  1  0  0  0  0
  3  5  1  0  0  0  0
  5  6  1  0  0  0  0
  6  7  1  0  0  0  0
  7  8  1  0  0  0  0
  8  9  1  0  0  0  0
M  END
>  <CHROM.1>
102.12812385,66.25818536,-76.69951806,168.95666315,57.77811338,-49.17919863
68.11189728,-19.99554284,2.65836169,-0.86319230,2.02852960

>  <Name>
ligand

>  <RI>
0

>  <Rbt.Current_Directory>
/home/itssahil/PROJECTS/Mol_Feturizer/Test_systems_manuscript/rnas/4erj

>  <Rbt.Executable>
rbdock ($Id: //depot/dev/client3/rdock/2013.1/src/exe/rbdock.cxx#4 $)

>  <Rbt.Library>
libRbt.so (2013.1, Build901 2013/11/27)

>  <Rbt.Parameter_File>
/export/apps/rDock/src/rDock_2013.1_src/data/scripts/dock_solv.prm

>  <Rbt.Receptor>
prm/pocket_docking_3.prm

>  <SCORE>
-13.1771

>  <SCORE.INTER>
-11.068

>  <SCORE.INTER.CONST>
1

>  <SCORE.INTER.POLAR>
0

>  <SCORE.INTER.ROT>
5

>  <SCORE.INTER.SOLV>
9.50121

>  <SCORE.INTER.VDW>
-17.4791

>  <SCORE.INTER.norm>
-1.22978

>  <SCORE.INTRA>
-2.10911

>  <SCORE.INTRA.DIHEDRAL>
-4.19691

>  <SCORE.INTRA.DIHEDRAL.0>
7.73744

>  <SCORE.INTRA.POLAR>
0

>  <SCORE.INTRA.POLAR.0>
0

>  <SCORE.INTRA.REPUL>
0

>  <SCORE.INTRA.REPUL.0>
0

>  <SCORE.INTRA.SOLV>
0.507468

>  <SCORE.INTRA.SOLV.lig_0>
-15.8342

>  <SCORE.INTRA.VDW>
-0.264388

>  <SCORE.INTRA.VDW.0>
-0.219494

>  <SCORE.INTRA.norm>
-0.234345

>  <SCORE.RESTR>
0

>  <SCORE.RESTR.CAVITY>
0

>  <SCORE.RESTR.norm>
0

>  <SCORE.SYSTEM>
0

>  <SCORE.SYSTEM.CONST>
0

>  <SCORE.SYSTEM.DIHEDRAL>
0

>  <SCORE.SYSTEM.SOLV>
0

>  <SCORE.SYSTEM.norm>
0

>  <SCORE.heavy>
9

>  <SCORE.norm>
-1.46413

>  <RMSD>
5.370

$$$$
ligand
 OpenBabel02271912143D
libRbt.so/2013.1/901 2013/11/27
  9  8  0  0  0  0  0  0  0  0999 V2000
  -49.5586   68.4251  -18.5373 C   0  0  0  0  0  0  0  0  0  0  0  0
  -48.6547   69.2341  -18.1152 O   0  0  0  0  0  0  0  0  0  0  0  0
  -49.1767   67.1152  -19.0802 C   0  0  0  0  0  0  0  0  0  0  0  0
  -50.7913   68.7478  -18.5393 O   0  0  0  0  0  0  0  0  0  0  0  0
  -48.6352   67.1321  -20.4744 C   0  0  0  0  0  0  0  0  0  0  0  0
  -47.4190   67.9412  -20.7374 C   0  0  0  0  0  0  0  0  0  0  0  0
  -46.9589   67.9372  -22.1855 C   0  0  0  0  0  0  0  0  0  0  0  0
  -47.8055   68.6504  -23.2515 C   0  0  0  0  0  0  0  0  0  0  0  0
  -47.3255   68.6737  -24.5451 N   0  0  0  0  0  0  0  0  0  0  0  0
  1  2  1  0  0  0  0
  1  3  1  0  0  0  0
  1  4  1  0  0  0  0
  3  5  1  0  0  0  0
  5  6  1  0  0  0  0
  6  7  1  0  0  0  0
  7  8  1  0  0  0  0
  8  9  1  0  0  0  0
M  END
>  <CHROM.1>
-77.44842433,59.25322094,-178.28384576,69.24496424,177.27717920,-48.50207727
68.22694474,-20.56906875,2.13169089,-0.65751509,1.92520604

>  <Name>
ligand

>  <RI>
0

>  <Rbt.Current_Directory>
/home/itssahil/PROJECTS/Mol_Feturizer/Test_systems_manuscript/rnas/4erj

>  <Rbt.Executable>
rbdock ($Id: //depot/dev/client3/rdock/2013.1/src/exe/rbdock.cxx#4 $)

>  <Rbt.Library>
libRbt.so (2013.1, Build901 2013/11/27)

>  <Rbt.Parameter_File>
/export/apps/rDock/src/rDock_2013.1_src/data/scripts/dock_solv.prm

>  <Rbt.Receptor>
prm/pocket_docking_3.prm

>  <SCORE>
-12.5757

>  <SCORE.INTER>
-9.45507

>  <SCORE.INTER.CONST>
1

>  <SCORE.INTER.POLAR>
0

>  <SCORE.INTER.ROT>
5

>  <SCORE.INTER.SOLV>
7.96112

>  <SCORE.INTER.VDW>
-15.8904

>  <SCORE.INTER.norm>
-1.05056

>  <SCORE.INTRA>
-3.12067

>  <SCORE.INTRA.DIHEDRAL>
-5.74645

>  <SCORE.INTRA.DIHEDRAL.0>
7.73744

>  <SCORE.INTRA.POLAR>
0

>  <SCORE.INTRA.POLAR.0>
0

>  <SCORE.INTRA.REPUL>
0

>  <SCORE.INTRA.REPUL.0>
0

>  <SCORE.INTRA.SOLV>
-0.00280716

>  <SCORE.INTRA.SOLV.lig_0>
-15.8342

>  <SCORE.INTRA.VDW>
-0.246045

>  <SCORE.INTRA.VDW.0>
-0.219494

>  <SCORE.INTRA.norm>
-0.346742

>  <SCORE.RESTR>
0

>  <SCORE.RESTR.CAVITY>
0

>  <SCORE.RESTR.norm>
0

>  <SCORE.SYSTEM>
0

>  <SCORE.SYSTEM.CONST>
0

>  <SCORE.SYSTEM.DIHEDRAL>
0

>  <SCORE.SYSTEM.SOLV>
0

>  <SCORE.SYSTEM.norm>
0

>  <SCORE.heavy>
9

>  <SCORE.norm>
-1.3973

>  <RMSD>
5.373

$$$$
ligand
 OpenBabel02271912143D
libRbt.so/2013.1/901 2013/11/27
  9  8  0  0  0  0  0  0  0  0999 V2000
  -48.8626   67.6418  -18.3447 C   0  0  0  0  0  0  0  0  0  0  0  0
  -49.6602   68.0213  -17.4121 O   0  0  0  0  0  0  0  0  0  0  0  0
  -48.4619   68.5842  -19.3972 C   0  0  0  0  0  0  0  0  0  0  0  0
  -48.4374   66.4424  -18.4087 O   0  0  0  0  0  0  0  0  0  0  0  0
  -49.1267   68.3857  -20.7223 C   0  0  0  0  0  0  0  0  0  0  0  0
  -48.8867   67.1062  -21.4352 C   0  0  0  0  0  0  0  0  0  0  0  0
  -47.4676   66.9249  -21.9470 C   0  0  0  0  0  0  0  0  0  0  0  0
  -46.9371   67.8503  -23.0534 C   0  0  0  0  0  0  0  0  0  0  0  0
  -45.6470   67.6472  -23.4988 N   0  0  0  0  0  0  0  0  0  0  0  0
  1  2  1  0  0  0  0
  1  3  1  0  0  0  0
  1  4  1  0  0  0  0
  3  5  1  0  0  0  0
  5  6  1  0  0  0  0
  6  7  1  0  0  0  0
  7  8  1  0  0  0  0
  8  9  1  0  0  0  0
M  END
>  <CHROM.1>
-104.20800200,-62.76388842,-68.43570197,-65.95859369,-179.49521411,-48.18185050
67.61030888,-20.42298932,-2.28228885,0.80152472,-1.03705649

>  <Name>
ligand

>  <RI>
0

>  <Rbt.Current_Directory>
/home/itssahil/PROJECTS/Mol_Feturizer/Test_systems_manuscript/rnas/4erj

>  <Rbt.Executable>
rbdock ($Id: //depot/dev/client3/rdock/2013.1/src/exe/rbdock.cxx#4 $)

>  <Rbt.Library>
libRbt.so (2013.1, Build901 2013/11/27)

>  <Rbt.Parameter_File>
/export/apps/rDock/src/rDock_2013.1_src/data/scripts/dock_solv.prm

>  <Rbt.Receptor>
prm/pocket_docking_6.prm

>  <SCORE>
-13.0567

>  <SCORE.INTER>
-10.2101

>  <SCORE.INTER.CONST>
1

>  <SCORE.INTER.POLAR>
0

>  <SCORE.INTER.ROT>
5

>  <SCORE.INTER.SOLV>
6.87588

>  <SCORE.INTER.VDW>
-16.032

>  <SCORE.INTER.norm>
-1.13446

>  <SCORE.INTRA>
-2.84652

>  <SCORE.INTRA.DIHEDRAL>
-5.65296

>  <SCORE.INTRA.DIHEDRAL.0>
7.73744

>  <SCORE.INTRA.POLAR>
0

>  <SCORE.INTRA.POLAR.0>
0

>  <SCORE.INTRA.REPUL>
0

>  <SCORE.INTRA.REPUL.0>
0

>  <SCORE.INTRA.SOLV>
0.0137466

>  <SCORE.INTRA.SOLV.lig_0>
-15.8342

>  <SCORE.INTRA.VDW>
-0.026911

>  <SCORE.INTRA.VDW.0>
-0.219494

>  <SCORE.INTRA.norm>
-0.31628

>  <SCORE.RESTR>
0

>  <SCORE.RESTR.CAVITY>
0

>  <SCORE.RESTR.norm>
0

>  <SCORE.SYSTEM>
0

>  <SCORE.SYSTEM.CONST>
0

>  <SCORE.SYSTEM.DIHEDRAL>
0

>  <SCORE.SYSTEM.SOLV>
0

>  <SCORE.SYSTEM.norm>
0

>  <SCORE.heavy>
9

>  <SCORE.norm>
-1.45074

>  <RMSD>
5.386

$$$$
ligand
 OpenBabel02271912143D
libRbt.so/2013.1/901 2013/11/27
  9  8  0  0  0  0  0  0  0  0999 V2000
  -48.8877   67.9953  -18.4933 C   0  0  0  0  0  0  0  0  0  0  0  0
  -49.6086   67.9565  -17.4309 O   0  0  0  0  0  0  0  0  0  0  0  0
  -48.7074   66.7839  -19.3033 C   0  0  0  0  0  0  0  0  0  0  0  0
  -48.2802   69.0583  -18.8461 O   0  0  0  0  0  0  0  0  0  0  0  0
  -47.9251   66.9669  -20.5651 C   0  0  0  0  0  0  0  0  0  0  0  0
  -48.5032   67.8351  -21.6211 C   0  0  0  0  0  0  0  0  0  0  0  0
  -47.6034   68.0472  -22.8269 C   0  0  0  0  0  0  0  0  0  0  0  0
  -48.0575   68.9865  -23.9553 C   0  0  0  0  0  0  0  0  0  0  0  0
  -47.2234   69.1342  -25.0446 N   0  0  0  0  0  0  0  0  0  0  0  0
  1  2  1  0  0  0  0
  1  3  1  0  0  0  0
  1  4  1  0  0  0  0
  3  5  1  0  0  0  0
  5  6  1  0  0  0  0
  6  7  1  0  0  0  0
  7  8  1  0  0  0  0
  8  9  1  0  0  0  0
M  END
>  <CHROM.1>
176.07033861,-64.92069994,175.87091181,-176.78462510,-178.84681303,-48.32132540
68.09913601,-20.85069236,2.90319400,-1.33308334,3.04298062

>  <Name>
ligand

>  <RI>
0

>  <Rbt.Current_Directory>
/home/itssahil/PROJECTS/Mol_Feturizer/Test_systems_manuscript/rnas/4erj

>  <Rbt.Executable>
rbdock ($Id: //depot/dev/client3/rdock/2013.1/src/exe/rbdock.cxx#4 $)

>  <Rbt.Library>
libRbt.so (2013.1, Build901 2013/11/27)

>  <Rbt.Parameter_File>
/export/apps/rDock/src/rDock_2013.1_src/data/scripts/dock_solv.prm

>  <Rbt.Receptor>
prm/pocket_docking_8.prm

>  <SCORE>
-12.8836

>  <SCORE.INTER>
-10.3635

>  <SCORE.INTER.CONST>
1

>  <SCORE.INTER.POLAR>
0

>  <SCORE.INTER.ROT>
5

>  <SCORE.INTER.SOLV>
8.96946

>  <SCORE.INTER.VDW>
-16.8322

>  <SCORE.INTER.norm>
-1.1515

>  <SCORE.INTRA>
-2.52011

>  <SCORE.INTRA.DIHEDRAL>
-5.86335

>  <SCORE.INTRA.DIHEDRAL.0>
7.73744

>  <SCORE.INTRA.POLAR>
0

>  <SCORE.INTRA.POLAR.0>
0

>  <SCORE.INTRA.REPUL>
0

>  <SCORE.INTRA.REPUL.0>
0

>  <SCORE.INTRA.SOLV>
-0.123717

>  <SCORE.INTRA.SOLV.lig_0>
-15.8342

>  <SCORE.INTRA.VDW>
0.473419

>  <SCORE.INTRA.VDW.0>
-0.219494

>  <SCORE.INTRA.norm>
-0.280013

>  <SCORE.RESTR>
0

>  <SCORE.RESTR.CAVITY>
0

>  <SCORE.RESTR.norm>
0

>  <SCORE.SYSTEM>
0

>  <SCORE.SYSTEM.CONST>
0

>  <SCORE.SYSTEM.DIHEDRAL>
0

>  <SCORE.SYSTEM.SOLV>
0

>  <SCORE.SYSTEM.norm>
0

>  <SCORE.heavy>
9

>  <SCORE.norm>
-1.43151

>  <RMSD>
5.386

$$$$
ligand
 OpenBabel02271912143D
libRbt.so/2013.1/901 2013/11/27
  9  8  0  0  0  0  0  0  0  0999 V2000
  -49.2176   67.7566  -18.5038 C   0  0  0  0  0  0  0  0  0  0  0  0
  -48.9236   66.7138  -17.8138 O   0  0  0  0  0  0  0  0  0  0  0  0
  -49.6233   67.6179  -19.9082 C   0  0  0  0  0  0  0  0  0  0  0  0
  -49.1240   68.9279  -18.0110 O   0  0  0  0  0  0  0  0  0  0  0  0
  -48.5539   67.1443  -20.8406 C   0  0  0  0  0  0  0  0  0  0  0  0
  -47.3583   68.0052  -21.0210 C   0  0  0  0  0  0  0  0  0  0  0  0
  -46.3406   67.4723  -22.0155 C   0  0  0  0  0  0  0  0  0  0  0  0
  -46.7332   67.3205  -23.4935 C   0  0  0  0  0  0  0  0  0  0  0  0
  -47.0960   68.4592  -24.1833 N   0  0  0  0  0  0  0  0  0  0  0  0
  1  2  1  0  0  0  0
  1  3  1  0  0  0  0
  1  4  1  0  0  0  0
  3  5  1  0  0  0  0
  5  6  1  0  0  0  0
  6  7  1  0  0  0  0
  7  8  1  0  0  0  0
  8  9  1  0  0  0  0
M  END
>  <CHROM.1>
-67.43377927,-63.06206933,-178.23781919,63.66399826,61.40679160,-48.11874800
67.71559099,-20.59243468,2.39226827,-0.95925109,2.30684501

>  <Name>
ligand

>  <RI>
0

>  <Rbt.Current_Directory>
/home/itssahil/PROJECTS/Mol_Feturizer/Test_systems_manuscript/rnas/4erj

>  <Rbt.Executable>
rbdock ($Id: //depot/dev/client3/rdock/2013.1/src/exe/rbdock.cxx#4 $)

>  <Rbt.Library>
libRbt.so (2013.1, Build901 2013/11/27)

>  <Rbt.Parameter_File>
/export/apps/rDock/src/rDock_2013.1_src/data/scripts/dock_solv.prm

>  <Rbt.Receptor>
prm/pocket_docking_4.prm

>  <SCORE>
-12.4621

>  <SCORE.INTER>
-9.73034

>  <SCORE.INTER.CONST>
1

>  <SCORE.INTER.POLAR>
0

>  <SCORE.INTER.ROT>
5

>  <SCORE.INTER.SOLV>
7.36002

>  <SCORE.INTER.VDW>
-15.8736

>  <SCORE.INTER.norm>
-1.08115

>  <SCORE.INTRA>
-2.7318

>  <SCORE.INTRA.DIHEDRAL>
-5.98528

>  <SCORE.INTRA.DIHEDRAL.0>
7.73744

>  <SCORE.INTRA.POLAR>
0

>  <SCORE.INTRA.POLAR.0>
0

>  <SCORE.INTRA.REPUL>
0

>  <SCORE.INTRA.REPUL.0>
0

>  <SCORE.INTRA.SOLV>
1.03412

>  <SCORE.INTRA.SOLV.lig_0>
-15.8342

>  <SCORE.INTRA.VDW>
-0.256218

>  <SCORE.INTRA.VDW.0>
-0.219494

>  <SCORE.INTRA.norm>
-0.303533

>  <SCORE.RESTR>
0

>  <SCORE.RESTR.CAVITY>
0

>  <SCORE.RESTR.norm>
0

>  <SCORE.SYSTEM>
0

>  <SCORE.SYSTEM.CONST>
0

>  <SCORE.SYSTEM.DIHEDRAL>
0

>  <SCORE.SYSTEM.SOLV>
0

>  <SCORE.SYSTEM.norm>
0

>  <SCORE.heavy>
9

>  <SCORE.norm>
-1.38468

>  <RMSD>
5.389

$$$$
ligand
 OpenBabel02271912143D
libRbt.so/2013.1/901 2013/11/27
  9  8  0  0  0  0  0  0  0  0999 V2000
  -50.8847   69.9167  -19.6063 C   0  0  0  0  0  0  0  0  0  0  0  0
  -52.0400   69.6035  -20.0720 O   0  0  0  0  0  0  0  0  0  0  0  0
  -50.2079   69.0230  -18.6578 C   0  0  0  0  0  0  0  0  0  0  0  0
  -50.3198   71.0167  -19.9139 O   0  0  0  0  0  0  0  0  0  0  0  0
  -48.7441   68.8268  -18.8946 C   0  0  0  0  0  0  0  0  0  0  0  0
  -48.3292   68.1215  -20.1330 C   0  0  0  0  0  0  0  0  0  0  0  0
  -48.5227   68.9214  -21.4102 C   0  0  0  0  0  0  0  0  0  0  0  0
  -48.1181   68.3052  -22.7587 C   0  0  0  0  0  0  0  0  0  0  0  0
  -46.7961   67.9505  -22.9335 N   0  0  0  0  0  0  0  0  0  0  0  0
  1  2  1  0  0  0  0
  1  3  1  0  0  0  0
  1  4  1  0  0  0  0
  3  5  1  0  0  0  0
  5  6  1  0  0  0  0
  6  7  1  0  0  0  0
  7  8  1  0  0  0  0
  8  9  1  0  0  0  0
M  END
>  <CHROM.1>
137.46452944,-66.25682327,71.49347577,179.42698613,-60.34243288,-49.36208845
69.10110093,-20.48495317,2.54126459,-0.52555913,1.67337454

>  <Name>
ligand

>  <RI>
0

>  <Rbt.Current_Directory>
/home/itssahil/PROJECTS/Mol_Feturizer/Test_systems_manuscript/rnas/4erj

>  <Rbt.Executable>
rbdock ($Id: //depot/dev/client3/rdock/2013.1/src/exe/rbdock.cxx#4 $)

>  <Rbt.Library>
libRbt.so (2013.1, Build901 2013/11/27)

>  <Rbt.Parameter_File>
/export/apps/rDock/src/rDock_2013.1_src/data/scripts/dock_solv.prm

>  <Rbt.Receptor>
prm/pocket_docking_8.prm

>  <SCORE>
-12.2282

>  <SCORE.INTER>
-9.72796

>  <SCORE.INTER.CONST>
1

>  <SCORE.INTER.POLAR>
0

>  <SCORE.INTER.ROT>
5

>  <SCORE.INTER.SOLV>
5.91791

>  <SCORE.INTER.VDW>
-15.3913

>  <SCORE.INTER.norm>
-1.08088

>  <SCORE.INTRA>
-2.50024

>  <SCORE.INTRA.DIHEDRAL>
-5.43123

>  <SCORE.INTRA.DIHEDRAL.0>
7.73744

>  <SCORE.INTRA.POLAR>
0

>  <SCORE.INTRA.POLAR.0>
0

>  <SCORE.INTRA.REPUL>
0

>  <SCORE.INTRA.REPUL.0>
0

>  <SCORE.INTRA.SOLV>
0.513176

>  <SCORE.INTRA.SOLV.lig_0>
-15.8342

>  <SCORE.INTRA.VDW>
-0.0412079

>  <SCORE.INTRA.VDW.0>
-0.219494

>  <SCORE.INTRA.norm>
-0.277804

>  <SCORE.RESTR>
0

>  <SCORE.RESTR.CAVITY>
0

>  <SCORE.RESTR.norm>
0

>  <SCORE.SYSTEM>
0

>  <SCORE.SYSTEM.CONST>
0

>  <SCORE.SYSTEM.DIHEDRAL>
0

>  <SCORE.SYSTEM.SOLV>
0

>  <SCORE.SYSTEM.norm>
0

>  <SCORE.heavy>
9

>  <SCORE.norm>
-1.35869

>  <RMSD>
5.405

$$$$
ligand
 OpenBabel02271912143D
libRbt.so/2013.1/901 2013/11/27
  9  8  0  0  0  0  0  0  0  0999 V2000
  -49.4592   68.4169  -18.4525 C   0  0  0  0  0  0  0  0  0  0  0  0
  -50.7180   68.6670  -18.5051 O   0  0  0  0  0  0  0  0  0  0  0  0
  -48.9796   67.0336  -18.5662 C   0  0  0  0  0  0  0  0  0  0  0  0
  -48.6050   69.3423  -18.2582 O   0  0  0  0  0  0  0  0  0  0  0  0
  -48.7541   66.5460  -19.9622 C   0  0  0  0  0  0  0  0  0  0  0  0
  -47.7938   67.2929  -20.8123 C   0  0  0  0  0  0  0  0  0  0  0  0
  -47.5599   66.6848  -22.1850 C   0  0  0  0  0  0  0  0  0  0  0  0
  -46.6519   67.4103  -23.1904 C   0  0  0  0  0  0  0  0  0  0  0  0
  -47.0791   68.6268  -23.6822 N   0  0  0  0  0  0  0  0  0  0  0  0
  1  2  1  0  0  0  0
  1  3  1  0  0  0  0
  1  4  1  0  0  0  0
  3  5  1  0  0  0  0
  5  6  1  0  0  0  0
  6  7  1  0  0  0  0
  7  8  1  0  0  0  0
  8  9  1  0  0  0  0
M  END
>  <CHROM.1>
86.96780795,58.34729666,176.49837132,176.34889775,-66.36504418,-48.42243803
67.80762030,-20.36952305,-3.07335113,-1.07109237,3.05045942

>  <Name>
ligand

>  <RI>
0

>  <Rbt.Current_Directory>
/home/itssahil/PROJECTS/Mol_Feturizer/Test_systems_manuscript/rnas/4erj

>  <Rbt.Executable>
rbdock ($Id: //depot/dev/client3/rdock/2013.1/src/exe/rbdock.cxx#4 $)

>  <Rbt.Library>
libRbt.so (2013.1, Build901 2013/11/27)

>  <Rbt.Parameter_File>
/export/apps/rDock/src/rDock_2013.1_src/data/scripts/dock_solv.prm

>  <Rbt.Receptor>
prm/pocket_docking_6.prm

>  <SCORE>
-13.9113

>  <SCORE.INTER>
-10.8428

>  <SCORE.INTER.CONST>
1

>  <SCORE.INTER.POLAR>
0

>  <SCORE.INTER.ROT>
5

>  <SCORE.INTER.SOLV>
8.07145

>  <SCORE.INTER.VDW>
-16.8523

>  <SCORE.INTER.norm>
-1.20475

>  <SCORE.INTRA>
-3.06853

>  <SCORE.INTRA.DIHEDRAL>
-5.6888

>  <SCORE.INTRA.DIHEDRAL.0>
7.73744

>  <SCORE.INTRA.POLAR>
0

>  <SCORE.INTRA.POLAR.0>
0

>  <SCORE.INTRA.REPUL>
0

>  <SCORE.INTRA.REPUL.0>
0

>  <SCORE.INTRA.SOLV>
0.480763

>  <SCORE.INTRA.SOLV.lig_0>
-15.8342

>  <SCORE.INTRA.VDW>
-0.464512

>  <SCORE.INTRA.VDW.0>
-0.219494

>  <SCORE.INTRA.norm>
-0.340948

>  <SCORE.RESTR>
0

>  <SCORE.RESTR.CAVITY>
0

>  <SCORE.RESTR.norm>
0

>  <SCORE.SYSTEM>
0

>  <SCORE.SYSTEM.CONST>
0

>  <SCORE.SYSTEM.DIHEDRAL>
0

>  <SCORE.SYSTEM.SOLV>
0

>  <SCORE.SYSTEM.norm>
0

>  <SCORE.heavy>
9

>  <SCORE.norm>
-1.5457

>  <RMSD>
5.417

$$$$
ligand
 OpenBabel02271912143D
libRbt.so/2013.1/901 2013/11/27
  9  8  0  0  0  0  0  0  0  0999 V2000
  -50.2926   69.4068  -19.0451 C   0  0  0  0  0  0  0  0  0  0  0  0
  -51.5002   69.4161  -18.6074 O   0  0  0  0  0  0  0  0  0  0  0  0
  -49.2605   68.6390  -18.3370 C   0  0  0  0  0  0  0  0  0  0  0  0
  -49.9499   70.0891  -20.0652 O   0  0  0  0  0  0  0  0  0  0  0  0
  -49.2081   67.1806  -18.6652 C   0  0  0  0  0  0  0  0  0  0  0  0
  -49.0568   66.7943  -20.0903 C   0  0  0  0  0  0  0  0  0  0  0  0
  -47.7592   67.2528  -20.7345 C   0  0  0  0  0  0  0  0  0  0  0  0
  -47.5011   66.9480  -22.2185 C   0  0  0  0  0  0  0  0  0  0  0  0
  -46.3393   67.4339  -22.7828 N   0  0  0  0  0  0  0  0  0  0  0  0
  1  2  1  0  0  0  0
  1  3  1  0  0  0  0
  1  4  1  0  0  0  0
  3  5  1  0  0  0  0
  5  6  1  0  0  0  0
  6  7  1  0  0  0  0
  7  8  1  0  0  0  0
  8  9  1  0  0  0  0
M  END
>  <CHROM.1>
82.68137424,55.18425118,62.93324741,-178.32795517,177.08102819,-49.01871154
68.15894822,-20.05391357,3.05973403,-0.84332220,2.45131589

>  <Name>
ligand

>  <RI>
0

>  <Rbt.Current_Directory>
/home/itssahil/PROJECTS/Mol_Feturizer/Test_systems_manuscript/rnas/4erj

>  <Rbt.Executable>
rbdock ($Id: //depot/dev/client3/rdock/2013.1/src/exe/rbdock.cxx#4 $)

>  <Rbt.Library>
libRbt.so (2013.1, Build901 2013/11/27)

>  <Rbt.Parameter_File>
/export/apps/rDock/src/rDock_2013.1_src/data/scripts/dock_solv.prm

>  <Rbt.Receptor>
prm/pocket_docking_6.prm

>  <SCORE>
-15.2519

>  <SCORE.INTER>
-12.0896

>  <SCORE.INTER.CONST>
1

>  <SCORE.INTER.POLAR>
0

>  <SCORE.INTER.ROT>
5

>  <SCORE.INTER.SOLV>
7.44093

>  <SCORE.INTER.VDW>
-17.4734

>  <SCORE.INTER.norm>
-1.34329

>  <SCORE.INTRA>
-3.16229

>  <SCORE.INTRA.DIHEDRAL>
-5.7898

>  <SCORE.INTRA.DIHEDRAL.0>
7.73744

>  <SCORE.INTRA.POLAR>
0

>  <SCORE.INTRA.POLAR.0>
0

>  <SCORE.INTRA.REPUL>
0

>  <SCORE.INTRA.REPUL.0>
0

>  <SCORE.INTRA.SOLV>
-0.133734

>  <SCORE.INTRA.SOLV.lig_0>
-15.8342

>  <SCORE.INTRA.VDW>
-0.200528

>  <SCORE.INTRA.VDW.0>
-0.219494

>  <SCORE.INTRA.norm>
-0.351366

>  <SCORE.RESTR>
0

>  <SCORE.RESTR.CAVITY>
0

>  <SCORE.RESTR.norm>
0

>  <SCORE.SYSTEM>
0

>  <SCORE.SYSTEM.CONST>
0

>  <SCORE.SYSTEM.DIHEDRAL>
0

>  <SCORE.SYSTEM.SOLV>
0

>  <SCORE.SYSTEM.norm>
0

>  <SCORE.heavy>
9

>  <SCORE.norm>
-1.69465

>  <RMSD>
5.424

$$$$
ligand
 OpenBabel02271912143D
libRbt.so/2013.1/901 2013/11/27
  9  8  0  0  0  0  0  0  0  0999 V2000
  -49.4986   68.4434  -18.4130 C   0  0  0  0  0  0  0  0  0  0  0  0
  -48.6550   69.4011  -18.2674 O   0  0  0  0  0  0  0  0  0  0  0  0
  -49.0255   67.0573  -18.5177 C   0  0  0  0  0  0  0  0  0  0  0  0
  -50.7487   68.6683  -18.5144 O   0  0  0  0  0  0  0  0  0  0  0  0
  -48.8000   66.5604  -19.9104 C   0  0  0  0  0  0  0  0  0  0  0  0
  -47.8224   67.2879  -20.7578 C   0  0  0  0  0  0  0  0  0  0  0  0
  -47.6133   66.6878  -22.1380 C   0  0  0  0  0  0  0  0  0  0  0  0
  -46.6781   67.3893  -23.1355 C   0  0  0  0  0  0  0  0  0  0  0  0
  -47.0678   68.6177  -23.6287 N   0  0  0  0  0  0  0  0  0  0  0  0
  1  2  1  0  0  0  0
  1  3  1  0  0  0  0
  1  4  1  0  0  0  0
  3  5  1  0  0  0  0
  5  6  1  0  0  0  0
  6  7  1  0  0  0  0
  7  8  1  0  0  0  0
  8  9  1  0  0  0  0
M  END
>  <CHROM.1>
-92.91357793,59.07237032,177.77044294,176.98246720,-67.39576260,-48.45688944
67.81825606,-20.33418492,-3.03940190,-1.06303854,3.08227910

>  <Name>
ligand

>  <RI>
0

>  <Rbt.Current_Directory>
/home/itssahil/PROJECTS/Mol_Feturizer/Test_systems_manuscript/rnas/4erj

>  <Rbt.Executable>
rbdock ($Id: //depot/dev/client3/rdock/2013.1/src/exe/rbdock.cxx#4 $)

>  <Rbt.Library>
libRbt.so (2013.1, Build901 2013/11/27)

>  <Rbt.Parameter_File>
/export/apps/rDock/src/rDock_2013.1_src/data/scripts/dock_solv.prm

>  <Rbt.Receptor>
prm/pocket_docking_3.prm

>  <SCORE>
-13.99

>  <SCORE.INTER>
-10.8122

>  <SCORE.INTER.CONST>
1

>  <SCORE.INTER.POLAR>
0

>  <SCORE.INTER.ROT>
5

>  <SCORE.INTER.SOLV>
8.10663

>  <SCORE.INTER.VDW>
-16.8437

>  <SCORE.INTER.norm>
-1.20136

>  <SCORE.INTRA>
-3.17777

>  <SCORE.INTRA.DIHEDRAL>
-5.88895

>  <SCORE.INTRA.DIHEDRAL.0>
7.73744

>  <SCORE.INTRA.POLAR>
0

>  <SCORE.INTRA.POLAR.0>
0

>  <SCORE.INTRA.REPUL>
0

>  <SCORE.INTRA.REPUL.0>
0

>  <SCORE.INTRA.SOLV>
0.467096

>  <SCORE.INTRA.SOLV.lig_0>
-15.8342

>  <SCORE.INTRA.VDW>
-0.466842

>  <SCORE.INTRA.VDW.0>
-0.219494

>  <SCORE.INTRA.norm>
-0.353085

>  <SCORE.RESTR>
0

>  <SCORE.RESTR.CAVITY>
0

>  <SCORE.RESTR.norm>
0

>  <SCORE.SYSTEM>
0

>  <SCORE.SYSTEM.CONST>
0

>  <SCORE.SYSTEM.DIHEDRAL>
0

>  <SCORE.SYSTEM.SOLV>
0

>  <SCORE.SYSTEM.norm>
0

>  <SCORE.heavy>
9

>  <SCORE.norm>
-1.55444

>  <RMSD>
5.425

$$$$
ligand
 OpenBabel02271912143D
libRbt.so/2013.1/901 2013/11/27
  9  8  0  0  0  0  0  0  0  0999 V2000
  -50.2660   69.4074  -19.0223 C   0  0  0  0  0  0  0  0  0  0  0  0
  -51.4754   69.3951  -18.5897 O   0  0  0  0  0  0  0  0  0  0  0  0
  -49.2311   68.6267  -18.3325 C   0  0  0  0  0  0  0  0  0  0  0  0
  -49.9243   70.1217  -20.0206 O   0  0  0  0  0  0  0  0  0  0  0  0
  -49.1978   67.1692  -18.6672 C   0  0  0  0  0  0  0  0  0  0  0  0
  -49.0499   66.7873  -20.0938 C   0  0  0  0  0  0  0  0  0  0  0  0
  -47.7635   67.2658  -20.7456 C   0  0  0  0  0  0  0  0  0  0  0  0
  -47.5053   66.9573  -22.2288 C   0  0  0  0  0  0  0  0  0  0  0  0
  -46.3508   67.4544  -22.7981 N   0  0  0  0  0  0  0  0  0  0  0  0
  1  2  1  0  0  0  0
  1  3  1  0  0  0  0
  1  4  1  0  0  0  0
  3  5  1  0  0  0  0
  5  6  1  0  0  0  0
  6  7  1  0  0  0  0
  7  8  1  0  0  0  0
  8  9  1  0  0  0  0
M  END
>  <CHROM.1>
80.62753357,56.12560809,61.25039683,-178.81048631,177.47037590,-49.00701540
68.16177854,-20.04814165,3.07277340,-0.85143625,2.47712998

>  <Name>
ligand

>  <RI>
0

>  <Rbt.Current_Directory>
/home/itssahil/PROJECTS/Mol_Feturizer/Test_systems_manuscript/rnas/4erj

>  <Rbt.Executable>
rbdock ($Id: //depot/dev/client3/rdock/2013.1/src/exe/rbdock.cxx#4 $)

>  <Rbt.Library>
libRbt.so (2013.1, Build901 2013/11/27)

>  <Rbt.Parameter_File>
/export/apps/rDock/src/rDock_2013.1_src/data/scripts/dock_solv.prm

>  <Rbt.Receptor>
prm/pocket_docking_8.prm

>  <SCORE>
-15.268

>  <SCORE.INTER>
-12.0954

>  <SCORE.INTER.CONST>
1

>  <SCORE.INTER.POLAR>
0

>  <SCORE.INTER.ROT>
5

>  <SCORE.INTER.SOLV>
7.43055

>  <SCORE.INTER.VDW>
-17.4738

>  <SCORE.INTER.norm>
-1.34393

>  <SCORE.INTRA>
-3.17257

>  <SCORE.INTRA.DIHEDRAL>
-5.87222

>  <SCORE.INTRA.DIHEDRAL.0>
7.73744

>  <SCORE.INTRA.POLAR>
0

>  <SCORE.INTRA.POLAR.0>
0

>  <SCORE.INTRA.REPUL>
0

>  <SCORE.INTRA.REPUL.0>
0

>  <SCORE.INTRA.SOLV>
-0.133891

>  <SCORE.INTRA.SOLV.lig_0>
-15.8342

>  <SCORE.INTRA.VDW>
-0.169514

>  <SCORE.INTRA.VDW.0>
-0.219494

>  <SCORE.INTRA.norm>
-0.352508

>  <SCORE.RESTR>
0

>  <SCORE.RESTR.CAVITY>
0

>  <SCORE.RESTR.norm>
0

>  <SCORE.SYSTEM>
0

>  <SCORE.SYSTEM.CONST>
0

>  <SCORE.SYSTEM.DIHEDRAL>
0

>  <SCORE.SYSTEM.SOLV>
0

>  <SCORE.SYSTEM.norm>
0

>  <SCORE.heavy>
9

>  <SCORE.norm>
-1.69644

>  <RMSD>
5.425

$$$$
ligand
 OpenBabel02271912143D
libRbt.so/2013.1/901 2013/11/27
  9  8  0  0  0  0  0  0  0  0999 V2000
  -50.3002   69.4084  -19.0472 C   0  0  0  0  0  0  0  0  0  0  0  0
  -51.5005   69.4230  -18.5902 O   0  0  0  0  0  0  0  0  0  0  0  0
  -49.2575   68.6455  -18.3492 C   0  0  0  0  0  0  0  0  0  0  0  0
  -49.9733   70.0814  -20.0787 O   0  0  0  0  0  0  0  0  0  0  0  0
  -49.2062   67.1860  -18.6724 C   0  0  0  0  0  0  0  0  0  0  0  0
  -49.0559   66.7947  -20.0963 C   0  0  0  0  0  0  0  0  0  0  0  0
  -47.7638   67.2604  -20.7462 C   0  0  0  0  0  0  0  0  0  0  0  0
  -47.5102   66.9565  -22.2311 C   0  0  0  0  0  0  0  0  0  0  0  0
  -46.3468   67.4368  -22.7968 N   0  0  0  0  0  0  0  0  0  0  0  0
  1  2  1  0  0  0  0
  1  3  1  0  0  0  0
  1  4  1  0  0  0  0
  3  5  1  0  0  0  0
  5  6  1  0  0  0  0
  6  7  1  0  0  0  0
  7  8  1  0  0  0  0
  8  9  1  0  0  0  0
M  END
>  <CHROM.1>
83.07481488,55.89399249,62.43132378,-178.06447588,177.75979570,-49.02407211
68.16244425,-20.06062161,3.05008426,-0.84394418,2.44081769

>  <Name>
ligand

>  <RI>
0

>  <Rbt.Current_Directory>
/home/itssahil/PROJECTS/Mol_Feturizer/Test_systems_manuscript/rnas/4erj

>  <Rbt.Executable>
rbdock ($Id: //depot/dev/client3/rdock/2013.1/src/exe/rbdock.cxx#4 $)

>  <Rbt.Library>
libRbt.so (2013.1, Build901 2013/11/27)

>  <Rbt.Parameter_File>
/export/apps/rDock/src/rDock_2013.1_src/data/scripts/dock_solv.prm

>  <Rbt.Receptor>
prm/pocket_docking_3.prm

>  <SCORE>
-15.2535

>  <SCORE.INTER>
-12.071

>  <SCORE.INTER.CONST>
1

>  <SCORE.INTER.POLAR>
0

>  <SCORE.INTER.ROT>
5

>  <SCORE.INTER.SOLV>
7.41948

>  <SCORE.INTER.VDW>
-17.4538

>  <SCORE.INTER.norm>
-1.34122

>  <SCORE.INTRA>
-3.18253

>  <SCORE.INTRA.DIHEDRAL>
-5.83573

>  <SCORE.INTRA.DIHEDRAL.0>
7.73744

>  <SCORE.INTRA.POLAR>
0

>  <SCORE.INTRA.POLAR.0>
0

>  <SCORE.INTRA.REPUL>
0

>  <SCORE.INTRA.REPUL.0>
0

>  <SCORE.INTRA.SOLV>
-0.133871

>  <SCORE.INTRA.SOLV.lig_0>
-15.8342

>  <SCORE.INTRA.VDW>
-0.197727

>  <SCORE.INTRA.VDW.0>
-0.219494

>  <SCORE.INTRA.norm>
-0.353614

>  <SCORE.RESTR>
0

>  <SCORE.RESTR.CAVITY>
0

>  <SCORE.RESTR.norm>
0

>  <SCORE.SYSTEM>
0

>  <SCORE.SYSTEM.CONST>
0

>  <SCORE.SYSTEM.DIHEDRAL>
0

>  <SCORE.SYSTEM.SOLV>
0

>  <SCORE.SYSTEM.norm>
0

>  <SCORE.heavy>
9

>  <SCORE.norm>
-1.69483

>  <RMSD>
5.426

$$$$
ligand
 OpenBabel02271912143D
libRbt.so/2013.1/901 2013/11/27
  9  8  0  0  0  0  0  0  0  0999 V2000
  -49.5363   68.4098  -18.4957 C   0  0  0  0  0  0  0  0  0  0  0  0
  -48.6383   69.2851  -18.2176 O   0  0  0  0  0  0  0  0  0  0  0  0
  -49.1498   67.1245  -19.0915 C   0  0  0  0  0  0  0  0  0  0  0  0
  -50.7744   68.6446  -18.3074 O   0  0  0  0  0  0  0  0  0  0  0  0
  -48.6270   67.1980  -20.4910 C   0  0  0  0  0  0  0  0  0  0  0  0
  -47.4543   68.0703  -20.7495 C   0  0  0  0  0  0  0  0  0  0  0  0
  -46.8759   67.9522  -22.1496 C   0  0  0  0  0  0  0  0  0  0  0  0
  -47.6918   68.4542  -23.3513 C   0  0  0  0  0  0  0  0  0  0  0  0
  -47.0697   68.4885  -24.5825 N   0  0  0  0  0  0  0  0  0  0  0  0
  1  2  1  0  0  0  0
  1  3  1  0  0  0  0
  1  4  1  0  0  0  0
  3  5  1  0  0  0  0
  5  6  1  0  0  0  0
  6  7  1  0  0  0  0
  7  8  1  0  0  0  0
  8  9  1  0  0  0  0
M  END
>  <CHROM.1>
-68.26421465,56.87604577,172.47013599,68.01724314,171.89149135,-48.44635148
68.20129537,-20.56445748,-2.08831520,-0.47562156,-1.85792045

>  <Name>
ligand

>  <RI>
0

>  <Rbt.Current_Directory>
/home/itssahil/PROJECTS/Mol_Feturizer/Test_systems_manuscript/rnas/4erj

>  <Rbt.Executable>
rbdock ($Id: //depot/dev/client3/rdock/2013.1/src/exe/rbdock.cxx#4 $)

>  <Rbt.Library>
libRbt.so (2013.1, Build901 2013/11/27)

>  <Rbt.Parameter_File>
/export/apps/rDock/src/rDock_2013.1_src/data/scripts/dock_solv.prm

>  <Rbt.Receptor>
prm/pocket_docking_4.prm

>  <SCORE>
-12.0561

>  <SCORE.INTER>
-9.30923

>  <SCORE.INTER.CONST>
1

>  <SCORE.INTER.POLAR>
0

>  <SCORE.INTER.ROT>
5

>  <SCORE.INTER.SOLV>
7.81739

>  <SCORE.INTER.VDW>
-15.7453

>  <SCORE.INTER.norm>
-1.03436

>  <SCORE.INTRA>
-2.74691

>  <SCORE.INTRA.DIHEDRAL>
-5.31875

>  <SCORE.INTRA.DIHEDRAL.0>
7.73744

>  <SCORE.INTRA.POLAR>
0

>  <SCORE.INTRA.POLAR.0>
0

>  <SCORE.INTRA.REPUL>
0

>  <SCORE.INTRA.REPUL.0>
0

>  <SCORE.INTRA.SOLV>
-0.0142004

>  <SCORE.INTRA.SOLV.lig_0>
-15.8342

>  <SCORE.INTRA.VDW>
-0.0804381

>  <SCORE.INTRA.VDW.0>
-0.219494

>  <SCORE.INTRA.norm>
-0.305212

>  <SCORE.RESTR>
0

>  <SCORE.RESTR.CAVITY>
0

>  <SCORE.RESTR.norm>
0

>  <SCORE.SYSTEM>
0

>  <SCORE.SYSTEM.CONST>
0

>  <SCORE.SYSTEM.DIHEDRAL>
0

>  <SCORE.SYSTEM.SOLV>
0

>  <SCORE.SYSTEM.norm>
0

>  <SCORE.heavy>
9

>  <SCORE.norm>
-1.33957

>  <RMSD>
5.429

$$$$
ligand
 OpenBabel02271912143D
libRbt.so/2013.1/901 2013/11/27
  9  8  0  0  0  0  0  0  0  0999 V2000
  -49.4661   68.4685  -18.3735 C   0  0  0  0  0  0  0  0  0  0  0  0
  -48.5628   69.3708  -18.2327 O   0  0  0  0  0  0  0  0  0  0  0  0
  -49.0813   67.0567  -18.4964 C   0  0  0  0  0  0  0  0  0  0  0  0
  -50.7012   68.7711  -18.4548 O   0  0  0  0  0  0  0  0  0  0  0  0
  -48.8743   66.5681  -19.8949 C   0  0  0  0  0  0  0  0  0  0  0  0
  -47.8381   67.2392  -20.7190 C   0  0  0  0  0  0  0  0  0  0  0  0
  -47.6781   66.6701  -22.1187 C   0  0  0  0  0  0  0  0  0  0  0  0
  -46.6708   67.3107  -23.0865 C   0  0  0  0  0  0  0  0  0  0  0  0
  -46.9126   68.6032  -23.5048 N   0  0  0  0  0  0  0  0  0  0  0  0
  1  2  1  0  0  0  0
  1  3  1  0  0  0  0
  1  4  1  0  0  0  0
  3  5  1  0  0  0  0
  5  6  1  0  0  0  0
  6  7  1  0  0  0  0
  7  8  1  0  0  0  0
  8  9  1  0  0  0  0
M  END
>  <CHROM.1>
-91.48326109,59.44690278,179.17516915,177.89789707,-65.42534310,-48.44169088
67.81299051,-20.28941368,-2.87693085,-1.04127863,-3.03020368

>  <Name>
ligand

>  <RI>
0

>  <Rbt.Current_Directory>
/home/itssahil/PROJECTS/Mol_Feturizer/Test_systems_manuscript/rnas/4erj

>  <Rbt.Executable>
rbdock ($Id: //depot/dev/client3/rdock/2013.1/src/exe/rbdock.cxx#4 $)

>  <Rbt.Library>
libRbt.so (2013.1, Build901 2013/11/27)

>  <Rbt.Parameter_File>
/export/apps/rDock/src/rDock_2013.1_src/data/scripts/dock_solv.prm

>  <Rbt.Receptor>
prm/pocket_docking_3.prm

>  <SCORE>
-13.9793

>  <SCORE.INTER>
-10.7407

>  <SCORE.INTER.CONST>
1

>  <SCORE.INTER.POLAR>
0

>  <SCORE.INTER.ROT>
5

>  <SCORE.INTER.SOLV>
8.18272

>  <SCORE.INTER.VDW>
-16.8214

>  <SCORE.INTER.norm>
-1.19341

>  <SCORE.INTRA>
-3.23862

>  <SCORE.INTRA.DIHEDRAL>
-6.02391

>  <SCORE.INTRA.DIHEDRAL.0>
7.73744

>  <SCORE.INTRA.POLAR>
0

>  <SCORE.INTRA.POLAR.0>
0

>  <SCORE.INTRA.REPUL>
0

>  <SCORE.INTRA.REPUL.0>
0

>  <SCORE.INTRA.SOLV>
0.483049

>  <SCORE.INTRA.SOLV.lig_0>
-15.8342

>  <SCORE.INTRA.VDW>
-0.468186

>  <SCORE.INTRA.VDW.0>
-0.219494

>  <SCORE.INTRA.norm>
-0.359846

>  <SCORE.RESTR>
0

>  <SCORE.RESTR.CAVITY>
0

>  <SCORE.RESTR.norm>
0

>  <SCORE.SYSTEM>
0

>  <SCORE.SYSTEM.CONST>
0

>  <SCORE.SYSTEM.DIHEDRAL>
0

>  <SCORE.SYSTEM.SOLV>
0

>  <SCORE.SYSTEM.norm>
0

>  <SCORE.heavy>
9

>  <SCORE.norm>
-1.55326

>  <RMSD>
5.432

$$$$
ligand
 OpenBabel02271912143D
libRbt.so/2013.1/901 2013/11/27
  9  8  0  0  0  0  0  0  0  0999 V2000
  -50.2485   69.4601  -19.0044 C   0  0  0  0  0  0  0  0  0  0  0  0
  -49.9158   70.2066  -19.9954 O   0  0  0  0  0  0  0  0  0  0  0  0
  -49.2330   68.6460  -18.3244 C   0  0  0  0  0  0  0  0  0  0  0  0
  -51.4589   69.3705  -18.6165 O   0  0  0  0  0  0  0  0  0  0  0  0
  -49.2337   67.1928  -18.6787 C   0  0  0  0  0  0  0  0  0  0  0  0
  -49.0743   66.8262  -20.1081 C   0  0  0  0  0  0  0  0  0  0  0  0
  -47.7642   67.2754  -20.7330 C   0  0  0  0  0  0  0  0  0  0  0  0
  -47.4803   66.9565  -22.2093 C   0  0  0  0  0  0  0  0  0  0  0  0
  -46.2912   67.4043  -22.7474 N   0  0  0  0  0  0  0  0  0  0  0  0
  1  2  1  0  0  0  0
  1  3  1  0  0  0  0
  1  4  1  0  0  0  0
  3  5  1  0  0  0  0
  5  6  1  0  0  0  0
  6  7  1  0  0  0  0
  7  8  1  0  0  0  0
  8  9  1  0  0  0  0
M  END
>  <CHROM.1>
-102.37358407,56.95618194,61.40127382,-179.96164890,178.73652524,-48.99988304
68.17870155,-20.03954854,3.12006555,-0.84972893,2.52435731

>  <Name>
ligand

>  <RI>
0

>  <Rbt.Current_Directory>
/home/itssahil/PROJECTS/Mol_Feturizer/Test_systems_manuscript/rnas/4erj

>  <Rbt.Executable>
rbdock ($Id: //depot/dev/client3/rdock/2013.1/src/exe/rbdock.cxx#4 $)

>  <Rbt.Library>
libRbt.so (2013.1, Build901 2013/11/27)

>  <Rbt.Parameter_File>
/export/apps/rDock/src/rDock_2013.1_src/data/scripts/dock_solv.prm

>  <Rbt.Receptor>
prm/pocket_docking_4.prm

>  <SCORE>
-15.2714

>  <SCORE.INTER>
-12.0127

>  <SCORE.INTER.CONST>
1

>  <SCORE.INTER.POLAR>
0

>  <SCORE.INTER.ROT>
5

>  <SCORE.INTER.SOLV>
7.52358

>  <SCORE.INTER.VDW>
-17.4497

>  <SCORE.INTER.norm>
-1.33474

>  <SCORE.INTRA>
-3.25875

>  <SCORE.INTRA.DIHEDRAL>
-6.08088

>  <SCORE.INTRA.DIHEDRAL.0>
7.73744

>  <SCORE.INTRA.POLAR>
0

>  <SCORE.INTRA.POLAR.0>
0

>  <SCORE.INTRA.REPUL>
0

>  <SCORE.INTRA.REPUL.0>
0

>  <SCORE.INTRA.SOLV>
-0.13414

>  <SCORE.INTRA.SOLV.lig_0>
-15.8342

>  <SCORE.INTRA.VDW>
-0.151235

>  <SCORE.INTRA.VDW.0>
-0.219494

>  <SCORE.INTRA.norm>
-0.362083

>  <SCORE.RESTR>
0

>  <SCORE.RESTR.CAVITY>
0

>  <SCORE.RESTR.norm>
0

>  <SCORE.SYSTEM>
0

>  <SCORE.SYSTEM.CONST>
0

>  <SCORE.SYSTEM.DIHEDRAL>
0

>  <SCORE.SYSTEM.SOLV>
0

>  <SCORE.SYSTEM.norm>
0

>  <SCORE.heavy>
9

>  <SCORE.norm>
-1.69683

>  <RMSD>
5.432

$$$$
ligand
 OpenBabel02271912143D
libRbt.so/2013.1/901 2013/11/27
  9  8  0  0  0  0  0  0  0  0999 V2000
  -49.0225   68.0644  -18.6410 C   0  0  0  0  0  0  0  0  0  0  0  0
  -49.2000   67.6382  -17.4424 O   0  0  0  0  0  0  0  0  0  0  0  0
  -49.6576   67.3709  -19.7689 C   0  0  0  0  0  0  0  0  0  0  0  0
  -48.2656   69.0593  -18.8876 O   0  0  0  0  0  0  0  0  0  0  0  0
  -48.7170   66.7220  -20.7341 C   0  0  0  0  0  0  0  0  0  0  0  0
  -47.8810   67.6025  -21.5879 C   0  0  0  0  0  0  0  0  0  0  0  0
  -47.0174   66.8668  -22.5987 C   0  0  0  0  0  0  0  0  0  0  0  0
  -46.1444   67.6696  -23.5760 C   0  0  0  0  0  0  0  0  0  0  0  0
  -46.7796   68.5246  -24.4533 N   0  0  0  0  0  0  0  0  0  0  0  0
  1  2  1  0  0  0  0
  1  3  1  0  0  0  0
  1  4  1  0  0  0  0
  3  5  1  0  0  0  0
  5  6  1  0  0  0  0
  6  7  1  0  0  0  0
  7  8  1  0  0  0  0
  8  9  1  0  0  0  0
M  END
>  <CHROM.1>
-115.00505819,-69.28410932,-176.40366665,177.80127775,-61.37329616,-48.08165643
67.73802833,-20.80588316,-2.36689497,-0.95253012,-2.29047166

>  <Name>
ligand

>  <RI>
0

>  <Rbt.Current_Directory>
/home/itssahil/PROJECTS/Mol_Feturizer/Test_systems_manuscript/rnas/4erj

>  <Rbt.Executable>
rbdock ($Id: //depot/dev/client3/rdock/2013.1/src/exe/rbdock.cxx#4 $)

>  <Rbt.Library>
libRbt.so (2013.1, Build901 2013/11/27)

>  <Rbt.Parameter_File>
/export/apps/rDock/src/rDock_2013.1_src/data/scripts/dock_solv.prm

>  <Rbt.Receptor>
prm/pocket_docking_4.prm

>  <SCORE>
-12.4874

>  <SCORE.INTER>
-9.57629

>  <SCORE.INTER.CONST>
1

>  <SCORE.INTER.POLAR>
0

>  <SCORE.INTER.ROT>
5

>  <SCORE.INTER.SOLV>
7.62974

>  <SCORE.INTER.VDW>
-15.8608

>  <SCORE.INTER.norm>
-1.06403

>  <SCORE.INTRA>
-2.91115

>  <SCORE.INTRA.DIHEDRAL>
-5.64163

>  <SCORE.INTRA.DIHEDRAL.0>
7.73744

>  <SCORE.INTRA.POLAR>
0

>  <SCORE.INTRA.POLAR.0>
0

>  <SCORE.INTRA.REPUL>
0

>  <SCORE.INTRA.REPUL.0>
0

>  <SCORE.INTRA.SOLV>
0.524581

>  <SCORE.INTRA.SOLV.lig_0>
-15.8342

>  <SCORE.INTRA.VDW>
-0.352621

>  <SCORE.INTRA.VDW.0>
-0.219494

>  <SCORE.INTRA.norm>
-0.323461

>  <SCORE.RESTR>
0

>  <SCORE.RESTR.CAVITY>
0

>  <SCORE.RESTR.norm>
0

>  <SCORE.SYSTEM>
0

>  <SCORE.SYSTEM.CONST>
0

>  <SCORE.SYSTEM.DIHEDRAL>
0

>  <SCORE.SYSTEM.SOLV>
0

>  <SCORE.SYSTEM.norm>
0

>  <SCORE.heavy>
9

>  <SCORE.norm>
-1.38749

>  <RMSD>
5.435

$$$$
ligand
 OpenBabel02271912143D
libRbt.so/2013.1/901 2013/11/27
  9  8  0  0  0  0  0  0  0  0999 V2000
  -48.9399   67.6090  -18.3679 C   0  0  0  0  0  0  0  0  0  0  0  0
  -48.5264   66.3966  -18.2732 O   0  0  0  0  0  0  0  0  0  0  0  0
  -48.6819   68.3797  -19.5909 C   0  0  0  0  0  0  0  0  0  0  0  0
  -49.5377   68.1850  -17.4012 O   0  0  0  0  0  0  0  0  0  0  0  0
  -49.2178   67.7797  -20.8518 C   0  0  0  0  0  0  0  0  0  0  0  0
  -49.0390   68.5402  -22.1139 C   0  0  0  0  0  0  0  0  0  0  0  0
  -47.6031   68.6213  -22.6041 C   0  0  0  0  0  0  0  0  0  0  0  0
  -46.8756   67.3377  -23.0342 C   0  0  0  0  0  0  0  0  0  0  0  0
  -45.5858   67.4574  -23.5099 N   0  0  0  0  0  0  0  0  0  0  0  0
  1  2  1  0  0  0  0
  1  3  1  0  0  0  0
  1  4  1  0  0  0  0
  3  5  1  0  0  0  0
  5  6  1  0  0  0  0
  6  7  1  0  0  0  0
  7  8  1  0  0  0  0
  8  9  1  0  0  0  0
M  END
>  <CHROM.1>
57.91500472,177.47013416,69.41906785,64.72390915,178.16772607,-48.23706399
67.79905418,-20.58757408,-2.11626402,0.62427906,-1.19070228

>  <Name>
ligand

>  <RI>
0

>  <Rbt.Current_Directory>
/home/itssahil/PROJECTS/Mol_Feturizer/Test_systems_manuscript/rnas/4erj

>  <Rbt.Executable>
rbdock ($Id: //depot/dev/client3/rdock/2013.1/src/exe/rbdock.cxx#4 $)

>  <Rbt.Library>
libRbt.so (2013.1, Build901 2013/11/27)

>  <Rbt.Parameter_File>
/export/apps/rDock/src/rDock_2013.1_src/data/scripts/dock_solv.prm

>  <Rbt.Receptor>
prm/pocket_docking_7.prm

>  <SCORE>
-11.989

>  <SCORE.INTER>
-9.26079

>  <SCORE.INTER.CONST>
1

>  <SCORE.INTER.POLAR>
0

>  <SCORE.INTER.ROT>
5

>  <SCORE.INTER.SOLV>
7.11671

>  <SCORE.INTER.VDW>
-15.4794

>  <SCORE.INTER.norm>
-1.02898

>  <SCORE.INTRA>
-2.72821

>  <SCORE.INTRA.DIHEDRAL>
-5.57711

>  <SCORE.INTRA.DIHEDRAL.0>
7.73744

>  <SCORE.INTRA.POLAR>
0

>  <SCORE.INTRA.POLAR.0>
0

>  <SCORE.INTRA.REPUL>
0

>  <SCORE.INTRA.REPUL.0>
0

>  <SCORE.INTRA.SOLV>
0.0243969

>  <SCORE.INTRA.SOLV.lig_0>
-15.8342

>  <SCORE.INTRA.VDW>
0.0481409

>  <SCORE.INTRA.VDW.0>
-0.219494

>  <SCORE.INTRA.norm>
-0.303135

>  <SCORE.RESTR>
0

>  <SCORE.RESTR.CAVITY>
0

>  <SCORE.RESTR.norm>
0

>  <SCORE.SYSTEM>
0

>  <SCORE.SYSTEM.CONST>
0

>  <SCORE.SYSTEM.DIHEDRAL>
0

>  <SCORE.SYSTEM.SOLV>
0

>  <SCORE.SYSTEM.norm>
0

>  <SCORE.heavy>
9

>  <SCORE.norm>
-1.33211

>  <RMSD>
5.436

$$$$
ligand
 OpenBabel02271912143D
libRbt.so/2013.1/901 2013/11/27
  9  8  0  0  0  0  0  0  0  0999 V2000
  -49.5279   67.7562  -18.6700 C   0  0  0  0  0  0  0  0  0  0  0  0
  -50.2709   68.6201  -19.2628 O   0  0  0  0  0  0  0  0  0  0  0  0
  -48.9399   66.6469  -19.4317 C   0  0  0  0  0  0  0  0  0  0  0  0
  -49.3186   67.8094  -17.4142 O   0  0  0  0  0  0  0  0  0  0  0  0
  -48.0189   67.0475  -20.5401 C   0  0  0  0  0  0  0  0  0  0  0  0
  -48.6002   67.7685  -21.7000 C   0  0  0  0  0  0  0  0  0  0  0  0
  -47.6110   68.0792  -22.8107 C   0  0  0  0  0  0  0  0  0  0  0  0
  -48.0729   68.8903  -24.0316 C   0  0  0  0  0  0  0  0  0  0  0  0
  -47.1527   69.1277  -25.0322 N   0  0  0  0  0  0  0  0  0  0  0  0
  1  2  1  0  0  0  0
  1  3  1  0  0  0  0
  1  4  1  0  0  0  0
  3  5  1  0  0  0  0
  5  6  1  0  0  0  0
  6  7  1  0  0  0  0
  7  8  1  0  0  0  0
  8  9  1  0  0  0  0
M  END
>  <CHROM.1>
60.90795463,-66.45124593,-177.18337264,-176.66395111,-178.65792552,-48.63478289
67.98245875,-20.94238473,2.05123875,-0.83807956,2.11853963

>  <Name>
ligand

>  <RI>
0

>  <Rbt.Current_Directory>
/home/itssahil/PROJECTS/Mol_Feturizer/Test_systems_manuscript/rnas/4erj

>  <Rbt.Executable>
rbdock ($Id: //depot/dev/client3/rdock/2013.1/src/exe/rbdock.cxx#4 $)

>  <Rbt.Library>
libRbt.so (2013.1, Build901 2013/11/27)

>  <Rbt.Parameter_File>
/export/apps/rDock/src/rDock_2013.1_src/data/scripts/dock_solv.prm

>  <Rbt.Receptor>
prm/pocket_docking_5.prm

>  <SCORE>
-13.0662

>  <SCORE.INTER>
-9.77773

>  <SCORE.INTER.CONST>
1

>  <SCORE.INTER.POLAR>
0

>  <SCORE.INTER.ROT>
5

>  <SCORE.INTER.SOLV>
9.08091

>  <SCORE.INTER.VDW>
-16.4788

>  <SCORE.INTER.norm>
-1.08641

>  <SCORE.INTRA>
-3.28842

>  <SCORE.INTRA.DIHEDRAL>
-5.79918

>  <SCORE.INTRA.DIHEDRAL.0>
7.73744

>  <SCORE.INTRA.POLAR>
0

>  <SCORE.INTRA.POLAR.0>
0

>  <SCORE.INTRA.REPUL>
0

>  <SCORE.INTRA.REPUL.0>
0

>  <SCORE.INTRA.SOLV>
-0.122938

>  <SCORE.INTRA.SOLV.lig_0>
-15.8342

>  <SCORE.INTRA.VDW>
-0.327363

>  <SCORE.INTRA.VDW.0>
-0.219494

>  <SCORE.INTRA.norm>
-0.36538

>  <SCORE.RESTR>
0

>  <SCORE.RESTR.CAVITY>
0

>  <SCORE.RESTR.norm>
0

>  <SCORE.SYSTEM>
0

>  <SCORE.SYSTEM.CONST>
0

>  <SCORE.SYSTEM.DIHEDRAL>
0

>  <SCORE.SYSTEM.SOLV>
0

>  <SCORE.SYSTEM.norm>
0

>  <SCORE.heavy>
9

>  <SCORE.norm>
-1.45179

>  <RMSD>
5.444

$$$$
ligand
 OpenBabel02271912143D
libRbt.so/2013.1/901 2013/11/27
  9  8  0  0  0  0  0  0  0  0999 V2000
  -50.2196   69.4452  -18.9419 C   0  0  0  0  0  0  0  0  0  0  0  0
  -49.8757   70.2353  -19.8944 O   0  0  0  0  0  0  0  0  0  0  0  0
  -49.2099   68.6094  -18.2799 C   0  0  0  0  0  0  0  0  0  0  0  0
  -51.4357   69.3316  -18.5787 O   0  0  0  0  0  0  0  0  0  0  0  0
  -49.2288   67.1619  -18.6565 C   0  0  0  0  0  0  0  0  0  0  0  0
  -49.0882   66.8160  -20.0930 C   0  0  0  0  0  0  0  0  0  0  0  0
  -47.7726   67.2456  -20.7201 C   0  0  0  0  0  0  0  0  0  0  0  0
  -47.5177   66.9694  -22.2103 C   0  0  0  0  0  0  0  0  0  0  0  0
  -46.3100   67.3728  -22.7423 N   0  0  0  0  0  0  0  0  0  0  0  0
  1  2  1  0  0  0  0
  1  3  1  0  0  0  0
  1  4  1  0  0  0  0
  3  5  1  0  0  0  0
  5  6  1  0  0  0  0
  6  7  1  0  0  0  0
  7  8  1  0  0  0  0
  8  9  1  0  0  0  0
M  END
>  <CHROM.1>
-104.62428716,56.63837827,62.17677231,-178.78534756,-179.89727077,-48.99480712
68.16221484,-20.00554036,3.13932967,-0.86274344,2.55682910

>  <Name>
ligand

>  <RI>
0

>  <Rbt.Current_Directory>
/home/itssahil/PROJECTS/Mol_Feturizer/Test_systems_manuscript/rnas/4erj

>  <Rbt.Executable>
rbdock ($Id: //depot/dev/client3/rdock/2013.1/src/exe/rbdock.cxx#4 $)

>  <Rbt.Library>
libRbt.so (2013.1, Build901 2013/11/27)

>  <Rbt.Parameter_File>
/export/apps/rDock/src/rDock_2013.1_src/data/scripts/dock_solv.prm

>  <Rbt.Receptor>
prm/blind_docking_100.prm

>  <SCORE>
-15.2953

>  <SCORE.INTER>
-12.0481

>  <SCORE.INTER.CONST>
1

>  <SCORE.INTER.POLAR>
0

>  <SCORE.INTER.ROT>
5

>  <SCORE.INTER.SOLV>
7.66907

>  <SCORE.INTER.VDW>
-17.5218

>  <SCORE.INTER.norm>
-1.33868

>  <SCORE.INTRA>
-3.24721

>  <SCORE.INTRA.DIHEDRAL>
-6.05235

>  <SCORE.INTRA.DIHEDRAL.0>
7.73744

>  <SCORE.INTRA.POLAR>
0

>  <SCORE.INTRA.POLAR.0>
0

>  <SCORE.INTRA.REPUL>
0

>  <SCORE.INTRA.REPUL.0>
0

>  <SCORE.INTRA.SOLV>
-0.134019

>  <SCORE.INTRA.SOLV.lig_0>
-15.8342

>  <SCORE.INTRA.VDW>
-0.154029

>  <SCORE.INTRA.VDW.0>
-0.219494

>  <SCORE.INTRA.norm>
-0.360802

>  <SCORE.RESTR>
0

>  <SCORE.RESTR.CAVITY>
0

>  <SCORE.RESTR.norm>
0

>  <SCORE.SYSTEM>
0

>  <SCORE.SYSTEM.CONST>
0

>  <SCORE.SYSTEM.DIHEDRAL>
0

>  <SCORE.SYSTEM.SOLV>
0

>  <SCORE.SYSTEM.norm>
0

>  <SCORE.heavy>
9

>  <SCORE.norm>
-1.69948

>  <RMSD>
5.446

$$$$
ligand
 OpenBabel02271912143D
libRbt.so/2013.1/901 2013/11/27
  9  8  0  0  0  0  0  0  0  0999 V2000
  -50.2701   69.4396  -18.9855 C   0  0  0  0  0  0  0  0  0  0  0  0
  -51.4917   69.3597  -18.5967 O   0  0  0  0  0  0  0  0  0  0  0  0
  -49.2339   68.6389  -18.3212 C   0  0  0  0  0  0  0  0  0  0  0  0
  -49.9191   70.2372  -19.9152 O   0  0  0  0  0  0  0  0  0  0  0  0
  -49.2212   67.1857  -18.6753 C   0  0  0  0  0  0  0  0  0  0  0  0
  -49.0791   66.8208  -20.1070 C   0  0  0  0  0  0  0  0  0  0  0  0
  -47.7687   67.2546  -20.7421 C   0  0  0  0  0  0  0  0  0  0  0  0
  -47.5216   66.9784  -22.2336 C   0  0  0  0  0  0  0  0  0  0  0  0
  -46.3383   67.4269  -22.7838 N   0  0  0  0  0  0  0  0  0  0  0  0
  1  2  1  0  0  0  0
  1  3  1  0  0  0  0
  1  4  1  0  0  0  0
  3  5  1  0  0  0  0
  5  6  1  0  0  0  0
  6  7  1  0  0  0  0
  7  8  1  0  0  0  0
  8  9  1  0  0  0  0
M  END
>  <CHROM.1>
75.55732197,56.95949566,62.94204951,-177.88637033,177.89301045,-49.01584129
68.17970464,-20.03205944,3.12064110,-0.85677905,2.53286328

>  <Name>
ligand

>  <RI>
0

>  <Rbt.Current_Directory>
/home/itssahil/PROJECTS/Mol_Feturizer/Test_systems_manuscript/rnas/4erj

>  <Rbt.Executable>
rbdock ($Id: //depot/dev/client3/rdock/2013.1/src/exe/rbdock.cxx#4 $)

>  <Rbt.Library>
libRbt.so (2013.1, Build901 2013/11/27)

>  <Rbt.Parameter_File>
/export/apps/rDock/src/rDock_2013.1_src/data/scripts/dock_solv.prm

>  <Rbt.Receptor>
prm/pocket_docking_4.prm

>  <SCORE>
-15.2721

>  <SCORE.INTER>
-12.0744

>  <SCORE.INTER.CONST>
1

>  <SCORE.INTER.POLAR>
0

>  <SCORE.INTER.ROT>
5

>  <SCORE.INTER.SOLV>
7.52824

>  <SCORE.INTER.VDW>
-17.4923

>  <SCORE.INTER.norm>
-1.3416

>  <SCORE.INTRA>
-3.19778

>  <SCORE.INTRA.DIHEDRAL>
-5.87804

>  <SCORE.INTRA.DIHEDRAL.0>
7.73744

>  <SCORE.INTRA.POLAR>
0

>  <SCORE.INTRA.POLAR.0>
0

>  <SCORE.INTRA.REPUL>
0

>  <SCORE.INTRA.REPUL.0>
0

>  <SCORE.INTRA.SOLV>
-0.133254

>  <SCORE.INTRA.SOLV.lig_0>
-15.8342

>  <SCORE.INTRA.VDW>
-0.192135

>  <SCORE.INTRA.VDW.0>
-0.219494

>  <SCORE.INTRA.norm>
-0.355309

>  <SCORE.RESTR>
0

>  <SCORE.RESTR.CAVITY>
0

>  <SCORE.RESTR.norm>
0

>  <SCORE.SYSTEM>
0

>  <SCORE.SYSTEM.CONST>
0

>  <SCORE.SYSTEM.DIHEDRAL>
0

>  <SCORE.SYSTEM.SOLV>
0

>  <SCORE.SYSTEM.norm>
0

>  <SCORE.heavy>
9

>  <SCORE.norm>
-1.6969

>  <RMSD>
5.448

$$$$
ligand
 OpenBabel02271912143D
libRbt.so/2013.1/901 2013/11/27
  9  8  0  0  0  0  0  0  0  0999 V2000
  -50.5903   69.3792  -19.2132 C   0  0  0  0  0  0  0  0  0  0  0  0
  -51.7159   69.5251  -18.6118 O   0  0  0  0  0  0  0  0  0  0  0  0
  -49.4522   68.7781  -18.5062 C   0  0  0  0  0  0  0  0  0  0  0  0
  -50.4172   69.7863  -20.4081 O   0  0  0  0  0  0  0  0  0  0  0  0
  -49.2790   67.3058  -18.7053 C   0  0  0  0  0  0  0  0  0  0  0  0
  -49.0661   66.8121  -20.0888 C   0  0  0  0  0  0  0  0  0  0  0  0
  -47.7927   67.3131  -20.7490 C   0  0  0  0  0  0  0  0  0  0  0  0
  -47.4801   66.9070  -22.1979 C   0  0  0  0  0  0  0  0  0  0  0  0
  -46.3369   67.4184  -22.7774 N   0  0  0  0  0  0  0  0  0  0  0  0
  1  2  1  0  0  0  0
  1  3  1  0  0  0  0
  1  4  1  0  0  0  0
  3  5  1  0  0  0  0
  5  6  1  0  0  0  0
  6  7  1  0  0  0  0
  7  8  1  0  0  0  0
  8  9  1  0  0  0  0
M  END
>  <CHROM.1>
94.48680744,59.76911113,63.05494959,-178.15502144,177.87027847,-49.16275908
68.16348072,-20.13450667,2.92203579,-0.76837221,2.22272972

>  <Name>
ligand

>  <RI>
0

>  <Rbt.Current_Directory>
/home/itssahil/PROJECTS/Mol_Feturizer/Test_systems_manuscript/rnas/4erj

>  <Rbt.Executable>
rbdock ($Id: //depot/dev/client3/rdock/2013.1/src/exe/rbdock.cxx#4 $)

>  <Rbt.Library>
libRbt.so (2013.1, Build901 2013/11/27)

>  <Rbt.Parameter_File>
/export/apps/rDock/src/rDock_2013.1_src/data/scripts/dock_solv.prm

>  <Rbt.Receptor>
prm/pocket_docking_8.prm

>  <SCORE>
-15.2304

>  <SCORE.INTER>
-11.9877

>  <SCORE.INTER.CONST>
1

>  <SCORE.INTER.POLAR>
0

>  <SCORE.INTER.ROT>
5

>  <SCORE.INTER.SOLV>
7.32566

>  <SCORE.INTER.VDW>
-17.367

>  <SCORE.INTER.norm>
-1.33197

>  <SCORE.INTRA>
-3.24272

>  <SCORE.INTRA.DIHEDRAL>
-5.88759

>  <SCORE.INTRA.DIHEDRAL.0>
7.73744

>  <SCORE.INTRA.POLAR>
0

>  <SCORE.INTRA.POLAR.0>
0

>  <SCORE.INTRA.REPUL>
0

>  <SCORE.INTRA.REPUL.0>
0

>  <SCORE.INTRA.SOLV>
-0.133412

>  <SCORE.INTRA.SOLV.lig_0>
-15.8342

>  <SCORE.INTRA.VDW>
-0.232217

>  <SCORE.INTRA.VDW.0>
-0.219494

>  <SCORE.INTRA.norm>
-0.360302

>  <SCORE.RESTR>
0

>  <SCORE.RESTR.CAVITY>
0

>  <SCORE.RESTR.norm>
0

>  <SCORE.SYSTEM>
0

>  <SCORE.SYSTEM.CONST>
0

>  <SCORE.SYSTEM.DIHEDRAL>
0

>  <SCORE.SYSTEM.SOLV>
0

>  <SCORE.SYSTEM.norm>
0

>  <SCORE.heavy>
9

>  <SCORE.norm>
-1.69227

>  <RMSD>
5.450

$$$$
ligand
 OpenBabel02271912143D
libRbt.so/2013.1/901 2013/11/27
  9  8  0  0  0  0  0  0  0  0999 V2000
  -49.0969   67.4820  -18.4807 C   0  0  0  0  0  0  0  0  0  0  0  0
  -49.0238   66.5528  -19.3645 O   0  0  0  0  0  0  0  0  0  0  0  0
  -48.6580   68.8443  -18.8090 C   0  0  0  0  0  0  0  0  0  0  0  0
  -49.5039   67.2432  -17.2970 O   0  0  0  0  0  0  0  0  0  0  0  0
  -48.6378   69.1774  -20.2670 C   0  0  0  0  0  0  0  0  0  0  0  0
  -47.7059   68.4204  -21.1397 C   0  0  0  0  0  0  0  0  0  0  0  0
  -47.8410   68.7250  -22.6222 C   0  0  0  0  0  0  0  0  0  0  0  0
  -47.0479   67.8926  -23.6420 C   0  0  0  0  0  0  0  0  0  0  0  0
  -45.6716   67.8940  -23.5429 N   0  0  0  0  0  0  0  0  0  0  0  0
  1  2  1  0  0  0  0
  1  3  1  0  0  0  0
  1  4  1  0  0  0  0
  3  5  1  0  0  0  0
  5  6  1  0  0  0  0
  6  7  1  0  0  0  0
  7  8  1  0  0  0  0
  8  9  1  0  0  0  0
M  END
>  <CHROM.1>
22.10076410,-63.62792291,174.43998753,-173.03933741,-59.68001904,-48.15191399
67.99958918,-20.53728435,-2.85103238,1.09559358,-0.20085056

>  <Name>
ligand

>  <RI>
0

>  <Rbt.Current_Directory>
/home/itssahil/PROJECTS/Mol_Feturizer/Test_systems_manuscript/rnas/4erj

>  <Rbt.Executable>
rbdock ($Id: //depot/dev/client3/rdock/2013.1/src/exe/rbdock.cxx#4 $)

>  <Rbt.Library>
libRbt.so (2013.1, Build901 2013/11/27)

>  <Rbt.Parameter_File>
/export/apps/rDock/src/rDock_2013.1_src/data/scripts/dock_solv.prm

>  <Rbt.Receptor>
prm/pocket_docking_6.prm

>  <SCORE>
-12.3129

>  <SCORE.INTER>
-10.0503

>  <SCORE.INTER.CONST>
1

>  <SCORE.INTER.POLAR>
0

>  <SCORE.INTER.ROT>
5

>  <SCORE.INTER.SOLV>
6.93802

>  <SCORE.INTER.VDW>
-15.9462

>  <SCORE.INTER.norm>
-1.1167

>  <SCORE.INTRA>
-2.26267

>  <SCORE.INTRA.DIHEDRAL>
-5.76187

>  <SCORE.INTRA.DIHEDRAL.0>
7.73744

>  <SCORE.INTRA.POLAR>
0

>  <SCORE.INTRA.POLAR.0>
0

>  <SCORE.INTRA.REPUL>
0

>  <SCORE.INTRA.REPUL.0>
0

>  <SCORE.INTRA.SOLV>
0.506926

>  <SCORE.INTRA.SOLV.lig_0>
-15.8342

>  <SCORE.INTRA.VDW>
0.364805

>  <SCORE.INTRA.VDW.0>
-0.219494

>  <SCORE.INTRA.norm>
-0.251407

>  <SCORE.RESTR>
0

>  <SCORE.RESTR.CAVITY>
0

>  <SCORE.RESTR.norm>
0

>  <SCORE.SYSTEM>
0

>  <SCORE.SYSTEM.CONST>
0

>  <SCORE.SYSTEM.DIHEDRAL>
0

>  <SCORE.SYSTEM.SOLV>
0

>  <SCORE.SYSTEM.norm>
0

>  <SCORE.heavy>
9

>  <SCORE.norm>
-1.3681

>  <RMSD>
5.451

$$$$
ligand
 OpenBabel02271912143D
libRbt.so/2013.1/901 2013/11/27
  9  8  0  0  0  0  0  0  0  0999 V2000
  -50.2615   69.4612  -18.9848 C   0  0  0  0  0  0  0  0  0  0  0  0
  -51.4840   69.3880  -18.5976 O   0  0  0  0  0  0  0  0  0  0  0  0
  -49.2321   68.6473  -18.3257 C   0  0  0  0  0  0  0  0  0  0  0  0
  -49.9034   70.2631  -19.9080 O   0  0  0  0  0  0  0  0  0  0  0  0
  -49.2457   67.1924  -18.6729 C   0  0  0  0  0  0  0  0  0  0  0  0
  -49.0816   66.8171  -20.0995 C   0  0  0  0  0  0  0  0  0  0  0  0
  -47.7626   67.2484  -20.7183 C   0  0  0  0  0  0  0  0  0  0  0  0
  -47.4759   66.9253  -22.1931 C   0  0  0  0  0  0  0  0  0  0  0  0
  -46.2667   67.3329  -22.7181 N   0  0  0  0  0  0  0  0  0  0  0  0
  1  2  1  0  0  0  0
  1  3  1  0  0  0  0
  1  4  1  0  0  0  0
  3  5  1  0  0  0  0
  5  6  1  0  0  0  0
  6  7  1  0  0  0  0
  7  8  1  0  0  0  0
  8  9  1  0  0  0  0
M  END
>  <CHROM.1>
74.54304689,58.74078975,61.46562395,-179.65911392,-179.96203288,-49.00137360
68.17297081,-20.01641254,-3.11800553,-0.85150517,2.56473531

>  <Name>
ligand

>  <RI>
0

>  <Rbt.Current_Directory>
/home/itssahil/PROJECTS/Mol_Feturizer/Test_systems_manuscript/rnas/4erj

>  <Rbt.Executable>
rbdock ($Id: //depot/dev/client3/rdock/2013.1/src/exe/rbdock.cxx#4 $)

>  <Rbt.Library>
libRbt.so (2013.1, Build901 2013/11/27)

>  <Rbt.Parameter_File>
/export/apps/rDock/src/rDock_2013.1_src/data/scripts/dock_solv.prm

>  <Rbt.Receptor>
prm/pocket_docking_7.prm

>  <SCORE>
-15.2397

>  <SCORE.INTER>
-12.017

>  <SCORE.INTER.CONST>
1

>  <SCORE.INTER.POLAR>
0

>  <SCORE.INTER.ROT>
5

>  <SCORE.INTER.SOLV>
7.68882

>  <SCORE.INTER.VDW>
-17.5076

>  <SCORE.INTER.norm>
-1.33522

>  <SCORE.INTRA>
-3.2227

>  <SCORE.INTRA.DIHEDRAL>
-5.97631

>  <SCORE.INTRA.DIHEDRAL.0>
7.73744

>  <SCORE.INTRA.POLAR>
0

>  <SCORE.INTRA.POLAR.0>
0

>  <SCORE.INTRA.REPUL>
0

>  <SCORE.INTRA.REPUL.0>
0

>  <SCORE.INTRA.SOLV>
-0.133391

>  <SCORE.INTRA.SOLV.lig_0>
-15.8342

>  <SCORE.INTRA.VDW>
-0.167847

>  <SCORE.INTRA.VDW.0>
-0.219494

>  <SCORE.INTRA.norm>
-0.358078

>  <SCORE.RESTR>
0

>  <SCORE.RESTR.CAVITY>
0

>  <SCORE.RESTR.norm>
0

>  <SCORE.SYSTEM>
0

>  <SCORE.SYSTEM.CONST>
0

>  <SCORE.SYSTEM.DIHEDRAL>
0

>  <SCORE.SYSTEM.SOLV>
0

>  <SCORE.SYSTEM.norm>
0

>  <SCORE.heavy>
9

>  <SCORE.norm>
-1.6933

>  <RMSD>
5.454

$$$$
ligand
 OpenBabel02271912143D
libRbt.so/2013.1/901 2013/11/27
  9  8  0  0  0  0  0  0  0  0999 V2000
  -50.6343   69.4016  -19.2275 C   0  0  0  0  0  0  0  0  0  0  0  0
  -51.7596   69.5508  -18.6264 O   0  0  0  0  0  0  0  0  0  0  0  0
  -49.4866   68.8346  -18.5080 C   0  0  0  0  0  0  0  0  0  0  0  0
  -50.4702   69.7768  -20.4341 O   0  0  0  0  0  0  0  0  0  0  0  0
  -49.2884   67.3616  -18.6764 C   0  0  0  0  0  0  0  0  0  0  0  0
  -49.0732   66.8422  -20.0500 C   0  0  0  0  0  0  0  0  0  0  0  0
  -47.8040   67.3392  -20.7214 C   0  0  0  0  0  0  0  0  0  0  0  0
  -47.4927   66.9115  -22.1643 C   0  0  0  0  0  0  0  0  0  0  0  0
  -46.3380   67.3957  -22.7443 N   0  0  0  0  0  0  0  0  0  0  0  0
  1  2  1  0  0  0  0
  1  3  1  0  0  0  0
  1  4  1  0  0  0  0
  3  5  1  0  0  0  0
  5  6  1  0  0  0  0
  6  7  1  0  0  0  0
  7  8  1  0  0  0  0
  8  9  1  0  0  0  0
M  END
>  <CHROM.1>
95.04312064,59.47164214,63.69255363,-177.89660518,179.29834774,-49.18726400
68.18405346,-20.12339861,2.90546568,-0.75611017,2.18307941

>  <Name>
ligand

>  <RI>
0

>  <Rbt.Current_Directory>
/home/itssahil/PROJECTS/Mol_Feturizer/Test_systems_manuscript/rnas/4erj

>  <Rbt.Executable>
rbdock ($Id: //depot/dev/client3/rdock/2013.1/src/exe/rbdock.cxx#4 $)

>  <Rbt.Library>
libRbt.so (2013.1, Build901 2013/11/27)

>  <Rbt.Parameter_File>
/export/apps/rDock/src/rDock_2013.1_src/data/scripts/dock_solv.prm

>  <Rbt.Receptor>
prm/pocket_docking_7.prm

>  <SCORE>
-15.256

>  <SCORE.INTER>
-12.0085

>  <SCORE.INTER.CONST>
1

>  <SCORE.INTER.POLAR>
0

>  <SCORE.INTER.ROT>
5

>  <SCORE.INTER.SOLV>
7.35097

>  <SCORE.INTER.VDW>
-17.3893

>  <SCORE.INTER.norm>
-1.33428

>  <SCORE.INTRA>
-3.24746

>  <SCORE.INTRA.DIHEDRAL>
-5.88025

>  <SCORE.INTRA.DIHEDRAL.0>
7.73744

>  <SCORE.INTRA.POLAR>
0

>  <SCORE.INTRA.POLAR.0>
0

>  <SCORE.INTRA.REPUL>
0

>  <SCORE.INTRA.REPUL.0>
0

>  <SCORE.INTRA.SOLV>
-0.133574

>  <SCORE.INTRA.SOLV.lig_0>
-15.8342

>  <SCORE.INTRA.VDW>
-0.240542

>  <SCORE.INTRA.VDW.0>
-0.219494

>  <SCORE.INTRA.norm>
-0.360828

>  <SCORE.RESTR>
0

>  <SCORE.RESTR.CAVITY>
0

>  <SCORE.RESTR.norm>
0

>  <SCORE.SYSTEM>
0

>  <SCORE.SYSTEM.CONST>
0

>  <SCORE.SYSTEM.DIHEDRAL>
0

>  <SCORE.SYSTEM.SOLV>
0

>  <SCORE.SYSTEM.norm>
0

>  <SCORE.heavy>
9

>  <SCORE.norm>
-1.69511

>  <RMSD>
5.459

$$$$
ligand
 OpenBabel02271912143D
libRbt.so/2013.1/901 2013/11/27
  9  8  0  0  0  0  0  0  0  0999 V2000
  -50.5985   69.4249  -19.2056 C   0  0  0  0  0  0  0  0  0  0  0  0
  -51.7302   69.5315  -18.6075 O   0  0  0  0  0  0  0  0  0  0  0  0
  -49.4500   68.8361  -18.5051 C   0  0  0  0  0  0  0  0  0  0  0  0
  -50.4292   69.8611  -20.3907 O   0  0  0  0  0  0  0  0  0  0  0  0
  -49.2779   67.3610  -18.6832 C   0  0  0  0  0  0  0  0  0  0  0  0
  -49.0638   66.8477  -20.0593 C   0  0  0  0  0  0  0  0  0  0  0  0
  -47.7940   67.3460  -20.7287 C   0  0  0  0  0  0  0  0  0  0  0  0
  -47.4834   66.9241  -22.1734 C   0  0  0  0  0  0  0  0  0  0  0  0
  -46.3326   67.4163  -22.7544 N   0  0  0  0  0  0  0  0  0  0  0  0
  1  2  1  0  0  0  0
  1  3  1  0  0  0  0
  1  4  1  0  0  0  0
  3  5  1  0  0  0  0
  5  6  1  0  0  0  0
  6  7  1  0  0  0  0
  7  8  1  0  0  0  0
  8  9  1  0  0  0  0
M  END
>  <CHROM.1>
91.77297032,60.65240062,62.64168531,-177.92383315,178.88101887,-49.16622121
68.19941433,-20.11791261,2.92777428,-0.76795108,2.22081048

>  <Name>
ligand

>  <RI>
0

>  <Rbt.Current_Directory>
/home/itssahil/PROJECTS/Mol_Feturizer/Test_systems_manuscript/rnas/4erj

>  <Rbt.Executable>
rbdock ($Id: //depot/dev/client3/rdock/2013.1/src/exe/rbdock.cxx#4 $)

>  <Rbt.Library>
libRbt.so (2013.1, Build901 2013/11/27)

>  <Rbt.Parameter_File>
/export/apps/rDock/src/rDock_2013.1_src/data/scripts/dock_solv.prm

>  <Rbt.Receptor>
prm/pocket_docking_3.prm

>  <SCORE>
-15.2341

>  <SCORE.INTER>
-11.9796

>  <SCORE.INTER.CONST>
1

>  <SCORE.INTER.POLAR>
0

>  <SCORE.INTER.ROT>
5

>  <SCORE.INTER.SOLV>
7.28189

>  <SCORE.INTER.VDW>
-17.347

>  <SCORE.INTER.norm>
-1.33107

>  <SCORE.INTRA>
-3.25448

>  <SCORE.INTRA.DIHEDRAL>
-5.90299

>  <SCORE.INTRA.DIHEDRAL.0>
7.73744

>  <SCORE.INTRA.POLAR>
0

>  <SCORE.INTRA.POLAR.0>
0

>  <SCORE.INTRA.REPUL>
0

>  <SCORE.INTRA.REPUL.0>
0

>  <SCORE.INTRA.SOLV>
-0.133363

>  <SCORE.INTRA.SOLV.lig_0>
-15.8342

>  <SCORE.INTRA.VDW>
-0.236298

>  <SCORE.INTRA.VDW.0>
-0.219494

>  <SCORE.INTRA.norm>
-0.361608

>  <SCORE.RESTR>
0

>  <SCORE.RESTR.CAVITY>
0

>  <SCORE.RESTR.norm>
0

>  <SCORE.SYSTEM>
0

>  <SCORE.SYSTEM.CONST>
0

>  <SCORE.SYSTEM.DIHEDRAL>
0

>  <SCORE.SYSTEM.SOLV>
0

>  <SCORE.SYSTEM.norm>
0

>  <SCORE.heavy>
9

>  <SCORE.norm>
-1.69268

>  <RMSD>
5.460

$$$$
ligand
 OpenBabel02271912143D
libRbt.so/2013.1/901 2013/11/27
  9  8  0  0  0  0  0  0  0  0999 V2000
  -50.7526   69.5811  -18.9410 C   0  0  0  0  0  0  0  0  0  0  0  0
  -52.0221   69.5686  -18.7460 O   0  0  0  0  0  0  0  0  0  0  0  0
  -49.8981   68.5858  -18.2811 C   0  0  0  0  0  0  0  0  0  0  0  0
  -50.2001   70.4715  -19.6659 O   0  0  0  0  0  0  0  0  0  0  0  0
  -48.8682   67.9443  -19.1558 C   0  0  0  0  0  0  0  0  0  0  0  0
  -49.3364   67.2204  -20.3641 C   0  0  0  0  0  0  0  0  0  0  0  0
  -48.2251   66.6433  -21.2247 C   0  0  0  0  0  0  0  0  0  0  0  0
  -47.1366   67.5746  -21.7812 C   0  0  0  0  0  0  0  0  0  0  0  0
  -47.5343   68.6146  -22.5963 N   0  0  0  0  0  0  0  0  0  0  0  0
  1  2  1  0  0  0  0
  1  3  1  0  0  0  0
  1  4  1  0  0  0  0
  3  5  1  0  0  0  0
  5  6  1  0  0  0  0
  6  7  1  0  0  0  0
  7  8  1  0  0  0  0
  8  9  1  0  0  0  0
M  END
>  <CHROM.1>
134.74393374,-58.31398945,177.81437282,-57.17078941,-59.33944639,-49.36311031
68.49739643,-20.07455433,-3.08958766,-0.81447966,2.61189589

>  <Name>
ligand

>  <RI>
0

>  <Rbt.Current_Directory>
/home/itssahil/PROJECTS/Mol_Feturizer/Test_systems_manuscript/rnas/4erj

>  <Rbt.Executable>
rbdock ($Id: //depot/dev/client3/rdock/2013.1/src/exe/rbdock.cxx#4 $)

>  <Rbt.Library>
libRbt.so (2013.1, Build901 2013/11/27)

>  <Rbt.Parameter_File>
/export/apps/rDock/src/rDock_2013.1_src/data/scripts/dock_solv.prm

>  <Rbt.Receptor>
prm/blind_docking_100.prm

>  <SCORE>
-13.1709

>  <SCORE.INTER>
-10.7766

>  <SCORE.INTER.CONST>
1

>  <SCORE.INTER.POLAR>
0

>  <SCORE.INTER.ROT>
5

>  <SCORE.INTER.SOLV>
6.96558

>  <SCORE.INTER.VDW>
-16.4396

>  <SCORE.INTER.norm>
-1.1974

>  <SCORE.INTRA>
-2.39432

>  <SCORE.INTRA.DIHEDRAL>
-6.05613

>  <SCORE.INTRA.DIHEDRAL.0>
7.73744

>  <SCORE.INTRA.POLAR>
0

>  <SCORE.INTRA.POLAR.0>
0

>  <SCORE.INTRA.REPUL>
0

>  <SCORE.INTRA.REPUL.0>
0

>  <SCORE.INTRA.SOLV>
1.14106

>  <SCORE.INTRA.SOLV.lig_0>
-15.8342

>  <SCORE.INTRA.VDW>
0.0632159

>  <SCORE.INTRA.VDW.0>
-0.219494

>  <SCORE.INTRA.norm>
-0.266035

>  <SCORE.RESTR>
0

>  <SCORE.RESTR.CAVITY>
0

>  <SCORE.RESTR.norm>
0

>  <SCORE.SYSTEM>
0

>  <SCORE.SYSTEM.CONST>
0

>  <SCORE.SYSTEM.DIHEDRAL>
0

>  <SCORE.SYSTEM.SOLV>
0

>  <SCORE.SYSTEM.norm>
0

>  <SCORE.heavy>
9

>  <SCORE.norm>
-1.46343

>  <RMSD>
5.461

$$$$
ligand
 OpenBabel02271912143D
libRbt.so/2013.1/901 2013/11/27
  9  8  0  0  0  0  0  0  0  0999 V2000
  -50.3127   69.4315  -18.9825 C   0  0  0  0  0  0  0  0  0  0  0  0
  -51.5360   69.3137  -18.6090 O   0  0  0  0  0  0  0  0  0  0  0  0
  -49.2631   68.6484  -18.3181 C   0  0  0  0  0  0  0  0  0  0  0  0
  -49.9725   70.2519  -19.8962 O   0  0  0  0  0  0  0  0  0  0  0  0
  -49.2271   67.1952  -18.6708 C   0  0  0  0  0  0  0  0  0  0  0  0
  -49.0504   66.8311  -20.0988 C   0  0  0  0  0  0  0  0  0  0  0  0
  -47.7406   67.2972  -20.7119 C   0  0  0  0  0  0  0  0  0  0  0  0
  -47.4549   67.0135  -22.1951 C   0  0  0  0  0  0  0  0  0  0  0  0
  -46.2808   67.5032  -22.7295 N   0  0  0  0  0  0  0  0  0  0  0  0
  1  2  1  0  0  0  0
  1  3  1  0  0  0  0
  1  4  1  0  0  0  0
  3  5  1  0  0  0  0
  5  6  1  0  0  0  0
  6  7  1  0  0  0  0
  7  8  1  0  0  0  0
  8  9  1  0  0  0  0
M  END
>  <CHROM.1>
74.27621474,58.26166001,62.05961276,-178.42028242,177.23726955,-49.01606021
68.19504956,-20.01577118,3.12117340,-0.83337032,2.53984385

>  <Name>
ligand

>  <RI>
0

>  <Rbt.Current_Directory>
/home/itssahil/PROJECTS/Mol_Feturizer/Test_systems_manuscript/rnas/4erj

>  <Rbt.Executable>
rbdock ($Id: //depot/dev/client3/rdock/2013.1/src/exe/rbdock.cxx#4 $)

>  <Rbt.Library>
libRbt.so (2013.1, Build901 2013/11/27)

>  <Rbt.Parameter_File>
/export/apps/rDock/src/rDock_2013.1_src/data/scripts/dock_solv.prm

>  <Rbt.Receptor>
prm/pocket_docking_7.prm

>  <SCORE>
-15.2071

>  <SCORE.INTER>
-12.0016

>  <SCORE.INTER.CONST>
1

>  <SCORE.INTER.POLAR>
0

>  <SCORE.INTER.ROT>
5

>  <SCORE.INTER.SOLV>
7.4005

>  <SCORE.INTER.VDW>
-17.4012

>  <SCORE.INTER.norm>
-1.33351

>  <SCORE.INTRA>
-3.20556

>  <SCORE.INTRA.DIHEDRAL>
-5.92381

>  <SCORE.INTRA.DIHEDRAL.0>
7.73744

>  <SCORE.INTRA.POLAR>
0

>  <SCORE.INTRA.POLAR.0>
0

>  <SCORE.INTRA.REPUL>
0

>  <SCORE.INTRA.REPUL.0>
0

>  <SCORE.INTRA.SOLV>
-0.132949

>  <SCORE.INTRA.SOLV.lig_0>
-15.8342

>  <SCORE.INTRA.VDW>
-0.177181

>  <SCORE.INTRA.VDW.0>
-0.219494

>  <SCORE.INTRA.norm>
-0.356173

>  <SCORE.RESTR>
0

>  <SCORE.RESTR.CAVITY>
0

>  <SCORE.RESTR.norm>
0

>  <SCORE.SYSTEM>
0

>  <SCORE.SYSTEM.CONST>
0

>  <SCORE.SYSTEM.DIHEDRAL>
0

>  <SCORE.SYSTEM.SOLV>
0

>  <SCORE.SYSTEM.norm>
0

>  <SCORE.heavy>
9

>  <SCORE.norm>
-1.68968

>  <RMSD>
5.461

$$$$
ligand
 OpenBabel02271912143D
libRbt.so/2013.1/901 2013/11/27
  9  8  0  0  0  0  0  0  0  0999 V2000
  -50.7564   69.6065  -18.9558 C   0  0  0  0  0  0  0  0  0  0  0  0
  -52.0257   69.6043  -18.7593 O   0  0  0  0  0  0  0  0  0  0  0  0
  -49.9025   68.6408  -18.2525 C   0  0  0  0  0  0  0  0  0  0  0  0
  -50.2034   70.4626  -19.7206 O   0  0  0  0  0  0  0  0  0  0  0  0
  -48.8238   68.0171  -19.0800 C   0  0  0  0  0  0  0  0  0  0  0  0
  -49.2270   67.2657  -20.2949 C   0  0  0  0  0  0  0  0  0  0  0  0
  -48.0688   66.7246  -21.1161 C   0  0  0  0  0  0  0  0  0  0  0  0
  -47.0435   67.7003  -21.7148 C   0  0  0  0  0  0  0  0  0  0  0  0
  -47.4984   68.6358  -22.6215 N   0  0  0  0  0  0  0  0  0  0  0  0
  1  2  1  0  0  0  0
  1  3  1  0  0  0  0
  1  4  1  0  0  0  0
  3  5  1  0  0  0  0
  5  6  1  0  0  0  0
  6  7  1  0  0  0  0
  7  8  1  0  0  0  0
  8  9  1  0  0  0  0
M  END
>  <CHROM.1>
138.08874573,-58.46169631,177.04247611,-60.58401093,-61.46893677,-49.31676273
68.54703961,-20.04905413,3.11184095,-0.78934248,2.50601723

>  <Name>
ligand

>  <RI>
0

>  <Rbt.Current_Directory>
/home/itssahil/PROJECTS/Mol_Feturizer/Test_systems_manuscript/rnas/4erj

>  <Rbt.Executable>
rbdock ($Id: //depot/dev/client3/rdock/2013.1/src/exe/rbdock.cxx#4 $)

>  <Rbt.Library>
libRbt.so (2013.1, Build901 2013/11/27)

>  <Rbt.Parameter_File>
/export/apps/rDock/src/rDock_2013.1_src/data/scripts/dock_solv.prm

>  <Rbt.Receptor>
prm/pocket_docking_8.prm

>  <SCORE>
-13.201

>  <SCORE.INTER>
-10.7421

>  <SCORE.INTER.CONST>
1

>  <SCORE.INTER.POLAR>
0

>  <SCORE.INTER.ROT>
5

>  <SCORE.INTER.SOLV>
6.95468

>  <SCORE.INTER.VDW>
-16.413

>  <SCORE.INTER.norm>
-1.19357

>  <SCORE.INTRA>
-2.45881

>  <SCORE.INTRA.DIHEDRAL>
-6.07937

>  <SCORE.INTRA.DIHEDRAL.0>
7.73744

>  <SCORE.INTRA.POLAR>
0

>  <SCORE.INTRA.POLAR.0>
0

>  <SCORE.INTRA.REPUL>
0

>  <SCORE.INTRA.REPUL.0>
0

>  <SCORE.INTRA.SOLV>
1.06722

>  <SCORE.INTRA.SOLV.lig_0>
-15.8342

>  <SCORE.INTRA.VDW>
0.047267

>  <SCORE.INTRA.VDW.0>
-0.219494

>  <SCORE.INTRA.norm>
-0.273201

>  <SCORE.RESTR>
0

>  <SCORE.RESTR.CAVITY>
0

>  <SCORE.RESTR.norm>
0

>  <SCORE.SYSTEM>
0

>  <SCORE.SYSTEM.CONST>
0

>  <SCORE.SYSTEM.DIHEDRAL>
0

>  <SCORE.SYSTEM.SOLV>
0

>  <SCORE.SYSTEM.norm>
0

>  <SCORE.heavy>
9

>  <SCORE.norm>
-1.46677

>  <RMSD>
5.462

$$$$
ligand
 OpenBabel02271912143D
libRbt.so/2013.1/901 2013/11/27
  9  8  0  0  0  0  0  0  0  0999 V2000
  -49.1206   67.4555  -18.4385 C   0  0  0  0  0  0  0  0  0  0  0  0
  -48.4342   66.3721  -18.3680 O   0  0  0  0  0  0  0  0  0  0  0  0
  -49.6765   67.8906  -19.7261 C   0  0  0  0  0  0  0  0  0  0  0  0
  -49.2990   68.1971  -17.4178 O   0  0  0  0  0  0  0  0  0  0  0  0
  -48.7957   67.6646  -20.9138 C   0  0  0  0  0  0  0  0  0  0  0  0
  -47.5122   68.4073  -20.9781 C   0  0  0  0  0  0  0  0  0  0  0  0
  -46.7112   68.1752  -22.2482 C   0  0  0  0  0  0  0  0  0  0  0  0
  -47.2779   68.6440  -23.5976 C   0  0  0  0  0  0  0  0  0  0  0  0
  -46.4720   68.5229  -24.7112 N   0  0  0  0  0  0  0  0  0  0  0  0
  1  2  1  0  0  0  0
  1  3  1  0  0  0  0
  1  4  1  0  0  0  0
  3  5  1  0  0  0  0
  5  6  1  0  0  0  0
  6  7  1  0  0  0  0
  7  8  1  0  0  0  0
  8  9  1  0  0  0  0
M  END
>  <CHROM.1>
-38.41800247,-64.66267024,-177.03321749,65.10956262,174.38132735,-48.15148804
67.91304345,-20.65937083,2.03672695,-0.57351897,2.01703200

>  <Name>
ligand

>  <RI>
0

>  <Rbt.Current_Directory>
/home/itssahil/PROJECTS/Mol_Feturizer/Test_systems_manuscript/rnas/4erj

>  <Rbt.Executable>
rbdock ($Id: //depot/dev/client3/rdock/2013.1/src/exe/rbdock.cxx#4 $)

>  <Rbt.Library>
libRbt.so (2013.1, Build901 2013/11/27)

>  <Rbt.Parameter_File>
/export/apps/rDock/src/rDock_2013.1_src/data/scripts/dock_solv.prm

>  <Rbt.Receptor>
prm/pocket_docking_7.prm

>  <SCORE>
-12.1894

>  <SCORE.INTER>
-9.45057

>  <SCORE.INTER.CONST>
1

>  <SCORE.INTER.POLAR>
0

>  <SCORE.INTER.ROT>
5

>  <SCORE.INTER.SOLV>
7.51484

>  <SCORE.INTER.VDW>
-15.7387

>  <SCORE.INTER.norm>
-1.05006

>  <SCORE.INTRA>
-2.73885

>  <SCORE.INTRA.DIHEDRAL>
-5.61409

>  <SCORE.INTRA.DIHEDRAL.0>
7.73744

>  <SCORE.INTRA.POLAR>
0

>  <SCORE.INTRA.POLAR.0>
0

>  <SCORE.INTRA.REPUL>
0

>  <SCORE.INTRA.REPUL.0>
0

>  <SCORE.INTRA.SOLV>
0.00800244

>  <SCORE.INTRA.SOLV.lig_0>
-15.8342

>  <SCORE.INTRA.VDW>
0.0641942

>  <SCORE.INTRA.VDW.0>
-0.219494

>  <SCORE.INTRA.norm>
-0.304316

>  <SCORE.RESTR>
0

>  <SCORE.RESTR.CAVITY>
0

>  <SCORE.RESTR.norm>
0

>  <SCORE.SYSTEM>
0

>  <SCORE.SYSTEM.CONST>
0

>  <SCORE.SYSTEM.DIHEDRAL>
0

>  <SCORE.SYSTEM.SOLV>
0

>  <SCORE.SYSTEM.norm>
0

>  <SCORE.heavy>
9

>  <SCORE.norm>
-1.35438

>  <RMSD>
5.464

$$$$
ligand
 OpenBabel02271912143D
libRbt.so/2013.1/901 2013/11/27
  9  8  0  0  0  0  0  0  0  0999 V2000
  -50.5829   69.3969  -19.1415 C   0  0  0  0  0  0  0  0  0  0  0  0
  -50.3972   69.7828  -20.3525 O   0  0  0  0  0  0  0  0  0  0  0  0
  -49.4821   68.7811  -18.3897 C   0  0  0  0  0  0  0  0  0  0  0  0
  -51.7227   69.4943  -18.5801 O   0  0  0  0  0  0  0  0  0  0  0  0
  -49.3108   67.3093  -18.5940 C   0  0  0  0  0  0  0  0  0  0  0  0
  -49.0944   66.8207  -19.9787 C   0  0  0  0  0  0  0  0  0  0  0  0
  -47.8158   67.3186  -20.6314 C   0  0  0  0  0  0  0  0  0  0  0  0
  -47.5042   66.9261  -22.0842 C   0  0  0  0  0  0  0  0  0  0  0  0
  -46.3432   67.4145  -22.6480 N   0  0  0  0  0  0  0  0  0  0  0  0
  1  2  1  0  0  0  0
  1  3  1  0  0  0  0
  1  4  1  0  0  0  0
  3  5  1  0  0  0  0
  5  6  1  0  0  0  0
  6  7  1  0  0  0  0
  7  8  1  0  0  0  0
  8  9  1  0  0  0  0
M  END
>  <CHROM.1>
-85.29524553,57.33571279,63.24212816,-177.69544188,179.05162607,-49.17610472
68.16476898,-20.04046416,2.92296732,-0.76340645,2.22162389

>  <Name>
ligand

>  <RI>
0

>  <Rbt.Current_Directory>
/home/itssahil/PROJECTS/Mol_Feturizer/Test_systems_manuscript/rnas/4erj

>  <Rbt.Executable>
rbdock ($Id: //depot/dev/client3/rdock/2013.1/src/exe/rbdock.cxx#4 $)

>  <Rbt.Library>
libRbt.so (2013.1, Build901 2013/11/27)

>  <Rbt.Parameter_File>
/export/apps/rDock/src/rDock_2013.1_src/data/scripts/dock_solv.prm

>  <Rbt.Receptor>
prm/pocket_docking_7.prm

>  <SCORE>
-15.2769

>  <SCORE.INTER>
-11.9664

>  <SCORE.INTER.CONST>
1

>  <SCORE.INTER.POLAR>
0

>  <SCORE.INTER.ROT>
5

>  <SCORE.INTER.SOLV>
7.43026

>  <SCORE.INTER.VDW>
-17.3877

>  <SCORE.INTER.norm>
-1.3296

>  <SCORE.INTRA>
-3.31043

>  <SCORE.INTRA.DIHEDRAL>
-6.05702

>  <SCORE.INTRA.DIHEDRAL.0>
7.73744

>  <SCORE.INTRA.POLAR>
0

>  <SCORE.INTRA.POLAR.0>
0

>  <SCORE.INTRA.REPUL>
0

>  <SCORE.INTRA.REPUL.0>
0

>  <SCORE.INTRA.SOLV>
-0.134309

>  <SCORE.INTRA.SOLV.lig_0>
-15.8342

>  <SCORE.INTRA.VDW>
-0.214768

>  <SCORE.INTRA.VDW.0>
-0.219494

>  <SCORE.INTRA.norm>
-0.367826

>  <SCORE.RESTR>
0

>  <SCORE.RESTR.CAVITY>
0

>  <SCORE.RESTR.norm>
0

>  <SCORE.SYSTEM>
0

>  <SCORE.SYSTEM.CONST>
0

>  <SCORE.SYSTEM.DIHEDRAL>
0

>  <SCORE.SYSTEM.SOLV>
0

>  <SCORE.SYSTEM.norm>
0

>  <SCORE.heavy>
9

>  <SCORE.norm>
-1.69743

>  <RMSD>
5.464

$$$$
ligand
 OpenBabel02271912143D
libRbt.so/2013.1/901 2013/11/27
  9  8  0  0  0  0  0  0  0  0999 V2000
  -50.9289   70.0020  -19.5850 C   0  0  0  0  0  0  0  0  0  0  0  0
  -52.0983   69.6954  -20.0190 O   0  0  0  0  0  0  0  0  0  0  0  0
  -50.2134   69.0837  -18.6899 C   0  0  0  0  0  0  0  0  0  0  0  0
  -50.3819   71.1151  -19.8775 O   0  0  0  0  0  0  0  0  0  0  0  0
  -48.8884   68.6029  -19.1906 C   0  0  0  0  0  0  0  0  0  0  0  0
  -48.8558   67.8827  -20.4880 C   0  0  0  0  0  0  0  0  0  0  0  0
  -47.4720   67.4336  -20.9263 C   0  0  0  0  0  0  0  0  0  0  0  0
  -47.2777   66.8391  -22.3301 C   0  0  0  0  0  0  0  0  0  0  0  0
  -47.5161   67.6583  -23.4147 N   0  0  0  0  0  0  0  0  0  0  0  0
  1  2  1  0  0  0  0
  1  3  1  0  0  0  0
  1  4  1  0  0  0  0
  3  5  1  0  0  0  0
  5  6  1  0  0  0  0
  6  7  1  0  0  0  0
  7  8  1  0  0  0  0
  8  9  1  0  0  0  0
M  END
>  <CHROM.1>
120.93880317,-58.32450903,179.76972724,-172.21546530,64.11196811,-49.32700810
68.73359064,-20.49926496,2.64880879,-0.69582632,1.64996590

>  <Name>
ligand

>  <RI>
0

>  <Rbt.Current_Directory>
/home/itssahil/PROJECTS/Mol_Feturizer/Test_systems_manuscript/rnas/4erj

>  <Rbt.Executable>
rbdock ($Id: //depot/dev/client3/rdock/2013.1/src/exe/rbdock.cxx#4 $)

>  <Rbt.Library>
libRbt.so (2013.1, Build901 2013/11/27)

>  <Rbt.Parameter_File>
/export/apps/rDock/src/rDock_2013.1_src/data/scripts/dock_solv.prm

>  <Rbt.Receptor>
prm/pocket_docking_6.prm

>  <SCORE>
-12.5434

>  <SCORE.INTER>
-9.59755

>  <SCORE.INTER.CONST>
1

>  <SCORE.INTER.POLAR>
0

>  <SCORE.INTER.ROT>
5

>  <SCORE.INTER.SOLV>
7.38939

>  <SCORE.INTER.VDW>
-15.7948

>  <SCORE.INTER.norm>
-1.06639

>  <SCORE.INTRA>
-2.94584

>  <SCORE.INTRA.DIHEDRAL>
-5.72995

>  <SCORE.INTRA.DIHEDRAL.0>
7.73744

>  <SCORE.INTRA.POLAR>
0

>  <SCORE.INTRA.POLAR.0>
0

>  <SCORE.INTRA.REPUL>
0

>  <SCORE.INTRA.REPUL.0>
0

>  <SCORE.INTRA.SOLV>
0.523838

>  <SCORE.INTRA.SOLV.lig_0>
-15.8342

>  <SCORE.INTRA.VDW>
-0.342783

>  <SCORE.INTRA.VDW.0>
-0.219494

>  <SCORE.INTRA.norm>
-0.327315

>  <SCORE.RESTR>
0

>  <SCORE.RESTR.CAVITY>
0

>  <SCORE.RESTR.norm>
0

>  <SCORE.SYSTEM>
0

>  <SCORE.SYSTEM.CONST>
0

>  <SCORE.SYSTEM.DIHEDRAL>
0

>  <SCORE.SYSTEM.SOLV>
0

>  <SCORE.SYSTEM.norm>
0

>  <SCORE.heavy>
9

>  <SCORE.norm>
-1.39371

>  <RMSD>
5.465

$$$$
ligand
 OpenBabel02271912143D
libRbt.so/2013.1/901 2013/11/27
  9  8  0  0  0  0  0  0  0  0999 V2000
  -50.9766   69.5349  -19.1477 C   0  0  0  0  0  0  0  0  0  0  0  0
  -50.6297   70.0625  -20.2663 O   0  0  0  0  0  0  0  0  0  0  0  0
  -50.0109   68.7377  -18.3807 C   0  0  0  0  0  0  0  0  0  0  0  0
  -52.1637   69.6483  -18.6988 O   0  0  0  0  0  0  0  0  0  0  0  0
  -48.8692   68.1803  -19.1702 C   0  0  0  0  0  0  0  0  0  0  0  0
  -49.1812   67.2287  -20.2657 C   0  0  0  0  0  0  0  0  0  0  0  0
  -47.9663   66.7089  -21.0157 C   0  0  0  0  0  0  0  0  0  0  0  0
  -47.1132   67.6827  -21.8438 C   0  0  0  0  0  0  0  0  0  0  0  0
  -47.7030   68.2871  -22.9351 N   0  0  0  0  0  0  0  0  0  0  0  0
  1  2  1  0  0  0  0
  1  3  1  0  0  0  0
  1  4  1  0  0  0  0
  3  5  1  0  0  0  0
  5  6  1  0  0  0  0
  6  7  1  0  0  0  0
  7  8  1  0  0  0  0
  8  9  1  0  0  0  0
M  END
>  <CHROM.1>
-21.65278055,-61.88729101,-179.91726113,-65.34879551,-64.50804805,-49.43844406
68.47854995,-20.18571876,2.85354038,-0.72473683,2.12269469

>  <Name>
ligand

>  <RI>
0

>  <Rbt.Current_Directory>
/home/itssahil/PROJECTS/Mol_Feturizer/Test_systems_manuscript/rnas/4erj

>  <Rbt.Executable>
rbdock ($Id: //depot/dev/client3/rdock/2013.1/src/exe/rbdock.cxx#4 $)

>  <Rbt.Library>
libRbt.so (2013.1, Build901 2013/11/27)

>  <Rbt.Parameter_File>
/export/apps/rDock/src/rDock_2013.1_src/data/scripts/dock_solv.prm

>  <Rbt.Receptor>
prm/pocket_docking_3.prm

>  <SCORE>
-12.9235

>  <SCORE.INTER>
-10.7419

>  <SCORE.INTER.CONST>
1

>  <SCORE.INTER.POLAR>
0

>  <SCORE.INTER.ROT>
5

>  <SCORE.INTER.SOLV>
6.88253

>  <SCORE.INTER.VDW>
-16.3887

>  <SCORE.INTER.norm>
-1.19354

>  <SCORE.INTRA>
-2.18165

>  <SCORE.INTRA.DIHEDRAL>
-5.75311

>  <SCORE.INTRA.DIHEDRAL.0>
7.73744

>  <SCORE.INTRA.POLAR>
0

>  <SCORE.INTRA.POLAR.0>
0

>  <SCORE.INTRA.REPUL>
0

>  <SCORE.INTRA.REPUL.0>
0

>  <SCORE.INTRA.SOLV>
0.96517

>  <SCORE.INTRA.SOLV.lig_0>
-15.8342

>  <SCORE.INTRA.VDW>
0.212317

>  <SCORE.INTRA.VDW.0>
-0.219494

>  <SCORE.INTRA.norm>
-0.242406

>  <SCORE.RESTR>
0

>  <SCORE.RESTR.CAVITY>
0

>  <SCORE.RESTR.norm>
0

>  <SCORE.SYSTEM>
0

>  <SCORE.SYSTEM.CONST>
0

>  <SCORE.SYSTEM.DIHEDRAL>
0

>  <SCORE.SYSTEM.SOLV>
0

>  <SCORE.SYSTEM.norm>
0

>  <SCORE.heavy>
9

>  <SCORE.norm>
-1.43595

>  <RMSD>
5.466

$$$$
ligand
 OpenBabel02271912143D
libRbt.so/2013.1/901 2013/11/27
  9  8  0  0  0  0  0  0  0  0999 V2000
  -50.6229   69.4283  -19.2066 C   0  0  0  0  0  0  0  0  0  0  0  0
  -50.4916   69.7930  -20.4312 O   0  0  0  0  0  0  0  0  0  0  0  0
  -49.4808   68.8527  -18.4851 C   0  0  0  0  0  0  0  0  0  0  0  0
  -51.7426   69.5122  -18.6043 O   0  0  0  0  0  0  0  0  0  0  0  0
  -49.3024   67.3758  -18.6410 C   0  0  0  0  0  0  0  0  0  0  0  0
  -49.0723   66.8443  -20.0076 C   0  0  0  0  0  0  0  0  0  0  0  0
  -47.7876   67.3224  -20.6631 C   0  0  0  0  0  0  0  0  0  0  0  0
  -47.4628   66.8869  -22.1007 C   0  0  0  0  0  0  0  0  0  0  0  0
  -46.3044   67.3705  -22.6736 N   0  0  0  0  0  0  0  0  0  0  0  0
  1  2  1  0  0  0  0
  1  3  1  0  0  0  0
  1  4  1  0  0  0  0
  3  5  1  0  0  0  0
  5  6  1  0  0  0  0
  6  7  1  0  0  0  0
  7  8  1  0  0  0  0
  8  9  1  0  0  0  0
M  END
>  <CHROM.1>
-86.65258835,60.59264352,63.43817980,-177.58660980,178.31830601,-49.17878583
68.18023634,-20.08620813,2.91621703,-0.75172439,2.18445713

>  <Name>
ligand

>  <RI>
0

>  <Rbt.Current_Directory>
/home/itssahil/PROJECTS/Mol_Feturizer/Test_systems_manuscript/rnas/4erj

>  <Rbt.Executable>
rbdock ($Id: //depot/dev/client3/rdock/2013.1/src/exe/rbdock.cxx#4 $)

>  <Rbt.Library>
libRbt.so (2013.1, Build901 2013/11/27)

>  <Rbt.Parameter_File>
/export/apps/rDock/src/rDock_2013.1_src/data/scripts/dock_solv.prm

>  <Rbt.Receptor>
prm/pocket_docking_5.prm

>  <SCORE>
-15.2872

>  <SCORE.INTER>
-11.9396

>  <SCORE.INTER.CONST>
1

>  <SCORE.INTER.POLAR>
0

>  <SCORE.INTER.ROT>
5

>  <SCORE.INTER.SOLV>
7.4229

>  <SCORE.INTER.VDW>
-17.3673

>  <SCORE.INTER.norm>
-1.32662

>  <SCORE.INTRA>
-3.34765

>  <SCORE.INTRA.DIHEDRAL>
-6.07144

>  <SCORE.INTRA.DIHEDRAL.0>
7.73744

>  <SCORE.INTRA.POLAR>
0

>  <SCORE.INTRA.POLAR.0>
0

>  <SCORE.INTRA.REPUL>
0

>  <SCORE.INTRA.REPUL.0>
0

>  <SCORE.INTRA.SOLV>
-0.133424

>  <SCORE.INTRA.SOLV.lig_0>
-15.8342

>  <SCORE.INTRA.VDW>
-0.245218

>  <SCORE.INTRA.VDW.0>
-0.219494

>  <SCORE.INTRA.norm>
-0.371961

>  <SCORE.RESTR>
0

>  <SCORE.RESTR.CAVITY>
0

>  <SCORE.RESTR.norm>
0

>  <SCORE.SYSTEM>
0

>  <SCORE.SYSTEM.CONST>
0

>  <SCORE.SYSTEM.DIHEDRAL>
0

>  <SCORE.SYSTEM.SOLV>
0

>  <SCORE.SYSTEM.norm>
0

>  <SCORE.heavy>
9

>  <SCORE.norm>
-1.69858

>  <RMSD>
5.466

$$$$
ligand
 OpenBabel02271912143D
libRbt.so/2013.1/901 2013/11/27
  9  8  0  0  0  0  0  0  0  0999 V2000
  -51.0283   70.4317  -19.4759 C   0  0  0  0  0  0  0  0  0  0  0  0
  -50.9372   71.5768  -20.0506 O   0  0  0  0  0  0  0  0  0  0  0  0
  -49.8700   69.5294  -19.4482 C   0  0  0  0  0  0  0  0  0  0  0  0
  -52.1226   70.0320  -18.9598 O   0  0  0  0  0  0  0  0  0  0  0  0
  -49.9701   68.3871  -18.4877 C   0  0  0  0  0  0  0  0  0  0  0  0
  -48.8648   67.3966  -18.4688 C   0  0  0  0  0  0  0  0  0  0  0  0
  -48.7054   66.6036  -19.7550 C   0  0  0  0  0  0  0  0  0  0  0  0
  -47.8393   67.1694  -20.8915 C   0  0  0  0  0  0  0  0  0  0  0  0
  -48.2631   68.3291  -21.5076 N   0  0  0  0  0  0  0  0  0  0  0  0
  1  2  1  0  0  0  0
  1  3  1  0  0  0  0
  1  4  1  0  0  0  0
  3  5  1  0  0  0  0
  5  6  1  0  0  0  0
  6  7  1  0  0  0  0
  7  8  1  0  0  0  0
  8  9  1  0  0  0  0
M  END
>  <CHROM.1>
165.81871752,176.58822180,-64.45974088,87.08021195,-65.19749674,-49.76859436
68.86410576,-19.66936003,-2.70640932,-0.77748538,2.37031028

>  <Name>
ligand

>  <RI>
0

>  <Rbt.Current_Directory>
/home/itssahil/PROJECTS/Mol_Feturizer/Test_systems_manuscript/rnas/4erj

>  <Rbt.Executable>
rbdock ($Id: //depot/dev/client3/rdock/2013.1/src/exe/rbdock.cxx#4 $)

>  <Rbt.Library>
libRbt.so (2013.1, Build901 2013/11/27)

>  <Rbt.Parameter_File>
/export/apps/rDock/src/rDock_2013.1_src/data/scripts/dock_solv.prm

>  <Rbt.Receptor>
prm/pocket_docking_4.prm

>  <SCORE>
-13.2579

>  <SCORE.INTER>
-13.7601

>  <SCORE.INTER.CONST>
1

>  <SCORE.INTER.POLAR>
0

>  <SCORE.INTER.ROT>
5

>  <SCORE.INTER.SOLV>
5.89638

>  <SCORE.INTER.VDW>
-18.0722

>  <SCORE.INTER.norm>
-1.5289

>  <SCORE.INTRA>
0.502194

>  <SCORE.INTRA.DIHEDRAL>
-3.30252

>  <SCORE.INTRA.DIHEDRAL.0>
7.73744

>  <SCORE.INTRA.POLAR>
0

>  <SCORE.INTRA.POLAR.0>
0

>  <SCORE.INTRA.REPUL>
0

>  <SCORE.INTRA.REPUL.0>
0

>  <SCORE.INTRA.SOLV>
2.60974

>  <SCORE.INTRA.SOLV.lig_0>
-15.8342

>  <SCORE.INTRA.VDW>
0.848582

>  <SCORE.INTRA.VDW.0>
-0.219494

>  <SCORE.INTRA.norm>
0.0557994

>  <SCORE.RESTR>
0

>  <SCORE.RESTR.CAVITY>
0

>  <SCORE.RESTR.norm>
0

>  <SCORE.SYSTEM>
0

>  <SCORE.SYSTEM.CONST>
0

>  <SCORE.SYSTEM.DIHEDRAL>
0

>  <SCORE.SYSTEM.SOLV>
0

>  <SCORE.SYSTEM.norm>
0

>  <SCORE.heavy>
9

>  <SCORE.norm>
-1.4731

>  <RMSD>
5.468

$$$$
ligand
 OpenBabel02271912143D
libRbt.so/2013.1/901 2013/11/27
  9  8  0  0  0  0  0  0  0  0999 V2000
  -50.7529   69.6340  -18.9888 C   0  0  0  0  0  0  0  0  0  0  0  0
  -52.0172   69.6446  -18.7623 O   0  0  0  0  0  0  0  0  0  0  0  0
  -49.8948   68.6486  -18.3186 C   0  0  0  0  0  0  0  0  0  0  0  0
  -50.2074   70.4934  -19.7552 O   0  0  0  0  0  0  0  0  0  0  0  0
  -48.8582   68.0066  -19.1850 C   0  0  0  0  0  0  0  0  0  0  0  0
  -49.3202   67.2398  -20.3688 C   0  0  0  0  0  0  0  0  0  0  0  0
  -48.2048   66.6274  -21.1992 C   0  0  0  0  0  0  0  0  0  0  0  0
  -47.1646   67.5431  -21.8636 C   0  0  0  0  0  0  0  0  0  0  0  0
  -47.6015   68.4045  -22.8492 N   0  0  0  0  0  0  0  0  0  0  0  0
  1  2  1  0  0  0  0
  1  3  1  0  0  0  0
  1  4  1  0  0  0  0
  3  5  1  0  0  0  0
  5  6  1  0  0  0  0
  6  7  1  0  0  0  0
  7  8  1  0  0  0  0
  8  9  1  0  0  0  0
M  END
>  <CHROM.1>
137.13610775,-59.94980455,179.65250187,-61.41802730,-65.13415524,-49.36841853
68.50225316,-20.13390928,3.11064080,-0.83835412,2.48577570

>  <Name>
ligand

>  <RI>
0

>  <Rbt.Current_Directory>
/home/itssahil/PROJECTS/Mol_Feturizer/Test_systems_manuscript/rnas/4erj

>  <Rbt.Executable>
rbdock ($Id: //depot/dev/client3/rdock/2013.1/src/exe/rbdock.cxx#4 $)

>  <Rbt.Library>
libRbt.so (2013.1, Build901 2013/11/27)

>  <Rbt.Parameter_File>
/export/apps/rDock/src/rDock_2013.1_src/data/scripts/dock_solv.prm

>  <Rbt.Receptor>
prm/pocket_docking_4.prm

>  <SCORE>
-13.3303

>  <SCORE.INTER>
-10.8306

>  <SCORE.INTER.CONST>
1

>  <SCORE.INTER.POLAR>
0

>  <SCORE.INTER.ROT>
5

>  <SCORE.INTER.SOLV>
6.9966

>  <SCORE.INTER.VDW>
-16.486

>  <SCORE.INTER.norm>
-1.2034

>  <SCORE.INTRA>
-2.49965

>  <SCORE.INTRA.DIHEDRAL>
-6.02416

>  <SCORE.INTRA.DIHEDRAL.0>
7.73744

>  <SCORE.INTRA.POLAR>
0

>  <SCORE.INTRA.POLAR.0>
0

>  <SCORE.INTRA.REPUL>
0

>  <SCORE.INTRA.REPUL.0>
0

>  <SCORE.INTRA.SOLV>
0.997864

>  <SCORE.INTRA.SOLV.lig_0>
-15.8342

>  <SCORE.INTRA.VDW>
0.0134926

>  <SCORE.INTRA.VDW.0>
-0.219494

>  <SCORE.INTRA.norm>
-0.277739

>  <SCORE.RESTR>
0

>  <SCORE.RESTR.CAVITY>
0

>  <SCORE.RESTR.norm>
0

>  <SCORE.SYSTEM>
0

>  <SCORE.SYSTEM.CONST>
0

>  <SCORE.SYSTEM.DIHEDRAL>
0

>  <SCORE.SYSTEM.SOLV>
0

>  <SCORE.SYSTEM.norm>
0

>  <SCORE.heavy>
9

>  <SCORE.norm>
-1.48114

>  <RMSD>
5.469

$$$$
ligand
 OpenBabel02271912143D
libRbt.so/2013.1/901 2013/11/27
  9  8  0  0  0  0  0  0  0  0999 V2000
  -49.0455   67.7196  -18.3381 C   0  0  0  0  0  0  0  0  0  0  0  0
  -48.9335   68.9954  -18.4373 O   0  0  0  0  0  0  0  0  0  0  0  0
  -48.7630   66.8649  -19.4982 C   0  0  0  0  0  0  0  0  0  0  0  0
  -49.4425   67.1690  -17.2597 O   0  0  0  0  0  0  0  0  0  0  0  0
  -48.0390   67.5317  -20.6245 C   0  0  0  0  0  0  0  0  0  0  0  0
  -47.7362   66.7226  -21.8315 C   0  0  0  0  0  0  0  0  0  0  0  0
  -47.0578   67.4910  -22.9530 C   0  0  0  0  0  0  0  0  0  0  0  0
  -47.8255   68.6066  -23.6796 C   0  0  0  0  0  0  0  0  0  0  0  0
  -47.2360   69.1761  -24.7896 N   0  0  0  0  0  0  0  0  0  0  0  0
  1  2  1  0  0  0  0
  1  3  1  0  0  0  0
  1  4  1  0  0  0  0
  3  5  1  0  0  0  0
  5  6  1  0  0  0  0
  6  7  1  0  0  0  0
  7  8  1  0  0  0  0
  8  9  1  0  0  0  0
M  END
>  <CHROM.1>
14.46329595,-179.42230763,177.27950147,-66.29684582,-172.69048142,-48.24780041
67.81814104,-20.77037572,2.59836469,-1.22771940,2.69701450

>  <Name>
ligand

>  <RI>
0

>  <Rbt.Current_Directory>
/home/itssahil/PROJECTS/Mol_Feturizer/Test_systems_manuscript/rnas/4erj

>  <Rbt.Executable>
rbdock ($Id: //depot/dev/client3/rdock/2013.1/src/exe/rbdock.cxx#4 $)

>  <Rbt.Library>
libRbt.so (2013.1, Build901 2013/11/27)

>  <Rbt.Parameter_File>
/export/apps/rDock/src/rDock_2013.1_src/data/scripts/dock_solv.prm

>  <Rbt.Receptor>
prm/pocket_docking_4.prm

>  <SCORE>
-13.0874

>  <SCORE.INTER>
-10.5871

>  <SCORE.INTER.CONST>
1

>  <SCORE.INTER.POLAR>
0

>  <SCORE.INTER.ROT>
5

>  <SCORE.INTER.SOLV>
9.0426

>  <SCORE.INTER.VDW>
-17.0056

>  <SCORE.INTER.norm>
-1.17635

>  <SCORE.INTRA>
-2.50028

>  <SCORE.INTRA.DIHEDRAL>
-5.72521

>  <SCORE.INTRA.DIHEDRAL.0>
7.73744

>  <SCORE.INTRA.POLAR>
0

>  <SCORE.INTRA.POLAR.0>
0

>  <SCORE.INTRA.REPUL>
0

>  <SCORE.INTRA.REPUL.0>
0

>  <SCORE.INTRA.SOLV>
0.00365716

>  <SCORE.INTRA.SOLV.lig_0>
-15.8342

>  <SCORE.INTRA.VDW>
0.360499

>  <SCORE.INTRA.VDW.0>
-0.219494

>  <SCORE.INTRA.norm>
-0.277808

>  <SCORE.RESTR>
0

>  <SCORE.RESTR.CAVITY>
0

>  <SCORE.RESTR.norm>
0

>  <SCORE.SYSTEM>
0

>  <SCORE.SYSTEM.CONST>
0

>  <SCORE.SYSTEM.DIHEDRAL>
0

>  <SCORE.SYSTEM.SOLV>
0

>  <SCORE.SYSTEM.norm>
0

>  <SCORE.heavy>
9

>  <SCORE.norm>
-1.45416

>  <RMSD>
5.470

$$$$
ligand
 OpenBabel02271912143D
libRbt.so/2013.1/901 2013/11/27
  9  8  0  0  0  0  0  0  0  0999 V2000
  -48.8725   68.1045  -18.3864 C   0  0  0  0  0  0  0  0  0  0  0  0
  -49.6923   68.2267  -17.4051 O   0  0  0  0  0  0  0  0  0  0  0  0
  -48.6565   66.7897  -19.0038 C   0  0  0  0  0  0  0  0  0  0  0  0
  -48.1991   69.0965  -18.8177 O   0  0  0  0  0  0  0  0  0  0  0  0
  -48.7077   66.7671  -20.4985 C   0  0  0  0  0  0  0  0  0  0  0  0
  -47.6386   67.4802  -21.2411 C   0  0  0  0  0  0  0  0  0  0  0  0
  -47.8327   67.5168  -22.7476 C   0  0  0  0  0  0  0  0  0  0  0  0
  -46.7933   68.2279  -23.6285 C   0  0  0  0  0  0  0  0  0  0  0  0
  -45.5059   67.7314  -23.6333 N   0  0  0  0  0  0  0  0  0  0  0  0
  1  2  1  0  0  0  0
  1  3  1  0  0  0  0
  1  4  1  0  0  0  0
  3  5  1  0  0  0  0
  5  6  1  0  0  0  0
  6  7  1  0  0  0  0
  7  8  1  0  0  0  0
  8  9  1  0  0  0  0
M  END
>  <CHROM.1>
132.50918951,66.80860002,-174.68339819,179.93231674,62.58450596,-48.00467788
67.79337855,-20.55355298,-2.38565604,-0.92267790,-2.32474224

>  <Name>
ligand

>  <RI>
0

>  <Rbt.Current_Directory>
/home/itssahil/PROJECTS/Mol_Feturizer/Test_systems_manuscript/rnas/4erj

>  <Rbt.Executable>
rbdock ($Id: //depot/dev/client3/rdock/2013.1/src/exe/rbdock.cxx#4 $)

>  <Rbt.Library>
libRbt.so (2013.1, Build901 2013/11/27)

>  <Rbt.Parameter_File>
/export/apps/rDock/src/rDock_2013.1_src/data/scripts/dock_solv.prm

>  <Rbt.Receptor>
prm/pocket_docking_6.prm

>  <SCORE>
-12.837

>  <SCORE.INTER>
-10.1014

>  <SCORE.INTER.CONST>
1

>  <SCORE.INTER.POLAR>
0

>  <SCORE.INTER.ROT>
5

>  <SCORE.INTER.SOLV>
7.613

>  <SCORE.INTER.VDW>
-16.2053

>  <SCORE.INTER.norm>
-1.12237

>  <SCORE.INTRA>
-2.73563

>  <SCORE.INTRA.DIHEDRAL>
-5.77843

>  <SCORE.INTRA.DIHEDRAL.0>
7.73744

>  <SCORE.INTRA.POLAR>
0

>  <SCORE.INTRA.POLAR.0>
0

>  <SCORE.INTRA.REPUL>
0

>  <SCORE.INTRA.REPUL.0>
0

>  <SCORE.INTRA.SOLV>
0.502547

>  <SCORE.INTRA.SOLV.lig_0>
-15.8342

>  <SCORE.INTRA.VDW>
-0.0976956

>  <SCORE.INTRA.VDW.0>
-0.219494

>  <SCORE.INTRA.norm>
-0.303959

>  <SCORE.RESTR>
0

>  <SCORE.RESTR.CAVITY>
0

>  <SCORE.RESTR.norm>
0

>  <SCORE.SYSTEM>
0

>  <SCORE.SYSTEM.CONST>
0

>  <SCORE.SYSTEM.DIHEDRAL>
0

>  <SCORE.SYSTEM.SOLV>
0

>  <SCORE.SYSTEM.norm>
0

>  <SCORE.heavy>
9

>  <SCORE.norm>
-1.42633

>  <RMSD>
5.474

$$$$
ligand
 OpenBabel02271912143D
libRbt.so/2013.1/901 2013/11/27
  9  8  0  0  0  0  0  0  0  0999 V2000
  -50.5974   69.4082  -19.1295 C   0  0  0  0  0  0  0  0  0  0  0  0
  -51.7512   69.5315  -18.5786 O   0  0  0  0  0  0  0  0  0  0  0  0
  -49.4863   68.8071  -18.3808 C   0  0  0  0  0  0  0  0  0  0  0  0
  -50.3740   69.8380  -20.3080 O   0  0  0  0  0  0  0  0  0  0  0  0
  -49.2836   67.3416  -18.6010 C   0  0  0  0  0  0  0  0  0  0  0  0
  -49.0465   66.8740  -19.9896 C   0  0  0  0  0  0  0  0  0  0  0  0
  -47.7694   67.3991  -20.6234 C   0  0  0  0  0  0  0  0  0  0  0  0
  -47.4237   67.0066  -22.0685 C   0  0  0  0  0  0  0  0  0  0  0  0
  -46.2703   67.5275  -22.6186 N   0  0  0  0  0  0  0  0  0  0  0  0
  1  2  1  0  0  0  0
  1  3  1  0  0  0  0
  1  4  1  0  0  0  0
  3  5  1  0  0  0  0
  5  6  1  0  0  0  0
  6  7  1  0  0  0  0
  7  8  1  0  0  0  0
  8  9  1  0  0  0  0
M  END
>  <CHROM.1>
94.73192995,57.60318089,63.56690414,-178.92983600,178.59905027,-49.14852944
68.21953913,-20.02877532,2.93577650,-0.74876047,2.24516594

>  <Name>
ligand

>  <RI>
0

>  <Rbt.Current_Directory>
/home/itssahil/PROJECTS/Mol_Feturizer/Test_systems_manuscript/rnas/4erj

>  <Rbt.Executable>
rbdock ($Id: //depot/dev/client3/rdock/2013.1/src/exe/rbdock.cxx#4 $)

>  <Rbt.Library>
libRbt.so (2013.1, Build901 2013/11/27)

>  <Rbt.Parameter_File>
/export/apps/rDock/src/rDock_2013.1_src/data/scripts/dock_solv.prm

>  <Rbt.Receptor>
prm/pocket_docking_5.prm

>  <SCORE>
-15.2033

>  <SCORE.INTER>
-11.9787

>  <SCORE.INTER.CONST>
1

>  <SCORE.INTER.POLAR>
0

>  <SCORE.INTER.ROT>
5

>  <SCORE.INTER.SOLV>
7.19508

>  <SCORE.INTER.VDW>
-17.3175

>  <SCORE.INTER.norm>
-1.33096

>  <SCORE.INTRA>
-3.22464

>  <SCORE.INTRA.DIHEDRAL>
-5.86902

>  <SCORE.INTRA.DIHEDRAL.0>
7.73744

>  <SCORE.INTRA.POLAR>
0

>  <SCORE.INTRA.POLAR.0>
0

>  <SCORE.INTRA.REPUL>
0

>  <SCORE.INTRA.REPUL.0>
0

>  <SCORE.INTRA.SOLV>
-0.133937

>  <SCORE.INTRA.SOLV.lig_0>
-15.8342

>  <SCORE.INTRA.VDW>
-0.223161

>  <SCORE.INTRA.VDW.0>
-0.219494

>  <SCORE.INTRA.norm>
-0.358293

>  <SCORE.RESTR>
0

>  <SCORE.RESTR.CAVITY>
0

>  <SCORE.RESTR.norm>
0

>  <SCORE.SYSTEM>
0

>  <SCORE.SYSTEM.CONST>
0

>  <SCORE.SYSTEM.DIHEDRAL>
0

>  <SCORE.SYSTEM.SOLV>
0

>  <SCORE.SYSTEM.norm>
0

>  <SCORE.heavy>
9

>  <SCORE.norm>
-1.68926

>  <RMSD>
5.475

$$$$
ligand
 OpenBabel02271912143D
libRbt.so/2013.1/901 2013/11/27
  9  8  0  0  0  0  0  0  0  0999 V2000
  -50.6761   69.3729  -19.1776 C   0  0  0  0  0  0  0  0  0  0  0  0
  -51.8017   69.5468  -18.5836 O   0  0  0  0  0  0  0  0  0  0  0  0
  -49.5385   68.8036  -18.4440 C   0  0  0  0  0  0  0  0  0  0  0  0
  -50.5027   69.7254  -20.3897 O   0  0  0  0  0  0  0  0  0  0  0  0
  -49.3172   67.3376  -18.6417 C   0  0  0  0  0  0  0  0  0  0  0  0
  -49.0677   66.8526  -20.0222 C   0  0  0  0  0  0  0  0  0  0  0  0
  -47.8084   67.4057  -20.6679 C   0  0  0  0  0  0  0  0  0  0  0  0
  -47.4559   67.0028  -22.1084 C   0  0  0  0  0  0  0  0  0  0  0  0
  -46.3205   67.5499  -22.6702 N   0  0  0  0  0  0  0  0  0  0  0  0
  1  2  1  0  0  0  0
  1  3  1  0  0  0  0
  1  4  1  0  0  0  0
  3  5  1  0  0  0  0
  5  6  1  0  0  0  0
  6  7  1  0  0  0  0
  7  8  1  0  0  0  0
  8  9  1  0  0  0  0
M  END
>  <CHROM.1>
98.01055500,59.24472113,62.38977610,-178.67684731,178.55445213,-49.20326113
68.20369231,-20.07392447,2.90288651,-0.73480020,2.20186768

>  <Name>
ligand

>  <RI>
0

>  <Rbt.Current_Directory>
/home/itssahil/PROJECTS/Mol_Feturizer/Test_systems_manuscript/rnas/4erj

>  <Rbt.Executable>
rbdock ($Id: //depot/dev/client3/rdock/2013.1/src/exe/rbdock.cxx#4 $)

>  <Rbt.Library>
libRbt.so (2013.1, Build901 2013/11/27)

>  <Rbt.Parameter_File>
/export/apps/rDock/src/rDock_2013.1_src/data/scripts/dock_solv.prm

>  <Rbt.Receptor>
prm/pocket_docking_3.prm

>  <SCORE>
-15.2536

>  <SCORE.INTER>
-12.0248

>  <SCORE.INTER.CONST>
1

>  <SCORE.INTER.POLAR>
0

>  <SCORE.INTER.ROT>
5

>  <SCORE.INTER.SOLV>
7.17123

>  <SCORE.INTER.VDW>
-17.3403

>  <SCORE.INTER.norm>
-1.33609

>  <SCORE.INTRA>
-3.22878

>  <SCORE.INTRA.DIHEDRAL>
-5.92163

>  <SCORE.INTRA.DIHEDRAL.0>
7.73744

>  <SCORE.INTRA.POLAR>
0

>  <SCORE.INTRA.POLAR.0>
0

>  <SCORE.INTRA.REPUL>
0

>  <SCORE.INTRA.REPUL.0>
0

>  <SCORE.INTRA.SOLV>
-0.133907

>  <SCORE.INTRA.SOLV.lig_0>
-15.8342

>  <SCORE.INTRA.VDW>
-0.201014

>  <SCORE.INTRA.VDW.0>
-0.219494

>  <SCORE.INTRA.norm>
-0.358753

>  <SCORE.RESTR>
0

>  <SCORE.RESTR.CAVITY>
0

>  <SCORE.RESTR.norm>
0

>  <SCORE.SYSTEM>
0

>  <SCORE.SYSTEM.CONST>
0

>  <SCORE.SYSTEM.DIHEDRAL>
0

>  <SCORE.SYSTEM.SOLV>
0

>  <SCORE.SYSTEM.norm>
0

>  <SCORE.heavy>
9

>  <SCORE.norm>
-1.69484

>  <RMSD>
5.476

$$$$
ligand
 OpenBabel02271912143D
libRbt.so/2013.1/901 2013/11/27
  9  8  0  0  0  0  0  0  0  0999 V2000
  -50.8652   70.3268  -19.5545 C   0  0  0  0  0  0  0  0  0  0  0  0
  -50.8884   71.3316  -20.3543 O   0  0  0  0  0  0  0  0  0  0  0  0
  -49.6439   69.5224  -19.4208 C   0  0  0  0  0  0  0  0  0  0  0  0
  -51.8989   69.9761  -18.8972 O   0  0  0  0  0  0  0  0  0  0  0  0
  -49.8611   68.0647  -19.1655 C   0  0  0  0  0  0  0  0  0  0  0  0
  -48.6698   67.1801  -19.1327 C   0  0  0  0  0  0  0  0  0  0  0  0
  -48.0090   66.9603  -20.4832 C   0  0  0  0  0  0  0  0  0  0  0  0
  -47.3135   68.1364  -21.1867 C   0  0  0  0  0  0  0  0  0  0  0  0
  -46.7472   67.9028  -22.4232 N   0  0  0  0  0  0  0  0  0  0  0  0
  1  2  1  0  0  0  0
  1  3  1  0  0  0  0
  1  4  1  0  0  0  0
  3  5  1  0  0  0  0
  5  6  1  0  0  0  0
  6  7  1  0  0  0  0
  7  8  1  0  0  0  0
  8  9  1  0  0  0  0
M  END
>  <CHROM.1>
-146.40647388,175.04141461,-70.48935407,67.10784824,-178.79912390,-49.36180486
68.85522612,-20.06274488,-2.89646785,-0.68177969,2.49728776

>  <Name>
ligand

>  <RI>
0

>  <Rbt.Current_Directory>
/home/itssahil/PROJECTS/Mol_Feturizer/Test_systems_manuscript/rnas/4erj

>  <Rbt.Executable>
rbdock ($Id: //depot/dev/client3/rdock/2013.1/src/exe/rbdock.cxx#4 $)

>  <Rbt.Library>
libRbt.so (2013.1, Build901 2013/11/27)

>  <Rbt.Parameter_File>
/export/apps/rDock/src/rDock_2013.1_src/data/scripts/dock_solv.prm

>  <Rbt.Receptor>
prm/pocket_docking_7.prm

>  <SCORE>
-13.8223

>  <SCORE.INTER>
-11.9899

>  <SCORE.INTER.CONST>
1

>  <SCORE.INTER.POLAR>
0

>  <SCORE.INTER.ROT>
5

>  <SCORE.INTER.SOLV>
6.40474

>  <SCORE.INTER.VDW>
-17.0615

>  <SCORE.INTER.norm>
-1.33221

>  <SCORE.INTRA>
-1.83236

>  <SCORE.INTRA.DIHEDRAL>
-5.19005

>  <SCORE.INTRA.DIHEDRAL.0>
7.73744

>  <SCORE.INTRA.POLAR>
0

>  <SCORE.INTRA.POLAR.0>
0

>  <SCORE.INTRA.REPUL>
0

>  <SCORE.INTRA.REPUL.0>
0

>  <SCORE.INTRA.SOLV>
0.196065

>  <SCORE.INTRA.SOLV.lig_0>
-15.8342

>  <SCORE.INTRA.VDW>
0.664636

>  <SCORE.INTRA.VDW.0>
-0.219494

>  <SCORE.INTRA.norm>
-0.203595

>  <SCORE.RESTR>
0

>  <SCORE.RESTR.CAVITY>
0

>  <SCORE.RESTR.norm>
0

>  <SCORE.SYSTEM>
0

>  <SCORE.SYSTEM.CONST>
0

>  <SCORE.SYSTEM.DIHEDRAL>
0

>  <SCORE.SYSTEM.SOLV>
0

>  <SCORE.SYSTEM.norm>
0

>  <SCORE.heavy>
9

>  <SCORE.norm>
-1.53581

>  <RMSD>
5.476

$$$$
ligand
 OpenBabel02271912143D
libRbt.so/2013.1/901 2013/11/27
  9  8  0  0  0  0  0  0  0  0999 V2000
  -48.8611   67.4637  -18.3194 C   0  0  0  0  0  0  0  0  0  0  0  0
  -49.5130   67.1884  -17.2475 O   0  0  0  0  0  0  0  0  0  0  0  0
  -48.7807   68.8509  -18.7945 C   0  0  0  0  0  0  0  0  0  0  0  0
  -48.3110   66.5498  -19.0163 O   0  0  0  0  0  0  0  0  0  0  0  0
  -48.8867   69.0282  -20.2760 C   0  0  0  0  0  0  0  0  0  0  0  0
  -47.7760   68.5181  -21.1180 C   0  0  0  0  0  0  0  0  0  0  0  0
  -47.9683   68.7260  -22.6108 C   0  0  0  0  0  0  0  0  0  0  0  0
  -46.8738   68.2667  -23.5869 C   0  0  0  0  0  0  0  0  0  0  0  0
  -47.0518   68.5388  -24.9280 N   0  0  0  0  0  0  0  0  0  0  0  0
  1  2  1  0  0  0  0
  1  3  1  0  0  0  0
  1  4  1  0  0  0  0
  3  5  1  0  0  0  0
  5  6  1  0  0  0  0
  6  7  1  0  0  0  0
  7  8  1  0  0  0  0
  8  9  1  0  0  0  0
M  END
>  <CHROM.1>
-140.25945479,-67.87454341,179.43363334,178.75802437,-176.51413227,-48.23603207
68.09728276,-20.61364370,-2.32596463,1.12367033,-0.68589842

>  <Name>
ligand

>  <RI>
0

>  <Rbt.Current_Directory>
/home/itssahil/PROJECTS/Mol_Feturizer/Test_systems_manuscript/rnas/4erj

>  <Rbt.Executable>
rbdock ($Id: //depot/dev/client3/rdock/2013.1/src/exe/rbdock.cxx#4 $)

>  <Rbt.Library>
libRbt.so (2013.1, Build901 2013/11/27)

>  <Rbt.Parameter_File>
/export/apps/rDock/src/rDock_2013.1_src/data/scripts/dock_solv.prm

>  <Rbt.Receptor>
prm/blind_docking_100.prm

>  <SCORE>
-12.3421

>  <SCORE.INTER>
-9.60688

>  <SCORE.INTER.CONST>
1

>  <SCORE.INTER.POLAR>
0

>  <SCORE.INTER.ROT>
5

>  <SCORE.INTER.SOLV>
7.67863

>  <SCORE.INTER.VDW>
-15.8975

>  <SCORE.INTER.norm>
-1.06743

>  <SCORE.INTRA>
-2.73524

>  <SCORE.INTRA.DIHEDRAL>
-5.65668

>  <SCORE.INTRA.DIHEDRAL.0>
7.73744

>  <SCORE.INTRA.POLAR>
0

>  <SCORE.INTRA.POLAR.0>
0

>  <SCORE.INTRA.REPUL>
0

>  <SCORE.INTRA.REPUL.0>
0

>  <SCORE.INTRA.SOLV>
-0.123224

>  <SCORE.INTRA.SOLV.lig_0>
-15.8342

>  <SCORE.INTRA.VDW>
0.154709

>  <SCORE.INTRA.VDW.0>
-0.219494

>  <SCORE.INTRA.norm>
-0.303916

>  <SCORE.RESTR>
0

>  <SCORE.RESTR.CAVITY>
0

>  <SCORE.RESTR.norm>
0

>  <SCORE.SYSTEM>
0

>  <SCORE.SYSTEM.CONST>
0

>  <SCORE.SYSTEM.DIHEDRAL>
0

>  <SCORE.SYSTEM.SOLV>
0

>  <SCORE.SYSTEM.norm>
0

>  <SCORE.heavy>
9

>  <SCORE.norm>
-1.37135

>  <RMSD>
5.477

$$$$
ligand
 OpenBabel02271912143D
libRbt.so/2013.1/901 2013/11/27
  9  8  0  0  0  0  0  0  0  0999 V2000
  -50.6770   69.3795  -19.1769 C   0  0  0  0  0  0  0  0  0  0  0  0
  -51.8239   69.4704  -18.6057 O   0  0  0  0  0  0  0  0  0  0  0  0
  -49.5345   68.8176  -18.4454 C   0  0  0  0  0  0  0  0  0  0  0  0
  -50.4885   69.8090  -20.3617 O   0  0  0  0  0  0  0  0  0  0  0  0
  -49.3057   67.3525  -18.6413 C   0  0  0  0  0  0  0  0  0  0  0  0
  -49.0603   66.8662  -20.0220 C   0  0  0  0  0  0  0  0  0  0  0  0
  -47.8034   67.4195  -20.6723 C   0  0  0  0  0  0  0  0  0  0  0  0
  -47.4543   67.0139  -22.1129 C   0  0  0  0  0  0  0  0  0  0  0  0
  -46.3168   67.5550  -22.6762 N   0  0  0  0  0  0  0  0  0  0  0  0
  1  2  1  0  0  0  0
  1  3  1  0  0  0  0
  1  4  1  0  0  0  0
  3  5  1  0  0  0  0
  5  6  1  0  0  0  0
  6  7  1  0  0  0  0
  7  8  1  0  0  0  0
  8  9  1  0  0  0  0
M  END
>  <CHROM.1>
93.64006717,59.10809668,62.69776196,-178.74822125,178.93404564,-49.20071102
68.21312775,-20.07482101,2.91139352,-0.73376678,2.21727695

>  <Name>
ligand

>  <RI>
0

>  <Rbt.Current_Directory>
/home/itssahil/PROJECTS/Mol_Feturizer/Test_systems_manuscript/rnas/4erj

>  <Rbt.Executable>
rbdock ($Id: //depot/dev/client3/rdock/2013.1/src/exe/rbdock.cxx#4 $)

>  <Rbt.Library>
libRbt.so (2013.1, Build901 2013/11/27)

>  <Rbt.Parameter_File>
/export/apps/rDock/src/rDock_2013.1_src/data/scripts/dock_solv.prm

>  <Rbt.Receptor>
prm/blind_docking_100.prm

>  <SCORE>
-15.23

>  <SCORE.INTER>
-11.9845

>  <SCORE.INTER.CONST>
1

>  <SCORE.INTER.POLAR>
0

>  <SCORE.INTER.ROT>
5

>  <SCORE.INTER.SOLV>
7.15132

>  <SCORE.INTER.VDW>
-17.3068

>  <SCORE.INTER.norm>
-1.33161

>  <SCORE.INTRA>
-3.24546

>  <SCORE.INTRA.DIHEDRAL>
-5.91293

>  <SCORE.INTRA.DIHEDRAL.0>
7.73744

>  <SCORE.INTRA.POLAR>
0

>  <SCORE.INTRA.POLAR.0>
0

>  <SCORE.INTRA.REPUL>
0

>  <SCORE.INTRA.REPUL.0>
0

>  <SCORE.INTRA.SOLV>
-0.133778

>  <SCORE.INTRA.SOLV.lig_0>
-15.8342

>  <SCORE.INTRA.VDW>
-0.222106

>  <SCORE.INTRA.VDW.0>
-0.219494

>  <SCORE.INTRA.norm>
-0.360606

>  <SCORE.RESTR>
0

>  <SCORE.RESTR.CAVITY>
0

>  <SCORE.RESTR.norm>
0

>  <SCORE.SYSTEM>
0

>  <SCORE.SYSTEM.CONST>
0

>  <SCORE.SYSTEM.DIHEDRAL>
0

>  <SCORE.SYSTEM.SOLV>
0

>  <SCORE.SYSTEM.norm>
0

>  <SCORE.heavy>
9

>  <SCORE.norm>
-1.69222

>  <RMSD>
5.479

$$$$
ligand
 OpenBabel02271912143D
libRbt.so/2013.1/901 2013/11/27
  9  8  0  0  0  0  0  0  0  0999 V2000
  -50.6723   69.3730  -19.2114 C   0  0  0  0  0  0  0  0  0  0  0  0
  -51.7744   69.5322  -18.5712 O   0  0  0  0  0  0  0  0  0  0  0  0
  -49.5048   68.7966  -18.5323 C   0  0  0  0  0  0  0  0  0  0  0  0
  -50.5476   69.7460  -20.4234 O   0  0  0  0  0  0  0  0  0  0  0  0
  -49.3171   67.3244  -18.7183 C   0  0  0  0  0  0  0  0  0  0  0  0
  -49.0880   66.8218  -20.0960 C   0  0  0  0  0  0  0  0  0  0  0  0
  -47.8121   67.3268  -20.7484 C   0  0  0  0  0  0  0  0  0  0  0  0
  -47.4819   66.9095  -22.1901 C   0  0  0  0  0  0  0  0  0  0  0  0
  -46.3247   67.4057  -22.7548 N   0  0  0  0  0  0  0  0  0  0  0  0
  1  2  1  0  0  0  0
  1  3  1  0  0  0  0
  1  4  1  0  0  0  0
  3  5  1  0  0  0  0
  5  6  1  0  0  0  0
  6  7  1  0  0  0  0
  7  8  1  0  0  0  0
  8  9  1  0  0  0  0
M  END
>  <CHROM.1>
95.66915464,62.04394647,63.16761931,-178.28218035,179.00305150,-49.20732695
68.16425171,-20.13286895,2.90826687,-0.75297273,2.19522235

>  <Name>
ligand

>  <RI>
0

>  <Rbt.Current_Directory>
/home/itssahil/PROJECTS/Mol_Feturizer/Test_systems_manuscript/rnas/4erj

>  <Rbt.Executable>
rbdock ($Id: //depot/dev/client3/rdock/2013.1/src/exe/rbdock.cxx#4 $)

>  <Rbt.Library>
libRbt.so (2013.1, Build901 2013/11/27)

>  <Rbt.Parameter_File>
/export/apps/rDock/src/rDock_2013.1_src/data/scripts/dock_solv.prm

>  <Rbt.Receptor>
prm/pocket_docking_8.prm

>  <SCORE>
-15.2505

>  <SCORE.INTER>
-11.9967

>  <SCORE.INTER.CONST>
1

>  <SCORE.INTER.POLAR>
0

>  <SCORE.INTER.ROT>
5

>  <SCORE.INTER.SOLV>
7.377

>  <SCORE.INTER.VDW>
-17.3901

>  <SCORE.INTER.norm>
-1.33297

>  <SCORE.INTRA>
-3.2538

>  <SCORE.INTRA.DIHEDRAL>
-5.88393

>  <SCORE.INTRA.DIHEDRAL.0>
7.73744

>  <SCORE.INTRA.POLAR>
0

>  <SCORE.INTRA.POLAR.0>
0

>  <SCORE.INTRA.REPUL>
0

>  <SCORE.INTRA.REPUL.0>
0

>  <SCORE.INTRA.SOLV>
-0.133121

>  <SCORE.INTRA.SOLV.lig_0>
-15.8342

>  <SCORE.INTRA.VDW>
-0.245276

>  <SCORE.INTRA.VDW.0>
-0.219494

>  <SCORE.INTRA.norm>
-0.361534

>  <SCORE.RESTR>
0

>  <SCORE.RESTR.CAVITY>
0

>  <SCORE.RESTR.norm>
0

>  <SCORE.SYSTEM>
0

>  <SCORE.SYSTEM.CONST>
0

>  <SCORE.SYSTEM.DIHEDRAL>
0

>  <SCORE.SYSTEM.SOLV>
0

>  <SCORE.SYSTEM.norm>
0

>  <SCORE.heavy>
9

>  <SCORE.norm>
-1.6945

>  <RMSD>
5.479

$$$$
ligand
 OpenBabel02271912143D
libRbt.so/2013.1/901 2013/11/27
  9  8  0  0  0  0  0  0  0  0999 V2000
  -50.6668   69.4051  -19.1814 C   0  0  0  0  0  0  0  0  0  0  0  0
  -50.5323   69.7371  -20.4149 O   0  0  0  0  0  0  0  0  0  0  0  0
  -49.5330   68.8279  -18.4482 C   0  0  0  0  0  0  0  0  0  0  0  0
  -51.7835   69.5230  -18.5792 O   0  0  0  0  0  0  0  0  0  0  0  0
  -49.3400   67.3549  -18.6223 C   0  0  0  0  0  0  0  0  0  0  0  0
  -49.0945   66.8438  -19.9940 C   0  0  0  0  0  0  0  0  0  0  0  0
  -47.8201   67.3591  -20.6412 C   0  0  0  0  0  0  0  0  0  0  0  0
  -47.4553   66.9049  -22.0634 C   0  0  0  0  0  0  0  0  0  0  0  0
  -46.3062   67.4190  -22.6284 N   0  0  0  0  0  0  0  0  0  0  0  0
  1  2  1  0  0  0  0
  1  3  1  0  0  0  0
  1  4  1  0  0  0  0
  3  5  1  0  0  0  0
  5  6  1  0  0  0  0
  6  7  1  0  0  0  0
  7  8  1  0  0  0  0
  8  9  1  0  0  0  0
M  END
>  <CHROM.1>
-83.75235521,60.01513498,62.53740680,-179.88017451,178.52622637,-49.20829729
68.17865365,-20.05970410,2.91286215,-0.74054531,2.18674268

>  <Name>
ligand

>  <RI>
0

>  <Rbt.Current_Directory>
/home/itssahil/PROJECTS/Mol_Feturizer/Test_systems_manuscript/rnas/4erj

>  <Rbt.Executable>
rbdock ($Id: //depot/dev/client3/rdock/2013.1/src/exe/rbdock.cxx#4 $)

>  <Rbt.Library>
libRbt.so (2013.1, Build901 2013/11/27)

>  <Rbt.Parameter_File>
/export/apps/rDock/src/rDock_2013.1_src/data/scripts/dock_solv.prm

>  <Rbt.Receptor>
prm/pocket_docking_6.prm

>  <SCORE>
-15.2686

>  <SCORE.INTER>
-11.9278

>  <SCORE.INTER.CONST>
1

>  <SCORE.INTER.POLAR>
0

>  <SCORE.INTER.ROT>
5

>  <SCORE.INTER.SOLV>
7.41658

>  <SCORE.INTER.VDW>
-17.3574

>  <SCORE.INTER.norm>
-1.32531

>  <SCORE.INTRA>
-3.34078

>  <SCORE.INTRA.DIHEDRAL>
-6.11932

>  <SCORE.INTRA.DIHEDRAL.0>
7.73744

>  <SCORE.INTRA.POLAR>
0

>  <SCORE.INTRA.POLAR.0>
0

>  <SCORE.INTRA.REPUL>
0

>  <SCORE.INTRA.REPUL.0>
0

>  <SCORE.INTRA.SOLV>
-0.133896

>  <SCORE.INTRA.SOLV.lig_0>
-15.8342

>  <SCORE.INTRA.VDW>
-0.214175

>  <SCORE.INTRA.VDW.0>
-0.219494

>  <SCORE.INTRA.norm>
-0.371198

>  <SCORE.RESTR>
0

>  <SCORE.RESTR.CAVITY>
0

>  <SCORE.RESTR.norm>
0

>  <SCORE.SYSTEM>
0

>  <SCORE.SYSTEM.CONST>
0

>  <SCORE.SYSTEM.DIHEDRAL>
0

>  <SCORE.SYSTEM.SOLV>
0

>  <SCORE.SYSTEM.norm>
0

>  <SCORE.heavy>
9

>  <SCORE.norm>
-1.69651

>  <RMSD>
5.480

$$$$
ligand
 OpenBabel02271912143D
libRbt.so/2013.1/901 2013/11/27
  9  8  0  0  0  0  0  0  0  0999 V2000
  -50.7052   69.3693  -19.1754 C   0  0  0  0  0  0  0  0  0  0  0  0
  -51.8436   69.4958  -18.5941 O   0  0  0  0  0  0  0  0  0  0  0  0
  -49.5597   68.8229  -18.4366 C   0  0  0  0  0  0  0  0  0  0  0  0
  -50.5270   69.7500  -20.3783 O   0  0  0  0  0  0  0  0  0  0  0  0
  -49.3092   67.3613  -18.6319 C   0  0  0  0  0  0  0  0  0  0  0  0
  -49.0709   66.8758  -20.0141 C   0  0  0  0  0  0  0  0  0  0  0  0
  -47.8081   67.4158  -20.6641 C   0  0  0  0  0  0  0  0  0  0  0  0
  -47.4664   67.0118  -22.1070 C   0  0  0  0  0  0  0  0  0  0  0  0
  -46.3340   67.5568  -22.6770 N   0  0  0  0  0  0  0  0  0  0  0  0
  1  2  1  0  0  0  0
  1  3  1  0  0  0  0
  1  4  1  0  0  0  0
  3  5  1  0  0  0  0
  5  6  1  0  0  0  0
  6  7  1  0  0  0  0
  7  8  1  0  0  0  0
  8  9  1  0  0  0  0
M  END
>  <CHROM.1>
96.55818817,58.07888502,64.44556614,-178.64928862,177.95894356,-49.21862156
68.21013447,-20.07098768,2.89033072,-0.72653827,2.18631892

>  <Name>
ligand

>  <RI>
0

>  <Rbt.Current_Directory>
/home/itssahil/PROJECTS/Mol_Feturizer/Test_systems_manuscript/rnas/4erj

>  <Rbt.Executable>
rbdock ($Id: //depot/dev/client3/rdock/2013.1/src/exe/rbdock.cxx#4 $)

>  <Rbt.Library>
libRbt.so (2013.1, Build901 2013/11/27)

>  <Rbt.Parameter_File>
/export/apps/rDock/src/rDock_2013.1_src/data/scripts/dock_solv.prm

>  <Rbt.Receptor>
prm/pocket_docking_5.prm

>  <SCORE>
-15.2385

>  <SCORE.INTER>
-12.0157

>  <SCORE.INTER.CONST>
1

>  <SCORE.INTER.POLAR>
0

>  <SCORE.INTER.ROT>
5

>  <SCORE.INTER.SOLV>
7.16156

>  <SCORE.INTER.VDW>
-17.331

>  <SCORE.INTER.norm>
-1.33507

>  <SCORE.INTRA>
-3.22281

>  <SCORE.INTRA.DIHEDRAL>
-5.83938

>  <SCORE.INTRA.DIHEDRAL.0>
7.73744

>  <SCORE.INTRA.POLAR>
0

>  <SCORE.INTRA.POLAR.0>
0

>  <SCORE.INTRA.REPUL>
0

>  <SCORE.INTRA.REPUL.0>
0

>  <SCORE.INTRA.SOLV>
-0.133617

>  <SCORE.INTRA.SOLV.lig_0>
-15.8342

>  <SCORE.INTRA.VDW>
-0.236313

>  <SCORE.INTRA.VDW.0>
-0.219494

>  <SCORE.INTRA.norm>
-0.35809

>  <SCORE.RESTR>
0

>  <SCORE.RESTR.CAVITY>
0

>  <SCORE.RESTR.norm>
0

>  <SCORE.SYSTEM>
0

>  <SCORE.SYSTEM.CONST>
0

>  <SCORE.SYSTEM.DIHEDRAL>
0

>  <SCORE.SYSTEM.SOLV>
0

>  <SCORE.SYSTEM.norm>
0

>  <SCORE.heavy>
9

>  <SCORE.norm>
-1.69316

>  <RMSD>
5.486

$$$$
ligand
 OpenBabel02271912143D
libRbt.so/2013.1/901 2013/11/27
  9  8  0  0  0  0  0  0  0  0999 V2000
  -50.7876   69.6416  -18.9520 C   0  0  0  0  0  0  0  0  0  0  0  0
  -52.0521   69.5961  -18.7309 O   0  0  0  0  0  0  0  0  0  0  0  0
  -49.8905   68.6896  -18.2846 C   0  0  0  0  0  0  0  0  0  0  0  0
  -50.2767   70.5289  -19.7103 O   0  0  0  0  0  0  0  0  0  0  0  0
  -48.8734   68.0398  -19.1681 C   0  0  0  0  0  0  0  0  0  0  0  0
  -49.3626   67.2330  -20.3139 C   0  0  0  0  0  0  0  0  0  0  0  0
  -48.2670   66.5834  -21.1422 C   0  0  0  0  0  0  0  0  0  0  0  0
  -47.2148   67.4657  -21.8322 C   0  0  0  0  0  0  0  0  0  0  0  0
  -47.6532   68.3705  -22.7774 N   0  0  0  0  0  0  0  0  0  0  0  0
  1  2  1  0  0  0  0
  1  3  1  0  0  0  0
  1  4  1  0  0  0  0
  3  5  1  0  0  0  0
  5  6  1  0  0  0  0
  6  7  1  0  0  0  0
  7  8  1  0  0  0  0
  8  9  1  0  0  0  0
M  END
>  <CHROM.1>
133.77804659,-59.90042679,-178.73313161,-59.96964522,-61.60605692,-49.40844943
68.49170894,-20.09183869,3.13400999,-0.84349785,2.49786717

>  <Name>
ligand

>  <RI>
0

>  <Rbt.Current_Directory>
/home/itssahil/PROJECTS/Mol_Feturizer/Test_systems_manuscript/rnas/4erj

>  <Rbt.Executable>
rbdock ($Id: //depot/dev/client3/rdock/2013.1/src/exe/rbdock.cxx#4 $)

>  <Rbt.Library>
libRbt.so (2013.1, Build901 2013/11/27)

>  <Rbt.Parameter_File>
/export/apps/rDock/src/rDock_2013.1_src/data/scripts/dock_solv.prm

>  <Rbt.Receptor>
prm/pocket_docking_6.prm

>  <SCORE>
-13.2856

>  <SCORE.INTER>
-10.7676

>  <SCORE.INTER.CONST>
1

>  <SCORE.INTER.POLAR>
0

>  <SCORE.INTER.ROT>
5

>  <SCORE.INTER.SOLV>
7.00222

>  <SCORE.INTER.VDW>
-16.4458

>  <SCORE.INTER.norm>
-1.1964

>  <SCORE.INTRA>
-2.51806

>  <SCORE.INTRA.DIHEDRAL>
-6.10276

>  <SCORE.INTRA.DIHEDRAL.0>
7.73744

>  <SCORE.INTRA.POLAR>
0

>  <SCORE.INTRA.POLAR.0>
0

>  <SCORE.INTRA.REPUL>
0

>  <SCORE.INTRA.REPUL.0>
0

>  <SCORE.INTRA.SOLV>
1.07192

>  <SCORE.INTRA.SOLV.lig_0>
-15.8342

>  <SCORE.INTRA.VDW>
-0.00263696

>  <SCORE.INTRA.VDW.0>
-0.219494

>  <SCORE.INTRA.norm>
-0.279784

>  <SCORE.RESTR>
0

>  <SCORE.RESTR.CAVITY>
0

>  <SCORE.RESTR.norm>
0

>  <SCORE.SYSTEM>
0

>  <SCORE.SYSTEM.CONST>
0

>  <SCORE.SYSTEM.DIHEDRAL>
0

>  <SCORE.SYSTEM.SOLV>
0

>  <SCORE.SYSTEM.norm>
0

>  <SCORE.heavy>
9

>  <SCORE.norm>
-1.47618

>  <RMSD>
5.490

$$$$
ligand
 OpenBabel02271912143D
libRbt.so/2013.1/901 2013/11/27
  9  8  0  0  0  0  0  0  0  0999 V2000
  -51.0233   70.3289  -19.4922 C   0  0  0  0  0  0  0  0  0  0  0  0
  -52.0797   69.9291  -18.8806 O   0  0  0  0  0  0  0  0  0  0  0  0
  -49.8580   69.4421  -19.6019 C   0  0  0  0  0  0  0  0  0  0  0  0
  -50.9397   71.5049  -19.9754 O   0  0  0  0  0  0  0  0  0  0  0  0
  -49.8489   68.2766  -18.6644 C   0  0  0  0  0  0  0  0  0  0  0  0
  -48.7824   67.2581  -18.8326 C   0  0  0  0  0  0  0  0  0  0  0  0
  -48.8769   66.4510  -20.1164 C   0  0  0  0  0  0  0  0  0  0  0  0
  -48.6767   67.1526  -21.4690 C   0  0  0  0  0  0  0  0  0  0  0  0
  -47.4647   67.7705  -21.7004 N   0  0  0  0  0  0  0  0  0  0  0  0
  1  2  1  0  0  0  0
  1  3  1  0  0  0  0
  1  4  1  0  0  0  0
  3  5  1  0  0  0  0
  5  6  1  0  0  0  0
  6  7  1  0  0  0  0
  7  8  1  0  0  0  0
  8  9  1  0  0  0  0
M  END
>  <CHROM.1>
-16.44579665,172.98599375,-67.26567466,65.76289195,60.34847687,-49.76266338
68.71623859,-19.85142801,-2.74286544,-0.82487520,2.45994279

>  <Name>
ligand

>  <RI>
0

>  <Rbt.Current_Directory>
/home/itssahil/PROJECTS/Mol_Feturizer/Test_systems_manuscript/rnas/4erj

>  <Rbt.Executable>
rbdock ($Id: //depot/dev/client3/rdock/2013.1/src/exe/rbdock.cxx#4 $)

>  <Rbt.Library>
libRbt.so (2013.1, Build901 2013/11/27)

>  <Rbt.Parameter_File>
/export/apps/rDock/src/rDock_2013.1_src/data/scripts/dock_solv.prm

>  <Rbt.Receptor>
prm/pocket_docking_6.prm

>  <SCORE>
-14.6506

>  <SCORE.INTER>
-13.6513

>  <SCORE.INTER.CONST>
1

>  <SCORE.INTER.POLAR>
0

>  <SCORE.INTER.ROT>
5

>  <SCORE.INTER.SOLV>
6.41942

>  <SCORE.INTER.VDW>
-18.174

>  <SCORE.INTER.norm>
-1.51681

>  <SCORE.INTRA>
-0.999345

>  <SCORE.INTRA.DIHEDRAL>
-5.41573

>  <SCORE.INTRA.DIHEDRAL.0>
7.73744

>  <SCORE.INTRA.POLAR>
0

>  <SCORE.INTRA.POLAR.0>
0

>  <SCORE.INTRA.REPUL>
0

>  <SCORE.INTRA.REPUL.0>
0

>  <SCORE.INTRA.SOLV>
1.81378

>  <SCORE.INTRA.SOLV.lig_0>
-15.8342

>  <SCORE.INTRA.VDW>
0.801632

>  <SCORE.INTRA.VDW.0>
-0.219494

>  <SCORE.INTRA.norm>
-0.111038

>  <SCORE.RESTR>
0

>  <SCORE.RESTR.CAVITY>
0

>  <SCORE.RESTR.norm>
0

>  <SCORE.SYSTEM>
0

>  <SCORE.SYSTEM.CONST>
0

>  <SCORE.SYSTEM.DIHEDRAL>
0

>  <SCORE.SYSTEM.SOLV>
0

>  <SCORE.SYSTEM.norm>
0

>  <SCORE.heavy>
9

>  <SCORE.norm>
-1.62785

>  <RMSD>
5.491

$$$$
ligand
 OpenBabel02271912143D
libRbt.so/2013.1/901 2013/11/27
  9  8  0  0  0  0  0  0  0  0999 V2000
  -51.1731   70.2061  -19.3302 C   0  0  0  0  0  0  0  0  0  0  0  0
  -50.8130   71.3060  -19.8873 O   0  0  0  0  0  0  0  0  0  0  0  0
  -50.4612   68.9592  -19.6380 C   0  0  0  0  0  0  0  0  0  0  0  0
  -52.1719   70.1567  -18.5404 O   0  0  0  0  0  0  0  0  0  0  0  0
  -49.5651   68.4484  -18.5548 C   0  0  0  0  0  0  0  0  0  0  0  0
  -49.1008   67.0414  -18.6431 C   0  0  0  0  0  0  0  0  0  0  0  0
  -48.0778   66.7814  -19.7360 C   0  0  0  0  0  0  0  0  0  0  0  0
  -48.4720   66.9865  -21.2072 C   0  0  0  0  0  0  0  0  0  0  0  0
  -48.5256   68.2799  -21.6850 N   0  0  0  0  0  0  0  0  0  0  0  0
  1  2  1  0  0  0  0
  1  3  1  0  0  0  0
  1  4  1  0  0  0  0
  3  5  1  0  0  0  0
  5  6  1  0  0  0  0
  6  7  1  0  0  0  0
  7  8  1  0  0  0  0
  8  9  1  0  0  0  0
M  END
>  <CHROM.1>
106.64925215,164.25230213,71.60735343,-63.37378169,77.43653397,-49.84828184
68.72421664,-19.68201236,-2.92126947,-0.84970786,2.19870098

>  <Name>
ligand

>  <RI>
0

>  <Rbt.Current_Directory>
/home/itssahil/PROJECTS/Mol_Feturizer/Test_systems_manuscript/rnas/4erj

>  <Rbt.Executable>
rbdock ($Id: //depot/dev/client3/rdock/2013.1/src/exe/rbdock.cxx#4 $)

>  <Rbt.Library>
libRbt.so (2013.1, Build901 2013/11/27)

>  <Rbt.Parameter_File>
/export/apps/rDock/src/rDock_2013.1_src/data/scripts/dock_solv.prm

>  <Rbt.Receptor>
prm/blind_docking_100.prm

>  <SCORE>
-13.4386

>  <SCORE.INTER>
-13.4612

>  <SCORE.INTER.CONST>
1

>  <SCORE.INTER.POLAR>
0

>  <SCORE.INTER.ROT>
5

>  <SCORE.INTER.SOLV>
6.49607

>  <SCORE.INTER.VDW>
-18.0728

>  <SCORE.INTER.norm>
-1.49568

>  <SCORE.INTRA>
0.0225669

>  <SCORE.INTRA.DIHEDRAL>
-3.33742

>  <SCORE.INTRA.DIHEDRAL.0>
7.73744

>  <SCORE.INTRA.POLAR>
0

>  <SCORE.INTRA.POLAR.0>
0

>  <SCORE.INTRA.REPUL>
0

>  <SCORE.INTRA.REPUL.0>
0

>  <SCORE.INTRA.SOLV>
2.64171

>  <SCORE.INTRA.SOLV.lig_0>
-15.8342

>  <SCORE.INTRA.VDW>
0.370422

>  <SCORE.INTRA.VDW.0>
-0.219494

>  <SCORE.INTRA.norm>
0.00250743

>  <SCORE.RESTR>
0

>  <SCORE.RESTR.CAVITY>
0

>  <SCORE.RESTR.norm>
0

>  <SCORE.SYSTEM>
0

>  <SCORE.SYSTEM.CONST>
0

>  <SCORE.SYSTEM.DIHEDRAL>
0

>  <SCORE.SYSTEM.SOLV>
0

>  <SCORE.SYSTEM.norm>
0

>  <SCORE.heavy>
9

>  <SCORE.norm>
-1.49318

>  <RMSD>
5.493

$$$$
ligand
 OpenBabel02271912143D
libRbt.so/2013.1/901 2013/11/27
  9  8  0  0  0  0  0  0  0  0999 V2000
  -49.2005   67.7831  -18.4032 C   0  0  0  0  0  0  0  0  0  0  0  0
  -49.1462   68.9440  -17.8561 O   0  0  0  0  0  0  0  0  0  0  0  0
  -49.2743   67.6625  -19.8648 C   0  0  0  0  0  0  0  0  0  0  0  0
  -49.2369   66.7192  -17.7030 O   0  0  0  0  0  0  0  0  0  0  0  0
  -48.0108   67.2272  -20.5367 C   0  0  0  0  0  0  0  0  0  0  0  0
  -47.9465   67.3117  -22.0172 C   0  0  0  0  0  0  0  0  0  0  0  0
  -48.0453   68.7220  -22.5741 C   0  0  0  0  0  0  0  0  0  0  0  0
  -47.9447   68.9463  -24.0911 C   0  0  0  0  0  0  0  0  0  0  0  0
  -46.7484   68.6437  -24.7086 N   0  0  0  0  0  0  0  0  0  0  0  0
  1  2  1  0  0  0  0
  1  3  1  0  0  0  0
  1  4  1  0  0  0  0
  3  5  1  0  0  0  0
  5  6  1  0  0  0  0
  6  7  1  0  0  0  0
  7  8  1  0  0  0  0
  8  9  1  0  0  0  0
M  END
>  <CHROM.1>
105.12916167,-169.62017671,63.79921986,177.99723396,-64.95276626,-48.40696746
67.99370418,-20.80480387,2.59973695,-1.23320484,2.72787435

>  <Name>
ligand

>  <RI>
0

>  <Rbt.Current_Directory>
/home/itssahil/PROJECTS/Mol_Feturizer/Test_systems_manuscript/rnas/4erj

>  <Rbt.Executable>
rbdock ($Id: //depot/dev/client3/rdock/2013.1/src/exe/rbdock.cxx#4 $)

>  <Rbt.Library>
libRbt.so (2013.1, Build901 2013/11/27)

>  <Rbt.Parameter_File>
/export/apps/rDock/src/rDock_2013.1_src/data/scripts/dock_solv.prm

>  <Rbt.Receptor>
prm/blind_docking_100.prm

>  <SCORE>
-12.8734

>  <SCORE.INTER>
-10.3063

>  <SCORE.INTER.CONST>
1

>  <SCORE.INTER.POLAR>
0

>  <SCORE.INTER.ROT>
5

>  <SCORE.INTER.SOLV>
7.88935

>  <SCORE.INTER.VDW>
-16.434

>  <SCORE.INTER.norm>
-1.14514

>  <SCORE.INTRA>
-2.56711

>  <SCORE.INTRA.DIHEDRAL>
-5.3722

>  <SCORE.INTRA.DIHEDRAL.0>
7.73744

>  <SCORE.INTRA.POLAR>
0

>  <SCORE.INTRA.POLAR.0>
0

>  <SCORE.INTRA.REPUL>
0

>  <SCORE.INTRA.REPUL.0>
0

>  <SCORE.INTRA.SOLV>
0.487982

>  <SCORE.INTRA.SOLV.lig_0>
-15.8342

>  <SCORE.INTRA.VDW>
-0.124999

>  <SCORE.INTRA.VDW.0>
-0.219494

>  <SCORE.INTRA.norm>
-0.285234

>  <SCORE.RESTR>
0

>  <SCORE.RESTR.CAVITY>
0

>  <SCORE.RESTR.norm>
0

>  <SCORE.SYSTEM>
0

>  <SCORE.SYSTEM.CONST>
0

>  <SCORE.SYSTEM.DIHEDRAL>
0

>  <SCORE.SYSTEM.SOLV>
0

>  <SCORE.SYSTEM.norm>
0

>  <SCORE.heavy>
9

>  <SCORE.norm>
-1.43038

>  <RMSD>
5.494

$$$$
ligand
 OpenBabel02271912143D
libRbt.so/2013.1/901 2013/11/27
  9  8  0  0  0  0  0  0  0  0999 V2000
  -50.8435   69.6428  -18.9889 C   0  0  0  0  0  0  0  0  0  0  0  0
  -50.3945   70.4796  -19.8538 O   0  0  0  0  0  0  0  0  0  0  0  0
  -49.9192   68.7390  -18.2924 C   0  0  0  0  0  0  0  0  0  0  0  0
  -52.0903   69.5425  -18.7459 O   0  0  0  0  0  0  0  0  0  0  0  0
  -48.8599   68.1209  -19.1488 C   0  0  0  0  0  0  0  0  0  0  0  0
  -49.2936   67.2590  -20.2766 C   0  0  0  0  0  0  0  0  0  0  0  0
  -48.1566   66.6550  -21.0834 C   0  0  0  0  0  0  0  0  0  0  0  0
  -47.2075   67.5781  -21.8638 C   0  0  0  0  0  0  0  0  0  0  0  0
  -47.7341   68.3048  -22.9121 N   0  0  0  0  0  0  0  0  0  0  0  0
  1  2  1  0  0  0  0
  1  3  1  0  0  0  0
  1  4  1  0  0  0  0
  3  5  1  0  0  0  0
  5  6  1  0  0  0  0
  6  7  1  0  0  0  0
  7  8  1  0  0  0  0
  8  9  1  0  0  0  0
M  END
>  <CHROM.1>
-42.33809894,-60.96519144,-179.16296820,-63.88853494,-65.30690510,-49.42324205
68.50905507,-20.12148955,2.99166201,-0.81812545,2.32488005

>  <Name>
ligand

>  <RI>
0

>  <Rbt.Current_Directory>
/home/itssahil/PROJECTS/Mol_Feturizer/Test_systems_manuscript/rnas/4erj

>  <Rbt.Executable>
rbdock ($Id: //depot/dev/client3/rdock/2013.1/src/exe/rbdock.cxx#4 $)

>  <Rbt.Library>
libRbt.so (2013.1, Build901 2013/11/27)

>  <Rbt.Parameter_File>
/export/apps/rDock/src/rDock_2013.1_src/data/scripts/dock_solv.prm

>  <Rbt.Receptor>
prm/pocket_docking_5.prm

>  <SCORE>
-13.2524

>  <SCORE.INTER>
-10.7667

>  <SCORE.INTER.CONST>
1

>  <SCORE.INTER.POLAR>
0

>  <SCORE.INTER.ROT>
5

>  <SCORE.INTER.SOLV>
7.07808

>  <SCORE.INTER.VDW>
-16.4705

>  <SCORE.INTER.norm>
-1.1963

>  <SCORE.INTRA>
-2.48575

>  <SCORE.INTRA.DIHEDRAL>
-5.8049

>  <SCORE.INTRA.DIHEDRAL.0>
7.73744

>  <SCORE.INTRA.POLAR>
0

>  <SCORE.INTRA.POLAR.0>
0

>  <SCORE.INTRA.REPUL>
0

>  <SCORE.INTRA.REPUL.0>
0

>  <SCORE.INTRA.SOLV>
0.967968

>  <SCORE.INTRA.SOLV.lig_0>
-15.8342

>  <SCORE.INTRA.VDW>
-0.067284

>  <SCORE.INTRA.VDW.0>
-0.219494

>  <SCORE.INTRA.norm>
-0.276194

>  <SCORE.RESTR>
0

>  <SCORE.RESTR.CAVITY>
0

>  <SCORE.RESTR.norm>
0

>  <SCORE.SYSTEM>
0

>  <SCORE.SYSTEM.CONST>
0

>  <SCORE.SYSTEM.DIHEDRAL>
0

>  <SCORE.SYSTEM.SOLV>
0

>  <SCORE.SYSTEM.norm>
0

>  <SCORE.heavy>
9

>  <SCORE.norm>
-1.47249

>  <RMSD>
5.494

$$$$
ligand
 OpenBabel02271912143D
libRbt.so/2013.1/901 2013/11/27
  9  8  0  0  0  0  0  0  0  0999 V2000
  -48.9762   67.4524  -18.4029 C   0  0  0  0  0  0  0  0  0  0  0  0
  -49.5164   67.2003  -17.2651 O   0  0  0  0  0  0  0  0  0  0  0  0
  -48.6632   68.8375  -18.7767 C   0  0  0  0  0  0  0  0  0  0  0  0
  -48.7407   66.5270  -19.2466 O   0  0  0  0  0  0  0  0  0  0  0  0
  -48.6639   69.1208  -20.2454 C   0  0  0  0  0  0  0  0  0  0  0  0
  -47.6114   68.4845  -21.0763 C   0  0  0  0  0  0  0  0  0  0  0  0
  -47.7258   68.7660  -22.5650 C   0  0  0  0  0  0  0  0  0  0  0  0
  -46.6866   68.1740  -23.5301 C   0  0  0  0  0  0  0  0  0  0  0  0
  -46.7893   68.5017  -24.8666 N   0  0  0  0  0  0  0  0  0  0  0  0
  1  2  1  0  0  0  0
  1  3  1  0  0  0  0
  1  4  1  0  0  0  0
  3  5  1  0  0  0  0
  5  6  1  0  0  0  0
  6  7  1  0  0  0  0
  7  8  1  0  0  0  0
  8  9  1  0  0  0  0
M  END
>  <CHROM.1>
-152.24408834,-67.05053884,177.00089304,179.41271329,-177.12454635,-48.16991753
68.09002162,-20.62462236,-2.88400366,1.20140232,-0.09858306

>  <Name>
ligand

>  <RI>
0

>  <Rbt.Current_Directory>
/home/itssahil/PROJECTS/Mol_Feturizer/Test_systems_manuscript/rnas/4erj

>  <Rbt.Executable>
rbdock ($Id: //depot/dev/client3/rdock/2013.1/src/exe/rbdock.cxx#4 $)

>  <Rbt.Library>
libRbt.so (2013.1, Build901 2013/11/27)

>  <Rbt.Parameter_File>
/export/apps/rDock/src/rDock_2013.1_src/data/scripts/dock_solv.prm

>  <Rbt.Receptor>
prm/pocket_docking_6.prm

>  <SCORE>
-11.9489

>  <SCORE.INTER>
-9.44843

>  <SCORE.INTER.CONST>
1

>  <SCORE.INTER.POLAR>
0

>  <SCORE.INTER.ROT>
5

>  <SCORE.INTER.SOLV>
7.63397

>  <SCORE.INTER.VDW>
-15.7769

>  <SCORE.INTER.norm>
-1.04983

>  <SCORE.INTRA>
-2.50049

>  <SCORE.INTRA.DIHEDRAL>
-5.68185

>  <SCORE.INTRA.DIHEDRAL.0>
7.73744

>  <SCORE.INTRA.POLAR>
0

>  <SCORE.INTRA.POLAR.0>
0

>  <SCORE.INTRA.REPUL>
0

>  <SCORE.INTRA.REPUL.0>
0

>  <SCORE.INTRA.SOLV>
-0.123826

>  <SCORE.INTRA.SOLV.lig_0>
-15.8342

>  <SCORE.INTRA.VDW>
0.402354

>  <SCORE.INTRA.VDW.0>
-0.219494

>  <SCORE.INTRA.norm>
-0.277832

>  <SCORE.RESTR>
0

>  <SCORE.RESTR.CAVITY>
0

>  <SCORE.RESTR.norm>
0

>  <SCORE.SYSTEM>
0

>  <SCORE.SYSTEM.CONST>
0

>  <SCORE.SYSTEM.DIHEDRAL>
0

>  <SCORE.SYSTEM.SOLV>
0

>  <SCORE.SYSTEM.norm>
0

>  <SCORE.heavy>
9

>  <SCORE.norm>
-1.32766

>  <RMSD>
5.495

$$$$
ligand
 OpenBabel02271912143D
libRbt.so/2013.1/901 2013/11/27
  9  8  0  0  0  0  0  0  0  0999 V2000
  -48.8868   67.3999  -18.2289 C   0  0  0  0  0  0  0  0  0  0  0  0
  -49.5365   67.0887  -17.1655 O   0  0  0  0  0  0  0  0  0  0  0  0
  -48.8959   68.7850  -18.7165 C   0  0  0  0  0  0  0  0  0  0  0  0
  -48.2615   66.5209  -18.9071 O   0  0  0  0  0  0  0  0  0  0  0  0
  -48.9959   68.9414  -20.2008 C   0  0  0  0  0  0  0  0  0  0  0  0
  -47.8514   68.4816  -21.0264 C   0  0  0  0  0  0  0  0  0  0  0  0
  -48.0132   68.7195  -22.5184 C   0  0  0  0  0  0  0  0  0  0  0  0
  -46.8856   68.3078  -23.4779 C   0  0  0  0  0  0  0  0  0  0  0  0
  -47.0473   68.5886  -24.8193 N   0  0  0  0  0  0  0  0  0  0  0  0
  1  2  1  0  0  0  0
  1  3  1  0  0  0  0
  1  4  1  0  0  0  0
  3  5  1  0  0  0  0
  5  6  1  0  0  0  0
  6  7  1  0  0  0  0
  7  8  1  0  0  0  0
  8  9  1  0  0  0  0
M  END
>  <CHROM.1>
-139.92480126,-66.93366488,-178.01596120,179.01568542,-177.47567617,-48.27373263
68.06377122,-20.52056491,-2.22454650,1.05889453,-0.78233926

>  <Name>
ligand

>  <RI>
0

>  <Rbt.Current_Directory>
/home/itssahil/PROJECTS/Mol_Feturizer/Test_systems_manuscript/rnas/4erj

>  <Rbt.Executable>
rbdock ($Id: //depot/dev/client3/rdock/2013.1/src/exe/rbdock.cxx#4 $)

>  <Rbt.Library>
libRbt.so (2013.1, Build901 2013/11/27)

>  <Rbt.Parameter_File>
/export/apps/rDock/src/rDock_2013.1_src/data/scripts/dock_solv.prm

>  <Rbt.Receptor>
prm/pocket_docking_8.prm

>  <SCORE>
-12.3437

>  <SCORE.INTER>
-9.60178

>  <SCORE.INTER.CONST>
1

>  <SCORE.INTER.POLAR>
0

>  <SCORE.INTER.ROT>
5

>  <SCORE.INTER.SOLV>
7.54541

>  <SCORE.INTER.VDW>
-15.8497

>  <SCORE.INTER.norm>
-1.06686

>  <SCORE.INTRA>
-2.74188

>  <SCORE.INTRA.DIHEDRAL>
-5.72347

>  <SCORE.INTRA.DIHEDRAL.0>
7.73744

>  <SCORE.INTRA.POLAR>
0

>  <SCORE.INTRA.POLAR.0>
0

>  <SCORE.INTRA.REPUL>
0

>  <SCORE.INTRA.REPUL.0>
0

>  <SCORE.INTRA.SOLV>
-0.123508

>  <SCORE.INTRA.SOLV.lig_0>
-15.8342

>  <SCORE.INTRA.VDW>
0.181606

>  <SCORE.INTRA.VDW.0>
-0.219494

>  <SCORE.INTRA.norm>
-0.304654

>  <SCORE.RESTR>
0

>  <SCORE.RESTR.CAVITY>
0

>  <SCORE.RESTR.norm>
0

>  <SCORE.SYSTEM>
0

>  <SCORE.SYSTEM.CONST>
0

>  <SCORE.SYSTEM.DIHEDRAL>
0

>  <SCORE.SYSTEM.SOLV>
0

>  <SCORE.SYSTEM.norm>
0

>  <SCORE.heavy>
9

>  <SCORE.norm>
-1.37152

>  <RMSD>
5.495

$$$$
ligand
 OpenBabel02271912143D
libRbt.so/2013.1/901 2013/11/27
  9  8  0  0  0  0  0  0  0  0999 V2000
  -49.3224   67.7139  -18.4172 C   0  0  0  0  0  0  0  0  0  0  0  0
  -49.1277   66.6648  -17.7021 O   0  0  0  0  0  0  0  0  0  0  0  0
  -49.3399   67.6116  -19.8820 C   0  0  0  0  0  0  0  0  0  0  0  0
  -49.4593   68.8642  -17.8865 O   0  0  0  0  0  0  0  0  0  0  0  0
  -48.0419   67.2182  -20.5127 C   0  0  0  0  0  0  0  0  0  0  0  0
  -47.9334   67.3041  -21.9905 C   0  0  0  0  0  0  0  0  0  0  0  0
  -48.0506   68.7112  -22.5515 C   0  0  0  0  0  0  0  0  0  0  0  0
  -47.9363   68.9343  -24.0678 C   0  0  0  0  0  0  0  0  0  0  0  0
  -46.7506   68.5865  -24.6820 N   0  0  0  0  0  0  0  0  0  0  0  0
  1  2  1  0  0  0  0
  1  3  1  0  0  0  0
  1  4  1  0  0  0  0
  3  5  1  0  0  0  0
  5  6  1  0  0  0  0
  6  7  1  0  0  0  0
  7  8  1  0  0  0  0
  8  9  1  0  0  0  0
M  END
>  <CHROM.1>
-65.36617581,-170.57962500,64.23638117,179.21467988,-61.66019930,-48.45288010
67.95433338,-20.79819448,2.34206939,-1.12642965,2.45051152

>  <Name>
ligand

>  <RI>
0

>  <Rbt.Current_Directory>
/home/itssahil/PROJECTS/Mol_Feturizer/Test_systems_manuscript/rnas/4erj

>  <Rbt.Executable>
rbdock ($Id: //depot/dev/client3/rdock/2013.1/src/exe/rbdock.cxx#4 $)

>  <Rbt.Library>
libRbt.so (2013.1, Build901 2013/11/27)

>  <Rbt.Parameter_File>
/export/apps/rDock/src/rDock_2013.1_src/data/scripts/dock_solv.prm

>  <Rbt.Receptor>
prm/pocket_docking_5.prm

>  <SCORE>
-12.881

>  <SCORE.INTER>
-10.2338

>  <SCORE.INTER.CONST>
1

>  <SCORE.INTER.POLAR>
0

>  <SCORE.INTER.ROT>
5

>  <SCORE.INTER.SOLV>
7.81568

>  <SCORE.INTER.VDW>
-16.3611

>  <SCORE.INTER.norm>
-1.13708

>  <SCORE.INTRA>
-2.64727

>  <SCORE.INTRA.DIHEDRAL>
-5.63837

>  <SCORE.INTRA.DIHEDRAL.0>
7.73744

>  <SCORE.INTRA.POLAR>
0

>  <SCORE.INTRA.POLAR.0>
0

>  <SCORE.INTRA.REPUL>
0

>  <SCORE.INTRA.REPUL.0>
0

>  <SCORE.INTRA.SOLV>
0.515709

>  <SCORE.INTRA.SOLV.lig_0>
-15.8342

>  <SCORE.INTRA.VDW>
-0.0859356

>  <SCORE.INTRA.VDW.0>
-0.219494

>  <SCORE.INTRA.norm>
-0.294141

>  <SCORE.RESTR>
0

>  <SCORE.RESTR.CAVITY>
0

>  <SCORE.RESTR.norm>
0

>  <SCORE.SYSTEM>
0

>  <SCORE.SYSTEM.CONST>
0

>  <SCORE.SYSTEM.DIHEDRAL>
0

>  <SCORE.SYSTEM.SOLV>
0

>  <SCORE.SYSTEM.norm>
0

>  <SCORE.heavy>
9

>  <SCORE.norm>
-1.43122

>  <RMSD>
5.496

$$$$
ligand
 OpenBabel02271912143D
libRbt.so/2013.1/901 2013/11/27
  9  8  0  0  0  0  0  0  0  0999 V2000
  -49.2551   67.7512  -18.3957 C   0  0  0  0  0  0  0  0  0  0  0  0
  -49.2284   66.6848  -17.6801 O   0  0  0  0  0  0  0  0  0  0  0  0
  -49.3083   67.6522  -19.8599 C   0  0  0  0  0  0  0  0  0  0  0  0
  -49.1917   68.9086  -17.8667 O   0  0  0  0  0  0  0  0  0  0  0  0
  -48.0409   67.2088  -20.5190 C   0  0  0  0  0  0  0  0  0  0  0  0
  -47.9608   67.2939  -21.9986 C   0  0  0  0  0  0  0  0  0  0  0  0
  -48.0421   68.7053  -22.5554 C   0  0  0  0  0  0  0  0  0  0  0  0
  -47.9337   68.9289  -24.0720 C   0  0  0  0  0  0  0  0  0  0  0  0
  -46.7493   68.5841  -24.6904 N   0  0  0  0  0  0  0  0  0  0  0  0
  1  2  1  0  0  0  0
  1  3  1  0  0  0  0
  1  4  1  0  0  0  0
  3  5  1  0  0  0  0
  5  6  1  0  0  0  0
  6  7  1  0  0  0  0
  7  8  1  0  0  0  0
  8  9  1  0  0  0  0
M  END
>  <CHROM.1>
-72.70141293,-170.53419881,63.88741568,178.40725434,-63.46059116,-48.42382823
67.96668751,-20.79194117,2.55631655,-1.21723468,2.68097640

>  <Name>
ligand

>  <RI>
0

>  <Rbt.Current_Directory>
/home/itssahil/PROJECTS/Mol_Feturizer/Test_systems_manuscript/rnas/4erj

>  <Rbt.Executable>
rbdock ($Id: //depot/dev/client3/rdock/2013.1/src/exe/rbdock.cxx#4 $)

>  <Rbt.Library>
libRbt.so (2013.1, Build901 2013/11/27)

>  <Rbt.Parameter_File>
/export/apps/rDock/src/rDock_2013.1_src/data/scripts/dock_solv.prm

>  <Rbt.Receptor>
prm/pocket_docking_8.prm

>  <SCORE>
-12.9006

>  <SCORE.INTER>
-10.2128

>  <SCORE.INTER.CONST>
1

>  <SCORE.INTER.POLAR>
0

>  <SCORE.INTER.ROT>
5

>  <SCORE.INTER.SOLV>
7.84336

>  <SCORE.INTER.VDW>
-16.3564

>  <SCORE.INTER.norm>
-1.13476

>  <SCORE.INTRA>
-2.68777

>  <SCORE.INTRA.DIHEDRAL>
-5.63701

>  <SCORE.INTRA.DIHEDRAL.0>
7.73744

>  <SCORE.INTRA.POLAR>
0

>  <SCORE.INTRA.POLAR.0>
0

>  <SCORE.INTRA.REPUL>
0

>  <SCORE.INTRA.REPUL.0>
0

>  <SCORE.INTRA.SOLV>
0.501125

>  <SCORE.INTRA.SOLV.lig_0>
-15.8342

>  <SCORE.INTRA.VDW>
-0.119831

>  <SCORE.INTRA.VDW.0>
-0.219494

>  <SCORE.INTRA.norm>
-0.298642

>  <SCORE.RESTR>
0

>  <SCORE.RESTR.CAVITY>
0

>  <SCORE.RESTR.norm>
0

>  <SCORE.SYSTEM>
0

>  <SCORE.SYSTEM.CONST>
0

>  <SCORE.SYSTEM.DIHEDRAL>
0

>  <SCORE.SYSTEM.SOLV>
0

>  <SCORE.SYSTEM.norm>
0

>  <SCORE.heavy>
9

>  <SCORE.norm>
-1.4334

>  <RMSD>
5.499

$$$$
ligand
 OpenBabel02271912143D
libRbt.so/2013.1/901 2013/11/27
  9  8  0  0  0  0  0  0  0  0999 V2000
  -50.8496   69.4005  -19.1379 C   0  0  0  0  0  0  0  0  0  0  0  0
  -52.0175   69.4979  -18.6122 O   0  0  0  0  0  0  0  0  0  0  0  0
  -49.7579   68.7646  -18.3895 C   0  0  0  0  0  0  0  0  0  0  0  0
  -50.5959   69.8855  -20.2885 O   0  0  0  0  0  0  0  0  0  0  0  0
  -49.3098   67.4371  -18.9134 C   0  0  0  0  0  0  0  0  0  0  0  0
  -48.7900   67.3780  -20.3024 C   0  0  0  0  0  0  0  0  0  0  0  0
  -47.6159   68.3025  -20.5772 C   0  0  0  0  0  0  0  0  0  0  0  0
  -47.0123   68.3615  -21.9892 C   0  0  0  0  0  0  0  0  0  0  0  0
  -46.3925   67.2271  -22.4722 N   0  0  0  0  0  0  0  0  0  0  0  0
  1  2  1  0  0  0  0
  1  3  1  0  0  0  0
  1  4  1  0  0  0  0
  3  5  1  0  0  0  0
  5  6  1  0  0  0  0
  6  7  1  0  0  0  0
  7  8  1  0  0  0  0
  8  9  1  0  0  0  0
M  END
>  <CHROM.1>
110.07618311,59.94814855,56.83165979,-178.34084329,-65.44224450,-49.18915602
68.49587988,-20.07094326,2.89882335,-0.63276153,2.23919859

>  <Name>
ligand

>  <RI>
0

>  <Rbt.Current_Directory>
/home/itssahil/PROJECTS/Mol_Feturizer/Test_systems_manuscript/rnas/4erj

>  <Rbt.Executable>
rbdock ($Id: //depot/dev/client3/rdock/2013.1/src/exe/rbdock.cxx#4 $)

>  <Rbt.Library>
libRbt.so (2013.1, Build901 2013/11/27)

>  <Rbt.Parameter_File>
/export/apps/rDock/src/rDock_2013.1_src/data/scripts/dock_solv.prm

>  <Rbt.Receptor>
prm/pocket_docking_3.prm

>  <SCORE>
-13.3242

>  <SCORE.INTER>
-10.6445

>  <SCORE.INTER.CONST>
1

>  <SCORE.INTER.POLAR>
0

>  <SCORE.INTER.ROT>
5

>  <SCORE.INTER.SOLV>
6.99858

>  <SCORE.INTER.VDW>
-16.3625

>  <SCORE.INTER.norm>
-1.18272

>  <SCORE.INTRA>
-2.67969

>  <SCORE.INTRA.DIHEDRAL>
-5.83743

>  <SCORE.INTRA.DIHEDRAL.0>
7.73744

>  <SCORE.INTRA.POLAR>
0

>  <SCORE.INTRA.POLAR.0>
0

>  <SCORE.INTRA.REPUL>
0

>  <SCORE.INTRA.REPUL.0>
0

>  <SCORE.INTRA.SOLV>
0.456018

>  <SCORE.INTRA.SOLV.lig_0>
-15.8342

>  <SCORE.INTRA.VDW>
0.0110205

>  <SCORE.INTRA.VDW.0>
-0.219494

>  <SCORE.INTRA.norm>
-0.297743

>  <SCORE.RESTR>
0

>  <SCORE.RESTR.CAVITY>
0

>  <SCORE.RESTR.norm>
0

>  <SCORE.SYSTEM>
0

>  <SCORE.SYSTEM.CONST>
0

>  <SCORE.SYSTEM.DIHEDRAL>
0

>  <SCORE.SYSTEM.SOLV>
0

>  <SCORE.SYSTEM.norm>
0

>  <SCORE.heavy>
9

>  <SCORE.norm>
-1.48046

>  <RMSD>
5.502

$$$$
ligand
 OpenBabel02271912143D
libRbt.so/2013.1/901 2013/11/27
  9  8  0  0  0  0  0  0  0  0999 V2000
  -50.9991   70.3774  -19.4454 C   0  0  0  0  0  0  0  0  0  0  0  0
  -50.9285   71.5549  -19.9538 O   0  0  0  0  0  0  0  0  0  0  0  0
  -49.8890   69.4326  -19.6233 C   0  0  0  0  0  0  0  0  0  0  0  0
  -52.0372   69.9845  -18.8197 O   0  0  0  0  0  0  0  0  0  0  0  0
  -49.8594   68.2895  -18.6590 C   0  0  0  0  0  0  0  0  0  0  0  0
  -48.7932   67.2700  -18.8228 C   0  0  0  0  0  0  0  0  0  0  0  0
  -48.8859   66.4598  -20.1049 C   0  0  0  0  0  0  0  0  0  0  0  0
  -48.6708   67.1557  -21.4582 C   0  0  0  0  0  0  0  0  0  0  0  0
  -47.4579   67.7762  -21.6773 N   0  0  0  0  0  0  0  0  0  0  0  0
  1  2  1  0  0  0  0
  1  3  1  0  0  0  0
  1  4  1  0  0  0  0
  3  5  1  0  0  0  0
  5  6  1  0  0  0  0
  6  7  1  0  0  0  0
  7  8  1  0  0  0  0
  8  9  1  0  0  0  0
M  END
>  <CHROM.1>
161.11589046,177.53369414,-65.58851255,66.28632743,59.61125350,-49.75898255
68.73755793,-19.83244803,-2.73133344,-0.83232597,2.47256327

>  <Name>
ligand

>  <RI>
0

>  <Rbt.Current_Directory>
/home/itssahil/PROJECTS/Mol_Feturizer/Test_systems_manuscript/rnas/4erj

>  <Rbt.Executable>
rbdock ($Id: //depot/dev/client3/rdock/2013.1/src/exe/rbdock.cxx#4 $)

>  <Rbt.Library>
libRbt.so (2013.1, Build901 2013/11/27)

>  <Rbt.Parameter_File>
/export/apps/rDock/src/rDock_2013.1_src/data/scripts/dock_solv.prm

>  <Rbt.Receptor>
prm/blind_docking_100.prm

>  <SCORE>
-14.6885

>  <SCORE.INTER>
-13.6615

>  <SCORE.INTER.CONST>
1

>  <SCORE.INTER.POLAR>
0

>  <SCORE.INTER.ROT>
5

>  <SCORE.INTER.SOLV>
6.4464

>  <SCORE.INTER.VDW>
-18.1898

>  <SCORE.INTER.norm>
-1.51794

>  <SCORE.INTRA>
-1.02699

>  <SCORE.INTRA.DIHEDRAL>
-5.82432

>  <SCORE.INTRA.DIHEDRAL.0>
7.73744

>  <SCORE.INTRA.POLAR>
0

>  <SCORE.INTRA.POLAR.0>
0

>  <SCORE.INTRA.REPUL>
0

>  <SCORE.INTRA.REPUL.0>
0

>  <SCORE.INTRA.SOLV>
1.82475

>  <SCORE.INTRA.SOLV.lig_0>
-15.8342

>  <SCORE.INTRA.VDW>
0.972794

>  <SCORE.INTRA.VDW.0>
-0.219494

>  <SCORE.INTRA.norm>
-0.11411

>  <SCORE.RESTR>
0

>  <SCORE.RESTR.CAVITY>
0

>  <SCORE.RESTR.norm>
0

>  <SCORE.SYSTEM>
0

>  <SCORE.SYSTEM.CONST>
0

>  <SCORE.SYSTEM.DIHEDRAL>
0

>  <SCORE.SYSTEM.SOLV>
0

>  <SCORE.SYSTEM.norm>
0

>  <SCORE.heavy>
9

>  <SCORE.norm>
-1.63205

>  <RMSD>
5.503

$$$$
ligand
 OpenBabel02271912143D
libRbt.so/2013.1/901 2013/11/27
  9  8  0  0  0  0  0  0  0  0999 V2000
  -50.7728   69.3637  -19.0180 C   0  0  0  0  0  0  0  0  0  0  0  0
  -51.9633   69.3892  -18.5362 O   0  0  0  0  0  0  0  0  0  0  0  0
  -49.6929   68.7039  -18.2731 C   0  0  0  0  0  0  0  0  0  0  0  0
  -50.4883   69.9401  -20.1182 O   0  0  0  0  0  0  0  0  0  0  0  0
  -49.2717   67.3696  -18.8019 C   0  0  0  0  0  0  0  0  0  0  0  0
  -48.8399   67.2890  -20.2197 C   0  0  0  0  0  0  0  0  0  0  0  0
  -47.6464   68.1628  -20.5669 C   0  0  0  0  0  0  0  0  0  0  0  0
  -47.1915   68.2773  -22.0304 C   0  0  0  0  0  0  0  0  0  0  0  0
  -46.7757   67.1259  -22.6672 N   0  0  0  0  0  0  0  0  0  0  0  0
  1  2  1  0  0  0  0
  1  3  1  0  0  0  0
  1  4  1  0  0  0  0
  3  5  1  0  0  0  0
  5  6  1  0  0  0  0
  6  7  1  0  0  0  0
  7  8  1  0  0  0  0
  8  9  1  0  0  0  0
M  END
>  <CHROM.1>
104.57678655,55.97677953,59.70115233,-173.85802944,-61.46363331,-49.22078233
68.42632418,-20.01966938,2.84815932,-0.69005020,2.21356810

>  <Name>
ligand

>  <RI>
0

>  <Rbt.Current_Directory>
/home/itssahil/PROJECTS/Mol_Feturizer/Test_systems_manuscript/rnas/4erj

>  <Rbt.Executable>
rbdock ($Id: //depot/dev/client3/rdock/2013.1/src/exe/rbdock.cxx#4 $)

>  <Rbt.Library>
libRbt.so (2013.1, Build901 2013/11/27)

>  <Rbt.Parameter_File>
/export/apps/rDock/src/rDock_2013.1_src/data/scripts/dock_solv.prm

>  <Rbt.Receptor>
prm/pocket_docking_3.prm

>  <SCORE>
-13.3092

>  <SCORE.INTER>
-10.6022

>  <SCORE.INTER.CONST>
1

>  <SCORE.INTER.POLAR>
0

>  <SCORE.INTER.ROT>
5

>  <SCORE.INTER.SOLV>
7.52846

>  <SCORE.INTER.VDW>
-16.5109

>  <SCORE.INTER.norm>
-1.17802

>  <SCORE.INTRA>
-2.70703

>  <SCORE.INTRA.DIHEDRAL>
-5.74764

>  <SCORE.INTRA.DIHEDRAL.0>
7.73744

>  <SCORE.INTRA.POLAR>
0

>  <SCORE.INTRA.POLAR.0>
0

>  <SCORE.INTRA.REPUL>
0

>  <SCORE.INTRA.REPUL.0>
0

>  <SCORE.INTRA.SOLV>
0.481573

>  <SCORE.INTRA.SOLV.lig_0>
-15.8342

>  <SCORE.INTRA.VDW>
-0.0739966

>  <SCORE.INTRA.VDW.0>
-0.219494

>  <SCORE.INTRA.norm>
-0.300781

>  <SCORE.RESTR>
0

>  <SCORE.RESTR.CAVITY>
0

>  <SCORE.RESTR.norm>
0

>  <SCORE.SYSTEM>
0

>  <SCORE.SYSTEM.CONST>
0

>  <SCORE.SYSTEM.DIHEDRAL>
0

>  <SCORE.SYSTEM.SOLV>
0

>  <SCORE.SYSTEM.norm>
0

>  <SCORE.heavy>
9

>  <SCORE.norm>
-1.4788

>  <RMSD>
5.503

$$$$
ligand
 OpenBabel02271912143D
libRbt.so/2013.1/901 2013/11/27
  9  8  0  0  0  0  0  0  0  0999 V2000
  -49.5443   68.4225  -18.3733 C   0  0  0  0  0  0  0  0  0  0  0  0
  -50.7777   68.7438  -18.5320 O   0  0  0  0  0  0  0  0  0  0  0  0
  -49.1252   67.0226  -18.5186 C   0  0  0  0  0  0  0  0  0  0  0  0
  -48.6685   69.2882  -18.0458 O   0  0  0  0  0  0  0  0  0  0  0  0
  -48.2478   66.7349  -19.6953 C   0  0  0  0  0  0  0  0  0  0  0  0
  -48.7888   67.0116  -21.0494 C   0  0  0  0  0  0  0  0  0  0  0  0
  -47.7913   66.8198  -22.1794 C   0  0  0  0  0  0  0  0  0  0  0  0
  -46.5565   67.7310  -22.2629 C   0  0  0  0  0  0  0  0  0  0  0  0
  -45.7043   67.5634  -23.3352 N   0  0  0  0  0  0  0  0  0  0  0  0
  1  2  1  0  0  0  0
  1  3  1  0  0  0  0
  1  4  1  0  0  0  0
  3  5  1  0  0  0  0
  5  6  1  0  0  0  0
  6  7  1  0  0  0  0
  7  8  1  0  0  0  0
  8  9  1  0  0  0  0
M  END
>  <CHROM.1>
112.53354822,-60.59052350,174.39596713,-64.74280312,-177.27642679,-48.37986757
67.73330984,-20.19039749,-2.40548607,-0.69086270,-2.43601699

>  <Name>
ligand

>  <RI>
0

>  <Rbt.Current_Directory>
/home/itssahil/PROJECTS/Mol_Feturizer/Test_systems_manuscript/rnas/4erj

>  <Rbt.Executable>
rbdock ($Id: //depot/dev/client3/rdock/2013.1/src/exe/rbdock.cxx#4 $)

>  <Rbt.Library>
libRbt.so (2013.1, Build901 2013/11/27)

>  <Rbt.Parameter_File>
/export/apps/rDock/src/rDock_2013.1_src/data/scripts/dock_solv.prm

>  <Rbt.Receptor>
prm/pocket_docking_4.prm

>  <SCORE>
-14.2976

>  <SCORE.INTER>
-11.1846

>  <SCORE.INTER.CONST>
1

>  <SCORE.INTER.POLAR>
0

>  <SCORE.INTER.ROT>
5

>  <SCORE.INTER.SOLV>
7.84966

>  <SCORE.INTER.VDW>
-17.0063

>  <SCORE.INTER.norm>
-1.24273

>  <SCORE.INTRA>
-3.11297

>  <SCORE.INTRA.DIHEDRAL>
-5.75942

>  <SCORE.INTRA.DIHEDRAL.0>
7.73744

>  <SCORE.INTRA.POLAR>
0

>  <SCORE.INTRA.POLAR.0>
0

>  <SCORE.INTRA.REPUL>
0

>  <SCORE.INTRA.REPUL.0>
0

>  <SCORE.INTRA.SOLV>
0.0194429

>  <SCORE.INTRA.SOLV.lig_0>
-15.8342

>  <SCORE.INTRA.VDW>
-0.24298

>  <SCORE.INTRA.VDW.0>
-0.219494

>  <SCORE.INTRA.norm>
-0.345885

>  <SCORE.RESTR>
0

>  <SCORE.RESTR.CAVITY>
0

>  <SCORE.RESTR.norm>
0

>  <SCORE.SYSTEM>
0

>  <SCORE.SYSTEM.CONST>
0

>  <SCORE.SYSTEM.DIHEDRAL>
0

>  <SCORE.SYSTEM.SOLV>
0

>  <SCORE.SYSTEM.norm>
0

>  <SCORE.heavy>
9

>  <SCORE.norm>
-1.58862

>  <RMSD>
5.504

$$$$
ligand
 OpenBabel02271912143D
libRbt.so/2013.1/901 2013/11/27
  9  8  0  0  0  0  0  0  0  0999 V2000
  -49.2405   67.6480  -18.4309 C   0  0  0  0  0  0  0  0  0  0  0  0
  -49.3569   68.4057  -17.4002 O   0  0  0  0  0  0  0  0  0  0  0  0
  -49.7828   68.0801  -19.7253 C   0  0  0  0  0  0  0  0  0  0  0  0
  -48.6994   66.4971  -18.3523 O   0  0  0  0  0  0  0  0  0  0  0  0
  -48.7765   68.2426  -20.8199 C   0  0  0  0  0  0  0  0  0  0  0  0
  -48.1266   67.0194  -21.3533 C   0  0  0  0  0  0  0  0  0  0  0  0
  -47.0002   67.2813  -22.3388 C   0  0  0  0  0  0  0  0  0  0  0  0
  -47.2845   68.0829  -23.6188 C   0  0  0  0  0  0  0  0  0  0  0  0
  -46.2304   68.3198  -24.4773 N   0  0  0  0  0  0  0  0  0  0  0  0
  1  2  1  0  0  0  0
  1  3  1  0  0  0  0
  1  4  1  0  0  0  0
  3  5  1  0  0  0  0
  5  6  1  0  0  0  0
  6  7  1  0  0  0  0
  7  8  1  0  0  0  0
  8  9  1  0  0  0  0
M  END
>  <CHROM.1>
118.19553329,68.85609007,-172.91656378,-58.25141061,178.88466709,-48.28581373
67.72336992,-20.67189007,2.30522820,-0.92047087,2.24155947

>  <Name>
ligand

>  <RI>
0

>  <Rbt.Current_Directory>
/home/itssahil/PROJECTS/Mol_Feturizer/Test_systems_manuscript/rnas/4erj

>  <Rbt.Executable>
rbdock ($Id: //depot/dev/client3/rdock/2013.1/src/exe/rbdock.cxx#4 $)

>  <Rbt.Library>
libRbt.so (2013.1, Build901 2013/11/27)

>  <Rbt.Parameter_File>
/export/apps/rDock/src/rDock_2013.1_src/data/scripts/dock_solv.prm

>  <Rbt.Receptor>
prm/pocket_docking_7.prm

>  <SCORE>
-12.4184

>  <SCORE.INTER>
-9.69297

>  <SCORE.INTER.CONST>
1

>  <SCORE.INTER.POLAR>
0

>  <SCORE.INTER.ROT>
5

>  <SCORE.INTER.SOLV>
7.58518

>  <SCORE.INTER.VDW>
-15.9237

>  <SCORE.INTER.norm>
-1.077

>  <SCORE.INTRA>
-2.72542

>  <SCORE.INTRA.DIHEDRAL>
-5.49324

>  <SCORE.INTRA.DIHEDRAL.0>
7.73744

>  <SCORE.INTRA.POLAR>
0

>  <SCORE.INTRA.POLAR.0>
0

>  <SCORE.INTRA.REPUL>
0

>  <SCORE.INTRA.REPUL.0>
0

>  <SCORE.INTRA.SOLV>
0.0648568

>  <SCORE.INTRA.SOLV.lig_0>
-15.8342

>  <SCORE.INTRA.VDW>
-0.0112256

>  <SCORE.INTRA.VDW.0>
-0.219494

>  <SCORE.INTRA.norm>
-0.302824

>  <SCORE.RESTR>
0

>  <SCORE.RESTR.CAVITY>
0

>  <SCORE.RESTR.norm>
0

>  <SCORE.SYSTEM>
0

>  <SCORE.SYSTEM.CONST>
0

>  <SCORE.SYSTEM.DIHEDRAL>
0

>  <SCORE.SYSTEM.SOLV>
0

>  <SCORE.SYSTEM.norm>
0

>  <SCORE.heavy>
9

>  <SCORE.norm>
-1.37982

>  <RMSD>
5.506

$$$$
ligand
 OpenBabel02271912143D
libRbt.so/2013.1/901 2013/11/27
  9  8  0  0  0  0  0  0  0  0999 V2000
  -50.8960   70.3225  -19.5167 C   0  0  0  0  0  0  0  0  0  0  0  0
  -51.8925   70.0269  -18.7621 O   0  0  0  0  0  0  0  0  0  0  0  0
  -49.6680   69.5193  -19.4602 C   0  0  0  0  0  0  0  0  0  0  0  0
  -50.9262   71.3330  -20.2924 O   0  0  0  0  0  0  0  0  0  0  0  0
  -49.8660   68.0649  -19.1722 C   0  0  0  0  0  0  0  0  0  0  0  0
  -48.6649   67.1936  -19.1388 C   0  0  0  0  0  0  0  0  0  0  0  0
  -47.9911   66.9951  -20.4861 C   0  0  0  0  0  0  0  0  0  0  0  0
  -47.2973   68.1844  -21.1688 C   0  0  0  0  0  0  0  0  0  0  0  0
  -46.6853   67.9609  -22.3852 N   0  0  0  0  0  0  0  0  0  0  0  0
  1  2  1  0  0  0  0
  1  3  1  0  0  0  0
  1  4  1  0  0  0  0
  3  5  1  0  0  0  0
  5  6  1  0  0  0  0
  6  7  1  0  0  0  0
  7  8  1  0  0  0  0
  8  9  1  0  0  0  0
M  END
>  <CHROM.1>
33.28185684,178.37389441,-68.31564953,67.41883918,179.36896494,-49.36073269
68.87790144,-20.03454606,-2.90325612,-0.67683403,2.51218936

>  <Name>
ligand

>  <RI>
0

>  <Rbt.Current_Directory>
/home/itssahil/PROJECTS/Mol_Feturizer/Test_systems_manuscript/rnas/4erj

>  <Rbt.Executable>
rbdock ($Id: //depot/dev/client3/rdock/2013.1/src/exe/rbdock.cxx#4 $)

>  <Rbt.Library>
libRbt.so (2013.1, Build901 2013/11/27)

>  <Rbt.Parameter_File>
/export/apps/rDock/src/rDock_2013.1_src/data/scripts/dock_solv.prm

>  <Rbt.Receptor>
prm/blind_docking_100.prm

>  <SCORE>
-14.0732

>  <SCORE.INTER>
-11.9638

>  <SCORE.INTER.CONST>
1

>  <SCORE.INTER.POLAR>
0

>  <SCORE.INTER.ROT>
5

>  <SCORE.INTER.SOLV>
6.45215

>  <SCORE.INTER.VDW>
-17.0599

>  <SCORE.INTER.norm>
-1.32931

>  <SCORE.INTRA>
-2.10942

>  <SCORE.INTRA.DIHEDRAL>
-5.63143

>  <SCORE.INTRA.DIHEDRAL.0>
7.73744

>  <SCORE.INTRA.POLAR>
0

>  <SCORE.INTRA.POLAR.0>
0

>  <SCORE.INTRA.REPUL>
0

>  <SCORE.INTRA.REPUL.0>
0

>  <SCORE.INTRA.SOLV>
0.19888

>  <SCORE.INTRA.SOLV.lig_0>
-15.8342

>  <SCORE.INTRA.VDW>
0.606855

>  <SCORE.INTRA.VDW.0>
-0.219494

>  <SCORE.INTRA.norm>
-0.23438

>  <SCORE.RESTR>
0

>  <SCORE.RESTR.CAVITY>
0

>  <SCORE.RESTR.norm>
0

>  <SCORE.SYSTEM>
0

>  <SCORE.SYSTEM.CONST>
0

>  <SCORE.SYSTEM.DIHEDRAL>
0

>  <SCORE.SYSTEM.SOLV>
0

>  <SCORE.SYSTEM.norm>
0

>  <SCORE.heavy>
9

>  <SCORE.norm>
-1.56369

>  <RMSD>
5.507

$$$$
ligand
 OpenBabel02271912143D
libRbt.so/2013.1/901 2013/11/27
  9  8  0  0  0  0  0  0  0  0999 V2000
  -50.9314   70.3567  -19.5347 C   0  0  0  0  0  0  0  0  0  0  0  0
  -52.0489   70.0334  -18.9901 O   0  0  0  0  0  0  0  0  0  0  0  0
  -49.7485   69.5077  -19.3440 C   0  0  0  0  0  0  0  0  0  0  0  0
  -50.8065   71.4307  -20.2088 O   0  0  0  0  0  0  0  0  0  0  0  0
  -49.9795   68.2520  -18.5648 C   0  0  0  0  0  0  0  0  0  0  0  0
  -48.8576   67.2865  -18.4547 C   0  0  0  0  0  0  0  0  0  0  0  0
  -48.4834   66.6019  -19.7586 C   0  0  0  0  0  0  0  0  0  0  0  0
  -47.8429   67.4231  -20.8888 C   0  0  0  0  0  0  0  0  0  0  0  0
  -47.4613   66.7541  -22.0338 N   0  0  0  0  0  0  0  0  0  0  0  0
  1  2  1  0  0  0  0
  1  3  1  0  0  0  0
  1  4  1  0  0  0  0
  3  5  1  0  0  0  0
  5  6  1  0  0  0  0
  6  7  1  0  0  0  0
  7  8  1  0  0  0  0
  8  9  1  0  0  0  0
M  END
>  <CHROM.1>
3.41551551,173.96220788,-67.97873586,68.34341807,177.09189728,-49.60939207
68.66524548,-19.75149392,-2.85788643,-0.83014696,2.27244712

>  <Name>
ligand

>  <RI>
0

>  <Rbt.Current_Directory>
/home/itssahil/PROJECTS/Mol_Feturizer/Test_systems_manuscript/rnas/4erj

>  <Rbt.Executable>
rbdock ($Id: //depot/dev/client3/rdock/2013.1/src/exe/rbdock.cxx#4 $)

>  <Rbt.Library>
libRbt.so (2013.1, Build901 2013/11/27)

>  <Rbt.Parameter_File>
/export/apps/rDock/src/rDock_2013.1_src/data/scripts/dock_solv.prm

>  <Rbt.Receptor>
prm/pocket_docking_7.prm

>  <SCORE>
-14.0811

>  <SCORE.INTER>
-12.3805

>  <SCORE.INTER.CONST>
1

>  <SCORE.INTER.POLAR>
0

>  <SCORE.INTER.ROT>
5

>  <SCORE.INTER.SOLV>
9.1093

>  <SCORE.INTER.VDW>
-18.2234

>  <SCORE.INTER.norm>
-1.37561

>  <SCORE.INTRA>
-1.70063

>  <SCORE.INTRA.DIHEDRAL>
-5.33525

>  <SCORE.INTRA.DIHEDRAL.0>
7.73744

>  <SCORE.INTRA.POLAR>
0

>  <SCORE.INTRA.POLAR.0>
0

>  <SCORE.INTRA.REPUL>
0

>  <SCORE.INTRA.REPUL.0>
0

>  <SCORE.INTRA.SOLV>
0.171097

>  <SCORE.INTRA.SOLV.lig_0>
-15.8342

>  <SCORE.INTRA.VDW>
0.881447

>  <SCORE.INTRA.VDW.0>
-0.219494

>  <SCORE.INTRA.norm>
-0.188959

>  <SCORE.RESTR>
0

>  <SCORE.RESTR.CAVITY>
0

>  <SCORE.RESTR.norm>
0

>  <SCORE.SYSTEM>
0

>  <SCORE.SYSTEM.CONST>
0

>  <SCORE.SYSTEM.DIHEDRAL>
0

>  <SCORE.SYSTEM.SOLV>
0

>  <SCORE.SYSTEM.norm>
0

>  <SCORE.heavy>
9

>  <SCORE.norm>
-1.56457

>  <RMSD>
5.510

$$$$
ligand
 OpenBabel02271912143D
libRbt.so/2013.1/901 2013/11/27
  9  8  0  0  0  0  0  0  0  0999 V2000
  -49.5404   68.4051  -18.3969 C   0  0  0  0  0  0  0  0  0  0  0  0
  -50.7792   68.7151  -18.5354 O   0  0  0  0  0  0  0  0  0  0  0  0
  -49.1082   67.0121  -18.5680 C   0  0  0  0  0  0  0  0  0  0  0  0
  -48.6699   69.2755  -18.0679 O   0  0  0  0  0  0  0  0  0  0  0  0
  -48.2047   66.7598  -19.7331 C   0  0  0  0  0  0  0  0  0  0  0  0
  -48.7308   67.0372  -21.0930 C   0  0  0  0  0  0  0  0  0  0  0  0
  -47.7351   66.7996  -22.2159 C   0  0  0  0  0  0  0  0  0  0  0  0
  -46.4925   67.6967  -22.3291 C   0  0  0  0  0  0  0  0  0  0  0  0
  -45.6614   67.5111  -23.4149 N   0  0  0  0  0  0  0  0  0  0  0  0
  1  2  1  0  0  0  0
  1  3  1  0  0  0  0
  1  4  1  0  0  0  0
  3  5  1  0  0  0  0
  5  6  1  0  0  0  0
  6  7  1  0  0  0  0
  7  8  1  0  0  0  0
  8  9  1  0  0  0  0
M  END
>  <CHROM.1>
114.53729449,-61.94608506,178.02205764,-66.55350919,-175.53714395,-48.34907515
67.71921869,-20.23007724,-2.40116630,-0.68057826,-2.42790691

>  <Name>
ligand

>  <RI>
0

>  <Rbt.Current_Directory>
/home/itssahil/PROJECTS/Mol_Feturizer/Test_systems_manuscript/rnas/4erj

>  <Rbt.Executable>
rbdock ($Id: //depot/dev/client3/rdock/2013.1/src/exe/rbdock.cxx#4 $)

>  <Rbt.Library>
libRbt.so (2013.1, Build901 2013/11/27)

>  <Rbt.Parameter_File>
/export/apps/rDock/src/rDock_2013.1_src/data/scripts/dock_solv.prm

>  <Rbt.Receptor>
prm/pocket_docking_5.prm

>  <SCORE>
-14.3357

>  <SCORE.INTER>
-11.2293

>  <SCORE.INTER.CONST>
1

>  <SCORE.INTER.POLAR>
0

>  <SCORE.INTER.ROT>
5

>  <SCORE.INTER.SOLV>
7.86493

>  <SCORE.INTER.VDW>
-17.0412

>  <SCORE.INTER.norm>
-1.2477

>  <SCORE.INTRA>
-3.10638

>  <SCORE.INTRA.DIHEDRAL>
-5.73762

>  <SCORE.INTRA.DIHEDRAL.0>
7.73744

>  <SCORE.INTRA.POLAR>
0

>  <SCORE.INTRA.POLAR.0>
0

>  <SCORE.INTRA.REPUL>
0

>  <SCORE.INTRA.REPUL.0>
0

>  <SCORE.INTRA.SOLV>
0.00468007

>  <SCORE.INTRA.SOLV.lig_0>
-15.8342

>  <SCORE.INTRA.VDW>
-0.239906

>  <SCORE.INTRA.VDW.0>
-0.219494

>  <SCORE.INTRA.norm>
-0.345153

>  <SCORE.RESTR>
0

>  <SCORE.RESTR.CAVITY>
0

>  <SCORE.RESTR.norm>
0

>  <SCORE.SYSTEM>
0

>  <SCORE.SYSTEM.CONST>
0

>  <SCORE.SYSTEM.DIHEDRAL>
0

>  <SCORE.SYSTEM.SOLV>
0

>  <SCORE.SYSTEM.norm>
0

>  <SCORE.heavy>
9

>  <SCORE.norm>
-1.59286

>  <RMSD>
5.515

$$$$
ligand
 OpenBabel02271912143D
libRbt.so/2013.1/901 2013/11/27
  9  8  0  0  0  0  0  0  0  0999 V2000
  -49.3127   67.8609  -18.1959 C   0  0  0  0  0  0  0  0  0  0  0  0
  -49.4133   67.0528  -17.2025 O   0  0  0  0  0  0  0  0  0  0  0  0
  -49.4563   67.3591  -19.5684 C   0  0  0  0  0  0  0  0  0  0  0  0
  -49.0448   69.0948  -18.0248 O   0  0  0  0  0  0  0  0  0  0  0  0
  -48.2033   67.3595  -20.3855 C   0  0  0  0  0  0  0  0  0  0  0  0
  -48.2614   66.7706  -21.7466 C   0  0  0  0  0  0  0  0  0  0  0  0
  -46.9616   66.8584  -22.5287 C   0  0  0  0  0  0  0  0  0  0  0  0
  -46.5004   68.2161  -23.0817 C   0  0  0  0  0  0  0  0  0  0  0  0
  -47.3081   68.8410  -24.0098 N   0  0  0  0  0  0  0  0  0  0  0  0
  1  2  1  0  0  0  0
  1  3  1  0  0  0  0
  1  4  1  0  0  0  0
  3  5  1  0  0  0  0
  5  6  1  0  0  0  0
  6  7  1  0  0  0  0
  7  8  1  0  0  0  0
  8  9  1  0  0  0  0
M  END
>  <CHROM.1>
-110.49141353,175.54067580,177.78701629,-72.56038095,-62.25009232,-48.28678678
67.72118199,-20.47350999,-3.00443013,-1.16576552,-2.96703794

>  <Name>
ligand

>  <RI>
0

>  <Rbt.Current_Directory>
/home/itssahil/PROJECTS/Mol_Feturizer/Test_systems_manuscript/rnas/4erj

>  <Rbt.Executable>
rbdock ($Id: //depot/dev/client3/rdock/2013.1/src/exe/rbdock.cxx#4 $)

>  <Rbt.Library>
libRbt.so (2013.1, Build901 2013/11/27)

>  <Rbt.Parameter_File>
/export/apps/rDock/src/rDock_2013.1_src/data/scripts/dock_solv.prm

>  <Rbt.Receptor>
prm/pocket_docking_5.prm

>  <SCORE>
-12.682

>  <SCORE.INTER>
-10.1604

>  <SCORE.INTER.CONST>
1

>  <SCORE.INTER.POLAR>
0

>  <SCORE.INTER.ROT>
5

>  <SCORE.INTER.SOLV>
7.92307

>  <SCORE.INTER.VDW>
-16.348

>  <SCORE.INTER.norm>
-1.12894

>  <SCORE.INTRA>
-2.52163

>  <SCORE.INTRA.DIHEDRAL>
-5.33921

>  <SCORE.INTRA.DIHEDRAL.0>
7.73744

>  <SCORE.INTRA.POLAR>
0

>  <SCORE.INTRA.POLAR.0>
0

>  <SCORE.INTRA.REPUL>
0

>  <SCORE.INTRA.REPUL.0>
0

>  <SCORE.INTRA.SOLV>
0.930945

>  <SCORE.INTRA.SOLV.lig_0>
-15.8342

>  <SCORE.INTRA.VDW>
-0.317494

>  <SCORE.INTRA.VDW.0>
-0.219494

>  <SCORE.INTRA.norm>
-0.280181

>  <SCORE.RESTR>
0

>  <SCORE.RESTR.CAVITY>
0

>  <SCORE.RESTR.norm>
0

>  <SCORE.SYSTEM>
0

>  <SCORE.SYSTEM.CONST>
0

>  <SCORE.SYSTEM.DIHEDRAL>
0

>  <SCORE.SYSTEM.SOLV>
0

>  <SCORE.SYSTEM.norm>
0

>  <SCORE.heavy>
9

>  <SCORE.norm>
-1.40912

>  <RMSD>
5.519

$$$$
ligand
 OpenBabel02271912143D
libRbt.so/2013.1/901 2013/11/27
  9  8  0  0  0  0  0  0  0  0999 V2000
  -49.6579   68.2307  -18.5606 C   0  0  0  0  0  0  0  0  0  0  0  0
  -50.4056   68.7719  -19.4538 O   0  0  0  0  0  0  0  0  0  0  0  0
  -49.0483   66.9182  -18.8098 C   0  0  0  0  0  0  0  0  0  0  0  0
  -49.4622   68.7872  -17.4312 O   0  0  0  0  0  0  0  0  0  0  0  0
  -48.1021   66.8601  -19.9669 C   0  0  0  0  0  0  0  0  0  0  0  0
  -48.6360   67.1689  -21.3169 C   0  0  0  0  0  0  0  0  0  0  0  0
  -47.6456   66.9613  -22.4503 C   0  0  0  0  0  0  0  0  0  0  0  0
  -46.3651   67.8095  -22.5025 C   0  0  0  0  0  0  0  0  0  0  0  0
  -45.5126   67.6230  -23.5714 N   0  0  0  0  0  0  0  0  0  0  0  0
  1  2  1  0  0  0  0
  1  3  1  0  0  0  0
  1  4  1  0  0  0  0
  3  5  1  0  0  0  0
  5  6  1  0  0  0  0
  6  7  1  0  0  0  0
  7  8  1  0  0  0  0
  8  9  1  0  0  0  0
M  END
>  <CHROM.1>
61.95774749,-61.45803466,-174.54147623,-63.02666615,-177.86312897,-48.34419777
67.70638701,-20.41889784,2.45391265,-0.72246795,2.06072619

>  <Name>
ligand

>  <RI>
0

>  <Rbt.Current_Directory>
/home/itssahil/PROJECTS/Mol_Feturizer/Test_systems_manuscript/rnas/4erj

>  <Rbt.Executable>
rbdock ($Id: //depot/dev/client3/rdock/2013.1/src/exe/rbdock.cxx#4 $)

>  <Rbt.Library>
libRbt.so (2013.1, Build901 2013/11/27)

>  <Rbt.Parameter_File>
/export/apps/rDock/src/rDock_2013.1_src/data/scripts/dock_solv.prm

>  <Rbt.Receptor>
prm/pocket_docking_7.prm

>  <SCORE>
-13.313

>  <SCORE.INTER>
-10.3919

>  <SCORE.INTER.CONST>
1

>  <SCORE.INTER.POLAR>
0

>  <SCORE.INTER.ROT>
5

>  <SCORE.INTER.SOLV>
7.79207

>  <SCORE.INTER.VDW>
-16.4586

>  <SCORE.INTER.norm>
-1.15465

>  <SCORE.INTRA>
-2.92116

>  <SCORE.INTRA.DIHEDRAL>
-5.86451

>  <SCORE.INTRA.DIHEDRAL.0>
7.73744

>  <SCORE.INTRA.POLAR>
0

>  <SCORE.INTRA.POLAR.0>
0

>  <SCORE.INTRA.REPUL>
0

>  <SCORE.INTRA.REPUL.0>
0

>  <SCORE.INTRA.SOLV>
0.0294028

>  <SCORE.INTRA.SOLV.lig_0>
-15.8342

>  <SCORE.INTRA.VDW>
-0.00360122

>  <SCORE.INTRA.VDW.0>
-0.219494

>  <SCORE.INTRA.norm>
-0.324573

>  <SCORE.RESTR>
0

>  <SCORE.RESTR.CAVITY>
0

>  <SCORE.RESTR.norm>
0

>  <SCORE.SYSTEM>
0

>  <SCORE.SYSTEM.CONST>
0

>  <SCORE.SYSTEM.DIHEDRAL>
0

>  <SCORE.SYSTEM.SOLV>
0

>  <SCORE.SYSTEM.norm>
0

>  <SCORE.heavy>
9

>  <SCORE.norm>
-1.47923

>  <RMSD>
5.520

$$$$
ligand
 OpenBabel02271912143D
libRbt.so/2013.1/901 2013/11/27
  9  8  0  0  0  0  0  0  0  0999 V2000
  -49.6980   68.1922  -18.5388 C   0  0  0  0  0  0  0  0  0  0  0  0
  -49.3711   68.8710  -17.4985 O   0  0  0  0  0  0  0  0  0  0  0  0
  -49.0552   66.8988  -18.8039 C   0  0  0  0  0  0  0  0  0  0  0  0
  -50.5441   68.6347  -19.3826 O   0  0  0  0  0  0  0  0  0  0  0  0
  -48.0977   66.8823  -19.9529 C   0  0  0  0  0  0  0  0  0  0  0  0
  -48.6358   67.1527  -21.3095 C   0  0  0  0  0  0  0  0  0  0  0  0
  -47.6349   66.9583  -22.4361 C   0  0  0  0  0  0  0  0  0  0  0  0
  -46.3510   67.8026  -22.4630 C   0  0  0  0  0  0  0  0  0  0  0  0
  -45.5146   67.6676  -23.5522 N   0  0  0  0  0  0  0  0  0  0  0  0
  1  2  1  0  0  0  0
  1  3  1  0  0  0  0
  1  4  1  0  0  0  0
  3  5  1  0  0  0  0
  5  6  1  0  0  0  0
  6  7  1  0  0  0  0
  7  8  1  0  0  0  0
  8  9  1  0  0  0  0
M  END
>  <CHROM.1>
-108.68246548,-63.62408853,-173.20029177,-60.33277570,-175.36144583,-48.35163167
67.69842638,-20.40541276,-2.23549252,-0.30645420,-1.98599530

>  <Name>
ligand

>  <RI>
0

>  <Rbt.Current_Directory>
/home/itssahil/PROJECTS/Mol_Feturizer/Test_systems_manuscript/rnas/4erj

>  <Rbt.Executable>
rbdock ($Id: //depot/dev/client3/rdock/2013.1/src/exe/rbdock.cxx#4 $)

>  <Rbt.Library>
libRbt.so (2013.1, Build901 2013/11/27)

>  <Rbt.Parameter_File>
/export/apps/rDock/src/rDock_2013.1_src/data/scripts/dock_solv.prm

>  <Rbt.Receptor>
prm/pocket_docking_3.prm

>  <SCORE>
-13.3468

>  <SCORE.INTER>
-10.4216

>  <SCORE.INTER.CONST>
1

>  <SCORE.INTER.POLAR>
0

>  <SCORE.INTER.ROT>
5

>  <SCORE.INTER.SOLV>
7.8929

>  <SCORE.INTER.VDW>
-16.512

>  <SCORE.INTER.norm>
-1.15796

>  <SCORE.INTRA>
-2.92517

>  <SCORE.INTRA.DIHEDRAL>
-5.78027

>  <SCORE.INTRA.DIHEDRAL.0>
7.73744

>  <SCORE.INTRA.POLAR>
0

>  <SCORE.INTRA.POLAR.0>
0

>  <SCORE.INTRA.REPUL>
0

>  <SCORE.INTRA.REPUL.0>
0

>  <SCORE.INTRA.SOLV>
0.0334252

>  <SCORE.INTRA.SOLV.lig_0>
-15.8342

>  <SCORE.INTRA.VDW>
-0.051751

>  <SCORE.INTRA.VDW.0>
-0.219494

>  <SCORE.INTRA.norm>
-0.325019

>  <SCORE.RESTR>
0

>  <SCORE.RESTR.CAVITY>
0

>  <SCORE.RESTR.norm>
0

>  <SCORE.SYSTEM>
0

>  <SCORE.SYSTEM.CONST>
0

>  <SCORE.SYSTEM.DIHEDRAL>
0

>  <SCORE.SYSTEM.SOLV>
0

>  <SCORE.SYSTEM.norm>
0

>  <SCORE.heavy>
9

>  <SCORE.norm>
-1.48298

>  <RMSD>
5.522

$$$$
ligand
 OpenBabel02271912143D
libRbt.so/2013.1/901 2013/11/27
  9  8  0  0  0  0  0  0  0  0999 V2000
  -50.9470   70.4054  -19.5321 C   0  0  0  0  0  0  0  0  0  0  0  0
  -50.8934   71.3978  -20.3459 O   0  0  0  0  0  0  0  0  0  0  0  0
  -49.7706   69.5475  -19.3412 C   0  0  0  0  0  0  0  0  0  0  0  0
  -52.0197   70.1132  -18.9097 O   0  0  0  0  0  0  0  0  0  0  0  0
  -50.0320   68.2445  -18.6547 C   0  0  0  0  0  0  0  0  0  0  0  0
  -48.8951   67.3041  -18.4932 C   0  0  0  0  0  0  0  0  0  0  0  0
  -48.3581   66.7331  -19.7949 C   0  0  0  0  0  0  0  0  0  0  0  0
  -47.6499   67.6613  -20.7942 C   0  0  0  0  0  0  0  0  0  0  0  0
  -47.1106   67.0926  -21.9301 N   0  0  0  0  0  0  0  0  0  0  0  0
  1  2  1  0  0  0  0
  1  3  1  0  0  0  0
  1  4  1  0  0  0  0
  3  5  1  0  0  0  0
  5  6  1  0  0  0  0
  6  7  1  0  0  0  0
  7  8  1  0  0  0  0
  8  9  1  0  0  0  0
M  END
>  <CHROM.1>
-165.28257534,177.00613154,-66.37765132,67.30145346,176.46929079,-49.55714958
68.75855264,-19.75435453,-2.82850713,-0.74943602,2.34512882

>  <Name>
ligand

>  <RI>
0

>  <Rbt.Current_Directory>
/home/itssahil/PROJECTS/Mol_Feturizer/Test_systems_manuscript/rnas/4erj

>  <Rbt.Executable>
rbdock ($Id: //depot/dev/client3/rdock/2013.1/src/exe/rbdock.cxx#4 $)

>  <Rbt.Library>
libRbt.so (2013.1, Build901 2013/11/27)

>  <Rbt.Parameter_File>
/export/apps/rDock/src/rDock_2013.1_src/data/scripts/dock_solv.prm

>  <Rbt.Receptor>
prm/pocket_docking_8.prm

>  <SCORE>
-13.9985

>  <SCORE.INTER>
-12.4363

>  <SCORE.INTER.CONST>
1

>  <SCORE.INTER.POLAR>
0

>  <SCORE.INTER.ROT>
5

>  <SCORE.INTER.SOLV>
7.70778

>  <SCORE.INTER.VDW>
-17.7934

>  <SCORE.INTER.norm>
-1.38181

>  <SCORE.INTRA>
-1.56219

>  <SCORE.INTRA.DIHEDRAL>
-5.51727

>  <SCORE.INTRA.DIHEDRAL.0>
7.73744

>  <SCORE.INTRA.POLAR>
0

>  <SCORE.INTRA.POLAR.0>
0

>  <SCORE.INTRA.REPUL>
0

>  <SCORE.INTRA.REPUL.0>
0

>  <SCORE.INTRA.SOLV>
0.194151

>  <SCORE.INTRA.SOLV.lig_0>
-15.8342

>  <SCORE.INTRA.VDW>
1.09937

>  <SCORE.INTRA.VDW.0>
-0.219494

>  <SCORE.INTRA.norm>
-0.173577

>  <SCORE.RESTR>
0

>  <SCORE.RESTR.CAVITY>
0

>  <SCORE.RESTR.norm>
0

>  <SCORE.SYSTEM>
0

>  <SCORE.SYSTEM.CONST>
0

>  <SCORE.SYSTEM.DIHEDRAL>
0

>  <SCORE.SYSTEM.SOLV>
0

>  <SCORE.SYSTEM.norm>
0

>  <SCORE.heavy>
9

>  <SCORE.norm>
-1.55538

>  <RMSD>
5.522

$$$$
ligand
 OpenBabel02271912143D
libRbt.so/2013.1/901 2013/11/27
  9  8  0  0  0  0  0  0  0  0999 V2000
  -50.6684   70.6762  -19.7948 C   0  0  0  0  0  0  0  0  0  0  0  0
  -50.8940   71.8012  -20.3723 O   0  0  0  0  0  0  0  0  0  0  0  0
  -49.4714   69.8995  -20.1416 C   0  0  0  0  0  0  0  0  0  0  0  0
  -51.4869   70.1867  -18.9498 O   0  0  0  0  0  0  0  0  0  0  0  0
  -49.4729   68.4777  -19.6768 C   0  0  0  0  0  0  0  0  0  0  0  0
  -48.3988   67.5828  -20.1753 C   0  0  0  0  0  0  0  0  0  0  0  0
  -48.4667   67.2827  -21.6632 C   0  0  0  0  0  0  0  0  0  0  0  0
  -47.2763   66.5982  -22.3532 C   0  0  0  0  0  0  0  0  0  0  0  0
  -46.0806   67.2851  -22.4054 N   0  0  0  0  0  0  0  0  0  0  0  0
  1  2  1  0  0  0  0
  1  3  1  0  0  0  0
  1  4  1  0  0  0  0
  3  5  1  0  0  0  0
  5  6  1  0  0  0  0
  6  7  1  0  0  0  0
  7  8  1  0  0  0  0
  8  9  1  0  0  0  0
M  END
>  <CHROM.1>
-165.55219528,170.51573964,-67.23254877,168.34006014,-64.61469352,-49.17476628
68.90287678,-20.59797812,-2.72027590,-0.77942631,2.68796639

>  <Name>
ligand

>  <RI>
0

>  <Rbt.Current_Directory>
/home/itssahil/PROJECTS/Mol_Feturizer/Test_systems_manuscript/rnas/4erj

>  <Rbt.Executable>
rbdock ($Id: //depot/dev/client3/rdock/2013.1/src/exe/rbdock.cxx#4 $)

>  <Rbt.Library>
libRbt.so (2013.1, Build901 2013/11/27)

>  <Rbt.Parameter_File>
/export/apps/rDock/src/rDock_2013.1_src/data/scripts/dock_solv.prm

>  <Rbt.Receptor>
prm/pocket_docking_7.prm

>  <SCORE>
-12.0523

>  <SCORE.INTER>
-10.5263

>  <SCORE.INTER.CONST>
1

>  <SCORE.INTER.POLAR>
0

>  <SCORE.INTER.ROT>
5

>  <SCORE.INTER.SOLV>
6.85609

>  <SCORE.INTER.VDW>
-16.2362

>  <SCORE.INTER.norm>
-1.16958

>  <SCORE.INTRA>
-1.52604

>  <SCORE.INTRA.DIHEDRAL>
-4.77346

>  <SCORE.INTRA.DIHEDRAL.0>
7.73744

>  <SCORE.INTRA.POLAR>
0

>  <SCORE.INTRA.POLAR.0>
0

>  <SCORE.INTRA.REPUL>
0

>  <SCORE.INTRA.REPUL.0>
0

>  <SCORE.INTRA.SOLV>
0.540738

>  <SCORE.INTRA.SOLV.lig_0>
-15.8342

>  <SCORE.INTRA.VDW>
0.590321

>  <SCORE.INTRA.VDW.0>
-0.219494

>  <SCORE.INTRA.norm>
-0.16956

>  <SCORE.RESTR>
0

>  <SCORE.RESTR.CAVITY>
0

>  <SCORE.RESTR.norm>
0

>  <SCORE.SYSTEM>
0

>  <SCORE.SYSTEM.CONST>
0

>  <SCORE.SYSTEM.DIHEDRAL>
0

>  <SCORE.SYSTEM.SOLV>
0

>  <SCORE.SYSTEM.norm>
0

>  <SCORE.heavy>
9

>  <SCORE.norm>
-1.33914

>  <RMSD>
5.526

$$$$
ligand
 OpenBabel02271912143D
libRbt.so/2013.1/901 2013/11/27
  9  8  0  0  0  0  0  0  0  0999 V2000
  -50.9139   70.4156  -19.5037 C   0  0  0  0  0  0  0  0  0  0  0  0
  -52.0058   70.1041  -18.9032 O   0  0  0  0  0  0  0  0  0  0  0  0
  -49.7314   69.5550  -19.3715 C   0  0  0  0  0  0  0  0  0  0  0  0
  -50.8123   71.4875  -20.1850 O   0  0  0  0  0  0  0  0  0  0  0  0
  -49.9785   68.2170  -18.7501 C   0  0  0  0  0  0  0  0  0  0  0  0
  -48.8340   67.2779  -18.6447 C   0  0  0  0  0  0  0  0  0  0  0  0
  -48.2919   66.7910  -19.9781 C   0  0  0  0  0  0  0  0  0  0  0  0
  -47.5823   67.7814  -20.9147 C   0  0  0  0  0  0  0  0  0  0  0  0
  -47.0616   67.2911  -22.0948 N   0  0  0  0  0  0  0  0  0  0  0  0
  1  2  1  0  0  0  0
  1  3  1  0  0  0  0
  1  4  1  0  0  0  0
  3  5  1  0  0  0  0
  5  6  1  0  0  0  0
  6  7  1  0  0  0  0
  7  8  1  0  0  0  0
  8  9  1  0  0  0  0
M  END
>  <CHROM.1>
11.71270463,177.31003273,-65.65522575,67.73256591,177.71822422,-49.50536553
68.80570391,-19.81237941,-2.82445718,-0.74367049,2.41862113

>  <Name>
ligand

>  <RI>
0

>  <Rbt.Current_Directory>
/home/itssahil/PROJECTS/Mol_Feturizer/Test_systems_manuscript/rnas/4erj

>  <Rbt.Executable>
rbdock ($Id: //depot/dev/client3/rdock/2013.1/src/exe/rbdock.cxx#4 $)

>  <Rbt.Library>
libRbt.so (2013.1, Build901 2013/11/27)

>  <Rbt.Parameter_File>
/export/apps/rDock/src/rDock_2013.1_src/data/scripts/dock_solv.prm

>  <Rbt.Receptor>
prm/pocket_docking_7.prm

>  <SCORE>
-14.0206

>  <SCORE.INTER>
-12.2434

>  <SCORE.INTER.CONST>
1

>  <SCORE.INTER.POLAR>
0

>  <SCORE.INTER.ROT>
5

>  <SCORE.INTER.SOLV>
7.21743

>  <SCORE.INTER.VDW>
-17.5014

>  <SCORE.INTER.norm>
-1.36038

>  <SCORE.INTRA>
-1.77718

>  <SCORE.INTRA.DIHEDRAL>
-5.67981

>  <SCORE.INTRA.DIHEDRAL.0>
7.73744

>  <SCORE.INTRA.POLAR>
0

>  <SCORE.INTRA.POLAR.0>
0

>  <SCORE.INTRA.REPUL>
0

>  <SCORE.INTRA.REPUL.0>
0

>  <SCORE.INTRA.SOLV>
0.208127

>  <SCORE.INTRA.SOLV.lig_0>
-15.8342

>  <SCORE.INTRA.VDW>
0.95866

>  <SCORE.INTRA.VDW.0>
-0.219494

>  <SCORE.INTRA.norm>
-0.197464

>  <SCORE.RESTR>
0

>  <SCORE.RESTR.CAVITY>
0

>  <SCORE.RESTR.norm>
0

>  <SCORE.SYSTEM>
0

>  <SCORE.SYSTEM.CONST>
0

>  <SCORE.SYSTEM.DIHEDRAL>
0

>  <SCORE.SYSTEM.SOLV>
0

>  <SCORE.SYSTEM.norm>
0

>  <SCORE.heavy>
9

>  <SCORE.norm>
-1.55784

>  <RMSD>
5.527

$$$$
ligand
 OpenBabel02271912143D
libRbt.so/2013.1/901 2013/11/27
  9  8  0  0  0  0  0  0  0  0999 V2000
  -50.9461   70.3838  -19.5110 C   0  0  0  0  0  0  0  0  0  0  0  0
  -51.9934   70.1555  -18.8033 O   0  0  0  0  0  0  0  0  0  0  0  0
  -49.7591   69.5321  -19.3624 C   0  0  0  0  0  0  0  0  0  0  0  0
  -50.8906   71.3683  -20.3180 O   0  0  0  0  0  0  0  0  0  0  0  0
  -49.9963   68.2115  -18.7013 C   0  0  0  0  0  0  0  0  0  0  0  0
  -48.8465   67.2816  -18.5744 C   0  0  0  0  0  0  0  0  0  0  0  0
  -48.3119   66.7545  -19.8954 C   0  0  0  0  0  0  0  0  0  0  0  0
  -47.6112   67.7170  -20.8673 C   0  0  0  0  0  0  0  0  0  0  0  0
  -47.0934   67.1906  -22.0331 N   0  0  0  0  0  0  0  0  0  0  0  0
  1  2  1  0  0  0  0
  1  3  1  0  0  0  0
  1  4  1  0  0  0  0
  3  5  1  0  0  0  0
  5  6  1  0  0  0  0
  6  7  1  0  0  0  0
  7  8  1  0  0  0  0
  8  9  1  0  0  0  0
M  END
>  <CHROM.1>
17.96260123,177.44277378,-65.88595538,67.87241984,177.53048318,-49.53177848
68.76949057,-19.78218641,-2.85847481,-0.75322158,2.35117252

>  <Name>
ligand

>  <RI>
0

>  <Rbt.Current_Directory>
/home/itssahil/PROJECTS/Mol_Feturizer/Test_systems_manuscript/rnas/4erj

>  <Rbt.Executable>
rbdock ($Id: //depot/dev/client3/rdock/2013.1/src/exe/rbdock.cxx#4 $)

>  <Rbt.Library>
libRbt.so (2013.1, Build901 2013/11/27)

>  <Rbt.Parameter_File>
/export/apps/rDock/src/rDock_2013.1_src/data/scripts/dock_solv.prm

>  <Rbt.Receptor>
prm/blind_docking_100.prm

>  <SCORE>
-14.1935

>  <SCORE.INTER>
-12.3342

>  <SCORE.INTER.CONST>
1

>  <SCORE.INTER.POLAR>
0

>  <SCORE.INTER.ROT>
5

>  <SCORE.INTER.SOLV>
7.43072

>  <SCORE.INTER.VDW>
-17.633

>  <SCORE.INTER.norm>
-1.37047

>  <SCORE.INTRA>
-1.85929

>  <SCORE.INTRA.DIHEDRAL>
-5.68418

>  <SCORE.INTRA.DIHEDRAL.0>
7.73744

>  <SCORE.INTRA.POLAR>
0

>  <SCORE.INTRA.POLAR.0>
0

>  <SCORE.INTRA.REPUL>
0

>  <SCORE.INTRA.REPUL.0>
0

>  <SCORE.INTRA.SOLV>
0.202494

>  <SCORE.INTRA.SOLV.lig_0>
-15.8342

>  <SCORE.INTRA.VDW>
0.881554

>  <SCORE.INTRA.VDW.0>
-0.219494

>  <SCORE.INTRA.norm>
-0.206588

>  <SCORE.RESTR>
0

>  <SCORE.RESTR.CAVITY>
0

>  <SCORE.RESTR.norm>
0

>  <SCORE.SYSTEM>
0

>  <SCORE.SYSTEM.CONST>
0

>  <SCORE.SYSTEM.DIHEDRAL>
0

>  <SCORE.SYSTEM.SOLV>
0

>  <SCORE.SYSTEM.norm>
0

>  <SCORE.heavy>
9

>  <SCORE.norm>
-1.57705

>  <RMSD>
5.530

$$$$
ligand
 OpenBabel02271912143D
libRbt.so/2013.1/901 2013/11/27
  9  8  0  0  0  0  0  0  0  0999 V2000
  -50.9568   69.6787  -18.9813 C   0  0  0  0  0  0  0  0  0  0  0  0
  -52.1989   69.5146  -18.6982 O   0  0  0  0  0  0  0  0  0  0  0  0
  -49.9481   68.7753  -18.4130 C   0  0  0  0  0  0  0  0  0  0  0  0
  -50.5641   70.6427  -19.7162 O   0  0  0  0  0  0  0  0  0  0  0  0
  -49.0004   68.1708  -19.3997 C   0  0  0  0  0  0  0  0  0  0  0  0
  -48.0709   69.0792  -20.1166 C   0  0  0  0  0  0  0  0  0  0  0  0
  -47.1862   68.3944  -21.1448 C   0  0  0  0  0  0  0  0  0  0  0  0
  -47.8275   67.7258  -22.3710 C   0  0  0  0  0  0  0  0  0  0  0  0
  -48.5572   68.5218  -23.2301 N   0  0  0  0  0  0  0  0  0  0  0  0
  1  2  1  0  0  0  0
  1  3  1  0  0  0  0
  1  4  1  0  0  0  0
  3  5  1  0  0  0  0
  5  6  1  0  0  0  0
  6  7  1  0  0  0  0
  7  8  1  0  0  0  0
  8  9  1  0  0  0  0
M  END
>  <CHROM.1>
128.97413757,65.27770862,-177.38466854,63.98572175,60.70638141,-49.40493389
68.96825899,-20.21778396,2.44334202,-0.45418213,1.64421025

>  <Name>
ligand

>  <RI>
0

>  <Rbt.Current_Directory>
/home/itssahil/PROJECTS/Mol_Feturizer/Test_systems_manuscript/rnas/4erj

>  <Rbt.Executable>
rbdock ($Id: //depot/dev/client3/rdock/2013.1/src/exe/rbdock.cxx#4 $)

>  <Rbt.Library>
libRbt.so (2013.1, Build901 2013/11/27)

>  <Rbt.Parameter_File>
/export/apps/rDock/src/rDock_2013.1_src/data/scripts/dock_solv.prm

>  <Rbt.Receptor>
prm/pocket_docking_6.prm

>  <SCORE>
-12.2938

>  <SCORE.INTER>
-9.89865

>  <SCORE.INTER.CONST>
1

>  <SCORE.INTER.POLAR>
0

>  <SCORE.INTER.ROT>
5

>  <SCORE.INTER.SOLV>
8.68874

>  <SCORE.INTER.VDW>
-16.4287

>  <SCORE.INTER.norm>
-1.09985

>  <SCORE.INTRA>
-2.39516

>  <SCORE.INTRA.DIHEDRAL>
-5.88454

>  <SCORE.INTRA.DIHEDRAL.0>
7.73744

>  <SCORE.INTRA.POLAR>
0

>  <SCORE.INTRA.POLAR.0>
0

>  <SCORE.INTRA.REPUL>
0

>  <SCORE.INTRA.REPUL.0>
0

>  <SCORE.INTRA.SOLV>
1.04185

>  <SCORE.INTRA.SOLV.lig_0>
-15.8342

>  <SCORE.INTRA.VDW>
0.0261806

>  <SCORE.INTRA.VDW.0>
-0.219494

>  <SCORE.INTRA.norm>
-0.266129

>  <SCORE.RESTR>
0

>  <SCORE.RESTR.CAVITY>
0

>  <SCORE.RESTR.norm>
0

>  <SCORE.SYSTEM>
0

>  <SCORE.SYSTEM.CONST>
0

>  <SCORE.SYSTEM.DIHEDRAL>
0

>  <SCORE.SYSTEM.SOLV>
0

>  <SCORE.SYSTEM.norm>
0

>  <SCORE.heavy>
9

>  <SCORE.norm>
-1.36598

>  <RMSD>
5.532

$$$$
ligand
 OpenBabel02271912143D
libRbt.so/2013.1/901 2013/11/27
  9  8  0  0  0  0  0  0  0  0999 V2000
  -49.5207   68.4128  -18.3121 C   0  0  0  0  0  0  0  0  0  0  0  0
  -48.6647   69.3402  -18.0730 O   0  0  0  0  0  0  0  0  0  0  0  0
  -49.0702   67.0279  -18.5000 C   0  0  0  0  0  0  0  0  0  0  0  0
  -50.7625   68.6702  -18.4360 O   0  0  0  0  0  0  0  0  0  0  0  0
  -48.8897   66.5998  -19.9218 C   0  0  0  0  0  0  0  0  0  0  0  0
  -47.9275   67.3589  -20.7590 C   0  0  0  0  0  0  0  0  0  0  0  0
  -47.9150   66.9607  -22.2253 C   0  0  0  0  0  0  0  0  0  0  0  0
  -47.0090   67.7185  -23.2085 C   0  0  0  0  0  0  0  0  0  0  0  0
  -45.6438   67.6155  -23.0360 N   0  0  0  0  0  0  0  0  0  0  0  0
  1  2  1  0  0  0  0
  1  3  1  0  0  0  0
  1  4  1  0  0  0  0
  3  5  1  0  0  0  0
  5  6  1  0  0  0  0
  6  7  1  0  0  0  0
  7  8  1  0  0  0  0
  8  9  1  0  0  0  0
M  END
>  <CHROM.1>
-96.50708362,58.94408653,-173.59974700,177.13821402,65.19527017,-48.40169431
67.77327035,-20.24286230,-2.42081203,-0.76377883,-2.45206128

>  <Name>
ligand

>  <RI>
0

>  <Rbt.Current_Directory>
/home/itssahil/PROJECTS/Mol_Feturizer/Test_systems_manuscript/rnas/4erj

>  <Rbt.Executable>
rbdock ($Id: //depot/dev/client3/rdock/2013.1/src/exe/rbdock.cxx#4 $)

>  <Rbt.Library>
libRbt.so (2013.1, Build901 2013/11/27)

>  <Rbt.Parameter_File>
/export/apps/rDock/src/rDock_2013.1_src/data/scripts/dock_solv.prm

>  <Rbt.Receptor>
prm/pocket_docking_3.prm

>  <SCORE>
-14.0206

>  <SCORE.INTER>
-10.8519

>  <SCORE.INTER.CONST>
1

>  <SCORE.INTER.POLAR>
0

>  <SCORE.INTER.ROT>
5

>  <SCORE.INTER.SOLV>
8.119

>  <SCORE.INTER.VDW>
-16.8742

>  <SCORE.INTER.norm>
-1.20576

>  <SCORE.INTRA>
-3.16873

>  <SCORE.INTRA.DIHEDRAL>
-5.83948

>  <SCORE.INTRA.DIHEDRAL.0>
7.73744

>  <SCORE.INTRA.POLAR>
0

>  <SCORE.INTRA.POLAR.0>
0

>  <SCORE.INTRA.REPUL>
0

>  <SCORE.INTRA.REPUL.0>
0

>  <SCORE.INTRA.SOLV>
0.465117

>  <SCORE.INTRA.SOLV.lig_0>
-15.8342

>  <SCORE.INTRA.VDW>
-0.48155

>  <SCORE.INTRA.VDW.0>
-0.219494

>  <SCORE.INTRA.norm>
-0.352081

>  <SCORE.RESTR>
0

>  <SCORE.RESTR.CAVITY>
0

>  <SCORE.RESTR.norm>
0

>  <SCORE.SYSTEM>
0

>  <SCORE.SYSTEM.CONST>
0

>  <SCORE.SYSTEM.DIHEDRAL>
0

>  <SCORE.SYSTEM.SOLV>
0

>  <SCORE.SYSTEM.norm>
0

>  <SCORE.heavy>
9

>  <SCORE.norm>
-1.55784

>  <RMSD>
5.538

$$$$
ligand
 OpenBabel02271912143D
libRbt.so/2013.1/901 2013/11/27
  9  8  0  0  0  0  0  0  0  0999 V2000
  -50.8331   70.2605  -19.4120 C   0  0  0  0  0  0  0  0  0  0  0  0
  -50.7723   71.2720  -20.2013 O   0  0  0  0  0  0  0  0  0  0  0  0
  -49.6809   69.3595  -19.2823 C   0  0  0  0  0  0  0  0  0  0  0  0
  -51.8945   69.9874  -18.7620 O   0  0  0  0  0  0  0  0  0  0  0  0
  -49.9293   67.9396  -19.6815 C   0  0  0  0  0  0  0  0  0  0  0  0
  -48.7887   66.9917  -19.6227 C   0  0  0  0  0  0  0  0  0  0  0  0
  -47.6652   67.2941  -20.6000 C   0  0  0  0  0  0  0  0  0  0  0  0
  -47.9247   67.1829  -22.1107 C   0  0  0  0  0  0  0  0  0  0  0  0
  -46.9070   67.5497  -22.9673 N   0  0  0  0  0  0  0  0  0  0  0  0
  1  2  1  0  0  0  0
  1  3  1  0  0  0  0
  1  4  1  0  0  0  0
  3  5  1  0  0  0  0
  5  6  1  0  0  0  0
  6  7  1  0  0  0  0
  7  8  1  0  0  0  0
  8  9  1  0  0  0  0
M  END
>  <CHROM.1>
-118.80492306,177.67847133,-65.40243535,-65.55921290,175.84246701,-49.41501565
68.68441002,-20.28176171,-2.98469016,-0.82251849,2.46517377

>  <Name>
ligand

>  <RI>
0

>  <Rbt.Current_Directory>
/home/itssahil/PROJECTS/Mol_Feturizer/Test_systems_manuscript/rnas/4erj

>  <Rbt.Executable>
rbdock ($Id: //depot/dev/client3/rdock/2013.1/src/exe/rbdock.cxx#4 $)

>  <Rbt.Library>
libRbt.so (2013.1, Build901 2013/11/27)

>  <Rbt.Parameter_File>
/export/apps/rDock/src/rDock_2013.1_src/data/scripts/dock_solv.prm

>  <Rbt.Receptor>
prm/pocket_docking_5.prm

>  <SCORE>
-13.3212

>  <SCORE.INTER>
-10.6346

>  <SCORE.INTER.CONST>
1

>  <SCORE.INTER.POLAR>
0

>  <SCORE.INTER.ROT>
5

>  <SCORE.INTER.SOLV>
7.01818

>  <SCORE.INTER.VDW>
-16.3625

>  <SCORE.INTER.norm>
-1.18163

>  <SCORE.INTRA>
-2.68653

>  <SCORE.INTRA.DIHEDRAL>
-5.71965

>  <SCORE.INTRA.DIHEDRAL.0>
7.73744

>  <SCORE.INTRA.POLAR>
0

>  <SCORE.INTRA.POLAR.0>
0

>  <SCORE.INTRA.REPUL>
0

>  <SCORE.INTRA.REPUL.0>
0

>  <SCORE.INTRA.SOLV>
0.0479889

>  <SCORE.INTRA.SOLV.lig_0>
-15.8342

>  <SCORE.INTRA.VDW>
0.149305

>  <SCORE.INTRA.VDW.0>
-0.219494

>  <SCORE.INTRA.norm>
-0.298503

>  <SCORE.RESTR>
0

>  <SCORE.RESTR.CAVITY>
0

>  <SCORE.RESTR.norm>
0

>  <SCORE.SYSTEM>
0

>  <SCORE.SYSTEM.CONST>
0

>  <SCORE.SYSTEM.DIHEDRAL>
0

>  <SCORE.SYSTEM.SOLV>
0

>  <SCORE.SYSTEM.norm>
0

>  <SCORE.heavy>
9

>  <SCORE.norm>
-1.48013

>  <RMSD>
5.538

$$$$
ligand
 OpenBabel02271912143D
libRbt.so/2013.1/901 2013/11/27
  9  8  0  0  0  0  0  0  0  0999 V2000
  -51.0884   70.5104  -19.4797 C   0  0  0  0  0  0  0  0  0  0  0  0
  -51.0323   71.6608  -20.0484 O   0  0  0  0  0  0  0  0  0  0  0  0
  -49.9858   69.5547  -19.6450 C   0  0  0  0  0  0  0  0  0  0  0  0
  -52.1066   70.1524  -18.8026 O   0  0  0  0  0  0  0  0  0  0  0  0
  -49.9023   68.4856  -18.6022 C   0  0  0  0  0  0  0  0  0  0  0  0
  -48.7922   67.5052  -18.6997 C   0  0  0  0  0  0  0  0  0  0  0  0
  -48.8749   66.5748  -19.8981 C   0  0  0  0  0  0  0  0  0  0  0  0
  -48.7340   67.1509  -21.3158 C   0  0  0  0  0  0  0  0  0  0  0  0
  -47.5579   67.7990  -21.6333 N   0  0  0  0  0  0  0  0  0  0  0  0
  1  2  1  0  0  0  0
  1  3  1  0  0  0  0
  1  4  1  0  0  0  0
  3  5  1  0  0  0  0
  5  6  1  0  0  0  0
  6  7  1  0  0  0  0
  7  8  1  0  0  0  0
  8  9  1  0  0  0  0
M  END
>  <CHROM.1>
159.32615094,-178.79734678,-67.33696805,65.88270368,60.19123507,-49.82083296
68.85934211,-19.78500810,-2.77264320,-0.84023675,2.37277611

>  <Name>
ligand

>  <RI>
0

>  <Rbt.Current_Directory>
/home/itssahil/PROJECTS/Mol_Feturizer/Test_systems_manuscript/rnas/4erj

>  <Rbt.Executable>
rbdock ($Id: //depot/dev/client3/rdock/2013.1/src/exe/rbdock.cxx#4 $)

>  <Rbt.Library>
libRbt.so (2013.1, Build901 2013/11/27)

>  <Rbt.Parameter_File>
/export/apps/rDock/src/rDock_2013.1_src/data/scripts/dock_solv.prm

>  <Rbt.Receptor>
prm/blind_docking_100.prm

>  <SCORE>
-14.7072

>  <SCORE.INTER>
-13.6277

>  <SCORE.INTER.CONST>
1

>  <SCORE.INTER.POLAR>
0

>  <SCORE.INTER.ROT>
5

>  <SCORE.INTER.SOLV>
6.28703

>  <SCORE.INTER.VDW>
-18.1142

>  <SCORE.INTER.norm>
-1.51419

>  <SCORE.INTRA>
-1.07944

>  <SCORE.INTRA.DIHEDRAL>
-5.77578

>  <SCORE.INTRA.DIHEDRAL.0>
7.73744

>  <SCORE.INTRA.POLAR>
0

>  <SCORE.INTRA.POLAR.0>
0

>  <SCORE.INTRA.REPUL>
0

>  <SCORE.INTRA.REPUL.0>
0

>  <SCORE.INTRA.SOLV>
1.8145

>  <SCORE.INTRA.SOLV.lig_0>
-15.8342

>  <SCORE.INTRA.VDW>
0.901202

>  <SCORE.INTRA.VDW.0>
-0.219494

>  <SCORE.INTRA.norm>
-0.119938

>  <SCORE.RESTR>
0

>  <SCORE.RESTR.CAVITY>
0

>  <SCORE.RESTR.norm>
0

>  <SCORE.SYSTEM>
0

>  <SCORE.SYSTEM.CONST>
0

>  <SCORE.SYSTEM.DIHEDRAL>
0

>  <SCORE.SYSTEM.SOLV>
0

>  <SCORE.SYSTEM.norm>
0

>  <SCORE.heavy>
9

>  <SCORE.norm>
-1.63413

>  <RMSD>
5.543

$$$$
ligand
 OpenBabel02271912143D
libRbt.so/2013.1/901 2013/11/27
  9  8  0  0  0  0  0  0  0  0999 V2000
  -50.9887   70.4179  -19.4918 C   0  0  0  0  0  0  0  0  0  0  0  0
  -52.0864   70.1344  -18.8880 O   0  0  0  0  0  0  0  0  0  0  0  0
  -49.8281   69.5277  -19.3626 C   0  0  0  0  0  0  0  0  0  0  0  0
  -50.8620   71.4867  -20.1740 O   0  0  0  0  0  0  0  0  0  0  0  0
  -50.0371   68.3227  -18.5015 C   0  0  0  0  0  0  0  0  0  0  0  0
  -48.9365   67.3305  -18.4159 C   0  0  0  0  0  0  0  0  0  0  0  0
  -48.6054   66.6400  -19.7283 C   0  0  0  0  0  0  0  0  0  0  0  0
  -47.9162   67.4337  -20.8493 C   0  0  0  0  0  0  0  0  0  0  0  0
  -47.6092   66.7648  -22.0165 N   0  0  0  0  0  0  0  0  0  0  0  0
  1  2  1  0  0  0  0
  1  3  1  0  0  0  0
  1  4  1  0  0  0  0
  3  5  1  0  0  0  0
  5  6  1  0  0  0  0
  6  7  1  0  0  0  0
  7  8  1  0  0  0  0
  8  9  1  0  0  0  0
M  END
>  <CHROM.1>
-0.12025332,175.35969085,-63.70651201,70.84723095,178.79737104,-49.68758808
68.71180388,-19.71171321,-2.86535246,-0.84898375,2.26118779

>  <Name>
ligand

>  <RI>
0

>  <Rbt.Current_Directory>
/home/itssahil/PROJECTS/Mol_Feturizer/Test_systems_manuscript/rnas/4erj

>  <Rbt.Executable>
rbdock ($Id: //depot/dev/client3/rdock/2013.1/src/exe/rbdock.cxx#4 $)

>  <Rbt.Library>
libRbt.so (2013.1, Build901 2013/11/27)

>  <Rbt.Parameter_File>
/export/apps/rDock/src/rDock_2013.1_src/data/scripts/dock_solv.prm

>  <Rbt.Receptor>
prm/pocket_docking_6.prm

>  <SCORE>
-14.2579

>  <SCORE.INTER>
-12.6278

>  <SCORE.INTER.CONST>
1

>  <SCORE.INTER.POLAR>
0

>  <SCORE.INTER.ROT>
5

>  <SCORE.INTER.SOLV>
9.22632

>  <SCORE.INTER.VDW>
-18.4273

>  <SCORE.INTER.norm>
-1.40309

>  <SCORE.INTRA>
-1.63005

>  <SCORE.INTRA.DIHEDRAL>
-5.41756

>  <SCORE.INTRA.DIHEDRAL.0>
7.73744

>  <SCORE.INTRA.POLAR>
0

>  <SCORE.INTRA.POLAR.0>
0

>  <SCORE.INTRA.REPUL>
0

>  <SCORE.INTRA.REPUL.0>
0

>  <SCORE.INTRA.SOLV>
0.203144

>  <SCORE.INTRA.SOLV.lig_0>
-15.8342

>  <SCORE.INTRA.VDW>
0.977162

>  <SCORE.INTRA.VDW.0>
-0.219494

>  <SCORE.INTRA.norm>
-0.181116

>  <SCORE.RESTR>
0

>  <SCORE.RESTR.CAVITY>
0

>  <SCORE.RESTR.norm>
0

>  <SCORE.SYSTEM>
0

>  <SCORE.SYSTEM.CONST>
0

>  <SCORE.SYSTEM.DIHEDRAL>
0

>  <SCORE.SYSTEM.SOLV>
0

>  <SCORE.SYSTEM.norm>
0

>  <SCORE.heavy>
9

>  <SCORE.norm>
-1.58421

>  <RMSD>
5.552

$$$$
ligand
 OpenBabel02271912143D
libRbt.so/2013.1/901 2013/11/27
  9  8  0  0  0  0  0  0  0  0999 V2000
  -50.9508   70.3859  -19.4405 C   0  0  0  0  0  0  0  0  0  0  0  0
  -52.0662   70.0473  -18.9009 O   0  0  0  0  0  0  0  0  0  0  0  0
  -49.7841   69.5006  -19.3330 C   0  0  0  0  0  0  0  0  0  0  0  0
  -50.8130   71.5033  -20.0372 O   0  0  0  0  0  0  0  0  0  0  0  0
  -50.0248   68.2061  -18.6234 C   0  0  0  0  0  0  0  0  0  0  0  0
  -48.8845   67.2656  -18.4881 C   0  0  0  0  0  0  0  0  0  0  0  0
  -48.3613   66.7140  -19.8037 C   0  0  0  0  0  0  0  0  0  0  0  0
  -47.6596   67.6561  -20.7946 C   0  0  0  0  0  0  0  0  0  0  0  0
  -47.1244   67.1027  -21.9398 N   0  0  0  0  0  0  0  0  0  0  0  0
  1  2  1  0  0  0  0
  1  3  1  0  0  0  0
  1  4  1  0  0  0  0
  3  5  1  0  0  0  0
  5  6  1  0  0  0  0
  6  7  1  0  0  0  0
  7  8  1  0  0  0  0
  8  9  1  0  0  0  0
M  END
>  <CHROM.1>
2.47092453,179.73443450,-64.46004233,67.61746100,176.01787578,-49.55572590
68.74655429,-19.70332381,-2.79668237,-0.75012187,2.41774514

>  <Name>
ligand

>  <RI>
0

>  <Rbt.Current_Directory>
/home/itssahil/PROJECTS/Mol_Feturizer/Test_systems_manuscript/rnas/4erj

>  <Rbt.Executable>
rbdock ($Id: //depot/dev/client3/rdock/2013.1/src/exe/rbdock.cxx#4 $)

>  <Rbt.Library>
libRbt.so (2013.1, Build901 2013/11/27)

>  <Rbt.Parameter_File>
/export/apps/rDock/src/rDock_2013.1_src/data/scripts/dock_solv.prm

>  <Rbt.Receptor>
prm/pocket_docking_6.prm

>  <SCORE>
-14.1102

>  <SCORE.INTER>
-12.4421

>  <SCORE.INTER.CONST>
1

>  <SCORE.INTER.POLAR>
0

>  <SCORE.INTER.ROT>
5

>  <SCORE.INTER.SOLV>
7.74959

>  <SCORE.INTER.VDW>
-17.8112

>  <SCORE.INTER.norm>
-1.38245

>  <SCORE.INTRA>
-1.66813

>  <SCORE.INTRA.DIHEDRAL>
-5.68111

>  <SCORE.INTRA.DIHEDRAL.0>
7.73744

>  <SCORE.INTRA.POLAR>
0

>  <SCORE.INTRA.POLAR.0>
0

>  <SCORE.INTRA.REPUL>
0

>  <SCORE.INTRA.REPUL.0>
0

>  <SCORE.INTRA.SOLV>
0.206653

>  <SCORE.INTRA.SOLV.lig_0>
-15.8342

>  <SCORE.INTRA.VDW>
1.06909

>  <SCORE.INTRA.VDW.0>
-0.219494

>  <SCORE.INTRA.norm>
-0.185348

>  <SCORE.RESTR>
0

>  <SCORE.RESTR.CAVITY>
0

>  <SCORE.RESTR.norm>
0

>  <SCORE.SYSTEM>
0

>  <SCORE.SYSTEM.CONST>
0

>  <SCORE.SYSTEM.DIHEDRAL>
0

>  <SCORE.SYSTEM.SOLV>
0

>  <SCORE.SYSTEM.norm>
0

>  <SCORE.heavy>
9

>  <SCORE.norm>
-1.5678

>  <RMSD>
5.560

$$$$
ligand
 OpenBabel02271912143D
libRbt.so/2013.1/901 2013/11/27
  9  8  0  0  0  0  0  0  0  0999 V2000
  -49.7969   68.3296  -18.5382 C   0  0  0  0  0  0  0  0  0  0  0  0
  -49.2042   68.3383  -17.3987 O   0  0  0  0  0  0  0  0  0  0  0  0
  -49.4658   67.2992  -19.5307 C   0  0  0  0  0  0  0  0  0  0  0  0
  -50.6442   69.2275  -18.8538 O   0  0  0  0  0  0  0  0  0  0  0  0
  -48.5219   67.7277  -20.6091 C   0  0  0  0  0  0  0  0  0  0  0  0
  -48.1555   66.7324  -21.6474 C   0  0  0  0  0  0  0  0  0  0  0  0
  -47.2077   67.2530  -22.7147 C   0  0  0  0  0  0  0  0  0  0  0  0
  -47.6557   68.4032  -23.6302 C   0  0  0  0  0  0  0  0  0  0  0  0
  -46.8231   68.7587  -24.6716 N   0  0  0  0  0  0  0  0  0  0  0  0
  1  2  1  0  0  0  0
  1  3  1  0  0  0  0
  1  4  1  0  0  0  0
  3  5  1  0  0  0  0
  5  6  1  0  0  0  0
  6  7  1  0  0  0  0
  7  8  1  0  0  0  0
  8  9  1  0  0  0  0
M  END
>  <CHROM.1>
-99.71822383,-179.61978538,179.24603201,-62.77614856,-173.64424989,-48.63042398
68.02640921,-20.79583300,2.45634079,-0.98512382,2.30480834

>  <Name>
ligand

>  <RI>
0

>  <Rbt.Current_Directory>
/home/itssahil/PROJECTS/Mol_Feturizer/Test_systems_manuscript/rnas/4erj

>  <Rbt.Executable>
rbdock ($Id: //depot/dev/client3/rdock/2013.1/src/exe/rbdock.cxx#4 $)

>  <Rbt.Library>
libRbt.so (2013.1, Build901 2013/11/27)

>  <Rbt.Parameter_File>
/export/apps/rDock/src/rDock_2013.1_src/data/scripts/dock_solv.prm

>  <Rbt.Receptor>
prm/pocket_docking_7.prm

>  <SCORE>
-12.789

>  <SCORE.INTER>
-9.62397

>  <SCORE.INTER.CONST>
1

>  <SCORE.INTER.POLAR>
0

>  <SCORE.INTER.ROT>
5

>  <SCORE.INTER.SOLV>
7.92953

>  <SCORE.INTER.VDW>
-15.9925

>  <SCORE.INTER.norm>
-1.06933

>  <SCORE.INTRA>
-3.16628

>  <SCORE.INTRA.DIHEDRAL>
-5.95559

>  <SCORE.INTRA.DIHEDRAL.0>
7.73744

>  <SCORE.INTRA.POLAR>
0

>  <SCORE.INTRA.POLAR.0>
0

>  <SCORE.INTRA.REPUL>
0

>  <SCORE.INTRA.REPUL.0>
0

>  <SCORE.INTRA.SOLV>
0.0235233

>  <SCORE.INTRA.SOLV.lig_0>
-15.8342

>  <SCORE.INTRA.VDW>
-0.20025

>  <SCORE.INTRA.VDW.0>
-0.219494

>  <SCORE.INTRA.norm>
-0.351809

>  <SCORE.RESTR>
0.00128242

>  <SCORE.RESTR.CAVITY>
0.00128242

>  <SCORE.RESTR.norm>
0.000142491

>  <SCORE.SYSTEM>
0

>  <SCORE.SYSTEM.CONST>
0

>  <SCORE.SYSTEM.DIHEDRAL>
0

>  <SCORE.SYSTEM.SOLV>
0

>  <SCORE.SYSTEM.norm>
0

>  <SCORE.heavy>
9

>  <SCORE.norm>
-1.421

>  <RMSD>
5.560

$$$$
ligand
 OpenBabel02271912143D
libRbt.so/2013.1/901 2013/11/27
  9  8  0  0  0  0  0  0  0  0999 V2000
  -51.0110   70.4430  -19.5036 C   0  0  0  0  0  0  0  0  0  0  0  0
  -52.0586   70.2220  -18.7939 O   0  0  0  0  0  0  0  0  0  0  0  0
  -49.8630   69.5310  -19.4226 C   0  0  0  0  0  0  0  0  0  0  0  0
  -50.9205   71.4690  -20.2537 O   0  0  0  0  0  0  0  0  0  0  0  0
  -50.0781   68.3011  -18.5989 C   0  0  0  0  0  0  0  0  0  0  0  0
  -48.9607   67.3297  -18.4960 C   0  0  0  0  0  0  0  0  0  0  0  0
  -48.5883   66.6546  -19.8053 C   0  0  0  0  0  0  0  0  0  0  0  0
  -47.8599   67.4600  -20.8927 C   0  0  0  0  0  0  0  0  0  0  0  0
  -47.5432   66.8128  -22.0696 N   0  0  0  0  0  0  0  0  0  0  0  0
  1  2  1  0  0  0  0
  1  3  1  0  0  0  0
  1  4  1  0  0  0  0
  3  5  1  0  0  0  0
  5  6  1  0  0  0  0
  6  7  1  0  0  0  0
  7  8  1  0  0  0  0
  8  9  1  0  0  0  0
M  END
>  <CHROM.1>
6.39742545,179.07469999,-65.05689905,72.33730526,-179.76510815,-49.68919193
68.73054435,-19.75600090,-2.86675668,-0.84012858,2.28152060

>  <Name>
ligand

>  <RI>
0

>  <Rbt.Current_Directory>
/home/itssahil/PROJECTS/Mol_Feturizer/Test_systems_manuscript/rnas/4erj

>  <Rbt.Executable>
rbdock ($Id: //depot/dev/client3/rdock/2013.1/src/exe/rbdock.cxx#4 $)

>  <Rbt.Library>
libRbt.so (2013.1, Build901 2013/11/27)

>  <Rbt.Parameter_File>
/export/apps/rDock/src/rDock_2013.1_src/data/scripts/dock_solv.prm

>  <Rbt.Receptor>
prm/pocket_docking_5.prm

>  <SCORE>
-14.2061

>  <SCORE.INTER>
-12.4838

>  <SCORE.INTER.CONST>
1

>  <SCORE.INTER.POLAR>
0

>  <SCORE.INTER.ROT>
5

>  <SCORE.INTER.SOLV>
9.06127

>  <SCORE.INTER.VDW>
-18.2763

>  <SCORE.INTER.norm>
-1.38709

>  <SCORE.INTRA>
-1.72234

>  <SCORE.INTRA.DIHEDRAL>
-5.35778

>  <SCORE.INTRA.DIHEDRAL.0>
7.73744

>  <SCORE.INTRA.POLAR>
0

>  <SCORE.INTRA.POLAR.0>
0

>  <SCORE.INTRA.REPUL>
0

>  <SCORE.INTRA.REPUL.0>
0

>  <SCORE.INTRA.SOLV>
0.187469

>  <SCORE.INTRA.SOLV.lig_0>
-15.8342

>  <SCORE.INTRA.VDW>
0.862814

>  <SCORE.INTRA.VDW.0>
-0.219494

>  <SCORE.INTRA.norm>
-0.191372

>  <SCORE.RESTR>
0

>  <SCORE.RESTR.CAVITY>
0

>  <SCORE.RESTR.norm>
0

>  <SCORE.SYSTEM>
0

>  <SCORE.SYSTEM.CONST>
0

>  <SCORE.SYSTEM.DIHEDRAL>
0

>  <SCORE.SYSTEM.SOLV>
0

>  <SCORE.SYSTEM.norm>
0

>  <SCORE.heavy>
9

>  <SCORE.norm>
-1.57846

>  <RMSD>
5.564

$$$$
ligand
 OpenBabel02271912143D
libRbt.so/2013.1/901 2013/11/27
  9  8  0  0  0  0  0  0  0  0999 V2000
  -50.6727   69.5048  -18.9229 C   0  0  0  0  0  0  0  0  0  0  0  0
  -50.2073   70.3435  -19.7772 O   0  0  0  0  0  0  0  0  0  0  0  0
  -49.7773   68.5289  -18.2887 C   0  0  0  0  0  0  0  0  0  0  0  0
  -51.9141   69.4655  -18.6382 O   0  0  0  0  0  0  0  0  0  0  0  0
  -49.2564   67.4558  -19.1911 C   0  0  0  0  0  0  0  0  0  0  0  0
  -48.3760   67.8604  -20.3155 C   0  0  0  0  0  0  0  0  0  0  0  0
  -47.9928   66.7301  -21.2558 C   0  0  0  0  0  0  0  0  0  0  0  0
  -47.0587   67.0153  -22.4423 C   0  0  0  0  0  0  0  0  0  0  0  0
  -47.4720   67.9405  -23.3790 N   0  0  0  0  0  0  0  0  0  0  0  0
  1  2  1  0  0  0  0
  1  3  1  0  0  0  0
  1  4  1  0  0  0  0
  3  5  1  0  0  0  0
  5  6  1  0  0  0  0
  6  7  1  0  0  0  0
  7  8  1  0  0  0  0
  8  9  1  0  0  0  0
M  END
>  <CHROM.1>
-69.54574245,64.21550789,-174.74698666,-178.64823807,-60.04716102,-49.22642440
68.34635965,-20.23400770,2.85803594,-0.84512980,2.23041917

>  <Name>
ligand

>  <RI>
0

>  <Rbt.Current_Directory>
/home/itssahil/PROJECTS/Mol_Feturizer/Test_systems_manuscript/rnas/4erj

>  <Rbt.Executable>
rbdock ($Id: //depot/dev/client3/rdock/2013.1/src/exe/rbdock.cxx#4 $)

>  <Rbt.Library>
libRbt.so (2013.1, Build901 2013/11/27)

>  <Rbt.Parameter_File>
/export/apps/rDock/src/rDock_2013.1_src/data/scripts/dock_solv.prm

>  <Rbt.Receptor>
prm/pocket_docking_7.prm

>  <SCORE>
-14.088

>  <SCORE.INTER>
-10.9832

>  <SCORE.INTER.CONST>
1

>  <SCORE.INTER.POLAR>
0

>  <SCORE.INTER.ROT>
5

>  <SCORE.INTER.SOLV>
7.3516

>  <SCORE.INTER.VDW>
-16.706

>  <SCORE.INTER.norm>
-1.22036

>  <SCORE.INTRA>
-3.10481

>  <SCORE.INTRA.DIHEDRAL>
-5.91398

>  <SCORE.INTRA.DIHEDRAL.0>
7.73744

>  <SCORE.INTRA.POLAR>
0

>  <SCORE.INTRA.POLAR.0>
0

>  <SCORE.INTRA.REPUL>
0

>  <SCORE.INTRA.REPUL.0>
0

>  <SCORE.INTRA.SOLV>
0.523068

>  <SCORE.INTRA.SOLV.lig_0>
-15.8342

>  <SCORE.INTRA.VDW>
-0.409349

>  <SCORE.INTRA.VDW.0>
-0.219494

>  <SCORE.INTRA.norm>
-0.344978

>  <SCORE.RESTR>
0

>  <SCORE.RESTR.CAVITY>
0

>  <SCORE.RESTR.norm>
0

>  <SCORE.SYSTEM>
0

>  <SCORE.SYSTEM.CONST>
0

>  <SCORE.SYSTEM.DIHEDRAL>
0

>  <SCORE.SYSTEM.SOLV>
0

>  <SCORE.SYSTEM.norm>
0

>  <SCORE.heavy>
9

>  <SCORE.norm>
-1.56534

>  <RMSD>
5.564

$$$$
ligand
 OpenBabel02271912143D
libRbt.so/2013.1/901 2013/11/27
  9  8  0  0  0  0  0  0  0  0999 V2000
  -50.9352   70.2419  -19.4370 C   0  0  0  0  0  0  0  0  0  0  0  0
  -52.0371   69.9043  -18.8699 O   0  0  0  0  0  0  0  0  0  0  0  0
  -49.7490   69.3862  -19.3055 C   0  0  0  0  0  0  0  0  0  0  0  0
  -50.8275   71.3348  -20.0831 O   0  0  0  0  0  0  0  0  0  0  0  0
  -49.9478   67.9525  -19.6828 C   0  0  0  0  0  0  0  0  0  0  0  0
  -48.7865   67.0357  -19.5650 C   0  0  0  0  0  0  0  0  0  0  0  0
  -47.6541   67.3230  -20.5365 C   0  0  0  0  0  0  0  0  0  0  0  0
  -47.9101   67.2253  -22.0487 C   0  0  0  0  0  0  0  0  0  0  0  0
  -46.8515   67.4744  -22.8981 N   0  0  0  0  0  0  0  0  0  0  0  0
  1  2  1  0  0  0  0
  1  3  1  0  0  0  0
  1  4  1  0  0  0  0
  3  5  1  0  0  0  0
  5  6  1  0  0  0  0
  6  7  1  0  0  0  0
  7  8  1  0  0  0  0
  8  9  1  0  0  0  0
M  END
>  <CHROM.1>
53.17124140,-179.71984075,-67.04469060,-61.79147498,-179.06670730,-49.44964470
68.68887482,-20.25790263,-2.95695689,-0.79357268,2.49037410

>  <Name>
ligand

>  <RI>
0

>  <Rbt.Current_Directory>
/home/itssahil/PROJECTS/Mol_Feturizer/Test_systems_manuscript/rnas/4erj

>  <Rbt.Executable>
rbdock ($Id: //depot/dev/client3/rdock/2013.1/src/exe/rbdock.cxx#4 $)

>  <Rbt.Library>
libRbt.so (2013.1, Build901 2013/11/27)

>  <Rbt.Parameter_File>
/export/apps/rDock/src/rDock_2013.1_src/data/scripts/dock_solv.prm

>  <Rbt.Receptor>
prm/pocket_docking_8.prm

>  <SCORE>
-13.4374

>  <SCORE.INTER>
-10.7337

>  <SCORE.INTER.CONST>
1

>  <SCORE.INTER.POLAR>
0

>  <SCORE.INTER.ROT>
5

>  <SCORE.INTER.SOLV>
7.04622

>  <SCORE.INTER.VDW>
-16.4379

>  <SCORE.INTER.norm>
-1.19263

>  <SCORE.INTRA>
-2.70371

>  <SCORE.INTRA.DIHEDRAL>
-5.87537

>  <SCORE.INTRA.DIHEDRAL.0>
7.73744

>  <SCORE.INTRA.POLAR>
0

>  <SCORE.INTRA.POLAR.0>
0

>  <SCORE.INTRA.REPUL>
0

>  <SCORE.INTRA.REPUL.0>
0

>  <SCORE.INTRA.SOLV>
0.0416652

>  <SCORE.INTRA.SOLV.lig_0>
-15.8342

>  <SCORE.INTRA.VDW>
0.213149

>  <SCORE.INTRA.VDW.0>
-0.219494

>  <SCORE.INTRA.norm>
-0.300412

>  <SCORE.RESTR>
0

>  <SCORE.RESTR.CAVITY>
0

>  <SCORE.RESTR.norm>
0

>  <SCORE.SYSTEM>
0

>  <SCORE.SYSTEM.CONST>
0

>  <SCORE.SYSTEM.DIHEDRAL>
0

>  <SCORE.SYSTEM.SOLV>
0

>  <SCORE.SYSTEM.norm>
0

>  <SCORE.heavy>
9

>  <SCORE.norm>
-1.49304

>  <RMSD>
5.565

$$$$
ligand
 OpenBabel02271912143D
libRbt.so/2013.1/901 2013/11/27
  9  8  0  0  0  0  0  0  0  0999 V2000
  -49.8221   68.3026  -18.4779 C   0  0  0  0  0  0  0  0  0  0  0  0
  -49.1457   68.5059  -17.4050 O   0  0  0  0  0  0  0  0  0  0  0  0
  -49.4089   67.2541  -19.4193 C   0  0  0  0  0  0  0  0  0  0  0  0
  -50.8302   69.0232  -18.7748 O   0  0  0  0  0  0  0  0  0  0  0  0
  -48.4650   67.6929  -20.4935 C   0  0  0  0  0  0  0  0  0  0  0  0
  -48.0454   66.6884  -21.5025 C   0  0  0  0  0  0  0  0  0  0  0  0
  -47.0963   67.2182  -22.5642 C   0  0  0  0  0  0  0  0  0  0  0  0
  -47.5755   68.3126  -23.5308 C   0  0  0  0  0  0  0  0  0  0  0  0
  -46.7148   68.7063  -24.5350 N   0  0  0  0  0  0  0  0  0  0  0  0
  1  2  1  0  0  0  0
  1  3  1  0  0  0  0
  1  4  1  0  0  0  0
  3  5  1  0  0  0  0
  5  6  1  0  0  0  0
  6  7  1  0  0  0  0
  7  8  1  0  0  0  0
  8  9  1  0  0  0  0
M  END
>  <CHROM.1>
-90.48683312,-178.04186723,179.50261072,-63.96079748,-175.90461299,-48.59139602
67.98628630,-20.69809728,2.42579381,-0.92292761,2.23999412

>  <Name>
ligand

>  <RI>
0

>  <Rbt.Current_Directory>
/home/itssahil/PROJECTS/Mol_Feturizer/Test_systems_manuscript/rnas/4erj

>  <Rbt.Executable>
rbdock ($Id: //depot/dev/client3/rdock/2013.1/src/exe/rbdock.cxx#4 $)

>  <Rbt.Library>
libRbt.so (2013.1, Build901 2013/11/27)

>  <Rbt.Parameter_File>
/export/apps/rDock/src/rDock_2013.1_src/data/scripts/dock_solv.prm

>  <Rbt.Receptor>
prm/pocket_docking_4.prm

>  <SCORE>
-12.7882

>  <SCORE.INTER>
-9.55626

>  <SCORE.INTER.CONST>
1

>  <SCORE.INTER.POLAR>
0

>  <SCORE.INTER.ROT>
5

>  <SCORE.INTER.SOLV>
7.97701

>  <SCORE.INTER.VDW>
-15.9632

>  <SCORE.INTER.norm>
-1.06181

>  <SCORE.INTRA>
-3.23196

>  <SCORE.INTRA.DIHEDRAL>
-6.01187

>  <SCORE.INTRA.DIHEDRAL.0>
7.73744

>  <SCORE.INTRA.POLAR>
0

>  <SCORE.INTRA.POLAR.0>
0

>  <SCORE.INTRA.REPUL>
0

>  <SCORE.INTRA.REPUL.0>
0

>  <SCORE.INTRA.SOLV>
0.0246893

>  <SCORE.INTRA.SOLV.lig_0>
-15.8342

>  <SCORE.INTRA.VDW>
-0.238364

>  <SCORE.INTRA.VDW.0>
-0.219494

>  <SCORE.INTRA.norm>
-0.359106

>  <SCORE.RESTR>
0

>  <SCORE.RESTR.CAVITY>
0

>  <SCORE.RESTR.norm>
0

>  <SCORE.SYSTEM>
0

>  <SCORE.SYSTEM.CONST>
0

>  <SCORE.SYSTEM.DIHEDRAL>
0

>  <SCORE.SYSTEM.SOLV>
0

>  <SCORE.SYSTEM.norm>
0

>  <SCORE.heavy>
9

>  <SCORE.norm>
-1.42091

>  <RMSD>
5.576

$$$$
ligand
 OpenBabel02271912143D
libRbt.so/2013.1/901 2013/11/27
  9  8  0  0  0  0  0  0  0  0999 V2000
  -50.9683   70.3775  -19.3980 C   0  0  0  0  0  0  0  0  0  0  0  0
  -52.0265   70.0275  -18.7596 O   0  0  0  0  0  0  0  0  0  0  0  0
  -49.7453   69.5719  -19.2906 C   0  0  0  0  0  0  0  0  0  0  0  0
  -50.9353   71.4423  -20.0971 O   0  0  0  0  0  0  0  0  0  0  0  0
  -49.9555   68.0921  -19.2310 C   0  0  0  0  0  0  0  0  0  0  0  0
  -48.7551   67.2223  -19.1569 C   0  0  0  0  0  0  0  0  0  0  0  0
  -47.7970   67.3674  -20.3273 C   0  0  0  0  0  0  0  0  0  0  0  0
  -48.2867   67.0561  -21.7504 C   0  0  0  0  0  0  0  0  0  0  0  0
  -47.4187   67.2944  -22.7963 N   0  0  0  0  0  0  0  0  0  0  0  0
  1  2  1  0  0  0  0
  1  3  1  0  0  0  0
  1  4  1  0  0  0  0
  3  5  1  0  0  0  0
  5  6  1  0  0  0  0
  6  7  1  0  0  0  0
  7  8  1  0  0  0  0
  8  9  1  0  0  0  0
M  END
>  <CHROM.1>
37.63082767,178.46437676,-59.47564201,-60.46534538,175.28776861,-49.58074274
68.75305221,-20.07976908,-3.08125138,-0.86451831,2.23295973

>  <Name>
ligand

>  <RI>
0

>  <Rbt.Current_Directory>
/home/itssahil/PROJECTS/Mol_Feturizer/Test_systems_manuscript/rnas/4erj

>  <Rbt.Executable>
rbdock ($Id: //depot/dev/client3/rdock/2013.1/src/exe/rbdock.cxx#4 $)

>  <Rbt.Library>
libRbt.so (2013.1, Build901 2013/11/27)

>  <Rbt.Parameter_File>
/export/apps/rDock/src/rDock_2013.1_src/data/scripts/dock_solv.prm

>  <Rbt.Receptor>
prm/pocket_docking_5.prm

>  <SCORE>
-13.6917

>  <SCORE.INTER>
-11.2805

>  <SCORE.INTER.CONST>
1

>  <SCORE.INTER.POLAR>
0

>  <SCORE.INTER.ROT>
5

>  <SCORE.INTER.SOLV>
7.90943

>  <SCORE.INTER.VDW>
-17.0902

>  <SCORE.INTER.norm>
-1.25339

>  <SCORE.INTRA>
-2.41112

>  <SCORE.INTRA.DIHEDRAL>
-6.05685

>  <SCORE.INTRA.DIHEDRAL.0>
7.73744

>  <SCORE.INTRA.POLAR>
0

>  <SCORE.INTRA.POLAR.0>
0

>  <SCORE.INTRA.REPUL>
0

>  <SCORE.INTRA.REPUL.0>
0

>  <SCORE.INTRA.SOLV>
0.07386

>  <SCORE.INTRA.SOLV.lig_0>
-15.8342

>  <SCORE.INTRA.VDW>
0.580369

>  <SCORE.INTRA.VDW.0>
-0.219494

>  <SCORE.INTRA.norm>
-0.267903

>  <SCORE.RESTR>
0

>  <SCORE.RESTR.CAVITY>
0

>  <SCORE.RESTR.norm>
0

>  <SCORE.SYSTEM>
0

>  <SCORE.SYSTEM.CONST>
0

>  <SCORE.SYSTEM.DIHEDRAL>
0

>  <SCORE.SYSTEM.SOLV>
0

>  <SCORE.SYSTEM.norm>
0

>  <SCORE.heavy>
9

>  <SCORE.norm>
-1.5213

>  <RMSD>
5.576

$$$$
ligand
 OpenBabel02271912143D
libRbt.so/2013.1/901 2013/11/27
  9  8  0  0  0  0  0  0  0  0999 V2000
  -49.0275   67.7927  -18.2175 C   0  0  0  0  0  0  0  0  0  0  0  0
  -49.5678   68.7929  -17.6195 O   0  0  0  0  0  0  0  0  0  0  0  0
  -48.4557   67.9606  -19.5596 C   0  0  0  0  0  0  0  0  0  0  0  0
  -49.0120   66.6325  -17.6911 O   0  0  0  0  0  0  0  0  0  0  0  0
  -48.8924   66.9513  -20.5734 C   0  0  0  0  0  0  0  0  0  0  0  0
  -48.5139   67.1809  -21.9901 C   0  0  0  0  0  0  0  0  0  0  0  0
  -47.0189   67.1404  -22.2588 C   0  0  0  0  0  0  0  0  0  0  0  0
  -46.5023   67.3163  -23.6954 C   0  0  0  0  0  0  0  0  0  0  0  0
  -46.7983   68.4967  -24.3459 N   0  0  0  0  0  0  0  0  0  0  0  0
  1  2  1  0  0  0  0
  1  3  1  0  0  0  0
  1  4  1  0  0  0  0
  3  5  1  0  0  0  0
  5  6  1  0  0  0  0
  6  7  1  0  0  0  0
  7  8  1  0  0  0  0
  8  9  1  0  0  0  0
M  END
>  <CHROM.1>
-130.09236422,171.06573691,64.66575887,177.92739642,60.37231889,-48.21953200
67.58545833,-20.60656406,2.99915639,-1.17956720,2.97701526

>  <Name>
ligand

>  <RI>
0

>  <Rbt.Current_Directory>
/home/itssahil/PROJECTS/Mol_Feturizer/Test_systems_manuscript/rnas/4erj

>  <Rbt.Executable>
rbdock ($Id: //depot/dev/client3/rdock/2013.1/src/exe/rbdock.cxx#4 $)

>  <Rbt.Library>
libRbt.so (2013.1, Build901 2013/11/27)

>  <Rbt.Parameter_File>
/export/apps/rDock/src/rDock_2013.1_src/data/scripts/dock_solv.prm

>  <Rbt.Receptor>
prm/pocket_docking_6.prm

>  <SCORE>
-13.0101

>  <SCORE.INTER>
-10.6051

>  <SCORE.INTER.CONST>
1

>  <SCORE.INTER.POLAR>
0

>  <SCORE.INTER.ROT>
5

>  <SCORE.INTER.SOLV>
7.60543

>  <SCORE.INTER.VDW>
-16.5386

>  <SCORE.INTER.norm>
-1.17835

>  <SCORE.INTRA>
-2.40493

>  <SCORE.INTRA.DIHEDRAL>
-5.56341

>  <SCORE.INTRA.DIHEDRAL.0>
7.73744

>  <SCORE.INTRA.POLAR>
0

>  <SCORE.INTRA.POLAR.0>
0

>  <SCORE.INTRA.REPUL>
0

>  <SCORE.INTRA.REPUL.0>
0

>  <SCORE.INTRA.SOLV>
0.517345

>  <SCORE.INTRA.SOLV.lig_0>
-15.8342

>  <SCORE.INTRA.VDW>
0.118099

>  <SCORE.INTRA.VDW.0>
-0.219494

>  <SCORE.INTRA.norm>
-0.267215

>  <SCORE.RESTR>
0

>  <SCORE.RESTR.CAVITY>
0

>  <SCORE.RESTR.norm>
0

>  <SCORE.SYSTEM>
0

>  <SCORE.SYSTEM.CONST>
0

>  <SCORE.SYSTEM.DIHEDRAL>
0

>  <SCORE.SYSTEM.SOLV>
0

>  <SCORE.SYSTEM.norm>
0

>  <SCORE.heavy>
9

>  <SCORE.norm>
-1.44556

>  <RMSD>
5.576

$$$$
ligand
 OpenBabel02271912143D
libRbt.so/2013.1/901 2013/11/27
  9  8  0  0  0  0  0  0  0  0999 V2000
  -50.6480   69.5061  -18.8520 C   0  0  0  0  0  0  0  0  0  0  0  0
  -50.2027   70.3872  -19.6738 O   0  0  0  0  0  0  0  0  0  0  0  0
  -49.7157   68.5965  -18.1739 C   0  0  0  0  0  0  0  0  0  0  0  0
  -51.8964   69.3673  -18.6381 O   0  0  0  0  0  0  0  0  0  0  0  0
  -49.1489   67.5065  -19.0270 C   0  0  0  0  0  0  0  0  0  0  0  0
  -48.3195   67.8979  -20.1940 C   0  0  0  0  0  0  0  0  0  0  0  0
  -47.8580   66.7368  -21.0587 C   0  0  0  0  0  0  0  0  0  0  0  0
  -46.9826   67.0114  -22.2916 C   0  0  0  0  0  0  0  0  0  0  0  0
  -47.5046   67.8133  -23.2859 N   0  0  0  0  0  0  0  0  0  0  0  0
  1  2  1  0  0  0  0
  1  3  1  0  0  0  0
  1  4  1  0  0  0  0
  3  5  1  0  0  0  0
  5  6  1  0  0  0  0
  6  7  1  0  0  0  0
  7  8  1  0  0  0  0
  8  9  1  0  0  0  0
M  END
>  <CHROM.1>
-74.36788714,62.20512214,-176.21441416,-179.50970379,-60.50982147,-49.17713607
68.34313166,-20.12235386,2.80187268,-0.82040910,2.13308743

>  <Name>
ligand

>  <RI>
0

>  <Rbt.Current_Directory>
/home/itssahil/PROJECTS/Mol_Feturizer/Test_systems_manuscript/rnas/4erj

>  <Rbt.Executable>
rbdock ($Id: //depot/dev/client3/rdock/2013.1/src/exe/rbdock.cxx#4 $)

>  <Rbt.Library>
libRbt.so (2013.1, Build901 2013/11/27)

>  <Rbt.Parameter_File>
/export/apps/rDock/src/rDock_2013.1_src/data/scripts/dock_solv.prm

>  <Rbt.Receptor>
prm/pocket_docking_8.prm

>  <SCORE>
-14.1066

>  <SCORE.INTER>
-10.9174

>  <SCORE.INTER.CONST>
1

>  <SCORE.INTER.POLAR>
0

>  <SCORE.INTER.ROT>
5

>  <SCORE.INTER.SOLV>
7.50459

>  <SCORE.INTER.VDW>
-16.7131

>  <SCORE.INTER.norm>
-1.21304

>  <SCORE.INTRA>
-3.18925

>  <SCORE.INTRA.DIHEDRAL>
-6.04824

>  <SCORE.INTRA.DIHEDRAL.0>
7.73744

>  <SCORE.INTRA.POLAR>
0

>  <SCORE.INTRA.POLAR.0>
0

>  <SCORE.INTRA.REPUL>
0

>  <SCORE.INTRA.REPUL.0>
0

>  <SCORE.INTRA.SOLV>
0.521633

>  <SCORE.INTRA.SOLV.lig_0>
-15.8342

>  <SCORE.INTRA.VDW>
-0.425946

>  <SCORE.INTRA.VDW.0>
-0.219494

>  <SCORE.INTRA.norm>
-0.354361

>  <SCORE.RESTR>
0

>  <SCORE.RESTR.CAVITY>
0

>  <SCORE.RESTR.norm>
0

>  <SCORE.SYSTEM>
0

>  <SCORE.SYSTEM.CONST>
0

>  <SCORE.SYSTEM.DIHEDRAL>
0

>  <SCORE.SYSTEM.SOLV>
0

>  <SCORE.SYSTEM.norm>
0

>  <SCORE.heavy>
9

>  <SCORE.norm>
-1.5674

>  <RMSD>
5.576

$$$$
ligand
 OpenBabel02271912143D
libRbt.so/2013.1/901 2013/11/27
  9  8  0  0  0  0  0  0  0  0999 V2000
  -50.9768   70.3643  -19.3993 C   0  0  0  0  0  0  0  0  0  0  0  0
  -52.0477   70.0952  -18.7430 O   0  0  0  0  0  0  0  0  0  0  0  0
  -49.8095   69.4795  -19.2953 C   0  0  0  0  0  0  0  0  0  0  0  0
  -50.8814   71.4149  -20.1139 O   0  0  0  0  0  0  0  0  0  0  0  0
  -50.0225   68.2274  -18.5052 C   0  0  0  0  0  0  0  0  0  0  0  0
  -48.9112   67.2453  -18.4468 C   0  0  0  0  0  0  0  0  0  0  0  0
  -48.5612   66.6076  -19.7808 C   0  0  0  0  0  0  0  0  0  0  0  0
  -47.8774   67.4518  -20.8679 C   0  0  0  0  0  0  0  0  0  0  0  0
  -47.5194   66.8215  -22.0421 N   0  0  0  0  0  0  0  0  0  0  0  0
  1  2  1  0  0  0  0
  1  3  1  0  0  0  0
  1  4  1  0  0  0  0
  3  5  1  0  0  0  0
  5  6  1  0  0  0  0
  6  7  1  0  0  0  0
  7  8  1  0  0  0  0
  8  9  1  0  0  0  0
M  END
>  <CHROM.1>
5.71131375,175.61569852,-64.99263069,70.58770190,177.05348664,-49.65875069
68.67252391,-19.68442914,-2.87643785,-0.84053858,2.29078826

>  <Name>
ligand

>  <RI>
0

>  <Rbt.Current_Directory>
/home/itssahil/PROJECTS/Mol_Feturizer/Test_systems_manuscript/rnas/4erj

>  <Rbt.Executable>
rbdock ($Id: //depot/dev/client3/rdock/2013.1/src/exe/rbdock.cxx#4 $)

>  <Rbt.Library>
libRbt.so (2013.1, Build901 2013/11/27)

>  <Rbt.Parameter_File>
/export/apps/rDock/src/rDock_2013.1_src/data/scripts/dock_solv.prm

>  <Rbt.Receptor>
prm/pocket_docking_5.prm

>  <SCORE>
-14.2464

>  <SCORE.INTER>
-12.5533

>  <SCORE.INTER.CONST>
1

>  <SCORE.INTER.POLAR>
0

>  <SCORE.INTER.ROT>
5

>  <SCORE.INTER.SOLV>
9.03739

>  <SCORE.INTER.VDW>
-18.3147

>  <SCORE.INTER.norm>
-1.39481

>  <SCORE.INTRA>
-1.69307

>  <SCORE.INTRA.DIHEDRAL>
-5.40597

>  <SCORE.INTRA.DIHEDRAL.0>
7.73744

>  <SCORE.INTRA.POLAR>
0

>  <SCORE.INTRA.POLAR.0>
0

>  <SCORE.INTRA.REPUL>
0

>  <SCORE.INTRA.REPUL.0>
0

>  <SCORE.INTRA.SOLV>
0.176226

>  <SCORE.INTRA.SOLV.lig_0>
-15.8342

>  <SCORE.INTRA.VDW>
0.921806

>  <SCORE.INTRA.VDW.0>
-0.219494

>  <SCORE.INTRA.norm>
-0.188119

>  <SCORE.RESTR>
0

>  <SCORE.RESTR.CAVITY>
0

>  <SCORE.RESTR.norm>
0

>  <SCORE.SYSTEM>
0

>  <SCORE.SYSTEM.CONST>
0

>  <SCORE.SYSTEM.DIHEDRAL>
0

>  <SCORE.SYSTEM.SOLV>
0

>  <SCORE.SYSTEM.norm>
0

>  <SCORE.heavy>
9

>  <SCORE.norm>
-1.58293

>  <RMSD>
5.577

$$$$
ligand
 OpenBabel02271912143D
libRbt.so/2013.1/901 2013/11/27
  9  8  0  0  0  0  0  0  0  0999 V2000
  -49.6868   68.2910  -18.2460 C   0  0  0  0  0  0  0  0  0  0  0  0
  -49.4441   67.3765  -17.3772 O   0  0  0  0  0  0  0  0  0  0  0  0
  -48.5775   68.9645  -18.9330 C   0  0  0  0  0  0  0  0  0  0  0  0
  -50.8774   68.6667  -18.5009 O   0  0  0  0  0  0  0  0  0  0  0  0
  -48.3737   68.5696  -20.3613 C   0  0  0  0  0  0  0  0  0  0  0  0
  -47.9329   67.1804  -20.6418 C   0  0  0  0  0  0  0  0  0  0  0  0
  -47.9466   66.7983  -22.1123 C   0  0  0  0  0  0  0  0  0  0  0  0
  -47.0794   67.5851  -23.1077 C   0  0  0  0  0  0  0  0  0  0  0  0
  -45.7122   67.5707  -22.9217 N   0  0  0  0  0  0  0  0  0  0  0  0
  1  2  1  0  0  0  0
  1  3  1  0  0  0  0
  1  4  1  0  0  0  0
  3  5  1  0  0  0  0
  5  6  1  0  0  0  0
  6  7  1  0  0  0  0
  7  8  1  0  0  0  0
  8  9  1  0  0  0  0
M  END
>  <CHROM.1>
106.15776630,-66.59894303,171.41399006,60.13312384,61.53906222,-48.43774167
67.88700387,-20.20467990,-2.37192413,0.68263659,-1.17262328

>  <Name>
ligand

>  <RI>
0

>  <Rbt.Current_Directory>
/home/itssahil/PROJECTS/Mol_Feturizer/Test_systems_manuscript/rnas/4erj

>  <Rbt.Executable>
rbdock ($Id: //depot/dev/client3/rdock/2013.1/src/exe/rbdock.cxx#4 $)

>  <Rbt.Library>
libRbt.so (2013.1, Build901 2013/11/27)

>  <Rbt.Parameter_File>
/export/apps/rDock/src/rDock_2013.1_src/data/scripts/dock_solv.prm

>  <Rbt.Receptor>
prm/pocket_docking_7.prm

>  <SCORE>
-12.5028

>  <SCORE.INTER>
-10.0427

>  <SCORE.INTER.CONST>
1

>  <SCORE.INTER.POLAR>
0

>  <SCORE.INTER.ROT>
5

>  <SCORE.INTER.SOLV>
7.14797

>  <SCORE.INTER.VDW>
-16.0111

>  <SCORE.INTER.norm>
-1.11585

>  <SCORE.INTRA>
-2.46011

>  <SCORE.INTRA.DIHEDRAL>
-5.49236

>  <SCORE.INTRA.DIHEDRAL.0>
7.73744

>  <SCORE.INTRA.POLAR>
0

>  <SCORE.INTRA.POLAR.0>
0

>  <SCORE.INTRA.REPUL>
0

>  <SCORE.INTRA.REPUL.0>
0

>  <SCORE.INTRA.SOLV>
1.07169

>  <SCORE.INTRA.SOLV.lig_0>
-15.8342

>  <SCORE.INTRA.VDW>
-0.249773

>  <SCORE.INTRA.VDW.0>
-0.219494

>  <SCORE.INTRA.norm>
-0.273345

>  <SCORE.RESTR>
0

>  <SCORE.RESTR.CAVITY>
0

>  <SCORE.RESTR.norm>
0

>  <SCORE.SYSTEM>
0

>  <SCORE.SYSTEM.CONST>
0

>  <SCORE.SYSTEM.DIHEDRAL>
0

>  <SCORE.SYSTEM.SOLV>
0

>  <SCORE.SYSTEM.norm>
0

>  <SCORE.heavy>
9

>  <SCORE.norm>
-1.3892

>  <RMSD>
5.577

$$$$
ligand
 OpenBabel02271912143D
libRbt.so/2013.1/901 2013/11/27
  9  8  0  0  0  0  0  0  0  0999 V2000
  -49.1934   67.6372  -18.4003 C   0  0  0  0  0  0  0  0  0  0  0  0
  -48.6469   66.5115  -18.1103 O   0  0  0  0  0  0  0  0  0  0  0  0
  -49.5816   67.9299  -19.7860 C   0  0  0  0  0  0  0  0  0  0  0  0
  -49.3713   68.5373  -17.5162 O   0  0  0  0  0  0  0  0  0  0  0  0
  -48.4477   68.1318  -20.7403 C   0  0  0  0  0  0  0  0  0  0  0  0
  -48.7763   68.4041  -22.1619 C   0  0  0  0  0  0  0  0  0  0  0  0
  -47.5684   68.5724  -23.0682 C   0  0  0  0  0  0  0  0  0  0  0  0
  -46.6103   67.3898  -23.2813 C   0  0  0  0  0  0  0  0  0  0  0  0
  -45.5033   67.5941  -24.0794 N   0  0  0  0  0  0  0  0  0  0  0  0
  1  2  1  0  0  0  0
  1  3  1  0  0  0  0
  1  4  1  0  0  0  0
  3  5  1  0  0  0  0
  5  6  1  0  0  0  0
  6  7  1  0  0  0  0
  7  8  1  0  0  0  0
  8  9  1  0  0  0  0
M  END
>  <CHROM.1>
-69.45177893,178.79641813,-178.97554330,63.64878891,-178.09945593,-48.19865768
67.84972759,-20.73913784,-2.15582850,0.65444730,-1.16075517

>  <Name>
ligand

>  <RI>
0

>  <Rbt.Current_Directory>
/home/itssahil/PROJECTS/Mol_Feturizer/Test_systems_manuscript/rnas/4erj

>  <Rbt.Executable>
rbdock ($Id: //depot/dev/client3/rdock/2013.1/src/exe/rbdock.cxx#4 $)

>  <Rbt.Library>
libRbt.so (2013.1, Build901 2013/11/27)

>  <Rbt.Parameter_File>
/export/apps/rDock/src/rDock_2013.1_src/data/scripts/dock_solv.prm

>  <Rbt.Receptor>
prm/pocket_docking_6.prm

>  <SCORE>
-12.2996

>  <SCORE.INTER>
-9.11449

>  <SCORE.INTER.CONST>
1

>  <SCORE.INTER.POLAR>
0

>  <SCORE.INTER.ROT>
5

>  <SCORE.INTER.SOLV>
7.71485

>  <SCORE.INTER.VDW>
-15.5813

>  <SCORE.INTER.norm>
-1.01272

>  <SCORE.INTRA>
-3.18516

>  <SCORE.INTRA.DIHEDRAL>
-6.03068

>  <SCORE.INTRA.DIHEDRAL.0>
7.73744

>  <SCORE.INTRA.POLAR>
0

>  <SCORE.INTRA.POLAR.0>
0

>  <SCORE.INTRA.REPUL>
0

>  <SCORE.INTRA.REPUL.0>
0

>  <SCORE.INTRA.SOLV>
0.0504826

>  <SCORE.INTRA.SOLV.lig_0>
-15.8342

>  <SCORE.INTRA.VDW>
-0.195058

>  <SCORE.INTRA.VDW.0>
-0.219494

>  <SCORE.INTRA.norm>
-0.353906

>  <SCORE.RESTR>
0

>  <SCORE.RESTR.CAVITY>
0

>  <SCORE.RESTR.norm>
0

>  <SCORE.SYSTEM>
0

>  <SCORE.SYSTEM.CONST>
0

>  <SCORE.SYSTEM.DIHEDRAL>
0

>  <SCORE.SYSTEM.SOLV>
0

>  <SCORE.SYSTEM.norm>
0

>  <SCORE.heavy>
9

>  <SCORE.norm>
-1.36663

>  <RMSD>
5.579

$$$$
ligand
 OpenBabel02271912143D
libRbt.so/2013.1/901 2013/11/27
  9  8  0  0  0  0  0  0  0  0999 V2000
  -50.7360   69.6331  -18.9550 C   0  0  0  0  0  0  0  0  0  0  0  0
  -50.2648   70.4967  -19.7809 O   0  0  0  0  0  0  0  0  0  0  0  0
  -49.8420   68.6496  -18.3307 C   0  0  0  0  0  0  0  0  0  0  0  0
  -51.9813   69.5760  -18.6911 O   0  0  0  0  0  0  0  0  0  0  0  0
  -49.3253   67.5829  -19.2431 C   0  0  0  0  0  0  0  0  0  0  0  0
  -48.4447   67.9947  -20.3647 C   0  0  0  0  0  0  0  0  0  0  0  0
  -48.0575   66.8695  -21.3095 C   0  0  0  0  0  0  0  0  0  0  0  0
  -47.1007   67.1564  -22.4774 C   0  0  0  0  0  0  0  0  0  0  0  0
  -47.4740   68.1179  -23.3941 N   0  0  0  0  0  0  0  0  0  0  0  0
  1  2  1  0  0  0  0
  1  3  1  0  0  0  0
  1  4  1  0  0  0  0
  3  5  1  0  0  0  0
  5  6  1  0  0  0  0
  6  7  1  0  0  0  0
  7  8  1  0  0  0  0
  8  9  1  0  0  0  0
M  END
>  <CHROM.1>
-71.06092112,64.28528312,-175.17967566,-177.44525615,-58.52349913,-49.28199541
68.48322892,-20.27111174,2.88763286,-0.84581792,2.27249338

>  <Name>
ligand

>  <RI>
0

>  <Rbt.Current_Directory>
/home/itssahil/PROJECTS/Mol_Feturizer/Test_systems_manuscript/rnas/4erj

>  <Rbt.Executable>
rbdock ($Id: //depot/dev/client3/rdock/2013.1/src/exe/rbdock.cxx#4 $)

>  <Rbt.Library>
libRbt.so (2013.1, Build901 2013/11/27)

>  <Rbt.Parameter_File>
/export/apps/rDock/src/rDock_2013.1_src/data/scripts/dock_solv.prm

>  <Rbt.Receptor>
prm/pocket_docking_6.prm

>  <SCORE>
-14.0794

>  <SCORE.INTER>
-10.9719

>  <SCORE.INTER.CONST>
1

>  <SCORE.INTER.POLAR>
0

>  <SCORE.INTER.ROT>
5

>  <SCORE.INTER.SOLV>
7.03474

>  <SCORE.INTER.VDW>
-16.5929

>  <SCORE.INTER.norm>
-1.21911

>  <SCORE.INTRA>
-3.10742

>  <SCORE.INTRA.DIHEDRAL>
-5.90827

>  <SCORE.INTRA.DIHEDRAL.0>
7.73744

>  <SCORE.INTRA.POLAR>
0

>  <SCORE.INTRA.POLAR.0>
0

>  <SCORE.INTRA.REPUL>
0

>  <SCORE.INTRA.REPUL.0>
0

>  <SCORE.INTRA.SOLV>
0.533702

>  <SCORE.INTRA.SOLV.lig_0>
-15.8342

>  <SCORE.INTRA.VDW>
-0.420136

>  <SCORE.INTRA.VDW.0>
-0.219494

>  <SCORE.INTRA.norm>
-0.345269

>  <SCORE.RESTR>
0

>  <SCORE.RESTR.CAVITY>
0

>  <SCORE.RESTR.norm>
0

>  <SCORE.SYSTEM>
0

>  <SCORE.SYSTEM.CONST>
0

>  <SCORE.SYSTEM.DIHEDRAL>
0

>  <SCORE.SYSTEM.SOLV>
0

>  <SCORE.SYSTEM.norm>
0

>  <SCORE.heavy>
9

>  <SCORE.norm>
-1.56437

>  <RMSD>
5.584

$$$$
ligand
 OpenBabel02271912143D
libRbt.so/2013.1/901 2013/11/27
  9  8  0  0  0  0  0  0  0  0999 V2000
  -50.7408   69.6017  -18.9364 C   0  0  0  0  0  0  0  0  0  0  0  0
  -50.2843   70.4662  -19.7696 O   0  0  0  0  0  0  0  0  0  0  0  0
  -49.8306   68.6367  -18.3065 C   0  0  0  0  0  0  0  0  0  0  0  0
  -51.9845   69.5276  -18.6698 O   0  0  0  0  0  0  0  0  0  0  0  0
  -49.3227   67.5539  -19.2048 C   0  0  0  0  0  0  0  0  0  0  0  0
  -48.4561   67.9461  -20.3442 C   0  0  0  0  0  0  0  0  0  0  0  0
  -48.0765   66.8037  -21.2713 C   0  0  0  0  0  0  0  0  0  0  0  0
  -47.1372   67.0711  -22.4579 C   0  0  0  0  0  0  0  0  0  0  0  0
  -47.5434   67.9868  -23.4069 N   0  0  0  0  0  0  0  0  0  0  0  0
  1  2  1  0  0  0  0
  1  3  1  0  0  0  0
  1  4  1  0  0  0  0
  3  5  1  0  0  0  0
  5  6  1  0  0  0  0
  6  7  1  0  0  0  0
  7  8  1  0  0  0  0
  8  9  1  0  0  0  0
M  END
>  <CHROM.1>
-72.33093030,64.66558851,-175.24712042,-177.62099679,-60.17131053,-49.29863567
68.42964642,-20.25131482,2.86313723,-0.85121733,2.23072586

>  <Name>
ligand

>  <RI>
0

>  <Rbt.Current_Directory>
/home/itssahil/PROJECTS/Mol_Feturizer/Test_systems_manuscript/rnas/4erj

>  <Rbt.Executable>
rbdock ($Id: //depot/dev/client3/rdock/2013.1/src/exe/rbdock.cxx#4 $)

>  <Rbt.Library>
libRbt.so (2013.1, Build901 2013/11/27)

>  <Rbt.Parameter_File>
/export/apps/rDock/src/rDock_2013.1_src/data/scripts/dock_solv.prm

>  <Rbt.Receptor>
prm/pocket_docking_6.prm

>  <SCORE>
-14.1439

>  <SCORE.INTER>
-11.0059

>  <SCORE.INTER.CONST>
1

>  <SCORE.INTER.POLAR>
0

>  <SCORE.INTER.ROT>
5

>  <SCORE.INTER.SOLV>
7.31046

>  <SCORE.INTER.VDW>
-16.7074

>  <SCORE.INTER.norm>
-1.22288

>  <SCORE.INTRA>
-3.13798

>  <SCORE.INTRA.DIHEDRAL>
-5.9138

>  <SCORE.INTRA.DIHEDRAL.0>
7.73744

>  <SCORE.INTRA.POLAR>
0

>  <SCORE.INTRA.POLAR.0>
0

>  <SCORE.INTRA.REPUL>
0

>  <SCORE.INTRA.REPUL.0>
0

>  <SCORE.INTRA.SOLV>
0.518116

>  <SCORE.INTRA.SOLV.lig_0>
-15.8342

>  <SCORE.INTRA.VDW>
-0.440141

>  <SCORE.INTRA.VDW.0>
-0.219494

>  <SCORE.INTRA.norm>
-0.348665

>  <SCORE.RESTR>
0

>  <SCORE.RESTR.CAVITY>
0

>  <SCORE.RESTR.norm>
0

>  <SCORE.SYSTEM>
0

>  <SCORE.SYSTEM.CONST>
0

>  <SCORE.SYSTEM.DIHEDRAL>
0

>  <SCORE.SYSTEM.SOLV>
0

>  <SCORE.SYSTEM.norm>
0

>  <SCORE.heavy>
9

>  <SCORE.norm>
-1.57154

>  <RMSD>
5.588

$$$$
ligand
 OpenBabel02271912143D
libRbt.so/2013.1/901 2013/11/27
  9  8  0  0  0  0  0  0  0  0999 V2000
  -49.5919   68.4725  -18.3811 C   0  0  0  0  0  0  0  0  0  0  0  0
  -48.6226   69.2523  -18.0612 O   0  0  0  0  0  0  0  0  0  0  0  0
  -49.3356   67.0499  -18.6397 C   0  0  0  0  0  0  0  0  0  0  0  0
  -50.7791   68.9122  -18.5254 O   0  0  0  0  0  0  0  0  0  0  0  0
  -48.2144   66.7624  -19.5871 C   0  0  0  0  0  0  0  0  0  0  0  0
  -48.3014   67.3254  -20.9577 C   0  0  0  0  0  0  0  0  0  0  0  0
  -47.0423   67.1560  -21.7911 C   0  0  0  0  0  0  0  0  0  0  0  0
  -46.9849   67.7515  -23.2067 C   0  0  0  0  0  0  0  0  0  0  0  0
  -45.7883   67.6739  -23.8896 N   0  0  0  0  0  0  0  0  0  0  0  0
  1  2  1  0  0  0  0
  1  3  1  0  0  0  0
  1  4  1  0  0  0  0
  3  5  1  0  0  0  0
  5  6  1  0  0  0  0
  6  7  1  0  0  0  0
  7  8  1  0  0  0  0
  8  9  1  0  0  0  0
M  END
>  <CHROM.1>
-49.74148029,-58.62649364,171.76313357,-177.31569033,174.73986356,-48.31886122
67.84600288,-20.30499168,3.12069269,-0.99258621,2.91811602

>  <Name>
ligand

>  <RI>
0

>  <Rbt.Current_Directory>
/home/itssahil/PROJECTS/Mol_Feturizer/Test_systems_manuscript/rnas/4erj

>  <Rbt.Executable>
rbdock ($Id: //depot/dev/client3/rdock/2013.1/src/exe/rbdock.cxx#4 $)

>  <Rbt.Library>
libRbt.so (2013.1, Build901 2013/11/27)

>  <Rbt.Parameter_File>
/export/apps/rDock/src/rDock_2013.1_src/data/scripts/dock_solv.prm

>  <Rbt.Receptor>
prm/blind_docking_100.prm

>  <SCORE>
-13.2333

>  <SCORE.INTER>
-10.1067

>  <SCORE.INTER.CONST>
1

>  <SCORE.INTER.POLAR>
0

>  <SCORE.INTER.ROT>
5

>  <SCORE.INTER.SOLV>
8.05951

>  <SCORE.INTER.VDW>
-16.3576

>  <SCORE.INTER.norm>
-1.12296

>  <SCORE.INTRA>
-3.12665

>  <SCORE.INTRA.DIHEDRAL>
-5.58889

>  <SCORE.INTRA.DIHEDRAL.0>
7.73744

>  <SCORE.INTRA.POLAR>
0

>  <SCORE.INTRA.POLAR.0>
0

>  <SCORE.INTRA.REPUL>
0

>  <SCORE.INTRA.REPUL.0>
0

>  <SCORE.INTRA.SOLV>
-0.122332

>  <SCORE.INTRA.SOLV.lig_0>
-15.8342

>  <SCORE.INTRA.VDW>
-0.271043

>  <SCORE.INTRA.VDW.0>
-0.219494

>  <SCORE.INTRA.norm>
-0.347406

>  <SCORE.RESTR>
0

>  <SCORE.RESTR.CAVITY>
0

>  <SCORE.RESTR.norm>
0

>  <SCORE.SYSTEM>
0

>  <SCORE.SYSTEM.CONST>
0

>  <SCORE.SYSTEM.DIHEDRAL>
0

>  <SCORE.SYSTEM.SOLV>
0

>  <SCORE.SYSTEM.norm>
0

>  <SCORE.heavy>
9

>  <SCORE.norm>
-1.47037

>  <RMSD>
5.590

$$$$
ligand
 OpenBabel02271912143D
libRbt.so/2013.1/901 2013/11/27
  9  8  0  0  0  0  0  0  0  0999 V2000
  -50.9404   69.4966  -19.1260 C   0  0  0  0  0  0  0  0  0  0  0  0
  -50.6449   70.0220  -20.2602 O   0  0  0  0  0  0  0  0  0  0  0  0
  -49.9426   68.6963  -18.4048 C   0  0  0  0  0  0  0  0  0  0  0  0
  -52.1046   69.6146  -18.6218 O   0  0  0  0  0  0  0  0  0  0  0  0
  -48.8147   68.1755  -19.2379 C   0  0  0  0  0  0  0  0  0  0  0  0
  -49.1382   67.2167  -20.3237 C   0  0  0  0  0  0  0  0  0  0  0  0
  -47.9476   66.7920  -21.1667 C   0  0  0  0  0  0  0  0  0  0  0  0
  -47.1875   67.8446  -21.9890 C   0  0  0  0  0  0  0  0  0  0  0  0
  -46.1283   67.4154  -22.7624 N   0  0  0  0  0  0  0  0  0  0  0  0
  1  2  1  0  0  0  0
  1  3  1  0  0  0  0
  1  4  1  0  0  0  0
  3  5  1  0  0  0  0
  5  6  1  0  0  0  0
  6  7  1  0  0  0  0
  7  8  1  0  0  0  0
  8  9  1  0  0  0  0
M  END
>  <CHROM.1>
-19.53714209,-63.52275360,177.01076773,-62.63852269,-178.74183707,-49.24540792
68.39085195,-20.20327009,2.96138490,-0.70712423,2.25853575

>  <Name>
ligand

>  <RI>
0

>  <Rbt.Current_Directory>
/home/itssahil/PROJECTS/Mol_Feturizer/Test_systems_manuscript/rnas/4erj

>  <Rbt.Executable>
rbdock ($Id: //depot/dev/client3/rdock/2013.1/src/exe/rbdock.cxx#4 $)

>  <Rbt.Library>
libRbt.so (2013.1, Build901 2013/11/27)

>  <Rbt.Parameter_File>
/export/apps/rDock/src/rDock_2013.1_src/data/scripts/dock_solv.prm

>  <Rbt.Receptor>
prm/pocket_docking_3.prm

>  <SCORE>
-13.4887

>  <SCORE.INTER>
-10.9158

>  <SCORE.INTER.CONST>
1

>  <SCORE.INTER.POLAR>
0

>  <SCORE.INTER.ROT>
5

>  <SCORE.INTER.SOLV>
6.87326

>  <SCORE.INTER.VDW>
-16.5016

>  <SCORE.INTER.norm>
-1.21287

>  <SCORE.INTRA>
-2.57293

>  <SCORE.INTRA.DIHEDRAL>
-5.84404

>  <SCORE.INTRA.DIHEDRAL.0>
7.73744

>  <SCORE.INTRA.POLAR>
0

>  <SCORE.INTRA.POLAR.0>
0

>  <SCORE.INTRA.REPUL>
0

>  <SCORE.INTRA.REPUL.0>
0

>  <SCORE.INTRA.SOLV>
0.0348362

>  <SCORE.INTRA.SOLV.lig_0>
-15.8342

>  <SCORE.INTRA.VDW>
0.33167

>  <SCORE.INTRA.VDW.0>
-0.219494

>  <SCORE.INTRA.norm>
-0.285882

>  <SCORE.RESTR>
0

>  <SCORE.RESTR.CAVITY>
0

>  <SCORE.RESTR.norm>
0

>  <SCORE.SYSTEM>
0

>  <SCORE.SYSTEM.CONST>
0

>  <SCORE.SYSTEM.DIHEDRAL>
0

>  <SCORE.SYSTEM.SOLV>
0

>  <SCORE.SYSTEM.norm>
0

>  <SCORE.heavy>
9

>  <SCORE.norm>
-1.49875

>  <RMSD>
5.590

$$$$
ligand
 OpenBabel02271912143D
libRbt.so/2013.1/901 2013/11/27
  9  8  0  0  0  0  0  0  0  0999 V2000
  -49.0515   67.8515  -18.2988 C   0  0  0  0  0  0  0  0  0  0  0  0
  -49.2411   66.6288  -17.9540 O   0  0  0  0  0  0  0  0  0  0  0  0
  -48.2167   68.1647  -19.4655 C   0  0  0  0  0  0  0  0  0  0  0  0
  -49.5378   68.8159  -17.6228 O   0  0  0  0  0  0  0  0  0  0  0  0
  -48.9629   68.4418  -20.7319 C   0  0  0  0  0  0  0  0  0  0  0  0
  -48.1799   68.8541  -21.9236 C   0  0  0  0  0  0  0  0  0  0  0  0
  -47.2084   67.8038  -22.4352 C   0  0  0  0  0  0  0  0  0  0  0  0
  -46.2239   68.1655  -23.5585 C   0  0  0  0  0  0  0  0  0  0  0  0
  -46.7466   68.6360  -24.7457 N   0  0  0  0  0  0  0  0  0  0  0  0
  1  2  1  0  0  0  0
  1  3  1  0  0  0  0
  1  4  1  0  0  0  0
  3  5  1  0  0  0  0
  5  6  1  0  0  0  0
  6  7  1  0  0  0  0
  7  8  1  0  0  0  0
  8  9  1  0  0  0  0
M  END
>  <CHROM.1>
98.49527192,175.96374350,63.67927048,-172.88032245,-57.09096688,-48.17625812
68.14277354,-20.69521208,-2.38458870,0.99967647,-0.74840162

>  <Name>
ligand

>  <RI>
0

>  <Rbt.Current_Directory>
/home/itssahil/PROJECTS/Mol_Feturizer/Test_systems_manuscript/rnas/4erj

>  <Rbt.Executable>
rbdock ($Id: //depot/dev/client3/rdock/2013.1/src/exe/rbdock.cxx#4 $)

>  <Rbt.Library>
libRbt.so (2013.1, Build901 2013/11/27)

>  <Rbt.Parameter_File>
/export/apps/rDock/src/rDock_2013.1_src/data/scripts/dock_solv.prm

>  <Rbt.Receptor>
prm/pocket_docking_3.prm

>  <SCORE>
-11.1893

>  <SCORE.INTER>
-8.54336

>  <SCORE.INTER.CONST>
1

>  <SCORE.INTER.POLAR>
0

>  <SCORE.INTER.ROT>
5

>  <SCORE.INTER.SOLV>
7.19137

>  <SCORE.INTER.VDW>
-15.026

>  <SCORE.INTER.norm>
-0.949262

>  <SCORE.INTRA>
-2.64598

>  <SCORE.INTRA.DIHEDRAL>
-5.5973

>  <SCORE.INTRA.DIHEDRAL.0>
7.73744

>  <SCORE.INTRA.POLAR>
0

>  <SCORE.INTRA.POLAR.0>
0

>  <SCORE.INTRA.REPUL>
0

>  <SCORE.INTRA.REPUL.0>
0

>  <SCORE.INTRA.SOLV>
0.533955

>  <SCORE.INTRA.SOLV.lig_0>
-15.8342

>  <SCORE.INTRA.VDW>
-0.11431

>  <SCORE.INTRA.VDW.0>
-0.219494

>  <SCORE.INTRA.norm>
-0.293998

>  <SCORE.RESTR>
0

>  <SCORE.RESTR.CAVITY>
0

>  <SCORE.RESTR.norm>
0

>  <SCORE.SYSTEM>
0

>  <SCORE.SYSTEM.CONST>
0

>  <SCORE.SYSTEM.DIHEDRAL>
0

>  <SCORE.SYSTEM.SOLV>
0

>  <SCORE.SYSTEM.norm>
0

>  <SCORE.heavy>
9

>  <SCORE.norm>
-1.24326

>  <RMSD>
5.591

$$$$
ligand
 OpenBabel02271912143D
libRbt.so/2013.1/901 2013/11/27
  9  8  0  0  0  0  0  0  0  0999 V2000
  -49.1489   67.3477  -18.5049 C   0  0  0  0  0  0  0  0  0  0  0  0
  -49.4305   67.1845  -17.2623 O   0  0  0  0  0  0  0  0  0  0  0  0
  -48.9954   68.7019  -19.0517 C   0  0  0  0  0  0  0  0  0  0  0  0
  -49.0403   66.3562  -19.2978 O   0  0  0  0  0  0  0  0  0  0  0  0
  -47.8518   68.8852  -19.9982 C   0  0  0  0  0  0  0  0  0  0  0  0
  -47.8642   68.1065  -21.2618 C   0  0  0  0  0  0  0  0  0  0  0  0
  -46.5913   68.2169  -22.0841 C   0  0  0  0  0  0  0  0  0  0  0  0
  -46.4776   67.4500  -23.4110 C   0  0  0  0  0  0  0  0  0  0  0  0
  -45.3095   67.5833  -24.1334 N   0  0  0  0  0  0  0  0  0  0  0  0
  1  2  1  0  0  0  0
  1  3  1  0  0  0  0
  1  4  1  0  0  0  0
  3  5  1  0  0  0  0
  5  6  1  0  0  0  0
  6  7  1  0  0  0  0
  7  8  1  0  0  0  0
  8  9  1  0  0  0  0
M  END
>  <CHROM.1>
137.95703144,62.52942463,-172.75480637,179.65807344,179.55584948,-47.87911273
67.73519654,-20.51775534,3.00501193,1.01510801,0.22390473

>  <Name>
ligand

>  <RI>
0

>  <Rbt.Current_Directory>
/home/itssahil/PROJECTS/Mol_Feturizer/Test_systems_manuscript/rnas/4erj

>  <Rbt.Executable>
rbdock ($Id: //depot/dev/client3/rdock/2013.1/src/exe/rbdock.cxx#4 $)

>  <Rbt.Library>
libRbt.so (2013.1, Build901 2013/11/27)

>  <Rbt.Parameter_File>
/export/apps/rDock/src/rDock_2013.1_src/data/scripts/dock_solv.prm

>  <Rbt.Receptor>
prm/pocket_docking_4.prm

>  <SCORE>
-12.228

>  <SCORE.INTER>
-9.4056

>  <SCORE.INTER.CONST>
1

>  <SCORE.INTER.POLAR>
0

>  <SCORE.INTER.ROT>
5

>  <SCORE.INTER.SOLV>
8.228

>  <SCORE.INTER.VDW>
-15.9464

>  <SCORE.INTER.norm>
-1.04507

>  <SCORE.INTRA>
-2.83088

>  <SCORE.INTRA.DIHEDRAL>
-5.88947

>  <SCORE.INTRA.DIHEDRAL.0>
7.73744

>  <SCORE.INTRA.POLAR>
0

>  <SCORE.INTRA.POLAR.0>
0

>  <SCORE.INTRA.REPUL>
0

>  <SCORE.INTRA.REPUL.0>
0

>  <SCORE.INTRA.SOLV>
-0.124301

>  <SCORE.INTRA.SOLV.lig_0>
-15.8342

>  <SCORE.INTRA.VDW>
0.176001

>  <SCORE.INTRA.VDW.0>
-0.219494

>  <SCORE.INTRA.norm>
-0.314543

>  <SCORE.RESTR>
0.00852996

>  <SCORE.RESTR.CAVITY>
0.00852996

>  <SCORE.RESTR.norm>
0.000947773

>  <SCORE.SYSTEM>
0

>  <SCORE.SYSTEM.CONST>
0

>  <SCORE.SYSTEM.DIHEDRAL>
0

>  <SCORE.SYSTEM.SOLV>
0

>  <SCORE.SYSTEM.norm>
0

>  <SCORE.heavy>
9

>  <SCORE.norm>
-1.35866

>  <RMSD>
5.592

$$$$
ligand
 OpenBabel02271912143D
libRbt.so/2013.1/901 2013/11/27
  9  8  0  0  0  0  0  0  0  0999 V2000
  -50.7493   69.6150  -18.9475 C   0  0  0  0  0  0  0  0  0  0  0  0
  -50.2465   70.5070  -19.7230 O   0  0  0  0  0  0  0  0  0  0  0  0
  -49.8788   68.6136  -18.3183 C   0  0  0  0  0  0  0  0  0  0  0  0
  -52.0045   69.5456  -18.7398 O   0  0  0  0  0  0  0  0  0  0  0  0
  -49.3799   67.5358  -19.2276 C   0  0  0  0  0  0  0  0  0  0  0  0
  -48.4686   67.9257  -20.3324 C   0  0  0  0  0  0  0  0  0  0  0  0
  -48.0897   66.7906  -21.2688 C   0  0  0  0  0  0  0  0  0  0  0  0
  -47.0721   67.0431  -22.3924 C   0  0  0  0  0  0  0  0  0  0  0  0
  -47.3762   68.0073  -23.3315 N   0  0  0  0  0  0  0  0  0  0  0  0
  1  2  1  0  0  0  0
  1  3  1  0  0  0  0
  1  4  1  0  0  0  0
  3  5  1  0  0  0  0
  5  6  1  0  0  0  0
  6  7  1  0  0  0  0
  7  8  1  0  0  0  0
  8  9  1  0  0  0  0
M  END
>  <CHROM.1>
-74.31089166,65.21436838,-175.74485648,-175.61651677,-59.76305076,-49.28615663
68.42924461,-20.24207669,2.95771061,-0.85084902,2.33650910

>  <Name>
ligand

>  <RI>
0

>  <Rbt.Current_Directory>
/home/itssahil/PROJECTS/Mol_Feturizer/Test_systems_manuscript/rnas/4erj

>  <Rbt.Executable>
rbdock ($Id: //depot/dev/client3/rdock/2013.1/src/exe/rbdock.cxx#4 $)

>  <Rbt.Library>
libRbt.so (2013.1, Build901 2013/11/27)

>  <Rbt.Parameter_File>
/export/apps/rDock/src/rDock_2013.1_src/data/scripts/dock_solv.prm

>  <Rbt.Receptor>
prm/pocket_docking_6.prm

>  <SCORE>
-14.0848

>  <SCORE.INTER>
-10.9521

>  <SCORE.INTER.CONST>
1

>  <SCORE.INTER.POLAR>
0

>  <SCORE.INTER.ROT>
5

>  <SCORE.INTER.SOLV>
7.02705

>  <SCORE.INTER.VDW>
-16.5771

>  <SCORE.INTER.norm>
-1.2169

>  <SCORE.INTRA>
-3.13268

>  <SCORE.INTRA.DIHEDRAL>
-5.86088

>  <SCORE.INTRA.DIHEDRAL.0>
7.73744

>  <SCORE.INTRA.POLAR>
0

>  <SCORE.INTRA.POLAR.0>
0

>  <SCORE.INTRA.REPUL>
0

>  <SCORE.INTRA.REPUL.0>
0

>  <SCORE.INTRA.SOLV>
0.515337

>  <SCORE.INTRA.SOLV.lig_0>
-15.8342

>  <SCORE.INTRA.VDW>
-0.459912

>  <SCORE.INTRA.VDW.0>
-0.219494

>  <SCORE.INTRA.norm>
-0.348076

>  <SCORE.RESTR>
0

>  <SCORE.RESTR.CAVITY>
0

>  <SCORE.RESTR.norm>
0

>  <SCORE.SYSTEM>
0

>  <SCORE.SYSTEM.CONST>
0

>  <SCORE.SYSTEM.DIHEDRAL>
0

>  <SCORE.SYSTEM.SOLV>
0

>  <SCORE.SYSTEM.norm>
0

>  <SCORE.heavy>
9

>  <SCORE.norm>
-1.56498

>  <RMSD>
5.592

$$$$
ligand
 OpenBabel02271912143D
libRbt.so/2013.1/901 2013/11/27
  9  8  0  0  0  0  0  0  0  0999 V2000
  -50.8347   69.6811  -18.9838 C   0  0  0  0  0  0  0  0  0  0  0  0
  -50.3136   70.5994  -19.7153 O   0  0  0  0  0  0  0  0  0  0  0  0
  -49.9801   68.6551  -18.3729 C   0  0  0  0  0  0  0  0  0  0  0  0
  -52.0943   69.6077  -18.8058 O   0  0  0  0  0  0  0  0  0  0  0  0
  -48.6758   68.4126  -19.0639 C   0  0  0  0  0  0  0  0  0  0  0  0
  -48.7123   67.9069  -20.4589 C   0  0  0  0  0  0  0  0  0  0  0  0
  -47.3487   67.6028  -21.0562 C   0  0  0  0  0  0  0  0  0  0  0  0
  -47.2453   67.1709  -22.5275 C   0  0  0  0  0  0  0  0  0  0  0  0
  -47.6281   68.0790  -23.4934 N   0  0  0  0  0  0  0  0  0  0  0  0
  1  2  1  0  0  0  0
  1  3  1  0  0  0  0
  1  4  1  0  0  0  0
  3  5  1  0  0  0  0
  5  6  1  0  0  0  0
  6  7  1  0  0  0  0
  7  8  1  0  0  0  0
  8  9  1  0  0  0  0
M  END
>  <CHROM.1>
-23.88158928,-62.56476321,-176.25958671,-175.55953199,64.15486428,-49.23984125
68.66391553,-20.26386592,2.58072101,-0.67776645,1.82842928

>  <Name>
ligand

>  <RI>
0

>  <Rbt.Current_Directory>
/home/itssahil/PROJECTS/Mol_Feturizer/Test_systems_manuscript/rnas/4erj

>  <Rbt.Executable>
rbdock ($Id: //depot/dev/client3/rdock/2013.1/src/exe/rbdock.cxx#4 $)

>  <Rbt.Library>
libRbt.so (2013.1, Build901 2013/11/27)

>  <Rbt.Parameter_File>
/export/apps/rDock/src/rDock_2013.1_src/data/scripts/dock_solv.prm

>  <Rbt.Receptor>
prm/pocket_docking_7.prm

>  <SCORE>
-12.6709

>  <SCORE.INTER>
-10.1217

>  <SCORE.INTER.CONST>
1

>  <SCORE.INTER.POLAR>
0

>  <SCORE.INTER.ROT>
5

>  <SCORE.INTER.SOLV>
7.06806

>  <SCORE.INTER.VDW>
-16.0372

>  <SCORE.INTER.norm>
-1.12463

>  <SCORE.INTRA>
-2.54918

>  <SCORE.INTRA.DIHEDRAL>
-5.72671

>  <SCORE.INTRA.DIHEDRAL.0>
7.73744

>  <SCORE.INTRA.POLAR>
0

>  <SCORE.INTRA.POLAR.0>
0

>  <SCORE.INTRA.REPUL>
0

>  <SCORE.INTRA.REPUL.0>
0

>  <SCORE.INTRA.SOLV>
0.5068

>  <SCORE.INTRA.SOLV.lig_0>
-15.8342

>  <SCORE.INTRA.VDW>
0.0607712

>  <SCORE.INTRA.VDW.0>
-0.219494

>  <SCORE.INTRA.norm>
-0.283242

>  <SCORE.RESTR>
0

>  <SCORE.RESTR.CAVITY>
0

>  <SCORE.RESTR.norm>
0

>  <SCORE.SYSTEM>
0

>  <SCORE.SYSTEM.CONST>
0

>  <SCORE.SYSTEM.DIHEDRAL>
0

>  <SCORE.SYSTEM.SOLV>
0

>  <SCORE.SYSTEM.norm>
0

>  <SCORE.heavy>
9

>  <SCORE.norm>
-1.40788

>  <RMSD>
5.594

$$$$
ligand
 OpenBabel02271912143D
libRbt.so/2013.1/901 2013/11/27
  9  8  0  0  0  0  0  0  0  0999 V2000
  -49.2817   67.8749  -18.3233 C   0  0  0  0  0  0  0  0  0  0  0  0
  -48.9455   69.0398  -17.8993 O   0  0  0  0  0  0  0  0  0  0  0  0
  -49.7449   67.7018  -19.7060 C   0  0  0  0  0  0  0  0  0  0  0  0
  -49.2663   66.8580  -17.5557 O   0  0  0  0  0  0  0  0  0  0  0  0
  -48.7083   67.9215  -20.7617 C   0  0  0  0  0  0  0  0  0  0  0  0
  -47.5938   66.9456  -20.8547 C   0  0  0  0  0  0  0  0  0  0  0  0
  -46.5184   67.3094  -21.8645 C   0  0  0  0  0  0  0  0  0  0  0  0
  -46.8755   67.3853  -23.3574 C   0  0  0  0  0  0  0  0  0  0  0  0
  -45.8888   67.7842  -24.2357 N   0  0  0  0  0  0  0  0  0  0  0  0
  1  2  1  0  0  0  0
  1  3  1  0  0  0  0
  1  4  1  0  0  0  0
  3  5  1  0  0  0  0
  5  6  1  0  0  0  0
  6  7  1  0  0  0  0
  7  8  1  0  0  0  0
  8  9  1  0  0  0  0
M  END
>  <CHROM.1>
67.76710108,67.85557346,-174.62598469,-63.67614802,176.80627619,-48.10432372
67.65239987,-20.45465697,2.91944038,-1.05790985,2.82108607

>  <Name>
ligand

>  <RI>
0

>  <Rbt.Current_Directory>
/home/itssahil/PROJECTS/Mol_Feturizer/Test_systems_manuscript/rnas/4erj

>  <Rbt.Executable>
rbdock ($Id: //depot/dev/client3/rdock/2013.1/src/exe/rbdock.cxx#4 $)

>  <Rbt.Library>
libRbt.so (2013.1, Build901 2013/11/27)

>  <Rbt.Parameter_File>
/export/apps/rDock/src/rDock_2013.1_src/data/scripts/dock_solv.prm

>  <Rbt.Receptor>
prm/pocket_docking_4.prm

>  <SCORE>
-11.6462

>  <SCORE.INTER>
-8.67853

>  <SCORE.INTER.CONST>
1

>  <SCORE.INTER.POLAR>
0

>  <SCORE.INTER.ROT>
5

>  <SCORE.INTER.SOLV>
8.16496

>  <SCORE.INTER.VDW>
-15.4407

>  <SCORE.INTER.norm>
-0.964282

>  <SCORE.INTRA>
-2.96834

>  <SCORE.INTRA.DIHEDRAL>
-5.55265

>  <SCORE.INTRA.DIHEDRAL.0>
7.73744

>  <SCORE.INTRA.POLAR>
0

>  <SCORE.INTRA.POLAR.0>
0

>  <SCORE.INTRA.REPUL>
0

>  <SCORE.INTRA.REPUL.0>
0

>  <SCORE.INTRA.SOLV>
0.0508479

>  <SCORE.INTRA.SOLV.lig_0>
-15.8342

>  <SCORE.INTRA.VDW>
-0.21744

>  <SCORE.INTRA.VDW.0>
-0.219494

>  <SCORE.INTRA.norm>
-0.329816

>  <SCORE.RESTR>
0.000708992

>  <SCORE.RESTR.CAVITY>
0.000708992

>  <SCORE.RESTR.norm>
7.87769e-05

>  <SCORE.SYSTEM>
0

>  <SCORE.SYSTEM.CONST>
0

>  <SCORE.SYSTEM.DIHEDRAL>
0

>  <SCORE.SYSTEM.SOLV>
0

>  <SCORE.SYSTEM.norm>
0

>  <SCORE.heavy>
9

>  <SCORE.norm>
-1.29402

>  <RMSD>
5.595

$$$$
ligand
 OpenBabel02271912143D
libRbt.so/2013.1/901 2013/11/27
  9  8  0  0  0  0  0  0  0  0999 V2000
  -50.7522   69.5964  -18.9469 C   0  0  0  0  0  0  0  0  0  0  0  0
  -50.3070   70.4623  -19.7847 O   0  0  0  0  0  0  0  0  0  0  0  0
  -49.8325   68.6348  -18.3258 C   0  0  0  0  0  0  0  0  0  0  0  0
  -51.9931   69.5178  -18.6682 O   0  0  0  0  0  0  0  0  0  0  0  0
  -49.3098   67.5684  -19.2351 C   0  0  0  0  0  0  0  0  0  0  0  0
  -48.4242   67.9810  -20.3525 C   0  0  0  0  0  0  0  0  0  0  0  0
  -48.0049   66.8501  -21.2766 C   0  0  0  0  0  0  0  0  0  0  0  0
  -47.0162   67.1321  -22.4189 C   0  0  0  0  0  0  0  0  0  0  0  0
  -47.3962   68.0347  -23.3910 N   0  0  0  0  0  0  0  0  0  0  0  0
  1  2  1  0  0  0  0
  1  3  1  0  0  0  0
  1  4  1  0  0  0  0
  3  5  1  0  0  0  0
  5  6  1  0  0  0  0
  6  7  1  0  0  0  0
  7  8  1  0  0  0  0
  8  9  1  0  0  0  0
M  END
>  <CHROM.1>
-71.25198018,65.79479405,-176.51387875,-176.11218378,-61.73832623,-49.26175744
68.44962538,-20.25486142,2.88341471,-0.82994136,2.25956049

>  <Name>
ligand

>  <RI>
0

>  <Rbt.Current_Directory>
/home/itssahil/PROJECTS/Mol_Feturizer/Test_systems_manuscript/rnas/4erj

>  <Rbt.Executable>
rbdock ($Id: //depot/dev/client3/rdock/2013.1/src/exe/rbdock.cxx#4 $)

>  <Rbt.Library>
libRbt.so (2013.1, Build901 2013/11/27)

>  <Rbt.Parameter_File>
/export/apps/rDock/src/rDock_2013.1_src/data/scripts/dock_solv.prm

>  <Rbt.Receptor>
prm/pocket_docking_6.prm

>  <SCORE>
-14.0872

>  <SCORE.INTER>
-10.9619

>  <SCORE.INTER.CONST>
1

>  <SCORE.INTER.POLAR>
0

>  <SCORE.INTER.ROT>
5

>  <SCORE.INTER.SOLV>
7.01324

>  <SCORE.INTER.VDW>
-16.579

>  <SCORE.INTER.norm>
-1.21799

>  <SCORE.INTRA>
-3.12521

>  <SCORE.INTRA.DIHEDRAL>
-5.85309

>  <SCORE.INTRA.DIHEDRAL.0>
7.73744

>  <SCORE.INTRA.POLAR>
0

>  <SCORE.INTRA.POLAR.0>
0

>  <SCORE.INTRA.REPUL>
0

>  <SCORE.INTRA.REPUL.0>
0

>  <SCORE.INTRA.SOLV>
0.497238

>  <SCORE.INTRA.SOLV.lig_0>
-15.8342

>  <SCORE.INTRA.VDW>
-0.447281

>  <SCORE.INTRA.VDW.0>
-0.219494

>  <SCORE.INTRA.norm>
-0.347245

>  <SCORE.RESTR>
0

>  <SCORE.RESTR.CAVITY>
0

>  <SCORE.RESTR.norm>
0

>  <SCORE.SYSTEM>
0

>  <SCORE.SYSTEM.CONST>
0

>  <SCORE.SYSTEM.DIHEDRAL>
0

>  <SCORE.SYSTEM.SOLV>
0

>  <SCORE.SYSTEM.norm>
0

>  <SCORE.heavy>
9

>  <SCORE.norm>
-1.56524

>  <RMSD>
5.596

$$$$
ligand
 OpenBabel02271912143D
libRbt.so/2013.1/901 2013/11/27
  9  8  0  0  0  0  0  0  0  0999 V2000
  -49.6085   68.5078  -18.4185 C   0  0  0  0  0  0  0  0  0  0  0  0
  -50.7869   68.9667  -18.6441 O   0  0  0  0  0  0  0  0  0  0  0  0
  -49.3288   67.0783  -18.6043 C   0  0  0  0  0  0  0  0  0  0  0  0
  -48.6731   69.2595  -17.9902 O   0  0  0  0  0  0  0  0  0  0  0  0
  -48.2151   66.7607  -19.5509 C   0  0  0  0  0  0  0  0  0  0  0  0
  -48.3304   67.2485  -20.9480 C   0  0  0  0  0  0  0  0  0  0  0  0
  -47.0902   67.0289  -21.7979 C   0  0  0  0  0  0  0  0  0  0  0  0
  -47.0450   67.5846  -23.2300 C   0  0  0  0  0  0  0  0  0  0  0  0
  -45.8685   67.4454  -23.9376 N   0  0  0  0  0  0  0  0  0  0  0  0
  1  2  1  0  0  0  0
  1  3  1  0  0  0  0
  1  4  1  0  0  0  0
  3  5  1  0  0  0  0
  5  6  1  0  0  0  0
  6  7  1  0  0  0  0
  7  8  1  0  0  0  0
  8  9  1  0  0  0  0
M  END
>  <CHROM.1>
123.63895178,-58.57787345,173.08558062,-175.40476095,175.62318180,-48.35080678
67.79437757,-20.31414069,2.93431080,-0.99548628,2.65231179

>  <Name>
ligand

>  <RI>
0

>  <Rbt.Current_Directory>
/home/itssahil/PROJECTS/Mol_Feturizer/Test_systems_manuscript/rnas/4erj

>  <Rbt.Executable>
rbdock ($Id: //depot/dev/client3/rdock/2013.1/src/exe/rbdock.cxx#4 $)

>  <Rbt.Library>
libRbt.so (2013.1, Build901 2013/11/27)

>  <Rbt.Parameter_File>
/export/apps/rDock/src/rDock_2013.1_src/data/scripts/dock_solv.prm

>  <Rbt.Receptor>
prm/pocket_docking_5.prm

>  <SCORE>
-13.2377

>  <SCORE.INTER>
-10.015

>  <SCORE.INTER.CONST>
1

>  <SCORE.INTER.POLAR>
0

>  <SCORE.INTER.ROT>
5

>  <SCORE.INTER.SOLV>
8.58178

>  <SCORE.INTER.VDW>
-16.4706

>  <SCORE.INTER.norm>
-1.11278

>  <SCORE.INTRA>
-3.22273

>  <SCORE.INTRA.DIHEDRAL>
-5.7034

>  <SCORE.INTRA.DIHEDRAL.0>
7.73744

>  <SCORE.INTRA.POLAR>
0

>  <SCORE.INTRA.POLAR.0>
0

>  <SCORE.INTRA.REPUL>
0

>  <SCORE.INTRA.REPUL.0>
0

>  <SCORE.INTRA.SOLV>
-0.122464

>  <SCORE.INTRA.SOLV.lig_0>
-15.8342

>  <SCORE.INTRA.VDW>
-0.309792

>  <SCORE.INTRA.VDW.0>
-0.219494

>  <SCORE.INTRA.norm>
-0.358081

>  <SCORE.RESTR>
0

>  <SCORE.RESTR.CAVITY>
0

>  <SCORE.RESTR.norm>
0

>  <SCORE.SYSTEM>
0

>  <SCORE.SYSTEM.CONST>
0

>  <SCORE.SYSTEM.DIHEDRAL>
0

>  <SCORE.SYSTEM.SOLV>
0

>  <SCORE.SYSTEM.norm>
0

>  <SCORE.heavy>
9

>  <SCORE.norm>
-1.47086

>  <RMSD>
5.597

$$$$
ligand
 OpenBabel02271912143D
libRbt.so/2013.1/901 2013/11/27
  9  8  0  0  0  0  0  0  0  0999 V2000
  -49.3331   67.8623  -18.2779 C   0  0  0  0  0  0  0  0  0  0  0  0
  -50.1560   68.8064  -17.9928 O   0  0  0  0  0  0  0  0  0  0  0  0
  -48.5947   67.8896  -19.5470 C   0  0  0  0  0  0  0  0  0  0  0  0
  -49.1688   66.8661  -17.5005 O   0  0  0  0  0  0  0  0  0  0  0  0
  -49.1291   66.9936  -20.6189 C   0  0  0  0  0  0  0  0  0  0  0  0
  -48.6604   67.2178  -22.0093 C   0  0  0  0  0  0  0  0  0  0  0  0
  -47.1716   66.9965  -22.2172 C   0  0  0  0  0  0  0  0  0  0  0  0
  -46.5674   67.1758  -23.6189 C   0  0  0  0  0  0  0  0  0  0  0  0
  -46.7302   68.3980  -24.2384 N   0  0  0  0  0  0  0  0  0  0  0  0
  1  2  1  0  0  0  0
  1  3  1  0  0  0  0
  1  4  1  0  0  0  0
  3  5  1  0  0  0  0
  5  6  1  0  0  0  0
  6  7  1  0  0  0  0
  7  8  1  0  0  0  0
  8  9  1  0  0  0  0
M  END
>  <CHROM.1>
-101.50991328,164.80367127,63.45697905,179.04992668,57.53176016,-48.41474241
67.58180061,-20.61608473,2.51847028,-1.01657010,2.39669185

>  <Name>
ligand

>  <RI>
0

>  <Rbt.Current_Directory>
/home/itssahil/PROJECTS/Mol_Feturizer/Test_systems_manuscript/rnas/4erj

>  <Rbt.Executable>
rbdock ($Id: //depot/dev/client3/rdock/2013.1/src/exe/rbdock.cxx#4 $)

>  <Rbt.Library>
libRbt.so (2013.1, Build901 2013/11/27)

>  <Rbt.Parameter_File>
/export/apps/rDock/src/rDock_2013.1_src/data/scripts/dock_solv.prm

>  <Rbt.Receptor>
prm/pocket_docking_3.prm

>  <SCORE>
-12.576

>  <SCORE.INTER>
-10.1792

>  <SCORE.INTER.CONST>
1

>  <SCORE.INTER.POLAR>
0

>  <SCORE.INTER.ROT>
5

>  <SCORE.INTER.SOLV>
7.70707

>  <SCORE.INTER.VDW>
-16.2885

>  <SCORE.INTER.norm>
-1.13102

>  <SCORE.INTRA>
-2.39683

>  <SCORE.INTRA.DIHEDRAL>
-5.14142

>  <SCORE.INTRA.DIHEDRAL.0>
7.73744

>  <SCORE.INTRA.POLAR>
0

>  <SCORE.INTRA.POLAR.0>
0

>  <SCORE.INTRA.REPUL>
0

>  <SCORE.INTRA.REPUL.0>
0

>  <SCORE.INTRA.SOLV>
0.549214

>  <SCORE.INTRA.SOLV.lig_0>
-15.8342

>  <SCORE.INTRA.VDW>
-0.100733

>  <SCORE.INTRA.VDW.0>
-0.219494

>  <SCORE.INTRA.norm>
-0.266315

>  <SCORE.RESTR>
0

>  <SCORE.RESTR.CAVITY>
0

>  <SCORE.RESTR.norm>
0

>  <SCORE.SYSTEM>
0

>  <SCORE.SYSTEM.CONST>
0

>  <SCORE.SYSTEM.DIHEDRAL>
0

>  <SCORE.SYSTEM.SOLV>
0

>  <SCORE.SYSTEM.norm>
0

>  <SCORE.heavy>
9

>  <SCORE.norm>
-1.39734

>  <RMSD>
5.598

$$$$
ligand
 OpenBabel02271912143D
libRbt.so/2013.1/901 2013/11/27
  9  8  0  0  0  0  0  0  0  0999 V2000
  -50.8910   70.3797  -19.6212 C   0  0  0  0  0  0  0  0  0  0  0  0
  -51.6861   69.7670  -18.8198 O   0  0  0  0  0  0  0  0  0  0  0  0
  -49.7568   69.6647  -20.2201 C   0  0  0  0  0  0  0  0  0  0  0  0
  -51.0341   71.6188  -19.8814 O   0  0  0  0  0  0  0  0  0  0  0  0
  -49.3632   68.3962  -19.5320 C   0  0  0  0  0  0  0  0  0  0  0  0
  -48.2280   67.6236  -20.0955 C   0  0  0  0  0  0  0  0  0  0  0  0
  -48.4352   67.1474  -21.5235 C   0  0  0  0  0  0  0  0  0  0  0  0
  -47.2278   66.6703  -22.3458 C   0  0  0  0  0  0  0  0  0  0  0  0
  -46.2358   67.5881  -22.6247 N   0  0  0  0  0  0  0  0  0  0  0  0
  1  2  1  0  0  0  0
  1  3  1  0  0  0  0
  1  4  1  0  0  0  0
  3  5  1  0  0  0  0
  5  6  1  0  0  0  0
  6  7  1  0  0  0  0
  7  8  1  0  0  0  0
  8  9  1  0  0  0  0
M  END
>  <CHROM.1>
-18.22131834,179.63908662,-60.40594427,164.01756213,-63.24228459,-49.24672776
68.79594232,-20.49606936,-2.79003471,-0.76195016,2.71460442

>  <Name>
ligand

>  <RI>
0

>  <Rbt.Current_Directory>
/home/itssahil/PROJECTS/Mol_Feturizer/Test_systems_manuscript/rnas/4erj

>  <Rbt.Executable>
rbdock ($Id: //depot/dev/client3/rdock/2013.1/src/exe/rbdock.cxx#4 $)

>  <Rbt.Library>
libRbt.so (2013.1, Build901 2013/11/27)

>  <Rbt.Parameter_File>
/export/apps/rDock/src/rDock_2013.1_src/data/scripts/dock_solv.prm

>  <Rbt.Receptor>
prm/pocket_docking_7.prm

>  <SCORE>
-12.6056

>  <SCORE.INTER>
-10.9495

>  <SCORE.INTER.CONST>
1

>  <SCORE.INTER.POLAR>
0

>  <SCORE.INTER.ROT>
5

>  <SCORE.INTER.SOLV>
6.24085

>  <SCORE.INTER.VDW>
-16.3133

>  <SCORE.INTER.norm>
-1.21661

>  <SCORE.INTRA>
-1.65613

>  <SCORE.INTRA.DIHEDRAL>
-4.92067

>  <SCORE.INTRA.DIHEDRAL.0>
7.73744

>  <SCORE.INTRA.POLAR>
0

>  <SCORE.INTRA.POLAR.0>
0

>  <SCORE.INTRA.REPUL>
0

>  <SCORE.INTRA.REPUL.0>
0

>  <SCORE.INTRA.SOLV>
0.580087

>  <SCORE.INTRA.SOLV.lig_0>
-15.8342

>  <SCORE.INTRA.VDW>
0.514166

>  <SCORE.INTRA.VDW.0>
-0.219494

>  <SCORE.INTRA.norm>
-0.184014

>  <SCORE.RESTR>
0

>  <SCORE.RESTR.CAVITY>
0

>  <SCORE.RESTR.norm>
0

>  <SCORE.SYSTEM>
0

>  <SCORE.SYSTEM.CONST>
0

>  <SCORE.SYSTEM.DIHEDRAL>
0

>  <SCORE.SYSTEM.SOLV>
0

>  <SCORE.SYSTEM.norm>
0

>  <SCORE.heavy>
9

>  <SCORE.norm>
-1.40063

>  <RMSD>
5.599

$$$$
ligand
 OpenBabel02271912143D
libRbt.so/2013.1/901 2013/11/27
  9  8  0  0  0  0  0  0  0  0999 V2000
  -49.0687   67.7418  -18.1679 C   0  0  0  0  0  0  0  0  0  0  0  0
  -49.1742   69.0032  -17.9497 O   0  0  0  0  0  0  0  0  0  0  0  0
  -48.5392   67.2598  -19.4499 C   0  0  0  0  0  0  0  0  0  0  0  0
  -49.4563   66.8839  -17.3092 O   0  0  0  0  0  0  0  0  0  0  0  0
  -49.0437   67.9764  -20.6620 C   0  0  0  0  0  0  0  0  0  0  0  0
  -48.4770   67.5961  -21.9800 C   0  0  0  0  0  0  0  0  0  0  0  0
  -46.9858   67.8500  -22.1232 C   0  0  0  0  0  0  0  0  0  0  0  0
  -46.3073   67.6315  -23.4847 C   0  0  0  0  0  0  0  0  0  0  0  0
  -46.6912   68.4428  -24.5328 N   0  0  0  0  0  0  0  0  0  0  0  0
  1  2  1  0  0  0  0
  1  3  1  0  0  0  0
  1  4  1  0  0  0  0
  3  5  1  0  0  0  0
  5  6  1  0  0  0  0
  6  7  1  0  0  0  0
  7  8  1  0  0  0  0
  8  9  1  0  0  0  0
M  END
>  <CHROM.1>
-42.69200889,175.98839712,-62.66373221,-173.88075945,64.34203147,-48.21470904
67.82554306,-20.57459187,-2.78556572,1.13648393,-0.34415452

>  <Name>
ligand

>  <RI>
0

>  <Rbt.Current_Directory>
/home/itssahil/PROJECTS/Mol_Feturizer/Test_systems_manuscript/rnas/4erj

>  <Rbt.Executable>
rbdock ($Id: //depot/dev/client3/rdock/2013.1/src/exe/rbdock.cxx#4 $)

>  <Rbt.Library>
libRbt.so (2013.1, Build901 2013/11/27)

>  <Rbt.Parameter_File>
/export/apps/rDock/src/rDock_2013.1_src/data/scripts/dock_solv.prm

>  <Rbt.Receptor>
prm/pocket_docking_3.prm

>  <SCORE>
-12.1928

>  <SCORE.INTER>
-9.78194

>  <SCORE.INTER.CONST>
1

>  <SCORE.INTER.POLAR>
0

>  <SCORE.INTER.ROT>
5

>  <SCORE.INTER.SOLV>
7.6238

>  <SCORE.INTER.VDW>
-15.9959

>  <SCORE.INTER.norm>
-1.08688

>  <SCORE.INTRA>
-2.4109

>  <SCORE.INTRA.DIHEDRAL>
-5.65832

>  <SCORE.INTRA.DIHEDRAL.0>
7.73744

>  <SCORE.INTRA.POLAR>
0

>  <SCORE.INTRA.POLAR.0>
0

>  <SCORE.INTRA.REPUL>
0

>  <SCORE.INTRA.REPUL.0>
0

>  <SCORE.INTRA.SOLV>
0.513199

>  <SCORE.INTRA.SOLV.lig_0>
-15.8342

>  <SCORE.INTRA.VDW>
0.16166

>  <SCORE.INTRA.VDW.0>
-0.219494

>  <SCORE.INTRA.norm>
-0.267878

>  <SCORE.RESTR>
0

>  <SCORE.RESTR.CAVITY>
0

>  <SCORE.RESTR.norm>
0

>  <SCORE.SYSTEM>
0

>  <SCORE.SYSTEM.CONST>
0

>  <SCORE.SYSTEM.DIHEDRAL>
0

>  <SCORE.SYSTEM.SOLV>
0

>  <SCORE.SYSTEM.norm>
0

>  <SCORE.heavy>
9

>  <SCORE.norm>
-1.35476

>  <RMSD>
5.600

$$$$
ligand
 OpenBabel02271912143D
libRbt.so/2013.1/901 2013/11/27
  9  8  0  0  0  0  0  0  0  0999 V2000
  -50.7458   69.6204  -18.9967 C   0  0  0  0  0  0  0  0  0  0  0  0
  -52.0078   69.5595  -18.7656 O   0  0  0  0  0  0  0  0  0  0  0  0
  -49.8358   68.6567  -18.3645 C   0  0  0  0  0  0  0  0  0  0  0  0
  -50.2482   70.5324  -19.7343 O   0  0  0  0  0  0  0  0  0  0  0  0
  -48.7746   68.0962  -19.2573 C   0  0  0  0  0  0  0  0  0  0  0  0
  -49.2061   67.3363  -20.4570 C   0  0  0  0  0  0  0  0  0  0  0  0
  -48.0692   66.8597  -21.3453 C   0  0  0  0  0  0  0  0  0  0  0  0
  -47.1606   67.8916  -22.0320 C   0  0  0  0  0  0  0  0  0  0  0  0
  -46.1460   67.4194  -22.8393 N   0  0  0  0  0  0  0  0  0  0  0  0
  1  2  1  0  0  0  0
  1  3  1  0  0  0  0
  1  4  1  0  0  0  0
  3  5  1  0  0  0  0
  5  6  1  0  0  0  0
  6  7  1  0  0  0  0
  7  8  1  0  0  0  0
  8  9  1  0  0  0  0
M  END
>  <CHROM.1>
137.01682690,-60.53559375,177.17023566,-62.99530363,-179.48432131,-49.16920926
68.47238782,-20.18839433,-3.03420999,-0.77231217,2.68887933

>  <Name>
ligand

>  <RI>
0

>  <Rbt.Current_Directory>
/home/itssahil/PROJECTS/Mol_Feturizer/Test_systems_manuscript/rnas/4erj

>  <Rbt.Executable>
rbdock ($Id: //depot/dev/client3/rdock/2013.1/src/exe/rbdock.cxx#4 $)

>  <Rbt.Library>
libRbt.so (2013.1, Build901 2013/11/27)

>  <Rbt.Parameter_File>
/export/apps/rDock/src/rDock_2013.1_src/data/scripts/dock_solv.prm

>  <Rbt.Receptor>
prm/pocket_docking_8.prm

>  <SCORE>
-14.0139

>  <SCORE.INTER>
-11.0535

>  <SCORE.INTER.CONST>
1

>  <SCORE.INTER.POLAR>
0

>  <SCORE.INTER.ROT>
5

>  <SCORE.INTER.SOLV>
6.88523

>  <SCORE.INTER.VDW>
-16.5974

>  <SCORE.INTER.norm>
-1.22816

>  <SCORE.INTRA>
-2.96047

>  <SCORE.INTRA.DIHEDRAL>
-6.05852

>  <SCORE.INTRA.DIHEDRAL.0>
7.73744

>  <SCORE.INTRA.POLAR>
0

>  <SCORE.INTRA.POLAR.0>
0

>  <SCORE.INTRA.REPUL>
0

>  <SCORE.INTRA.REPUL.0>
0

>  <SCORE.INTRA.SOLV>
0.0362107

>  <SCORE.INTRA.SOLV.lig_0>
-15.8342

>  <SCORE.INTRA.VDW>
0.0506845

>  <SCORE.INTRA.VDW.0>
-0.219494

>  <SCORE.INTRA.norm>
-0.328941

>  <SCORE.RESTR>
0

>  <SCORE.RESTR.CAVITY>
0

>  <SCORE.RESTR.norm>
0

>  <SCORE.SYSTEM>
0

>  <SCORE.SYSTEM.CONST>
0

>  <SCORE.SYSTEM.DIHEDRAL>
0

>  <SCORE.SYSTEM.SOLV>
0

>  <SCORE.SYSTEM.norm>
0

>  <SCORE.heavy>
9

>  <SCORE.norm>
-1.5571

>  <RMSD>
5.600

$$$$
ligand
 OpenBabel02271912143D
libRbt.so/2013.1/901 2013/11/27
  9  8  0  0  0  0  0  0  0  0999 V2000
  -50.7848   69.6001  -18.9506 C   0  0  0  0  0  0  0  0  0  0  0  0
  -52.0410   69.5653  -18.6849 O   0  0  0  0  0  0  0  0  0  0  0  0
  -49.8710   68.6477  -18.3070 C   0  0  0  0  0  0  0  0  0  0  0  0
  -50.2950   70.4776  -19.7341 O   0  0  0  0  0  0  0  0  0  0  0  0
  -49.3214   67.5822  -19.2014 C   0  0  0  0  0  0  0  0  0  0  0  0
  -48.4343   67.9999  -20.3157 C   0  0  0  0  0  0  0  0  0  0  0  0
  -47.9530   66.8621  -21.2002 C   0  0  0  0  0  0  0  0  0  0  0  0
  -47.0001   67.1614  -22.3682 C   0  0  0  0  0  0  0  0  0  0  0  0
  -47.4341   68.0334  -23.3457 N   0  0  0  0  0  0  0  0  0  0  0  0
  1  2  1  0  0  0  0
  1  3  1  0  0  0  0
  1  4  1  0  0  0  0
  3  5  1  0  0  0  0
  5  6  1  0  0  0  0
  6  7  1  0  0  0  0
  7  8  1  0  0  0  0
  8  9  1  0  0  0  0
M  END
>  <CHROM.1>
108.58417356,64.77662908,-178.26978009,-178.49834039,-59.51208021,-49.27258490
68.46716374,-20.22236557,2.88201818,-0.81959343,2.24412528

>  <Name>
ligand

>  <RI>
0

>  <Rbt.Current_Directory>
/home/itssahil/PROJECTS/Mol_Feturizer/Test_systems_manuscript/rnas/4erj

>  <Rbt.Executable>
rbdock ($Id: //depot/dev/client3/rdock/2013.1/src/exe/rbdock.cxx#4 $)

>  <Rbt.Library>
libRbt.so (2013.1, Build901 2013/11/27)

>  <Rbt.Parameter_File>
/export/apps/rDock/src/rDock_2013.1_src/data/scripts/dock_solv.prm

>  <Rbt.Receptor>
prm/pocket_docking_4.prm

>  <SCORE>
-14.0705

>  <SCORE.INTER>
-10.9751

>  <SCORE.INTER.CONST>
1

>  <SCORE.INTER.POLAR>
0

>  <SCORE.INTER.ROT>
5

>  <SCORE.INTER.SOLV>
6.99781

>  <SCORE.INTER.VDW>
-16.5826

>  <SCORE.INTER.norm>
-1.21945

>  <SCORE.INTRA>
-3.09543

>  <SCORE.INTRA.DIHEDRAL>
-5.87778

>  <SCORE.INTRA.DIHEDRAL.0>
7.73744

>  <SCORE.INTRA.POLAR>
0

>  <SCORE.INTRA.POLAR.0>
0

>  <SCORE.INTRA.REPUL>
0

>  <SCORE.INTRA.REPUL.0>
0

>  <SCORE.INTRA.SOLV>
0.528062

>  <SCORE.INTRA.SOLV.lig_0>
-15.8342

>  <SCORE.INTRA.VDW>
-0.42057

>  <SCORE.INTRA.VDW.0>
-0.219494

>  <SCORE.INTRA.norm>
-0.343937

>  <SCORE.RESTR>
0

>  <SCORE.RESTR.CAVITY>
0

>  <SCORE.RESTR.norm>
0

>  <SCORE.SYSTEM>
0

>  <SCORE.SYSTEM.CONST>
0

>  <SCORE.SYSTEM.DIHEDRAL>
0

>  <SCORE.SYSTEM.SOLV>
0

>  <SCORE.SYSTEM.norm>
0

>  <SCORE.heavy>
9

>  <SCORE.norm>
-1.56339

>  <RMSD>
5.603

$$$$
ligand
 OpenBabel02271912143D
libRbt.so/2013.1/901 2013/11/27
  9  8  0  0  0  0  0  0  0  0999 V2000
  -50.7576   69.6261  -18.9888 C   0  0  0  0  0  0  0  0  0  0  0  0
  -52.0256   69.5381  -18.8037 O   0  0  0  0  0  0  0  0  0  0  0  0
  -49.8546   68.6509  -18.3644 C   0  0  0  0  0  0  0  0  0  0  0  0
  -50.2497   70.5739  -19.6724 O   0  0  0  0  0  0  0  0  0  0  0  0
  -48.7915   68.0971  -19.2591 C   0  0  0  0  0  0  0  0  0  0  0  0
  -49.2204   67.3342  -20.4579 C   0  0  0  0  0  0  0  0  0  0  0  0
  -48.0817   66.8570  -21.3435 C   0  0  0  0  0  0  0  0  0  0  0  0
  -47.1657   67.8882  -22.0213 C   0  0  0  0  0  0  0  0  0  0  0  0
  -46.1439   67.4154  -22.8191 N   0  0  0  0  0  0  0  0  0  0  0  0
  1  2  1  0  0  0  0
  1  3  1  0  0  0  0
  1  4  1  0  0  0  0
  3  5  1  0  0  0  0
  5  6  1  0  0  0  0
  6  7  1  0  0  0  0
  7  8  1  0  0  0  0
  8  9  1  0  0  0  0
M  END
>  <CHROM.1>
134.47191013,-61.55059480,177.54720396,-62.46677827,-179.92402348,-49.17989350
68.47354420,-20.18138040,-2.99284194,-0.76560183,2.74351847

>  <Name>
ligand

>  <RI>
0

>  <Rbt.Current_Directory>
/home/itssahil/PROJECTS/Mol_Feturizer/Test_systems_manuscript/rnas/4erj

>  <Rbt.Executable>
rbdock ($Id: //depot/dev/client3/rdock/2013.1/src/exe/rbdock.cxx#4 $)

>  <Rbt.Library>
libRbt.so (2013.1, Build901 2013/11/27)

>  <Rbt.Parameter_File>
/export/apps/rDock/src/rDock_2013.1_src/data/scripts/dock_solv.prm

>  <Rbt.Receptor>
prm/pocket_docking_7.prm

>  <SCORE>
-13.9856

>  <SCORE.INTER>
-10.9897

>  <SCORE.INTER.CONST>
1

>  <SCORE.INTER.POLAR>
0

>  <SCORE.INTER.ROT>
5

>  <SCORE.INTER.SOLV>
6.92656

>  <SCORE.INTER.VDW>
-16.5687

>  <SCORE.INTER.norm>
-1.22108

>  <SCORE.INTRA>
-2.99591

>  <SCORE.INTRA.DIHEDRAL>
-6.06134

>  <SCORE.INTRA.DIHEDRAL.0>
7.73744

>  <SCORE.INTRA.POLAR>
0

>  <SCORE.INTRA.POLAR.0>
0

>  <SCORE.INTRA.REPUL>
0

>  <SCORE.INTRA.REPUL.0>
0

>  <SCORE.INTRA.SOLV>
0.0406104

>  <SCORE.INTRA.SOLV.lig_0>
-15.8342

>  <SCORE.INTRA.VDW>
0.014461

>  <SCORE.INTRA.VDW.0>
-0.219494

>  <SCORE.INTRA.norm>
-0.332878

>  <SCORE.RESTR>
0

>  <SCORE.RESTR.CAVITY>
0

>  <SCORE.RESTR.norm>
0

>  <SCORE.SYSTEM>
0

>  <SCORE.SYSTEM.CONST>
0

>  <SCORE.SYSTEM.DIHEDRAL>
0

>  <SCORE.SYSTEM.SOLV>
0

>  <SCORE.SYSTEM.norm>
0

>  <SCORE.heavy>
9

>  <SCORE.norm>
-1.55396

>  <RMSD>
5.606

$$$$
ligand
 OpenBabel02271912143D
libRbt.so/2013.1/901 2013/11/27
  9  8  0  0  0  0  0  0  0  0999 V2000
  -50.7771   69.6048  -18.9844 C   0  0  0  0  0  0  0  0  0  0  0  0
  -52.0344   69.5419  -18.7290 O   0  0  0  0  0  0  0  0  0  0  0  0
  -49.8507   68.6572  -18.3518 C   0  0  0  0  0  0  0  0  0  0  0  0
  -50.2980   70.5058  -19.7474 O   0  0  0  0  0  0  0  0  0  0  0  0
  -48.7854   68.1080  -19.2467 C   0  0  0  0  0  0  0  0  0  0  0  0
  -49.2102   67.3084  -20.4229 C   0  0  0  0  0  0  0  0  0  0  0  0
  -48.0735   66.8618  -21.3268 C   0  0  0  0  0  0  0  0  0  0  0  0
  -47.2093   67.9170  -22.0349 C   0  0  0  0  0  0  0  0  0  0  0  0
  -46.2003   67.4715  -22.8642 N   0  0  0  0  0  0  0  0  0  0  0  0
  1  2  1  0  0  0  0
  1  3  1  0  0  0  0
  1  4  1  0  0  0  0
  3  5  1  0  0  0  0
  5  6  1  0  0  0  0
  6  7  1  0  0  0  0
  7  8  1  0  0  0  0
  8  9  1  0  0  0  0
M  END
>  <CHROM.1>
138.25185887,-61.99551128,176.35352379,-62.07543847,-178.98656196,-49.19667859
68.47239816,-20.17903671,-3.06950641,-0.77561742,2.65137786

>  <Name>
ligand

>  <RI>
0

>  <Rbt.Current_Directory>
/home/itssahil/PROJECTS/Mol_Feturizer/Test_systems_manuscript/rnas/4erj

>  <Rbt.Executable>
rbdock ($Id: //depot/dev/client3/rdock/2013.1/src/exe/rbdock.cxx#4 $)

>  <Rbt.Library>
libRbt.so (2013.1, Build901 2013/11/27)

>  <Rbt.Parameter_File>
/export/apps/rDock/src/rDock_2013.1_src/data/scripts/dock_solv.prm

>  <Rbt.Receptor>
prm/pocket_docking_4.prm

>  <SCORE>
-13.996

>  <SCORE.INTER>
-11.0619

>  <SCORE.INTER.CONST>
1

>  <SCORE.INTER.POLAR>
0

>  <SCORE.INTER.ROT>
5

>  <SCORE.INTER.SOLV>
6.82309

>  <SCORE.INTER.VDW>
-16.5823

>  <SCORE.INTER.norm>
-1.2291

>  <SCORE.INTRA>
-2.93409

>  <SCORE.INTRA.DIHEDRAL>
-6.04181

>  <SCORE.INTRA.DIHEDRAL.0>
7.73744

>  <SCORE.INTRA.POLAR>
0

>  <SCORE.INTRA.POLAR.0>
0

>  <SCORE.INTRA.REPUL>
0

>  <SCORE.INTRA.REPUL.0>
0

>  <SCORE.INTRA.SOLV>
0.0385783

>  <SCORE.INTRA.SOLV.lig_0>
-15.8342

>  <SCORE.INTRA.VDW>
0.0675318

>  <SCORE.INTRA.VDW.0>
-0.219494

>  <SCORE.INTRA.norm>
-0.32601

>  <SCORE.RESTR>
0

>  <SCORE.RESTR.CAVITY>
0

>  <SCORE.RESTR.norm>
0

>  <SCORE.SYSTEM>
0

>  <SCORE.SYSTEM.CONST>
0

>  <SCORE.SYSTEM.DIHEDRAL>
0

>  <SCORE.SYSTEM.SOLV>
0

>  <SCORE.SYSTEM.norm>
0

>  <SCORE.heavy>
9

>  <SCORE.norm>
-1.55511

>  <RMSD>
5.607

$$$$
ligand
 OpenBabel02271912143D
libRbt.so/2013.1/901 2013/11/27
  9  8  0  0  0  0  0  0  0  0999 V2000
  -50.7745   69.6211  -18.9646 C   0  0  0  0  0  0  0  0  0  0  0  0
  -50.2984   70.5213  -19.7475 O   0  0  0  0  0  0  0  0  0  0  0  0
  -49.8755   68.6478  -18.3315 C   0  0  0  0  0  0  0  0  0  0  0  0
  -52.0268   69.5192  -18.7526 O   0  0  0  0  0  0  0  0  0  0  0  0
  -48.8103   68.0870  -19.2194 C   0  0  0  0  0  0  0  0  0  0  0  0
  -49.2365   67.3230  -20.4184 C   0  0  0  0  0  0  0  0  0  0  0  0
  -48.0971   66.8642  -21.3127 C   0  0  0  0  0  0  0  0  0  0  0  0
  -47.2141   67.9100  -22.0116 C   0  0  0  0  0  0  0  0  0  0  0  0
  -46.2006   67.4537  -22.8293 N   0  0  0  0  0  0  0  0  0  0  0  0
  1  2  1  0  0  0  0
  1  3  1  0  0  0  0
  1  4  1  0  0  0  0
  3  5  1  0  0  0  0
  5  6  1  0  0  0  0
  6  7  1  0  0  0  0
  7  8  1  0  0  0  0
  8  9  1  0  0  0  0
M  END
>  <CHROM.1>
-42.43125023,-61.29555773,176.29372378,-63.52407591,-179.17503155,-49.20699565
68.46884993,-20.16652616,-3.06215162,-0.77401039,2.65830240

>  <Name>
ligand

>  <RI>
0

>  <Rbt.Current_Directory>
/home/itssahil/PROJECTS/Mol_Feturizer/Test_systems_manuscript/rnas/4erj

>  <Rbt.Executable>
rbdock ($Id: //depot/dev/client3/rdock/2013.1/src/exe/rbdock.cxx#4 $)

>  <Rbt.Library>
libRbt.so (2013.1, Build901 2013/11/27)

>  <Rbt.Parameter_File>
/export/apps/rDock/src/rDock_2013.1_src/data/scripts/dock_solv.prm

>  <Rbt.Receptor>
prm/pocket_docking_6.prm

>  <SCORE>
-13.9635

>  <SCORE.INTER>
-11.043

>  <SCORE.INTER.CONST>
1

>  <SCORE.INTER.POLAR>
0

>  <SCORE.INTER.ROT>
5

>  <SCORE.INTER.SOLV>
6.88979

>  <SCORE.INTER.VDW>
-16.5919

>  <SCORE.INTER.norm>
-1.227

>  <SCORE.INTRA>
-2.92047

>  <SCORE.INTRA.DIHEDRAL>
-5.86214

>  <SCORE.INTRA.DIHEDRAL.0>
7.73744

>  <SCORE.INTRA.POLAR>
0

>  <SCORE.INTRA.POLAR.0>
0

>  <SCORE.INTRA.REPUL>
0

>  <SCORE.INTRA.REPUL.0>
0

>  <SCORE.INTRA.SOLV>
0.0323206

>  <SCORE.INTRA.SOLV.lig_0>
-15.8342

>  <SCORE.INTRA.VDW>
-0.00556056

>  <SCORE.INTRA.VDW.0>
-0.219494

>  <SCORE.INTRA.norm>
-0.324497

>  <SCORE.RESTR>
0

>  <SCORE.RESTR.CAVITY>
0

>  <SCORE.RESTR.norm>
0

>  <SCORE.SYSTEM>
0

>  <SCORE.SYSTEM.CONST>
0

>  <SCORE.SYSTEM.DIHEDRAL>
0

>  <SCORE.SYSTEM.SOLV>
0

>  <SCORE.SYSTEM.norm>
0

>  <SCORE.heavy>
9

>  <SCORE.norm>
-1.5515

>  <RMSD>
5.607

$$$$
ligand
 OpenBabel02271912143D
libRbt.so/2013.1/901 2013/11/27
  9  8  0  0  0  0  0  0  0  0999 V2000
  -50.7601   69.6321  -18.9675 C   0  0  0  0  0  0  0  0  0  0  0  0
  -52.0263   69.5750  -18.7593 O   0  0  0  0  0  0  0  0  0  0  0  0
  -49.8663   68.6551  -18.3326 C   0  0  0  0  0  0  0  0  0  0  0  0
  -50.2449   70.5512  -19.6841 O   0  0  0  0  0  0  0  0  0  0  0  0
  -48.8034   68.0878  -19.2191 C   0  0  0  0  0  0  0  0  0  0  0  0
  -49.2327   67.3211  -20.4153 C   0  0  0  0  0  0  0  0  0  0  0  0
  -48.0962   66.8677  -21.3161 C   0  0  0  0  0  0  0  0  0  0  0  0
  -47.2053   67.9177  -21.9985 C   0  0  0  0  0  0  0  0  0  0  0  0
  -46.1868   67.4663  -22.8128 N   0  0  0  0  0  0  0  0  0  0  0  0
  1  2  1  0  0  0  0
  1  3  1  0  0  0  0
  1  4  1  0  0  0  0
  3  5  1  0  0  0  0
  5  6  1  0  0  0  0
  6  7  1  0  0  0  0
  7  8  1  0  0  0  0
  8  9  1  0  0  0  0
M  END
>  <CHROM.1>
136.26877871,-61.46508000,175.69988183,-62.31805289,-179.76749658,-49.19415723
68.48384849,-20.15660264,-3.02266548,-0.77267454,2.70768203

>  <Name>
ligand

>  <RI>
0

>  <Rbt.Current_Directory>
/home/itssahil/PROJECTS/Mol_Feturizer/Test_systems_manuscript/rnas/4erj

>  <Rbt.Executable>
rbdock ($Id: //depot/dev/client3/rdock/2013.1/src/exe/rbdock.cxx#4 $)

>  <Rbt.Library>
libRbt.so (2013.1, Build901 2013/11/27)

>  <Rbt.Parameter_File>
/export/apps/rDock/src/rDock_2013.1_src/data/scripts/dock_solv.prm

>  <Rbt.Receptor>
prm/pocket_docking_4.prm

>  <SCORE>
-14.0116

>  <SCORE.INTER>
-11.0591

>  <SCORE.INTER.CONST>
1

>  <SCORE.INTER.POLAR>
0

>  <SCORE.INTER.ROT>
5

>  <SCORE.INTER.SOLV>
6.88843

>  <SCORE.INTER.VDW>
-16.6022

>  <SCORE.INTER.norm>
-1.22879

>  <SCORE.INTRA>
-2.95251

>  <SCORE.INTRA.DIHEDRAL>
-6.02015

>  <SCORE.INTRA.DIHEDRAL.0>
7.73744

>  <SCORE.INTRA.POLAR>
0

>  <SCORE.INTRA.POLAR.0>
0

>  <SCORE.INTRA.REPUL>
0

>  <SCORE.INTRA.REPUL.0>
0

>  <SCORE.INTRA.SOLV>
0.0406478

>  <SCORE.INTRA.SOLV.lig_0>
-15.8342

>  <SCORE.INTRA.VDW>
0.0372357

>  <SCORE.INTRA.VDW.0>
-0.219494

>  <SCORE.INTRA.norm>
-0.328057

>  <SCORE.RESTR>
0

>  <SCORE.RESTR.CAVITY>
0

>  <SCORE.RESTR.norm>
0

>  <SCORE.SYSTEM>
0

>  <SCORE.SYSTEM.CONST>
0

>  <SCORE.SYSTEM.DIHEDRAL>
0

>  <SCORE.SYSTEM.SOLV>
0

>  <SCORE.SYSTEM.norm>
0

>  <SCORE.heavy>
9

>  <SCORE.norm>
-1.55685

>  <RMSD>
5.608

$$$$
ligand
 OpenBabel02271912143D
libRbt.so/2013.1/901 2013/11/27
  9  8  0  0  0  0  0  0  0  0999 V2000
  -50.7631   69.6032  -18.9746 C   0  0  0  0  0  0  0  0  0  0  0  0
  -52.0242   69.4997  -18.7534 O   0  0  0  0  0  0  0  0  0  0  0  0
  -49.8272   68.6636  -18.3441 C   0  0  0  0  0  0  0  0  0  0  0  0
  -50.2899   70.5374  -19.7005 O   0  0  0  0  0  0  0  0  0  0  0  0
  -48.7645   68.1167  -19.2436 C   0  0  0  0  0  0  0  0  0  0  0  0
  -49.1924   67.3114  -20.4147 C   0  0  0  0  0  0  0  0  0  0  0  0
  -48.0591   66.8697  -21.3254 C   0  0  0  0  0  0  0  0  0  0  0  0
  -47.2132   67.9284  -22.0503 C   0  0  0  0  0  0  0  0  0  0  0  0
  -46.2132   67.4870  -22.8925 N   0  0  0  0  0  0  0  0  0  0  0  0
  1  2  1  0  0  0  0
  1  3  1  0  0  0  0
  1  4  1  0  0  0  0
  3  5  1  0  0  0  0
  5  6  1  0  0  0  0
  6  7  1  0  0  0  0
  7  8  1  0  0  0  0
  8  9  1  0  0  0  0
M  END
>  <CHROM.1>
135.41364864,-61.91548191,176.24243642,-62.52006625,-178.53557703,-49.18651726
68.47670606,-20.17786997,-3.06571362,-0.77882642,2.66229475

>  <Name>
ligand

>  <RI>
0

>  <Rbt.Current_Directory>
/home/itssahil/PROJECTS/Mol_Feturizer/Test_systems_manuscript/rnas/4erj

>  <Rbt.Executable>
rbdock ($Id: //depot/dev/client3/rdock/2013.1/src/exe/rbdock.cxx#4 $)

>  <Rbt.Library>
libRbt.so (2013.1, Build901 2013/11/27)

>  <Rbt.Parameter_File>
/export/apps/rDock/src/rDock_2013.1_src/data/scripts/dock_solv.prm

>  <Rbt.Receptor>
prm/pocket_docking_6.prm

>  <SCORE>
-14.0006

>  <SCORE.INTER>
-11.0295

>  <SCORE.INTER.CONST>
1

>  <SCORE.INTER.POLAR>
0

>  <SCORE.INTER.ROT>
5

>  <SCORE.INTER.SOLV>
6.79183

>  <SCORE.INTER.VDW>
-16.5502

>  <SCORE.INTER.norm>
-1.22549

>  <SCORE.INTRA>
-2.97116

>  <SCORE.INTRA.DIHEDRAL>
-6.01674

>  <SCORE.INTRA.DIHEDRAL.0>
7.73744

>  <SCORE.INTRA.POLAR>
0

>  <SCORE.INTRA.POLAR.0>
0

>  <SCORE.INTRA.REPUL>
0

>  <SCORE.INTRA.REPUL.0>
0

>  <SCORE.INTRA.SOLV>
0.0347326

>  <SCORE.INTRA.SOLV.lig_0>
-15.8342

>  <SCORE.INTRA.VDW>
0.0198442

>  <SCORE.INTRA.VDW.0>
-0.219494

>  <SCORE.INTRA.norm>
-0.330129

>  <SCORE.RESTR>
0

>  <SCORE.RESTR.CAVITY>
0

>  <SCORE.RESTR.norm>
0

>  <SCORE.SYSTEM>
0

>  <SCORE.SYSTEM.CONST>
0

>  <SCORE.SYSTEM.DIHEDRAL>
0

>  <SCORE.SYSTEM.SOLV>
0

>  <SCORE.SYSTEM.norm>
0

>  <SCORE.heavy>
9

>  <SCORE.norm>
-1.55562

>  <RMSD>
5.608

$$$$
ligand
 OpenBabel02271912143D
libRbt.so/2013.1/901 2013/11/27
  9  8  0  0  0  0  0  0  0  0999 V2000
  -49.7536   68.4352  -18.4338 C   0  0  0  0  0  0  0  0  0  0  0  0
  -50.8614   69.0852  -18.4199 O   0  0  0  0  0  0  0  0  0  0  0  0
  -48.9653   68.3535  -19.6700 C   0  0  0  0  0  0  0  0  0  0  0  0
  -49.3344   67.8137  -17.4035 O   0  0  0  0  0  0  0  0  0  0  0  0
  -49.1162   67.0824  -20.4438 C   0  0  0  0  0  0  0  0  0  0  0  0
  -48.5711   67.0402  -21.8238 C   0  0  0  0  0  0  0  0  0  0  0  0
  -47.0659   67.2265  -21.9141 C   0  0  0  0  0  0  0  0  0  0  0  0
  -46.3923   67.2942  -23.2937 C   0  0  0  0  0  0  0  0  0  0  0  0
  -46.7460   68.3312  -24.1325 N   0  0  0  0  0  0  0  0  0  0  0  0
  1  2  1  0  0  0  0
  1  3  1  0  0  0  0
  1  4  1  0  0  0  0
  3  5  1  0  0  0  0
  5  6  1  0  0  0  0
  6  7  1  0  0  0  0
  7  8  1  0  0  0  0
  8  9  1  0  0  0  0
M  END
>  <CHROM.1>
-99.87793943,167.93318357,62.75983555,-176.04404615,62.47229727,-48.56328163
67.86048288,-20.56555123,2.36359694,-0.75788089,2.02416621

>  <Name>
ligand

>  <RI>
0

>  <Rbt.Current_Directory>
/home/itssahil/PROJECTS/Mol_Feturizer/Test_systems_manuscript/rnas/4erj

>  <Rbt.Executable>
rbdock ($Id: //depot/dev/client3/rdock/2013.1/src/exe/rbdock.cxx#4 $)

>  <Rbt.Library>
libRbt.so (2013.1, Build901 2013/11/27)

>  <Rbt.Parameter_File>
/export/apps/rDock/src/rDock_2013.1_src/data/scripts/dock_solv.prm

>  <Rbt.Receptor>
prm/pocket_docking_4.prm

>  <SCORE>
-12.3243

>  <SCORE.INTER>
-9.76074

>  <SCORE.INTER.CONST>
1

>  <SCORE.INTER.POLAR>
0

>  <SCORE.INTER.ROT>
5

>  <SCORE.INTER.SOLV>
7.40565

>  <SCORE.INTER.VDW>
-15.909

>  <SCORE.INTER.norm>
-1.08453

>  <SCORE.INTRA>
-2.56354

>  <SCORE.INTRA.DIHEDRAL>
-5.43071

>  <SCORE.INTRA.DIHEDRAL.0>
7.73744

>  <SCORE.INTRA.POLAR>
0

>  <SCORE.INTRA.POLAR.0>
0

>  <SCORE.INTRA.REPUL>
0

>  <SCORE.INTRA.REPUL.0>
0

>  <SCORE.INTRA.SOLV>
0.521539

>  <SCORE.INTRA.SOLV.lig_0>
-15.8342

>  <SCORE.INTRA.VDW>
-0.108956

>  <SCORE.INTRA.VDW.0>
-0.219494

>  <SCORE.INTRA.norm>
-0.284838

>  <SCORE.RESTR>
0

>  <SCORE.RESTR.CAVITY>
0

>  <SCORE.RESTR.norm>
0

>  <SCORE.SYSTEM>
0

>  <SCORE.SYSTEM.CONST>
0

>  <SCORE.SYSTEM.DIHEDRAL>
0

>  <SCORE.SYSTEM.SOLV>
0

>  <SCORE.SYSTEM.norm>
0

>  <SCORE.heavy>
9

>  <SCORE.norm>
-1.36936

>  <RMSD>
5.611

$$$$
ligand
 OpenBabel02271912143D
libRbt.so/2013.1/901 2013/11/27
  9  8  0  0  0  0  0  0  0  0999 V2000
  -50.8096   69.6066  -18.9391 C   0  0  0  0  0  0  0  0  0  0  0  0
  -50.3850   70.4462  -19.8137 O   0  0  0  0  0  0  0  0  0  0  0  0
  -49.8766   68.6583  -18.3175 C   0  0  0  0  0  0  0  0  0  0  0  0
  -52.0422   69.5424  -18.6227 O   0  0  0  0  0  0  0  0  0  0  0  0
  -49.3720   67.5735  -19.2153 C   0  0  0  0  0  0  0  0  0  0  0  0
  -48.5178   67.9641  -20.3645 C   0  0  0  0  0  0  0  0  0  0  0  0
  -48.1364   66.8179  -21.2862 C   0  0  0  0  0  0  0  0  0  0  0  0
  -47.1692   67.0735  -22.4529 C   0  0  0  0  0  0  0  0  0  0  0  0
  -47.5412   67.9991  -23.4063 N   0  0  0  0  0  0  0  0  0  0  0  0
  1  2  1  0  0  0  0
  1  3  1  0  0  0  0
  1  4  1  0  0  0  0
  3  5  1  0  0  0  0
  5  6  1  0  0  0  0
  6  7  1  0  0  0  0
  7  8  1  0  0  0  0
  8  9  1  0  0  0  0
M  END
>  <CHROM.1>
-70.54397197,65.38108815,-175.51520985,-175.46566546,-60.02642255,-49.35186894
68.43911044,-20.25676796,2.86208392,-0.84501538,2.23044852

>  <Name>
ligand

>  <RI>
0

>  <Rbt.Current_Directory>
/home/itssahil/PROJECTS/Mol_Feturizer/Test_systems_manuscript/rnas/4erj

>  <Rbt.Executable>
rbdock ($Id: //depot/dev/client3/rdock/2013.1/src/exe/rbdock.cxx#4 $)

>  <Rbt.Library>
libRbt.so (2013.1, Build901 2013/11/27)

>  <Rbt.Parameter_File>
/export/apps/rDock/src/rDock_2013.1_src/data/scripts/dock_solv.prm

>  <Rbt.Receptor>
prm/pocket_docking_5.prm

>  <SCORE>
-14.1282

>  <SCORE.INTER>
-11.0391

>  <SCORE.INTER.CONST>
1

>  <SCORE.INTER.POLAR>
0

>  <SCORE.INTER.ROT>
5

>  <SCORE.INTER.SOLV>
7.27645

>  <SCORE.INTER.VDW>
-16.7182

>  <SCORE.INTER.norm>
-1.22657

>  <SCORE.INTRA>
-3.08903

>  <SCORE.INTRA.DIHEDRAL>
-5.82481

>  <SCORE.INTRA.DIHEDRAL.0>
7.73744

>  <SCORE.INTRA.POLAR>
0

>  <SCORE.INTRA.POLAR.0>
0

>  <SCORE.INTRA.REPUL>
0

>  <SCORE.INTRA.REPUL.0>
0

>  <SCORE.INTRA.SOLV>
0.512217

>  <SCORE.INTRA.SOLV.lig_0>
-15.8342

>  <SCORE.INTRA.VDW>
-0.432731

>  <SCORE.INTRA.VDW.0>
-0.219494

>  <SCORE.INTRA.norm>
-0.343225

>  <SCORE.RESTR>
0

>  <SCORE.RESTR.CAVITY>
0

>  <SCORE.RESTR.norm>
0

>  <SCORE.SYSTEM>
0

>  <SCORE.SYSTEM.CONST>
0

>  <SCORE.SYSTEM.DIHEDRAL>
0

>  <SCORE.SYSTEM.SOLV>
0

>  <SCORE.SYSTEM.norm>
0

>  <SCORE.heavy>
9

>  <SCORE.norm>
-1.5698

>  <RMSD>
5.611

$$$$
ligand
 OpenBabel02271912143D
libRbt.so/2013.1/901 2013/11/27
  9  8  0  0  0  0  0  0  0  0999 V2000
  -50.8125   69.6351  -18.9510 C   0  0  0  0  0  0  0  0  0  0  0  0
  -50.3778   70.4957  -19.7996 O   0  0  0  0  0  0  0  0  0  0  0  0
  -49.8839   68.6820  -18.3300 C   0  0  0  0  0  0  0  0  0  0  0  0
  -52.0506   69.5543  -18.6609 O   0  0  0  0  0  0  0  0  0  0  0  0
  -49.3883   67.5926  -19.2271 C   0  0  0  0  0  0  0  0  0  0  0  0
  -48.5119   67.9730  -20.3631 C   0  0  0  0  0  0  0  0  0  0  0  0
  -48.1411   66.8249  -21.2866 C   0  0  0  0  0  0  0  0  0  0  0  0
  -47.1819   67.0765  -22.4607 C   0  0  0  0  0  0  0  0  0  0  0  0
  -47.5543   68.0084  -23.4078 N   0  0  0  0  0  0  0  0  0  0  0  0
  1  2  1  0  0  0  0
  1  3  1  0  0  0  0
  1  4  1  0  0  0  0
  3  5  1  0  0  0  0
  5  6  1  0  0  0  0
  6  7  1  0  0  0  0
  7  8  1  0  0  0  0
  8  9  1  0  0  0  0
M  END
>  <CHROM.1>
-72.52954211,66.58742836,-175.47028791,-177.00205167,-59.63688099,-49.35756459
68.45722221,-20.26446336,2.87546799,-0.84923024,2.24098969

>  <Name>
ligand

>  <RI>
0

>  <Rbt.Current_Directory>
/home/itssahil/PROJECTS/Mol_Feturizer/Test_systems_manuscript/rnas/4erj

>  <Rbt.Executable>
rbdock ($Id: //depot/dev/client3/rdock/2013.1/src/exe/rbdock.cxx#4 $)

>  <Rbt.Library>
libRbt.so (2013.1, Build901 2013/11/27)

>  <Rbt.Parameter_File>
/export/apps/rDock/src/rDock_2013.1_src/data/scripts/dock_solv.prm

>  <Rbt.Receptor>
prm/pocket_docking_5.prm

>  <SCORE>
-14.1239

>  <SCORE.INTER>
-11.0124

>  <SCORE.INTER.CONST>
1

>  <SCORE.INTER.POLAR>
0

>  <SCORE.INTER.ROT>
5

>  <SCORE.INTER.SOLV>
7.26173

>  <SCORE.INTER.VDW>
-16.6955

>  <SCORE.INTER.norm>
-1.2236

>  <SCORE.INTRA>
-3.11148

>  <SCORE.INTRA.DIHEDRAL>
-5.81952

>  <SCORE.INTRA.DIHEDRAL.0>
7.73744

>  <SCORE.INTRA.POLAR>
0

>  <SCORE.INTRA.POLAR.0>
0

>  <SCORE.INTRA.REPUL>
0

>  <SCORE.INTRA.REPUL.0>
0

>  <SCORE.INTRA.SOLV>
0.521401

>  <SCORE.INTRA.SOLV.lig_0>
-15.8342

>  <SCORE.INTRA.VDW>
-0.462422

>  <SCORE.INTRA.VDW.0>
-0.219494

>  <SCORE.INTRA.norm>
-0.34572

>  <SCORE.RESTR>
0

>  <SCORE.RESTR.CAVITY>
0

>  <SCORE.RESTR.norm>
0

>  <SCORE.SYSTEM>
0

>  <SCORE.SYSTEM.CONST>
0

>  <SCORE.SYSTEM.DIHEDRAL>
0

>  <SCORE.SYSTEM.SOLV>
0

>  <SCORE.SYSTEM.norm>
0

>  <SCORE.heavy>
9

>  <SCORE.norm>
-1.56932

>  <RMSD>
5.611

$$$$
ligand
 OpenBabel02271912143D
libRbt.so/2013.1/901 2013/11/27
  9  8  0  0  0  0  0  0  0  0999 V2000
  -50.7620   69.6148  -18.9664 C   0  0  0  0  0  0  0  0  0  0  0  0
  -52.0223   69.5276  -18.7344 O   0  0  0  0  0  0  0  0  0  0  0  0
  -49.8321   68.6672  -18.3390 C   0  0  0  0  0  0  0  0  0  0  0  0
  -50.2836   70.5396  -19.7010 O   0  0  0  0  0  0  0  0  0  0  0  0
  -48.7740   68.1151  -19.2405 C   0  0  0  0  0  0  0  0  0  0  0  0
  -49.2087   67.3236  -20.4186 C   0  0  0  0  0  0  0  0  0  0  0  0
  -48.0785   66.8736  -21.3289 C   0  0  0  0  0  0  0  0  0  0  0  0
  -47.2154   67.9261  -22.0424 C   0  0  0  0  0  0  0  0  0  0  0  0
  -46.2103   67.4775  -22.8746 N   0  0  0  0  0  0  0  0  0  0  0  0
  1  2  1  0  0  0  0
  1  3  1  0  0  0  0
  1  4  1  0  0  0  0
  3  5  1  0  0  0  0
  5  6  1  0  0  0  0
  6  7  1  0  0  0  0
  7  8  1  0  0  0  0
  8  9  1  0  0  0  0
M  END
>  <CHROM.1>
136.08441162,-61.49028345,176.36165024,-62.44130169,-179.15048093,-49.19080364
68.48224953,-20.17185722,-3.05802143,-0.78003413,2.66985836

>  <Name>
ligand

>  <RI>
0

>  <Rbt.Current_Directory>
/home/itssahil/PROJECTS/Mol_Feturizer/Test_systems_manuscript/rnas/4erj

>  <Rbt.Executable>
rbdock ($Id: //depot/dev/client3/rdock/2013.1/src/exe/rbdock.cxx#4 $)

>  <Rbt.Library>
libRbt.so (2013.1, Build901 2013/11/27)

>  <Rbt.Parameter_File>
/export/apps/rDock/src/rDock_2013.1_src/data/scripts/dock_solv.prm

>  <Rbt.Receptor>
prm/pocket_docking_5.prm

>  <SCORE>
-14.0024

>  <SCORE.INTER>
-11.0377

>  <SCORE.INTER.CONST>
1

>  <SCORE.INTER.POLAR>
0

>  <SCORE.INTER.ROT>
5

>  <SCORE.INTER.SOLV>
6.81137

>  <SCORE.INTER.VDW>
-16.5622

>  <SCORE.INTER.norm>
-1.22641

>  <SCORE.INTRA>
-2.9647

>  <SCORE.INTRA.DIHEDRAL>
-6.03604

>  <SCORE.INTRA.DIHEDRAL.0>
7.73744

>  <SCORE.INTRA.POLAR>
0

>  <SCORE.INTRA.POLAR.0>
0

>  <SCORE.INTRA.REPUL>
0

>  <SCORE.INTRA.REPUL.0>
0

>  <SCORE.INTRA.SOLV>
0.0375122

>  <SCORE.INTRA.SOLV.lig_0>
-15.8342

>  <SCORE.INTRA.VDW>
0.0345672

>  <SCORE.INTRA.VDW.0>
-0.219494

>  <SCORE.INTRA.norm>
-0.329411

>  <SCORE.RESTR>
0

>  <SCORE.RESTR.CAVITY>
0

>  <SCORE.RESTR.norm>
0

>  <SCORE.SYSTEM>
0

>  <SCORE.SYSTEM.CONST>
0

>  <SCORE.SYSTEM.DIHEDRAL>
0

>  <SCORE.SYSTEM.SOLV>
0

>  <SCORE.SYSTEM.norm>
0

>  <SCORE.heavy>
9

>  <SCORE.norm>
-1.55582

>  <RMSD>
5.611

$$$$
ligand
 OpenBabel02271912143D
libRbt.so/2013.1/901 2013/11/27
  9  8  0  0  0  0  0  0  0  0999 V2000
  -50.7802   69.6354  -18.9631 C   0  0  0  0  0  0  0  0  0  0  0  0
  -50.3177   70.5332  -19.7567 O   0  0  0  0  0  0  0  0  0  0  0  0
  -49.8689   68.6709  -18.3341 C   0  0  0  0  0  0  0  0  0  0  0  0
  -52.0295   69.5280  -18.7367 O   0  0  0  0  0  0  0  0  0  0  0  0
  -48.8049   68.1173  -19.2278 C   0  0  0  0  0  0  0  0  0  0  0  0
  -49.2317   67.3218  -20.4059 C   0  0  0  0  0  0  0  0  0  0  0  0
  -48.0948   66.8625  -21.3032 C   0  0  0  0  0  0  0  0  0  0  0  0
  -47.2189   67.9080  -22.0115 C   0  0  0  0  0  0  0  0  0  0  0  0
  -46.2102   67.4511  -22.8349 N   0  0  0  0  0  0  0  0  0  0  0  0
  1  2  1  0  0  0  0
  1  3  1  0  0  0  0
  1  4  1  0  0  0  0
  3  5  1  0  0  0  0
  5  6  1  0  0  0  0
  6  7  1  0  0  0  0
  7  8  1  0  0  0  0
  8  9  1  0  0  0  0
M  END
>  <CHROM.1>
-42.04087468,-62.62726624,176.74834360,-62.32216939,-178.97889601,-49.20975712
68.47780278,-20.16494487,-3.06338776,-0.77552150,2.65261284

>  <Name>
ligand

>  <RI>
0

>  <Rbt.Current_Directory>
/home/itssahil/PROJECTS/Mol_Feturizer/Test_systems_manuscript/rnas/4erj

>  <Rbt.Executable>
rbdock ($Id: //depot/dev/client3/rdock/2013.1/src/exe/rbdock.cxx#4 $)

>  <Rbt.Library>
libRbt.so (2013.1, Build901 2013/11/27)

>  <Rbt.Parameter_File>
/export/apps/rDock/src/rDock_2013.1_src/data/scripts/dock_solv.prm

>  <Rbt.Receptor>
prm/pocket_docking_7.prm

>  <SCORE>
-13.964

>  <SCORE.INTER>
-11.0501

>  <SCORE.INTER.CONST>
1

>  <SCORE.INTER.POLAR>
0

>  <SCORE.INTER.ROT>
5

>  <SCORE.INTER.SOLV>
6.87254

>  <SCORE.INTER.VDW>
-16.5909

>  <SCORE.INTER.norm>
-1.22779

>  <SCORE.INTRA>
-2.91389

>  <SCORE.INTRA.DIHEDRAL>
-5.88012

>  <SCORE.INTRA.DIHEDRAL.0>
7.73744

>  <SCORE.INTRA.POLAR>
0

>  <SCORE.INTRA.POLAR.0>
0

>  <SCORE.INTRA.REPUL>
0

>  <SCORE.INTRA.REPUL.0>
0

>  <SCORE.INTRA.SOLV>
0.037229

>  <SCORE.INTRA.SOLV.lig_0>
-15.8342

>  <SCORE.INTRA.VDW>
0.00755918

>  <SCORE.INTRA.VDW.0>
-0.219494

>  <SCORE.INTRA.norm>
-0.323765

>  <SCORE.RESTR>
0

>  <SCORE.RESTR.CAVITY>
0

>  <SCORE.RESTR.norm>
0

>  <SCORE.SYSTEM>
0

>  <SCORE.SYSTEM.CONST>
0

>  <SCORE.SYSTEM.DIHEDRAL>
0

>  <SCORE.SYSTEM.SOLV>
0

>  <SCORE.SYSTEM.norm>
0

>  <SCORE.heavy>
9

>  <SCORE.norm>
-1.55155

>  <RMSD>
5.611

$$$$
ligand
 OpenBabel02271912143D
libRbt.so/2013.1/901 2013/11/27
  9  8  0  0  0  0  0  0  0  0999 V2000
  -50.7611   69.6268  -18.9380 C   0  0  0  0  0  0  0  0  0  0  0  0
  -50.2796   70.5673  -19.6684 O   0  0  0  0  0  0  0  0  0  0  0  0
  -49.8621   68.6458  -18.3168 C   0  0  0  0  0  0  0  0  0  0  0  0
  -52.0169   69.4922  -18.7698 O   0  0  0  0  0  0  0  0  0  0  0  0
  -48.8029   68.0886  -19.2140 C   0  0  0  0  0  0  0  0  0  0  0  0
  -49.2370   67.3229  -20.4091 C   0  0  0  0  0  0  0  0  0  0  0  0
  -48.1038   66.8659  -21.3122 C   0  0  0  0  0  0  0  0  0  0  0  0
  -47.1957   67.9123  -21.9770 C   0  0  0  0  0  0  0  0  0  0  0  0
  -46.1932   67.4586  -22.8097 N   0  0  0  0  0  0  0  0  0  0  0  0
  1  2  1  0  0  0  0
  1  3  1  0  0  0  0
  1  4  1  0  0  0  0
  3  5  1  0  0  0  0
  5  6  1  0  0  0  0
  6  7  1  0  0  0  0
  7  8  1  0  0  0  0
  8  9  1  0  0  0  0
M  END
>  <CHROM.1>
-45.51664461,-61.93557320,176.39963829,-61.24552755,-178.82873416,-49.19784405
68.47267907,-20.14710997,-3.01739861,-0.77071735,2.72004863

>  <Name>
ligand

>  <RI>
0

>  <Rbt.Current_Directory>
/home/itssahil/PROJECTS/Mol_Feturizer/Test_systems_manuscript/rnas/4erj

>  <Rbt.Executable>
rbdock ($Id: //depot/dev/client3/rdock/2013.1/src/exe/rbdock.cxx#4 $)

>  <Rbt.Library>
libRbt.so (2013.1, Build901 2013/11/27)

>  <Rbt.Parameter_File>
/export/apps/rDock/src/rDock_2013.1_src/data/scripts/dock_solv.prm

>  <Rbt.Receptor>
prm/pocket_docking_5.prm

>  <SCORE>
-13.9439

>  <SCORE.INTER>
-10.9969

>  <SCORE.INTER.CONST>
1

>  <SCORE.INTER.POLAR>
0

>  <SCORE.INTER.ROT>
5

>  <SCORE.INTER.SOLV>
6.92559

>  <SCORE.INTER.VDW>
-16.5731

>  <SCORE.INTER.norm>
-1.22188

>  <SCORE.INTRA>
-2.94704

>  <SCORE.INTRA.DIHEDRAL>
-5.91109

>  <SCORE.INTRA.DIHEDRAL.0>
7.73744

>  <SCORE.INTRA.POLAR>
0

>  <SCORE.INTRA.POLAR.0>
0

>  <SCORE.INTRA.REPUL>
0

>  <SCORE.INTRA.REPUL.0>
0

>  <SCORE.INTRA.SOLV>
0.0415501

>  <SCORE.INTRA.SOLV.lig_0>
-15.8342

>  <SCORE.INTRA.VDW>
-0.0122708

>  <SCORE.INTRA.VDW.0>
-0.219494

>  <SCORE.INTRA.norm>
-0.327449

>  <SCORE.RESTR>
0

>  <SCORE.RESTR.CAVITY>
0

>  <SCORE.RESTR.norm>
0

>  <SCORE.SYSTEM>
0

>  <SCORE.SYSTEM.CONST>
0

>  <SCORE.SYSTEM.DIHEDRAL>
0

>  <SCORE.SYSTEM.SOLV>
0

>  <SCORE.SYSTEM.norm>
0

>  <SCORE.heavy>
9

>  <SCORE.norm>
-1.54933

>  <RMSD>
5.612

$$$$
ligand
 OpenBabel02271912143D
libRbt.so/2013.1/901 2013/11/27
  9  8  0  0  0  0  0  0  0  0999 V2000
  -50.8603   69.6437  -19.0185 C   0  0  0  0  0  0  0  0  0  0  0  0
  -52.1075   69.5875  -18.7162 O   0  0  0  0  0  0  0  0  0  0  0  0
  -49.9098   68.7169  -18.3907 C   0  0  0  0  0  0  0  0  0  0  0  0
  -50.4107   70.5211  -19.8256 O   0  0  0  0  0  0  0  0  0  0  0  0
  -49.3975   67.6263  -19.2770 C   0  0  0  0  0  0  0  0  0  0  0  0
  -48.4971   68.0047  -20.3946 C   0  0  0  0  0  0  0  0  0  0  0  0
  -48.1076   66.8552  -21.3087 C   0  0  0  0  0  0  0  0  0  0  0  0
  -47.1373   67.1085  -22.4733 C   0  0  0  0  0  0  0  0  0  0  0  0
  -47.5088   68.0290  -23.4319 N   0  0  0  0  0  0  0  0  0  0  0  0
  1  2  1  0  0  0  0
  1  3  1  0  0  0  0
  1  4  1  0  0  0  0
  3  5  1  0  0  0  0
  5  6  1  0  0  0  0
  6  7  1  0  0  0  0
  7  8  1  0  0  0  0
  8  9  1  0  0  0  0
M  END
>  <CHROM.1>
106.77037893,68.64851981,-175.55088419,-177.76917774,-59.92282437,-49.36194785
68.48538081,-20.30291616,2.88461661,-0.83411286,2.24212342

>  <Name>
ligand

>  <RI>
0

>  <Rbt.Current_Directory>
/home/itssahil/PROJECTS/Mol_Feturizer/Test_systems_manuscript/rnas/4erj

>  <Rbt.Executable>
rbdock ($Id: //depot/dev/client3/rdock/2013.1/src/exe/rbdock.cxx#4 $)

>  <Rbt.Library>
libRbt.so (2013.1, Build901 2013/11/27)

>  <Rbt.Parameter_File>
/export/apps/rDock/src/rDock_2013.1_src/data/scripts/dock_solv.prm

>  <Rbt.Receptor>
prm/pocket_docking_6.prm

>  <SCORE>
-14.0314

>  <SCORE.INTER>
-11.0221

>  <SCORE.INTER.CONST>
1

>  <SCORE.INTER.POLAR>
0

>  <SCORE.INTER.ROT>
5

>  <SCORE.INTER.SOLV>
7.12942

>  <SCORE.INTER.VDW>
-16.6579

>  <SCORE.INTER.norm>
-1.22468

>  <SCORE.INTRA>
-3.00927

>  <SCORE.INTRA.DIHEDRAL>
-5.57666

>  <SCORE.INTRA.DIHEDRAL.0>
7.73744

>  <SCORE.INTRA.POLAR>
0

>  <SCORE.INTRA.POLAR.0>
0

>  <SCORE.INTRA.REPUL>
0

>  <SCORE.INTRA.REPUL.0>
0

>  <SCORE.INTRA.SOLV>
0.521699

>  <SCORE.INTRA.SOLV.lig_0>
-15.8342

>  <SCORE.INTRA.VDW>
-0.481787

>  <SCORE.INTRA.VDW.0>
-0.219494

>  <SCORE.INTRA.norm>
-0.334363

>  <SCORE.RESTR>
0

>  <SCORE.RESTR.CAVITY>
0

>  <SCORE.RESTR.norm>
0

>  <SCORE.SYSTEM>
0

>  <SCORE.SYSTEM.CONST>
0

>  <SCORE.SYSTEM.DIHEDRAL>
0

>  <SCORE.SYSTEM.SOLV>
0

>  <SCORE.SYSTEM.norm>
0

>  <SCORE.heavy>
9

>  <SCORE.norm>
-1.55904

>  <RMSD>
5.614

$$$$
ligand
 OpenBabel02271912143D
libRbt.so/2013.1/901 2013/11/27
  9  8  0  0  0  0  0  0  0  0999 V2000
  -50.8111   69.5987  -18.9356 C   0  0  0  0  0  0  0  0  0  0  0  0
  -52.0636   69.5560  -18.6542 O   0  0  0  0  0  0  0  0  0  0  0  0
  -49.8813   68.6615  -18.2925 C   0  0  0  0  0  0  0  0  0  0  0  0
  -50.3386   70.4713  -19.7349 O   0  0  0  0  0  0  0  0  0  0  0  0
  -49.3267   67.5958  -19.1836 C   0  0  0  0  0  0  0  0  0  0  0  0
  -48.4396   68.0140  -20.2977 C   0  0  0  0  0  0  0  0  0  0  0  0
  -47.9678   66.8781  -21.1897 C   0  0  0  0  0  0  0  0  0  0  0  0
  -47.0066   67.1760  -22.3513 C   0  0  0  0  0  0  0  0  0  0  0  0
  -47.4383   68.0373  -23.3391 N   0  0  0  0  0  0  0  0  0  0  0  0
  1  2  1  0  0  0  0
  1  3  1  0  0  0  0
  1  4  1  0  0  0  0
  3  5  1  0  0  0  0
  5  6  1  0  0  0  0
  6  7  1  0  0  0  0
  7  8  1  0  0  0  0
  8  9  1  0  0  0  0
M  END
>  <CHROM.1>
108.95188212,65.52740243,-177.50386600,-177.98886056,-60.96440223,-49.28838390
68.47342435,-20.20798286,2.86958023,-0.81339585,2.23043032

>  <Name>
ligand

>  <RI>
0

>  <Rbt.Current_Directory>
/home/itssahil/PROJECTS/Mol_Feturizer/Test_systems_manuscript/rnas/4erj

>  <Rbt.Executable>
rbdock ($Id: //depot/dev/client3/rdock/2013.1/src/exe/rbdock.cxx#4 $)

>  <Rbt.Library>
libRbt.so (2013.1, Build901 2013/11/27)

>  <Rbt.Parameter_File>
/export/apps/rDock/src/rDock_2013.1_src/data/scripts/dock_solv.prm

>  <Rbt.Receptor>
prm/blind_docking_100.prm

>  <SCORE>
-14.0653

>  <SCORE.INTER>
-10.9791

>  <SCORE.INTER.CONST>
1

>  <SCORE.INTER.POLAR>
0

>  <SCORE.INTER.ROT>
5

>  <SCORE.INTER.SOLV>
6.99656

>  <SCORE.INTER.VDW>
-16.5849

>  <SCORE.INTER.norm>
-1.2199

>  <SCORE.INTRA>
-3.08621

>  <SCORE.INTRA.DIHEDRAL>
-5.82361

>  <SCORE.INTRA.DIHEDRAL.0>
7.73744

>  <SCORE.INTRA.POLAR>
0

>  <SCORE.INTRA.POLAR.0>
0

>  <SCORE.INTRA.REPUL>
0

>  <SCORE.INTRA.REPUL.0>
0

>  <SCORE.INTRA.SOLV>
0.51186

>  <SCORE.INTRA.SOLV.lig_0>
-15.8342

>  <SCORE.INTRA.VDW>
-0.430333

>  <SCORE.INTRA.VDW.0>
-0.219494

>  <SCORE.INTRA.norm>
-0.342912

>  <SCORE.RESTR>
0

>  <SCORE.RESTR.CAVITY>
0

>  <SCORE.RESTR.norm>
0

>  <SCORE.SYSTEM>
0

>  <SCORE.SYSTEM.CONST>
0

>  <SCORE.SYSTEM.DIHEDRAL>
0

>  <SCORE.SYSTEM.SOLV>
0

>  <SCORE.SYSTEM.norm>
0

>  <SCORE.heavy>
9

>  <SCORE.norm>
-1.56281

>  <RMSD>
5.616

$$$$
ligand
 OpenBabel02271912143D
libRbt.so/2013.1/901 2013/11/27
  9  8  0  0  0  0  0  0  0  0999 V2000
  -50.8611   69.6634  -18.9879 C   0  0  0  0  0  0  0  0  0  0  0  0
  -50.4127   70.5310  -19.8221 O   0  0  0  0  0  0  0  0  0  0  0  0
  -49.9435   68.7015  -18.3639 C   0  0  0  0  0  0  0  0  0  0  0  0
  -52.1032   69.5833  -18.7151 O   0  0  0  0  0  0  0  0  0  0  0  0
  -49.4384   67.6200  -19.2653 C   0  0  0  0  0  0  0  0  0  0  0  0
  -48.5220   68.0057  -20.3673 C   0  0  0  0  0  0  0  0  0  0  0  0
  -48.1174   66.8617  -21.2818 C   0  0  0  0  0  0  0  0  0  0  0  0
  -47.1379   67.1248  -22.4365 C   0  0  0  0  0  0  0  0  0  0  0  0
  -47.4937   68.0663  -23.3805 N   0  0  0  0  0  0  0  0  0  0  0  0
  1  2  1  0  0  0  0
  1  3  1  0  0  0  0
  1  4  1  0  0  0  0
  3  5  1  0  0  0  0
  5  6  1  0  0  0  0
  6  7  1  0  0  0  0
  7  8  1  0  0  0  0
  8  9  1  0  0  0  0
M  END
>  <CHROM.1>
-72.49884174,67.89423081,-176.75095522,-178.19232496,-58.63454676,-49.37211860
68.49225578,-20.27969008,2.90927182,-0.83483522,2.27545231

>  <Name>
ligand

>  <RI>
0

>  <Rbt.Current_Directory>
/home/itssahil/PROJECTS/Mol_Feturizer/Test_systems_manuscript/rnas/4erj

>  <Rbt.Executable>
rbdock ($Id: //depot/dev/client3/rdock/2013.1/src/exe/rbdock.cxx#4 $)

>  <Rbt.Library>
libRbt.so (2013.1, Build901 2013/11/27)

>  <Rbt.Parameter_File>
/export/apps/rDock/src/rDock_2013.1_src/data/scripts/dock_solv.prm

>  <Rbt.Receptor>
prm/pocket_docking_7.prm

>  <SCORE>
-14.0596

>  <SCORE.INTER>
-10.9543

>  <SCORE.INTER.CONST>
1

>  <SCORE.INTER.POLAR>
0

>  <SCORE.INTER.ROT>
5

>  <SCORE.INTER.SOLV>
7.04496

>  <SCORE.INTER.VDW>
-16.5845

>  <SCORE.INTER.norm>
-1.21715

>  <SCORE.INTRA>
-3.10523

>  <SCORE.INTRA.DIHEDRAL>
-5.80079

>  <SCORE.INTRA.DIHEDRAL.0>
7.73744

>  <SCORE.INTRA.POLAR>
0

>  <SCORE.INTRA.POLAR.0>
0

>  <SCORE.INTRA.REPUL>
0

>  <SCORE.INTRA.REPUL.0>
0

>  <SCORE.INTRA.SOLV>
0.535632

>  <SCORE.INTRA.SOLV.lig_0>
-15.8342

>  <SCORE.INTRA.VDW>
-0.472649

>  <SCORE.INTRA.VDW.0>
-0.219494

>  <SCORE.INTRA.norm>
-0.345025

>  <SCORE.RESTR>
0

>  <SCORE.RESTR.CAVITY>
0

>  <SCORE.RESTR.norm>
0

>  <SCORE.SYSTEM>
0

>  <SCORE.SYSTEM.CONST>
0

>  <SCORE.SYSTEM.DIHEDRAL>
0

>  <SCORE.SYSTEM.SOLV>
0

>  <SCORE.SYSTEM.norm>
0

>  <SCORE.heavy>
9

>  <SCORE.norm>
-1.56217

>  <RMSD>
5.616

$$$$
ligand
 OpenBabel02271912143D
libRbt.so/2013.1/901 2013/11/27
  9  8  0  0  0  0  0  0  0  0999 V2000
  -49.5476   68.4185  -18.3650 C   0  0  0  0  0  0  0  0  0  0  0  0
  -50.7805   68.7663  -18.4590 O   0  0  0  0  0  0  0  0  0  0  0  0
  -49.1609   67.0181  -18.5786 C   0  0  0  0  0  0  0  0  0  0  0  0
  -48.6430   69.2567  -18.0444 O   0  0  0  0  0  0  0  0  0  0  0  0
  -48.8327   66.6520  -19.9913 C   0  0  0  0  0  0  0  0  0  0  0  0
  -47.7064   67.3605  -20.6488 C   0  0  0  0  0  0  0  0  0  0  0  0
  -47.4725   66.9671  -22.0977 C   0  0  0  0  0  0  0  0  0  0  0  0
  -46.3277   67.6230  -22.8856 C   0  0  0  0  0  0  0  0  0  0  0  0
  -46.1605   67.2545  -24.2049 N   0  0  0  0  0  0  0  0  0  0  0  0
  1  2  1  0  0  0  0
  1  3  1  0  0  0  0
  1  4  1  0  0  0  0
  3  5  1  0  0  0  0
  5  6  1  0  0  0  0
  6  7  1  0  0  0  0
  7  8  1  0  0  0  0
  8  9  1  0  0  0  0
M  END
>  <CHROM.1>
89.51116885,60.63230446,-177.82463368,-179.53918630,-179.02139702,-48.31670902
67.73097156,-20.32974023,-2.53673654,-0.86770998,-2.64121756

>  <Name>
ligand

>  <RI>
0

>  <Rbt.Current_Directory>
/home/itssahil/PROJECTS/Mol_Feturizer/Test_systems_manuscript/rnas/4erj

>  <Rbt.Executable>
rbdock ($Id: //depot/dev/client3/rdock/2013.1/src/exe/rbdock.cxx#4 $)

>  <Rbt.Library>
libRbt.so (2013.1, Build901 2013/11/27)

>  <Rbt.Parameter_File>
/export/apps/rDock/src/rDock_2013.1_src/data/scripts/dock_solv.prm

>  <Rbt.Receptor>
prm/pocket_docking_3.prm

>  <SCORE>
-13.6398

>  <SCORE.INTER>
-10.1421

>  <SCORE.INTER.CONST>
1

>  <SCORE.INTER.POLAR>
0

>  <SCORE.INTER.ROT>
5

>  <SCORE.INTER.SOLV>
9.79548

>  <SCORE.INTER.VDW>
-16.9599

>  <SCORE.INTER.norm>
-1.12691

>  <SCORE.INTRA>
-3.49763

>  <SCORE.INTRA.DIHEDRAL>
-5.9311

>  <SCORE.INTRA.DIHEDRAL.0>
7.73744

>  <SCORE.INTRA.POLAR>
0

>  <SCORE.INTRA.POLAR.0>
0

>  <SCORE.INTRA.REPUL>
0

>  <SCORE.INTRA.REPUL.0>
0

>  <SCORE.INTRA.SOLV>
-0.123206

>  <SCORE.INTRA.SOLV.lig_0>
-15.8342

>  <SCORE.INTRA.VDW>
-0.470478

>  <SCORE.INTRA.VDW.0>
-0.219494

>  <SCORE.INTRA.norm>
-0.388626

>  <SCORE.RESTR>
0

>  <SCORE.RESTR.CAVITY>
0

>  <SCORE.RESTR.norm>
0

>  <SCORE.SYSTEM>
0

>  <SCORE.SYSTEM.CONST>
0

>  <SCORE.SYSTEM.DIHEDRAL>
0

>  <SCORE.SYSTEM.SOLV>
0

>  <SCORE.SYSTEM.norm>
0

>  <SCORE.heavy>
9

>  <SCORE.norm>
-1.51553

>  <RMSD>
5.617

$$$$
ligand
 OpenBabel02271912143D
libRbt.so/2013.1/901 2013/11/27
  9  8  0  0  0  0  0  0  0  0999 V2000
  -49.5048   67.9563  -18.2128 C   0  0  0  0  0  0  0  0  0  0  0  0
  -50.4042   68.8728  -18.2456 O   0  0  0  0  0  0  0  0  0  0  0  0
  -48.5568   67.8171  -19.3256 C   0  0  0  0  0  0  0  0  0  0  0  0
  -49.4377   67.1247  -17.2497 O   0  0  0  0  0  0  0  0  0  0  0  0
  -48.9436   66.8261  -20.3771 C   0  0  0  0  0  0  0  0  0  0  0  0
  -48.0343   66.6539  -21.5375 C   0  0  0  0  0  0  0  0  0  0  0  0
  -47.9762   67.8468  -22.4767 C   0  0  0  0  0  0  0  0  0  0  0  0
  -47.0557   67.7989  -23.7064 C   0  0  0  0  0  0  0  0  0  0  0  0
  -47.0790   68.8747  -24.5702 N   0  0  0  0  0  0  0  0  0  0  0  0
  1  2  1  0  0  0  0
  1  3  1  0  0  0  0
  1  4  1  0  0  0  0
  3  5  1  0  0  0  0
  5  6  1  0  0  0  0
  6  7  1  0  0  0  0
  7  8  1  0  0  0  0
  8  9  1  0  0  0  0
M  END
>  <CHROM.1>
-94.35313117,179.18354588,-68.84709122,179.17769346,176.92777697,-48.58205326
67.75657352,-20.58211393,2.46676377,-1.05906422,2.44436741

>  <Name>
ligand

>  <RI>
0

>  <Rbt.Current_Directory>
/home/itssahil/PROJECTS/Mol_Feturizer/Test_systems_manuscript/rnas/4erj

>  <Rbt.Executable>
rbdock ($Id: //depot/dev/client3/rdock/2013.1/src/exe/rbdock.cxx#4 $)

>  <Rbt.Library>
libRbt.so (2013.1, Build901 2013/11/27)

>  <Rbt.Parameter_File>
/export/apps/rDock/src/rDock_2013.1_src/data/scripts/dock_solv.prm

>  <Rbt.Receptor>
prm/pocket_docking_6.prm

>  <SCORE>
-13.3089

>  <SCORE.INTER>
-10.135

>  <SCORE.INTER.CONST>
1

>  <SCORE.INTER.POLAR>
0

>  <SCORE.INTER.ROT>
5

>  <SCORE.INTER.SOLV>
8.51693

>  <SCORE.INTER.VDW>
-16.529

>  <SCORE.INTER.norm>
-1.12612

>  <SCORE.INTRA>
-3.17385

>  <SCORE.INTRA.DIHEDRAL>
-5.79024

>  <SCORE.INTRA.DIHEDRAL.0>
7.73744

>  <SCORE.INTRA.POLAR>
0

>  <SCORE.INTRA.POLAR.0>
0

>  <SCORE.INTRA.REPUL>
0

>  <SCORE.INTRA.REPUL.0>
0

>  <SCORE.INTRA.SOLV>
-0.122114

>  <SCORE.INTRA.SOLV.lig_0>
-15.8342

>  <SCORE.INTRA.VDW>
-0.217671

>  <SCORE.INTRA.VDW.0>
-0.219494

>  <SCORE.INTRA.norm>
-0.352649

>  <SCORE.RESTR>
0

>  <SCORE.RESTR.CAVITY>
0

>  <SCORE.RESTR.norm>
0

>  <SCORE.SYSTEM>
0

>  <SCORE.SYSTEM.CONST>
0

>  <SCORE.SYSTEM.DIHEDRAL>
0

>  <SCORE.SYSTEM.SOLV>
0

>  <SCORE.SYSTEM.norm>
0

>  <SCORE.heavy>
9

>  <SCORE.norm>
-1.47877

>  <RMSD>
5.619

$$$$
ligand
 OpenBabel02271912143D
libRbt.so/2013.1/901 2013/11/27
  9  8  0  0  0  0  0  0  0  0999 V2000
  -49.6711   68.2055  -18.4445 C   0  0  0  0  0  0  0  0  0  0  0  0
  -50.8743   68.6482  -18.5231 O   0  0  0  0  0  0  0  0  0  0  0  0
  -48.5398   69.0990  -18.7241 C   0  0  0  0  0  0  0  0  0  0  0  0
  -49.4283   66.9852  -18.1696 O   0  0  0  0  0  0  0  0  0  0  0  0
  -48.2262   69.3023  -20.1725 C   0  0  0  0  0  0  0  0  0  0  0  0
  -47.7075   68.1428  -20.9403 C   0  0  0  0  0  0  0  0  0  0  0  0
  -47.2789   68.4672  -22.3614 C   0  0  0  0  0  0  0  0  0  0  0  0
  -46.6686   67.3634  -23.2394 C   0  0  0  0  0  0  0  0  0  0  0  0
  -46.2535   67.7072  -24.5097 N   0  0  0  0  0  0  0  0  0  0  0  0
  1  2  1  0  0  0  0
  1  3  1  0  0  0  0
  1  4  1  0  0  0  0
  3  5  1  0  0  0  0
  5  6  1  0  0  0  0
  6  7  1  0  0  0  0
  7  8  1  0  0  0  0
  8  9  1  0  0  0  0
M  END
>  <CHROM.1>
-80.86858678,-67.29620764,-173.94863021,177.42909687,-178.02182596,-48.33007403
68.20141734,-20.52938607,2.96083949,1.00396081,0.12860547

>  <Name>
ligand

>  <RI>
0

>  <Rbt.Current_Directory>
/home/itssahil/PROJECTS/Mol_Feturizer/Test_systems_manuscript/rnas/4erj

>  <Rbt.Executable>
rbdock ($Id: //depot/dev/client3/rdock/2013.1/src/exe/rbdock.cxx#4 $)

>  <Rbt.Library>
libRbt.so (2013.1, Build901 2013/11/27)

>  <Rbt.Parameter_File>
/export/apps/rDock/src/rDock_2013.1_src/data/scripts/dock_solv.prm

>  <Rbt.Receptor>
prm/blind_docking_100.prm

>  <SCORE>
-11.5096

>  <SCORE.INTER>
-8.06398

>  <SCORE.INTER.CONST>
1

>  <SCORE.INTER.POLAR>
0

>  <SCORE.INTER.ROT>
5

>  <SCORE.INTER.SOLV>
8.77892

>  <SCORE.INTER.VDW>
-15.2356

>  <SCORE.INTER.norm>
-0.895998

>  <SCORE.INTRA>
-3.44558

>  <SCORE.INTRA.DIHEDRAL>
-5.73406

>  <SCORE.INTRA.DIHEDRAL.0>
7.73744

>  <SCORE.INTRA.POLAR>
0

>  <SCORE.INTRA.POLAR.0>
0

>  <SCORE.INTRA.REPUL>
0

>  <SCORE.INTRA.REPUL.0>
0

>  <SCORE.INTRA.SOLV>
-0.122729

>  <SCORE.INTRA.SOLV.lig_0>
-15.8342

>  <SCORE.INTRA.VDW>
-0.51718

>  <SCORE.INTRA.VDW.0>
-0.219494

>  <SCORE.INTRA.norm>
-0.382842

>  <SCORE.RESTR>
0

>  <SCORE.RESTR.CAVITY>
0

>  <SCORE.RESTR.norm>
0

>  <SCORE.SYSTEM>
0

>  <SCORE.SYSTEM.CONST>
0

>  <SCORE.SYSTEM.DIHEDRAL>
0

>  <SCORE.SYSTEM.SOLV>
0

>  <SCORE.SYSTEM.norm>
0

>  <SCORE.heavy>
9

>  <SCORE.norm>
-1.27884

>  <RMSD>
5.621

$$$$
ligand
 OpenBabel02271912143D
libRbt.so/2013.1/901 2013/11/27
  9  8  0  0  0  0  0  0  0  0999 V2000
  -49.1398   67.7755  -18.3035 C   0  0  0  0  0  0  0  0  0  0  0  0
  -48.6631   68.9647  -18.2112 O   0  0  0  0  0  0  0  0  0  0  0  0
  -49.4364   67.2034  -19.6230 C   0  0  0  0  0  0  0  0  0  0  0  0
  -49.4076   67.0843  -17.2672 O   0  0  0  0  0  0  0  0  0  0  0  0
  -48.2597   67.0469  -20.5331 C   0  0  0  0  0  0  0  0  0  0  0  0
  -47.5428   68.2748  -20.9591 C   0  0  0  0  0  0  0  0  0  0  0  0
  -46.3793   68.0306  -21.9052 C   0  0  0  0  0  0  0  0  0  0  0  0
  -46.6441   67.4177  -23.2894 C   0  0  0  0  0  0  0  0  0  0  0  0
  -45.5722   67.2779  -24.1472 N   0  0  0  0  0  0  0  0  0  0  0  0
  1  2  1  0  0  0  0
  1  3  1  0  0  0  0
  1  4  1  0  0  0  0
  3  5  1  0  0  0  0
  5  6  1  0  0  0  0
  6  7  1  0  0  0  0
  7  8  1  0  0  0  0
  8  9  1  0  0  0  0
M  END
>  <CHROM.1>
62.12536319,-62.99143040,-178.76498886,62.97870576,176.58839389,-47.90980072
67.68433413,-20.42038075,-2.42813300,-0.85066973,-2.32485662

>  <Name>
ligand

>  <RI>
0

>  <Rbt.Current_Directory>
/home/itssahil/PROJECTS/Mol_Feturizer/Test_systems_manuscript/rnas/4erj

>  <Rbt.Executable>
rbdock ($Id: //depot/dev/client3/rdock/2013.1/src/exe/rbdock.cxx#4 $)

>  <Rbt.Library>
libRbt.so (2013.1, Build901 2013/11/27)

>  <Rbt.Parameter_File>
/export/apps/rDock/src/rDock_2013.1_src/data/scripts/dock_solv.prm

>  <Rbt.Receptor>
prm/pocket_docking_3.prm

>  <SCORE>
-13.0016

>  <SCORE.INTER>
-10.0344

>  <SCORE.INTER.CONST>
1

>  <SCORE.INTER.POLAR>
0

>  <SCORE.INTER.ROT>
5

>  <SCORE.INTER.SOLV>
8.72533

>  <SCORE.INTER.VDW>
-16.5314

>  <SCORE.INTER.norm>
-1.11493

>  <SCORE.INTRA>
-2.96721

>  <SCORE.INTRA.DIHEDRAL>
-5.92736

>  <SCORE.INTRA.DIHEDRAL.0>
7.73744

>  <SCORE.INTRA.POLAR>
0

>  <SCORE.INTRA.POLAR.0>
0

>  <SCORE.INTRA.REPUL>
0

>  <SCORE.INTRA.REPUL.0>
0

>  <SCORE.INTRA.SOLV>
0.0252844

>  <SCORE.INTRA.SOLV.lig_0>
-15.8342

>  <SCORE.INTRA.VDW>
-0.0161708

>  <SCORE.INTRA.VDW.0>
-0.219494

>  <SCORE.INTRA.norm>
-0.32969

>  <SCORE.RESTR>
0

>  <SCORE.RESTR.CAVITY>
0

>  <SCORE.RESTR.norm>
0

>  <SCORE.SYSTEM>
0

>  <SCORE.SYSTEM.CONST>
0

>  <SCORE.SYSTEM.DIHEDRAL>
0

>  <SCORE.SYSTEM.SOLV>
0

>  <SCORE.SYSTEM.norm>
0

>  <SCORE.heavy>
9

>  <SCORE.norm>
-1.44462

>  <RMSD>
5.621

$$$$
ligand
 OpenBabel02271912143D
libRbt.so/2013.1/901 2013/11/27
  9  8  0  0  0  0  0  0  0  0999 V2000
  -49.3991   67.9694  -18.1604 C   0  0  0  0  0  0  0  0  0  0  0  0
  -50.1753   68.9926  -18.1403 O   0  0  0  0  0  0  0  0  0  0  0  0
  -48.4954   67.7552  -19.2979 C   0  0  0  0  0  0  0  0  0  0  0  0
  -49.4218   67.0992  -17.2299 O   0  0  0  0  0  0  0  0  0  0  0  0
  -49.0630   66.9527  -20.4254 C   0  0  0  0  0  0  0  0  0  0  0  0
  -48.2398   66.7970  -21.6506 C   0  0  0  0  0  0  0  0  0  0  0  0
  -47.9901   68.0880  -22.4119 C   0  0  0  0  0  0  0  0  0  0  0  0
  -47.1247   68.0635  -23.6817 C   0  0  0  0  0  0  0  0  0  0  0  0
  -45.8112   67.6594  -23.5577 N   0  0  0  0  0  0  0  0  0  0  0  0
  1  2  1  0  0  0  0
  1  3  1  0  0  0  0
  1  4  1  0  0  0  0
  3  5  1  0  0  0  0
  5  6  1  0  0  0  0
  6  7  1  0  0  0  0
  7  8  1  0  0  0  0
  8  9  1  0  0  0  0
M  END
>  <CHROM.1>
-89.66516209,175.02505275,-65.36721802,178.64628609,-61.48537416,-48.44092616
67.71483910,-20.45575659,2.53768767,-0.98756238,2.42117897

>  <Name>
ligand

>  <RI>
0

>  <Rbt.Current_Directory>
/home/itssahil/PROJECTS/Mol_Feturizer/Test_systems_manuscript/rnas/4erj

>  <Rbt.Executable>
rbdock ($Id: //depot/dev/client3/rdock/2013.1/src/exe/rbdock.cxx#4 $)

>  <Rbt.Library>
libRbt.so (2013.1, Build901 2013/11/27)

>  <Rbt.Parameter_File>
/export/apps/rDock/src/rDock_2013.1_src/data/scripts/dock_solv.prm

>  <Rbt.Receptor>
prm/blind_docking_100.prm

>  <SCORE>
-13.5315

>  <SCORE.INTER>
-10.6417

>  <SCORE.INTER.CONST>
1

>  <SCORE.INTER.POLAR>
0

>  <SCORE.INTER.ROT>
5

>  <SCORE.INTER.SOLV>
7.20197

>  <SCORE.INTER.VDW>
-16.4284

>  <SCORE.INTER.norm>
-1.18241

>  <SCORE.INTRA>
-2.88986

>  <SCORE.INTRA.DIHEDRAL>
-5.91874

>  <SCORE.INTRA.DIHEDRAL.0>
7.73744

>  <SCORE.INTRA.POLAR>
0

>  <SCORE.INTRA.POLAR.0>
0

>  <SCORE.INTRA.REPUL>
0

>  <SCORE.INTRA.REPUL.0>
0

>  <SCORE.INTRA.SOLV>
0.519948

>  <SCORE.INTRA.SOLV.lig_0>
-15.8342

>  <SCORE.INTRA.VDW>
-0.190463

>  <SCORE.INTRA.VDW.0>
-0.219494

>  <SCORE.INTRA.norm>
-0.321095

>  <SCORE.RESTR>
0

>  <SCORE.RESTR.CAVITY>
0

>  <SCORE.RESTR.norm>
0

>  <SCORE.SYSTEM>
0

>  <SCORE.SYSTEM.CONST>
0

>  <SCORE.SYSTEM.DIHEDRAL>
0

>  <SCORE.SYSTEM.SOLV>
0

>  <SCORE.SYSTEM.norm>
0

>  <SCORE.heavy>
9

>  <SCORE.norm>
-1.50351

>  <RMSD>
5.624

$$$$
ligand
 OpenBabel02271912143D
libRbt.so/2013.1/901 2013/11/27
  9  8  0  0  0  0  0  0  0  0999 V2000
  -50.7812   69.6331  -18.9368 C   0  0  0  0  0  0  0  0  0  0  0  0
  -52.0415   69.5916  -18.6927 O   0  0  0  0  0  0  0  0  0  0  0  0
  -49.8811   68.6488  -18.3225 C   0  0  0  0  0  0  0  0  0  0  0  0
  -50.2759   70.5428  -19.6722 O   0  0  0  0  0  0  0  0  0  0  0  0
  -48.8193   68.1014  -19.2227 C   0  0  0  0  0  0  0  0  0  0  0  0
  -49.2497   67.3296  -20.4152 C   0  0  0  0  0  0  0  0  0  0  0  0
  -48.1139   66.8714  -21.3145 C   0  0  0  0  0  0  0  0  0  0  0  0
  -47.1922   67.9164  -21.9629 C   0  0  0  0  0  0  0  0  0  0  0  0
  -46.1896   67.4622  -22.7953 N   0  0  0  0  0  0  0  0  0  0  0  0
  1  2  1  0  0  0  0
  1  3  1  0  0  0  0
  1  4  1  0  0  0  0
  3  5  1  0  0  0  0
  5  6  1  0  0  0  0
  6  7  1  0  0  0  0
  7  8  1  0  0  0  0
  8  9  1  0  0  0  0
M  END
>  <CHROM.1>
138.36533081,-62.72729228,176.96933368,-60.19498546,-178.67111620,-49.20793898
68.48651156,-20.13721824,-3.01449802,-0.77112923,2.72078594

>  <Name>
ligand

>  <RI>
0

>  <Rbt.Current_Directory>
/home/itssahil/PROJECTS/Mol_Feturizer/Test_systems_manuscript/rnas/4erj

>  <Rbt.Executable>
rbdock ($Id: //depot/dev/client3/rdock/2013.1/src/exe/rbdock.cxx#4 $)

>  <Rbt.Library>
libRbt.so (2013.1, Build901 2013/11/27)

>  <Rbt.Parameter_File>
/export/apps/rDock/src/rDock_2013.1_src/data/scripts/dock_solv.prm

>  <Rbt.Receptor>
prm/pocket_docking_6.prm

>  <SCORE>
-13.9585

>  <SCORE.INTER>
-11.0479

>  <SCORE.INTER.CONST>
1

>  <SCORE.INTER.POLAR>
0

>  <SCORE.INTER.ROT>
5

>  <SCORE.INTER.SOLV>
6.91798

>  <SCORE.INTER.VDW>
-16.6046

>  <SCORE.INTER.norm>
-1.22754

>  <SCORE.INTRA>
-2.91068

>  <SCORE.INTRA.DIHEDRAL>
-6.05998

>  <SCORE.INTRA.DIHEDRAL.0>
7.73744

>  <SCORE.INTRA.POLAR>
0

>  <SCORE.INTRA.POLAR.0>
0

>  <SCORE.INTRA.REPUL>
0

>  <SCORE.INTRA.REPUL.0>
0

>  <SCORE.INTRA.SOLV>
0.0460379

>  <SCORE.INTRA.SOLV.lig_0>
-15.8342

>  <SCORE.INTRA.VDW>
0.0962947

>  <SCORE.INTRA.VDW.0>
-0.219494

>  <SCORE.INTRA.norm>
-0.323409

>  <SCORE.RESTR>
0

>  <SCORE.RESTR.CAVITY>
0

>  <SCORE.RESTR.norm>
0

>  <SCORE.SYSTEM>
0

>  <SCORE.SYSTEM.CONST>
0

>  <SCORE.SYSTEM.DIHEDRAL>
0

>  <SCORE.SYSTEM.SOLV>
0

>  <SCORE.SYSTEM.norm>
0

>  <SCORE.heavy>
9

>  <SCORE.norm>
-1.55095

>  <RMSD>
5.625

$$$$
ligand
 OpenBabel02271912143D
libRbt.so/2013.1/901 2013/11/27
  9  8  0  0  0  0  0  0  0  0999 V2000
  -49.5957   68.4012  -18.3377 C   0  0  0  0  0  0  0  0  0  0  0  0
  -48.7332   69.2815  -17.9758 O   0  0  0  0  0  0  0  0  0  0  0  0
  -49.1707   67.0199  -18.5980 C   0  0  0  0  0  0  0  0  0  0  0  0
  -50.8191   68.7056  -18.5223 O   0  0  0  0  0  0  0  0  0  0  0  0
  -48.7121   66.7427  -19.9946 C   0  0  0  0  0  0  0  0  0  0  0  0
  -47.5963   67.5592  -20.5343 C   0  0  0  0  0  0  0  0  0  0  0  0
  -47.1887   67.2104  -21.9559 C   0  0  0  0  0  0  0  0  0  0  0  0
  -46.0078   67.9468  -22.6078 C   0  0  0  0  0  0  0  0  0  0  0  0
  -45.6702   67.6038  -23.9010 N   0  0  0  0  0  0  0  0  0  0  0  0
  1  2  1  0  0  0  0
  1  3  1  0  0  0  0
  1  4  1  0  0  0  0
  3  5  1  0  0  0  0
  5  6  1  0  0  0  0
  6  7  1  0  0  0  0
  7  8  1  0  0  0  0
  8  9  1  0  0  0  0
M  END
>  <CHROM.1>
-87.78783621,56.90972855,179.76748411,-177.57382848,-179.86368354,-48.19345453
67.85699480,-20.23730729,-2.62758294,-0.79918324,-2.65208231

>  <Name>
ligand

>  <RI>
0

>  <Rbt.Current_Directory>
/home/itssahil/PROJECTS/Mol_Feturizer/Test_systems_manuscript/rnas/4erj

>  <Rbt.Executable>
rbdock ($Id: //depot/dev/client3/rdock/2013.1/src/exe/rbdock.cxx#4 $)

>  <Rbt.Library>
libRbt.so (2013.1, Build901 2013/11/27)

>  <Rbt.Parameter_File>
/export/apps/rDock/src/rDock_2013.1_src/data/scripts/dock_solv.prm

>  <Rbt.Receptor>
prm/pocket_docking_4.prm

>  <SCORE>
-13.7432

>  <SCORE.INTER>
-10.2167

>  <SCORE.INTER.CONST>
1

>  <SCORE.INTER.POLAR>
0

>  <SCORE.INTER.ROT>
5

>  <SCORE.INTER.SOLV>
8.36384

>  <SCORE.INTER.VDW>
-16.5324

>  <SCORE.INTER.norm>
-1.13519

>  <SCORE.INTRA>
-3.52646

>  <SCORE.INTRA.DIHEDRAL>
-6.09305

>  <SCORE.INTRA.DIHEDRAL.0>
7.73744

>  <SCORE.INTRA.POLAR>
0

>  <SCORE.INTRA.POLAR.0>
0

>  <SCORE.INTRA.REPUL>
0

>  <SCORE.INTRA.REPUL.0>
0

>  <SCORE.INTRA.SOLV>
-0.123866

>  <SCORE.INTRA.SOLV.lig_0>
-15.8342

>  <SCORE.INTRA.VDW>
-0.418006

>  <SCORE.INTRA.VDW.0>
-0.219494

>  <SCORE.INTRA.norm>
-0.391829

>  <SCORE.RESTR>
0

>  <SCORE.RESTR.CAVITY>
0

>  <SCORE.RESTR.norm>
0

>  <SCORE.SYSTEM>
0

>  <SCORE.SYSTEM.CONST>
0

>  <SCORE.SYSTEM.DIHEDRAL>
0

>  <SCORE.SYSTEM.SOLV>
0

>  <SCORE.SYSTEM.norm>
0

>  <SCORE.heavy>
9

>  <SCORE.norm>
-1.52702

>  <RMSD>
5.632

$$$$
ligand
 OpenBabel02271912143D
libRbt.so/2013.1/901 2013/11/27
  9  8  0  0  0  0  0  0  0  0999 V2000
  -49.5885   68.3797  -18.3326 C   0  0  0  0  0  0  0  0  0  0  0  0
  -48.7575   69.2931  -17.9792 O   0  0  0  0  0  0  0  0  0  0  0  0
  -49.1191   67.0067  -18.5582 C   0  0  0  0  0  0  0  0  0  0  0  0
  -50.8181   68.6432  -18.5385 O   0  0  0  0  0  0  0  0  0  0  0  0
  -48.6477   66.7103  -19.9464 C   0  0  0  0  0  0  0  0  0  0  0  0
  -47.5723   67.5629  -20.5117 C   0  0  0  0  0  0  0  0  0  0  0  0
  -47.1285   67.1741  -21.9119 C   0  0  0  0  0  0  0  0  0  0  0  0
  -46.0160   67.9769  -22.6045 C   0  0  0  0  0  0  0  0  0  0  0  0
  -45.6761   67.6250  -23.8947 N   0  0  0  0  0  0  0  0  0  0  0  0
  1  2  1  0  0  0  0
  1  3  1  0  0  0  0
  1  4  1  0  0  0  0
  3  5  1  0  0  0  0
  5  6  1  0  0  0  0
  6  7  1  0  0  0  0
  7  8  1  0  0  0  0
  8  9  1  0  0  0  0
M  END
>  <CHROM.1>
-88.38369545,55.90941044,178.57446079,-179.71828881,-177.59353362,-48.17530966
67.84568250,-20.22132780,-2.68893054,-0.82785931,-2.72790561

>  <Name>
ligand

>  <RI>
0

>  <Rbt.Current_Directory>
/home/itssahil/PROJECTS/Mol_Feturizer/Test_systems_manuscript/rnas/4erj

>  <Rbt.Executable>
rbdock ($Id: //depot/dev/client3/rdock/2013.1/src/exe/rbdock.cxx#4 $)

>  <Rbt.Library>
libRbt.so (2013.1, Build901 2013/11/27)

>  <Rbt.Parameter_File>
/export/apps/rDock/src/rDock_2013.1_src/data/scripts/dock_solv.prm

>  <Rbt.Receptor>
prm/pocket_docking_3.prm

>  <SCORE>
-13.7805

>  <SCORE.INTER>
-10.2841

>  <SCORE.INTER.CONST>
1

>  <SCORE.INTER.POLAR>
0

>  <SCORE.INTER.ROT>
5

>  <SCORE.INTER.SOLV>
8.382

>  <SCORE.INTER.VDW>
-16.5834

>  <SCORE.INTER.norm>
-1.14268

>  <SCORE.INTRA>
-3.49645

>  <SCORE.INTRA.DIHEDRAL>
-6.05744

>  <SCORE.INTRA.DIHEDRAL.0>
7.73744

>  <SCORE.INTRA.POLAR>
0

>  <SCORE.INTRA.POLAR.0>
0

>  <SCORE.INTRA.REPUL>
0

>  <SCORE.INTRA.REPUL.0>
0

>  <SCORE.INTRA.SOLV>
-0.123662

>  <SCORE.INTRA.SOLV.lig_0>
-15.8342

>  <SCORE.INTRA.VDW>
-0.405894

>  <SCORE.INTRA.VDW.0>
-0.219494

>  <SCORE.INTRA.norm>
-0.388494

>  <SCORE.RESTR>
0

>  <SCORE.RESTR.CAVITY>
0

>  <SCORE.RESTR.norm>
0

>  <SCORE.SYSTEM>
0

>  <SCORE.SYSTEM.CONST>
0

>  <SCORE.SYSTEM.DIHEDRAL>
0

>  <SCORE.SYSTEM.SOLV>
0

>  <SCORE.SYSTEM.norm>
0

>  <SCORE.heavy>
9

>  <SCORE.norm>
-1.53117

>  <RMSD>
5.633

$$$$
ligand
 OpenBabel02271912143D
libRbt.so/2013.1/901 2013/11/27
  9  8  0  0  0  0  0  0  0  0999 V2000
  -49.6031   68.3931  -18.3590 C   0  0  0  0  0  0  0  0  0  0  0  0
  -50.8482   68.6756  -18.4996 O   0  0  0  0  0  0  0  0  0  0  0  0
  -49.1343   67.0168  -18.5649 C   0  0  0  0  0  0  0  0  0  0  0  0
  -48.7577   69.2756  -17.9983 O   0  0  0  0  0  0  0  0  0  0  0  0
  -48.6474   66.7051  -19.9445 C   0  0  0  0  0  0  0  0  0  0  0  0
  -47.5718   67.5569  -20.5105 C   0  0  0  0  0  0  0  0  0  0  0  0
  -47.1360   67.1737  -21.9148 C   0  0  0  0  0  0  0  0  0  0  0  0
  -46.0303   67.9819  -22.6120 C   0  0  0  0  0  0  0  0  0  0  0  0
  -45.6710   67.6105  -23.8915 N   0  0  0  0  0  0  0  0  0  0  0  0
  1  2  1  0  0  0  0
  1  3  1  0  0  0  0
  1  4  1  0  0  0  0
  3  5  1  0  0  0  0
  5  6  1  0  0  0  0
  6  7  1  0  0  0  0
  7  8  1  0  0  0  0
  8  9  1  0  0  0  0
M  END
>  <CHROM.1>
93.37106738,55.37982530,-179.97420323,179.89068419,-179.42041476,-48.18384897
67.84759789,-20.22249499,-2.70535954,-0.83210664,-2.75256218

>  <Name>
ligand

>  <RI>
0

>  <Rbt.Current_Directory>
/home/itssahil/PROJECTS/Mol_Feturizer/Test_systems_manuscript/rnas/4erj

>  <Rbt.Executable>
rbdock ($Id: //depot/dev/client3/rdock/2013.1/src/exe/rbdock.cxx#4 $)

>  <Rbt.Library>
libRbt.so (2013.1, Build901 2013/11/27)

>  <Rbt.Parameter_File>
/export/apps/rDock/src/rDock_2013.1_src/data/scripts/dock_solv.prm

>  <Rbt.Receptor>
prm/pocket_docking_7.prm

>  <SCORE>
-13.6933

>  <SCORE.INTER>
-10.2997

>  <SCORE.INTER.CONST>
1

>  <SCORE.INTER.POLAR>
0

>  <SCORE.INTER.ROT>
5

>  <SCORE.INTER.SOLV>
8.38161

>  <SCORE.INTER.VDW>
-16.5937

>  <SCORE.INTER.norm>
-1.14441

>  <SCORE.INTRA>
-3.39361

>  <SCORE.INTRA.DIHEDRAL>
-5.86701

>  <SCORE.INTRA.DIHEDRAL.0>
7.73744

>  <SCORE.INTRA.POLAR>
0

>  <SCORE.INTRA.POLAR.0>
0

>  <SCORE.INTRA.REPUL>
0

>  <SCORE.INTRA.REPUL.0>
0

>  <SCORE.INTRA.SOLV>
-0.123715

>  <SCORE.INTRA.SOLV.lig_0>
-15.8342

>  <SCORE.INTRA.VDW>
-0.398252

>  <SCORE.INTRA.VDW.0>
-0.219494

>  <SCORE.INTRA.norm>
-0.377068

>  <SCORE.RESTR>
0

>  <SCORE.RESTR.CAVITY>
0

>  <SCORE.RESTR.norm>
0

>  <SCORE.SYSTEM>
0

>  <SCORE.SYSTEM.CONST>
0

>  <SCORE.SYSTEM.DIHEDRAL>
0

>  <SCORE.SYSTEM.SOLV>
0

>  <SCORE.SYSTEM.norm>
0

>  <SCORE.heavy>
9

>  <SCORE.norm>
-1.52148

>  <RMSD>
5.635

$$$$
ligand
 OpenBabel02271912143D
libRbt.so/2013.1/901 2013/11/27
  9  8  0  0  0  0  0  0  0  0999 V2000
  -49.5929   68.4269  -18.3956 C   0  0  0  0  0  0  0  0  0  0  0  0
  -50.8160   68.7938  -18.5345 O   0  0  0  0  0  0  0  0  0  0  0  0
  -49.2032   67.0422  -18.6905 C   0  0  0  0  0  0  0  0  0  0  0  0
  -48.7034   69.2293  -17.9613 O   0  0  0  0  0  0  0  0  0  0  0  0
  -48.7663   66.7851  -20.0977 C   0  0  0  0  0  0  0  0  0  0  0  0
  -47.5955   67.5396  -20.6105 C   0  0  0  0  0  0  0  0  0  0  0  0
  -47.1821   67.1778  -22.0271 C   0  0  0  0  0  0  0  0  0  0  0  0
  -45.9744   67.8806  -22.6669 C   0  0  0  0  0  0  0  0  0  0  0  0
  -45.6069   67.4973  -23.9405 N   0  0  0  0  0  0  0  0  0  0  0  0
  1  2  1  0  0  0  0
  1  3  1  0  0  0  0
  1  4  1  0  0  0  0
  3  5  1  0  0  0  0
  5  6  1  0  0  0  0
  6  7  1  0  0  0  0
  7  8  1  0  0  0  0
  8  9  1  0  0  0  0
M  END
>  <CHROM.1>
90.81082478,59.83162241,177.57047281,-179.42504518,178.17493728,-48.18720257
67.84637419,-20.29078934,-2.54912244,-0.74874519,-2.56273787

>  <Name>
ligand

>  <RI>
0

>  <Rbt.Current_Directory>
/home/itssahil/PROJECTS/Mol_Feturizer/Test_systems_manuscript/rnas/4erj

>  <Rbt.Executable>
rbdock ($Id: //depot/dev/client3/rdock/2013.1/src/exe/rbdock.cxx#4 $)

>  <Rbt.Library>
libRbt.so (2013.1, Build901 2013/11/27)

>  <Rbt.Parameter_File>
/export/apps/rDock/src/rDock_2013.1_src/data/scripts/dock_solv.prm

>  <Rbt.Receptor>
prm/pocket_docking_5.prm

>  <SCORE>
-13.5607

>  <SCORE.INTER>
-10.0823

>  <SCORE.INTER.CONST>
1

>  <SCORE.INTER.POLAR>
0

>  <SCORE.INTER.ROT>
5

>  <SCORE.INTER.SOLV>
8.45718

>  <SCORE.INTER.VDW>
-16.4739

>  <SCORE.INTER.norm>
-1.12025

>  <SCORE.INTRA>
-3.47846

>  <SCORE.INTRA.DIHEDRAL>
-5.91794

>  <SCORE.INTRA.DIHEDRAL.0>
7.73744

>  <SCORE.INTRA.POLAR>
0

>  <SCORE.INTRA.POLAR.0>
0

>  <SCORE.INTRA.REPUL>
0

>  <SCORE.INTRA.REPUL.0>
0

>  <SCORE.INTRA.SOLV>
-0.123165

>  <SCORE.INTRA.SOLV.lig_0>
-15.8342

>  <SCORE.INTRA.VDW>
-0.457906

>  <SCORE.INTRA.VDW.0>
-0.219494

>  <SCORE.INTRA.norm>
-0.386495

>  <SCORE.RESTR>
0

>  <SCORE.RESTR.CAVITY>
0

>  <SCORE.RESTR.norm>
0

>  <SCORE.SYSTEM>
0

>  <SCORE.SYSTEM.CONST>
0

>  <SCORE.SYSTEM.DIHEDRAL>
0

>  <SCORE.SYSTEM.SOLV>
0

>  <SCORE.SYSTEM.norm>
0

>  <SCORE.heavy>
9

>  <SCORE.norm>
-1.50675

>  <RMSD>
5.637

$$$$
ligand
 OpenBabel02271912143D
libRbt.so/2013.1/901 2013/11/27
  9  8  0  0  0  0  0  0  0  0999 V2000
  -49.2686   67.7321  -18.3131 C   0  0  0  0  0  0  0  0  0  0  0  0
  -48.8598   66.5625  -17.9740 O   0  0  0  0  0  0  0  0  0  0  0  0
  -49.4853   68.0524  -19.7297 C   0  0  0  0  0  0  0  0  0  0  0  0
  -49.4523   68.6490  -17.4476 O   0  0  0  0  0  0  0  0  0  0  0  0
  -48.3922   67.6267  -20.6578 C   0  0  0  0  0  0  0  0  0  0  0  0
  -48.5427   67.9436  -22.1000 C   0  0  0  0  0  0  0  0  0  0  0  0
  -47.3958   67.4656  -22.9745 C   0  0  0  0  0  0  0  0  0  0  0  0
  -45.9793   68.0094  -22.7305 C   0  0  0  0  0  0  0  0  0  0  0  0
  -44.9755   67.5962  -23.5825 N   0  0  0  0  0  0  0  0  0  0  0  0
  1  2  1  0  0  0  0
  1  3  1  0  0  0  0
  1  4  1  0  0  0  0
  3  5  1  0  0  0  0
  5  6  1  0  0  0  0
  6  7  1  0  0  0  0
  7  8  1  0  0  0  0
  8  9  1  0  0  0  0
M  END
>  <CHROM.1>
-46.11384068,-178.96306941,-179.45682388,-61.54278016,-177.21708918,-48.05458589
67.73354511,-20.55855572,-2.14883466,0.24833574,-1.42522472

>  <Name>
ligand

>  <RI>
0

>  <Rbt.Current_Directory>
/home/itssahil/PROJECTS/Mol_Feturizer/Test_systems_manuscript/rnas/4erj

>  <Rbt.Executable>
rbdock ($Id: //depot/dev/client3/rdock/2013.1/src/exe/rbdock.cxx#4 $)

>  <Rbt.Library>
libRbt.so (2013.1, Build901 2013/11/27)

>  <Rbt.Parameter_File>
/export/apps/rDock/src/rDock_2013.1_src/data/scripts/dock_solv.prm

>  <Rbt.Receptor>
prm/pocket_docking_7.prm

>  <SCORE>
-12.1357

>  <SCORE.INTER>
-9.21719

>  <SCORE.INTER.CONST>
1

>  <SCORE.INTER.POLAR>
0

>  <SCORE.INTER.ROT>
5

>  <SCORE.INTER.SOLV>
8.43236

>  <SCORE.INTER.VDW>
-15.8889

>  <SCORE.INTER.norm>
-1.02413

>  <SCORE.INTRA>
-2.91851

>  <SCORE.INTRA.DIHEDRAL>
-5.95017

>  <SCORE.INTRA.DIHEDRAL.0>
7.73744

>  <SCORE.INTRA.POLAR>
0

>  <SCORE.INTRA.POLAR.0>
0

>  <SCORE.INTRA.REPUL>
0

>  <SCORE.INTRA.REPUL.0>
0

>  <SCORE.INTRA.SOLV>
0.0406389

>  <SCORE.INTRA.SOLV.lig_0>
-15.8342

>  <SCORE.INTRA.VDW>
0.0362541

>  <SCORE.INTRA.VDW.0>
-0.219494

>  <SCORE.INTRA.norm>
-0.324279

>  <SCORE.RESTR>
0

>  <SCORE.RESTR.CAVITY>
0

>  <SCORE.RESTR.norm>
0

>  <SCORE.SYSTEM>
0

>  <SCORE.SYSTEM.CONST>
0

>  <SCORE.SYSTEM.DIHEDRAL>
0

>  <SCORE.SYSTEM.SOLV>
0

>  <SCORE.SYSTEM.norm>
0

>  <SCORE.heavy>
9

>  <SCORE.norm>
-1.34841

>  <RMSD>
5.648

$$$$
ligand
 OpenBabel02271912143D
libRbt.so/2013.1/901 2013/11/27
  9  8  0  0  0  0  0  0  0  0999 V2000
  -49.0720   67.8513  -18.5307 C   0  0  0  0  0  0  0  0  0  0  0  0
  -48.5846   69.0134  -18.2818 O   0  0  0  0  0  0  0  0  0  0  0  0
  -49.6143   67.5519  -19.8622 C   0  0  0  0  0  0  0  0  0  0  0  0
  -49.1396   66.9520  -17.6307 O   0  0  0  0  0  0  0  0  0  0  0  0
  -48.6398   66.9672  -20.8346 C   0  0  0  0  0  0  0  0  0  0  0  0
  -47.4960   67.8102  -21.2638 C   0  0  0  0  0  0  0  0  0  0  0  0
  -46.6382   67.2003  -22.3596 C   0  0  0  0  0  0  0  0  0  0  0  0
  -45.4018   67.9602  -22.8653 C   0  0  0  0  0  0  0  0  0  0  0  0
  -44.6735   67.3941  -23.8915 N   0  0  0  0  0  0  0  0  0  0  0  0
  1  2  1  0  0  0  0
  1  3  1  0  0  0  0
  1  4  1  0  0  0  0
  3  5  1  0  0  0  0
  5  6  1  0  0  0  0
  6  7  1  0  0  0  0
  7  8  1  0  0  0  0
  8  9  1  0  0  0  0
M  END
>  <CHROM.1>
91.31989024,-64.89163011,-173.83241258,-178.44000701,-177.91200365,-47.71026585
67.64077869,-20.56379120,-2.38288927,-0.57698059,-2.13815899

>  <Name>
ligand

>  <RI>
0

>  <Rbt.Current_Directory>
/home/itssahil/PROJECTS/Mol_Feturizer/Test_systems_manuscript/rnas/4erj

>  <Rbt.Executable>
rbdock ($Id: //depot/dev/client3/rdock/2013.1/src/exe/rbdock.cxx#4 $)

>  <Rbt.Library>
libRbt.so (2013.1, Build901 2013/11/27)

>  <Rbt.Parameter_File>
/export/apps/rDock/src/rDock_2013.1_src/data/scripts/dock_solv.prm

>  <Rbt.Receptor>
prm/pocket_docking_4.prm

>  <SCORE>
-12.78

>  <SCORE.INTER>
-9.37667

>  <SCORE.INTER.CONST>
1

>  <SCORE.INTER.POLAR>
0

>  <SCORE.INTER.ROT>
5

>  <SCORE.INTER.SOLV>
9.2613

>  <SCORE.INTER.VDW>
-16.2715

>  <SCORE.INTER.norm>
-1.04185

>  <SCORE.INTRA>
-3.40335

>  <SCORE.INTRA.DIHEDRAL>
-5.67208

>  <SCORE.INTRA.DIHEDRAL.0>
7.73744

>  <SCORE.INTRA.POLAR>
0

>  <SCORE.INTRA.POLAR.0>
0

>  <SCORE.INTRA.REPUL>
0

>  <SCORE.INTRA.REPUL.0>
0

>  <SCORE.INTRA.SOLV>
-0.12265

>  <SCORE.INTRA.SOLV.lig_0>
-15.8342

>  <SCORE.INTRA.VDW>
-0.505983

>  <SCORE.INTRA.VDW.0>
-0.219494

>  <SCORE.INTRA.norm>
-0.37815

>  <SCORE.RESTR>
0

>  <SCORE.RESTR.CAVITY>
0

>  <SCORE.RESTR.norm>
0

>  <SCORE.SYSTEM>
0

>  <SCORE.SYSTEM.CONST>
0

>  <SCORE.SYSTEM.DIHEDRAL>
0

>  <SCORE.SYSTEM.SOLV>
0

>  <SCORE.SYSTEM.norm>
0

>  <SCORE.heavy>
9

>  <SCORE.norm>
-1.42

>  <RMSD>
5.654

$$$$
ligand
 OpenBabel02271912143D
libRbt.so/2013.1/901 2013/11/27
  9  8  0  0  0  0  0  0  0  0999 V2000
  -50.7967   70.3800  -19.6312 C   0  0  0  0  0  0  0  0  0  0  0  0
  -51.6970   69.8753  -18.8666 O   0  0  0  0  0  0  0  0  0  0  0  0
  -49.4997   69.7080  -19.7818 C   0  0  0  0  0  0  0  0  0  0  0  0
  -50.9826   71.4852  -20.2374 O   0  0  0  0  0  0  0  0  0  0  0  0
  -49.5627   68.2228  -19.9482 C   0  0  0  0  0  0  0  0  0  0  0  0
  -48.3093   67.5093  -20.2986 C   0  0  0  0  0  0  0  0  0  0  0  0
  -47.7284   67.8810  -21.6526 C   0  0  0  0  0  0  0  0  0  0  0  0
  -46.4145   67.2332  -22.1170 C   0  0  0  0  0  0  0  0  0  0  0  0
  -45.9369   67.5708  -23.3668 N   0  0  0  0  0  0  0  0  0  0  0  0
  1  2  1  0  0  0  0
  1  3  1  0  0  0  0
  1  4  1  0  0  0  0
  3  5  1  0  0  0  0
  5  6  1  0  0  0  0
  6  7  1  0  0  0  0
  7  8  1  0  0  0  0
  8  9  1  0  0  0  0
M  END
>  <CHROM.1>
43.46570410,171.40799920,-63.84261305,178.66307347,178.38548170,-49.03637327
68.90608824,-20.63728005,-2.97354223,-0.72948328,2.58460798

>  <Name>
ligand

>  <RI>
0

>  <Rbt.Current_Directory>
/home/itssahil/PROJECTS/Mol_Feturizer/Test_systems_manuscript/rnas/4erj

>  <Rbt.Executable>
rbdock ($Id: //depot/dev/client3/rdock/2013.1/src/exe/rbdock.cxx#4 $)

>  <Rbt.Library>
libRbt.so (2013.1, Build901 2013/11/27)

>  <Rbt.Parameter_File>
/export/apps/rDock/src/rDock_2013.1_src/data/scripts/dock_solv.prm

>  <Rbt.Receptor>
prm/pocket_docking_7.prm

>  <SCORE>
-12.8307

>  <SCORE.INTER>
-10.0374

>  <SCORE.INTER.CONST>
1

>  <SCORE.INTER.POLAR>
0

>  <SCORE.INTER.ROT>
5

>  <SCORE.INTER.SOLV>
6.29978

>  <SCORE.INTER.VDW>
-15.7249

>  <SCORE.INTER.norm>
-1.11527

>  <SCORE.INTRA>
-2.79345

>  <SCORE.INTRA.DIHEDRAL>
-5.75435

>  <SCORE.INTRA.DIHEDRAL.0>
7.73744

>  <SCORE.INTRA.POLAR>
0

>  <SCORE.INTRA.POLAR.0>
0

>  <SCORE.INTRA.REPUL>
0

>  <SCORE.INTRA.REPUL.0>
0

>  <SCORE.INTRA.SOLV>
-0.122725

>  <SCORE.INTRA.SOLV.lig_0>
-15.8342

>  <SCORE.INTRA.VDW>
0.145083

>  <SCORE.INTRA.VDW.0>
-0.219494

>  <SCORE.INTRA.norm>
-0.310384

>  <SCORE.RESTR>
0.000155245

>  <SCORE.RESTR.CAVITY>
0.000155245

>  <SCORE.RESTR.norm>
1.72494e-05

>  <SCORE.SYSTEM>
0

>  <SCORE.SYSTEM.CONST>
0

>  <SCORE.SYSTEM.DIHEDRAL>
0

>  <SCORE.SYSTEM.SOLV>
0

>  <SCORE.SYSTEM.norm>
0

>  <SCORE.heavy>
9

>  <SCORE.norm>
-1.42563

>  <RMSD>
5.654

$$$$
ligand
 OpenBabel02271912143D
libRbt.so/2013.1/901 2013/11/27
  9  8  0  0  0  0  0  0  0  0999 V2000
  -50.8321   69.6291  -18.9372 C   0  0  0  0  0  0  0  0  0  0  0  0
  -50.4469   70.4776  -19.8212 O   0  0  0  0  0  0  0  0  0  0  0  0
  -49.8547   68.7382  -18.2989 C   0  0  0  0  0  0  0  0  0  0  0  0
  -52.0613   69.5059  -18.6250 O   0  0  0  0  0  0  0  0  0  0  0  0
  -49.3513   67.6201  -19.1556 C   0  0  0  0  0  0  0  0  0  0  0  0
  -48.5950   67.9720  -20.3833 C   0  0  0  0  0  0  0  0  0  0  0  0
  -48.2154   66.7854  -21.2531 C   0  0  0  0  0  0  0  0  0  0  0  0
  -47.4385   67.0202  -22.5581 C   0  0  0  0  0  0  0  0  0  0  0  0
  -46.1789   67.5763  -22.4661 N   0  0  0  0  0  0  0  0  0  0  0  0
  1  2  1  0  0  0  0
  1  3  1  0  0  0  0
  1  4  1  0  0  0  0
  3  5  1  0  0  0  0
  5  6  1  0  0  0  0
  6  7  1  0  0  0  0
  7  8  1  0  0  0  0
  8  9  1  0  0  0  0
M  END
>  <CHROM.1>
-73.99102673,62.81705109,-175.37422698,179.56427724,62.54444844,-49.25709985
68.39969077,-20.15643092,-3.13561165,-0.79925146,2.52354890

>  <Name>
ligand

>  <RI>
0

>  <Rbt.Current_Directory>
/home/itssahil/PROJECTS/Mol_Feturizer/Test_systems_manuscript/rnas/4erj

>  <Rbt.Executable>
rbdock ($Id: //depot/dev/client3/rdock/2013.1/src/exe/rbdock.cxx#4 $)

>  <Rbt.Library>
libRbt.so (2013.1, Build901 2013/11/27)

>  <Rbt.Parameter_File>
/export/apps/rDock/src/rDock_2013.1_src/data/scripts/dock_solv.prm

>  <Rbt.Receptor>
prm/pocket_docking_5.prm

>  <SCORE>
-14.272

>  <SCORE.INTER>
-11.096

>  <SCORE.INTER.CONST>
1

>  <SCORE.INTER.POLAR>
0

>  <SCORE.INTER.ROT>
5

>  <SCORE.INTER.SOLV>
6.96071

>  <SCORE.INTER.VDW>
-16.6509

>  <SCORE.INTER.norm>
-1.23289

>  <SCORE.INTRA>
-3.17607

>  <SCORE.INTRA.DIHEDRAL>
-5.98135

>  <SCORE.INTRA.DIHEDRAL.0>
7.73744

>  <SCORE.INTRA.POLAR>
0

>  <SCORE.INTRA.POLAR.0>
0

>  <SCORE.INTRA.REPUL>
0

>  <SCORE.INTRA.REPUL.0>
0

>  <SCORE.INTRA.SOLV>
0.501649

>  <SCORE.INTRA.SOLV.lig_0>
-15.8342

>  <SCORE.INTRA.VDW>
-0.436218

>  <SCORE.INTRA.VDW.0>
-0.219494

>  <SCORE.INTRA.norm>
-0.352896

>  <SCORE.RESTR>
0

>  <SCORE.RESTR.CAVITY>
0

>  <SCORE.RESTR.norm>
0

>  <SCORE.SYSTEM>
0

>  <SCORE.SYSTEM.CONST>
0

>  <SCORE.SYSTEM.DIHEDRAL>
0

>  <SCORE.SYSTEM.SOLV>
0

>  <SCORE.SYSTEM.norm>
0

>  <SCORE.heavy>
9

>  <SCORE.norm>
-1.58578

>  <RMSD>
5.667

$$$$
ligand
 OpenBabel02271912143D
libRbt.so/2013.1/901 2013/11/27
  9  8  0  0  0  0  0  0  0  0999 V2000
  -50.8766   69.6209  -18.9855 C   0  0  0  0  0  0  0  0  0  0  0  0
  -52.1174   69.5194  -18.6692 O   0  0  0  0  0  0  0  0  0  0  0  0
  -49.8812   68.7537  -18.3425 C   0  0  0  0  0  0  0  0  0  0  0  0
  -50.4727   70.4944  -19.8207 O   0  0  0  0  0  0  0  0  0  0  0  0
  -49.3707   67.6288  -19.1859 C   0  0  0  0  0  0  0  0  0  0  0  0
  -48.5986   67.9707  -20.4066 C   0  0  0  0  0  0  0  0  0  0  0  0
  -48.1940   66.7756  -21.2532 C   0  0  0  0  0  0  0  0  0  0  0  0
  -47.4142   67.0008  -22.5582 C   0  0  0  0  0  0  0  0  0  0  0  0
  -46.1636   67.5772  -22.4694 N   0  0  0  0  0  0  0  0  0  0  0  0
  1  2  1  0  0  0  0
  1  3  1  0  0  0  0
  1  4  1  0  0  0  0
  3  5  1  0  0  0  0
  5  6  1  0  0  0  0
  6  7  1  0  0  0  0
  7  8  1  0  0  0  0
  8  9  1  0  0  0  0
M  END
>  <CHROM.1>
104.40636899,64.46875476,-176.25403532,178.80081176,62.70164094,-49.27023489
68.40210388,-20.17742791,-3.11059649,-0.78896738,2.54813853

>  <Name>
ligand

>  <RI>
0

>  <Rbt.Current_Directory>
/home/itssahil/PROJECTS/Mol_Feturizer/Test_systems_manuscript/rnas/4erj

>  <Rbt.Executable>
rbdock ($Id: //depot/dev/client3/rdock/2013.1/src/exe/rbdock.cxx#4 $)

>  <Rbt.Library>
libRbt.so (2013.1, Build901 2013/11/27)

>  <Rbt.Parameter_File>
/export/apps/rDock/src/rDock_2013.1_src/data/scripts/dock_solv.prm

>  <Rbt.Receptor>
prm/pocket_docking_4.prm

>  <SCORE>
-14.2328

>  <SCORE.INTER>
-11.1176

>  <SCORE.INTER.CONST>
1

>  <SCORE.INTER.POLAR>
0

>  <SCORE.INTER.ROT>
5

>  <SCORE.INTER.SOLV>
6.9773

>  <SCORE.INTER.VDW>
-16.6708

>  <SCORE.INTER.norm>
-1.23528

>  <SCORE.INTRA>
-3.11521

>  <SCORE.INTRA.DIHEDRAL>
-5.80441

>  <SCORE.INTRA.DIHEDRAL.0>
7.73744

>  <SCORE.INTRA.POLAR>
0

>  <SCORE.INTRA.POLAR.0>
0

>  <SCORE.INTRA.REPUL>
0

>  <SCORE.INTRA.REPUL.0>
0

>  <SCORE.INTRA.SOLV>
0.497459

>  <SCORE.INTRA.SOLV.lig_0>
-15.8342

>  <SCORE.INTRA.VDW>
-0.461735

>  <SCORE.INTRA.VDW.0>
-0.219494

>  <SCORE.INTRA.norm>
-0.346134

>  <SCORE.RESTR>
0

>  <SCORE.RESTR.CAVITY>
0

>  <SCORE.RESTR.norm>
0

>  <SCORE.SYSTEM>
0

>  <SCORE.SYSTEM.CONST>
0

>  <SCORE.SYSTEM.DIHEDRAL>
0

>  <SCORE.SYSTEM.SOLV>
0

>  <SCORE.SYSTEM.norm>
0

>  <SCORE.heavy>
9

>  <SCORE.norm>
-1.58142

>  <RMSD>
5.671

$$$$
ligand
 OpenBabel02271912143D
libRbt.so/2013.1/901 2013/11/27
  9  8  0  0  0  0  0  0  0  0999 V2000
  -50.8703   69.6360  -18.9741 C   0  0  0  0  0  0  0  0  0  0  0  0
  -52.1077   69.5578  -18.6384 O   0  0  0  0  0  0  0  0  0  0  0  0
  -49.8801   68.7563  -18.3400 C   0  0  0  0  0  0  0  0  0  0  0  0
  -50.4645   70.4965  -19.8216 O   0  0  0  0  0  0  0  0  0  0  0  0
  -49.3811   67.6333  -19.1927 C   0  0  0  0  0  0  0  0  0  0  0  0
  -48.6255   67.9779  -20.4230 C   0  0  0  0  0  0  0  0  0  0  0  0
  -48.1889   66.7816  -21.2518 C   0  0  0  0  0  0  0  0  0  0  0  0
  -47.4291   67.0086  -22.5682 C   0  0  0  0  0  0  0  0  0  0  0  0
  -46.2100   67.6519  -22.5050 N   0  0  0  0  0  0  0  0  0  0  0  0
  1  2  1  0  0  0  0
  1  3  1  0  0  0  0
  1  4  1  0  0  0  0
  3  5  1  0  0  0  0
  5  6  1  0  0  0  0
  6  7  1  0  0  0  0
  7  8  1  0  0  0  0
  8  9  1  0  0  0  0
M  END
>  <CHROM.1>
105.59724729,63.65546774,-178.34865213,178.47864443,61.42242896,-49.27752313
68.41981017,-20.17973945,-3.10771927,-0.79533433,2.56011261

>  <Name>
ligand

>  <RI>
0

>  <Rbt.Current_Directory>
/home/itssahil/PROJECTS/Mol_Feturizer/Test_systems_manuscript/rnas/4erj

>  <Rbt.Executable>
rbdock ($Id: //depot/dev/client3/rdock/2013.1/src/exe/rbdock.cxx#4 $)

>  <Rbt.Library>
libRbt.so (2013.1, Build901 2013/11/27)

>  <Rbt.Parameter_File>
/export/apps/rDock/src/rDock_2013.1_src/data/scripts/dock_solv.prm

>  <Rbt.Receptor>
prm/pocket_docking_6.prm

>  <SCORE>
-14.2438

>  <SCORE.INTER>
-11.1101

>  <SCORE.INTER.CONST>
1

>  <SCORE.INTER.POLAR>
0

>  <SCORE.INTER.ROT>
5

>  <SCORE.INTER.SOLV>
6.84809

>  <SCORE.INTER.VDW>
-16.6228

>  <SCORE.INTER.norm>
-1.23446

>  <SCORE.INTRA>
-3.13371

>  <SCORE.INTRA.DIHEDRAL>
-5.89956

>  <SCORE.INTRA.DIHEDRAL.0>
7.73744

>  <SCORE.INTRA.POLAR>
0

>  <SCORE.INTRA.POLAR.0>
0

>  <SCORE.INTRA.REPUL>
0

>  <SCORE.INTRA.REPUL.0>
0

>  <SCORE.INTRA.SOLV>
0.508973

>  <SCORE.INTRA.SOLV.lig_0>
-15.8342

>  <SCORE.INTRA.VDW>
-0.438413

>  <SCORE.INTRA.VDW.0>
-0.219494

>  <SCORE.INTRA.norm>
-0.34819

>  <SCORE.RESTR>
0

>  <SCORE.RESTR.CAVITY>
0

>  <SCORE.RESTR.norm>
0

>  <SCORE.SYSTEM>
0

>  <SCORE.SYSTEM.CONST>
0

>  <SCORE.SYSTEM.DIHEDRAL>
0

>  <SCORE.SYSTEM.SOLV>
0

>  <SCORE.SYSTEM.norm>
0

>  <SCORE.heavy>
9

>  <SCORE.norm>
-1.58265

>  <RMSD>
5.672

$$$$
ligand
 OpenBabel02271912143D
libRbt.so/2013.1/901 2013/11/27
  9  8  0  0  0  0  0  0  0  0999 V2000
  -51.2776   70.1941  -19.2624 C   0  0  0  0  0  0  0  0  0  0  0  0
  -50.9127   71.3126  -19.7778 O   0  0  0  0  0  0  0  0  0  0  0  0
  -50.5340   68.9659  -19.5705 C   0  0  0  0  0  0  0  0  0  0  0  0
  -52.3067   70.1105  -18.5158 O   0  0  0  0  0  0  0  0  0  0  0  0
  -49.7248   68.4068  -18.4436 C   0  0  0  0  0  0  0  0  0  0  0  0
  -49.1009   67.0731  -18.6313 C   0  0  0  0  0  0  0  0  0  0  0  0
  -48.0882   67.0032  -19.7619 C   0  0  0  0  0  0  0  0  0  0  0  0
  -48.5752   67.0464  -21.2189 C   0  0  0  0  0  0  0  0  0  0  0  0
  -47.6224   67.0261  -22.2169 N   0  0  0  0  0  0  0  0  0  0  0  0
  1  2  1  0  0  0  0
  1  3  1  0  0  0  0
  1  4  1  0  0  0  0
  3  5  1  0  0  0  0
  5  6  1  0  0  0  0
  6  7  1  0  0  0  0
  7  8  1  0  0  0  0
  8  9  1  0  0  0  0
M  END
>  <CHROM.1>
109.38637475,171.81704194,62.00309856,-72.08244478,177.85026480,-49.82652121
68.61158494,-19.70030807,-3.08918858,-0.85301066,2.12985860

>  <Name>
ligand

>  <RI>
0

>  <Rbt.Current_Directory>
/home/itssahil/PROJECTS/Mol_Feturizer/Test_systems_manuscript/rnas/4erj

>  <Rbt.Executable>
rbdock ($Id: //depot/dev/client3/rdock/2013.1/src/exe/rbdock.cxx#4 $)

>  <Rbt.Library>
libRbt.so (2013.1, Build901 2013/11/27)

>  <Rbt.Parameter_File>
/export/apps/rDock/src/rDock_2013.1_src/data/scripts/dock_solv.prm

>  <Rbt.Receptor>
prm/pocket_docking_5.prm

>  <SCORE>
-14.9879

>  <SCORE.INTER>
-12.9097

>  <SCORE.INTER.CONST>
1

>  <SCORE.INTER.POLAR>
0

>  <SCORE.INTER.ROT>
5

>  <SCORE.INTER.SOLV>
8.73771

>  <SCORE.INTER.VDW>
-18.4524

>  <SCORE.INTER.norm>
-1.43441

>  <SCORE.INTRA>
-2.07824

>  <SCORE.INTRA.DIHEDRAL>
-5.09621

>  <SCORE.INTRA.DIHEDRAL.0>
7.73744

>  <SCORE.INTRA.POLAR>
0

>  <SCORE.INTRA.POLAR.0>
0

>  <SCORE.INTRA.REPUL>
0

>  <SCORE.INTRA.REPUL.0>
0

>  <SCORE.INTRA.SOLV>
0.242968

>  <SCORE.INTRA.SOLV.lig_0>
-15.8342

>  <SCORE.INTRA.VDW>
0.348385

>  <SCORE.INTRA.VDW.0>
-0.219494

>  <SCORE.INTRA.norm>
-0.230915

>  <SCORE.RESTR>
0

>  <SCORE.RESTR.CAVITY>
0

>  <SCORE.RESTR.norm>
0

>  <SCORE.SYSTEM>
0

>  <SCORE.SYSTEM.CONST>
0

>  <SCORE.SYSTEM.DIHEDRAL>
0

>  <SCORE.SYSTEM.SOLV>
0

>  <SCORE.SYSTEM.norm>
0

>  <SCORE.heavy>
9

>  <SCORE.norm>
-1.66533

>  <RMSD>
5.676

$$$$
ligand
 OpenBabel02271912143D
libRbt.so/2013.1/901 2013/11/27
  9  8  0  0  0  0  0  0  0  0999 V2000
  -50.8477   69.6890  -18.9411 C   0  0  0  0  0  0  0  0  0  0  0  0
  -50.4371   70.6365  -19.7049 O   0  0  0  0  0  0  0  0  0  0  0  0
  -49.8817   68.7681  -18.3287 C   0  0  0  0  0  0  0  0  0  0  0  0
  -52.0895   69.4951  -18.7312 O   0  0  0  0  0  0  0  0  0  0  0  0
  -49.4314   67.6388  -19.2001 C   0  0  0  0  0  0  0  0  0  0  0  0
  -48.6462   67.9695  -20.4154 C   0  0  0  0  0  0  0  0  0  0  0  0
  -48.2361   66.7670  -21.2489 C   0  0  0  0  0  0  0  0  0  0  0  0
  -47.4355   66.9799  -22.5433 C   0  0  0  0  0  0  0  0  0  0  0  0
  -46.2034   67.5932  -22.4447 N   0  0  0  0  0  0  0  0  0  0  0  0
  1  2  1  0  0  0  0
  1  3  1  0  0  0  0
  1  4  1  0  0  0  0
  3  5  1  0  0  0  0
  5  6  1  0  0  0  0
  6  7  1  0  0  0  0
  7  8  1  0  0  0  0
  8  9  1  0  0  0  0
M  END
>  <CHROM.1>
-82.65100035,65.29126467,-179.63133669,179.15480651,60.41618199,-49.28279799
68.42425474,-20.16277545,-2.99497859,-0.79227045,2.69513812

>  <Name>
ligand

>  <RI>
0

>  <Rbt.Current_Directory>
/home/itssahil/PROJECTS/Mol_Feturizer/Test_systems_manuscript/rnas/4erj

>  <Rbt.Executable>
rbdock ($Id: //depot/dev/client3/rdock/2013.1/src/exe/rbdock.cxx#4 $)

>  <Rbt.Library>
libRbt.so (2013.1, Build901 2013/11/27)

>  <Rbt.Parameter_File>
/export/apps/rDock/src/rDock_2013.1_src/data/scripts/dock_solv.prm

>  <Rbt.Receptor>
prm/pocket_docking_5.prm

>  <SCORE>
-14.3006

>  <SCORE.INTER>
-11.0438

>  <SCORE.INTER.CONST>
1

>  <SCORE.INTER.POLAR>
0

>  <SCORE.INTER.ROT>
5

>  <SCORE.INTER.SOLV>
7.00021

>  <SCORE.INTER.VDW>
-16.6293

>  <SCORE.INTER.norm>
-1.22709

>  <SCORE.INTRA>
-3.25683

>  <SCORE.INTRA.DIHEDRAL>
-6.03195

>  <SCORE.INTRA.DIHEDRAL.0>
7.73744

>  <SCORE.INTRA.POLAR>
0

>  <SCORE.INTRA.POLAR.0>
0

>  <SCORE.INTRA.REPUL>
0

>  <SCORE.INTRA.REPUL.0>
0

>  <SCORE.INTRA.SOLV>
0.521502

>  <SCORE.INTRA.SOLV.lig_0>
-15.8342

>  <SCORE.INTRA.VDW>
-0.501609

>  <SCORE.INTRA.VDW.0>
-0.219494

>  <SCORE.INTRA.norm>
-0.36187

>  <SCORE.RESTR>
0

>  <SCORE.RESTR.CAVITY>
0

>  <SCORE.RESTR.norm>
0

>  <SCORE.SYSTEM>
0

>  <SCORE.SYSTEM.CONST>
0

>  <SCORE.SYSTEM.DIHEDRAL>
0

>  <SCORE.SYSTEM.SOLV>
0

>  <SCORE.SYSTEM.norm>
0

>  <SCORE.heavy>
9

>  <SCORE.norm>
-1.58896

>  <RMSD>
5.677

$$$$
ligand
 OpenBabel02271912143D
libRbt.so/2013.1/901 2013/11/27
  9  8  0  0  0  0  0  0  0  0999 V2000
  -50.8636   69.6808  -18.9741 C   0  0  0  0  0  0  0  0  0  0  0  0
  -52.1135   69.5181  -18.7270 O   0  0  0  0  0  0  0  0  0  0  0  0
  -49.8697   68.8027  -18.3437 C   0  0  0  0  0  0  0  0  0  0  0  0
  -50.4518   70.6229  -19.7267 O   0  0  0  0  0  0  0  0  0  0  0  0
  -49.3950   67.6623  -19.1873 C   0  0  0  0  0  0  0  0  0  0  0  0
  -48.6385   67.9808  -20.4239 C   0  0  0  0  0  0  0  0  0  0  0  0
  -48.2405   66.7695  -21.2503 C   0  0  0  0  0  0  0  0  0  0  0  0
  -47.4461   66.9674  -22.5509 C   0  0  0  0  0  0  0  0  0  0  0  0
  -46.2046   67.5634  -22.4624 N   0  0  0  0  0  0  0  0  0  0  0  0
  1  2  1  0  0  0  0
  1  3  1  0  0  0  0
  1  4  1  0  0  0  0
  3  5  1  0  0  0  0
  5  6  1  0  0  0  0
  6  7  1  0  0  0  0
  7  8  1  0  0  0  0
  8  9  1  0  0  0  0
M  END
>  <CHROM.1>
97.81092210,64.66887773,-177.72105607,-179.66273276,60.96742736,-49.28475265
68.42790789,-20.17214011,-3.02333219,-0.79574600,2.65030846

>  <Name>
ligand

>  <RI>
0

>  <Rbt.Current_Directory>
/home/itssahil/PROJECTS/Mol_Feturizer/Test_systems_manuscript/rnas/4erj

>  <Rbt.Executable>
rbdock ($Id: //depot/dev/client3/rdock/2013.1/src/exe/rbdock.cxx#4 $)

>  <Rbt.Library>
libRbt.so (2013.1, Build901 2013/11/27)

>  <Rbt.Parameter_File>
/export/apps/rDock/src/rDock_2013.1_src/data/scripts/dock_solv.prm

>  <Rbt.Receptor>
prm/pocket_docking_7.prm

>  <SCORE>
-14.236

>  <SCORE.INTER>
-11.0768

>  <SCORE.INTER.CONST>
1

>  <SCORE.INTER.POLAR>
0

>  <SCORE.INTER.ROT>
5

>  <SCORE.INTER.SOLV>
6.90228

>  <SCORE.INTER.VDW>
-16.6186

>  <SCORE.INTER.norm>
-1.23076

>  <SCORE.INTRA>
-3.15913

>  <SCORE.INTRA.DIHEDRAL>
-5.84606

>  <SCORE.INTRA.DIHEDRAL.0>
7.73744

>  <SCORE.INTRA.POLAR>
0

>  <SCORE.INTRA.POLAR.0>
0

>  <SCORE.INTRA.REPUL>
0

>  <SCORE.INTRA.REPUL.0>
0

>  <SCORE.INTRA.SOLV>
0.520894

>  <SCORE.INTRA.SOLV.lig_0>
-15.8342

>  <SCORE.INTRA.VDW>
-0.49655

>  <SCORE.INTRA.VDW.0>
-0.219494

>  <SCORE.INTRA.norm>
-0.351015

>  <SCORE.RESTR>
0

>  <SCORE.RESTR.CAVITY>
0

>  <SCORE.RESTR.norm>
0

>  <SCORE.SYSTEM>
0

>  <SCORE.SYSTEM.CONST>
0

>  <SCORE.SYSTEM.DIHEDRAL>
0

>  <SCORE.SYSTEM.SOLV>
0

>  <SCORE.SYSTEM.norm>
0

>  <SCORE.heavy>
9

>  <SCORE.norm>
-1.58177

>  <RMSD>
5.677

$$$$
ligand
 OpenBabel02271912143D
libRbt.so/2013.1/901 2013/11/27
  9  8  0  0  0  0  0  0  0  0999 V2000
  -50.8628   69.6694  -18.9362 C   0  0  0  0  0  0  0  0  0  0  0  0
  -52.1113   69.5593  -18.6554 O   0  0  0  0  0  0  0  0  0  0  0  0
  -49.8895   68.7530  -18.3286 C   0  0  0  0  0  0  0  0  0  0  0  0
  -50.4327   70.5913  -19.7035 O   0  0  0  0  0  0  0  0  0  0  0  0
  -49.4250   67.6359  -19.2081 C   0  0  0  0  0  0  0  0  0  0  0  0
  -48.6451   67.9855  -20.4216 C   0  0  0  0  0  0  0  0  0  0  0  0
  -48.2441   66.7967  -21.2788 C   0  0  0  0  0  0  0  0  0  0  0  0
  -47.4439   67.0293  -22.5701 C   0  0  0  0  0  0  0  0  0  0  0  0
  -46.1928   67.6005  -22.4580 N   0  0  0  0  0  0  0  0  0  0  0  0
  1  2  1  0  0  0  0
  1  3  1  0  0  0  0
  1  4  1  0  0  0  0
  3  5  1  0  0  0  0
  5  6  1  0  0  0  0
  6  7  1  0  0  0  0
  7  8  1  0  0  0  0
  8  9  1  0  0  0  0
M  END
>  <CHROM.1>
101.20051542,64.98847879,-178.44167193,179.44495508,62.07227243,-49.28707001
68.43401529,-20.16185033,-3.02717743,-0.79672879,2.66372936

>  <Name>
ligand

>  <RI>
0

>  <Rbt.Current_Directory>
/home/itssahil/PROJECTS/Mol_Feturizer/Test_systems_manuscript/rnas/4erj

>  <Rbt.Executable>
rbdock ($Id: //depot/dev/client3/rdock/2013.1/src/exe/rbdock.cxx#4 $)

>  <Rbt.Library>
libRbt.so (2013.1, Build901 2013/11/27)

>  <Rbt.Parameter_File>
/export/apps/rDock/src/rDock_2013.1_src/data/scripts/dock_solv.prm

>  <Rbt.Receptor>
prm/pocket_docking_8.prm

>  <SCORE>
-14.2715

>  <SCORE.INTER>
-11.1199

>  <SCORE.INTER.CONST>
1

>  <SCORE.INTER.POLAR>
0

>  <SCORE.INTER.ROT>
5

>  <SCORE.INTER.SOLV>
6.9738

>  <SCORE.INTER.VDW>
-16.6712

>  <SCORE.INTER.norm>
-1.23555

>  <SCORE.INTRA>
-3.15157

>  <SCORE.INTRA.DIHEDRAL>
-5.83889

>  <SCORE.INTRA.DIHEDRAL.0>
7.73744

>  <SCORE.INTRA.POLAR>
0

>  <SCORE.INTRA.POLAR.0>
0

>  <SCORE.INTRA.REPUL>
0

>  <SCORE.INTRA.REPUL.0>
0

>  <SCORE.INTRA.SOLV>
0.506363

>  <SCORE.INTRA.SOLV.lig_0>
-15.8342

>  <SCORE.INTRA.VDW>
-0.485305

>  <SCORE.INTRA.VDW.0>
-0.219494

>  <SCORE.INTRA.norm>
-0.350174

>  <SCORE.RESTR>
0

>  <SCORE.RESTR.CAVITY>
0

>  <SCORE.RESTR.norm>
0

>  <SCORE.SYSTEM>
0

>  <SCORE.SYSTEM.CONST>
0

>  <SCORE.SYSTEM.DIHEDRAL>
0

>  <SCORE.SYSTEM.SOLV>
0

>  <SCORE.SYSTEM.norm>
0

>  <SCORE.heavy>
9

>  <SCORE.norm>
-1.58572

>  <RMSD>
5.689

$$$$
ligand
 OpenBabel02271912143D
libRbt.so/2013.1/901 2013/11/27
  9  8  0  0  0  0  0  0  0  0999 V2000
  -51.0973   69.9690  -19.4371 C   0  0  0  0  0  0  0  0  0  0  0  0
  -52.2613   69.5431  -19.7741 O   0  0  0  0  0  0  0  0  0  0  0  0
  -50.2066   69.1180  -18.6379 C   0  0  0  0  0  0  0  0  0  0  0  0
  -50.7041   71.1418  -19.7431 O   0  0  0  0  0  0  0  0  0  0  0  0
  -48.8394   68.9081  -19.2072 C   0  0  0  0  0  0  0  0  0  0  0  0
  -48.7281   68.1855  -20.4989 C   0  0  0  0  0  0  0  0  0  0  0  0
  -47.3248   68.1428  -21.0798 C   0  0  0  0  0  0  0  0  0  0  0  0
  -47.0727   67.3936  -22.3977 C   0  0  0  0  0  0  0  0  0  0  0  0
  -45.8085   67.4636  -22.9463 N   0  0  0  0  0  0  0  0  0  0  0  0
  1  2  1  0  0  0  0
  1  3  1  0  0  0  0
  1  4  1  0  0  0  0
  3  5  1  0  0  0  0
  5  6  1  0  0  0  0
  6  7  1  0  0  0  0
  7  8  1  0  0  0  0
  8  9  1  0  0  0  0
M  END
>  <CHROM.1>
126.69794991,-64.27010775,173.84563798,178.50850426,175.11859187,-49.15807941
68.90216650,-20.40836152,2.66065584,-0.50353433,1.61331085

>  <Name>
ligand

>  <RI>
0

>  <Rbt.Current_Directory>
/home/itssahil/PROJECTS/Mol_Feturizer/Test_systems_manuscript/rnas/4erj

>  <Rbt.Executable>
rbdock ($Id: //depot/dev/client3/rdock/2013.1/src/exe/rbdock.cxx#4 $)

>  <Rbt.Library>
libRbt.so (2013.1, Build901 2013/11/27)

>  <Rbt.Parameter_File>
/export/apps/rDock/src/rDock_2013.1_src/data/scripts/dock_solv.prm

>  <Rbt.Receptor>
prm/pocket_docking_4.prm

>  <SCORE>
-12.9414

>  <SCORE.INTER>
-9.67711

>  <SCORE.INTER.CONST>
1

>  <SCORE.INTER.POLAR>
0

>  <SCORE.INTER.ROT>
5

>  <SCORE.INTER.SOLV>
6.51786

>  <SCORE.INTER.VDW>
-15.5574

>  <SCORE.INTER.norm>
-1.07523

>  <SCORE.INTRA>
-3.26428

>  <SCORE.INTRA.DIHEDRAL>
-5.75365

>  <SCORE.INTRA.DIHEDRAL.0>
7.73744

>  <SCORE.INTRA.POLAR>
0

>  <SCORE.INTRA.POLAR.0>
0

>  <SCORE.INTRA.REPUL>
0

>  <SCORE.INTRA.REPUL.0>
0

>  <SCORE.INTRA.SOLV>
-0.121708

>  <SCORE.INTRA.SOLV.lig_0>
-15.8342

>  <SCORE.INTRA.VDW>
-0.326608

>  <SCORE.INTRA.VDW.0>
-0.219494

>  <SCORE.INTRA.norm>
-0.362698

>  <SCORE.RESTR>
0

>  <SCORE.RESTR.CAVITY>
0

>  <SCORE.RESTR.norm>
0

>  <SCORE.SYSTEM>
0

>  <SCORE.SYSTEM.CONST>
0

>  <SCORE.SYSTEM.DIHEDRAL>
0

>  <SCORE.SYSTEM.SOLV>
0

>  <SCORE.SYSTEM.norm>
0

>  <SCORE.heavy>
9

>  <SCORE.norm>
-1.43793

>  <RMSD>
5.701

$$$$
ligand
 OpenBabel02271912143D
libRbt.so/2013.1/901 2013/11/27
  9  8  0  0  0  0  0  0  0  0999 V2000
  -49.2566   67.8156  -18.1747 C   0  0  0  0  0  0  0  0  0  0  0  0
  -49.4003   66.9631  -17.2248 O   0  0  0  0  0  0  0  0  0  0  0  0
  -49.4720   67.4060  -19.5683 C   0  0  0  0  0  0  0  0  0  0  0  0
  -48.8847   69.0122  -17.9435 O   0  0  0  0  0  0  0  0  0  0  0  0
  -48.2305   67.2265  -20.3830 C   0  0  0  0  0  0  0  0  0  0  0  0
  -48.3851   66.9498  -21.8330 C   0  0  0  0  0  0  0  0  0  0  0  0
  -47.0766   66.7811  -22.5867 C   0  0  0  0  0  0  0  0  0  0  0  0
  -46.1116   67.9714  -22.7053 C   0  0  0  0  0  0  0  0  0  0  0  0
  -44.9586   67.7942  -23.4424 N   0  0  0  0  0  0  0  0  0  0  0  0
  1  2  1  0  0  0  0
  1  3  1  0  0  0  0
  1  4  1  0  0  0  0
  3  5  1  0  0  0  0
  5  6  1  0  0  0  0
  6  7  1  0  0  0  0
  7  8  1  0  0  0  0
  8  9  1  0  0  0  0
M  END
>  <CHROM.1>
-104.93292119,-173.84638435,179.98951295,-64.61147898,-177.47415173,-47.99136439
67.55596183,-20.37650211,-2.31371509,-0.65294278,-2.12931794

>  <Name>
ligand

>  <RI>
0

>  <Rbt.Current_Directory>
/home/itssahil/PROJECTS/Mol_Feturizer/Test_systems_manuscript/rnas/4erj

>  <Rbt.Executable>
rbdock ($Id: //depot/dev/client3/rdock/2013.1/src/exe/rbdock.cxx#4 $)

>  <Rbt.Library>
libRbt.so (2013.1, Build901 2013/11/27)

>  <Rbt.Parameter_File>
/export/apps/rDock/src/rDock_2013.1_src/data/scripts/dock_solv.prm

>  <Rbt.Receptor>
prm/pocket_docking_5.prm

>  <SCORE>
-13.2331

>  <SCORE.INTER>
-10.1119

>  <SCORE.INTER.CONST>
1

>  <SCORE.INTER.POLAR>
0

>  <SCORE.INTER.ROT>
5

>  <SCORE.INTER.SOLV>
9.44311

>  <SCORE.INTER.VDW>
-16.8223

>  <SCORE.INTER.norm>
-1.12355

>  <SCORE.INTRA>
-3.12115

>  <SCORE.INTRA.DIHEDRAL>
-5.85417

>  <SCORE.INTRA.DIHEDRAL.0>
7.73744

>  <SCORE.INTRA.POLAR>
0

>  <SCORE.INTRA.POLAR.0>
0

>  <SCORE.INTRA.REPUL>
0

>  <SCORE.INTRA.REPUL.0>
0

>  <SCORE.INTRA.SOLV>
0.0271115

>  <SCORE.INTRA.SOLV.lig_0>
-15.8342

>  <SCORE.INTRA.VDW>
-0.207621

>  <SCORE.INTRA.VDW.0>
-0.219494

>  <SCORE.INTRA.norm>
-0.346794

>  <SCORE.RESTR>
0

>  <SCORE.RESTR.CAVITY>
0

>  <SCORE.RESTR.norm>
0

>  <SCORE.SYSTEM>
0

>  <SCORE.SYSTEM.CONST>
0

>  <SCORE.SYSTEM.DIHEDRAL>
0

>  <SCORE.SYSTEM.SOLV>
0

>  <SCORE.SYSTEM.norm>
0

>  <SCORE.heavy>
9

>  <SCORE.norm>
-1.47034

>  <RMSD>
5.703

$$$$
ligand
 OpenBabel02271912143D
libRbt.so/2013.1/901 2013/11/27
  9  8  0  0  0  0  0  0  0  0999 V2000
  -51.3838   70.0853  -19.2781 C   0  0  0  0  0  0  0  0  0  0  0  0
  -52.3921   69.9644  -18.4916 O   0  0  0  0  0  0  0  0  0  0  0  0
  -50.6340   68.8951  -19.6995 C   0  0  0  0  0  0  0  0  0  0  0  0
  -50.9826   71.2280  -19.6740 O   0  0  0  0  0  0  0  0  0  0  0  0
  -49.5012   68.5012  -18.8056 C   0  0  0  0  0  0  0  0  0  0  0  0
  -48.8161   67.2132  -19.0789 C   0  0  0  0  0  0  0  0  0  0  0  0
  -48.2784   67.0715  -20.4929 C   0  0  0  0  0  0  0  0  0  0  0  0
  -47.2889   68.1149  -21.0352 C   0  0  0  0  0  0  0  0  0  0  0  0
  -46.8367   67.9612  -22.3299 N   0  0  0  0  0  0  0  0  0  0  0  0
  1  2  1  0  0  0  0
  1  3  1  0  0  0  0
  1  4  1  0  0  0  0
  3  5  1  0  0  0  0
  5  6  1  0  0  0  0
  6  7  1  0  0  0  0
  7  8  1  0  0  0  0
  8  9  1  0  0  0  0
M  END
>  <CHROM.1>
-89.22497697,172.32188180,55.25572449,56.92190882,-179.17405779,-49.60532277
68.81713483,-19.86077694,-2.98290381,-0.65974923,2.51898057

>  <Name>
ligand

>  <RI>
0

>  <Rbt.Current_Directory>
/home/itssahil/PROJECTS/Mol_Feturizer/Test_systems_manuscript/rnas/4erj

>  <Rbt.Executable>
rbdock ($Id: //depot/dev/client3/rdock/2013.1/src/exe/rbdock.cxx#4 $)

>  <Rbt.Library>
libRbt.so (2013.1, Build901 2013/11/27)

>  <Rbt.Parameter_File>
/export/apps/rDock/src/rDock_2013.1_src/data/scripts/dock_solv.prm

>  <Rbt.Receptor>
prm/pocket_docking_4.prm

>  <SCORE>
-14.2385

>  <SCORE.INTER>
-11.767

>  <SCORE.INTER.CONST>
1

>  <SCORE.INTER.POLAR>
0

>  <SCORE.INTER.ROT>
5

>  <SCORE.INTER.SOLV>
6.71993

>  <SCORE.INTER.VDW>
-17.018

>  <SCORE.INTER.norm>
-1.30744

>  <SCORE.INTRA>
-2.47183

>  <SCORE.INTRA.DIHEDRAL>
-5.77797

>  <SCORE.INTRA.DIHEDRAL.0>
7.73744

>  <SCORE.INTRA.POLAR>
0

>  <SCORE.INTRA.POLAR.0>
0

>  <SCORE.INTRA.REPUL>
0

>  <SCORE.INTRA.REPUL.0>
0

>  <SCORE.INTRA.SOLV>
0.0705059

>  <SCORE.INTRA.SOLV.lig_0>
-15.8342

>  <SCORE.INTRA.VDW>
0.381901

>  <SCORE.INTRA.VDW.0>
-0.219494

>  <SCORE.INTRA.norm>
-0.274648

>  <SCORE.RESTR>
0.000328604

>  <SCORE.RESTR.CAVITY>
0.000328604

>  <SCORE.RESTR.norm>
3.65115e-05

>  <SCORE.SYSTEM>
0

>  <SCORE.SYSTEM.CONST>
0

>  <SCORE.SYSTEM.DIHEDRAL>
0

>  <SCORE.SYSTEM.SOLV>
0

>  <SCORE.SYSTEM.norm>
0

>  <SCORE.heavy>
9

>  <SCORE.norm>
-1.58205

>  <RMSD>
5.707

$$$$
ligand
 OpenBabel02271912143D
libRbt.so/2013.1/901 2013/11/27
  9  8  0  0  0  0  0  0  0  0999 V2000
  -51.3556   70.1097  -19.2122 C   0  0  0  0  0  0  0  0  0  0  0  0
  -50.9955   71.2469  -19.6887 O   0  0  0  0  0  0  0  0  0  0  0  0
  -50.5884   68.9006  -19.5378 C   0  0  0  0  0  0  0  0  0  0  0  0
  -52.3991   69.9915  -18.4907 O   0  0  0  0  0  0  0  0  0  0  0  0
  -49.7253   68.3730  -18.4360 C   0  0  0  0  0  0  0  0  0  0  0  0
  -49.0870   67.0468  -18.6280 C   0  0  0  0  0  0  0  0  0  0  0  0
  -48.0852   66.9874  -19.7688 C   0  0  0  0  0  0  0  0  0  0  0  0
  -48.5860   67.0453  -21.2206 C   0  0  0  0  0  0  0  0  0  0  0  0
  -47.6420   67.0609  -22.2270 N   0  0  0  0  0  0  0  0  0  0  0  0
  1  2  1  0  0  0  0
  1  3  1  0  0  0  0
  1  4  1  0  0  0  0
  3  5  1  0  0  0  0
  5  6  1  0  0  0  0
  6  7  1  0  0  0  0
  7  8  1  0  0  0  0
  8  9  1  0  0  0  0
M  END
>  <CHROM.1>
105.51572593,170.91737454,63.92169164,-71.08784688,176.59816176,-49.86317655
68.56883613,-19.67860731,-3.11910792,-0.83531982,2.11518202

>  <Name>
ligand

>  <RI>
0

>  <Rbt.Current_Directory>
/home/itssahil/PROJECTS/Mol_Feturizer/Test_systems_manuscript/rnas/4erj

>  <Rbt.Executable>
rbdock ($Id: //depot/dev/client3/rdock/2013.1/src/exe/rbdock.cxx#4 $)

>  <Rbt.Library>
libRbt.so (2013.1, Build901 2013/11/27)

>  <Rbt.Parameter_File>
/export/apps/rDock/src/rDock_2013.1_src/data/scripts/dock_solv.prm

>  <Rbt.Receptor>
prm/pocket_docking_8.prm

>  <SCORE>
-14.9145

>  <SCORE.INTER>
-12.8055

>  <SCORE.INTER.CONST>
1

>  <SCORE.INTER.POLAR>
0

>  <SCORE.INTER.ROT>
5

>  <SCORE.INTER.SOLV>
8.68837

>  <SCORE.INTER.VDW>
-18.3664

>  <SCORE.INTER.norm>
-1.42283

>  <SCORE.INTRA>
-2.1091

>  <SCORE.INTRA.DIHEDRAL>
-5.03506

>  <SCORE.INTRA.DIHEDRAL.0>
7.73744

>  <SCORE.INTRA.POLAR>
0

>  <SCORE.INTRA.POLAR.0>
0

>  <SCORE.INTRA.REPUL>
0

>  <SCORE.INTRA.REPUL.0>
0

>  <SCORE.INTRA.SOLV>
0.24958

>  <SCORE.INTRA.SOLV.lig_0>
-15.8342

>  <SCORE.INTRA.VDW>
0.283644

>  <SCORE.INTRA.VDW.0>
-0.219494

>  <SCORE.INTRA.norm>
-0.234344

>  <SCORE.RESTR>
0

>  <SCORE.RESTR.CAVITY>
0

>  <SCORE.RESTR.norm>
0

>  <SCORE.SYSTEM>
0

>  <SCORE.SYSTEM.CONST>
0

>  <SCORE.SYSTEM.DIHEDRAL>
0

>  <SCORE.SYSTEM.SOLV>
0

>  <SCORE.SYSTEM.norm>
0

>  <SCORE.heavy>
9

>  <SCORE.norm>
-1.65717

>  <RMSD>
5.708

$$$$
ligand
 OpenBabel02271912143D
libRbt.so/2013.1/901 2013/11/27
  9  8  0  0  0  0  0  0  0  0999 V2000
  -49.4780   67.4508  -18.5680 C   0  0  0  0  0  0  0  0  0  0  0  0
  -49.2423   67.0297  -17.3776 O   0  0  0  0  0  0  0  0  0  0  0  0
  -48.8217   66.8127  -19.7163 C   0  0  0  0  0  0  0  0  0  0  0  0
  -50.2415   68.4483  -18.7814 O   0  0  0  0  0  0  0  0  0  0  0  0
  -48.2230   67.7511  -20.7154 C   0  0  0  0  0  0  0  0  0  0  0  0
  -47.5312   67.1656  -21.8908 C   0  0  0  0  0  0  0  0  0  0  0  0
  -47.0593   68.1821  -22.9168 C   0  0  0  0  0  0  0  0  0  0  0  0
  -46.2918   67.7040  -24.1595 C   0  0  0  0  0  0  0  0  0  0  0  0
  -45.0396   67.1557  -23.9713 N   0  0  0  0  0  0  0  0  0  0  0  0
  1  2  1  0  0  0  0
  1  3  1  0  0  0  0
  1  4  1  0  0  0  0
  3  5  1  0  0  0  0
  5  6  1  0  0  0  0
  6  7  1  0  0  0  0
  7  8  1  0  0  0  0
  8  9  1  0  0  0  0
M  END
>  <CHROM.1>
-133.33376064,179.28622656,174.88141367,178.19551118,-66.56543335,-48.02301223
67.53008901,-20.84902546,-2.32729051,0.64961287,-1.04854614

>  <Name>
ligand

>  <RI>
0

>  <Rbt.Current_Directory>
/home/itssahil/PROJECTS/Mol_Feturizer/Test_systems_manuscript/rnas/4erj

>  <Rbt.Executable>
rbdock ($Id: //depot/dev/client3/rdock/2013.1/src/exe/rbdock.cxx#4 $)

>  <Rbt.Library>
libRbt.so (2013.1, Build901 2013/11/27)

>  <Rbt.Parameter_File>
/export/apps/rDock/src/rDock_2013.1_src/data/scripts/dock_solv.prm

>  <Rbt.Receptor>
prm/pocket_docking_6.prm

>  <SCORE>
-11.8484

>  <SCORE.INTER>
-9.05061

>  <SCORE.INTER.CONST>
1

>  <SCORE.INTER.POLAR>
0

>  <SCORE.INTER.ROT>
5

>  <SCORE.INTER.SOLV>
8.38668

>  <SCORE.INTER.VDW>
-15.7626

>  <SCORE.INTER.norm>
-1.00562

>  <SCORE.INTRA>
-2.79777

>  <SCORE.INTRA.DIHEDRAL>
-5.7017

>  <SCORE.INTRA.DIHEDRAL.0>
7.73744

>  <SCORE.INTRA.POLAR>
0

>  <SCORE.INTRA.POLAR.0>
0

>  <SCORE.INTRA.REPUL>
0

>  <SCORE.INTRA.REPUL.0>
0

>  <SCORE.INTRA.SOLV>
0.476818

>  <SCORE.INTRA.SOLV.lig_0>
-15.8342

>  <SCORE.INTRA.VDW>
-0.185326

>  <SCORE.INTRA.VDW.0>
-0.219494

>  <SCORE.INTRA.norm>
-0.310863

>  <SCORE.RESTR>
0

>  <SCORE.RESTR.CAVITY>
0

>  <SCORE.RESTR.norm>
0

>  <SCORE.SYSTEM>
0

>  <SCORE.SYSTEM.CONST>
0

>  <SCORE.SYSTEM.DIHEDRAL>
0

>  <SCORE.SYSTEM.SOLV>
0

>  <SCORE.SYSTEM.norm>
0

>  <SCORE.heavy>
9

>  <SCORE.norm>
-1.31649

>  <RMSD>
5.713

$$$$
ligand
 OpenBabel02271912143D
libRbt.so/2013.1/901 2013/11/27
  9  8  0  0  0  0  0  0  0  0999 V2000
  -49.5620   68.1487  -18.3347 C   0  0  0  0  0  0  0  0  0  0  0  0
  -50.6837   68.7692  -18.4165 O   0  0  0  0  0  0  0  0  0  0  0  0
  -48.4644   68.4917  -19.2479 C   0  0  0  0  0  0  0  0  0  0  0  0
  -49.3858   67.2008  -17.5016 O   0  0  0  0  0  0  0  0  0  0  0  0
  -48.3535   67.6333  -20.4679 C   0  0  0  0  0  0  0  0  0  0  0  0
  -47.3252   67.9900  -21.4770 C   0  0  0  0  0  0  0  0  0  0  0  0
  -47.2826   67.0718  -22.6869 C   0  0  0  0  0  0  0  0  0  0  0  0
  -46.2974   67.3680  -23.8286 C   0  0  0  0  0  0  0  0  0  0  0  0
  -46.4270   68.5692  -24.4953 N   0  0  0  0  0  0  0  0  0  0  0  0
  1  2  1  0  0  0  0
  1  3  1  0  0  0  0
  1  4  1  0  0  0  0
  3  5  1  0  0  0  0
  5  6  1  0  0  0  0
  6  7  1  0  0  0  0
  7  8  1  0  0  0  0
  8  9  1  0  0  0  0
M  END
>  <CHROM.1>
-95.54823388,175.71935724,-179.75823948,177.64090521,-60.93251653,-48.23331694
67.91421890,-20.66934013,2.39577122,-0.83145979,2.19901194

>  <Name>
ligand

>  <RI>
0

>  <Rbt.Current_Directory>
/home/itssahil/PROJECTS/Mol_Feturizer/Test_systems_manuscript/rnas/4erj

>  <Rbt.Executable>
rbdock ($Id: //depot/dev/client3/rdock/2013.1/src/exe/rbdock.cxx#4 $)

>  <Rbt.Library>
libRbt.so (2013.1, Build901 2013/11/27)

>  <Rbt.Parameter_File>
/export/apps/rDock/src/rDock_2013.1_src/data/scripts/dock_solv.prm

>  <Rbt.Receptor>
prm/pocket_docking_3.prm

>  <SCORE>
-12.9457

>  <SCORE.INTER>
-9.69617

>  <SCORE.INTER.CONST>
1

>  <SCORE.INTER.POLAR>
0

>  <SCORE.INTER.ROT>
5

>  <SCORE.INTER.SOLV>
7.69116

>  <SCORE.INTER.VDW>
-15.9612

>  <SCORE.INTER.norm>
-1.07735

>  <SCORE.INTRA>
-3.24956

>  <SCORE.INTRA.DIHEDRAL>
-6.04862

>  <SCORE.INTRA.DIHEDRAL.0>
7.73744

>  <SCORE.INTRA.POLAR>
0

>  <SCORE.INTRA.POLAR.0>
0

>  <SCORE.INTRA.REPUL>
0

>  <SCORE.INTRA.REPUL.0>
0

>  <SCORE.INTRA.SOLV>
0.535721

>  <SCORE.INTRA.SOLV.lig_0>
-15.8342

>  <SCORE.INTRA.VDW>
-0.493107

>  <SCORE.INTRA.VDW.0>
-0.219494

>  <SCORE.INTRA.norm>
-0.361062

>  <SCORE.RESTR>
0

>  <SCORE.RESTR.CAVITY>
0

>  <SCORE.RESTR.norm>
0

>  <SCORE.SYSTEM>
0

>  <SCORE.SYSTEM.CONST>
0

>  <SCORE.SYSTEM.DIHEDRAL>
0

>  <SCORE.SYSTEM.SOLV>
0

>  <SCORE.SYSTEM.norm>
0

>  <SCORE.heavy>
9

>  <SCORE.norm>
-1.43841

>  <RMSD>
5.720

$$$$
ligand
 OpenBabel02271912143D
libRbt.so/2013.1/901 2013/11/27
  9  8  0  0  0  0  0  0  0  0999 V2000
  -51.4052   70.1145  -19.2710 C   0  0  0  0  0  0  0  0  0  0  0  0
  -52.3996   70.0048  -18.4654 O   0  0  0  0  0  0  0  0  0  0  0  0
  -50.6478   68.9213  -19.6698 C   0  0  0  0  0  0  0  0  0  0  0  0
  -51.0241   71.2499  -19.7061 O   0  0  0  0  0  0  0  0  0  0  0  0
  -49.4652   68.5968  -18.8134 C   0  0  0  0  0  0  0  0  0  0  0  0
  -48.7394   67.3303  -19.0822 C   0  0  0  0  0  0  0  0  0  0  0  0
  -48.2286   67.1851  -20.5058 C   0  0  0  0  0  0  0  0  0  0  0  0
  -47.2503   68.2276  -21.0698 C   0  0  0  0  0  0  0  0  0  0  0  0
  -46.8167   68.0662  -22.3698 N   0  0  0  0  0  0  0  0  0  0  0  0
  1  2  1  0  0  0  0
  1  3  1  0  0  0  0
  1  4  1  0  0  0  0
  3  5  1  0  0  0  0
  5  6  1  0  0  0  0
  6  7  1  0  0  0  0
  7  8  1  0  0  0  0
  8  9  1  0  0  0  0
M  END
>  <CHROM.1>
-91.46811758,174.04349937,56.43047364,59.13559503,-179.54520987,-49.59077085
68.89003890,-19.86837461,-3.02539026,-0.65343226,2.48027200

>  <Name>
ligand

>  <RI>
0

>  <Rbt.Current_Directory>
/home/itssahil/PROJECTS/Mol_Feturizer/Test_systems_manuscript/rnas/4erj

>  <Rbt.Executable>
rbdock ($Id: //depot/dev/client3/rdock/2013.1/src/exe/rbdock.cxx#4 $)

>  <Rbt.Library>
libRbt.so (2013.1, Build901 2013/11/27)

>  <Rbt.Parameter_File>
/export/apps/rDock/src/rDock_2013.1_src/data/scripts/dock_solv.prm

>  <Rbt.Receptor>
prm/pocket_docking_6.prm

>  <SCORE>
-14.3421

>  <SCORE.INTER>
-11.7006

>  <SCORE.INTER.CONST>
1

>  <SCORE.INTER.POLAR>
0

>  <SCORE.INTER.ROT>
5

>  <SCORE.INTER.SOLV>
6.60495

>  <SCORE.INTER.VDW>
-16.9354

>  <SCORE.INTER.norm>
-1.30006

>  <SCORE.INTRA>
-2.64193

>  <SCORE.INTRA.DIHEDRAL>
-5.95236

>  <SCORE.INTRA.DIHEDRAL.0>
7.73744

>  <SCORE.INTRA.POLAR>
0

>  <SCORE.INTRA.POLAR.0>
0

>  <SCORE.INTRA.REPUL>
0

>  <SCORE.INTRA.REPUL.0>
0

>  <SCORE.INTRA.SOLV>
0.0591166

>  <SCORE.INTRA.SOLV.lig_0>
-15.8342

>  <SCORE.INTRA.VDW>
0.304696

>  <SCORE.INTRA.VDW.0>
-0.219494

>  <SCORE.INTRA.norm>
-0.293547

>  <SCORE.RESTR>
0.00037384

>  <SCORE.RESTR.CAVITY>
0.00037384

>  <SCORE.RESTR.norm>
4.15377e-05

>  <SCORE.SYSTEM>
0

>  <SCORE.SYSTEM.CONST>
0

>  <SCORE.SYSTEM.DIHEDRAL>
0

>  <SCORE.SYSTEM.SOLV>
0

>  <SCORE.SYSTEM.norm>
0

>  <SCORE.heavy>
9

>  <SCORE.norm>
-1.59357

>  <RMSD>
5.726

$$$$
ligand
 OpenBabel02271912143D
libRbt.so/2013.1/901 2013/11/27
  9  8  0  0  0  0  0  0  0  0999 V2000
  -49.6365   68.1932  -18.3089 C   0  0  0  0  0  0  0  0  0  0  0  0
  -50.7868   68.7419  -18.4690 O   0  0  0  0  0  0  0  0  0  0  0  0
  -48.5315   68.5247  -19.2175 C   0  0  0  0  0  0  0  0  0  0  0  0
  -49.4351   67.3245  -17.3987 O   0  0  0  0  0  0  0  0  0  0  0  0
  -48.4508   67.6936  -20.4585 C   0  0  0  0  0  0  0  0  0  0  0  0
  -47.3797   68.0082  -21.4367 C   0  0  0  0  0  0  0  0  0  0  0  0
  -47.3563   67.1062  -22.6592 C   0  0  0  0  0  0  0  0  0  0  0  0
  -46.3450   67.3801  -23.7836 C   0  0  0  0  0  0  0  0  0  0  0  0
  -46.4625   68.5654  -24.4803 N   0  0  0  0  0  0  0  0  0  0  0  0
  1  2  1  0  0  0  0
  1  3  1  0  0  0  0
  1  4  1  0  0  0  0
  3  5  1  0  0  0  0
  5  6  1  0  0  0  0
  6  7  1  0  0  0  0
  7  8  1  0  0  0  0
  8  9  1  0  0  0  0
M  END
>  <CHROM.1>
-87.64506012,178.16667423,179.22405615,176.53419576,-64.19368521,-48.30045260
67.94728850,-20.64225567,2.32947206,-0.76377018,2.09986513

>  <Name>
ligand

>  <RI>
0

>  <Rbt.Current_Directory>
/home/itssahil/PROJECTS/Mol_Feturizer/Test_systems_manuscript/rnas/4erj

>  <Rbt.Executable>
rbdock ($Id: //depot/dev/client3/rdock/2013.1/src/exe/rbdock.cxx#4 $)

>  <Rbt.Library>
libRbt.so (2013.1, Build901 2013/11/27)

>  <Rbt.Parameter_File>
/export/apps/rDock/src/rDock_2013.1_src/data/scripts/dock_solv.prm

>  <Rbt.Receptor>
prm/pocket_docking_6.prm

>  <SCORE>
-12.9352

>  <SCORE.INTER>
-9.66739

>  <SCORE.INTER.CONST>
1

>  <SCORE.INTER.POLAR>
0

>  <SCORE.INTER.ROT>
5

>  <SCORE.INTER.SOLV>
7.61922

>  <SCORE.INTER.VDW>
-15.918

>  <SCORE.INTER.norm>
-1.07415

>  <SCORE.INTRA>
-3.26785

>  <SCORE.INTRA.DIHEDRAL>
-6.0248

>  <SCORE.INTRA.DIHEDRAL.0>
7.73744

>  <SCORE.INTRA.POLAR>
0

>  <SCORE.INTRA.POLAR.0>
0

>  <SCORE.INTRA.REPUL>
0

>  <SCORE.INTRA.REPUL.0>
0

>  <SCORE.INTRA.SOLV>
0.508343

>  <SCORE.INTRA.SOLV.lig_0>
-15.8342

>  <SCORE.INTRA.VDW>
-0.509621

>  <SCORE.INTRA.VDW.0>
-0.219494

>  <SCORE.INTRA.norm>
-0.363094

>  <SCORE.RESTR>
0

>  <SCORE.RESTR.CAVITY>
0

>  <SCORE.RESTR.norm>
0

>  <SCORE.SYSTEM>
0

>  <SCORE.SYSTEM.CONST>
0

>  <SCORE.SYSTEM.DIHEDRAL>
0

>  <SCORE.SYSTEM.SOLV>
0

>  <SCORE.SYSTEM.norm>
0

>  <SCORE.heavy>
9

>  <SCORE.norm>
-1.43725

>  <RMSD>
5.735

$$$$
ligand
 OpenBabel02271912143D
libRbt.so/2013.1/901 2013/11/27
  9  8  0  0  0  0  0  0  0  0999 V2000
  -49.6054   68.1532  -18.3116 C   0  0  0  0  0  0  0  0  0  0  0  0
  -49.3939   67.2666  -17.4065 O   0  0  0  0  0  0  0  0  0  0  0  0
  -48.5304   68.5264  -19.2398 C   0  0  0  0  0  0  0  0  0  0  0  0
  -50.7230   68.7584  -18.4011 O   0  0  0  0  0  0  0  0  0  0  0  0
  -48.3613   67.6242  -20.4208 C   0  0  0  0  0  0  0  0  0  0  0  0
  -47.3551   68.0014  -21.4447 C   0  0  0  0  0  0  0  0  0  0  0  0
  -47.2724   67.0525  -22.6284 C   0  0  0  0  0  0  0  0  0  0  0  0
  -46.2927   67.3533  -23.7737 C   0  0  0  0  0  0  0  0  0  0  0  0
  -46.4677   68.5263  -24.4790 N   0  0  0  0  0  0  0  0  0  0  0  0
  1  2  1  0  0  0  0
  1  3  1  0  0  0  0
  1  4  1  0  0  0  0
  3  5  1  0  0  0  0
  5  6  1  0  0  0  0
  6  7  1  0  0  0  0
  7  8  1  0  0  0  0
  8  9  1  0  0  0  0
M  END
>  <CHROM.1>
83.17710151,175.78930368,-178.45174796,178.47838214,-61.29853488,-48.25748302
67.91715291,-20.62960584,2.36879657,-0.80501825,2.15298335

>  <Name>
ligand

>  <RI>
0

>  <Rbt.Current_Directory>
/home/itssahil/PROJECTS/Mol_Feturizer/Test_systems_manuscript/rnas/4erj

>  <Rbt.Executable>
rbdock ($Id: //depot/dev/client3/rdock/2013.1/src/exe/rbdock.cxx#4 $)

>  <Rbt.Library>
libRbt.so (2013.1, Build901 2013/11/27)

>  <Rbt.Parameter_File>
/export/apps/rDock/src/rDock_2013.1_src/data/scripts/dock_solv.prm

>  <Rbt.Receptor>
prm/pocket_docking_4.prm

>  <SCORE>
-12.8502

>  <SCORE.INTER>
-9.67708

>  <SCORE.INTER.CONST>
1

>  <SCORE.INTER.POLAR>
0

>  <SCORE.INTER.ROT>
5

>  <SCORE.INTER.SOLV>
7.61261

>  <SCORE.INTER.VDW>
-15.9223

>  <SCORE.INTER.norm>
-1.07523

>  <SCORE.INTRA>
-3.17312

>  <SCORE.INTRA.DIHEDRAL>
-5.86518

>  <SCORE.INTRA.DIHEDRAL.0>
7.73744

>  <SCORE.INTRA.POLAR>
0

>  <SCORE.INTRA.POLAR.0>
0

>  <SCORE.INTRA.REPUL>
0

>  <SCORE.INTRA.REPUL.0>
0

>  <SCORE.INTRA.SOLV>
0.528654

>  <SCORE.INTRA.SOLV.lig_0>
-15.8342

>  <SCORE.INTRA.VDW>
-0.504851

>  <SCORE.INTRA.VDW.0>
-0.219494

>  <SCORE.INTRA.norm>
-0.352568

>  <SCORE.RESTR>
0

>  <SCORE.RESTR.CAVITY>
0

>  <SCORE.RESTR.norm>
0

>  <SCORE.SYSTEM>
0

>  <SCORE.SYSTEM.CONST>
0

>  <SCORE.SYSTEM.DIHEDRAL>
0

>  <SCORE.SYSTEM.SOLV>
0

>  <SCORE.SYSTEM.norm>
0

>  <SCORE.heavy>
9

>  <SCORE.norm>
-1.4278

>  <RMSD>
5.736

$$$$
ligand
 OpenBabel02271912143D
libRbt.so/2013.1/901 2013/11/27
  9  8  0  0  0  0  0  0  0  0999 V2000
  -51.1940   70.2271  -19.5633 C   0  0  0  0  0  0  0  0  0  0  0  0
  -50.9729   71.4668  -19.8163 O   0  0  0  0  0  0  0  0  0  0  0  0
  -50.3653   69.1899  -20.1909 C   0  0  0  0  0  0  0  0  0  0  0  0
  -52.1530   69.8636  -18.8071 O   0  0  0  0  0  0  0  0  0  0  0  0
  -49.2881   68.6186  -19.3245 C   0  0  0  0  0  0  0  0  0  0  0  0
  -48.3876   67.5985  -19.9173 C   0  0  0  0  0  0  0  0  0  0  0  0
  -47.5670   68.0902  -21.0978 C   0  0  0  0  0  0  0  0  0  0  0  0
  -46.6821   67.0994  -21.8706 C   0  0  0  0  0  0  0  0  0  0  0  0
  -45.9715   67.5790  -22.9519 N   0  0  0  0  0  0  0  0  0  0  0  0
  1  2  1  0  0  0  0
  1  3  1  0  0  0  0
  1  4  1  0  0  0  0
  3  5  1  0  0  0  0
  5  6  1  0  0  0  0
  6  7  1  0  0  0  0
  7  8  1  0  0  0  0
  8  9  1  0  0  0  0
M  END
>  <CHROM.1>
100.63252411,-177.98561995,61.85052413,-175.04621785,178.80628597,-49.21798920
68.89353552,-20.37265363,-3.00184626,-0.67525875,2.53243875

>  <Name>
ligand

>  <RI>
0

>  <Rbt.Current_Directory>
/home/itssahil/PROJECTS/Mol_Feturizer/Test_systems_manuscript/rnas/4erj

>  <Rbt.Executable>
rbdock ($Id: //depot/dev/client3/rdock/2013.1/src/exe/rbdock.cxx#4 $)

>  <Rbt.Library>
libRbt.so (2013.1, Build901 2013/11/27)

>  <Rbt.Parameter_File>
/export/apps/rDock/src/rDock_2013.1_src/data/scripts/dock_solv.prm

>  <Rbt.Receptor>
prm/pocket_docking_8.prm

>  <SCORE>
-13.4024

>  <SCORE.INTER>
-10.352

>  <SCORE.INTER.CONST>
1

>  <SCORE.INTER.POLAR>
0

>  <SCORE.INTER.ROT>
5

>  <SCORE.INTER.SOLV>
6.38149

>  <SCORE.INTER.VDW>
-15.9618

>  <SCORE.INTER.norm>
-1.15022

>  <SCORE.INTRA>
-3.05042

>  <SCORE.INTRA.DIHEDRAL>
-5.82981

>  <SCORE.INTRA.DIHEDRAL.0>
7.73744

>  <SCORE.INTRA.POLAR>
0

>  <SCORE.INTRA.POLAR.0>
0

>  <SCORE.INTRA.REPUL>
0

>  <SCORE.INTRA.REPUL.0>
0

>  <SCORE.INTRA.SOLV>
-0.122767

>  <SCORE.INTRA.SOLV.lig_0>
-15.8342

>  <SCORE.INTRA.VDW>
-0.0741298

>  <SCORE.INTRA.VDW.0>
-0.219494

>  <SCORE.INTRA.norm>
-0.338936

>  <SCORE.RESTR>
0

>  <SCORE.RESTR.CAVITY>
0

>  <SCORE.RESTR.norm>
0

>  <SCORE.SYSTEM>
0

>  <SCORE.SYSTEM.CONST>
0

>  <SCORE.SYSTEM.DIHEDRAL>
0

>  <SCORE.SYSTEM.SOLV>
0

>  <SCORE.SYSTEM.norm>
0

>  <SCORE.heavy>
9

>  <SCORE.norm>
-1.48916

>  <RMSD>
5.742

$$$$
ligand
 OpenBabel02271912143D
libRbt.so/2013.1/901 2013/11/27
  9  8  0  0  0  0  0  0  0  0999 V2000
  -51.1937   70.1795  -19.5667 C   0  0  0  0  0  0  0  0  0  0  0  0
  -52.1446   69.8237  -18.7800 O   0  0  0  0  0  0  0  0  0  0  0  0
  -50.3055   69.1665  -20.1508 C   0  0  0  0  0  0  0  0  0  0  0  0
  -50.9681   71.4069  -19.8244 O   0  0  0  0  0  0  0  0  0  0  0  0
  -49.1319   68.7802  -19.3077 C   0  0  0  0  0  0  0  0  0  0  0  0
  -48.1874   67.7726  -19.8516 C   0  0  0  0  0  0  0  0  0  0  0  0
  -47.4686   68.2007  -21.1200 C   0  0  0  0  0  0  0  0  0  0  0  0
  -46.5951   67.1865  -21.8749 C   0  0  0  0  0  0  0  0  0  0  0  0
  -45.9754   67.6075  -23.0338 N   0  0  0  0  0  0  0  0  0  0  0  0
  1  2  1  0  0  0  0
  1  3  1  0  0  0  0
  1  4  1  0  0  0  0
  3  5  1  0  0  0  0
  5  6  1  0  0  0  0
  6  7  1  0  0  0  0
  7  8  1  0  0  0  0
  8  9  1  0  0  0  0
M  END
>  <CHROM.1>
-86.31109498,-179.23875946,62.86276961,-172.65346689,179.01186765,-49.15087264
68.93551591,-20.36902450,-3.10306728,-0.67350905,2.40472259

>  <Name>
ligand

>  <RI>
0

>  <Rbt.Current_Directory>
/home/itssahil/PROJECTS/Mol_Feturizer/Test_systems_manuscript/rnas/4erj

>  <Rbt.Executable>
rbdock ($Id: //depot/dev/client3/rdock/2013.1/src/exe/rbdock.cxx#4 $)

>  <Rbt.Library>
libRbt.so (2013.1, Build901 2013/11/27)

>  <Rbt.Parameter_File>
/export/apps/rDock/src/rDock_2013.1_src/data/scripts/dock_solv.prm

>  <Rbt.Receptor>
prm/pocket_docking_8.prm

>  <SCORE>
-13.5844

>  <SCORE.INTER>
-10.4696

>  <SCORE.INTER.CONST>
1

>  <SCORE.INTER.POLAR>
0

>  <SCORE.INTER.ROT>
5

>  <SCORE.INTER.SOLV>
6.29368

>  <SCORE.INTER.VDW>
-16.011

>  <SCORE.INTER.norm>
-1.16329

>  <SCORE.INTRA>
-3.11604

>  <SCORE.INTRA.DIHEDRAL>
-5.89319

>  <SCORE.INTRA.DIHEDRAL.0>
7.73744

>  <SCORE.INTRA.POLAR>
0

>  <SCORE.INTRA.POLAR.0>
0

>  <SCORE.INTRA.REPUL>
0

>  <SCORE.INTRA.REPUL.0>
0

>  <SCORE.INTRA.SOLV>
-0.122757

>  <SCORE.INTRA.SOLV.lig_0>
-15.8342

>  <SCORE.INTRA.VDW>
-0.108071

>  <SCORE.INTRA.VDW.0>
-0.219494

>  <SCORE.INTRA.norm>
-0.346227

>  <SCORE.RESTR>
0.00124345

>  <SCORE.RESTR.CAVITY>
0.00124345

>  <SCORE.RESTR.norm>
0.000138161

>  <SCORE.SYSTEM>
0

>  <SCORE.SYSTEM.CONST>
0

>  <SCORE.SYSTEM.DIHEDRAL>
0

>  <SCORE.SYSTEM.SOLV>
0

>  <SCORE.SYSTEM.norm>
0

>  <SCORE.heavy>
9

>  <SCORE.norm>
-1.50938

>  <RMSD>
5.743

$$$$
ligand
 OpenBabel02271912143D
libRbt.so/2013.1/901 2013/11/27
  9  8  0  0  0  0  0  0  0  0999 V2000
  -50.8488   69.6711  -18.9507 C   0  0  0  0  0  0  0  0  0  0  0  0
  -50.4057   70.6215  -19.6926 O   0  0  0  0  0  0  0  0  0  0  0  0
  -49.9140   68.7102  -18.3514 C   0  0  0  0  0  0  0  0  0  0  0  0
  -52.0970   69.5094  -18.7522 O   0  0  0  0  0  0  0  0  0  0  0  0
  -49.1529   67.8650  -19.3229 C   0  0  0  0  0  0  0  0  0  0  0  0
  -48.1830   68.5407  -20.2205 C   0  0  0  0  0  0  0  0  0  0  0  0
  -47.5226   67.6269  -21.2391 C   0  0  0  0  0  0  0  0  0  0  0  0
  -46.5120   68.2114  -22.2385 C   0  0  0  0  0  0  0  0  0  0  0  0
  -45.9677   67.3584  -23.1767 N   0  0  0  0  0  0  0  0  0  0  0  0
  1  2  1  0  0  0  0
  1  3  1  0  0  0  0
  1  4  1  0  0  0  0
  3  5  1  0  0  0  0
  5  6  1  0  0  0  0
  6  7  1  0  0  0  0
  7  8  1  0  0  0  0
  8  9  1  0  0  0  0
M  END
>  <CHROM.1>
-63.66902930,65.64178359,-176.03438503,179.19844201,-177.86981638,-48.99733313
68.70668842,-20.20493285,2.98542103,-0.69999522,2.40206145

>  <Name>
ligand

>  <RI>
0

>  <Rbt.Current_Directory>
/home/itssahil/PROJECTS/Mol_Feturizer/Test_systems_manuscript/rnas/4erj

>  <Rbt.Executable>
rbdock ($Id: //depot/dev/client3/rdock/2013.1/src/exe/rbdock.cxx#4 $)

>  <Rbt.Library>
libRbt.so (2013.1, Build901 2013/11/27)

>  <Rbt.Parameter_File>
/export/apps/rDock/src/rDock_2013.1_src/data/scripts/dock_solv.prm

>  <Rbt.Receptor>
prm/pocket_docking_5.prm

>  <SCORE>
-13.3051

>  <SCORE.INTER>
-9.95338

>  <SCORE.INTER.CONST>
1

>  <SCORE.INTER.POLAR>
0

>  <SCORE.INTER.ROT>
5

>  <SCORE.INTER.SOLV>
6.80908

>  <SCORE.INTER.VDW>
-15.8386

>  <SCORE.INTER.norm>
-1.10593

>  <SCORE.INTRA>
-3.35171

>  <SCORE.INTRA.DIHEDRAL>
-5.86444

>  <SCORE.INTRA.DIHEDRAL.0>
7.73744

>  <SCORE.INTRA.POLAR>
0

>  <SCORE.INTRA.POLAR.0>
0

>  <SCORE.INTRA.REPUL>
0

>  <SCORE.INTRA.REPUL.0>
0

>  <SCORE.INTRA.SOLV>
-0.122917

>  <SCORE.INTRA.SOLV.lig_0>
-15.8342

>  <SCORE.INTRA.VDW>
-0.358036

>  <SCORE.INTRA.VDW.0>
-0.219494

>  <SCORE.INTRA.norm>
-0.372413

>  <SCORE.RESTR>
0

>  <SCORE.RESTR.CAVITY>
0

>  <SCORE.RESTR.norm>
0

>  <SCORE.SYSTEM>
0

>  <SCORE.SYSTEM.CONST>
0

>  <SCORE.SYSTEM.DIHEDRAL>
0

>  <SCORE.SYSTEM.SOLV>
0

>  <SCORE.SYSTEM.norm>
0

>  <SCORE.heavy>
9

>  <SCORE.norm>
-1.47834

>  <RMSD>
5.754

$$$$
ligand
 OpenBabel02271912143D
libRbt.so/2013.1/901 2013/11/27
  9  8  0  0  0  0  0  0  0  0999 V2000
  -51.2239   70.2103  -19.5656 C   0  0  0  0  0  0  0  0  0  0  0  0
  -52.1736   69.8552  -18.7770 O   0  0  0  0  0  0  0  0  0  0  0  0
  -50.3481   69.1952  -20.1646 C   0  0  0  0  0  0  0  0  0  0  0  0
  -50.9888   71.4380  -19.8125 O   0  0  0  0  0  0  0  0  0  0  0  0
  -49.1888   68.7700  -19.3204 C   0  0  0  0  0  0  0  0  0  0  0  0
  -48.2600   67.7546  -19.8765 C   0  0  0  0  0  0  0  0  0  0  0  0
  -47.5272   68.1905  -21.1342 C   0  0  0  0  0  0  0  0  0  0  0  0
  -46.5955   67.2000  -21.8500 C   0  0  0  0  0  0  0  0  0  0  0  0
  -45.9793   67.6200  -23.0111 N   0  0  0  0  0  0  0  0  0  0  0  0
  1  2  1  0  0  0  0
  1  3  1  0  0  0  0
  1  4  1  0  0  0  0
  3  5  1  0  0  0  0
  5  6  1  0  0  0  0
  6  7  1  0  0  0  0
  7  8  1  0  0  0  0
  8  9  1  0  0  0  0
M  END
>  <CHROM.1>
-85.13079411,-179.47127291,62.64079206,-176.65377464,178.09316699,-49.18563806
68.94802247,-20.36905716,-3.07477790,-0.67211766,2.44373051

>  <Name>
ligand

>  <RI>
0

>  <Rbt.Current_Directory>
/home/itssahil/PROJECTS/Mol_Feturizer/Test_systems_manuscript/rnas/4erj

>  <Rbt.Executable>
rbdock ($Id: //depot/dev/client3/rdock/2013.1/src/exe/rbdock.cxx#4 $)

>  <Rbt.Library>
libRbt.so (2013.1, Build901 2013/11/27)

>  <Rbt.Parameter_File>
/export/apps/rDock/src/rDock_2013.1_src/data/scripts/dock_solv.prm

>  <Rbt.Receptor>
prm/pocket_docking_8.prm

>  <SCORE>
-13.5988

>  <SCORE.INTER>
-10.4079

>  <SCORE.INTER.CONST>
1

>  <SCORE.INTER.POLAR>
0

>  <SCORE.INTER.ROT>
5

>  <SCORE.INTER.SOLV>
6.26957

>  <SCORE.INTER.VDW>
-15.9618

>  <SCORE.INTER.norm>
-1.15643

>  <SCORE.INTRA>
-3.19427

>  <SCORE.INTRA.DIHEDRAL>
-6.06525

>  <SCORE.INTRA.DIHEDRAL.0>
7.73744

>  <SCORE.INTRA.POLAR>
0

>  <SCORE.INTRA.POLAR.0>
0

>  <SCORE.INTRA.REPUL>
0

>  <SCORE.INTRA.REPUL.0>
0

>  <SCORE.INTRA.SOLV>
-0.122759

>  <SCORE.INTRA.SOLV.lig_0>
-15.8342

>  <SCORE.INTRA.VDW>
-0.10027

>  <SCORE.INTRA.VDW.0>
-0.219494

>  <SCORE.INTRA.norm>
-0.354919

>  <SCORE.RESTR>
0.00341738

>  <SCORE.RESTR.CAVITY>
0.00341738

>  <SCORE.RESTR.norm>
0.000379709

>  <SCORE.SYSTEM>
0

>  <SCORE.SYSTEM.CONST>
0

>  <SCORE.SYSTEM.DIHEDRAL>
0

>  <SCORE.SYSTEM.SOLV>
0

>  <SCORE.SYSTEM.norm>
0

>  <SCORE.heavy>
9

>  <SCORE.norm>
-1.51097

>  <RMSD>
5.756

$$$$
ligand
 OpenBabel02271912143D
libRbt.so/2013.1/901 2013/11/27
  9  8  0  0  0  0  0  0  0  0999 V2000
  -50.9293   69.6915  -18.9689 C   0  0  0  0  0  0  0  0  0  0  0  0
  -50.4983   70.6393  -19.7211 O   0  0  0  0  0  0  0  0  0  0  0  0
  -49.9872   68.7198  -18.3990 C   0  0  0  0  0  0  0  0  0  0  0  0
  -52.1728   69.5417  -18.7348 O   0  0  0  0  0  0  0  0  0  0  0  0
  -48.6718   68.6134  -19.1031 C   0  0  0  0  0  0  0  0  0  0  0  0
  -48.6705   68.1149  -20.5012 C   0  0  0  0  0  0  0  0  0  0  0  0
  -47.3030   68.0949  -21.1631 C   0  0  0  0  0  0  0  0  0  0  0  0
  -47.1668   67.5815  -22.6053 C   0  0  0  0  0  0  0  0  0  0  0  0
  -45.9055   67.5608  -23.1647 N   0  0  0  0  0  0  0  0  0  0  0  0
  1  2  1  0  0  0  0
  1  3  1  0  0  0  0
  1  4  1  0  0  0  0
  3  5  1  0  0  0  0
  5  6  1  0  0  0  0
  6  7  1  0  0  0  0
  7  8  1  0  0  0  0
  8  9  1  0  0  0  0
M  END
>  <CHROM.1>
-20.53073427,-64.53127103,177.45035310,179.17848028,-179.08007036,-49.07543769
68.75560394,-20.25040240,2.70089737,-0.61946808,1.95133109

>  <Name>
ligand

>  <RI>
0

>  <Rbt.Current_Directory>
/home/itssahil/PROJECTS/Mol_Feturizer/Test_systems_manuscript/rnas/4erj

>  <Rbt.Executable>
rbdock ($Id: //depot/dev/client3/rdock/2013.1/src/exe/rbdock.cxx#4 $)

>  <Rbt.Library>
libRbt.so (2013.1, Build901 2013/11/27)

>  <Rbt.Parameter_File>
/export/apps/rDock/src/rDock_2013.1_src/data/scripts/dock_solv.prm

>  <Rbt.Receptor>
prm/pocket_docking_8.prm

>  <SCORE>
-13.2626

>  <SCORE.INTER>
-10.3761

>  <SCORE.INTER.CONST>
1

>  <SCORE.INTER.POLAR>
0

>  <SCORE.INTER.ROT>
5

>  <SCORE.INTER.SOLV>
6.42491

>  <SCORE.INTER.VDW>
-15.9923

>  <SCORE.INTER.norm>
-1.1529

>  <SCORE.INTRA>
-2.88653

>  <SCORE.INTRA.DIHEDRAL>
-5.84718

>  <SCORE.INTRA.DIHEDRAL.0>
7.73744

>  <SCORE.INTRA.POLAR>
0

>  <SCORE.INTRA.POLAR.0>
0

>  <SCORE.INTRA.REPUL>
0

>  <SCORE.INTRA.REPUL.0>
0

>  <SCORE.INTRA.SOLV>
-0.123163

>  <SCORE.INTRA.SOLV.lig_0>
-15.8342

>  <SCORE.INTRA.VDW>
0.0986391

>  <SCORE.INTRA.VDW.0>
-0.219494

>  <SCORE.INTRA.norm>
-0.320726

>  <SCORE.RESTR>
0

>  <SCORE.RESTR.CAVITY>
0

>  <SCORE.RESTR.norm>
0

>  <SCORE.SYSTEM>
0

>  <SCORE.SYSTEM.CONST>
0

>  <SCORE.SYSTEM.DIHEDRAL>
0

>  <SCORE.SYSTEM.SOLV>
0

>  <SCORE.SYSTEM.norm>
0

>  <SCORE.heavy>
9

>  <SCORE.norm>
-1.47362

>  <RMSD>
5.767

$$$$
ligand
 OpenBabel02271912143D
libRbt.so/2013.1/901 2013/11/27
  9  8  0  0  0  0  0  0  0  0999 V2000
  -50.8964   69.6533  -18.9627 C   0  0  0  0  0  0  0  0  0  0  0  0
  -52.1509   69.5433  -18.7098 O   0  0  0  0  0  0  0  0  0  0  0  0
  -49.9386   68.7264  -18.3465 C   0  0  0  0  0  0  0  0  0  0  0  0
  -50.4478   70.5837  -19.7089 O   0  0  0  0  0  0  0  0  0  0  0  0
  -49.1565   67.8831  -19.3028 C   0  0  0  0  0  0  0  0  0  0  0  0
  -48.1866   68.5640  -20.1965 C   0  0  0  0  0  0  0  0  0  0  0  0
  -47.5006   67.6495  -21.1974 C   0  0  0  0  0  0  0  0  0  0  0  0
  -46.5024   68.2419  -22.2047 C   0  0  0  0  0  0  0  0  0  0  0  0
  -45.9069   67.3804  -23.1032 N   0  0  0  0  0  0  0  0  0  0  0  0
  1  2  1  0  0  0  0
  1  3  1  0  0  0  0
  1  4  1  0  0  0  0
  3  5  1  0  0  0  0
  5  6  1  0  0  0  0
  6  7  1  0  0  0  0
  7  8  1  0  0  0  0
  8  9  1  0  0  0  0
M  END
>  <CHROM.1>
118.54546850,66.64019070,-176.21575917,178.33528637,-179.57750070,-49.00715964
68.71905106,-20.18112201,2.97357500,-0.68195470,2.37877409

>  <Name>
ligand

>  <RI>
0

>  <Rbt.Current_Directory>
/home/itssahil/PROJECTS/Mol_Feturizer/Test_systems_manuscript/rnas/4erj

>  <Rbt.Executable>
rbdock ($Id: //depot/dev/client3/rdock/2013.1/src/exe/rbdock.cxx#4 $)

>  <Rbt.Library>
libRbt.so (2013.1, Build901 2013/11/27)

>  <Rbt.Parameter_File>
/export/apps/rDock/src/rDock_2013.1_src/data/scripts/dock_solv.prm

>  <Rbt.Receptor>
prm/pocket_docking_5.prm

>  <SCORE>
-13.2508

>  <SCORE.INTER>
-9.97302

>  <SCORE.INTER.CONST>
1

>  <SCORE.INTER.POLAR>
0

>  <SCORE.INTER.ROT>
5

>  <SCORE.INTER.SOLV>
6.76159

>  <SCORE.INTER.VDW>
-15.8359

>  <SCORE.INTER.norm>
-1.10811

>  <SCORE.INTRA>
-3.27779

>  <SCORE.INTRA.DIHEDRAL>
-5.78852

>  <SCORE.INTRA.DIHEDRAL.0>
7.73744

>  <SCORE.INTRA.POLAR>
0

>  <SCORE.INTRA.POLAR.0>
0

>  <SCORE.INTRA.REPUL>
0

>  <SCORE.INTRA.REPUL.0>
0

>  <SCORE.INTRA.SOLV>
-0.123045

>  <SCORE.INTRA.SOLV.lig_0>
-15.8342

>  <SCORE.INTRA.VDW>
-0.322012

>  <SCORE.INTRA.VDW.0>
-0.219494

>  <SCORE.INTRA.norm>
-0.364199

>  <SCORE.RESTR>
0

>  <SCORE.RESTR.CAVITY>
0

>  <SCORE.RESTR.norm>
0

>  <SCORE.SYSTEM>
0

>  <SCORE.SYSTEM.CONST>
0

>  <SCORE.SYSTEM.DIHEDRAL>
0

>  <SCORE.SYSTEM.SOLV>
0

>  <SCORE.SYSTEM.norm>
0

>  <SCORE.heavy>
9

>  <SCORE.norm>
-1.47231

>  <RMSD>
5.768

$$$$
ligand
 OpenBabel02271912143D
libRbt.so/2013.1/901 2013/11/27
  9  8  0  0  0  0  0  0  0  0999 V2000
  -50.9052   69.6728  -18.9615 C   0  0  0  0  0  0  0  0  0  0  0  0
  -52.1655   69.5829  -18.7307 O   0  0  0  0  0  0  0  0  0  0  0  0
  -49.9791   68.6963  -18.3738 C   0  0  0  0  0  0  0  0  0  0  0  0
  -50.4233   70.6236  -19.6597 O   0  0  0  0  0  0  0  0  0  0  0  0
  -49.2187   67.8626  -19.3556 C   0  0  0  0  0  0  0  0  0  0  0  0
  -48.2121   68.5406  -20.2101 C   0  0  0  0  0  0  0  0  0  0  0  0
  -47.5338   67.6364  -21.2254 C   0  0  0  0  0  0  0  0  0  0  0  0
  -46.4680   68.2196  -22.1667 C   0  0  0  0  0  0  0  0  0  0  0  0
  -45.9081   67.3774  -23.1054 N   0  0  0  0  0  0  0  0  0  0  0  0
  1  2  1  0  0  0  0
  1  3  1  0  0  0  0
  1  4  1  0  0  0  0
  3  5  1  0  0  0  0
  5  6  1  0  0  0  0
  6  7  1  0  0  0  0
  7  8  1  0  0  0  0
  8  9  1  0  0  0  0
M  END
>  <CHROM.1>
117.67716380,67.37854163,-177.15263005,-179.80036777,-177.81994531,-49.02078056
68.71847730,-20.18688198,3.03163919,-0.69160401,2.46027721

>  <Name>
ligand

>  <RI>
0

>  <Rbt.Current_Directory>
/home/itssahil/PROJECTS/Mol_Feturizer/Test_systems_manuscript/rnas/4erj

>  <Rbt.Executable>
rbdock ($Id: //depot/dev/client3/rdock/2013.1/src/exe/rbdock.cxx#4 $)

>  <Rbt.Library>
libRbt.so (2013.1, Build901 2013/11/27)

>  <Rbt.Parameter_File>
/export/apps/rDock/src/rDock_2013.1_src/data/scripts/dock_solv.prm

>  <Rbt.Receptor>
prm/pocket_docking_5.prm

>  <SCORE>
-13.2512

>  <SCORE.INTER>
-9.96378

>  <SCORE.INTER.CONST>
1

>  <SCORE.INTER.POLAR>
0

>  <SCORE.INTER.ROT>
5

>  <SCORE.INTER.SOLV>
6.7777

>  <SCORE.INTER.VDW>
-15.8351

>  <SCORE.INTER.norm>
-1.10709

>  <SCORE.INTRA>
-3.28738

>  <SCORE.INTRA.DIHEDRAL>
-5.76164

>  <SCORE.INTRA.DIHEDRAL.0>
7.73744

>  <SCORE.INTRA.POLAR>
0

>  <SCORE.INTRA.POLAR.0>
0

>  <SCORE.INTRA.REPUL>
0

>  <SCORE.INTRA.REPUL.0>
0

>  <SCORE.INTRA.SOLV>
-0.12274

>  <SCORE.INTRA.SOLV.lig_0>
-15.8342

>  <SCORE.INTRA.VDW>
-0.345192

>  <SCORE.INTRA.VDW.0>
-0.219494

>  <SCORE.INTRA.norm>
-0.365265

>  <SCORE.RESTR>
0

>  <SCORE.RESTR.CAVITY>
0

>  <SCORE.RESTR.norm>
0

>  <SCORE.SYSTEM>
0

>  <SCORE.SYSTEM.CONST>
0

>  <SCORE.SYSTEM.DIHEDRAL>
0

>  <SCORE.SYSTEM.SOLV>
0

>  <SCORE.SYSTEM.norm>
0

>  <SCORE.heavy>
9

>  <SCORE.norm>
-1.47235

>  <RMSD>
5.772

$$$$
ligand
 OpenBabel02271912143D
libRbt.so/2013.1/901 2013/11/27
  9  8  0  0  0  0  0  0  0  0999 V2000
  -51.3776   70.0066  -18.9839 C   0  0  0  0  0  0  0  0  0  0  0  0
  -51.1247   71.0861  -19.6323 O   0  0  0  0  0  0  0  0  0  0  0  0
  -50.2980   69.0550  -18.6917 C   0  0  0  0  0  0  0  0  0  0  0  0
  -52.5625   69.7120  -18.6195 O   0  0  0  0  0  0  0  0  0  0  0  0
  -49.8391   68.2302  -19.8521 C   0  0  0  0  0  0  0  0  0  0  0  0
  -48.6868   67.3182  -19.6436 C   0  0  0  0  0  0  0  0  0  0  0  0
  -48.2717   66.5330  -20.8764 C   0  0  0  0  0  0  0  0  0  0  0  0
  -47.7789   67.2848  -22.1230 C   0  0  0  0  0  0  0  0  0  0  0  0
  -46.6593   68.0810  -21.9938 N   0  0  0  0  0  0  0  0  0  0  0  0
  1  2  1  0  0  0  0
  1  3  1  0  0  0  0
  1  4  1  0  0  0  0
  3  5  1  0  0  0  0
  5  6  1  0  0  0  0
  6  7  1  0  0  0  0
  7  8  1  0  0  0  0
  8  9  1  0  0  0  0
M  END
>  <CHROM.1>
-74.95758846,175.80349454,-179.12352387,62.08384050,60.20251557,-49.66330718
68.62314473,-20.03432812,-2.84070696,-0.69254058,2.76731587

>  <Name>
ligand

>  <RI>
0

>  <Rbt.Current_Directory>
/home/itssahil/PROJECTS/Mol_Feturizer/Test_systems_manuscript/rnas/4erj

>  <Rbt.Executable>
rbdock ($Id: //depot/dev/client3/rdock/2013.1/src/exe/rbdock.cxx#4 $)

>  <Rbt.Library>
libRbt.so (2013.1, Build901 2013/11/27)

>  <Rbt.Parameter_File>
/export/apps/rDock/src/rDock_2013.1_src/data/scripts/dock_solv.prm

>  <Rbt.Receptor>
prm/pocket_docking_5.prm

>  <SCORE>
-13.8946

>  <SCORE.INTER>
-11.1694

>  <SCORE.INTER.CONST>
1

>  <SCORE.INTER.POLAR>
0

>  <SCORE.INTER.ROT>
5

>  <SCORE.INTER.SOLV>
7.26136

>  <SCORE.INTER.VDW>
-16.8001

>  <SCORE.INTER.norm>
-1.24105

>  <SCORE.INTRA>
-2.72522

>  <SCORE.INTRA.DIHEDRAL>
-6.03748

>  <SCORE.INTRA.DIHEDRAL.0>
7.73744

>  <SCORE.INTRA.POLAR>
0

>  <SCORE.INTRA.POLAR.0>
0

>  <SCORE.INTRA.REPUL>
0

>  <SCORE.INTRA.REPUL.0>
0

>  <SCORE.INTRA.SOLV>
1.07772

>  <SCORE.INTRA.SOLV.lig_0>
-15.8342

>  <SCORE.INTRA.VDW>
-0.245337

>  <SCORE.INTRA.VDW.0>
-0.219494

>  <SCORE.INTRA.norm>
-0.302802

>  <SCORE.RESTR>
0

>  <SCORE.RESTR.CAVITY>
0

>  <SCORE.RESTR.norm>
0

>  <SCORE.SYSTEM>
0

>  <SCORE.SYSTEM.CONST>
0

>  <SCORE.SYSTEM.DIHEDRAL>
0

>  <SCORE.SYSTEM.SOLV>
0

>  <SCORE.SYSTEM.norm>
0

>  <SCORE.heavy>
9

>  <SCORE.norm>
-1.54385

>  <RMSD>
5.788

$$$$
ligand
 OpenBabel02271912143D
libRbt.so/2013.1/901 2013/11/27
  9  8  0  0  0  0  0  0  0  0999 V2000
  -51.3859   70.0329  -18.9910 C   0  0  0  0  0  0  0  0  0  0  0  0
  -51.1534   71.1028  -19.6626 O   0  0  0  0  0  0  0  0  0  0  0  0
  -50.2893   69.1061  -18.6829 C   0  0  0  0  0  0  0  0  0  0  0  0
  -52.5645   69.7258  -18.6166 O   0  0  0  0  0  0  0  0  0  0  0  0
  -49.8433   68.2406  -19.8184 C   0  0  0  0  0  0  0  0  0  0  0  0
  -48.7048   67.3178  -19.5829 C   0  0  0  0  0  0  0  0  0  0  0  0
  -48.2896   66.5044  -20.7973 C   0  0  0  0  0  0  0  0  0  0  0  0
  -47.8281   67.2281  -22.0721 C   0  0  0  0  0  0  0  0  0  0  0  0
  -46.6963   68.0135  -21.9925 N   0  0  0  0  0  0  0  0  0  0  0  0
  1  2  1  0  0  0  0
  1  3  1  0  0  0  0
  1  4  1  0  0  0  0
  3  5  1  0  0  0  0
  5  6  1  0  0  0  0
  6  7  1  0  0  0  0
  7  8  1  0  0  0  0
  8  9  1  0  0  0  0
M  END
>  <CHROM.1>
-76.45167745,177.80584200,-178.31627777,59.72521925,62.39899672,-49.68079236
68.61939225,-20.01273905,-2.84658482,-0.70105192,2.73121952

>  <Name>
ligand

>  <RI>
0

>  <Rbt.Current_Directory>
/home/itssahil/PROJECTS/Mol_Feturizer/Test_systems_manuscript/rnas/4erj

>  <Rbt.Executable>
rbdock ($Id: //depot/dev/client3/rdock/2013.1/src/exe/rbdock.cxx#4 $)

>  <Rbt.Library>
libRbt.so (2013.1, Build901 2013/11/27)

>  <Rbt.Parameter_File>
/export/apps/rDock/src/rDock_2013.1_src/data/scripts/dock_solv.prm

>  <Rbt.Receptor>
prm/pocket_docking_4.prm

>  <SCORE>
-13.8984

>  <SCORE.INTER>
-11.1755

>  <SCORE.INTER.CONST>
1

>  <SCORE.INTER.POLAR>
0

>  <SCORE.INTER.ROT>
5

>  <SCORE.INTER.SOLV>
7.19961

>  <SCORE.INTER.VDW>
-16.7835

>  <SCORE.INTER.norm>
-1.24172

>  <SCORE.INTRA>
-2.72296

>  <SCORE.INTRA.DIHEDRAL>
-6.08351

>  <SCORE.INTRA.DIHEDRAL.0>
7.73744

>  <SCORE.INTRA.POLAR>
0

>  <SCORE.INTRA.POLAR.0>
0

>  <SCORE.INTRA.REPUL>
0

>  <SCORE.INTRA.REPUL.0>
0

>  <SCORE.INTRA.SOLV>
1.06806

>  <SCORE.INTRA.SOLV.lig_0>
-15.8342

>  <SCORE.INTRA.VDW>
-0.215233

>  <SCORE.INTRA.VDW.0>
-0.219494

>  <SCORE.INTRA.norm>
-0.302551

>  <SCORE.RESTR>
0

>  <SCORE.RESTR.CAVITY>
0

>  <SCORE.RESTR.norm>
0

>  <SCORE.SYSTEM>
0

>  <SCORE.SYSTEM.CONST>
0

>  <SCORE.SYSTEM.DIHEDRAL>
0

>  <SCORE.SYSTEM.SOLV>
0

>  <SCORE.SYSTEM.norm>
0

>  <SCORE.heavy>
9

>  <SCORE.norm>
-1.54427

>  <RMSD>
5.790

$$$$
ligand
 OpenBabel02271912143D
libRbt.so/2013.1/901 2013/11/27
  9  8  0  0  0  0  0  0  0  0999 V2000
  -49.5460   67.6122  -18.5405 C   0  0  0  0  0  0  0  0  0  0  0  0
  -50.1715   68.7341  -18.5446 O   0  0  0  0  0  0  0  0  0  0  0  0
  -49.1942   66.9626  -19.8096 C   0  0  0  0  0  0  0  0  0  0  0  0
  -49.2562   67.0166  -17.4520 O   0  0  0  0  0  0  0  0  0  0  0  0
  -48.0171   67.5467  -20.5241 C   0  0  0  0  0  0  0  0  0  0  0  0
  -47.6898   67.0176  -21.8716 C   0  0  0  0  0  0  0  0  0  0  0  0
  -46.5213   67.7083  -22.5546 C   0  0  0  0  0  0  0  0  0  0  0  0
  -46.1465   67.3186  -23.9931 C   0  0  0  0  0  0  0  0  0  0  0  0
  -45.1042   67.9957  -24.5926 N   0  0  0  0  0  0  0  0  0  0  0  0
  1  2  1  0  0  0  0
  1  3  1  0  0  0  0
  1  4  1  0  0  0  0
  3  5  1  0  0  0  0
  5  6  1  0  0  0  0
  6  7  1  0  0  0  0
  7  8  1  0  0  0  0
  8  9  1  0  0  0  0
M  END
>  <CHROM.1>
77.16326866,-174.37269899,177.28220988,-175.73619863,178.15589486,-47.99024579
67.55484929,-20.82339604,2.63406984,-0.87863678,2.51179492

>  <Name>
ligand

>  <RI>
0

>  <Rbt.Current_Directory>
/home/itssahil/PROJECTS/Mol_Feturizer/Test_systems_manuscript/rnas/4erj

>  <Rbt.Executable>
rbdock ($Id: //depot/dev/client3/rdock/2013.1/src/exe/rbdock.cxx#4 $)

>  <Rbt.Library>
libRbt.so (2013.1, Build901 2013/11/27)

>  <Rbt.Parameter_File>
/export/apps/rDock/src/rDock_2013.1_src/data/scripts/dock_solv.prm

>  <Rbt.Receptor>
prm/pocket_docking_3.prm

>  <SCORE>
-13.0079

>  <SCORE.INTER>
-9.60017

>  <SCORE.INTER.CONST>
1

>  <SCORE.INTER.POLAR>
0

>  <SCORE.INTER.ROT>
5

>  <SCORE.INTER.SOLV>
8.6446

>  <SCORE.INTER.VDW>
-16.215

>  <SCORE.INTER.norm>
-1.06669

>  <SCORE.INTRA>
-3.40772

>  <SCORE.INTRA.DIHEDRAL>
-5.73095

>  <SCORE.INTRA.DIHEDRAL.0>
7.73744

>  <SCORE.INTRA.POLAR>
0

>  <SCORE.INTRA.POLAR.0>
0

>  <SCORE.INTRA.REPUL>
0

>  <SCORE.INTRA.REPUL.0>
0

>  <SCORE.INTRA.SOLV>
-0.116497

>  <SCORE.INTRA.SOLV.lig_0>
-15.8342

>  <SCORE.INTRA.VDW>
-0.483997

>  <SCORE.INTRA.VDW.0>
-0.219494

>  <SCORE.INTRA.norm>
-0.378636

>  <SCORE.RESTR>
0

>  <SCORE.RESTR.CAVITY>
0

>  <SCORE.RESTR.norm>
0

>  <SCORE.SYSTEM>
0

>  <SCORE.SYSTEM.CONST>
0

>  <SCORE.SYSTEM.DIHEDRAL>
0

>  <SCORE.SYSTEM.SOLV>
0

>  <SCORE.SYSTEM.norm>
0

>  <SCORE.heavy>
9

>  <SCORE.norm>
-1.44532

>  <RMSD>
5.797

$$$$
ligand
 OpenBabel02271912143D
libRbt.so/2013.1/901 2013/11/27
  9  8  0  0  0  0  0  0  0  0999 V2000
  -49.5754   68.1268  -18.3196 C   0  0  0  0  0  0  0  0  0  0  0  0
  -49.3896   67.2081  -17.4412 O   0  0  0  0  0  0  0  0  0  0  0  0
  -48.4894   68.4973  -19.2360 C   0  0  0  0  0  0  0  0  0  0  0  0
  -50.6756   68.7654  -18.3913 O   0  0  0  0  0  0  0  0  0  0  0  0
  -48.2884   67.5763  -20.3974 C   0  0  0  0  0  0  0  0  0  0  0  0
  -47.3159   67.9795  -21.4436 C   0  0  0  0  0  0  0  0  0  0  0  0
  -47.2504   67.0441  -22.6391 C   0  0  0  0  0  0  0  0  0  0  0  0
  -46.4935   67.4817  -23.9030 C   0  0  0  0  0  0  0  0  0  0  0  0
  -45.1315   67.6793  -23.8016 N   0  0  0  0  0  0  0  0  0  0  0  0
  1  2  1  0  0  0  0
  1  3  1  0  0  0  0
  1  4  1  0  0  0  0
  3  5  1  0  0  0  0
  5  6  1  0  0  0  0
  6  7  1  0  0  0  0
  7  8  1  0  0  0  0
  8  9  1  0  0  0  0
M  END
>  <CHROM.1>
79.44746022,172.95447438,-175.46974579,168.30078901,64.32747608,-48.10500733
67.81796438,-20.57163842,2.30360010,-0.57588456,1.91946369

>  <Name>
ligand

>  <RI>
0

>  <Rbt.Current_Directory>
/home/itssahil/PROJECTS/Mol_Feturizer/Test_systems_manuscript/rnas/4erj

>  <Rbt.Executable>
rbdock ($Id: //depot/dev/client3/rdock/2013.1/src/exe/rbdock.cxx#4 $)

>  <Rbt.Library>
libRbt.so (2013.1, Build901 2013/11/27)

>  <Rbt.Parameter_File>
/export/apps/rDock/src/rDock_2013.1_src/data/scripts/dock_solv.prm

>  <Rbt.Receptor>
prm/blind_docking_100.prm

>  <SCORE>
-12.3473

>  <SCORE.INTER>
-9.54287

>  <SCORE.INTER.CONST>
1

>  <SCORE.INTER.POLAR>
0

>  <SCORE.INTER.ROT>
5

>  <SCORE.INTER.SOLV>
8.06812

>  <SCORE.INTER.VDW>
-15.9846

>  <SCORE.INTER.norm>
-1.06032

>  <SCORE.INTRA>
-2.80444

>  <SCORE.INTRA.DIHEDRAL>
-5.05657

>  <SCORE.INTRA.DIHEDRAL.0>
7.73744

>  <SCORE.INTRA.POLAR>
0

>  <SCORE.INTRA.POLAR.0>
0

>  <SCORE.INTRA.REPUL>
0

>  <SCORE.INTRA.REPUL.0>
0

>  <SCORE.INTRA.SOLV>
0.454253

>  <SCORE.INTRA.SOLV.lig_0>
-15.8342

>  <SCORE.INTRA.VDW>
-0.50328

>  <SCORE.INTRA.VDW.0>
-0.219494

>  <SCORE.INTRA.norm>
-0.311604

>  <SCORE.RESTR>
0

>  <SCORE.RESTR.CAVITY>
0

>  <SCORE.RESTR.norm>
0

>  <SCORE.SYSTEM>
0

>  <SCORE.SYSTEM.CONST>
0

>  <SCORE.SYSTEM.DIHEDRAL>
0

>  <SCORE.SYSTEM.SOLV>
0

>  <SCORE.SYSTEM.norm>
0

>  <SCORE.heavy>
9

>  <SCORE.norm>
-1.37192

>  <RMSD>
5.799

$$$$
ligand
 OpenBabel02271912143D
libRbt.so/2013.1/901 2013/11/27
  9  8  0  0  0  0  0  0  0  0999 V2000
  -51.4005   70.0111  -18.9748 C   0  0  0  0  0  0  0  0  0  0  0  0
  -51.1483   71.0874  -19.6289 O   0  0  0  0  0  0  0  0  0  0  0  0
  -50.3186   69.0663  -18.6697 C   0  0  0  0  0  0  0  0  0  0  0  0
  -52.5864   69.7137  -18.6159 O   0  0  0  0  0  0  0  0  0  0  0  0
  -49.8737   68.2102  -19.8127 C   0  0  0  0  0  0  0  0  0  0  0  0
  -48.7209   67.3016  -19.5925 C   0  0  0  0  0  0  0  0  0  0  0  0
  -48.3099   66.4957  -20.8133 C   0  0  0  0  0  0  0  0  0  0  0  0
  -47.8281   67.2265  -22.0766 C   0  0  0  0  0  0  0  0  0  0  0  0
  -46.6926   68.0042  -21.9767 N   0  0  0  0  0  0  0  0  0  0  0  0
  1  2  1  0  0  0  0
  1  3  1  0  0  0  0
  1  4  1  0  0  0  0
  3  5  1  0  0  0  0
  5  6  1  0  0  0  0
  6  7  1  0  0  0  0
  7  8  1  0  0  0  0
  8  9  1  0  0  0  0
M  END
>  <CHROM.1>
-76.52350291,175.86369019,-178.41264923,61.75787985,61.73955422,-49.69437110
68.60233393,-20.00643795,-2.83627364,-0.69619553,2.75401019

>  <Name>
ligand

>  <RI>
0

>  <Rbt.Current_Directory>
/home/itssahil/PROJECTS/Mol_Feturizer/Test_systems_manuscript/rnas/4erj

>  <Rbt.Executable>
rbdock ($Id: //depot/dev/client3/rdock/2013.1/src/exe/rbdock.cxx#4 $)

>  <Rbt.Library>
libRbt.so (2013.1, Build901 2013/11/27)

>  <Rbt.Parameter_File>
/export/apps/rDock/src/rDock_2013.1_src/data/scripts/dock_solv.prm

>  <Rbt.Receptor>
prm/pocket_docking_6.prm

>  <SCORE>
-13.8971

>  <SCORE.INTER>
-11.1622

>  <SCORE.INTER.CONST>
1

>  <SCORE.INTER.POLAR>
0

>  <SCORE.INTER.ROT>
5

>  <SCORE.INTER.SOLV>
7.27121

>  <SCORE.INTER.VDW>
-16.7986

>  <SCORE.INTER.norm>
-1.24025

>  <SCORE.INTRA>
-2.7349

>  <SCORE.INTRA.DIHEDRAL>
-6.03142

>  <SCORE.INTRA.DIHEDRAL.0>
7.73744

>  <SCORE.INTRA.POLAR>
0

>  <SCORE.INTRA.POLAR.0>
0

>  <SCORE.INTRA.REPUL>
0

>  <SCORE.INTRA.REPUL.0>
0

>  <SCORE.INTRA.SOLV>
1.05621

>  <SCORE.INTRA.SOLV.lig_0>
-15.8342

>  <SCORE.INTRA.VDW>
-0.247298

>  <SCORE.INTRA.VDW.0>
-0.219494

>  <SCORE.INTRA.norm>
-0.303878

>  <SCORE.RESTR>
0

>  <SCORE.RESTR.CAVITY>
0

>  <SCORE.RESTR.norm>
0

>  <SCORE.SYSTEM>
0

>  <SCORE.SYSTEM.CONST>
0

>  <SCORE.SYSTEM.DIHEDRAL>
0

>  <SCORE.SYSTEM.SOLV>
0

>  <SCORE.SYSTEM.norm>
0

>  <SCORE.heavy>
9

>  <SCORE.norm>
-1.54413

>  <RMSD>
5.799

$$$$
ligand
 OpenBabel02271912143D
libRbt.so/2013.1/901 2013/11/27
  9  8  0  0  0  0  0  0  0  0999 V2000
  -49.6038   68.4263  -18.2976 C   0  0  0  0  0  0  0  0  0  0  0  0
  -50.7164   69.0623  -18.3843 O   0  0  0  0  0  0  0  0  0  0  0  0
  -48.5207   68.7074  -19.2485 C   0  0  0  0  0  0  0  0  0  0  0  0
  -49.4254   67.5146  -17.4254 O   0  0  0  0  0  0  0  0  0  0  0  0
  -48.3430   67.6951  -20.3353 C   0  0  0  0  0  0  0  0  0  0  0  0
  -47.4045   68.0182  -21.4389 C   0  0  0  0  0  0  0  0  0  0  0  0
  -47.2999   66.9481  -22.5125 C   0  0  0  0  0  0  0  0  0  0  0  0
  -46.5293   67.2474  -23.8080 C   0  0  0  0  0  0  0  0  0  0  0  0
  -45.1976   67.5923  -23.6997 N   0  0  0  0  0  0  0  0  0  0  0  0
  1  2  1  0  0  0  0
  1  3  1  0  0  0  0
  1  4  1  0  0  0  0
  3  5  1  0  0  0  0
  5  6  1  0  0  0  0
  6  7  1  0  0  0  0
  7  8  1  0  0  0  0
  8  9  1  0  0  0  0
M  END
>  <CHROM.1>
-102.89033265,171.15206660,-179.01862344,170.88007673,59.12134178,-48.15286083
67.91595876,-20.52540784,2.36045562,-0.65954141,1.93454707

>  <Name>
ligand

>  <RI>
0

>  <Rbt.Current_Directory>
/home/itssahil/PROJECTS/Mol_Feturizer/Test_systems_manuscript/rnas/4erj

>  <Rbt.Executable>
rbdock ($Id: //depot/dev/client3/rdock/2013.1/src/exe/rbdock.cxx#4 $)

>  <Rbt.Library>
libRbt.so (2013.1, Build901 2013/11/27)

>  <Rbt.Parameter_File>
/export/apps/rDock/src/rDock_2013.1_src/data/scripts/dock_solv.prm

>  <Rbt.Receptor>
prm/pocket_docking_5.prm

>  <SCORE>
-12.4682

>  <SCORE.INTER>
-9.53173

>  <SCORE.INTER.CONST>
1

>  <SCORE.INTER.POLAR>
0

>  <SCORE.INTER.ROT>
5

>  <SCORE.INTER.SOLV>
7.8313

>  <SCORE.INTER.VDW>
-15.8983

>  <SCORE.INTER.norm>
-1.05908

>  <SCORE.INTRA>
-2.93643

>  <SCORE.INTRA.DIHEDRAL>
-5.46034

>  <SCORE.INTRA.DIHEDRAL.0>
7.73744

>  <SCORE.INTRA.POLAR>
0

>  <SCORE.INTRA.POLAR.0>
0

>  <SCORE.INTRA.REPUL>
0

>  <SCORE.INTRA.REPUL.0>
0

>  <SCORE.INTRA.SOLV>
0.514239

>  <SCORE.INTRA.SOLV.lig_0>
-15.8342

>  <SCORE.INTRA.VDW>
-0.463384

>  <SCORE.INTRA.VDW.0>
-0.219494

>  <SCORE.INTRA.norm>
-0.32627

>  <SCORE.RESTR>
0

>  <SCORE.RESTR.CAVITY>
0

>  <SCORE.RESTR.norm>
0

>  <SCORE.SYSTEM>
0

>  <SCORE.SYSTEM.CONST>
0

>  <SCORE.SYSTEM.DIHEDRAL>
0

>  <SCORE.SYSTEM.SOLV>
0

>  <SCORE.SYSTEM.norm>
0

>  <SCORE.heavy>
9

>  <SCORE.norm>
-1.38535

>  <RMSD>
5.801

$$$$
ligand
 OpenBabel02271912143D
libRbt.so/2013.1/901 2013/11/27
  9  8  0  0  0  0  0  0  0  0999 V2000
  -51.4457   69.9594  -18.9734 C   0  0  0  0  0  0  0  0  0  0  0  0
  -52.6471   69.6879  -18.6089 O   0  0  0  0  0  0  0  0  0  0  0  0
  -50.3554   69.0255  -18.6645 C   0  0  0  0  0  0  0  0  0  0  0  0
  -51.1612   71.0514  -19.5653 O   0  0  0  0  0  0  0  0  0  0  0  0
  -49.8649   68.2087  -19.8176 C   0  0  0  0  0  0  0  0  0  0  0  0
  -48.7138   67.3009  -19.5860 C   0  0  0  0  0  0  0  0  0  0  0  0
  -48.2879   66.4978  -20.8035 C   0  0  0  0  0  0  0  0  0  0  0  0
  -47.7925   67.2315  -22.0598 C   0  0  0  0  0  0  0  0  0  0  0  0
  -46.6800   68.0387  -21.9370 N   0  0  0  0  0  0  0  0  0  0  0  0
  1  2  1  0  0  0  0
  1  3  1  0  0  0  0
  1  4  1  0  0  0  0
  3  5  1  0  0  0  0
  5  6  1  0  0  0  0
  6  7  1  0  0  0  0
  7  8  1  0  0  0  0
  8  9  1  0  0  0  0
M  END
>  <CHROM.1>
104.48834193,176.67344326,179.40020379,61.75567795,60.03143547,-49.70241255
68.58961055,-19.98949034,-2.83318347,-0.68048161,2.77536481

>  <Name>
ligand

>  <RI>
0

>  <Rbt.Current_Directory>
/home/itssahil/PROJECTS/Mol_Feturizer/Test_systems_manuscript/rnas/4erj

>  <Rbt.Executable>
rbdock ($Id: //depot/dev/client3/rdock/2013.1/src/exe/rbdock.cxx#4 $)

>  <Rbt.Library>
libRbt.so (2013.1, Build901 2013/11/27)

>  <Rbt.Parameter_File>
/export/apps/rDock/src/rDock_2013.1_src/data/scripts/dock_solv.prm

>  <Rbt.Receptor>
prm/pocket_docking_6.prm

>  <SCORE>
-13.7796

>  <SCORE.INTER>
-11.124

>  <SCORE.INTER.CONST>
1

>  <SCORE.INTER.POLAR>
0

>  <SCORE.INTER.ROT>
5

>  <SCORE.INTER.SOLV>
7.34276

>  <SCORE.INTER.VDW>
-16.7969

>  <SCORE.INTER.norm>
-1.236

>  <SCORE.INTRA>
-2.6556

>  <SCORE.INTRA.DIHEDRAL>
-5.91961

>  <SCORE.INTRA.DIHEDRAL.0>
7.73744

>  <SCORE.INTRA.POLAR>
0

>  <SCORE.INTRA.POLAR.0>
0

>  <SCORE.INTRA.REPUL>
0

>  <SCORE.INTRA.REPUL.0>
0

>  <SCORE.INTRA.SOLV>
1.08427

>  <SCORE.INTRA.SOLV.lig_0>
-15.8342

>  <SCORE.INTRA.VDW>
-0.237935

>  <SCORE.INTRA.VDW.0>
-0.219494

>  <SCORE.INTRA.norm>
-0.295067

>  <SCORE.RESTR>
0

>  <SCORE.RESTR.CAVITY>
0

>  <SCORE.RESTR.norm>
0

>  <SCORE.SYSTEM>
0

>  <SCORE.SYSTEM.CONST>
0

>  <SCORE.SYSTEM.DIHEDRAL>
0

>  <SCORE.SYSTEM.SOLV>
0

>  <SCORE.SYSTEM.norm>
0

>  <SCORE.heavy>
9

>  <SCORE.norm>
-1.53107

>  <RMSD>
5.811

$$$$
ligand
 OpenBabel02271912143D
libRbt.so/2013.1/901 2013/11/27
  9  8  0  0  0  0  0  0  0  0999 V2000
  -49.5729   67.6371  -18.4870 C   0  0  0  0  0  0  0  0  0  0  0  0
  -50.2254   68.7430  -18.4522 O   0  0  0  0  0  0  0  0  0  0  0  0
  -49.2564   67.0112  -19.7772 C   0  0  0  0  0  0  0  0  0  0  0  0
  -49.2254   67.0364  -17.4185 O   0  0  0  0  0  0  0  0  0  0  0  0
  -48.0512   67.5563  -20.4755 C   0  0  0  0  0  0  0  0  0  0  0  0
  -47.7536   67.0554  -21.8407 C   0  0  0  0  0  0  0  0  0  0  0  0
  -46.5221   67.6702  -22.4844 C   0  0  0  0  0  0  0  0  0  0  0  0
  -46.1495   67.2875  -23.9254 C   0  0  0  0  0  0  0  0  0  0  0  0
  -44.9980   67.8301  -24.4581 N   0  0  0  0  0  0  0  0  0  0  0  0
  1  2  1  0  0  0  0
  1  3  1  0  0  0  0
  1  4  1  0  0  0  0
  3  5  1  0  0  0  0
  5  6  1  0  0  0  0
  6  7  1  0  0  0  0
  7  8  1  0  0  0  0
  8  9  1  0  0  0  0
M  END
>  <CHROM.1>
82.19820910,-174.31487146,179.37309830,-176.87273802,-177.73381452,-48.00197527
67.54560889,-20.76062948,2.54010892,-0.81180070,2.35842925

>  <Name>
ligand

>  <RI>
0

>  <Rbt.Current_Directory>
/home/itssahil/PROJECTS/Mol_Feturizer/Test_systems_manuscript/rnas/4erj

>  <Rbt.Executable>
rbdock ($Id: //depot/dev/client3/rdock/2013.1/src/exe/rbdock.cxx#4 $)

>  <Rbt.Library>
libRbt.so (2013.1, Build901 2013/11/27)

>  <Rbt.Parameter_File>
/export/apps/rDock/src/rDock_2013.1_src/data/scripts/dock_solv.prm

>  <Rbt.Receptor>
prm/pocket_docking_7.prm

>  <SCORE>
-12.9074

>  <SCORE.INTER>
-9.46833

>  <SCORE.INTER.CONST>
1

>  <SCORE.INTER.POLAR>
0

>  <SCORE.INTER.ROT>
5

>  <SCORE.INTER.SOLV>
8.76689

>  <SCORE.INTER.VDW>
-16.1679

>  <SCORE.INTER.norm>
-1.05204

>  <SCORE.INTRA>
-3.4391

>  <SCORE.INTRA.DIHEDRAL>
-5.77104

>  <SCORE.INTRA.DIHEDRAL.0>
7.73744

>  <SCORE.INTRA.POLAR>
0

>  <SCORE.INTRA.POLAR.0>
0

>  <SCORE.INTRA.REPUL>
0

>  <SCORE.INTRA.REPUL.0>
0

>  <SCORE.INTRA.SOLV>
-0.116405

>  <SCORE.INTRA.SOLV.lig_0>
-15.8342

>  <SCORE.INTRA.VDW>
-0.495377

>  <SCORE.INTRA.VDW.0>
-0.219494

>  <SCORE.INTRA.norm>
-0.382122

>  <SCORE.RESTR>
0

>  <SCORE.RESTR.CAVITY>
0

>  <SCORE.RESTR.norm>
0

>  <SCORE.SYSTEM>
0

>  <SCORE.SYSTEM.CONST>
0

>  <SCORE.SYSTEM.DIHEDRAL>
0

>  <SCORE.SYSTEM.SOLV>
0

>  <SCORE.SYSTEM.norm>
0

>  <SCORE.heavy>
9

>  <SCORE.norm>
-1.43416

>  <RMSD>
5.817

$$$$
ligand
 OpenBabel02271912143D
libRbt.so/2013.1/901 2013/11/27
  9  8  0  0  0  0  0  0  0  0999 V2000
  -51.4272   69.9793  -18.9484 C   0  0  0  0  0  0  0  0  0  0  0  0
  -52.6109   69.7503  -18.5052 O   0  0  0  0  0  0  0  0  0  0  0  0
  -50.3401   69.0344  -18.6625 C   0  0  0  0  0  0  0  0  0  0  0  0
  -51.1552   71.0394  -19.6010 O   0  0  0  0  0  0  0  0  0  0  0  0
  -49.8742   68.2215  -19.8284 C   0  0  0  0  0  0  0  0  0  0  0  0
  -48.7389   67.2893  -19.6160 C   0  0  0  0  0  0  0  0  0  0  0  0
  -48.3225   66.5093  -20.8516 C   0  0  0  0  0  0  0  0  0  0  0  0
  -47.8166   67.2654  -22.0902 C   0  0  0  0  0  0  0  0  0  0  0  0
  -46.6762   68.0307  -21.9559 N   0  0  0  0  0  0  0  0  0  0  0  0
  1  2  1  0  0  0  0
  1  3  1  0  0  0  0
  1  4  1  0  0  0  0
  3  5  1  0  0  0  0
  5  6  1  0  0  0  0
  6  7  1  0  0  0  0
  7  8  1  0  0  0  0
  8  9  1  0  0  0  0
M  END
>  <CHROM.1>
108.22371269,177.47184257,-179.61143350,61.51055160,61.48609256,-49.70351653
68.60294877,-19.99356193,-2.84449446,-0.69714899,2.76447191

>  <Name>
ligand

>  <RI>
0

>  <Rbt.Current_Directory>
/home/itssahil/PROJECTS/Mol_Feturizer/Test_systems_manuscript/rnas/4erj

>  <Rbt.Executable>
rbdock ($Id: //depot/dev/client3/rdock/2013.1/src/exe/rbdock.cxx#4 $)

>  <Rbt.Library>
libRbt.so (2013.1, Build901 2013/11/27)

>  <Rbt.Parameter_File>
/export/apps/rDock/src/rDock_2013.1_src/data/scripts/dock_solv.prm

>  <Rbt.Receptor>
prm/pocket_docking_7.prm

>  <SCORE>
-13.8377

>  <SCORE.INTER>
-11.1743

>  <SCORE.INTER.CONST>
1

>  <SCORE.INTER.POLAR>
0

>  <SCORE.INTER.ROT>
5

>  <SCORE.INTER.SOLV>
7.32727

>  <SCORE.INTER.VDW>
-16.8253

>  <SCORE.INTER.norm>
-1.24159

>  <SCORE.INTRA>
-2.66339

>  <SCORE.INTRA.DIHEDRAL>
-5.94907

>  <SCORE.INTRA.DIHEDRAL.0>
7.73744

>  <SCORE.INTRA.POLAR>
0

>  <SCORE.INTRA.POLAR.0>
0

>  <SCORE.INTRA.REPUL>
0

>  <SCORE.INTRA.REPUL.0>
0

>  <SCORE.INTRA.SOLV>
1.0632

>  <SCORE.INTRA.SOLV.lig_0>
-15.8342

>  <SCORE.INTRA.VDW>
-0.220454

>  <SCORE.INTRA.VDW.0>
-0.219494

>  <SCORE.INTRA.norm>
-0.295932

>  <SCORE.RESTR>
0

>  <SCORE.RESTR.CAVITY>
0

>  <SCORE.RESTR.norm>
0

>  <SCORE.SYSTEM>
0

>  <SCORE.SYSTEM.CONST>
0

>  <SCORE.SYSTEM.DIHEDRAL>
0

>  <SCORE.SYSTEM.SOLV>
0

>  <SCORE.SYSTEM.norm>
0

>  <SCORE.heavy>
9

>  <SCORE.norm>
-1.53752

>  <RMSD>
5.819

$$$$
ligand
 OpenBabel02271912143D
libRbt.so/2013.1/901 2013/11/27
  9  8  0  0  0  0  0  0  0  0999 V2000
  -49.5765   67.7740  -18.3967 C   0  0  0  0  0  0  0  0  0  0  0  0
  -50.1148   68.9236  -18.2010 O   0  0  0  0  0  0  0  0  0  0  0  0
  -49.3997   67.2688  -19.7641 C   0  0  0  0  0  0  0  0  0  0  0  0
  -49.2263   67.0295  -17.4237 O   0  0  0  0  0  0  0  0  0  0  0  0
  -48.1214   67.6634  -20.4330 C   0  0  0  0  0  0  0  0  0  0  0  0
  -47.9170   67.2453  -21.8424 C   0  0  0  0  0  0  0  0  0  0  0  0
  -46.5595   67.6107  -22.4190 C   0  0  0  0  0  0  0  0  0  0  0  0
  -46.2344   67.2522  -23.8776 C   0  0  0  0  0  0  0  0  0  0  0  0
  -44.9807   67.5745  -24.3556 N   0  0  0  0  0  0  0  0  0  0  0  0
  1  2  1  0  0  0  0
  1  3  1  0  0  0  0
  1  4  1  0  0  0  0
  3  5  1  0  0  0  0
  5  6  1  0  0  0  0
  6  7  1  0  0  0  0
  7  8  1  0  0  0  0
  8  9  1  0  0  0  0
M  END
>  <CHROM.1>
88.22721410,-176.74398331,-176.37177182,-179.00924783,-178.60994694,-48.04137577
67.60250285,-20.69196638,-2.50309798,0.79850468,-0.87437573

>  <Name>
ligand

>  <RI>
0

>  <Rbt.Current_Directory>
/home/itssahil/PROJECTS/Mol_Feturizer/Test_systems_manuscript/rnas/4erj

>  <Rbt.Executable>
rbdock ($Id: //depot/dev/client3/rdock/2013.1/src/exe/rbdock.cxx#4 $)

>  <Rbt.Library>
libRbt.so (2013.1, Build901 2013/11/27)

>  <Rbt.Parameter_File>
/export/apps/rDock/src/rDock_2013.1_src/data/scripts/dock_solv.prm

>  <Rbt.Receptor>
prm/blind_docking_100.prm

>  <SCORE>
-12.7968

>  <SCORE.INTER>
-9.3141

>  <SCORE.INTER.CONST>
1

>  <SCORE.INTER.POLAR>
0

>  <SCORE.INTER.ROT>
5

>  <SCORE.INTER.SOLV>
8.68608

>  <SCORE.INTER.VDW>
-16.0381

>  <SCORE.INTER.norm>
-1.0349

>  <SCORE.INTRA>
-3.4827

>  <SCORE.INTRA.DIHEDRAL>
-5.84709

>  <SCORE.INTRA.DIHEDRAL.0>
7.73744

>  <SCORE.INTRA.POLAR>
0

>  <SCORE.INTRA.POLAR.0>
0

>  <SCORE.INTRA.REPUL>
0

>  <SCORE.INTRA.REPUL.0>
0

>  <SCORE.INTRA.SOLV>
-0.116574

>  <SCORE.INTRA.SOLV.lig_0>
-15.8342

>  <SCORE.INTRA.VDW>
-0.500871

>  <SCORE.INTRA.VDW.0>
-0.219494

>  <SCORE.INTRA.norm>
-0.386967

>  <SCORE.RESTR>
0

>  <SCORE.RESTR.CAVITY>
0

>  <SCORE.RESTR.norm>
0

>  <SCORE.SYSTEM>
0

>  <SCORE.SYSTEM.CONST>
0

>  <SCORE.SYSTEM.DIHEDRAL>
0

>  <SCORE.SYSTEM.SOLV>
0

>  <SCORE.SYSTEM.norm>
0

>  <SCORE.heavy>
9

>  <SCORE.norm>
-1.42187

>  <RMSD>
5.842

$$$$
ligand
 OpenBabel02271912143D
libRbt.so/2013.1/901 2013/11/27
  9  8  0  0  0  0  0  0  0  0999 V2000
  -49.4182   67.7225  -18.3094 C   0  0  0  0  0  0  0  0  0  0  0  0
  -49.3476   66.9050  -17.3211 O   0  0  0  0  0  0  0  0  0  0  0  0
  -49.2892   67.2250  -19.6849 C   0  0  0  0  0  0  0  0  0  0  0  0
  -49.5552   68.9761  -18.1267 O   0  0  0  0  0  0  0  0  0  0  0  0
  -48.0012   67.5579  -20.3688 C   0  0  0  0  0  0  0  0  0  0  0  0
  -47.8442   67.1549  -21.7887 C   0  0  0  0  0  0  0  0  0  0  0  0
  -46.5341   67.5859  -22.4262 C   0  0  0  0  0  0  0  0  0  0  0  0
  -46.2741   67.2742  -23.9085 C   0  0  0  0  0  0  0  0  0  0  0  0
  -45.0707   67.6779  -24.4497 N   0  0  0  0  0  0  0  0  0  0  0  0
  1  2  1  0  0  0  0
  1  3  1  0  0  0  0
  1  4  1  0  0  0  0
  3  5  1  0  0  0  0
  5  6  1  0  0  0  0
  6  7  1  0  0  0  0
  7  8  1  0  0  0  0
  8  9  1  0  0  0  0
M  END
>  <CHROM.1>
-107.22452610,-176.32391103,177.34000704,-177.73303213,-179.78714775,-47.94999073
67.57346843,-20.65458928,-3.02913342,-1.01370607,-3.05596194

>  <Name>
ligand

>  <RI>
0

>  <Rbt.Current_Directory>
/home/itssahil/PROJECTS/Mol_Feturizer/Test_systems_manuscript/rnas/4erj

>  <Rbt.Executable>
rbdock ($Id: //depot/dev/client3/rdock/2013.1/src/exe/rbdock.cxx#4 $)

>  <Rbt.Library>
libRbt.so (2013.1, Build901 2013/11/27)

>  <Rbt.Parameter_File>
/export/apps/rDock/src/rDock_2013.1_src/data/scripts/dock_solv.prm

>  <Rbt.Receptor>
prm/pocket_docking_3.prm

>  <SCORE>
-13.0619

>  <SCORE.INTER>
-9.56003

>  <SCORE.INTER.CONST>
1

>  <SCORE.INTER.POLAR>
0

>  <SCORE.INTER.ROT>
5

>  <SCORE.INTER.SOLV>
8.65116

>  <SCORE.INTER.VDW>
-16.1904

>  <SCORE.INTER.norm>
-1.06223

>  <SCORE.INTRA>
-3.50188

>  <SCORE.INTRA.DIHEDRAL>
-6.00719

>  <SCORE.INTRA.DIHEDRAL.0>
7.73744

>  <SCORE.INTRA.POLAR>
0

>  <SCORE.INTRA.POLAR.0>
0

>  <SCORE.INTRA.REPUL>
0

>  <SCORE.INTRA.REPUL.0>
0

>  <SCORE.INTRA.SOLV>
-0.116789

>  <SCORE.INTRA.SOLV.lig_0>
-15.8342

>  <SCORE.INTRA.VDW>
-0.439894

>  <SCORE.INTRA.VDW.0>
-0.219494

>  <SCORE.INTRA.norm>
-0.389098

>  <SCORE.RESTR>
0

>  <SCORE.RESTR.CAVITY>
0

>  <SCORE.RESTR.norm>
0

>  <SCORE.SYSTEM>
0

>  <SCORE.SYSTEM.CONST>
0

>  <SCORE.SYSTEM.DIHEDRAL>
0

>  <SCORE.SYSTEM.SOLV>
0

>  <SCORE.SYSTEM.norm>
0

>  <SCORE.heavy>
9

>  <SCORE.norm>
-1.45132

>  <RMSD>
5.845

$$$$
ligand
 OpenBabel02271912143D
libRbt.so/2013.1/901 2013/11/27
  9  8  0  0  0  0  0  0  0  0999 V2000
  -51.3732   69.9038  -18.9712 C   0  0  0  0  0  0  0  0  0  0  0  0
  -51.0808   70.9644  -19.6342 O   0  0  0  0  0  0  0  0  0  0  0  0
  -50.3251   68.9278  -18.6468 C   0  0  0  0  0  0  0  0  0  0  0  0
  -52.5711   69.6488  -18.6196 O   0  0  0  0  0  0  0  0  0  0  0  0
  -49.6161   68.3339  -19.8224 C   0  0  0  0  0  0  0  0  0  0  0  0
  -48.5332   67.3539  -19.5581 C   0  0  0  0  0  0  0  0  0  0  0  0
  -47.8022   66.8705  -20.7993 C   0  0  0  0  0  0  0  0  0  0  0  0
  -46.9943   67.8711  -21.6406 C   0  0  0  0  0  0  0  0  0  0  0  0
  -46.3401   67.3925  -22.7574 N   0  0  0  0  0  0  0  0  0  0  0  0
  1  2  1  0  0  0  0
  1  3  1  0  0  0  0
  1  4  1  0  0  0  0
  3  5  1  0  0  0  0
  5  6  1  0  0  0  0
  6  7  1  0  0  0  0
  7  8  1  0  0  0  0
  8  9  1  0  0  0  0
M  END
>  <CHROM.1>
-59.23335149,179.19676068,-176.05079908,63.85037140,179.74508085,-49.44809825
68.61763431,-20.03807143,-3.05505243,-0.68282664,2.52688908

>  <Name>
ligand

>  <RI>
0

>  <Rbt.Current_Directory>
/home/itssahil/PROJECTS/Mol_Feturizer/Test_systems_manuscript/rnas/4erj

>  <Rbt.Executable>
rbdock ($Id: //depot/dev/client3/rdock/2013.1/src/exe/rbdock.cxx#4 $)

>  <Rbt.Library>
libRbt.so (2013.1, Build901 2013/11/27)

>  <Rbt.Parameter_File>
/export/apps/rDock/src/rDock_2013.1_src/data/scripts/dock_solv.prm

>  <Rbt.Receptor>
prm/pocket_docking_7.prm

>  <SCORE>
-14.1761

>  <SCORE.INTER>
-11.0974

>  <SCORE.INTER.CONST>
1

>  <SCORE.INTER.POLAR>
0

>  <SCORE.INTER.ROT>
5

>  <SCORE.INTER.SOLV>
6.85771

>  <SCORE.INTER.VDW>
-16.6175

>  <SCORE.INTER.norm>
-1.23305

>  <SCORE.INTRA>
-3.07864

>  <SCORE.INTRA.DIHEDRAL>
-5.92932

>  <SCORE.INTRA.DIHEDRAL.0>
7.73744

>  <SCORE.INTRA.POLAR>
0

>  <SCORE.INTRA.POLAR.0>
0

>  <SCORE.INTRA.REPUL>
0

>  <SCORE.INTRA.REPUL.0>
0

>  <SCORE.INTRA.SOLV>
0.0398674

>  <SCORE.INTRA.SOLV.lig_0>
-15.8342

>  <SCORE.INTRA.VDW>
-0.133912

>  <SCORE.INTRA.VDW.0>
-0.219494

>  <SCORE.INTRA.norm>
-0.342071

>  <SCORE.RESTR>
0

>  <SCORE.RESTR.CAVITY>
0

>  <SCORE.RESTR.norm>
0

>  <SCORE.SYSTEM>
0

>  <SCORE.SYSTEM.CONST>
0

>  <SCORE.SYSTEM.DIHEDRAL>
0

>  <SCORE.SYSTEM.SOLV>
0

>  <SCORE.SYSTEM.norm>
0

>  <SCORE.heavy>
9

>  <SCORE.norm>
-1.57512

>  <RMSD>
5.853

$$$$
ligand
 OpenBabel02271912143D
libRbt.so/2013.1/901 2013/11/27
  9  8  0  0  0  0  0  0  0  0999 V2000
  -49.2177   67.7866  -18.2229 C   0  0  0  0  0  0  0  0  0  0  0  0
  -49.1282   69.0500  -18.0092 O   0  0  0  0  0  0  0  0  0  0  0  0
  -49.1342   67.2655  -19.5932 C   0  0  0  0  0  0  0  0  0  0  0  0
  -49.4236   66.9643  -17.2715 O   0  0  0  0  0  0  0  0  0  0  0  0
  -47.8793   67.6052  -20.3328 C   0  0  0  0  0  0  0  0  0  0  0  0
  -47.7717   67.1796  -21.7507 C   0  0  0  0  0  0  0  0  0  0  0  0
  -46.4917   67.6135  -22.4449 C   0  0  0  0  0  0  0  0  0  0  0  0
  -46.3037   67.3180  -23.9413 C   0  0  0  0  0  0  0  0  0  0  0  0
  -45.1450   67.7626  -24.5446 N   0  0  0  0  0  0  0  0  0  0  0  0
  1  2  1  0  0  0  0
  1  3  1  0  0  0  0
  1  4  1  0  0  0  0
  3  5  1  0  0  0  0
  5  6  1  0  0  0  0
  6  7  1  0  0  0  0
  7  8  1  0  0  0  0
  8  9  1  0  0  0  0
M  END
>  <CHROM.1>
58.04949916,-176.24999430,177.58085381,-175.83273104,178.12623350,-47.85585776
67.62548424,-20.62348205,-2.65963708,-0.97829820,-2.62181099

>  <Name>
ligand

>  <RI>
0

>  <Rbt.Current_Directory>
/home/itssahil/PROJECTS/Mol_Feturizer/Test_systems_manuscript/rnas/4erj

>  <Rbt.Executable>
rbdock ($Id: //depot/dev/client3/rdock/2013.1/src/exe/rbdock.cxx#4 $)

>  <Rbt.Library>
libRbt.so (2013.1, Build901 2013/11/27)

>  <Rbt.Parameter_File>
/export/apps/rDock/src/rDock_2013.1_src/data/scripts/dock_solv.prm

>  <Rbt.Receptor>
prm/blind_docking_100.prm

>  <SCORE>
-13.2532

>  <SCORE.INTER>
-9.86507

>  <SCORE.INTER.CONST>
1

>  <SCORE.INTER.POLAR>
0

>  <SCORE.INTER.ROT>
5

>  <SCORE.INTER.SOLV>
8.56703

>  <SCORE.INTER.VDW>
-16.3657

>  <SCORE.INTER.norm>
-1.09612

>  <SCORE.INTRA>
-3.38811

>  <SCORE.INTRA.DIHEDRAL>
-5.90455

>  <SCORE.INTRA.DIHEDRAL.0>
7.73744

>  <SCORE.INTRA.POLAR>
0

>  <SCORE.INTRA.POLAR.0>
0

>  <SCORE.INTRA.REPUL>
0

>  <SCORE.INTRA.REPUL.0>
0

>  <SCORE.INTRA.SOLV>
-0.116504

>  <SCORE.INTRA.SOLV.lig_0>
-15.8342

>  <SCORE.INTRA.VDW>
-0.377585

>  <SCORE.INTRA.VDW.0>
-0.219494

>  <SCORE.INTRA.norm>
-0.376457

>  <SCORE.RESTR>
0

>  <SCORE.RESTR.CAVITY>
0

>  <SCORE.RESTR.norm>
0

>  <SCORE.SYSTEM>
0

>  <SCORE.SYSTEM.CONST>
0

>  <SCORE.SYSTEM.DIHEDRAL>
0

>  <SCORE.SYSTEM.SOLV>
0

>  <SCORE.SYSTEM.norm>
0

>  <SCORE.heavy>
9

>  <SCORE.norm>
-1.47258

>  <RMSD>
5.855

$$$$
ligand
 OpenBabel02271912143D
libRbt.so/2013.1/901 2013/11/27
  9  8  0  0  0  0  0  0  0  0999 V2000
  -51.3788   69.8706  -18.9511 C   0  0  0  0  0  0  0  0  0  0  0  0
  -52.5788   69.6434  -18.5534 O   0  0  0  0  0  0  0  0  0  0  0  0
  -50.3052   68.9231  -18.6255 C   0  0  0  0  0  0  0  0  0  0  0  0
  -51.0801   70.9309  -19.5915 O   0  0  0  0  0  0  0  0  0  0  0  0
  -49.5847   68.3421  -19.8005 C   0  0  0  0  0  0  0  0  0  0  0  0
  -48.5089   67.3541  -19.5367 C   0  0  0  0  0  0  0  0  0  0  0  0
  -47.7749   66.8734  -20.7772 C   0  0  0  0  0  0  0  0  0  0  0  0
  -46.9977   67.8830  -21.6365 C   0  0  0  0  0  0  0  0  0  0  0  0
  -46.3317   67.4052  -22.7467 N   0  0  0  0  0  0  0  0  0  0  0  0
  1  2  1  0  0  0  0
  1  3  1  0  0  0  0
  1  4  1  0  0  0  0
  3  5  1  0  0  0  0
  5  6  1  0  0  0  0
  6  7  1  0  0  0  0
  7  8  1  0  0  0  0
  8  9  1  0  0  0  0
M  END
>  <CHROM.1>
121.61955771,-178.64901791,-176.66154754,61.71095522,179.28307314,-49.43767013
68.61308101,-20.01149227,-3.07076318,-0.68323793,2.51361088

>  <Name>
ligand

>  <RI>
0

>  <Rbt.Current_Directory>
/home/itssahil/PROJECTS/Mol_Feturizer/Test_systems_manuscript/rnas/4erj

>  <Rbt.Executable>
rbdock ($Id: //depot/dev/client3/rdock/2013.1/src/exe/rbdock.cxx#4 $)

>  <Rbt.Library>
libRbt.so (2013.1, Build901 2013/11/27)

>  <Rbt.Parameter_File>
/export/apps/rDock/src/rDock_2013.1_src/data/scripts/dock_solv.prm

>  <Rbt.Receptor>
prm/pocket_docking_8.prm

>  <SCORE>
-14.2358

>  <SCORE.INTER>
-11.1881

>  <SCORE.INTER.CONST>
1

>  <SCORE.INTER.POLAR>
0

>  <SCORE.INTER.ROT>
5

>  <SCORE.INTER.SOLV>
6.82192

>  <SCORE.INTER.VDW>
-16.666

>  <SCORE.INTER.norm>
-1.24312

>  <SCORE.INTRA>
-3.04774

>  <SCORE.INTRA.DIHEDRAL>
-5.99144

>  <SCORE.INTRA.DIHEDRAL.0>
7.73744

>  <SCORE.INTRA.POLAR>
0

>  <SCORE.INTRA.POLAR.0>
0

>  <SCORE.INTRA.REPUL>
0

>  <SCORE.INTRA.REPUL.0>
0

>  <SCORE.INTRA.SOLV>
0.0479238

>  <SCORE.INTRA.SOLV.lig_0>
-15.8342

>  <SCORE.INTRA.VDW>
-0.0759781

>  <SCORE.INTRA.VDW.0>
-0.219494

>  <SCORE.INTRA.norm>
-0.338637

>  <SCORE.RESTR>
0

>  <SCORE.RESTR.CAVITY>
0

>  <SCORE.RESTR.norm>
0

>  <SCORE.SYSTEM>
0

>  <SCORE.SYSTEM.CONST>
0

>  <SCORE.SYSTEM.DIHEDRAL>
0

>  <SCORE.SYSTEM.SOLV>
0

>  <SCORE.SYSTEM.norm>
0

>  <SCORE.heavy>
9

>  <SCORE.norm>
-1.58176

>  <RMSD>
5.864

$$$$
ligand
 OpenBabel02271912143D
libRbt.so/2013.1/901 2013/11/27
  9  8  0  0  0  0  0  0  0  0999 V2000
  -51.4078   69.8627  -18.9583 C   0  0  0  0  0  0  0  0  0  0  0  0
  -52.6119   69.6536  -18.5629 O   0  0  0  0  0  0  0  0  0  0  0  0
  -50.3488   68.9002  -18.6290 C   0  0  0  0  0  0  0  0  0  0  0  0
  -51.0924   70.9177  -19.5995 O   0  0  0  0  0  0  0  0  0  0  0  0
  -49.6337   68.3078  -19.8016 C   0  0  0  0  0  0  0  0  0  0  0  0
  -48.5457   67.3348  -19.5326 C   0  0  0  0  0  0  0  0  0  0  0  0
  -47.7838   66.8822  -20.7669 C   0  0  0  0  0  0  0  0  0  0  0  0
  -47.0033   67.9141  -21.5962 C   0  0  0  0  0  0  0  0  0  0  0  0
  -46.3242   67.4640  -22.7100 N   0  0  0  0  0  0  0  0  0  0  0  0
  1  2  1  0  0  0  0
  1  3  1  0  0  0  0
  1  4  1  0  0  0  0
  3  5  1  0  0  0  0
  5  6  1  0  0  0  0
  6  7  1  0  0  0  0
  7  8  1  0  0  0  0
  8  9  1  0  0  0  0
M  END
>  <CHROM.1>
121.65835439,179.57691605,-174.43690330,62.07414036,179.99756858,-49.46100696
68.61439271,-20.00486290,-3.06012722,-0.67239032,2.53335651

>  <Name>
ligand

>  <RI>
0

>  <Rbt.Current_Directory>
/home/itssahil/PROJECTS/Mol_Feturizer/Test_systems_manuscript/rnas/4erj

>  <Rbt.Executable>
rbdock ($Id: //depot/dev/client3/rdock/2013.1/src/exe/rbdock.cxx#4 $)

>  <Rbt.Library>
libRbt.so (2013.1, Build901 2013/11/27)

>  <Rbt.Parameter_File>
/export/apps/rDock/src/rDock_2013.1_src/data/scripts/dock_solv.prm

>  <Rbt.Receptor>
prm/pocket_docking_5.prm

>  <SCORE>
-14.1937

>  <SCORE.INTER>
-11.1791

>  <SCORE.INTER.CONST>
1

>  <SCORE.INTER.POLAR>
0

>  <SCORE.INTER.ROT>
5

>  <SCORE.INTER.SOLV>
6.7735

>  <SCORE.INTER.VDW>
-16.6439

>  <SCORE.INTER.norm>
-1.24212

>  <SCORE.INTRA>
-3.01455

>  <SCORE.INTRA.DIHEDRAL>
-5.91247

>  <SCORE.INTRA.DIHEDRAL.0>
7.73744

>  <SCORE.INTRA.POLAR>
0

>  <SCORE.INTRA.POLAR.0>
0

>  <SCORE.INTRA.REPUL>
0

>  <SCORE.INTRA.REPUL.0>
0

>  <SCORE.INTRA.SOLV>
0.0492741

>  <SCORE.INTRA.SOLV.lig_0>
-15.8342

>  <SCORE.INTRA.VDW>
-0.0829498

>  <SCORE.INTRA.VDW.0>
-0.219494

>  <SCORE.INTRA.norm>
-0.33495

>  <SCORE.RESTR>
0

>  <SCORE.RESTR.CAVITY>
0

>  <SCORE.RESTR.norm>
0

>  <SCORE.SYSTEM>
0

>  <SCORE.SYSTEM.CONST>
0

>  <SCORE.SYSTEM.DIHEDRAL>
0

>  <SCORE.SYSTEM.SOLV>
0

>  <SCORE.SYSTEM.norm>
0

>  <SCORE.heavy>
9

>  <SCORE.norm>
-1.57707

>  <RMSD>
5.865

$$$$
ligand
 OpenBabel02271912143D
libRbt.so/2013.1/901 2013/11/27
  9  8  0  0  0  0  0  0  0  0999 V2000
  -51.4023   69.8610  -18.9473 C   0  0  0  0  0  0  0  0  0  0  0  0
  -52.6096   69.6492  -18.5632 O   0  0  0  0  0  0  0  0  0  0  0  0
  -50.3493   68.8877  -18.6309 C   0  0  0  0  0  0  0  0  0  0  0  0
  -51.0788   70.9271  -19.5657 O   0  0  0  0  0  0  0  0  0  0  0  0
  -49.6463   68.2972  -19.8118 C   0  0  0  0  0  0  0  0  0  0  0  0
  -48.5660   67.3121  -19.5560 C   0  0  0  0  0  0  0  0  0  0  0  0
  -47.8082   66.8696  -20.7964 C   0  0  0  0  0  0  0  0  0  0  0  0
  -47.0020   67.9020  -21.6002 C   0  0  0  0  0  0  0  0  0  0  0  0
  -46.2978   67.4545  -22.6993 N   0  0  0  0  0  0  0  0  0  0  0  0
  1  2  1  0  0  0  0
  1  3  1  0  0  0  0
  1  4  1  0  0  0  0
  3  5  1  0  0  0  0
  5  6  1  0  0  0  0
  6  7  1  0  0  0  0
  7  8  1  0  0  0  0
  8  9  1  0  0  0  0
M  END
>  <CHROM.1>
120.60329254,179.66267980,-173.98011526,63.01179676,178.26074580,-49.46179286
68.60611831,-20.00600508,-3.03770245,-0.67275828,2.56962617

>  <Name>
ligand

>  <RI>
0

>  <Rbt.Current_Directory>
/home/itssahil/PROJECTS/Mol_Feturizer/Test_systems_manuscript/rnas/4erj

>  <Rbt.Executable>
rbdock ($Id: //depot/dev/client3/rdock/2013.1/src/exe/rbdock.cxx#4 $)

>  <Rbt.Library>
libRbt.so (2013.1, Build901 2013/11/27)

>  <Rbt.Parameter_File>
/export/apps/rDock/src/rDock_2013.1_src/data/scripts/dock_solv.prm

>  <Rbt.Receptor>
prm/pocket_docking_4.prm

>  <SCORE>
-14.1938

>  <SCORE.INTER>
-11.1785

>  <SCORE.INTER.CONST>
1

>  <SCORE.INTER.POLAR>
0

>  <SCORE.INTER.ROT>
5

>  <SCORE.INTER.SOLV>
6.82417

>  <SCORE.INTER.VDW>
-16.6604

>  <SCORE.INTER.norm>
-1.24205

>  <SCORE.INTRA>
-3.01532

>  <SCORE.INTRA.DIHEDRAL>
-5.85394

>  <SCORE.INTRA.DIHEDRAL.0>
7.73744

>  <SCORE.INTRA.POLAR>
0

>  <SCORE.INTRA.POLAR.0>
0

>  <SCORE.INTRA.REPUL>
0

>  <SCORE.INTRA.REPUL.0>
0

>  <SCORE.INTRA.SOLV>
0.0378648

>  <SCORE.INTRA.SOLV.lig_0>
-15.8342

>  <SCORE.INTRA.VDW>
-0.107285

>  <SCORE.INTRA.VDW.0>
-0.219494

>  <SCORE.INTRA.norm>
-0.335036

>  <SCORE.RESTR>
0

>  <SCORE.RESTR.CAVITY>
0

>  <SCORE.RESTR.norm>
0

>  <SCORE.SYSTEM>
0

>  <SCORE.SYSTEM.CONST>
0

>  <SCORE.SYSTEM.DIHEDRAL>
0

>  <SCORE.SYSTEM.SOLV>
0

>  <SCORE.SYSTEM.norm>
0

>  <SCORE.heavy>
9

>  <SCORE.norm>
-1.57709

>  <RMSD>
5.869

$$$$
ligand
 OpenBabel02271912143D
libRbt.so/2013.1/901 2013/11/27
  9  8  0  0  0  0  0  0  0  0999 V2000
  -51.4535   69.9325  -18.9681 C   0  0  0  0  0  0  0  0  0  0  0  0
  -51.1578   71.0238  -19.5775 O   0  0  0  0  0  0  0  0  0  0  0  0
  -50.4129   68.9281  -18.7135 C   0  0  0  0  0  0  0  0  0  0  0  0
  -52.6489   69.6729  -18.6116 O   0  0  0  0  0  0  0  0  0  0  0  0
  -49.4339   68.7232  -19.8256 C   0  0  0  0  0  0  0  0  0  0  0  0
  -48.4359   67.6342  -19.6807 C   0  0  0  0  0  0  0  0  0  0  0  0
  -47.4281   67.5463  -20.8144 C   0  0  0  0  0  0  0  0  0  0  0  0
  -47.9135   67.2238  -22.2365 C   0  0  0  0  0  0  0  0  0  0  0  0
  -46.9714   67.1797  -23.2437 N   0  0  0  0  0  0  0  0  0  0  0  0
  1  2  1  0  0  0  0
  1  3  1  0  0  0  0
  1  4  1  0  0  0  0
  3  5  1  0  0  0  0
  5  6  1  0  0  0  0
  6  7  1  0  0  0  0
  7  8  1  0  0  0  0
  8  9  1  0  0  0  0
M  END
>  <CHROM.1>
-39.75508649,-174.41690269,-176.53825601,-63.45146654,178.70088923,-49.58261778
68.68394287,-20.17081773,2.81801577,-0.71548819,1.95806283

>  <Name>
ligand

>  <RI>
0

>  <Rbt.Current_Directory>
/home/itssahil/PROJECTS/Mol_Feturizer/Test_systems_manuscript/rnas/4erj

>  <Rbt.Executable>
rbdock ($Id: //depot/dev/client3/rdock/2013.1/src/exe/rbdock.cxx#4 $)

>  <Rbt.Library>
libRbt.so (2013.1, Build901 2013/11/27)

>  <Rbt.Parameter_File>
/export/apps/rDock/src/rDock_2013.1_src/data/scripts/dock_solv.prm

>  <Rbt.Receptor>
prm/pocket_docking_4.prm

>  <SCORE>
-12.6262

>  <SCORE.INTER>
-9.86906

>  <SCORE.INTER.CONST>
1

>  <SCORE.INTER.POLAR>
0

>  <SCORE.INTER.ROT>
5

>  <SCORE.INTER.SOLV>
7.99423

>  <SCORE.INTER.VDW>
-16.1775

>  <SCORE.INTER.norm>
-1.09656

>  <SCORE.INTRA>
-2.75718

>  <SCORE.INTRA.DIHEDRAL>
-5.73654

>  <SCORE.INTRA.DIHEDRAL.0>
7.73744

>  <SCORE.INTRA.POLAR>
0

>  <SCORE.INTRA.POLAR.0>
0

>  <SCORE.INTRA.REPUL>
0

>  <SCORE.INTRA.REPUL.0>
0

>  <SCORE.INTRA.SOLV>
0.0484581

>  <SCORE.INTRA.SOLV.lig_0>
-15.8342

>  <SCORE.INTRA.VDW>
0.0868599

>  <SCORE.INTRA.VDW.0>
-0.219494

>  <SCORE.INTRA.norm>
-0.306354

>  <SCORE.RESTR>
0

>  <SCORE.RESTR.CAVITY>
0

>  <SCORE.RESTR.norm>
0

>  <SCORE.SYSTEM>
0

>  <SCORE.SYSTEM.CONST>
0

>  <SCORE.SYSTEM.DIHEDRAL>
0

>  <SCORE.SYSTEM.SOLV>
0

>  <SCORE.SYSTEM.norm>
0

>  <SCORE.heavy>
9

>  <SCORE.norm>
-1.40292

>  <RMSD>
5.873

$$$$
ligand
 OpenBabel02271912143D
libRbt.so/2013.1/901 2013/11/27
  9  8  0  0  0  0  0  0  0  0999 V2000
  -51.4480   69.9047  -18.9377 C   0  0  0  0  0  0  0  0  0  0  0  0
  -51.1584   70.9937  -19.5542 O   0  0  0  0  0  0  0  0  0  0  0  0
  -50.4110   68.8896  -18.7130 C   0  0  0  0  0  0  0  0  0  0  0  0
  -52.6356   69.6568  -18.5482 O   0  0  0  0  0  0  0  0  0  0  0  0
  -49.4298   68.7178  -19.8289 C   0  0  0  0  0  0  0  0  0  0  0  0
  -48.4097   67.6475  -19.6983 C   0  0  0  0  0  0  0  0  0  0  0  0
  -47.3980   67.5978  -20.8309 C   0  0  0  0  0  0  0  0  0  0  0  0
  -47.8759   67.3015  -22.2612 C   0  0  0  0  0  0  0  0  0  0  0  0
  -46.9348   67.3160  -23.2702 N   0  0  0  0  0  0  0  0  0  0  0  0
  1  2  1  0  0  0  0
  1  3  1  0  0  0  0
  1  4  1  0  0  0  0
  3  5  1  0  0  0  0
  5  6  1  0  0  0  0
  6  7  1  0  0  0  0
  7  8  1  0  0  0  0
  8  9  1  0  0  0  0
M  END
>  <CHROM.1>
-37.22065841,-176.19357031,-176.25718616,-62.81913320,177.54429824,-49.56558690
68.70125776,-20.16676367,2.82329036,-0.70922087,1.99437608

>  <Name>
ligand

>  <RI>
0

>  <Rbt.Current_Directory>
/home/itssahil/PROJECTS/Mol_Feturizer/Test_systems_manuscript/rnas/4erj

>  <Rbt.Executable>
rbdock ($Id: //depot/dev/client3/rdock/2013.1/src/exe/rbdock.cxx#4 $)

>  <Rbt.Library>
libRbt.so (2013.1, Build901 2013/11/27)

>  <Rbt.Parameter_File>
/export/apps/rDock/src/rDock_2013.1_src/data/scripts/dock_solv.prm

>  <Rbt.Receptor>
prm/pocket_docking_8.prm

>  <SCORE>
-12.6246

>  <SCORE.INTER>
-9.8886

>  <SCORE.INTER.CONST>
1

>  <SCORE.INTER.POLAR>
0

>  <SCORE.INTER.ROT>
5

>  <SCORE.INTER.SOLV>
7.61193

>  <SCORE.INTER.VDW>
-16.063

>  <SCORE.INTER.norm>
-1.09873

>  <SCORE.INTRA>
-2.73602

>  <SCORE.INTRA.DIHEDRAL>
-5.79105

>  <SCORE.INTRA.DIHEDRAL.0>
7.73744

>  <SCORE.INTRA.POLAR>
0

>  <SCORE.INTRA.POLAR.0>
0

>  <SCORE.INTRA.REPUL>
0

>  <SCORE.INTRA.REPUL.0>
0

>  <SCORE.INTRA.SOLV>
0.0568436

>  <SCORE.INTRA.SOLV.lig_0>
-15.8342

>  <SCORE.INTRA.VDW>
0.131083

>  <SCORE.INTRA.VDW.0>
-0.219494

>  <SCORE.INTRA.norm>
-0.304002

>  <SCORE.RESTR>
0

>  <SCORE.RESTR.CAVITY>
0

>  <SCORE.RESTR.norm>
0

>  <SCORE.SYSTEM>
0

>  <SCORE.SYSTEM.CONST>
0

>  <SCORE.SYSTEM.DIHEDRAL>
0

>  <SCORE.SYSTEM.SOLV>
0

>  <SCORE.SYSTEM.norm>
0

>  <SCORE.heavy>
9

>  <SCORE.norm>
-1.40274

>  <RMSD>
5.881

$$$$
ligand
 OpenBabel02271912143D
libRbt.so/2013.1/901 2013/11/27
  9  8  0  0  0  0  0  0  0  0999 V2000
  -50.1663   59.7092  -20.3164 C   0  0  0  0  0  0  0  0  0  0  0  0
  -49.7654   59.0398  -19.2961 O   0  0  0  0  0  0  0  0  0  0  0  0
  -51.5909   59.7230  -20.6725 C   0  0  0  0  0  0  0  0  0  0  0  0
  -49.3466   60.3349  -21.0649 O   0  0  0  0  0  0  0  0  0  0  0  0
  -52.5339   59.9525  -19.5344 C   0  0  0  0  0  0  0  0  0  0  0  0
  -52.6356   58.8995  -18.4933 C   0  0  0  0  0  0  0  0  0  0  0  0
  -53.6182   59.2085  -17.3764 C   0  0  0  0  0  0  0  0  0  0  0  0
  -55.1178   59.3166  -17.6949 C   0  0  0  0  0  0  0  0  0  0  0  0
  -55.5366   60.3799  -18.4683 N   0  0  0  0  0  0  0  0  0  0  0  0
  1  2  1  0  0  0  0
  1  3  1  0  0  0  0
  1  4  1  0  0  0  0
  3  5  1  0  0  0  0
  5  6  1  0  0  0  0
  6  7  1  0  0  0  0
  7  8  1  0  0  0  0
  8  9  1  0  0  0  0
M  END
>  <CHROM.1>
46.13083572,-67.08431791,-179.79768162,65.08907449,-67.94657657,-52.20602290
59.61877724,-19.22556828,0.40938131,0.23351632,-1.01734019

>  <Name>
ligand

>  <RI>
0

>  <Rbt.Current_Directory>
/home/itssahil/PROJECTS/Mol_Feturizer/Test_systems_manuscript/rnas/4erj

>  <Rbt.Executable>
rbdock ($Id: //depot/dev/client3/rdock/2013.1/src/exe/rbdock.cxx#4 $)

>  <Rbt.Library>
libRbt.so (2013.1, Build901 2013/11/27)

>  <Rbt.Parameter_File>
/export/apps/rDock/src/rDock_2013.1_src/data/scripts/dock_solv.prm

>  <Rbt.Receptor>
prm/blind_docking_100.prm

>  <SCORE>
-6.74397

>  <SCORE.INTER>
-4.80503

>  <SCORE.INTER.CONST>
1

>  <SCORE.INTER.POLAR>
0

>  <SCORE.INTER.ROT>
5

>  <SCORE.INTER.SOLV>
3.89951

>  <SCORE.INTER.VDW>
-11.4365

>  <SCORE.INTER.norm>
-0.533892

>  <SCORE.INTRA>
-1.93894

>  <SCORE.INTRA.DIHEDRAL>
-5.57693

>  <SCORE.INTRA.DIHEDRAL.0>
7.73744

>  <SCORE.INTRA.POLAR>
0

>  <SCORE.INTRA.POLAR.0>
0

>  <SCORE.INTRA.REPUL>
0

>  <SCORE.INTRA.REPUL.0>
0

>  <SCORE.INTRA.SOLV>
1.58468

>  <SCORE.INTRA.SOLV.lig_0>
-15.8342

>  <SCORE.INTRA.VDW>
0.057182

>  <SCORE.INTRA.VDW.0>
-0.219494

>  <SCORE.INTRA.norm>
-0.215438

>  <SCORE.RESTR>
0

>  <SCORE.RESTR.CAVITY>
0

>  <SCORE.RESTR.norm>
0

>  <SCORE.SYSTEM>
0

>  <SCORE.SYSTEM.CONST>
0

>  <SCORE.SYSTEM.DIHEDRAL>
0

>  <SCORE.SYSTEM.SOLV>
0

>  <SCORE.SYSTEM.norm>
0

>  <SCORE.heavy>
9

>  <SCORE.norm>
-0.74933

>  <RMSD>
9.866

$$$$
ligand
 OpenBabel02271912143D
libRbt.so/2013.1/901 2013/11/27
  9  8  0  0  0  0  0  0  0  0999 V2000
  -40.6948   68.9504  -25.7413 C   0  0  0  0  0  0  0  0  0  0  0  0
  -39.4455   69.0703  -25.4682 O   0  0  0  0  0  0  0  0  0  0  0  0
  -41.2592   69.6310  -26.9137 C   0  0  0  0  0  0  0  0  0  0  0  0
  -41.4788   68.2842  -24.9895 O   0  0  0  0  0  0  0  0  0  0  0  0
  -40.6683   69.2367  -28.2300 C   0  0  0  0  0  0  0  0  0  0  0  0
  -41.3562   69.6908  -29.4643 C   0  0  0  0  0  0  0  0  0  0  0  0
  -40.7768   69.1311  -30.7526 C   0  0  0  0  0  0  0  0  0  0  0  0
  -39.3696   69.5584  -31.1989 C   0  0  0  0  0  0  0  0  0  0  0  0
  -38.9025   69.0758  -32.4043 N   0  0  0  0  0  0  0  0  0  0  0  0
  1  2  1  0  0  0  0
  1  3  1  0  0  0  0
  1  4  1  0  0  0  0
  3  5  1  0  0  0  0
  5  6  1  0  0  0  0
  6  7  1  0  0  0  0
  7  8  1  0  0  0  0
  8  9  1  0  0  0  0
M  END
>  <CHROM.1>
60.35703047,168.82839721,-174.01212439,-67.50650980,-177.13278199,-40.43599578
69.16909182,-28.29568216,-1.74597135,0.07929275,-1.47947806

>  <Name>
ligand

>  <RI>
0

>  <Rbt.Current_Directory>
/home/itssahil/PROJECTS/Mol_Feturizer/Test_systems_manuscript/rnas/4erj

>  <Rbt.Executable>
rbdock ($Id: //depot/dev/client3/rdock/2013.1/src/exe/rbdock.cxx#4 $)

>  <Rbt.Library>
libRbt.so (2013.1, Build901 2013/11/27)

>  <Rbt.Parameter_File>
/export/apps/rDock/src/rDock_2013.1_src/data/scripts/dock_solv.prm

>  <Rbt.Receptor>
prm/blind_docking_100.prm

>  <SCORE>
-9.17703

>  <SCORE.INTER>
-6.42397

>  <SCORE.INTER.CONST>
1

>  <SCORE.INTER.POLAR>
0

>  <SCORE.INTER.ROT>
5

>  <SCORE.INTER.SOLV>
6.48669

>  <SCORE.INTER.VDW>
-13.3782

>  <SCORE.INTER.norm>
-0.713775

>  <SCORE.INTRA>
-2.75306

>  <SCORE.INTRA.DIHEDRAL>
-5.13931

>  <SCORE.INTRA.DIHEDRAL.0>
7.73744

>  <SCORE.INTRA.POLAR>
0

>  <SCORE.INTRA.POLAR.0>
0

>  <SCORE.INTRA.REPUL>
0

>  <SCORE.INTRA.REPUL.0>
0

>  <SCORE.INTRA.SOLV>
0.0118882

>  <SCORE.INTRA.SOLV.lig_0>
-15.8342

>  <SCORE.INTRA.VDW>
-0.189348

>  <SCORE.INTRA.VDW.0>
-0.219494

>  <SCORE.INTRA.norm>
-0.305895

>  <SCORE.RESTR>
0

>  <SCORE.RESTR.CAVITY>
0

>  <SCORE.RESTR.norm>
0

>  <SCORE.SYSTEM>
0

>  <SCORE.SYSTEM.CONST>
0

>  <SCORE.SYSTEM.DIHEDRAL>
0

>  <SCORE.SYSTEM.SOLV>
0

>  <SCORE.SYSTEM.norm>
0

>  <SCORE.heavy>
9

>  <SCORE.norm>
-1.01967

>  <RMSD>
11.359

$$$$
ligand
 OpenBabel02271912143D
libRbt.so/2013.1/901 2013/11/27
  9  8  0  0  0  0  0  0  0  0999 V2000
  -53.7967   76.9207  -19.6246 C   0  0  0  0  0  0  0  0  0  0  0  0
  -54.2835   76.5627  -20.7580 O   0  0  0  0  0  0  0  0  0  0  0  0
  -54.6874   77.1341  -18.4768 C   0  0  0  0  0  0  0  0  0  0  0  0
  -52.5506   77.1418  -19.4762 O   0  0  0  0  0  0  0  0  0  0  0  0
  -54.6107   76.0947  -17.4039 C   0  0  0  0  0  0  0  0  0  0  0  0
  -55.4541   76.2791  -16.1965 C   0  0  0  0  0  0  0  0  0  0  0  0
  -55.2375   75.2391  -15.1101 C   0  0  0  0  0  0  0  0  0  0  0  0
  -56.0688   75.3074  -13.8193 C   0  0  0  0  0  0  0  0  0  0  0  0
  -55.8255   74.3597  -12.8462 N   0  0  0  0  0  0  0  0  0  0  0  0
  1  2  1  0  0  0  0
  1  3  1  0  0  0  0
  1  4  1  0  0  0  0
  3  5  1  0  0  0  0
  5  6  1  0  0  0  0
  6  7  1  0  0  0  0
  7  8  1  0  0  0  0
  8  9  1  0  0  0  0
M  END
>  <CHROM.1>
108.19110547,177.98643570,-175.46538696,-178.96793493,-178.83084964,-54.69804349
76.12576716,-17.13324622,-1.25032026,0.12790735,1.83694154

>  <Name>
ligand

>  <RI>
0

>  <Rbt.Current_Directory>
/home/itssahil/PROJECTS/Mol_Feturizer/Test_systems_manuscript/rnas/4erj

>  <Rbt.Executable>
rbdock ($Id: //depot/dev/client3/rdock/2013.1/src/exe/rbdock.cxx#4 $)

>  <Rbt.Library>
libRbt.so (2013.1, Build901 2013/11/27)

>  <Rbt.Parameter_File>
/export/apps/rDock/src/rDock_2013.1_src/data/scripts/dock_solv.prm

>  <Rbt.Receptor>
prm/blind_docking_100.prm

>  <SCORE>
-11.1142

>  <SCORE.INTER>
-7.65672

>  <SCORE.INTER.CONST>
1

>  <SCORE.INTER.POLAR>
0

>  <SCORE.INTER.ROT>
5

>  <SCORE.INTER.SOLV>
4.1939

>  <SCORE.INTER.VDW>
-13.4358

>  <SCORE.INTER.norm>
-0.850746

>  <SCORE.INTRA>
-3.45747

>  <SCORE.INTRA.DIHEDRAL>
-5.88179

>  <SCORE.INTRA.DIHEDRAL.0>
7.73744

>  <SCORE.INTRA.POLAR>
0

>  <SCORE.INTRA.POLAR.0>
0

>  <SCORE.INTRA.REPUL>
0

>  <SCORE.INTRA.REPUL.0>
0

>  <SCORE.INTRA.SOLV>
-0.116619

>  <SCORE.INTRA.SOLV.lig_0>
-15.8342

>  <SCORE.INTRA.VDW>
-0.458268

>  <SCORE.INTRA.VDW.0>
-0.219494

>  <SCORE.INTRA.norm>
-0.384163

>  <SCORE.RESTR>
0

>  <SCORE.RESTR.CAVITY>
0

>  <SCORE.RESTR.norm>
0

>  <SCORE.SYSTEM>
0

>  <SCORE.SYSTEM.CONST>
0

>  <SCORE.SYSTEM.DIHEDRAL>
0

>  <SCORE.SYSTEM.SOLV>
0

>  <SCORE.SYSTEM.norm>
0

>  <SCORE.heavy>
9

>  <SCORE.norm>
-1.23491

>  <RMSD>
11.827

$$$$
ligand
 OpenBabel02271912143D
libRbt.so/2013.1/901 2013/11/27
  9  8  0  0  0  0  0  0  0  0999 V2000
  -29.4353   66.9783  -11.6713 C   0  0  0  0  0  0  0  0  0  0  0  0
  -28.5531   67.2651  -12.5597 O   0  0  0  0  0  0  0  0  0  0  0  0
  -29.3376   65.7217  -10.9177 C   0  0  0  0  0  0  0  0  0  0  0  0
  -30.4311   67.7426  -11.4522 O   0  0  0  0  0  0  0  0  0  0  0  0
  -28.8798   65.8582   -9.5003 C   0  0  0  0  0  0  0  0  0  0  0  0
  -29.7195   66.6568   -8.5729 C   0  0  0  0  0  0  0  0  0  0  0  0
  -31.0755   66.0452   -8.2633 C   0  0  0  0  0  0  0  0  0  0  0  0
  -32.1436   65.9729   -9.3659 C   0  0  0  0  0  0  0  0  0  0  0  0
  -33.3849   65.4738   -9.0279 N   0  0  0  0  0  0  0  0  0  0  0  0
  1  2  1  0  0  0  0
  1  3  1  0  0  0  0
  1  4  1  0  0  0  0
  3  5  1  0  0  0  0
  5  6  1  0  0  0  0
  6  7  1  0  0  0  0
  7  8  1  0  0  0  0
  8  9  1  0  0  0  0
M  END
>  <CHROM.1>
105.60546501,61.74300497,67.21011853,-68.86558118,-176.73314771,-30.31674646
66.43757942,-10.18133512,0.80828969,-0.02567944,-1.21436486

>  <Name>
ligand

>  <RI>
0

>  <Rbt.Current_Directory>
/home/itssahil/PROJECTS/Mol_Feturizer/Test_systems_manuscript/rnas/4erj

>  <Rbt.Executable>
rbdock ($Id: //depot/dev/client3/rdock/2013.1/src/exe/rbdock.cxx#4 $)

>  <Rbt.Library>
libRbt.so (2013.1, Build901 2013/11/27)

>  <Rbt.Parameter_File>
/export/apps/rDock/src/rDock_2013.1_src/data/scripts/dock_solv.prm

>  <Rbt.Receptor>
prm/blind_docking_80.prm

>  <SCORE>
-3.7464

>  <SCORE.INTER>
-1.14593

>  <SCORE.INTER.CONST>
1

>  <SCORE.INTER.POLAR>
0

>  <SCORE.INTER.ROT>
5

>  <SCORE.INTER.SOLV>
3.4604

>  <SCORE.INTER.VDW>
-8.85075

>  <SCORE.INTER.norm>
-0.127325

>  <SCORE.INTRA>
-2.60047

>  <SCORE.INTRA.DIHEDRAL>
-5.39195

>  <SCORE.INTRA.DIHEDRAL.0>
7.73744

>  <SCORE.INTRA.POLAR>
0

>  <SCORE.INTRA.POLAR.0>
0

>  <SCORE.INTRA.REPUL>
0

>  <SCORE.INTRA.REPUL.0>
0

>  <SCORE.INTRA.SOLV>
0.171374

>  <SCORE.INTRA.SOLV.lig_0>
-15.8342

>  <SCORE.INTRA.VDW>
0.00982146

>  <SCORE.INTRA.VDW.0>
-0.219494

>  <SCORE.INTRA.norm>
-0.288941

>  <SCORE.RESTR>
0

>  <SCORE.RESTR.CAVITY>
0

>  <SCORE.RESTR.norm>
0

>  <SCORE.SYSTEM>
0

>  <SCORE.SYSTEM.CONST>
0

>  <SCORE.SYSTEM.DIHEDRAL>
0

>  <SCORE.SYSTEM.SOLV>
0

>  <SCORE.SYSTEM.norm>
0

>  <SCORE.heavy>
9

>  <SCORE.norm>
-0.416266

>  <RMSD>
21.216

$$$$
ligand
 OpenBabel02271912143D
libRbt.so/2013.1/901 2013/11/27
  9  8  0  0  0  0  0  0  0  0999 V2000
  -29.0982   66.3074  -11.0953 C   0  0  0  0  0  0  0  0  0  0  0  0
  -29.9945   65.5405  -11.6035 O   0  0  0  0  0  0  0  0  0  0  0  0
  -28.6757   66.1204   -9.7015 C   0  0  0  0  0  0  0  0  0  0  0  0
  -28.5892   67.2672  -11.7611 O   0  0  0  0  0  0  0  0  0  0  0  0
  -29.7297   66.3781   -8.6720 C   0  0  0  0  0  0  0  0  0  0  0  0
  -30.2794   67.7531   -8.5697 C   0  0  0  0  0  0  0  0  0  0  0  0
  -31.2019   68.1508   -9.7096 C   0  0  0  0  0  0  0  0  0  0  0  0
  -31.8795   69.5300   -9.6899 C   0  0  0  0  0  0  0  0  0  0  0  0
  -32.6738   69.8723  -10.7651 N   0  0  0  0  0  0  0  0  0  0  0  0
  1  2  1  0  0  0  0
  1  3  1  0  0  0  0
  1  4  1  0  0  0  0
  3  5  1  0  0  0  0
  5  6  1  0  0  0  0
  6  7  1  0  0  0  0
  7  8  1  0  0  0  0
  8  9  1  0  0  0  0
M  END
>  <CHROM.1>
-64.97273592,-63.22295755,72.78192269,177.57380152,177.83070205,-30.22420745
67.42113268,-10.20604655,0.13363968,0.83090369,-1.52308480

>  <Name>
ligand

>  <RI>
0

>  <Rbt.Current_Directory>
/home/itssahil/PROJECTS/Mol_Feturizer/Test_systems_manuscript/rnas/4erj

>  <Rbt.Executable>
rbdock ($Id: //depot/dev/client3/rdock/2013.1/src/exe/rbdock.cxx#4 $)

>  <Rbt.Library>
libRbt.so (2013.1, Build901 2013/11/27)

>  <Rbt.Parameter_File>
/export/apps/rDock/src/rDock_2013.1_src/data/scripts/dock_solv.prm

>  <Rbt.Receptor>
prm/blind_docking_80.prm

>  <SCORE>
-4.80976

>  <SCORE.INTER>
-1.70743

>  <SCORE.INTER.CONST>
1

>  <SCORE.INTER.POLAR>
0

>  <SCORE.INTER.ROT>
5

>  <SCORE.INTER.SOLV>
3.2971

>  <SCORE.INTER.VDW>
-9.17065

>  <SCORE.INTER.norm>
-0.189715

>  <SCORE.INTRA>
-3.10233

>  <SCORE.INTRA.DIHEDRAL>
-5.34313

>  <SCORE.INTRA.DIHEDRAL.0>
7.73744

>  <SCORE.INTRA.POLAR>
0

>  <SCORE.INTRA.POLAR.0>
0

>  <SCORE.INTRA.REPUL>
0

>  <SCORE.INTRA.REPUL.0>
0

>  <SCORE.INTRA.SOLV>
-0.138341

>  <SCORE.INTRA.SOLV.lig_0>
-15.8342

>  <SCORE.INTRA.VDW>
-0.36159

>  <SCORE.INTRA.VDW.0>
-0.219494

>  <SCORE.INTRA.norm>
-0.344703

>  <SCORE.RESTR>
0

>  <SCORE.RESTR.CAVITY>
0

>  <SCORE.RESTR.norm>
0

>  <SCORE.SYSTEM>
0

>  <SCORE.SYSTEM.CONST>
0

>  <SCORE.SYSTEM.DIHEDRAL>
0

>  <SCORE.SYSTEM.SOLV>
0

>  <SCORE.SYSTEM.norm>
0

>  <SCORE.heavy>
9

>  <SCORE.norm>
-0.534418

>  <RMSD>
21.286

$$$$
ligand
 OpenBabel02271912143D
libRbt.so/2013.1/901 2013/11/27
  9  8  0  0  0  0  0  0  0  0999 V2000
  -29.0817   66.1882  -10.8131 C   0  0  0  0  0  0  0  0  0  0  0  0
  -28.6411   67.2418  -11.4011 O   0  0  0  0  0  0  0  0  0  0  0  0
  -28.9282   66.0392   -9.3604 C   0  0  0  0  0  0  0  0  0  0  0  0
  -29.6167   65.2355  -11.4687 O   0  0  0  0  0  0  0  0  0  0  0  0
  -30.2049   65.9883   -8.5827 C   0  0  0  0  0  0  0  0  0  0  0  0
  -31.0917   64.8144   -8.7792 C   0  0  0  0  0  0  0  0  0  0  0  0
  -32.2887   64.7638   -7.8447 C   0  0  0  0  0  0  0  0  0  0  0  0
  -33.3325   65.8908   -7.8887 C   0  0  0  0  0  0  0  0  0  0  0  0
  -34.3572   65.8556   -6.9651 N   0  0  0  0  0  0  0  0  0  0  0  0
  1  2  1  0  0  0  0
  1  3  1  0  0  0  0
  1  4  1  0  0  0  0
  3  5  1  0  0  0  0
  5  6  1  0  0  0  0
  6  7  1  0  0  0  0
  7  8  1  0  0  0  0
  8  9  1  0  0  0  0
M  END
>  <CHROM.1>
116.11140177,66.85777232,173.61996739,61.69100152,-175.79795299,-30.81252503
65.78741392,-9.27702357,0.19914527,0.65061692,-0.10312597

>  <Name>
ligand

>  <RI>
0

>  <Rbt.Current_Directory>
/home/itssahil/PROJECTS/Mol_Feturizer/Test_systems_manuscript/rnas/4erj

>  <Rbt.Executable>
rbdock ($Id: //depot/dev/client3/rdock/2013.1/src/exe/rbdock.cxx#4 $)

>  <Rbt.Library>
libRbt.so (2013.1, Build901 2013/11/27)

>  <Rbt.Parameter_File>
/export/apps/rDock/src/rDock_2013.1_src/data/scripts/dock_solv.prm

>  <Rbt.Receptor>
prm/blind_docking_80.prm

>  <SCORE>
-4.35876

>  <SCORE.INTER>
-1.51144

>  <SCORE.INTER.CONST>
1

>  <SCORE.INTER.POLAR>
0

>  <SCORE.INTER.ROT>
5

>  <SCORE.INTER.SOLV>
4.13744

>  <SCORE.INTER.VDW>
-9.32011

>  <SCORE.INTER.norm>
-0.167938

>  <SCORE.INTRA>
-2.84732

>  <SCORE.INTRA.DIHEDRAL>
-5.58837

>  <SCORE.INTRA.DIHEDRAL.0>
7.73744

>  <SCORE.INTRA.POLAR>
0

>  <SCORE.INTRA.POLAR.0>
0

>  <SCORE.INTRA.REPUL>
0

>  <SCORE.INTRA.REPUL.0>
0

>  <SCORE.INTRA.SOLV>
0.0645286

>  <SCORE.INTRA.SOLV.lig_0>
-15.8342

>  <SCORE.INTRA.VDW>
-0.0853986

>  <SCORE.INTRA.VDW.0>
-0.219494

>  <SCORE.INTRA.norm>
-0.316369

>  <SCORE.RESTR>
0

>  <SCORE.RESTR.CAVITY>
0

>  <SCORE.RESTR.norm>
0

>  <SCORE.SYSTEM>
0

>  <SCORE.SYSTEM.CONST>
0

>  <SCORE.SYSTEM.DIHEDRAL>
0

>  <SCORE.SYSTEM.SOLV>
0

>  <SCORE.SYSTEM.norm>
0

>  <SCORE.heavy>
9

>  <SCORE.norm>
-0.484307

>  <RMSD>
21.352

$$$$
ligand
 OpenBabel02271912143D
libRbt.so/2013.1/901 2013/11/27
  9  8  0  0  0  0  0  0  0  0999 V2000
  -29.0497   66.2574  -10.6765 C   0  0  0  0  0  0  0  0  0  0  0  0
  -29.7599   65.4703  -11.4018 O   0  0  0  0  0  0  0  0  0  0  0  0
  -29.1642   66.2112   -9.2132 C   0  0  0  0  0  0  0  0  0  0  0  0
  -28.2699   67.1195  -11.1982 O   0  0  0  0  0  0  0  0  0  0  0  0
  -30.2603   67.0449   -8.6294 C   0  0  0  0  0  0  0  0  0  0  0  0
  -30.2091   68.5120   -8.8484 C   0  0  0  0  0  0  0  0  0  0  0  0
  -31.3752   69.2809   -8.2503 C   0  0  0  0  0  0  0  0  0  0  0  0
  -32.7936   69.0514   -8.7957 C   0  0  0  0  0  0  0  0  0  0  0  0
  -33.8266   69.7649   -8.2231 N   0  0  0  0  0  0  0  0  0  0  0  0
  1  2  1  0  0  0  0
  1  3  1  0  0  0  0
  1  4  1  0  0  0  0
  3  5  1  0  0  0  0
  5  6  1  0  0  0  0
  6  7  1  0  0  0  0
  7  8  1  0  0  0  0
  8  9  1  0  0  0  0
M  END
>  <CHROM.1>
-85.77828471,-61.46552473,178.67260903,-65.19711335,179.77073706,-30.49940851
67.61479105,-9.50827846,0.79115706,0.20300354,-2.29332318

>  <Name>
ligand

>  <RI>
0

>  <Rbt.Current_Directory>
/home/itssahil/PROJECTS/Mol_Feturizer/Test_systems_manuscript/rnas/4erj

>  <Rbt.Executable>
rbdock ($Id: //depot/dev/client3/rdock/2013.1/src/exe/rbdock.cxx#4 $)

>  <Rbt.Library>
libRbt.so (2013.1, Build901 2013/11/27)

>  <Rbt.Parameter_File>
/export/apps/rDock/src/rDock_2013.1_src/data/scripts/dock_solv.prm

>  <Rbt.Receptor>
prm/blind_docking_80.prm

>  <SCORE>
-4.74459

>  <SCORE.INTER>
-1.48035

>  <SCORE.INTER.CONST>
1

>  <SCORE.INTER.POLAR>
0

>  <SCORE.INTER.ROT>
5

>  <SCORE.INTER.SOLV>
2.11227

>  <SCORE.INTER.VDW>
-8.62433

>  <SCORE.INTER.norm>
-0.164484

>  <SCORE.INTRA>
-3.26424

>  <SCORE.INTRA.DIHEDRAL>
-6.02764

>  <SCORE.INTRA.DIHEDRAL.0>
7.73744

>  <SCORE.INTRA.POLAR>
0

>  <SCORE.INTRA.POLAR.0>
0

>  <SCORE.INTRA.REPUL>
0

>  <SCORE.INTRA.REPUL.0>
0

>  <SCORE.INTRA.SOLV>
0.0289323

>  <SCORE.INTRA.SOLV.lig_0>
-15.8342

>  <SCORE.INTRA.VDW>
-0.264888

>  <SCORE.INTRA.VDW.0>
-0.219494

>  <SCORE.INTRA.norm>
-0.362693

>  <SCORE.RESTR>
0

>  <SCORE.RESTR.CAVITY>
0

>  <SCORE.RESTR.norm>
0

>  <SCORE.SYSTEM>
0

>  <SCORE.SYSTEM.CONST>
0

>  <SCORE.SYSTEM.DIHEDRAL>
0

>  <SCORE.SYSTEM.SOLV>
0

>  <SCORE.SYSTEM.norm>
0

>  <SCORE.heavy>
9

>  <SCORE.norm>
-0.527177

>  <RMSD>
21.391

$$$$
ligand
 OpenBabel02271912143D
libRbt.so/2013.1/901 2013/11/27
  9  8  0  0  0  0  0  0  0  0999 V2000
  -29.0970   64.4713   -9.9818 C   0  0  0  0  0  0  0  0  0  0  0  0
  -28.9382   63.6000  -10.9121 O   0  0  0  0  0  0  0  0  0  0  0  0
  -28.2179   65.6457   -9.9173 C   0  0  0  0  0  0  0  0  0  0  0  0
  -29.9794   64.3220   -9.0747 O   0  0  0  0  0  0  0  0  0  0  0  0
  -28.6941   66.8452  -10.6734 C   0  0  0  0  0  0  0  0  0  0  0  0
  -29.8892   67.5604  -10.1605 C   0  0  0  0  0  0  0  0  0  0  0  0
  -31.2014   66.8203  -10.3586 C   0  0  0  0  0  0  0  0  0  0  0  0
  -32.5135   67.4639   -9.8834 C   0  0  0  0  0  0  0  0  0  0  0  0
  -33.6849   66.7640  -10.0884 N   0  0  0  0  0  0  0  0  0  0  0  0
  1  2  1  0  0  0  0
  1  3  1  0  0  0  0
  1  4  1  0  0  0  0
  3  5  1  0  0  0  0
  5  6  1  0  0  0  0
  6  7  1  0  0  0  0
  7  8  1  0  0  0  0
  8  9  1  0  0  0  0
M  END
>  <CHROM.1>
90.20421751,69.30751139,-72.30538954,-179.33742676,179.62049254,-30.23947253
65.90562636,-10.11500831,0.57855351,-0.10672617,3.04045379

>  <Name>
ligand

>  <RI>
0

>  <Rbt.Current_Directory>
/home/itssahil/PROJECTS/Mol_Feturizer/Test_systems_manuscript/rnas/4erj

>  <Rbt.Executable>
rbdock ($Id: //depot/dev/client3/rdock/2013.1/src/exe/rbdock.cxx#4 $)

>  <Rbt.Library>
libRbt.so (2013.1, Build901 2013/11/27)

>  <Rbt.Parameter_File>
/export/apps/rDock/src/rDock_2013.1_src/data/scripts/dock_solv.prm

>  <Rbt.Receptor>
prm/blind_docking_80.prm

>  <SCORE>
-3.84716

>  <SCORE.INTER>
-0.887244

>  <SCORE.INTER.CONST>
1

>  <SCORE.INTER.POLAR>
0

>  <SCORE.INTER.ROT>
5

>  <SCORE.INTER.SOLV>
2.7532

>  <SCORE.INTER.VDW>
-8.44256

>  <SCORE.INTER.norm>
-0.0985827

>  <SCORE.INTRA>
-2.95992

>  <SCORE.INTRA.DIHEDRAL>
-4.98476

>  <SCORE.INTRA.DIHEDRAL.0>
7.73744

>  <SCORE.INTRA.POLAR>
0

>  <SCORE.INTRA.POLAR.0>
0

>  <SCORE.INTRA.REPUL>
0

>  <SCORE.INTRA.REPUL.0>
0

>  <SCORE.INTRA.SOLV>
-0.135616

>  <SCORE.INTRA.SOLV.lig_0>
-15.8342

>  <SCORE.INTRA.VDW>
-0.39973

>  <SCORE.INTRA.VDW.0>
-0.219494

>  <SCORE.INTRA.norm>
-0.32888

>  <SCORE.RESTR>
0

>  <SCORE.RESTR.CAVITY>
0

>  <SCORE.RESTR.norm>
0

>  <SCORE.SYSTEM>
0

>  <SCORE.SYSTEM.CONST>
0

>  <SCORE.SYSTEM.DIHEDRAL>
0

>  <SCORE.SYSTEM.SOLV>
0

>  <SCORE.SYSTEM.norm>
0

>  <SCORE.heavy>
9

>  <SCORE.norm>
-0.427463

>  <RMSD>
21.446

$$$$
ligand
 OpenBabel02271912143D
libRbt.so/2013.1/901 2013/11/27
  9  8  0  0  0  0  0  0  0  0999 V2000
  -28.7844   65.4041   -9.7245 C   0  0  0  0  0  0  0  0  0  0  0  0
  -27.5710   65.7618   -9.9473 O   0  0  0  0  0  0  0  0  0  0  0  0
  -29.7005   66.3114   -9.0218 C   0  0  0  0  0  0  0  0  0  0  0  0
  -29.2102   64.2514  -10.0615 O   0  0  0  0  0  0  0  0  0  0  0  0
  -29.6860   67.7302   -9.4952 C   0  0  0  0  0  0  0  0  0  0  0  0
  -30.4734   68.7268   -8.7272 C   0  0  0  0  0  0  0  0  0  0  0  0
  -31.9778   68.6219   -8.9128 C   0  0  0  0  0  0  0  0  0  0  0  0
  -32.5939   68.9181  -10.2892 C   0  0  0  0  0  0  0  0  0  0  0  0
  -33.9644   68.8189  -10.4158 N   0  0  0  0  0  0  0  0  0  0  0  0
  1  2  1  0  0  0  0
  1  3  1  0  0  0  0
  1  4  1  0  0  0  0
  3  5  1  0  0  0  0
  5  6  1  0  0  0  0
  6  7  1  0  0  0  0
  7  8  1  0  0  0  0
  8  9  1  0  0  0  0
M  END
>  <CHROM.1>
46.08505403,-173.21950052,-73.29947460,-65.65286813,-179.66282039,-30.40256749
67.13249954,-9.63175268,0.63748597,0.31209315,-2.75899817

>  <Name>
ligand

>  <RI>
0

>  <Rbt.Current_Directory>
/home/itssahil/PROJECTS/Mol_Feturizer/Test_systems_manuscript/rnas/4erj

>  <Rbt.Executable>
rbdock ($Id: //depot/dev/client3/rdock/2013.1/src/exe/rbdock.cxx#4 $)

>  <Rbt.Library>
libRbt.so (2013.1, Build901 2013/11/27)

>  <Rbt.Parameter_File>
/export/apps/rDock/src/rDock_2013.1_src/data/scripts/dock_solv.prm

>  <Rbt.Receptor>
prm/blind_docking_80.prm

>  <SCORE>
-3.23297

>  <SCORE.INTER>
-0.842464

>  <SCORE.INTER.CONST>
1

>  <SCORE.INTER.POLAR>
0

>  <SCORE.INTER.ROT>
5

>  <SCORE.INTER.SOLV>
2.05586

>  <SCORE.INTER.VDW>
-8.18026

>  <SCORE.INTER.norm>
-0.0936071

>  <SCORE.INTRA>
-2.39051

>  <SCORE.INTRA.DIHEDRAL>
-5.09212

>  <SCORE.INTRA.DIHEDRAL.0>
7.73744

>  <SCORE.INTRA.POLAR>
0

>  <SCORE.INTRA.POLAR.0>
0

>  <SCORE.INTRA.REPUL>
0

>  <SCORE.INTRA.REPUL.0>
0

>  <SCORE.INTRA.SOLV>
0.0262522

>  <SCORE.INTRA.SOLV.lig_0>
-15.8342

>  <SCORE.INTRA.VDW>
0.142426

>  <SCORE.INTRA.VDW.0>
-0.219494

>  <SCORE.INTRA.norm>
-0.265612

>  <SCORE.RESTR>
0

>  <SCORE.RESTR.CAVITY>
0

>  <SCORE.RESTR.norm>
0

>  <SCORE.SYSTEM>
0

>  <SCORE.SYSTEM.CONST>
0

>  <SCORE.SYSTEM.DIHEDRAL>
0

>  <SCORE.SYSTEM.SOLV>
0

>  <SCORE.SYSTEM.norm>
0

>  <SCORE.heavy>
9

>  <SCORE.norm>
-0.359219

>  <RMSD>
21.489

$$$$
ligand
 OpenBabel02271912143D
libRbt.so/2013.1/901 2013/11/27
  9  8  0  0  0  0  0  0  0  0999 V2000
  -29.5749   67.0179  -11.9986 C   0  0  0  0  0  0  0  0  0  0  0  0
  -29.2584   66.5253  -13.1418 O   0  0  0  0  0  0  0  0  0  0  0  0
  -28.5921   67.0331  -10.9076 C   0  0  0  0  0  0  0  0  0  0  0  0
  -30.7472   67.4603  -11.7668 O   0  0  0  0  0  0  0  0  0  0  0  0
  -28.6413   65.8576   -9.9840 C   0  0  0  0  0  0  0  0  0  0  0  0
  -29.8866   65.6360   -9.2073 C   0  0  0  0  0  0  0  0  0  0  0  0
  -30.1703   66.6934   -8.1537 C   0  0  0  0  0  0  0  0  0  0  0  0
  -30.5692   68.1115   -8.5916 C   0  0  0  0  0  0  0  0  0  0  0  0
  -30.8958   69.0213   -7.6068 N   0  0  0  0  0  0  0  0  0  0  0  0
  1  2  1  0  0  0  0
  1  3  1  0  0  0  0
  1  4  1  0  0  0  0
  3  5  1  0  0  0  0
  5  6  1  0  0  0  0
  6  7  1  0  0  0  0
  7  8  1  0  0  0  0
  8  9  1  0  0  0  0
M  END
>  <CHROM.1>
-93.06916027,-61.99566585,-67.53768804,69.74119847,176.22937459,-29.82448748
67.03820264,-10.19318907,1.10531107,0.98066501,-1.44658341

>  <Name>
ligand

>  <RI>
0

>  <Rbt.Current_Directory>
/home/itssahil/PROJECTS/Mol_Feturizer/Test_systems_manuscript/rnas/4erj

>  <Rbt.Executable>
rbdock ($Id: //depot/dev/client3/rdock/2013.1/src/exe/rbdock.cxx#4 $)

>  <Rbt.Library>
libRbt.so (2013.1, Build901 2013/11/27)

>  <Rbt.Parameter_File>
/export/apps/rDock/src/rDock_2013.1_src/data/scripts/dock_solv.prm

>  <Rbt.Receptor>
prm/blind_docking_80.prm

>  <SCORE>
-5.97962

>  <SCORE.INTER>
-3.2365

>  <SCORE.INTER.CONST>
1

>  <SCORE.INTER.POLAR>
0

>  <SCORE.INTER.ROT>
5

>  <SCORE.INTER.SOLV>
5.0259

>  <SCORE.INTER.VDW>
-10.7663

>  <SCORE.INTER.norm>
-0.359611

>  <SCORE.INTRA>
-2.74312

>  <SCORE.INTRA.DIHEDRAL>
-5.46066

>  <SCORE.INTRA.DIHEDRAL.0>
7.73744

>  <SCORE.INTRA.POLAR>
0

>  <SCORE.INTRA.POLAR.0>
0

>  <SCORE.INTRA.REPUL>
0

>  <SCORE.INTRA.REPUL.0>
0

>  <SCORE.INTRA.SOLV>
0.153379

>  <SCORE.INTRA.SOLV.lig_0>
-15.8342

>  <SCORE.INTRA.VDW>
-0.0894737

>  <SCORE.INTRA.VDW.0>
-0.219494

>  <SCORE.INTRA.norm>
-0.304791

>  <SCORE.RESTR>
0

>  <SCORE.RESTR.CAVITY>
0

>  <SCORE.RESTR.norm>
0

>  <SCORE.SYSTEM>
0

>  <SCORE.SYSTEM.CONST>
0

>  <SCORE.SYSTEM.DIHEDRAL>
0

>  <SCORE.SYSTEM.SOLV>
0

>  <SCORE.SYSTEM.norm>
0

>  <SCORE.heavy>
9

>  <SCORE.norm>
-0.664402

>  <RMSD>
21.608

$$$$
ligand
 OpenBabel02271912143D
libRbt.so/2013.1/901 2013/11/27
  9  8  0  0  0  0  0  0  0  0999 V2000
  -29.7810   64.4145  -10.5406 C   0  0  0  0  0  0  0  0  0  0  0  0
  -30.2327   63.4843   -9.7786 O   0  0  0  0  0  0  0  0  0  0  0  0
  -28.7161   65.3047  -10.0610 C   0  0  0  0  0  0  0  0  0  0  0  0
  -30.2669   64.6182  -11.7008 O   0  0  0  0  0  0  0  0  0  0  0  0
  -29.1324   66.3042   -9.0290 C   0  0  0  0  0  0  0  0  0  0  0  0
  -30.1004   67.3553   -9.4306 C   0  0  0  0  0  0  0  0  0  0  0  0
  -30.4094   68.3759   -8.3483 C   0  0  0  0  0  0  0  0  0  0  0  0
  -31.3571   69.5454   -8.6581 C   0  0  0  0  0  0  0  0  0  0  0  0
  -32.6683   69.2467   -8.9674 N   0  0  0  0  0  0  0  0  0  0  0  0
  1  2  1  0  0  0  0
  1  3  1  0  0  0  0
  1  4  1  0  0  0  0
  3  5  1  0  0  0  0
  5  6  1  0  0  0  0
  6  7  1  0  0  0  0
  7  8  1  0  0  0  0
  8  9  1  0  0  0  0
M  END
>  <CHROM.1>
-72.31479512,-65.38067747,-176.67138160,177.71922275,63.63131765,-30.30233876
66.47331152,-9.63294100,1.21353658,0.42524367,-2.63173316

>  <Name>
ligand

>  <RI>
0

>  <Rbt.Current_Directory>
/home/itssahil/PROJECTS/Mol_Feturizer/Test_systems_manuscript/rnas/4erj

>  <Rbt.Executable>
rbdock ($Id: //depot/dev/client3/rdock/2013.1/src/exe/rbdock.cxx#4 $)

>  <Rbt.Library>
libRbt.so (2013.1, Build901 2013/11/27)

>  <Rbt.Parameter_File>
/export/apps/rDock/src/rDock_2013.1_src/data/scripts/dock_solv.prm

>  <Rbt.Receptor>
prm/blind_docking_80.prm

>  <SCORE>
-4.41018

>  <SCORE.INTER>
-1.19747

>  <SCORE.INTER.CONST>
1

>  <SCORE.INTER.POLAR>
0

>  <SCORE.INTER.ROT>
5

>  <SCORE.INTER.SOLV>
2.64164

>  <SCORE.INTER.VDW>
-8.61219

>  <SCORE.INTER.norm>
-0.133052

>  <SCORE.INTRA>
-3.21271

>  <SCORE.INTRA.DIHEDRAL>
-5.88414

>  <SCORE.INTRA.DIHEDRAL.0>
7.73744

>  <SCORE.INTRA.POLAR>
0

>  <SCORE.INTRA.POLAR.0>
0

>  <SCORE.INTRA.REPUL>
0

>  <SCORE.INTRA.REPUL.0>
0

>  <SCORE.INTRA.SOLV>
0.483871

>  <SCORE.INTRA.SOLV.lig_0>
-15.8342

>  <SCORE.INTRA.VDW>
-0.512577

>  <SCORE.INTRA.VDW.0>
-0.219494

>  <SCORE.INTRA.norm>
-0.356968

>  <SCORE.RESTR>
0

>  <SCORE.RESTR.CAVITY>
0

>  <SCORE.RESTR.norm>
0

>  <SCORE.SYSTEM>
0

>  <SCORE.SYSTEM.CONST>
0

>  <SCORE.SYSTEM.DIHEDRAL>
0

>  <SCORE.SYSTEM.SOLV>
0

>  <SCORE.SYSTEM.norm>
0

>  <SCORE.heavy>
9

>  <SCORE.norm>
-0.49002

>  <RMSD>
21.619

$$$$
ligand
 OpenBabel02271912143D
libRbt.so/2013.1/901 2013/11/27
  9  8  0  0  0  0  0  0  0  0999 V2000
  -28.7780   66.9711  -10.6563 C   0  0  0  0  0  0  0  0  0  0  0  0
  -29.3166   67.9184   -9.9764 O   0  0  0  0  0  0  0  0  0  0  0  0
  -28.4447   65.6975  -10.0058 C   0  0  0  0  0  0  0  0  0  0  0  0
  -28.4800   67.1217  -11.8860 O   0  0  0  0  0  0  0  0  0  0  0  0
  -29.6129   64.8313   -9.6559 C   0  0  0  0  0  0  0  0  0  0  0  0
  -30.6189   65.3715   -8.7077 C   0  0  0  0  0  0  0  0  0  0  0  0
  -31.7511   64.4143   -8.3751 C   0  0  0  0  0  0  0  0  0  0  0  0
  -32.8644   64.8621   -7.4150 C   0  0  0  0  0  0  0  0  0  0  0  0
  -33.6274   65.9529   -7.7782 N   0  0  0  0  0  0  0  0  0  0  0  0
  1  2  1  0  0  0  0
  1  3  1  0  0  0  0
  1  4  1  0  0  0  0
  3  5  1  0  0  0  0
  5  6  1  0  0  0  0
  6  7  1  0  0  0  0
  7  8  1  0  0  0  0
  8  9  1  0  0  0  0
M  END
>  <CHROM.1>
72.23417253,-61.00058320,-178.32095557,-179.38351811,60.95817478,-30.36716608
65.93747811,-9.41192641,0.50847516,0.52891887,-0.30535608

>  <Name>
ligand

>  <RI>
0

>  <Rbt.Current_Directory>
/home/itssahil/PROJECTS/Mol_Feturizer/Test_systems_manuscript/rnas/4erj

>  <Rbt.Executable>
rbdock ($Id: //depot/dev/client3/rdock/2013.1/src/exe/rbdock.cxx#4 $)

>  <Rbt.Library>
libRbt.so (2013.1, Build901 2013/11/27)

>  <Rbt.Parameter_File>
/export/apps/rDock/src/rDock_2013.1_src/data/scripts/dock_solv.prm

>  <Rbt.Receptor>
prm/blind_docking_80.prm

>  <SCORE>
-6.96973

>  <SCORE.INTER>
-3.85327

>  <SCORE.INTER.CONST>
1

>  <SCORE.INTER.POLAR>
0

>  <SCORE.INTER.ROT>
5

>  <SCORE.INTER.SOLV>
4.26783

>  <SCORE.INTER.VDW>
-10.9248

>  <SCORE.INTER.norm>
-0.428141

>  <SCORE.INTRA>
-3.11645

>  <SCORE.INTRA.DIHEDRAL>
-5.98112

>  <SCORE.INTRA.DIHEDRAL.0>
7.73744

>  <SCORE.INTRA.POLAR>
0

>  <SCORE.INTRA.POLAR.0>
0

>  <SCORE.INTRA.REPUL>
0

>  <SCORE.INTRA.REPUL.0>
0

>  <SCORE.INTRA.SOLV>
0.521752

>  <SCORE.INTRA.SOLV.lig_0>
-15.8342

>  <SCORE.INTRA.VDW>
-0.386767

>  <SCORE.INTRA.VDW.0>
-0.219494

>  <SCORE.INTRA.norm>
-0.346273

>  <SCORE.RESTR>
0

>  <SCORE.RESTR.CAVITY>
0

>  <SCORE.RESTR.norm>
0

>  <SCORE.SYSTEM>
0

>  <SCORE.SYSTEM.CONST>
0

>  <SCORE.SYSTEM.DIHEDRAL>
0

>  <SCORE.SYSTEM.SOLV>
0

>  <SCORE.SYSTEM.norm>
0

>  <SCORE.heavy>
9

>  <SCORE.norm>
-0.774414

>  <RMSD>
21.644

$$$$
ligand
 OpenBabel02271912143D
libRbt.so/2013.1/901 2013/11/27
  9  8  0  0  0  0  0  0  0  0999 V2000
  -28.7751   66.9765  -10.6479 C   0  0  0  0  0  0  0  0  0  0  0  0
  -29.3143   67.9216   -9.9654 O   0  0  0  0  0  0  0  0  0  0  0  0
  -28.4433   65.7005  -10.0013 C   0  0  0  0  0  0  0  0  0  0  0  0
  -28.4753   67.1312  -11.8766 O   0  0  0  0  0  0  0  0  0  0  0  0
  -29.6125   64.8342   -9.6549 C   0  0  0  0  0  0  0  0  0  0  0  0
  -30.6190   65.3725   -8.7061 C   0  0  0  0  0  0  0  0  0  0  0  0
  -31.7608   64.4212   -8.3898 C   0  0  0  0  0  0  0  0  0  0  0  0
  -32.8707   64.8644   -7.4236 C   0  0  0  0  0  0  0  0  0  0  0  0
  -33.6293   65.9622   -7.7749 N   0  0  0  0  0  0  0  0  0  0  0  0
  1  2  1  0  0  0  0
  1  3  1  0  0  0  0
  1  4  1  0  0  0  0
  3  5  1  0  0  0  0
  5  6  1  0  0  0  0
  6  7  1  0  0  0  0
  7  8  1  0  0  0  0
  8  9  1  0  0  0  0
M  END
>  <CHROM.1>
72.17948964,-60.97250104,-178.99943293,-179.77024476,61.43959257,-30.36779770
65.94237118,-9.40998825,0.50453665,0.52844273,-0.29945276

>  <Name>
ligand

>  <RI>
0

>  <Rbt.Current_Directory>
/home/itssahil/PROJECTS/Mol_Feturizer/Test_systems_manuscript/rnas/4erj

>  <Rbt.Executable>
rbdock ($Id: //depot/dev/client3/rdock/2013.1/src/exe/rbdock.cxx#4 $)

>  <Rbt.Library>
libRbt.so (2013.1, Build901 2013/11/27)

>  <Rbt.Parameter_File>
/export/apps/rDock/src/rDock_2013.1_src/data/scripts/dock_solv.prm

>  <Rbt.Receptor>
prm/blind_docking_80.prm

>  <SCORE>
-6.9733

>  <SCORE.INTER>
-3.85065

>  <SCORE.INTER.CONST>
1

>  <SCORE.INTER.POLAR>
0

>  <SCORE.INTER.ROT>
5

>  <SCORE.INTER.SOLV>
4.26175

>  <SCORE.INTER.VDW>
-10.921

>  <SCORE.INTER.norm>
-0.42785

>  <SCORE.INTRA>
-3.12265

>  <SCORE.INTRA.DIHEDRAL>
-5.98623

>  <SCORE.INTRA.DIHEDRAL.0>
7.73744

>  <SCORE.INTRA.POLAR>
0

>  <SCORE.INTRA.POLAR.0>
0

>  <SCORE.INTRA.REPUL>
0

>  <SCORE.INTRA.REPUL.0>
0

>  <SCORE.INTRA.SOLV>
0.515417

>  <SCORE.INTRA.SOLV.lig_0>
-15.8342

>  <SCORE.INTRA.VDW>
-0.387244

>  <SCORE.INTRA.VDW.0>
-0.219494

>  <SCORE.INTRA.norm>
-0.346961

>  <SCORE.RESTR>
0

>  <SCORE.RESTR.CAVITY>
0

>  <SCORE.RESTR.norm>
0

>  <SCORE.SYSTEM>
0

>  <SCORE.SYSTEM.CONST>
0

>  <SCORE.SYSTEM.DIHEDRAL>
0

>  <SCORE.SYSTEM.SOLV>
0

>  <SCORE.SYSTEM.norm>
0

>  <SCORE.heavy>
9

>  <SCORE.norm>
-0.774811

>  <RMSD>
21.644

$$$$
ligand
 OpenBabel02271912143D
libRbt.so/2013.1/901 2013/11/27
  9  8  0  0  0  0  0  0  0  0999 V2000
  -28.5994   66.0645  -10.3081 C   0  0  0  0  0  0  0  0  0  0  0  0
  -27.4974   65.8775   -9.6754 O   0  0  0  0  0  0  0  0  0  0  0  0
  -29.4712   64.9242  -10.6181 C   0  0  0  0  0  0  0  0  0  0  0  0
  -28.9423   67.2209  -10.7189 O   0  0  0  0  0  0  0  0  0  0  0  0
  -30.2295   64.3629   -9.4574 C   0  0  0  0  0  0  0  0  0  0  0  0
  -31.2281   65.2365   -8.7921 C   0  0  0  0  0  0  0  0  0  0  0  0
  -32.0938   64.5338   -7.7598 C   0  0  0  0  0  0  0  0  0  0  0  0
  -33.1750   65.3283   -7.0105 C   0  0  0  0  0  0  0  0  0  0  0  0
  -34.1944   65.8872   -7.7539 N   0  0  0  0  0  0  0  0  0  0  0  0
  1  2  1  0  0  0  0
  1  3  1  0  0  0  0
  1  4  1  0  0  0  0
  3  5  1  0  0  0  0
  5  6  1  0  0  0  0
  6  7  1  0  0  0  0
  7  8  1  0  0  0  0
  8  9  1  0  0  0  0
M  END
>  <CHROM.1>
73.94849598,63.77366280,171.54860980,-179.44405213,61.90292644,-30.56102714
65.51634569,-9.13623881,0.28752869,0.45250558,-0.32654845

>  <Name>
ligand

>  <RI>
0

>  <Rbt.Current_Directory>
/home/itssahil/PROJECTS/Mol_Feturizer/Test_systems_manuscript/rnas/4erj

>  <Rbt.Executable>
rbdock ($Id: //depot/dev/client3/rdock/2013.1/src/exe/rbdock.cxx#4 $)

>  <Rbt.Library>
libRbt.so (2013.1, Build901 2013/11/27)

>  <Rbt.Parameter_File>
/export/apps/rDock/src/rDock_2013.1_src/data/scripts/dock_solv.prm

>  <Rbt.Receptor>
prm/blind_docking_80.prm

>  <SCORE>
-5.28105

>  <SCORE.INTER>
-2.24541

>  <SCORE.INTER.CONST>
1

>  <SCORE.INTER.POLAR>
0

>  <SCORE.INTER.ROT>
5

>  <SCORE.INTER.SOLV>
3.90653

>  <SCORE.INTER.VDW>
-9.73245

>  <SCORE.INTER.norm>
-0.249491

>  <SCORE.INTRA>
-3.03564

>  <SCORE.INTRA.DIHEDRAL>
-5.62561

>  <SCORE.INTRA.DIHEDRAL.0>
7.73744

>  <SCORE.INTRA.POLAR>
0

>  <SCORE.INTRA.POLAR.0>
0

>  <SCORE.INTRA.REPUL>
0

>  <SCORE.INTRA.REPUL.0>
0

>  <SCORE.INTRA.SOLV>
0.512479

>  <SCORE.INTRA.SOLV.lig_0>
-15.8342

>  <SCORE.INTRA.VDW>
-0.479071

>  <SCORE.INTRA.VDW.0>
-0.219494

>  <SCORE.INTRA.norm>
-0.337293

>  <SCORE.RESTR>
0

>  <SCORE.RESTR.CAVITY>
0

>  <SCORE.RESTR.norm>
0

>  <SCORE.SYSTEM>
0

>  <SCORE.SYSTEM.CONST>
0

>  <SCORE.SYSTEM.DIHEDRAL>
0

>  <SCORE.SYSTEM.SOLV>
0

>  <SCORE.SYSTEM.norm>
0

>  <SCORE.heavy>
9

>  <SCORE.norm>
-0.586784

>  <RMSD>
21.644

$$$$
ligand
 OpenBabel02271912143D
libRbt.so/2013.1/901 2013/11/27
  9  8  0  0  0  0  0  0  0  0999 V2000
  -28.5342   66.3307  -10.2261 C   0  0  0  0  0  0  0  0  0  0  0  0
  -28.5871   67.2175  -11.1539 O   0  0  0  0  0  0  0  0  0  0  0  0
  -29.7402   65.9996   -9.4567 C   0  0  0  0  0  0  0  0  0  0  0  0
  -27.4404   65.7531   -9.9202 O   0  0  0  0  0  0  0  0  0  0  0  0
  -30.0207   66.8915   -8.2891 C   0  0  0  0  0  0  0  0  0  0  0  0
  -30.3029   68.3231   -8.5606 C   0  0  0  0  0  0  0  0  0  0  0  0
  -31.5916   68.5791   -9.3237 C   0  0  0  0  0  0  0  0  0  0  0  0
  -32.0142   70.0237   -9.6342 C   0  0  0  0  0  0  0  0  0  0  0  0
  -33.1919   70.2150  -10.3274 N   0  0  0  0  0  0  0  0  0  0  0  0
  1  2  1  0  0  0  0
  1  3  1  0  0  0  0
  1  4  1  0  0  0  0
  3  5  1  0  0  0  0
  5  6  1  0  0  0  0
  6  7  1  0  0  0  0
  7  8  1  0  0  0  0
  8  9  1  0  0  0  0
M  END
>  <CHROM.1>
-84.86698602,63.37964128,65.98769527,178.40830485,-179.91007955,-30.11718126
67.68738420,-9.67272034,-0.25894369,0.68208836,-1.10186486

>  <Name>
ligand

>  <RI>
0

>  <Rbt.Current_Directory>
/home/itssahil/PROJECTS/Mol_Feturizer/Test_systems_manuscript/rnas/4erj

>  <Rbt.Executable>
rbdock ($Id: //depot/dev/client3/rdock/2013.1/src/exe/rbdock.cxx#4 $)

>  <Rbt.Library>
libRbt.so (2013.1, Build901 2013/11/27)

>  <Rbt.Parameter_File>
/export/apps/rDock/src/rDock_2013.1_src/data/scripts/dock_solv.prm

>  <Rbt.Receptor>
prm/blind_docking_80.prm

>  <SCORE>
-6.45969

>  <SCORE.INTER>
-3.12287

>  <SCORE.INTER.CONST>
1

>  <SCORE.INTER.POLAR>
0

>  <SCORE.INTER.ROT>
5

>  <SCORE.INTER.SOLV>
3.18873

>  <SCORE.INTER.VDW>
-10.0782

>  <SCORE.INTER.norm>
-0.346986

>  <SCORE.INTRA>
-3.33682

>  <SCORE.INTRA.DIHEDRAL>
-5.94835

>  <SCORE.INTRA.DIHEDRAL.0>
7.73744

>  <SCORE.INTRA.POLAR>
0

>  <SCORE.INTRA.POLAR.0>
0

>  <SCORE.INTRA.REPUL>
0

>  <SCORE.INTRA.REPUL.0>
0

>  <SCORE.INTRA.SOLV>
-0.132622

>  <SCORE.INTRA.SOLV.lig_0>
-15.8342

>  <SCORE.INTRA.VDW>
-0.296335

>  <SCORE.INTRA.VDW.0>
-0.219494

>  <SCORE.INTRA.norm>
-0.370758

>  <SCORE.RESTR>
0

>  <SCORE.RESTR.CAVITY>
0

>  <SCORE.RESTR.norm>
0

>  <SCORE.SYSTEM>
0

>  <SCORE.SYSTEM.CONST>
0

>  <SCORE.SYSTEM.DIHEDRAL>
0

>  <SCORE.SYSTEM.SOLV>
0

>  <SCORE.SYSTEM.norm>
0

>  <SCORE.heavy>
9

>  <SCORE.norm>
-0.717743

>  <RMSD>
21.645

$$$$
ligand
 OpenBabel02271912143D
libRbt.so/2013.1/901 2013/11/27
  9  8  0  0  0  0  0  0  0  0999 V2000
  -29.4239   67.1018  -11.8676 C   0  0  0  0  0  0  0  0  0  0  0  0
  -29.1778   66.6323  -13.0376 O   0  0  0  0  0  0  0  0  0  0  0  0
  -28.4573   66.9068  -10.7795 C   0  0  0  0  0  0  0  0  0  0  0  0
  -30.5174   67.7025  -11.6087 O   0  0  0  0  0  0  0  0  0  0  0  0
  -28.7525   65.7675   -9.8563 C   0  0  0  0  0  0  0  0  0  0  0  0
  -30.0238   65.8047   -9.0913 C   0  0  0  0  0  0  0  0  0  0  0  0
  -30.1442   66.9695   -8.1230 C   0  0  0  0  0  0  0  0  0  0  0  0
  -31.4345   67.1462   -7.3070 C   0  0  0  0  0  0  0  0  0  0  0  0
  -31.5216   68.2392   -6.4693 N   0  0  0  0  0  0  0  0  0  0  0  0
  1  2  1  0  0  0  0
  1  3  1  0  0  0  0
  1  4  1  0  0  0  0
  3  5  1  0  0  0  0
  5  6  1  0  0  0  0
  6  7  1  0  0  0  0
  7  8  1  0  0  0  0
  8  9  1  0  0  0  0
M  END
>  <CHROM.1>
-97.87022769,-61.10584760,-62.63113415,177.91801485,-178.03904101,-29.94425573
66.92351863,-9.83914266,1.06290441,0.75802948,-1.32896699

>  <Name>
ligand

>  <RI>
0

>  <Rbt.Current_Directory>
/home/itssahil/PROJECTS/Mol_Feturizer/Test_systems_manuscript/rnas/4erj

>  <Rbt.Executable>
rbdock ($Id: //depot/dev/client3/rdock/2013.1/src/exe/rbdock.cxx#4 $)

>  <Rbt.Library>
libRbt.so (2013.1, Build901 2013/11/27)

>  <Rbt.Parameter_File>
/export/apps/rDock/src/rDock_2013.1_src/data/scripts/dock_solv.prm

>  <Rbt.Receptor>
prm/blind_docking_80.prm

>  <SCORE>
-5.81137

>  <SCORE.INTER>
-2.50799

>  <SCORE.INTER.CONST>
1

>  <SCORE.INTER.POLAR>
0

>  <SCORE.INTER.ROT>
5

>  <SCORE.INTER.SOLV>
4.36016

>  <SCORE.INTER.VDW>
-10.0587

>  <SCORE.INTER.norm>
-0.278665

>  <SCORE.INTRA>
-3.30338

>  <SCORE.INTRA.DIHEDRAL>
-6.0803

>  <SCORE.INTRA.DIHEDRAL.0>
7.73744

>  <SCORE.INTRA.POLAR>
0

>  <SCORE.INTRA.POLAR.0>
0

>  <SCORE.INTRA.REPUL>
0

>  <SCORE.INTRA.REPUL.0>
0

>  <SCORE.INTRA.SOLV>
-0.133748

>  <SCORE.INTRA.SOLV.lig_0>
-15.8342

>  <SCORE.INTRA.VDW>
-0.196361

>  <SCORE.INTRA.VDW.0>
-0.219494

>  <SCORE.INTRA.norm>
-0.367043

>  <SCORE.RESTR>
0

>  <SCORE.RESTR.CAVITY>
0

>  <SCORE.RESTR.norm>
0

>  <SCORE.SYSTEM>
0

>  <SCORE.SYSTEM.CONST>
0

>  <SCORE.SYSTEM.DIHEDRAL>
0

>  <SCORE.SYSTEM.SOLV>
0

>  <SCORE.SYSTEM.norm>
0

>  <SCORE.heavy>
9

>  <SCORE.norm>
-0.645708

>  <RMSD>
21.678

$$$$
ligand
 OpenBabel02271912143D
libRbt.so/2013.1/901 2013/11/27
  9  8  0  0  0  0  0  0  0  0999 V2000
  -28.5530   66.5137  -10.3895 C   0  0  0  0  0  0  0  0  0  0  0  0
  -27.6567   65.7708   -9.8465 O   0  0  0  0  0  0  0  0  0  0  0  0
  -29.8844   66.6232   -9.7798 C   0  0  0  0  0  0  0  0  0  0  0  0
  -28.3315   67.1327  -11.4810 O   0  0  0  0  0  0  0  0  0  0  0  0
  -29.8968   66.7985   -8.2944 C   0  0  0  0  0  0  0  0  0  0  0  0
  -31.2081   67.0038   -7.6300 C   0  0  0  0  0  0  0  0  0  0  0  0
  -31.9007   68.3076   -7.9891 C   0  0  0  0  0  0  0  0  0  0  0  0
  -33.2694   68.6338   -7.3709 C   0  0  0  0  0  0  0  0  0  0  0  0
  -33.8695   69.8241   -7.7275 N   0  0  0  0  0  0  0  0  0  0  0  0
  1  2  1  0  0  0  0
  1  3  1  0  0  0  0
  1  4  1  0  0  0  0
  3  5  1  0  0  0  0
  5  6  1  0  0  0  0
  6  7  1  0  0  0  0
  7  8  1  0  0  0  0
  8  9  1  0  0  0  0
M  END
>  <CHROM.1>
44.22403338,176.10037107,-66.15929236,179.71435123,-179.64992844,-30.46061985
67.38527329,-8.97579077,0.18566623,0.63993265,-1.02428625

>  <Name>
ligand

>  <RI>
0

>  <Rbt.Current_Directory>
/home/itssahil/PROJECTS/Mol_Feturizer/Test_systems_manuscript/rnas/4erj

>  <Rbt.Executable>
rbdock ($Id: //depot/dev/client3/rdock/2013.1/src/exe/rbdock.cxx#4 $)

>  <Rbt.Library>
libRbt.so (2013.1, Build901 2013/11/27)

>  <Rbt.Parameter_File>
/export/apps/rDock/src/rDock_2013.1_src/data/scripts/dock_solv.prm

>  <Rbt.Receptor>
prm/blind_docking_80.prm

>  <SCORE>
-4.47393

>  <SCORE.INTER>
-1.54727

>  <SCORE.INTER.CONST>
1

>  <SCORE.INTER.POLAR>
0

>  <SCORE.INTER.ROT>
5

>  <SCORE.INTER.SOLV>
2.00874

>  <SCORE.INTER.VDW>
-8.63443

>  <SCORE.INTER.norm>
-0.171919

>  <SCORE.INTRA>
-2.92666

>  <SCORE.INTRA.DIHEDRAL>
-5.9133

>  <SCORE.INTRA.DIHEDRAL.0>
7.73744

>  <SCORE.INTRA.POLAR>
0

>  <SCORE.INTRA.POLAR.0>
0

>  <SCORE.INTRA.REPUL>
0

>  <SCORE.INTRA.REPUL.0>
0

>  <SCORE.INTRA.SOLV>
-0.122706

>  <SCORE.INTRA.SOLV.lig_0>
-15.8342

>  <SCORE.INTRA.VDW>
0.0913442

>  <SCORE.INTRA.VDW.0>
-0.219494

>  <SCORE.INTRA.norm>
-0.325184

>  <SCORE.RESTR>
0

>  <SCORE.RESTR.CAVITY>
0

>  <SCORE.RESTR.norm>
0

>  <SCORE.SYSTEM>
0

>  <SCORE.SYSTEM.CONST>
0

>  <SCORE.SYSTEM.DIHEDRAL>
0

>  <SCORE.SYSTEM.SOLV>
0

>  <SCORE.SYSTEM.norm>
0

>  <SCORE.heavy>
9

>  <SCORE.norm>
-0.497103

>  <RMSD>
21.688

$$$$
ligand
 OpenBabel02271912143D
libRbt.so/2013.1/901 2013/11/27
  9  8  0  0  0  0  0  0  0  0999 V2000
  -30.0493   64.4919  -10.2884 C   0  0  0  0  0  0  0  0  0  0  0  0
  -30.1820   65.4772  -11.1017 O   0  0  0  0  0  0  0  0  0  0  0  0
  -31.2320   63.9066   -9.6443 C   0  0  0  0  0  0  0  0  0  0  0  0
  -28.9011   64.0291   -9.9863 O   0  0  0  0  0  0  0  0  0  0  0  0
  -31.4766   64.3436   -8.2349 C   0  0  0  0  0  0  0  0  0  0  0  0
  -31.8730   65.7552   -8.0042 C   0  0  0  0  0  0  0  0  0  0  0  0
  -30.7724   66.7705   -8.2623 C   0  0  0  0  0  0  0  0  0  0  0  0
  -31.0605   68.2670   -8.0646 C   0  0  0  0  0  0  0  0  0  0  0  0
  -30.0514   69.1611   -8.3584 N   0  0  0  0  0  0  0  0  0  0  0  0
  1  2  1  0  0  0  0
  1  3  1  0  0  0  0
  1  4  1  0  0  0  0
  3  5  1  0  0  0  0
  5  6  1  0  0  0  0
  6  7  1  0  0  0  0
  7  8  1  0  0  0  0
  8  9  1  0  0  0  0
M  END
>  <CHROM.1>
-100.39232928,68.21101931,-69.77739978,179.74066555,-177.56029882,-30.59787340
65.78806889,-9.13082101,-1.39668049,0.80668842,0.29897546

>  <Name>
ligand

>  <RI>
0

>  <Rbt.Current_Directory>
/home/itssahil/PROJECTS/Mol_Feturizer/Test_systems_manuscript/rnas/4erj

>  <Rbt.Executable>
rbdock ($Id: //depot/dev/client3/rdock/2013.1/src/exe/rbdock.cxx#4 $)

>  <Rbt.Library>
libRbt.so (2013.1, Build901 2013/11/27)

>  <Rbt.Parameter_File>
/export/apps/rDock/src/rDock_2013.1_src/data/scripts/dock_solv.prm

>  <Rbt.Receptor>
prm/blind_docking_80.prm

>  <SCORE>
0.105936

>  <SCORE.INTER>
3.27627

>  <SCORE.INTER.CONST>
1

>  <SCORE.INTER.POLAR>
0

>  <SCORE.INTER.ROT>
5

>  <SCORE.INTER.SOLV>
6.30364

>  <SCORE.INTER.VDW>
-6.85037

>  <SCORE.INTER.norm>
0.364029

>  <SCORE.INTRA>
-3.17033

>  <SCORE.INTRA.DIHEDRAL>
-5.44675

>  <SCORE.INTRA.DIHEDRAL.0>
7.73744

>  <SCORE.INTRA.POLAR>
0

>  <SCORE.INTRA.POLAR.0>
0

>  <SCORE.INTRA.REPUL>
0

>  <SCORE.INTRA.REPUL.0>
0

>  <SCORE.INTRA.SOLV>
-0.137135

>  <SCORE.INTRA.SOLV.lig_0>
-15.8342

>  <SCORE.INTRA.VDW>
-0.378385

>  <SCORE.INTRA.VDW.0>
-0.219494

>  <SCORE.INTRA.norm>
-0.352259

>  <SCORE.RESTR>
0

>  <SCORE.RESTR.CAVITY>
0

>  <SCORE.RESTR.norm>
0

>  <SCORE.SYSTEM>
0

>  <SCORE.SYSTEM.CONST>
0

>  <SCORE.SYSTEM.DIHEDRAL>
0

>  <SCORE.SYSTEM.SOLV>
0

>  <SCORE.SYSTEM.norm>
0

>  <SCORE.heavy>
9

>  <SCORE.norm>
0.0117706

>  <RMSD>
21.698

$$$$
ligand
 OpenBabel02271912143D
libRbt.so/2013.1/901 2013/11/27
  9  8  0  0  0  0  0  0  0  0999 V2000
  -29.1269   64.3501   -9.9946 C   0  0  0  0  0  0  0  0  0  0  0  0
  -30.0220   64.1266   -9.1009 O   0  0  0  0  0  0  0  0  0  0  0  0
  -28.3588   65.6013   -9.9681 C   0  0  0  0  0  0  0  0  0  0  0  0
  -28.9133   63.5257  -10.9424 O   0  0  0  0  0  0  0  0  0  0  0  0
  -29.1711   66.8542  -10.0563 C   0  0  0  0  0  0  0  0  0  0  0  0
  -30.0612   67.1867   -8.9161 C   0  0  0  0  0  0  0  0  0  0  0  0
  -30.8352   68.4843   -9.0767 C   0  0  0  0  0  0  0  0  0  0  0  0
  -31.8600   68.6195  -10.2140 C   0  0  0  0  0  0  0  0  0  0  0  0
  -32.4836   69.8397  -10.3768 N   0  0  0  0  0  0  0  0  0  0  0  0
  1  2  1  0  0  0  0
  1  3  1  0  0  0  0
  1  4  1  0  0  0  0
  3  5  1  0  0  0  0
  5  6  1  0  0  0  0
  6  7  1  0  0  0  0
  7  8  1  0  0  0  0
  8  9  1  0  0  0  0
M  END
>  <CHROM.1>
-58.73163314,67.18236108,179.16308813,63.44545127,-176.16261290,-30.08802193
66.46062648,-9.85247381,1.03346415,0.34490419,-2.90311537

>  <Name>
ligand

>  <RI>
0

>  <Rbt.Current_Directory>
/home/itssahil/PROJECTS/Mol_Feturizer/Test_systems_manuscript/rnas/4erj

>  <Rbt.Executable>
rbdock ($Id: //depot/dev/client3/rdock/2013.1/src/exe/rbdock.cxx#4 $)

>  <Rbt.Library>
libRbt.so (2013.1, Build901 2013/11/27)

>  <Rbt.Parameter_File>
/export/apps/rDock/src/rDock_2013.1_src/data/scripts/dock_solv.prm

>  <Rbt.Receptor>
prm/blind_docking_80.prm

>  <SCORE>
-4.80078

>  <SCORE.INTER>
-1.86136

>  <SCORE.INTER.CONST>
1

>  <SCORE.INTER.POLAR>
0

>  <SCORE.INTER.ROT>
5

>  <SCORE.INTER.SOLV>
3.40196

>  <SCORE.INTER.VDW>
-9.30823

>  <SCORE.INTER.norm>
-0.206817

>  <SCORE.INTRA>
-2.93942

>  <SCORE.INTRA.DIHEDRAL>
-5.73482

>  <SCORE.INTRA.DIHEDRAL.0>
7.73744

>  <SCORE.INTRA.POLAR>
0

>  <SCORE.INTRA.POLAR.0>
0

>  <SCORE.INTRA.REPUL>
0

>  <SCORE.INTRA.REPUL.0>
0

>  <SCORE.INTRA.SOLV>
0.0546992

>  <SCORE.INTRA.SOLV.lig_0>
-15.8342

>  <SCORE.INTRA.VDW>
-0.0993614

>  <SCORE.INTRA.VDW.0>
-0.219494

>  <SCORE.INTRA.norm>
-0.326603

>  <SCORE.RESTR>
0

>  <SCORE.RESTR.CAVITY>
0

>  <SCORE.RESTR.norm>
0

>  <SCORE.SYSTEM>
0

>  <SCORE.SYSTEM.CONST>
0

>  <SCORE.SYSTEM.DIHEDRAL>
0

>  <SCORE.SYSTEM.SOLV>
0

>  <SCORE.SYSTEM.norm>
0

>  <SCORE.heavy>
9

>  <SCORE.norm>
-0.53342

>  <RMSD>
21.703

$$$$
ligand
 OpenBabel02271912143D
libRbt.so/2013.1/901 2013/11/27
  9  8  0  0  0  0  0  0  0  0999 V2000
  -30.3437   62.7753  -10.6498 C   0  0  0  0  0  0  0  0  0  0  0  0
  -30.1268   62.1956  -11.7753 O   0  0  0  0  0  0  0  0  0  0  0  0
  -29.4607   63.8586  -10.1991 C   0  0  0  0  0  0  0  0  0  0  0  0
  -31.2901   62.4033   -9.8819 O   0  0  0  0  0  0  0  0  0  0  0  0
  -30.1516   65.1206   -9.7901 C   0  0  0  0  0  0  0  0  0  0  0  0
  -29.3150   66.3210   -9.5403 C   0  0  0  0  0  0  0  0  0  0  0  0
  -28.5280   66.8044  -10.7468 C   0  0  0  0  0  0  0  0  0  0  0  0
  -29.2765   67.2160  -12.0243 C   0  0  0  0  0  0  0  0  0  0  0  0
  -29.9817   66.2409  -12.6996 N   0  0  0  0  0  0  0  0  0  0  0  0
  1  2  1  0  0  0  0
  1  3  1  0  0  0  0
  1  4  1  0  0  0  0
  3  5  1  0  0  0  0
  5  6  1  0  0  0  0
  6  7  1  0  0  0  0
  7  8  1  0  0  0  0
  8  9  1  0  0  0  0
M  END
>  <CHROM.1>
128.21872031,-170.10769577,61.58646006,59.41125891,-64.53362717,-29.84937255
64.72569943,-10.81468470,2.92945447,1.25945310,1.63917977

>  <Name>
ligand

>  <RI>
0

>  <Rbt.Current_Directory>
/home/itssahil/PROJECTS/Mol_Feturizer/Test_systems_manuscript/rnas/4erj

>  <Rbt.Executable>
rbdock ($Id: //depot/dev/client3/rdock/2013.1/src/exe/rbdock.cxx#4 $)

>  <Rbt.Library>
libRbt.so (2013.1, Build901 2013/11/27)

>  <Rbt.Parameter_File>
/export/apps/rDock/src/rDock_2013.1_src/data/scripts/dock_solv.prm

>  <Rbt.Receptor>
prm/blind_docking_80.prm

>  <SCORE>
-3.13974

>  <SCORE.INTER>
-1.74321

>  <SCORE.INTER.CONST>
1

>  <SCORE.INTER.POLAR>
0

>  <SCORE.INTER.ROT>
5

>  <SCORE.INTER.SOLV>
5.56416

>  <SCORE.INTER.VDW>
-9.9502

>  <SCORE.INTER.norm>
-0.19369

>  <SCORE.INTRA>
-1.39653

>  <SCORE.INTRA.DIHEDRAL>
-5.6031

>  <SCORE.INTRA.DIHEDRAL.0>
7.73744

>  <SCORE.INTRA.POLAR>
0

>  <SCORE.INTRA.POLAR.0>
0

>  <SCORE.INTRA.REPUL>
0

>  <SCORE.INTRA.REPUL.0>
0

>  <SCORE.INTRA.SOLV>
2.41354

>  <SCORE.INTRA.SOLV.lig_0>
-15.8342

>  <SCORE.INTRA.VDW>
0.198252

>  <SCORE.INTRA.VDW.0>
-0.219494

>  <SCORE.INTRA.norm>
-0.15517

>  <SCORE.RESTR>
0

>  <SCORE.RESTR.CAVITY>
0

>  <SCORE.RESTR.norm>
0

>  <SCORE.SYSTEM>
0

>  <SCORE.SYSTEM.CONST>
0

>  <SCORE.SYSTEM.DIHEDRAL>
0

>  <SCORE.SYSTEM.SOLV>
0

>  <SCORE.SYSTEM.norm>
0

>  <SCORE.heavy>
9

>  <SCORE.norm>
-0.34886

>  <RMSD>
21.743

$$$$
ligand
 OpenBabel02271912143D
libRbt.so/2013.1/901 2013/11/27
  9  8  0  0  0  0  0  0  0  0999 V2000
  -29.0057   66.2220  -10.9845 C   0  0  0  0  0  0  0  0  0  0  0  0
  -29.8047   65.3892  -11.5483 O   0  0  0  0  0  0  0  0  0  0  0  0
  -28.6695   66.0702   -9.5631 C   0  0  0  0  0  0  0  0  0  0  0  0
  -28.5236   67.2155  -11.6203 O   0  0  0  0  0  0  0  0  0  0  0  0
  -29.7474   66.4640   -8.6038 C   0  0  0  0  0  0  0  0  0  0  0  0
  -30.2645   67.8536   -8.6722 C   0  0  0  0  0  0  0  0  0  0  0  0
  -31.3219   68.1857   -7.6329 C   0  0  0  0  0  0  0  0  0  0  0  0
  -31.9401   69.5925   -7.6037 C   0  0  0  0  0  0  0  0  0  0  0  0
  -32.9052   69.8518   -6.6521 N   0  0  0  0  0  0  0  0  0  0  0  0
  1  2  1  0  0  0  0
  1  3  1  0  0  0  0
  1  4  1  0  0  0  0
  3  5  1  0  0  0  0
  5  6  1  0  0  0  0
  6  7  1  0  0  0  0
  7  8  1  0  0  0  0
  8  9  1  0  0  0  0
M  END
>  <CHROM.1>
-74.39147502,-58.11473044,-177.96571347,-179.76769370,179.46757023,-30.22835527
67.41110598,-9.25458966,0.30549634,0.98092407,-1.05117651

>  <Name>
ligand

>  <RI>
0

>  <Rbt.Current_Directory>
/home/itssahil/PROJECTS/Mol_Feturizer/Test_systems_manuscript/rnas/4erj

>  <Rbt.Executable>
rbdock ($Id: //depot/dev/client3/rdock/2013.1/src/exe/rbdock.cxx#4 $)

>  <Rbt.Library>
libRbt.so (2013.1, Build901 2013/11/27)

>  <Rbt.Parameter_File>
/export/apps/rDock/src/rDock_2013.1_src/data/scripts/dock_solv.prm

>  <Rbt.Receptor>
prm/blind_docking_80.prm

>  <SCORE>
-5.25953

>  <SCORE.INTER>
-1.70443

>  <SCORE.INTER.CONST>
1

>  <SCORE.INTER.POLAR>
0

>  <SCORE.INTER.ROT>
5

>  <SCORE.INTER.SOLV>
3.27691

>  <SCORE.INTER.VDW>
-9.16192

>  <SCORE.INTER.norm>
-0.189381

>  <SCORE.INTRA>
-3.5551

>  <SCORE.INTRA.DIHEDRAL>
-6.09707

>  <SCORE.INTRA.DIHEDRAL.0>
7.73744

>  <SCORE.INTRA.POLAR>
0

>  <SCORE.INTRA.POLAR.0>
0

>  <SCORE.INTRA.REPUL>
0

>  <SCORE.INTRA.REPUL.0>
0

>  <SCORE.INTRA.SOLV>
-0.12373

>  <SCORE.INTRA.SOLV.lig_0>
-15.8342

>  <SCORE.INTRA.VDW>
-0.444697

>  <SCORE.INTRA.VDW.0>
-0.219494

>  <SCORE.INTRA.norm>
-0.395011

>  <SCORE.RESTR>
0

>  <SCORE.RESTR.CAVITY>
0

>  <SCORE.RESTR.norm>
0

>  <SCORE.SYSTEM>
0

>  <SCORE.SYSTEM.CONST>
0

>  <SCORE.SYSTEM.DIHEDRAL>
0

>  <SCORE.SYSTEM.SOLV>
0

>  <SCORE.SYSTEM.norm>
0

>  <SCORE.heavy>
9

>  <SCORE.norm>
-0.584392

>  <RMSD>
21.752

$$$$
ligand
 OpenBabel02271912143D
libRbt.so/2013.1/901 2013/11/27
  9  8  0  0  0  0  0  0  0  0999 V2000
  -28.7460   66.9520  -10.6580 C   0  0  0  0  0  0  0  0  0  0  0  0
  -28.4989   67.0751  -11.9125 O   0  0  0  0  0  0  0  0  0  0  0  0
  -28.4399   65.6918   -9.9692 C   0  0  0  0  0  0  0  0  0  0  0  0
  -29.2972   67.8893   -9.9938 O   0  0  0  0  0  0  0  0  0  0  0  0
  -29.6207   64.8280   -9.6580 C   0  0  0  0  0  0  0  0  0  0  0  0
  -30.6748   65.3847   -8.7737 C   0  0  0  0  0  0  0  0  0  0  0  0
  -31.8098   64.4238   -8.4617 C   0  0  0  0  0  0  0  0  0  0  0  0
  -33.0026   64.9072   -7.6219 C   0  0  0  0  0  0  0  0  0  0  0  0
  -32.7481   65.3610   -6.3438 N   0  0  0  0  0  0  0  0  0  0  0  0
  1  2  1  0  0  0  0
  1  3  1  0  0  0  0
  1  4  1  0  0  0  0
  3  5  1  0  0  0  0
  5  6  1  0  0  0  0
  6  7  1  0  0  0  0
  7  8  1  0  0  0  0
  8  9  1  0  0  0  0
M  END
>  <CHROM.1>
-104.51267239,-60.67418407,-177.59421241,-176.53495275,-59.94167180,-30.29600812
65.86800027,-9.29635514,0.35821807,0.74670719,0.00072101

>  <Name>
ligand

>  <RI>
0

>  <Rbt.Current_Directory>
/home/itssahil/PROJECTS/Mol_Feturizer/Test_systems_manuscript/rnas/4erj

>  <Rbt.Executable>
rbdock ($Id: //depot/dev/client3/rdock/2013.1/src/exe/rbdock.cxx#4 $)

>  <Rbt.Library>
libRbt.so (2013.1, Build901 2013/11/27)

>  <Rbt.Parameter_File>
/export/apps/rDock/src/rDock_2013.1_src/data/scripts/dock_solv.prm

>  <Rbt.Receptor>
prm/blind_docking_80.prm

>  <SCORE>
-6.53412

>  <SCORE.INTER>
-3.4095

>  <SCORE.INTER.CONST>
1

>  <SCORE.INTER.POLAR>
0

>  <SCORE.INTER.ROT>
5

>  <SCORE.INTER.SOLV>
5.84278

>  <SCORE.INTER.VDW>
-11.1539

>  <SCORE.INTER.norm>
-0.378833

>  <SCORE.INTRA>
-3.12462

>  <SCORE.INTRA.DIHEDRAL>
-6.04975

>  <SCORE.INTRA.DIHEDRAL.0>
7.73744

>  <SCORE.INTRA.POLAR>
0

>  <SCORE.INTRA.POLAR.0>
0

>  <SCORE.INTRA.REPUL>
0

>  <SCORE.INTRA.REPUL.0>
0

>  <SCORE.INTRA.SOLV>
0.516193

>  <SCORE.INTRA.SOLV.lig_0>
-15.8342

>  <SCORE.INTRA.VDW>
-0.357842

>  <SCORE.INTRA.VDW.0>
-0.219494

>  <SCORE.INTRA.norm>
-0.34718

>  <SCORE.RESTR>
0

>  <SCORE.RESTR.CAVITY>
0

>  <SCORE.RESTR.norm>
0

>  <SCORE.SYSTEM>
0

>  <SCORE.SYSTEM.CONST>
0

>  <SCORE.SYSTEM.DIHEDRAL>
0

>  <SCORE.SYSTEM.SOLV>
0

>  <SCORE.SYSTEM.norm>
0

>  <SCORE.heavy>
9

>  <SCORE.norm>
-0.726014

>  <RMSD>
21.777

$$$$
ligand
 OpenBabel02271912143D
libRbt.so/2013.1/901 2013/11/27
  9  8  0  0  0  0  0  0  0  0999 V2000
  -28.7388   66.9698  -10.6279 C   0  0  0  0  0  0  0  0  0  0  0  0
  -28.5533   67.0930  -11.8930 O   0  0  0  0  0  0  0  0  0  0  0  0
  -28.2729   65.7642   -9.9310 C   0  0  0  0  0  0  0  0  0  0  0  0
  -29.3630   67.8561   -9.9582 O   0  0  0  0  0  0  0  0  0  0  0  0
  -29.2825   64.6682   -9.8013 C   0  0  0  0  0  0  0  0  0  0  0  0
  -29.7813   64.0323  -11.0462 C   0  0  0  0  0  0  0  0  0  0  0  0
  -30.7753   62.9046  -10.8247 C   0  0  0  0  0  0  0  0  0  0  0  0
  -31.4251   62.2184  -12.0367 C   0  0  0  0  0  0  0  0  0  0  0  0
  -30.5933   61.6094  -12.9540 N   0  0  0  0  0  0  0  0  0  0  0  0
  1  2  1  0  0  0  0
  1  3  1  0  0  0  0
  1  4  1  0  0  0  0
  3  5  1  0  0  0  0
  5  6  1  0  0  0  0
  6  7  1  0  0  0  0
  7  8  1  0  0  0  0
  8  9  1  0  0  0  0
M  END
>  <CHROM.1>
-92.84042973,63.72053895,178.45270861,176.59061250,59.23975567,-29.63582819
64.83952586,-11.01123510,-0.19485239,-1.18419716,-1.47863255

>  <Name>
ligand

>  <RI>
0

>  <Rbt.Current_Directory>
/home/itssahil/PROJECTS/Mol_Feturizer/Test_systems_manuscript/rnas/4erj

>  <Rbt.Executable>
rbdock ($Id: //depot/dev/client3/rdock/2013.1/src/exe/rbdock.cxx#4 $)

>  <Rbt.Library>
libRbt.so (2013.1, Build901 2013/11/27)

>  <Rbt.Parameter_File>
/export/apps/rDock/src/rDock_2013.1_src/data/scripts/dock_solv.prm

>  <Rbt.Receptor>
prm/blind_docking_80.prm

>  <SCORE>
-6.4773

>  <SCORE.INTER>
-3.22684

>  <SCORE.INTER.CONST>
1

>  <SCORE.INTER.POLAR>
0

>  <SCORE.INTER.ROT>
5

>  <SCORE.INTER.SOLV>
4.16571

>  <SCORE.INTER.VDW>
-10.4731

>  <SCORE.INTER.norm>
-0.358538

>  <SCORE.INTRA>
-3.25046

>  <SCORE.INTRA.DIHEDRAL>
-6.03721

>  <SCORE.INTRA.DIHEDRAL.0>
7.73744

>  <SCORE.INTRA.POLAR>
0

>  <SCORE.INTRA.POLAR.0>
0

>  <SCORE.INTRA.REPUL>
0

>  <SCORE.INTRA.REPUL.0>
0

>  <SCORE.INTRA.SOLV>
0.523714

>  <SCORE.INTRA.SOLV.lig_0>
-15.8342

>  <SCORE.INTRA.VDW>
-0.493713

>  <SCORE.INTRA.VDW.0>
-0.219494

>  <SCORE.INTRA.norm>
-0.361162

>  <SCORE.RESTR>
0

>  <SCORE.RESTR.CAVITY>
0

>  <SCORE.RESTR.norm>
0

>  <SCORE.SYSTEM>
0

>  <SCORE.SYSTEM.CONST>
0

>  <SCORE.SYSTEM.DIHEDRAL>
0

>  <SCORE.SYSTEM.SOLV>
0

>  <SCORE.SYSTEM.norm>
0

>  <SCORE.heavy>
9

>  <SCORE.norm>
-0.719701

>  <RMSD>
21.813

$$$$
ligand
 OpenBabel02271912143D
libRbt.so/2013.1/901 2013/11/27
  9  8  0  0  0  0  0  0  0  0999 V2000
  -29.8788   63.0466  -11.1866 C   0  0  0  0  0  0  0  0  0  0  0  0
  -28.9085   62.5787  -11.8861 O   0  0  0  0  0  0  0  0  0  0  0  0
  -29.9885   64.4929  -10.9573 C   0  0  0  0  0  0  0  0  0  0  0  0
  -30.7367   62.2780  -10.6417 O   0  0  0  0  0  0  0  0  0  0  0  0
  -28.9255   65.0866  -10.0885 C   0  0  0  0  0  0  0  0  0  0  0  0
  -28.9997   66.5396   -9.7947 C   0  0  0  0  0  0  0  0  0  0  0  0
  -30.1799   66.9495   -8.9300 C   0  0  0  0  0  0  0  0  0  0  0  0
  -30.3846   68.4320   -8.5807 C   0  0  0  0  0  0  0  0  0  0  0  0
  -31.4754   68.7657   -7.8042 N   0  0  0  0  0  0  0  0  0  0  0  0
  1  2  1  0  0  0  0
  1  3  1  0  0  0  0
  1  4  1  0  0  0  0
  3  5  1  0  0  0  0
  5  6  1  0  0  0  0
  6  7  1  0  0  0  0
  7  8  1  0  0  0  0
  8  9  1  0  0  0  0
M  END
>  <CHROM.1>
-68.20632861,-178.64772023,67.39206341,-178.68077454,179.37337952,-29.93903423
65.29787374,-10.00632363,1.40907604,-0.41655588,-2.72259896

>  <Name>
ligand

>  <RI>
0

>  <Rbt.Current_Directory>
/home/itssahil/PROJECTS/Mol_Feturizer/Test_systems_manuscript/rnas/4erj

>  <Rbt.Executable>
rbdock ($Id: //depot/dev/client3/rdock/2013.1/src/exe/rbdock.cxx#4 $)

>  <Rbt.Library>
libRbt.so (2013.1, Build901 2013/11/27)

>  <Rbt.Parameter_File>
/export/apps/rDock/src/rDock_2013.1_src/data/scripts/dock_solv.prm

>  <Rbt.Receptor>
prm/blind_docking_80.prm

>  <SCORE>
-4.52036

>  <SCORE.INTER>
-1.3782

>  <SCORE.INTER.CONST>
1

>  <SCORE.INTER.POLAR>
0

>  <SCORE.INTER.ROT>
5

>  <SCORE.INTER.SOLV>
2.51393

>  <SCORE.INTER.VDW>
-8.69011

>  <SCORE.INTER.norm>
-0.153133

>  <SCORE.INTRA>
-3.14216

>  <SCORE.INTRA.DIHEDRAL>
-5.86199

>  <SCORE.INTRA.DIHEDRAL.0>
7.73744

>  <SCORE.INTRA.POLAR>
0

>  <SCORE.INTRA.POLAR.0>
0

>  <SCORE.INTRA.REPUL>
0

>  <SCORE.INTRA.REPUL.0>
0

>  <SCORE.INTRA.SOLV>
-0.122657

>  <SCORE.INTRA.SOLV.lig_0>
-15.8342

>  <SCORE.INTRA.VDW>
-0.149836

>  <SCORE.INTRA.VDW.0>
-0.219494

>  <SCORE.INTRA.norm>
-0.349129

>  <SCORE.RESTR>
0

>  <SCORE.RESTR.CAVITY>
0

>  <SCORE.RESTR.norm>
0

>  <SCORE.SYSTEM>
0

>  <SCORE.SYSTEM.CONST>
0

>  <SCORE.SYSTEM.DIHEDRAL>
0

>  <SCORE.SYSTEM.SOLV>
0

>  <SCORE.SYSTEM.norm>
0

>  <SCORE.heavy>
9

>  <SCORE.norm>
-0.502262

>  <RMSD>
21.821

$$$$
ligand
 OpenBabel02271912143D
libRbt.so/2013.1/901 2013/11/27
  9  8  0  0  0  0  0  0  0  0999 V2000
  -28.7612   65.6402  -10.1388 C   0  0  0  0  0  0  0  0  0  0  0  0
  -27.9306   65.9258   -9.2016 O   0  0  0  0  0  0  0  0  0  0  0  0
  -29.4236   64.3297  -10.1592 C   0  0  0  0  0  0  0  0  0  0  0  0
  -28.9977   66.4556  -11.0889 O   0  0  0  0  0  0  0  0  0  0  0  0
  -30.8510   64.3259   -9.7122 C   0  0  0  0  0  0  0  0  0  0  0  0
  -31.1456   64.7630   -8.3247 C   0  0  0  0  0  0  0  0  0  0  0  0
  -32.6067   64.6490   -7.9234 C   0  0  0  0  0  0  0  0  0  0  0  0
  -33.0253   64.9841   -6.4832 C   0  0  0  0  0  0  0  0  0  0  0  0
  -32.8675   66.2858   -6.0534 N   0  0  0  0  0  0  0  0  0  0  0  0
  1  2  1  0  0  0  0
  1  3  1  0  0  0  0
  1  4  1  0  0  0  0
  3  5  1  0  0  0  0
  5  6  1  0  0  0  0
  6  7  1  0  0  0  0
  7  8  1  0  0  0  0
  8  9  1  0  0  0  0
M  END
>  <CHROM.1>
103.69628272,-61.01786496,-176.43942494,176.05183725,64.73164439,-30.58569832
65.28461335,-8.80823514,-0.45293382,0.57281891,0.83674901

>  <Name>
ligand

>  <RI>
0

>  <Rbt.Current_Directory>
/home/itssahil/PROJECTS/Mol_Feturizer/Test_systems_manuscript/rnas/4erj

>  <Rbt.Executable>
rbdock ($Id: //depot/dev/client3/rdock/2013.1/src/exe/rbdock.cxx#4 $)

>  <Rbt.Library>
libRbt.so (2013.1, Build901 2013/11/27)

>  <Rbt.Parameter_File>
/export/apps/rDock/src/rDock_2013.1_src/data/scripts/dock_solv.prm

>  <Rbt.Receptor>
prm/blind_docking_80.prm

>  <SCORE>
-4.8854

>  <SCORE.INTER>
-1.74788

>  <SCORE.INTER.CONST>
1

>  <SCORE.INTER.POLAR>
0

>  <SCORE.INTER.ROT>
5

>  <SCORE.INTER.SOLV>
3.91624

>  <SCORE.INTER.VDW>
-9.404

>  <SCORE.INTER.norm>
-0.194209

>  <SCORE.INTRA>
-3.13752

>  <SCORE.INTRA.DIHEDRAL>
-5.77093

>  <SCORE.INTRA.DIHEDRAL.0>
7.73744

>  <SCORE.INTRA.POLAR>
0

>  <SCORE.INTRA.POLAR.0>
0

>  <SCORE.INTRA.REPUL>
0

>  <SCORE.INTRA.REPUL.0>
0

>  <SCORE.INTRA.SOLV>
0.466468

>  <SCORE.INTRA.SOLV.lig_0>
-15.8342

>  <SCORE.INTRA.VDW>
-0.485288

>  <SCORE.INTRA.VDW.0>
-0.219494

>  <SCORE.INTRA.norm>
-0.348613

>  <SCORE.RESTR>
0

>  <SCORE.RESTR.CAVITY>
0

>  <SCORE.RESTR.norm>
0

>  <SCORE.SYSTEM>
0

>  <SCORE.SYSTEM.CONST>
0

>  <SCORE.SYSTEM.DIHEDRAL>
0

>  <SCORE.SYSTEM.SOLV>
0

>  <SCORE.SYSTEM.norm>
0

>  <SCORE.heavy>
9

>  <SCORE.norm>
-0.542822

>  <RMSD>
21.841

$$$$
ligand
 OpenBabel02271912143D
libRbt.so/2013.1/901 2013/11/27
  9  8  0  0  0  0  0  0  0  0999 V2000
  -28.9779   66.0938  -10.6218 C   0  0  0  0  0  0  0  0  0  0  0  0
  -28.3526   66.9736  -11.3180 O   0  0  0  0  0  0  0  0  0  0  0  0
  -29.0849   66.2498   -9.1655 C   0  0  0  0  0  0  0  0  0  0  0  0
  -29.4776   65.0525  -11.1598 O   0  0  0  0  0  0  0  0  0  0  0  0
  -30.2625   67.0400   -8.6902 C   0  0  0  0  0  0  0  0  0  0  0  0
  -30.3564   67.3429   -7.2403 C   0  0  0  0  0  0  0  0  0  0  0  0
  -31.6534   68.0122   -6.8176 C   0  0  0  0  0  0  0  0  0  0  0  0
  -32.0092   69.3976   -7.3796 C   0  0  0  0  0  0  0  0  0  0  0  0
  -33.2023   69.9661   -6.9828 N   0  0  0  0  0  0  0  0  0  0  0  0
  1  2  1  0  0  0  0
  1  3  1  0  0  0  0
  1  4  1  0  0  0  0
  3  5  1  0  0  0  0
  5  6  1  0  0  0  0
  6  7  1  0  0  0  0
  7  8  1  0  0  0  0
  8  9  1  0  0  0  0
M  END
>  <CHROM.1>
88.48212517,-174.28223886,-173.52287871,-62.65654535,179.33013181,-30.35177811
67.32582751,-8.86594070,0.30107798,0.94436646,-1.05485054

>  <Name>
ligand

>  <RI>
0

>  <Rbt.Current_Directory>
/home/itssahil/PROJECTS/Mol_Feturizer/Test_systems_manuscript/rnas/4erj

>  <Rbt.Executable>
rbdock ($Id: //depot/dev/client3/rdock/2013.1/src/exe/rbdock.cxx#4 $)

>  <Rbt.Library>
libRbt.so (2013.1, Build901 2013/11/27)

>  <Rbt.Parameter_File>
/export/apps/rDock/src/rDock_2013.1_src/data/scripts/dock_solv.prm

>  <Rbt.Receptor>
prm/blind_docking_80.prm

>  <SCORE>
-3.55703

>  <SCORE.INTER>
-0.548357

>  <SCORE.INTER.CONST>
1

>  <SCORE.INTER.POLAR>
0

>  <SCORE.INTER.ROT>
5

>  <SCORE.INTER.SOLV>
3.08292

>  <SCORE.INTER.VDW>
-8.32654

>  <SCORE.INTER.norm>
-0.0609286

>  <SCORE.INTRA>
-3.00867

>  <SCORE.INTRA.DIHEDRAL>
-5.61607

>  <SCORE.INTRA.DIHEDRAL.0>
7.73744

>  <SCORE.INTRA.POLAR>
0

>  <SCORE.INTRA.POLAR.0>
0

>  <SCORE.INTRA.REPUL>
0

>  <SCORE.INTRA.REPUL.0>
0

>  <SCORE.INTRA.SOLV>
0.0492997

>  <SCORE.INTRA.SOLV.lig_0>
-15.8342

>  <SCORE.INTRA.VDW>
-0.225284

>  <SCORE.INTRA.VDW.0>
-0.219494

>  <SCORE.INTRA.norm>
-0.334296

>  <SCORE.RESTR>
0

>  <SCORE.RESTR.CAVITY>
0

>  <SCORE.RESTR.norm>
0

>  <SCORE.SYSTEM>
0

>  <SCORE.SYSTEM.CONST>
0

>  <SCORE.SYSTEM.DIHEDRAL>
0

>  <SCORE.SYSTEM.SOLV>
0

>  <SCORE.SYSTEM.norm>
0

>  <SCORE.heavy>
9

>  <SCORE.norm>
-0.395225

>  <RMSD>
21.874

$$$$
ligand
 OpenBabel02271912143D
libRbt.so/2013.1/901 2013/11/27
  9  8  0  0  0  0  0  0  0  0999 V2000
  -28.7340   65.7120   -9.9967 C   0  0  0  0  0  0  0  0  0  0  0  0
  -27.4638   65.8061   -9.8306 O   0  0  0  0  0  0  0  0  0  0  0  0
  -29.5628   66.9238  -10.0263 C   0  0  0  0  0  0  0  0  0  0  0  0
  -29.3096   64.5794  -10.0943 O   0  0  0  0  0  0  0  0  0  0  0  0
  -30.2196   67.2830   -8.7313 C   0  0  0  0  0  0  0  0  0  0  0  0
  -31.2295   66.3448   -8.1809 C   0  0  0  0  0  0  0  0  0  0  0  0
  -31.8788   66.8042   -6.8863 C   0  0  0  0  0  0  0  0  0  0  0  0
  -33.0087   65.9668   -6.2666 C   0  0  0  0  0  0  0  0  0  0  0  0
  -34.1624   65.7963   -7.0042 N   0  0  0  0  0  0  0  0  0  0  0  0
  1  2  1  0  0  0  0
  1  3  1  0  0  0  0
  1  4  1  0  0  0  0
  3  5  1  0  0  0  0
  5  6  1  0  0  0  0
  6  7  1  0  0  0  0
  7  8  1  0  0  0  0
  8  9  1  0  0  0  0
M  END
>  <CHROM.1>
-96.62456313,-64.34782933,-178.21313096,175.87126826,-61.64622512,-30.57917528
66.11285868,-8.57833156,0.25571959,-0.55434250,-2.80145899

>  <Name>
ligand

>  <RI>
0

>  <Rbt.Current_Directory>
/home/itssahil/PROJECTS/Mol_Feturizer/Test_systems_manuscript/rnas/4erj

>  <Rbt.Executable>
rbdock ($Id: //depot/dev/client3/rdock/2013.1/src/exe/rbdock.cxx#4 $)

>  <Rbt.Library>
libRbt.so (2013.1, Build901 2013/11/27)

>  <Rbt.Parameter_File>
/export/apps/rDock/src/rDock_2013.1_src/data/scripts/dock_solv.prm

>  <Rbt.Receptor>
prm/blind_docking_80.prm

>  <SCORE>
-4.18796

>  <SCORE.INTER>
-0.987993

>  <SCORE.INTER.CONST>
1

>  <SCORE.INTER.POLAR>
0

>  <SCORE.INTER.ROT>
5

>  <SCORE.INTER.SOLV>
3.00443

>  <SCORE.INTER.VDW>
-8.59347

>  <SCORE.INTER.norm>
-0.109777

>  <SCORE.INTRA>
-3.19997

>  <SCORE.INTRA.DIHEDRAL>
-5.9761

>  <SCORE.INTRA.DIHEDRAL.0>
7.73744

>  <SCORE.INTRA.POLAR>
0

>  <SCORE.INTRA.POLAR.0>
0

>  <SCORE.INTRA.REPUL>
0

>  <SCORE.INTRA.REPUL.0>
0

>  <SCORE.INTRA.SOLV>
0.530316

>  <SCORE.INTRA.SOLV.lig_0>
-15.8342

>  <SCORE.INTRA.VDW>
-0.477077

>  <SCORE.INTRA.VDW.0>
-0.219494

>  <SCORE.INTRA.norm>
-0.355552

>  <SCORE.RESTR>
0

>  <SCORE.RESTR.CAVITY>
0

>  <SCORE.RESTR.norm>
0

>  <SCORE.SYSTEM>
0

>  <SCORE.SYSTEM.CONST>
0

>  <SCORE.SYSTEM.DIHEDRAL>
0

>  <SCORE.SYSTEM.SOLV>
0

>  <SCORE.SYSTEM.norm>
0

>  <SCORE.heavy>
9

>  <SCORE.norm>
-0.465329

>  <RMSD>
21.898

$$$$
ligand
 OpenBabel02271912143D
libRbt.so/2013.1/901 2013/11/27
  9  8  0  0  0  0  0  0  0  0999 V2000
  -29.0877   64.5136   -9.9508 C   0  0  0  0  0  0  0  0  0  0  0  0
  -30.0987   64.4013   -9.1664 O   0  0  0  0  0  0  0  0  0  0  0  0
  -28.2585   65.7249   -9.9117 C   0  0  0  0  0  0  0  0  0  0  0  0
  -28.8051   63.6108  -10.8044 O   0  0  0  0  0  0  0  0  0  0  0  0
  -28.7634   66.8739  -10.7255 C   0  0  0  0  0  0  0  0  0  0  0  0
  -30.0917   67.4390  -10.3803 C   0  0  0  0  0  0  0  0  0  0  0  0
  -30.1488   68.1410   -9.0340 C   0  0  0  0  0  0  0  0  0  0  0  0
  -31.4569   68.8101   -8.5833 C   0  0  0  0  0  0  0  0  0  0  0  0
  -32.5677   68.0076   -8.4211 N   0  0  0  0  0  0  0  0  0  0  0  0
  1  2  1  0  0  0  0
  1  3  1  0  0  0  0
  1  4  1  0  0  0  0
  3  5  1  0  0  0  0
  5  6  1  0  0  0  0
  6  7  1  0  0  0  0
  7  8  1  0  0  0  0
  8  9  1  0  0  0  0
M  END
>  <CHROM.1>
-84.08153268,61.11242511,67.39526096,177.92460966,61.75229117,-29.91810570
66.34719276,-9.66972448,0.90707085,-0.56580238,3.10360406

>  <Name>
ligand

>  <RI>
0

>  <Rbt.Current_Directory>
/home/itssahil/PROJECTS/Mol_Feturizer/Test_systems_manuscript/rnas/4erj

>  <Rbt.Executable>
rbdock ($Id: //depot/dev/client3/rdock/2013.1/src/exe/rbdock.cxx#4 $)

>  <Rbt.Library>
libRbt.so (2013.1, Build901 2013/11/27)

>  <Rbt.Parameter_File>
/export/apps/rDock/src/rDock_2013.1_src/data/scripts/dock_solv.prm

>  <Rbt.Receptor>
prm/blind_docking_80.prm

>  <SCORE>
-5.939

>  <SCORE.INTER>
-2.89038

>  <SCORE.INTER.CONST>
1

>  <SCORE.INTER.POLAR>
0

>  <SCORE.INTER.ROT>
5

>  <SCORE.INTER.SOLV>
3.11166

>  <SCORE.INTER.VDW>
-9.89747

>  <SCORE.INTER.norm>
-0.321153

>  <SCORE.INTRA>
-3.05118

>  <SCORE.INTRA.DIHEDRAL>
-5.8936

>  <SCORE.INTRA.DIHEDRAL.0>
7.73744

>  <SCORE.INTRA.POLAR>
0

>  <SCORE.INTRA.POLAR.0>
0

>  <SCORE.INTRA.REPUL>
0

>  <SCORE.INTRA.REPUL.0>
0

>  <SCORE.INTRA.SOLV>
0.493788

>  <SCORE.INTRA.SOLV.lig_0>
-15.8342

>  <SCORE.INTRA.VDW>
-0.351269

>  <SCORE.INTRA.VDW.0>
-0.219494

>  <SCORE.INTRA.norm>
-0.33902

>  <SCORE.RESTR>
0.00255047

>  <SCORE.RESTR.CAVITY>
0.00255047

>  <SCORE.RESTR.norm>
0.000283386

>  <SCORE.SYSTEM>
0

>  <SCORE.SYSTEM.CONST>
0

>  <SCORE.SYSTEM.DIHEDRAL>
0

>  <SCORE.SYSTEM.SOLV>
0

>  <SCORE.SYSTEM.norm>
0

>  <SCORE.heavy>
9

>  <SCORE.norm>
-0.659889

>  <RMSD>
21.898

$$$$
ligand
 OpenBabel02271912143D
libRbt.so/2013.1/901 2013/11/27
  9  8  0  0  0  0  0  0  0  0999 V2000
  -28.7873   66.8836  -10.6522 C   0  0  0  0  0  0  0  0  0  0  0  0
  -29.3683   67.8267  -10.0021 O   0  0  0  0  0  0  0  0  0  0  0  0
  -28.3908   65.6505   -9.9604 C   0  0  0  0  0  0  0  0  0  0  0  0
  -28.5015   67.0059  -11.8879 O   0  0  0  0  0  0  0  0  0  0  0  0
  -29.4869   64.6560   -9.7440 C   0  0  0  0  0  0  0  0  0  0  0  0
  -30.0847   64.0100  -10.9391 C   0  0  0  0  0  0  0  0  0  0  0  0
  -29.1915   62.9836  -11.6154 C   0  0  0  0  0  0  0  0  0  0  0  0
  -29.6248   62.3675  -12.9550 C   0  0  0  0  0  0  0  0  0  0  0  0
  -30.8103   61.6621  -12.9855 N   0  0  0  0  0  0  0  0  0  0  0  0
  1  2  1  0  0  0  0
  1  3  1  0  0  0  0
  1  4  1  0  0  0  0
  3  5  1  0  0  0  0
  5  6  1  0  0  0  0
  6  7  1  0  0  0  0
  7  8  1  0  0  0  0
  8  9  1  0  0  0  0
M  END
>  <CHROM.1>
80.36548580,66.11684120,72.58685727,-172.75318693,-60.42767183,-29.35635661
64.83140888,-11.19409592,-0.60697368,-1.29662200,-1.79110278

>  <Name>
ligand

>  <RI>
0

>  <Rbt.Current_Directory>
/home/itssahil/PROJECTS/Mol_Feturizer/Test_systems_manuscript/rnas/4erj

>  <Rbt.Executable>
rbdock ($Id: //depot/dev/client3/rdock/2013.1/src/exe/rbdock.cxx#4 $)

>  <Rbt.Library>
libRbt.so (2013.1, Build901 2013/11/27)

>  <Rbt.Parameter_File>
/export/apps/rDock/src/rDock_2013.1_src/data/scripts/dock_solv.prm

>  <Rbt.Receptor>
prm/blind_docking_80.prm

>  <SCORE>
-5.8694

>  <SCORE.INTER>
-3.22679

>  <SCORE.INTER.CONST>
1

>  <SCORE.INTER.POLAR>
0

>  <SCORE.INTER.ROT>
5

>  <SCORE.INTER.SOLV>
3.75339

>  <SCORE.INTER.VDW>
-10.3357

>  <SCORE.INTER.norm>
-0.358533

>  <SCORE.INTRA>
-2.64261

>  <SCORE.INTRA.DIHEDRAL>
-4.95758

>  <SCORE.INTRA.DIHEDRAL.0>
7.73744

>  <SCORE.INTRA.POLAR>
0

>  <SCORE.INTRA.POLAR.0>
0

>  <SCORE.INTRA.REPUL>
0

>  <SCORE.INTRA.REPUL.0>
0

>  <SCORE.INTRA.SOLV>
0.493214

>  <SCORE.INTRA.SOLV.lig_0>
-15.8342

>  <SCORE.INTRA.VDW>
-0.410423

>  <SCORE.INTRA.VDW.0>
-0.219494

>  <SCORE.INTRA.norm>
-0.293623

>  <SCORE.RESTR>
0

>  <SCORE.RESTR.CAVITY>
0

>  <SCORE.RESTR.norm>
0

>  <SCORE.SYSTEM>
0

>  <SCORE.SYSTEM.CONST>
0

>  <SCORE.SYSTEM.DIHEDRAL>
0

>  <SCORE.SYSTEM.SOLV>
0

>  <SCORE.SYSTEM.norm>
0

>  <SCORE.heavy>
9

>  <SCORE.norm>
-0.652155

>  <RMSD>
21.991

$$$$
ligand
 OpenBabel02271912143D
libRbt.so/2013.1/901 2013/11/27
  9  8  0  0  0  0  0  0  0  0999 V2000
  -30.5551   68.8066   -8.9937 C   0  0  0  0  0  0  0  0  0  0  0  0
  -29.9202   69.7480   -8.3932 O   0  0  0  0  0  0  0  0  0  0  0  0
  -30.0401   67.4320   -8.9546 C   0  0  0  0  0  0  0  0  0  0  0  0
  -31.6101   69.0414   -9.6686 O   0  0  0  0  0  0  0  0  0  0  0  0
  -29.1416   67.0516  -10.0884 C   0  0  0  0  0  0  0  0  0  0  0  0
  -28.4328   65.7501  -10.0064 C   0  0  0  0  0  0  0  0  0  0  0  0
  -29.3397   64.5323  -10.0633 C   0  0  0  0  0  0  0  0  0  0  0  0
  -30.1451   64.2466  -11.3406 C   0  0  0  0  0  0  0  0  0  0  0  0
  -30.9332   63.1141  -11.3648 N   0  0  0  0  0  0  0  0  0  0  0  0
  1  2  1  0  0  0  0
  1  3  1  0  0  0  0
  1  4  1  0  0  0  0
  3  5  1  0  0  0  0
  5  6  1  0  0  0  0
  6  7  1  0  0  0  0
  7  8  1  0  0  0  0
  8  9  1  0  0  0  0
M  END
>  <CHROM.1>
-92.16044509,171.27666656,66.47782692,64.71358333,178.51040009,-30.02759755
66.68720868,-9.86249043,1.65275497,-0.28009469,0.39502187

>  <Name>
ligand

>  <RI>
0

>  <Rbt.Current_Directory>
/home/itssahil/PROJECTS/Mol_Feturizer/Test_systems_manuscript/rnas/4erj

>  <Rbt.Executable>
rbdock ($Id: //depot/dev/client3/rdock/2013.1/src/exe/rbdock.cxx#4 $)

>  <Rbt.Library>
libRbt.so (2013.1, Build901 2013/11/27)

>  <Rbt.Parameter_File>
/export/apps/rDock/src/rDock_2013.1_src/data/scripts/dock_solv.prm

>  <Rbt.Receptor>
prm/blind_docking_80.prm

>  <SCORE>
-5.18596

>  <SCORE.INTER>
-2.42213

>  <SCORE.INTER.CONST>
1

>  <SCORE.INTER.POLAR>
0

>  <SCORE.INTER.ROT>
5

>  <SCORE.INTER.SOLV>
3.36348

>  <SCORE.INTER.VDW>
-9.66925

>  <SCORE.INTER.norm>
-0.269125

>  <SCORE.INTRA>
-2.76383

>  <SCORE.INTRA.DIHEDRAL>
-5.5675

>  <SCORE.INTRA.DIHEDRAL.0>
7.73744

>  <SCORE.INTRA.POLAR>
0

>  <SCORE.INTRA.POLAR.0>
0

>  <SCORE.INTRA.REPUL>
0

>  <SCORE.INTRA.REPUL.0>
0

>  <SCORE.INTRA.SOLV>
0.0255693

>  <SCORE.INTRA.SOLV.lig_0>
-15.8342

>  <SCORE.INTRA.VDW>
0.00713095

>  <SCORE.INTRA.VDW.0>
-0.219494

>  <SCORE.INTRA.norm>
-0.307092

>  <SCORE.RESTR>
0

>  <SCORE.RESTR.CAVITY>
0

>  <SCORE.RESTR.norm>
0

>  <SCORE.SYSTEM>
0

>  <SCORE.SYSTEM.CONST>
0

>  <SCORE.SYSTEM.DIHEDRAL>
0

>  <SCORE.SYSTEM.SOLV>
0

>  <SCORE.SYSTEM.norm>
0

>  <SCORE.heavy>
9

>  <SCORE.norm>
-0.576218

>  <RMSD>
22.014

$$$$
ligand
 OpenBabel02271912143D
libRbt.so/2013.1/901 2013/11/27
  9  8  0  0  0  0  0  0  0  0999 V2000
  -29.1615   66.5150  -11.4180 C   0  0  0  0  0  0  0  0  0  0  0  0
  -30.3642   66.1758  -11.7150 O   0  0  0  0  0  0  0  0  0  0  0  0
  -28.5776   66.1032  -10.1350 C   0  0  0  0  0  0  0  0  0  0  0  0
  -28.4654   67.2455  -12.1960 O   0  0  0  0  0  0  0  0  0  0  0  0
  -29.5154   66.1177   -8.9698 C   0  0  0  0  0  0  0  0  0  0  0  0
  -30.0730   67.4254   -8.5431 C   0  0  0  0  0  0  0  0  0  0  0  0
  -30.9604   67.3617   -7.3114 C   0  0  0  0  0  0  0  0  0  0  0  0
  -31.4639   68.6655   -6.6721 C   0  0  0  0  0  0  0  0  0  0  0  0
  -30.5258   69.5222   -6.1334 N   0  0  0  0  0  0  0  0  0  0  0  0
  1  2  1  0  0  0  0
  1  3  1  0  0  0  0
  1  4  1  0  0  0  0
  3  5  1  0  0  0  0
  5  6  1  0  0  0  0
  6  7  1  0  0  0  0
  7  8  1  0  0  0  0
  8  9  1  0  0  0  0
M  END
>  <CHROM.1>
-37.72173324,-64.33562210,-177.08772037,172.84251327,-64.06363856,-29.89735616
67.23169936,-9.28258920,-0.82547360,1.08376308,0.48401690

>  <Name>
ligand

>  <RI>
0

>  <Rbt.Current_Directory>
/home/itssahil/PROJECTS/Mol_Feturizer/Test_systems_manuscript/rnas/4erj

>  <Rbt.Executable>
rbdock ($Id: //depot/dev/client3/rdock/2013.1/src/exe/rbdock.cxx#4 $)

>  <Rbt.Library>
libRbt.so (2013.1, Build901 2013/11/27)

>  <Rbt.Parameter_File>
/export/apps/rDock/src/rDock_2013.1_src/data/scripts/dock_solv.prm

>  <Rbt.Receptor>
prm/blind_docking_80.prm

>  <SCORE>
-4.01829

>  <SCORE.INTER>
-1.31439

>  <SCORE.INTER.CONST>
1

>  <SCORE.INTER.POLAR>
0

>  <SCORE.INTER.ROT>
5

>  <SCORE.INTER.SOLV>
5.5454

>  <SCORE.INTER.VDW>
-9.65806

>  <SCORE.INTER.norm>
-0.146044

>  <SCORE.INTRA>
-2.70542

>  <SCORE.INTRA.DIHEDRAL>
-5.57877

>  <SCORE.INTRA.DIHEDRAL.0>
7.73744

>  <SCORE.INTRA.POLAR>
0

>  <SCORE.INTRA.POLAR.0>
0

>  <SCORE.INTRA.REPUL>
0

>  <SCORE.INTRA.REPUL.0>
0

>  <SCORE.INTRA.SOLV>
0.521309

>  <SCORE.INTRA.SOLV.lig_0>
-15.8342

>  <SCORE.INTRA.VDW>
-0.176694

>  <SCORE.INTRA.VDW.0>
-0.219494

>  <SCORE.INTRA.norm>
-0.300603

>  <SCORE.RESTR>
0.00152466

>  <SCORE.RESTR.CAVITY>
0.00152466

>  <SCORE.RESTR.norm>
0.000169407

>  <SCORE.SYSTEM>
0

>  <SCORE.SYSTEM.CONST>
0

>  <SCORE.SYSTEM.DIHEDRAL>
0

>  <SCORE.SYSTEM.SOLV>
0

>  <SCORE.SYSTEM.norm>
0

>  <SCORE.heavy>
9

>  <SCORE.norm>
-0.446477

>  <RMSD>
22.019

$$$$
ligand
 OpenBabel02271912143D
libRbt.so/2013.1/901 2013/11/27
  9  8  0  0  0  0  0  0  0  0999 V2000
  -29.0740   67.0897  -10.1738 C   0  0  0  0  0  0  0  0  0  0  0  0
  -29.8289   68.1042   -9.9481 O   0  0  0  0  0  0  0  0  0  0  0  0
  -28.9848   66.0063   -9.1866 C   0  0  0  0  0  0  0  0  0  0  0  0
  -28.3566   67.0154  -11.2242 O   0  0  0  0  0  0  0  0  0  0  0  0
  -29.7761   64.7786   -9.5090 C   0  0  0  0  0  0  0  0  0  0  0  0
  -29.3523   63.9656  -10.6762 C   0  0  0  0  0  0  0  0  0  0  0  0
  -30.3114   62.8476  -11.0487 C   0  0  0  0  0  0  0  0  0  0  0  0
  -29.9839   61.9338  -12.2402 C   0  0  0  0  0  0  0  0  0  0  0  0
  -30.9103   60.9719  -12.5875 N   0  0  0  0  0  0  0  0  0  0  0  0
  1  2  1  0  0  0  0
  1  3  1  0  0  0  0
  1  4  1  0  0  0  0
  3  5  1  0  0  0  0
  5  6  1  0  0  0  0
  6  7  1  0  0  0  0
  7  8  1  0  0  0  0
  8  9  1  0  0  0  0
M  END
>  <CHROM.1>
101.86682584,67.32138645,-172.13036114,-179.95861495,-176.91161599,-29.61195793
64.79627182,-10.73669563,-0.83449321,-1.25266794,-2.08922548

>  <Name>
ligand

>  <RI>
0

>  <Rbt.Current_Directory>
/home/itssahil/PROJECTS/Mol_Feturizer/Test_systems_manuscript/rnas/4erj

>  <Rbt.Executable>
rbdock ($Id: //depot/dev/client3/rdock/2013.1/src/exe/rbdock.cxx#4 $)

>  <Rbt.Library>
libRbt.so (2013.1, Build901 2013/11/27)

>  <Rbt.Parameter_File>
/export/apps/rDock/src/rDock_2013.1_src/data/scripts/dock_solv.prm

>  <Rbt.Receptor>
prm/blind_docking_80.prm

>  <SCORE>
-5.14058

>  <SCORE.INTER>
-1.85124

>  <SCORE.INTER.CONST>
1

>  <SCORE.INTER.POLAR>
0

>  <SCORE.INTER.ROT>
5

>  <SCORE.INTER.SOLV>
5.90589

>  <SCORE.INTER.VDW>
-10.1361

>  <SCORE.INTER.norm>
-0.205693

>  <SCORE.INTRA>
-3.28934

>  <SCORE.INTRA.DIHEDRAL>
-5.45797

>  <SCORE.INTRA.DIHEDRAL.0>
7.73744

>  <SCORE.INTRA.POLAR>
0

>  <SCORE.INTRA.POLAR.0>
0

>  <SCORE.INTRA.REPUL>
0

>  <SCORE.INTRA.REPUL.0>
0

>  <SCORE.INTRA.SOLV>
-0.122265

>  <SCORE.INTRA.SOLV.lig_0>
-15.8342

>  <SCORE.INTRA.VDW>
-0.499226

>  <SCORE.INTRA.VDW.0>
-0.219494

>  <SCORE.INTRA.norm>
-0.365482

>  <SCORE.RESTR>
0

>  <SCORE.RESTR.CAVITY>
0

>  <SCORE.RESTR.norm>
0

>  <SCORE.SYSTEM>
0

>  <SCORE.SYSTEM.CONST>
0

>  <SCORE.SYSTEM.DIHEDRAL>
0

>  <SCORE.SYSTEM.SOLV>
0

>  <SCORE.SYSTEM.norm>
0

>  <SCORE.heavy>
9

>  <SCORE.norm>
-0.571176

>  <RMSD>
22.028

$$$$
ligand
 OpenBabel02271912143D
libRbt.so/2013.1/901 2013/11/27
  9  8  0  0  0  0  0  0  0  0999 V2000
  -33.1396   63.7348   -3.9192 C   0  0  0  0  0  0  0  0  0  0  0  0
  -33.4477   64.5965   -3.0178 O   0  0  0  0  0  0  0  0  0  0  0  0
  -32.7226   64.1844   -5.2534 C   0  0  0  0  0  0  0  0  0  0  0  0
  -33.2286   62.4827   -3.7000 O   0  0  0  0  0  0  0  0  0  0  0  0
  -33.7131   65.0366   -5.9814 C   0  0  0  0  0  0  0  0  0  0  0  0
  -33.4050   65.4171   -7.3826 C   0  0  0  0  0  0  0  0  0  0  0  0
  -34.4902   66.2289   -8.0697 C   0  0  0  0  0  0  0  0  0  0  0  0
  -34.8692   67.6107   -7.5140 C   0  0  0  0  0  0  0  0  0  0  0  0
  -33.8983   68.5913   -7.5103 N   0  0  0  0  0  0  0  0  0  0  0  0
  1  2  1  0  0  0  0
  1  3  1  0  0  0  0
  1  4  1  0  0  0  0
  3  5  1  0  0  0  0
  5  6  1  0  0  0  0
  6  7  1  0  0  0  0
  7  8  1  0  0  0  0
  8  9  1  0  0  0  0
M  END
>  <CHROM.1>
-58.05719235,-174.39697240,177.34186865,62.37846223,62.61202458,-33.65541393
65.28994852,-5.77039821,0.45414333,-1.35485597,1.24381555

>  <Name>
ligand

>  <RI>
0

>  <Rbt.Current_Directory>
/home/itssahil/PROJECTS/Mol_Feturizer/Test_systems_manuscript/rnas/4erj

>  <Rbt.Executable>
rbdock ($Id: //depot/dev/client3/rdock/2013.1/src/exe/rbdock.cxx#4 $)

>  <Rbt.Library>
libRbt.so (2013.1, Build901 2013/11/27)

>  <Rbt.Parameter_File>
/export/apps/rDock/src/rDock_2013.1_src/data/scripts/dock_solv.prm

>  <Rbt.Receptor>
prm/blind_docking_80.prm

>  <SCORE>
-4.98616

>  <SCORE.INTER>
-2.42843

>  <SCORE.INTER.CONST>
1

>  <SCORE.INTER.POLAR>
0

>  <SCORE.INTER.ROT>
5

>  <SCORE.INTER.SOLV>
2.13477

>  <SCORE.INTER.VDW>
-9.26388

>  <SCORE.INTER.norm>
-0.269825

>  <SCORE.INTRA>
-2.55774

>  <SCORE.INTRA.DIHEDRAL>
-5.84343

>  <SCORE.INTRA.DIHEDRAL.0>
7.73744

>  <SCORE.INTRA.POLAR>
0

>  <SCORE.INTRA.POLAR.0>
0

>  <SCORE.INTRA.REPUL>
0

>  <SCORE.INTRA.REPUL.0>
0

>  <SCORE.INTRA.SOLV>
1.03495

>  <SCORE.INTRA.SOLV.lig_0>
-15.8342

>  <SCORE.INTRA.VDW>
-0.153498

>  <SCORE.INTRA.VDW.0>
-0.219494

>  <SCORE.INTRA.norm>
-0.284193

>  <SCORE.RESTR>
0

>  <SCORE.RESTR.CAVITY>
0

>  <SCORE.RESTR.norm>
0

>  <SCORE.SYSTEM>
0

>  <SCORE.SYSTEM.CONST>
0

>  <SCORE.SYSTEM.DIHEDRAL>
0

>  <SCORE.SYSTEM.SOLV>
0

>  <SCORE.SYSTEM.norm>
0

>  <SCORE.heavy>
9

>  <SCORE.norm>
-0.554018

>  <RMSD>
22.029

$$$$
ligand
 OpenBabel02271912143D
libRbt.so/2013.1/901 2013/11/27
  9  8  0  0  0  0  0  0  0  0999 V2000
  -29.3932   64.3681   -9.9977 C   0  0  0  0  0  0  0  0  0  0  0  0
  -29.3809   63.5559  -10.9928 O   0  0  0  0  0  0  0  0  0  0  0  0
  -28.4991   65.5329   -9.9891 C   0  0  0  0  0  0  0  0  0  0  0  0
  -30.1378   64.1659   -8.9837 O   0  0  0  0  0  0  0  0  0  0  0  0
  -29.1799   66.8641  -10.0303 C   0  0  0  0  0  0  0  0  0  0  0  0
  -29.9830   67.2704   -8.8500 C   0  0  0  0  0  0  0  0  0  0  0  0
  -30.4346   68.7211   -8.8626 C   0  0  0  0  0  0  0  0  0  0  0  0
  -31.1663   69.2975   -7.6402 C   0  0  0  0  0  0  0  0  0  0  0  0
  -32.3880   68.7508   -7.3044 N   0  0  0  0  0  0  0  0  0  0  0  0
  1  2  1  0  0  0  0
  1  3  1  0  0  0  0
  1  4  1  0  0  0  0
  3  5  1  0  0  0  0
  5  6  1  0  0  0  0
  6  7  1  0  0  0  0
  7  8  1  0  0  0  0
  8  9  1  0  0  0  0
M  END
>  <CHROM.1>
115.05875052,67.29111012,169.65533004,-174.63686430,-63.18534610,-30.06337191
66.45484571,-9.19567536,1.09257244,-0.66960737,-2.98351523

>  <Name>
ligand

>  <RI>
0

>  <Rbt.Current_Directory>
/home/itssahil/PROJECTS/Mol_Feturizer/Test_systems_manuscript/rnas/4erj

>  <Rbt.Executable>
rbdock ($Id: //depot/dev/client3/rdock/2013.1/src/exe/rbdock.cxx#4 $)

>  <Rbt.Library>
libRbt.so (2013.1, Build901 2013/11/27)

>  <Rbt.Parameter_File>
/export/apps/rDock/src/rDock_2013.1_src/data/scripts/dock_solv.prm

>  <Rbt.Receptor>
prm/blind_docking_80.prm

>  <SCORE>
-5.29364

>  <SCORE.INTER>
-2.54511

>  <SCORE.INTER.CONST>
1

>  <SCORE.INTER.POLAR>
0

>  <SCORE.INTER.ROT>
5

>  <SCORE.INTER.SOLV>
2.99236

>  <SCORE.INTER.VDW>
-9.62752

>  <SCORE.INTER.norm>
-0.28279

>  <SCORE.INTRA>
-2.74854

>  <SCORE.INTRA.DIHEDRAL>
-5.20944

>  <SCORE.INTRA.DIHEDRAL.0>
7.73744

>  <SCORE.INTRA.POLAR>
0

>  <SCORE.INTRA.POLAR.0>
0

>  <SCORE.INTRA.REPUL>
0

>  <SCORE.INTRA.REPUL.0>
0

>  <SCORE.INTRA.SOLV>
0.477715

>  <SCORE.INTRA.SOLV.lig_0>
-15.8342

>  <SCORE.INTRA.VDW>
-0.382675

>  <SCORE.INTRA.VDW.0>
-0.219494

>  <SCORE.INTRA.norm>
-0.305393

>  <SCORE.RESTR>
0

>  <SCORE.RESTR.CAVITY>
0

>  <SCORE.RESTR.norm>
0

>  <SCORE.SYSTEM>
0

>  <SCORE.SYSTEM.CONST>
0

>  <SCORE.SYSTEM.DIHEDRAL>
0

>  <SCORE.SYSTEM.SOLV>
0

>  <SCORE.SYSTEM.norm>
0

>  <SCORE.heavy>
9

>  <SCORE.norm>
-0.588183

>  <RMSD>
22.039

$$$$
ligand
 OpenBabel02271912143D
libRbt.so/2013.1/901 2013/11/27
  9  8  0  0  0  0  0  0  0  0999 V2000
  -28.5789   65.6737  -10.2853 C   0  0  0  0  0  0  0  0  0  0  0  0
  -29.1088   64.5060  -10.3598 O   0  0  0  0  0  0  0  0  0  0  0  0
  -29.1904   66.8046  -10.9947 C   0  0  0  0  0  0  0  0  0  0  0  0
  -27.4982   65.8734   -9.6405 O   0  0  0  0  0  0  0  0  0  0  0  0
  -30.3397   67.4558  -10.2928 C   0  0  0  0  0  0  0  0  0  0  0  0
  -30.0902   68.0511   -8.9562 C   0  0  0  0  0  0  0  0  0  0  0  0
  -31.3218   68.6360   -8.2856 C   0  0  0  0  0  0  0  0  0  0  0  0
  -31.1997   69.2542   -6.8839 C   0  0  0  0  0  0  0  0  0  0  0  0
  -32.3487   69.7357   -6.2905 N   0  0  0  0  0  0  0  0  0  0  0  0
  1  2  1  0  0  0  0
  1  3  1  0  0  0  0
  1  4  1  0  0  0  0
  3  5  1  0  0  0  0
  5  6  1  0  0  0  0
  6  7  1  0  0  0  0
  7  8  1  0  0  0  0
  8  9  1  0  0  0  0
M  END
>  <CHROM.1>
82.02984899,60.20976698,-177.37308231,178.65345492,-177.94182966,-29.93432420
67.29200854,-9.11928557,-0.80388208,-0.70446670,1.27859727

>  <Name>
ligand

>  <RI>
0

>  <Rbt.Current_Directory>
/home/itssahil/PROJECTS/Mol_Feturizer/Test_systems_manuscript/rnas/4erj

>  <Rbt.Executable>
rbdock ($Id: //depot/dev/client3/rdock/2013.1/src/exe/rbdock.cxx#4 $)

>  <Rbt.Library>
libRbt.so (2013.1, Build901 2013/11/27)

>  <Rbt.Parameter_File>
/export/apps/rDock/src/rDock_2013.1_src/data/scripts/dock_solv.prm

>  <Rbt.Receptor>
prm/blind_docking_80.prm

>  <SCORE>
-5.21865

>  <SCORE.INTER>
-1.71581

>  <SCORE.INTER.CONST>
1

>  <SCORE.INTER.POLAR>
0

>  <SCORE.INTER.ROT>
5

>  <SCORE.INTER.SOLV>
3.2894

>  <SCORE.INTER.VDW>
-9.17367

>  <SCORE.INTER.norm>
-0.190646

>  <SCORE.INTRA>
-3.50283

>  <SCORE.INTRA.DIHEDRAL>
-5.9153

>  <SCORE.INTRA.DIHEDRAL.0>
7.73744

>  <SCORE.INTRA.POLAR>
0

>  <SCORE.INTRA.POLAR.0>
0

>  <SCORE.INTRA.REPUL>
0

>  <SCORE.INTRA.REPUL.0>
0

>  <SCORE.INTRA.SOLV>
-0.123048

>  <SCORE.INTRA.SOLV.lig_0>
-15.8342

>  <SCORE.INTRA.VDW>
-0.483655

>  <SCORE.INTRA.VDW.0>
-0.219494

>  <SCORE.INTRA.norm>
-0.389203

>  <SCORE.RESTR>
0

>  <SCORE.RESTR.CAVITY>
0

>  <SCORE.RESTR.norm>
0

>  <SCORE.SYSTEM>
0

>  <SCORE.SYSTEM.CONST>
0

>  <SCORE.SYSTEM.DIHEDRAL>
0

>  <SCORE.SYSTEM.SOLV>
0

>  <SCORE.SYSTEM.norm>
0

>  <SCORE.heavy>
9

>  <SCORE.norm>
-0.579849

>  <RMSD>
22.069

$$$$
ligand
 OpenBabel02271912143D
libRbt.so/2013.1/901 2013/11/27
  9  8  0  0  0  0  0  0  0  0999 V2000
  -29.0650   66.9742  -10.2342 C   0  0  0  0  0  0  0  0  0  0  0  0
  -29.9406   67.9083  -10.1312 O   0  0  0  0  0  0  0  0  0  0  0  0
  -29.0237   65.8933   -9.2411 C   0  0  0  0  0  0  0  0  0  0  0  0
  -28.1907   66.9817  -11.1612 O   0  0  0  0  0  0  0  0  0  0  0  0
  -29.7358   64.6370   -9.6311 C   0  0  0  0  0  0  0  0  0  0  0  0
  -29.1852   63.8488  -10.7619 C   0  0  0  0  0  0  0  0  0  0  0  0
  -30.1049   62.7536  -11.2752 C   0  0  0  0  0  0  0  0  0  0  0  0
  -29.6617   61.8880  -12.4652 C   0  0  0  0  0  0  0  0  0  0  0  0
  -30.5832   61.0131  -13.0032 N   0  0  0  0  0  0  0  0  0  0  0  0
  1  2  1  0  0  0  0
  1  3  1  0  0  0  0
  1  4  1  0  0  0  0
  3  5  1  0  0  0  0
  5  6  1  0  0  0  0
  6  7  1  0  0  0  0
  7  8  1  0  0  0  0
  8  9  1  0  0  0  0
M  END
>  <CHROM.1>
96.80903714,66.80241630,-168.30030608,178.62871366,-172.47580457,-29.49227994
64.70533043,-10.88090791,-0.99538328,-1.26499762,-2.20282127

>  <Name>
ligand

>  <RI>
0

>  <Rbt.Current_Directory>
/home/itssahil/PROJECTS/Mol_Feturizer/Test_systems_manuscript/rnas/4erj

>  <Rbt.Executable>
rbdock ($Id: //depot/dev/client3/rdock/2013.1/src/exe/rbdock.cxx#4 $)

>  <Rbt.Library>
libRbt.so (2013.1, Build901 2013/11/27)

>  <Rbt.Parameter_File>
/export/apps/rDock/src/rDock_2013.1_src/data/scripts/dock_solv.prm

>  <Rbt.Receptor>
prm/blind_docking_80.prm

>  <SCORE>
-5.31584

>  <SCORE.INTER>
-2.23924

>  <SCORE.INTER.CONST>
1

>  <SCORE.INTER.POLAR>
0

>  <SCORE.INTER.ROT>
5

>  <SCORE.INTER.SOLV>
4.87124

>  <SCORE.INTER.VDW>
-10.0499

>  <SCORE.INTER.norm>
-0.248804

>  <SCORE.INTRA>
-3.0766

>  <SCORE.INTRA.DIHEDRAL>
-4.99334

>  <SCORE.INTRA.DIHEDRAL.0>
7.73744

>  <SCORE.INTRA.POLAR>
0

>  <SCORE.INTRA.POLAR.0>
0

>  <SCORE.INTRA.REPUL>
0

>  <SCORE.INTRA.REPUL.0>
0

>  <SCORE.INTRA.SOLV>
-0.11995

>  <SCORE.INTRA.SOLV.lig_0>
-15.8342

>  <SCORE.INTRA.VDW>
-0.519953

>  <SCORE.INTRA.VDW.0>
-0.219494

>  <SCORE.INTRA.norm>
-0.341844

>  <SCORE.RESTR>
0

>  <SCORE.RESTR.CAVITY>
0

>  <SCORE.RESTR.norm>
0

>  <SCORE.SYSTEM>
0

>  <SCORE.SYSTEM.CONST>
0

>  <SCORE.SYSTEM.DIHEDRAL>
0

>  <SCORE.SYSTEM.SOLV>
0

>  <SCORE.SYSTEM.norm>
0

>  <SCORE.heavy>
9

>  <SCORE.norm>
-0.590649

>  <RMSD>
22.084

$$$$
ligand
 OpenBabel02271912143D
libRbt.so/2013.1/901 2013/11/27
  9  8  0  0  0  0  0  0  0  0999 V2000
  -28.6756   66.5383  -10.5578 C   0  0  0  0  0  0  0  0  0  0  0  0
  -27.7044   66.0179   -9.8977 O   0  0  0  0  0  0  0  0  0  0  0  0
  -30.0503   66.4250  -10.0540 C   0  0  0  0  0  0  0  0  0  0  0  0
  -28.4838   67.1205  -11.6749 O   0  0  0  0  0  0  0  0  0  0  0  0
  -30.3196   67.1291   -8.7620 C   0  0  0  0  0  0  0  0  0  0  0  0
  -30.1301   68.6007   -8.7202 C   0  0  0  0  0  0  0  0  0  0  0  0
  -30.3319   69.2246   -7.3496 C   0  0  0  0  0  0  0  0  0  0  0  0
  -31.7529   69.3595   -6.7802 C   0  0  0  0  0  0  0  0  0  0  0  0
  -32.5091   68.2117   -6.6584 N   0  0  0  0  0  0  0  0  0  0  0  0
  1  2  1  0  0  0  0
  1  3  1  0  0  0  0
  1  4  1  0  0  0  0
  3  5  1  0  0  0  0
  5  6  1  0  0  0  0
  6  7  1  0  0  0  0
  7  8  1  0  0  0  0
  8  9  1  0  0  0  0
M  END
>  <CHROM.1>
64.93859344,61.01359240,-176.01129541,-73.44208252,57.00302128,-29.95713352
67.60974531,-8.97118102,0.74776207,-0.64703401,-2.70479483

>  <Name>
ligand

>  <RI>
0

>  <Rbt.Current_Directory>
/home/itssahil/PROJECTS/Mol_Feturizer/Test_systems_manuscript/rnas/4erj

>  <Rbt.Executable>
rbdock ($Id: //depot/dev/client3/rdock/2013.1/src/exe/rbdock.cxx#4 $)

>  <Rbt.Library>
libRbt.so (2013.1, Build901 2013/11/27)

>  <Rbt.Parameter_File>
/export/apps/rDock/src/rDock_2013.1_src/data/scripts/dock_solv.prm

>  <Rbt.Receptor>
prm/blind_docking_80.prm

>  <SCORE>
-5.30333

>  <SCORE.INTER>
-3.19616

>  <SCORE.INTER.CONST>
1

>  <SCORE.INTER.POLAR>
0

>  <SCORE.INTER.ROT>
5

>  <SCORE.INTER.SOLV>
2.35448

>  <SCORE.INTER.VDW>
-9.84893

>  <SCORE.INTER.norm>
-0.355128

>  <SCORE.INTRA>
-2.10718

>  <SCORE.INTRA.DIHEDRAL>
-5.20572

>  <SCORE.INTRA.DIHEDRAL.0>
7.73744

>  <SCORE.INTRA.POLAR>
0

>  <SCORE.INTRA.POLAR.0>
0

>  <SCORE.INTRA.REPUL>
0

>  <SCORE.INTRA.REPUL.0>
0

>  <SCORE.INTRA.SOLV>
1.6494

>  <SCORE.INTRA.SOLV.lig_0>
-15.8342

>  <SCORE.INTRA.VDW>
-0.329022

>  <SCORE.INTRA.VDW.0>
-0.219494

>  <SCORE.INTRA.norm>
-0.234131

>  <SCORE.RESTR>
0

>  <SCORE.RESTR.CAVITY>
0

>  <SCORE.RESTR.norm>
0

>  <SCORE.SYSTEM>
0

>  <SCORE.SYSTEM.CONST>
0

>  <SCORE.SYSTEM.DIHEDRAL>
0

>  <SCORE.SYSTEM.SOLV>
0

>  <SCORE.SYSTEM.norm>
0

>  <SCORE.heavy>
9

>  <SCORE.norm>
-0.589259

>  <RMSD>
22.092

$$$$
ligand
 OpenBabel02271912143D
libRbt.so/2013.1/901 2013/11/27
  9  8  0  0  0  0  0  0  0  0999 V2000
  -28.7775   66.9562  -10.6117 C   0  0  0  0  0  0  0  0  0  0  0  0
  -28.5240   67.0568  -11.8669 O   0  0  0  0  0  0  0  0  0  0  0  0
  -28.4351   65.7243   -9.8895 C   0  0  0  0  0  0  0  0  0  0  0  0
  -29.3656   67.8904   -9.9753 O   0  0  0  0  0  0  0  0  0  0  0  0
  -29.5805   64.8021   -9.6159 C   0  0  0  0  0  0  0  0  0  0  0  0
  -30.2551   64.1689  -10.7766 C   0  0  0  0  0  0  0  0  0  0  0  0
  -29.3923   63.1853  -11.5490 C   0  0  0  0  0  0  0  0  0  0  0  0
  -29.9659   62.4887  -12.7930 C   0  0  0  0  0  0  0  0  0  0  0  0
  -29.1257   61.6659  -13.5149 N   0  0  0  0  0  0  0  0  0  0  0  0
  1  2  1  0  0  0  0
  1  3  1  0  0  0  0
  1  4  1  0  0  0  0
  3  5  1  0  0  0  0
  5  6  1  0  0  0  0
  6  7  1  0  0  0  0
  7  8  1  0  0  0  0
  8  9  1  0  0  0  0
M  END
>  <CHROM.1>
-102.08637666,65.32660404,66.28757266,-178.53433510,176.08301749,-29.26685566
64.92972698,-11.17762550,-1.25673662,-1.20850208,-2.39259664

>  <Name>
ligand

>  <RI>
0

>  <Rbt.Current_Directory>
/home/itssahil/PROJECTS/Mol_Feturizer/Test_systems_manuscript/rnas/4erj

>  <Rbt.Executable>
rbdock ($Id: //depot/dev/client3/rdock/2013.1/src/exe/rbdock.cxx#4 $)

>  <Rbt.Library>
libRbt.so (2013.1, Build901 2013/11/27)

>  <Rbt.Parameter_File>
/export/apps/rDock/src/rDock_2013.1_src/data/scripts/dock_solv.prm

>  <Rbt.Receptor>
prm/blind_docking_80.prm

>  <SCORE>
-6.12921

>  <SCORE.INTER>
-2.88679

>  <SCORE.INTER.CONST>
1

>  <SCORE.INTER.POLAR>
0

>  <SCORE.INTER.ROT>
5

>  <SCORE.INTER.SOLV>
4.73725

>  <SCORE.INTER.VDW>
-10.4369

>  <SCORE.INTER.norm>
-0.320754

>  <SCORE.INTRA>
-3.24242

>  <SCORE.INTRA.DIHEDRAL>
-5.78549

>  <SCORE.INTRA.DIHEDRAL.0>
7.73744

>  <SCORE.INTRA.POLAR>
0

>  <SCORE.INTRA.POLAR.0>
0

>  <SCORE.INTRA.REPUL>
0

>  <SCORE.INTRA.REPUL.0>
0

>  <SCORE.INTRA.SOLV>
-0.130706

>  <SCORE.INTRA.SOLV.lig_0>
-15.8342

>  <SCORE.INTRA.VDW>
-0.284326

>  <SCORE.INTRA.VDW.0>
-0.219494

>  <SCORE.INTRA.norm>
-0.360269

>  <SCORE.RESTR>
0

>  <SCORE.RESTR.CAVITY>
0

>  <SCORE.RESTR.norm>
0

>  <SCORE.SYSTEM>
0

>  <SCORE.SYSTEM.CONST>
0

>  <SCORE.SYSTEM.DIHEDRAL>
0

>  <SCORE.SYSTEM.SOLV>
0

>  <SCORE.SYSTEM.norm>
0

>  <SCORE.heavy>
9

>  <SCORE.norm>
-0.681023

>  <RMSD>
22.092

$$$$
ligand
 OpenBabel02271912143D
libRbt.so/2013.1/901 2013/11/27
  9  8  0  0  0  0  0  0  0  0999 V2000
  -29.0969   67.0779  -10.1477 C   0  0  0  0  0  0  0  0  0  0  0  0
  -28.2745   67.0744  -11.1343 O   0  0  0  0  0  0  0  0  0  0  0  0
  -29.0947   65.9686   -9.1855 C   0  0  0  0  0  0  0  0  0  0  0  0
  -29.9563   68.0073  -10.0018 O   0  0  0  0  0  0  0  0  0  0  0  0
  -29.7797   64.7206   -9.6444 C   0  0  0  0  0  0  0  0  0  0  0  0
  -29.1762   63.9727  -10.7755 C   0  0  0  0  0  0  0  0  0  0  0  0
  -30.0433   62.8533  -11.3266 C   0  0  0  0  0  0  0  0  0  0  0  0
  -29.5329   62.0098  -12.5055 C   0  0  0  0  0  0  0  0  0  0  0  0
  -30.4032   61.1002  -13.0706 N   0  0  0  0  0  0  0  0  0  0  0  0
  1  2  1  0  0  0  0
  1  3  1  0  0  0  0
  1  4  1  0  0  0  0
  3  5  1  0  0  0  0
  5  6  1  0  0  0  0
  6  7  1  0  0  0  0
  7  8  1  0  0  0  0
  8  9  1  0  0  0  0
M  END
>  <CHROM.1>
-78.26212816,66.47409083,-170.52415099,179.64418653,-173.17736343,-29.47877586
64.80371161,-10.86754453,-1.16067717,-1.23737849,-2.34363912

>  <Name>
ligand

>  <RI>
0

>  <Rbt.Current_Directory>
/home/itssahil/PROJECTS/Mol_Feturizer/Test_systems_manuscript/rnas/4erj

>  <Rbt.Executable>
rbdock ($Id: //depot/dev/client3/rdock/2013.1/src/exe/rbdock.cxx#4 $)

>  <Rbt.Library>
libRbt.so (2013.1, Build901 2013/11/27)

>  <Rbt.Parameter_File>
/export/apps/rDock/src/rDock_2013.1_src/data/scripts/dock_solv.prm

>  <Rbt.Receptor>
prm/blind_docking_80.prm

>  <SCORE>
-5.4964

>  <SCORE.INTER>
-2.22621

>  <SCORE.INTER.CONST>
1

>  <SCORE.INTER.POLAR>
0

>  <SCORE.INTER.ROT>
5

>  <SCORE.INTER.SOLV>
4.60297

>  <SCORE.INTER.VDW>
-9.95179

>  <SCORE.INTER.norm>
-0.247356

>  <SCORE.INTRA>
-3.27019

>  <SCORE.INTRA.DIHEDRAL>
-5.42515

>  <SCORE.INTRA.DIHEDRAL.0>
7.73744

>  <SCORE.INTRA.POLAR>
0

>  <SCORE.INTRA.POLAR.0>
0

>  <SCORE.INTRA.REPUL>
0

>  <SCORE.INTRA.REPUL.0>
0

>  <SCORE.INTRA.SOLV>
-0.12072

>  <SCORE.INTRA.SOLV.lig_0>
-15.8342

>  <SCORE.INTRA.VDW>
-0.497255

>  <SCORE.INTRA.VDW.0>
-0.219494

>  <SCORE.INTRA.norm>
-0.363354

>  <SCORE.RESTR>
0

>  <SCORE.RESTR.CAVITY>
0

>  <SCORE.RESTR.norm>
0

>  <SCORE.SYSTEM>
0

>  <SCORE.SYSTEM.CONST>
0

>  <SCORE.SYSTEM.DIHEDRAL>
0

>  <SCORE.SYSTEM.SOLV>
0

>  <SCORE.SYSTEM.norm>
0

>  <SCORE.heavy>
9

>  <SCORE.norm>
-0.610711

>  <RMSD>
22.101

$$$$
ligand
 OpenBabel02271912143D
libRbt.so/2013.1/901 2013/11/27
  9  8  0  0  0  0  0  0  0  0999 V2000
  -29.5807   64.8565   -9.4439 C   0  0  0  0  0  0  0  0  0  0  0  0
  -28.9072   64.3980  -10.4369 O   0  0  0  0  0  0  0  0  0  0  0  0
  -29.3493   66.2268   -8.9694 C   0  0  0  0  0  0  0  0  0  0  0  0
  -30.4247   64.1323   -8.8219 O   0  0  0  0  0  0  0  0  0  0  0  0
  -30.3313   67.2467   -9.4521 C   0  0  0  0  0  0  0  0  0  0  0  0
  -30.2244   68.6246   -8.9106 C   0  0  0  0  0  0  0  0  0  0  0  0
  -30.5218   68.7442   -7.4254 C   0  0  0  0  0  0  0  0  0  0  0  0
  -31.9257   68.3999   -6.9036 C   0  0  0  0  0  0  0  0  0  0  0  0
  -32.1682   68.5601   -5.5546 N   0  0  0  0  0  0  0  0  0  0  0  0
  1  2  1  0  0  0  0
  1  3  1  0  0  0  0
  1  4  1  0  0  0  0
  3  5  1  0  0  0  0
  5  6  1  0  0  0  0
  6  7  1  0  0  0  0
  7  8  1  0  0  0  0
  8  9  1  0  0  0  0
M  END
>  <CHROM.1>
99.10648540,174.57944653,-65.93531713,-63.36257406,-178.06457553,-30.37176345
66.75105192,-8.45671978,0.85663419,-0.94769776,-3.11115747

>  <Name>
ligand

>  <RI>
0

>  <Rbt.Current_Directory>
/home/itssahil/PROJECTS/Mol_Feturizer/Test_systems_manuscript/rnas/4erj

>  <Rbt.Executable>
rbdock ($Id: //depot/dev/client3/rdock/2013.1/src/exe/rbdock.cxx#4 $)

>  <Rbt.Library>
libRbt.so (2013.1, Build901 2013/11/27)

>  <Rbt.Parameter_File>
/export/apps/rDock/src/rDock_2013.1_src/data/scripts/dock_solv.prm

>  <Rbt.Receptor>
prm/blind_docking_80.prm

>  <SCORE>
-2.71559

>  <SCORE.INTER>
0.0889523

>  <SCORE.INTER.CONST>
1

>  <SCORE.INTER.POLAR>
0

>  <SCORE.INTER.ROT>
5

>  <SCORE.INTER.SOLV>
2.18645

>  <SCORE.INTER.VDW>
-7.60285

>  <SCORE.INTER.norm>
0.00988359

>  <SCORE.INTRA>
-2.80455

>  <SCORE.INTRA.DIHEDRAL>
-5.6349

>  <SCORE.INTRA.DIHEDRAL.0>
7.73744

>  <SCORE.INTRA.POLAR>
0

>  <SCORE.INTRA.POLAR.0>
0

>  <SCORE.INTRA.REPUL>
0

>  <SCORE.INTRA.REPUL.0>
0

>  <SCORE.INTRA.SOLV>
0.0303302

>  <SCORE.INTRA.SOLV.lig_0>
-15.8342

>  <SCORE.INTRA.VDW>
-0.00225983

>  <SCORE.INTRA.VDW.0>
-0.219494

>  <SCORE.INTRA.norm>
-0.311616

>  <SCORE.RESTR>
0

>  <SCORE.RESTR.CAVITY>
0

>  <SCORE.RESTR.norm>
0

>  <SCORE.SYSTEM>
0

>  <SCORE.SYSTEM.CONST>
0

>  <SCORE.SYSTEM.DIHEDRAL>
0

>  <SCORE.SYSTEM.SOLV>
0

>  <SCORE.SYSTEM.norm>
0

>  <SCORE.heavy>
9

>  <SCORE.norm>
-0.301733

>  <RMSD>
22.180

$$$$
ligand
 OpenBabel02271912143D
libRbt.so/2013.1/901 2013/11/27
  9  8  0  0  0  0  0  0  0  0999 V2000
  -30.1345   68.5343   -8.3771 C   0  0  0  0  0  0  0  0  0  0  0  0
  -30.0128   69.7909   -8.6136 O   0  0  0  0  0  0  0  0  0  0  0  0
  -29.9106   67.5594   -9.4521 C   0  0  0  0  0  0  0  0  0  0  0  0
  -30.4916   68.1049   -7.2318 O   0  0  0  0  0  0  0  0  0  0  0  0
  -29.1768   66.3194   -9.0504 C   0  0  0  0  0  0  0  0  0  0  0  0
  -28.8566   65.3283  -10.1079 C   0  0  0  0  0  0  0  0  0  0  0  0
  -30.0668   64.6354  -10.7113 C   0  0  0  0  0  0  0  0  0  0  0  0
  -29.8638   63.5505  -11.7807 C   0  0  0  0  0  0  0  0  0  0  0  0
  -30.9885   62.9954  -12.3561 N   0  0  0  0  0  0  0  0  0  0  0  0
  1  2  1  0  0  0  0
  1  3  1  0  0  0  0
  1  4  1  0  0  0  0
  3  5  1  0  0  0  0
  5  6  1  0  0  0  0
  6  7  1  0  0  0  0
  7  8  1  0  0  0  0
  8  9  1  0  0  0  0
M  END
>  <CHROM.1>
140.03343942,-176.82553794,-67.01576908,-177.79901389,-176.60247237,-29.95098383
66.35986450,-9.70737995,1.54619243,-0.77822874,0.58008839

>  <Name>
ligand

>  <RI>
0

>  <Rbt.Current_Directory>
/home/itssahil/PROJECTS/Mol_Feturizer/Test_systems_manuscript/rnas/4erj

>  <Rbt.Executable>
rbdock ($Id: //depot/dev/client3/rdock/2013.1/src/exe/rbdock.cxx#4 $)

>  <Rbt.Library>
libRbt.so (2013.1, Build901 2013/11/27)

>  <Rbt.Parameter_File>
/export/apps/rDock/src/rDock_2013.1_src/data/scripts/dock_solv.prm

>  <Rbt.Receptor>
prm/blind_docking_80.prm

>  <SCORE>
-4.1995

>  <SCORE.INTER>
-1.39646

>  <SCORE.INTER.CONST>
1

>  <SCORE.INTER.POLAR>
0

>  <SCORE.INTER.ROT>
5

>  <SCORE.INTER.SOLV>
2.51656

>  <SCORE.INTER.VDW>
-8.70316

>  <SCORE.INTER.norm>
-0.155162

>  <SCORE.INTRA>
-2.80304

>  <SCORE.INTRA.DIHEDRAL>
-5.83138

>  <SCORE.INTRA.DIHEDRAL.0>
7.73744

>  <SCORE.INTRA.POLAR>
0

>  <SCORE.INTRA.POLAR.0>
0

>  <SCORE.INTRA.REPUL>
0

>  <SCORE.INTRA.REPUL.0>
0

>  <SCORE.INTRA.SOLV>
-0.122144

>  <SCORE.INTRA.SOLV.lig_0>
-15.8342

>  <SCORE.INTRA.VDW>
0.173726

>  <SCORE.INTRA.VDW.0>
-0.219494

>  <SCORE.INTRA.norm>
-0.311449

>  <SCORE.RESTR>
0

>  <SCORE.RESTR.CAVITY>
0

>  <SCORE.RESTR.norm>
0

>  <SCORE.SYSTEM>
0

>  <SCORE.SYSTEM.CONST>
0

>  <SCORE.SYSTEM.DIHEDRAL>
0

>  <SCORE.SYSTEM.SOLV>
0

>  <SCORE.SYSTEM.norm>
0

>  <SCORE.heavy>
9

>  <SCORE.norm>
-0.466611

>  <RMSD>
22.239

$$$$
ligand
 OpenBabel02271912143D
libRbt.so/2013.1/901 2013/11/27
  9  8  0  0  0  0  0  0  0  0999 V2000
  -28.7443   65.6572  -10.1561 C   0  0  0  0  0  0  0  0  0  0  0  0
  -27.4900   65.7410   -9.8922 O   0  0  0  0  0  0  0  0  0  0  0  0
  -29.5794   66.8651  -10.1463 C   0  0  0  0  0  0  0  0  0  0  0  0
  -29.3017   64.5348  -10.3866 O   0  0  0  0  0  0  0  0  0  0  0  0
  -29.8956   67.4148   -8.7916 C   0  0  0  0  0  0  0  0  0  0  0  0
  -30.5576   68.7412   -8.7174 C   0  0  0  0  0  0  0  0  0  0  0  0
  -30.5934   69.3521   -7.3267 C   0  0  0  0  0  0  0  0  0  0  0  0
  -31.3394   68.6233   -6.1979 C   0  0  0  0  0  0  0  0  0  0  0  0
  -32.6937   68.4101   -6.3544 N   0  0  0  0  0  0  0  0  0  0  0  0
  1  2  1  0  0  0  0
  1  3  1  0  0  0  0
  1  4  1  0  0  0  0
  3  5  1  0  0  0  0
  5  6  1  0  0  0  0
  6  7  1  0  0  0  0
  7  8  1  0  0  0  0
  8  9  1  0  0  0  0
M  END
>  <CHROM.1>
-73.81852156,170.91408534,-168.34273275,-61.67508848,-61.03031245,-29.99128648
67.21964561,-8.68556149,0.88543909,-0.57907637,-2.76734002

>  <Name>
ligand

>  <RI>
0

>  <Rbt.Current_Directory>
/home/itssahil/PROJECTS/Mol_Feturizer/Test_systems_manuscript/rnas/4erj

>  <Rbt.Executable>
rbdock ($Id: //depot/dev/client3/rdock/2013.1/src/exe/rbdock.cxx#4 $)

>  <Rbt.Library>
libRbt.so (2013.1, Build901 2013/11/27)

>  <Rbt.Parameter_File>
/export/apps/rDock/src/rDock_2013.1_src/data/scripts/dock_solv.prm

>  <Rbt.Receptor>
prm/blind_docking_80.prm

>  <SCORE>
-4.51018

>  <SCORE.INTER>
-2.2019

>  <SCORE.INTER.CONST>
1

>  <SCORE.INTER.POLAR>
0

>  <SCORE.INTER.ROT>
5

>  <SCORE.INTER.SOLV>
2.18545

>  <SCORE.INTER.VDW>
-9.12975

>  <SCORE.INTER.norm>
-0.244656

>  <SCORE.INTRA>
-2.30828

>  <SCORE.INTRA.DIHEDRAL>
-5.2204

>  <SCORE.INTRA.DIHEDRAL.0>
7.73744

>  <SCORE.INTRA.POLAR>
0

>  <SCORE.INTRA.POLAR.0>
0

>  <SCORE.INTRA.REPUL>
0

>  <SCORE.INTRA.REPUL.0>
0

>  <SCORE.INTRA.SOLV>
1.06843

>  <SCORE.INTRA.SOLV.lig_0>
-15.8342

>  <SCORE.INTRA.VDW>
-0.232295

>  <SCORE.INTRA.VDW.0>
-0.219494

>  <SCORE.INTRA.norm>
-0.256476

>  <SCORE.RESTR>
0

>  <SCORE.RESTR.CAVITY>
0

>  <SCORE.RESTR.norm>
0

>  <SCORE.SYSTEM>
0

>  <SCORE.SYSTEM.CONST>
0

>  <SCORE.SYSTEM.DIHEDRAL>
0

>  <SCORE.SYSTEM.SOLV>
0

>  <SCORE.SYSTEM.norm>
0

>  <SCORE.heavy>
9

>  <SCORE.norm>
-0.501131

>  <RMSD>
22.268

$$$$
ligand
 OpenBabel02271912143D
libRbt.so/2013.1/901 2013/11/27
  9  8  0  0  0  0  0  0  0  0999 V2000
  -29.3100   64.2642  -10.1614 C   0  0  0  0  0  0  0  0  0  0  0  0
  -29.9339   63.8189   -9.1307 O   0  0  0  0  0  0  0  0  0  0  0  0
  -28.5399   65.5113  -10.0719 C   0  0  0  0  0  0  0  0  0  0  0  0
  -29.3764   63.6702  -11.2867 O   0  0  0  0  0  0  0  0  0  0  0  0
  -29.3259   66.7238   -9.6858 C   0  0  0  0  0  0  0  0  0  0  0  0
  -29.9066   66.7697   -8.3206 C   0  0  0  0  0  0  0  0  0  0  0  0
  -30.5447   68.0979   -7.9501 C   0  0  0  0  0  0  0  0  0  0  0  0
  -31.1494   68.2833   -6.5494 C   0  0  0  0  0  0  0  0  0  0  0  0
  -31.7105   69.5073   -6.2475 N   0  0  0  0  0  0  0  0  0  0  0  0
  1  2  1  0  0  0  0
  1  3  1  0  0  0  0
  1  4  1  0  0  0  0
  3  5  1  0  0  0  0
  5  6  1  0  0  0  0
  6  7  1  0  0  0  0
  7  8  1  0  0  0  0
  8  9  1  0  0  0  0
M  END
>  <CHROM.1>
-59.61039520,66.09930716,173.00838465,-178.44000414,179.50630345,-29.97777417
66.24698587,-8.84468837,1.04706369,-0.90520539,-2.89740629

>  <Name>
ligand

>  <RI>
0

>  <Rbt.Current_Directory>
/home/itssahil/PROJECTS/Mol_Feturizer/Test_systems_manuscript/rnas/4erj

>  <Rbt.Executable>
rbdock ($Id: //depot/dev/client3/rdock/2013.1/src/exe/rbdock.cxx#4 $)

>  <Rbt.Library>
libRbt.so (2013.1, Build901 2013/11/27)

>  <Rbt.Parameter_File>
/export/apps/rDock/src/rDock_2013.1_src/data/scripts/dock_solv.prm

>  <Rbt.Receptor>
prm/blind_docking_80.prm

>  <SCORE>
-4.98992

>  <SCORE.INTER>
-1.77872

>  <SCORE.INTER.CONST>
1

>  <SCORE.INTER.POLAR>
0

>  <SCORE.INTER.ROT>
5

>  <SCORE.INTER.SOLV>
3.6354

>  <SCORE.INTER.VDW>
-9.33095

>  <SCORE.INTER.norm>
-0.197635

>  <SCORE.INTRA>
-3.2112

>  <SCORE.INTRA.DIHEDRAL>
-5.69281

>  <SCORE.INTRA.DIHEDRAL.0>
7.73744

>  <SCORE.INTRA.POLAR>
0

>  <SCORE.INTRA.POLAR.0>
0

>  <SCORE.INTRA.REPUL>
0

>  <SCORE.INTRA.REPUL.0>
0

>  <SCORE.INTRA.SOLV>
-0.123204

>  <SCORE.INTRA.SOLV.lig_0>
-15.8342

>  <SCORE.INTRA.VDW>
-0.303194

>  <SCORE.INTRA.VDW.0>
-0.219494

>  <SCORE.INTRA.norm>
-0.3568

>  <SCORE.RESTR>
0

>  <SCORE.RESTR.CAVITY>
0

>  <SCORE.RESTR.norm>
0

>  <SCORE.SYSTEM>
0

>  <SCORE.SYSTEM.CONST>
0

>  <SCORE.SYSTEM.DIHEDRAL>
0

>  <SCORE.SYSTEM.SOLV>
0

>  <SCORE.SYSTEM.norm>
0

>  <SCORE.heavy>
9

>  <SCORE.norm>
-0.554435

>  <RMSD>
22.303

$$$$
ligand
 OpenBabel02271912143D
libRbt.so/2013.1/901 2013/11/27
  9  8  0  0  0  0  0  0  0  0999 V2000
  -28.6601   65.6491  -10.0346 C   0  0  0  0  0  0  0  0  0  0  0  0
  -29.0108   64.4412  -10.2949 O   0  0  0  0  0  0  0  0  0  0  0  0
  -29.0119   66.7323  -10.9616 C   0  0  0  0  0  0  0  0  0  0  0  0
  -27.9681   65.9328   -9.0030 O   0  0  0  0  0  0  0  0  0  0  0  0
  -30.2922   67.4442  -10.6593 C   0  0  0  0  0  0  0  0  0  0  0  0
  -30.3628   68.2475   -9.4132 C   0  0  0  0  0  0  0  0  0  0  0  0
  -30.5697   67.4327   -8.1475 C   0  0  0  0  0  0  0  0  0  0  0  0
  -30.7442   68.1544   -6.8019 C   0  0  0  0  0  0  0  0  0  0  0  0
  -31.1191   67.3985   -5.7100 N   0  0  0  0  0  0  0  0  0  0  0  0
  1  2  1  0  0  0  0
  1  3  1  0  0  0  0
  1  4  1  0  0  0  0
  3  5  1  0  0  0  0
  5  6  1  0  0  0  0
  6  7  1  0  0  0  0
  7  8  1  0  0  0  0
  8  9  1  0  0  0  0
M  END
>  <CHROM.1>
92.95951344,66.37685765,-78.16742301,-176.34072924,170.91389510,-29.72691683
66.79382419,-9.00705728,-0.68859391,-0.96825885,1.82793939

>  <Name>
ligand

>  <RI>
0

>  <Rbt.Current_Directory>
/home/itssahil/PROJECTS/Mol_Feturizer/Test_systems_manuscript/rnas/4erj

>  <Rbt.Executable>
rbdock ($Id: //depot/dev/client3/rdock/2013.1/src/exe/rbdock.cxx#4 $)

>  <Rbt.Library>
libRbt.so (2013.1, Build901 2013/11/27)

>  <Rbt.Parameter_File>
/export/apps/rDock/src/rDock_2013.1_src/data/scripts/dock_solv.prm

>  <Rbt.Receptor>
prm/blind_docking_80.prm

>  <SCORE>
-3.7464

>  <SCORE.INTER>
-1.10721

>  <SCORE.INTER.CONST>
1

>  <SCORE.INTER.POLAR>
0

>  <SCORE.INTER.ROT>
5

>  <SCORE.INTER.SOLV>
5.50281

>  <SCORE.INTER.VDW>
-9.50575

>  <SCORE.INTER.norm>
-0.123024

>  <SCORE.INTRA>
-2.63918

>  <SCORE.INTRA.DIHEDRAL>
-4.14257

>  <SCORE.INTRA.DIHEDRAL.0>
7.73744

>  <SCORE.INTRA.POLAR>
0

>  <SCORE.INTRA.POLAR.0>
0

>  <SCORE.INTRA.REPUL>
0

>  <SCORE.INTRA.REPUL.0>
0

>  <SCORE.INTRA.SOLV>
-0.131504

>  <SCORE.INTRA.SOLV.lig_0>
-15.8342

>  <SCORE.INTRA.VDW>
-0.502145

>  <SCORE.INTRA.VDW.0>
-0.219494

>  <SCORE.INTRA.norm>
-0.293243

>  <SCORE.RESTR>
0

>  <SCORE.RESTR.CAVITY>
0

>  <SCORE.RESTR.norm>
0

>  <SCORE.SYSTEM>
0

>  <SCORE.SYSTEM.CONST>
0

>  <SCORE.SYSTEM.DIHEDRAL>
0

>  <SCORE.SYSTEM.SOLV>
0

>  <SCORE.SYSTEM.norm>
0

>  <SCORE.heavy>
9

>  <SCORE.norm>
-0.416266

>  <RMSD>
22.335

$$$$
ligand
 OpenBabel02271912143D
libRbt.so/2013.1/901 2013/11/27
  9  8  0  0  0  0  0  0  0  0999 V2000
  -29.2172   64.2249  -10.0921 C   0  0  0  0  0  0  0  0  0  0  0  0
  -29.9578   63.8495   -9.1120 O   0  0  0  0  0  0  0  0  0  0  0  0
  -28.4716   65.4872  -10.0079 C   0  0  0  0  0  0  0  0  0  0  0  0
  -29.1438   63.5462  -11.1680 O   0  0  0  0  0  0  0  0  0  0  0  0
  -29.2886   66.6930   -9.6677 C   0  0  0  0  0  0  0  0  0  0  0  0
  -29.8815   66.7697   -8.3091 C   0  0  0  0  0  0  0  0  0  0  0  0
  -30.5656   68.0889   -7.9923 C   0  0  0  0  0  0  0  0  0  0  0  0
  -31.1614   68.3168   -6.5941 C   0  0  0  0  0  0  0  0  0  0  0  0
  -31.7950   69.5186   -6.3525 N   0  0  0  0  0  0  0  0  0  0  0  0
  1  2  1  0  0  0  0
  1  3  1  0  0  0  0
  1  4  1  0  0  0  0
  3  5  1  0  0  0  0
  5  6  1  0  0  0  0
  6  7  1  0  0  0  0
  7  8  1  0  0  0  0
  8  9  1  0  0  0  0
M  END
>  <CHROM.1>
-53.32432269,67.42613076,173.60323930,-177.16264722,-178.89259592,-29.94158171
66.22955325,-8.83177769,1.03858837,-0.85160468,-2.91363669

>  <Name>
ligand

>  <RI>
0

>  <Rbt.Current_Directory>
/home/itssahil/PROJECTS/Mol_Feturizer/Test_systems_manuscript/rnas/4erj

>  <Rbt.Executable>
rbdock ($Id: //depot/dev/client3/rdock/2013.1/src/exe/rbdock.cxx#4 $)

>  <Rbt.Library>
libRbt.so (2013.1, Build901 2013/11/27)

>  <Rbt.Parameter_File>
/export/apps/rDock/src/rDock_2013.1_src/data/scripts/dock_solv.prm

>  <Rbt.Receptor>
prm/blind_docking_80.prm

>  <SCORE>
-5.04246

>  <SCORE.INTER>
-1.95376

>  <SCORE.INTER.CONST>
1

>  <SCORE.INTER.POLAR>
0

>  <SCORE.INTER.ROT>
5

>  <SCORE.INTER.SOLV>
3.75596

>  <SCORE.INTER.VDW>
-9.48783

>  <SCORE.INTER.norm>
-0.217084

>  <SCORE.INTRA>
-3.0887

>  <SCORE.INTRA.DIHEDRAL>
-5.59189

>  <SCORE.INTRA.DIHEDRAL.0>
7.73744

>  <SCORE.INTRA.POLAR>
0

>  <SCORE.INTRA.POLAR.0>
0

>  <SCORE.INTRA.REPUL>
0

>  <SCORE.INTRA.REPUL.0>
0

>  <SCORE.INTRA.SOLV>
-0.1232

>  <SCORE.INTRA.SOLV.lig_0>
-15.8342

>  <SCORE.INTRA.VDW>
-0.231158

>  <SCORE.INTRA.VDW.0>
-0.219494

>  <SCORE.INTRA.norm>
-0.343189

>  <SCORE.RESTR>
0

>  <SCORE.RESTR.CAVITY>
0

>  <SCORE.RESTR.norm>
0

>  <SCORE.SYSTEM>
0

>  <SCORE.SYSTEM.CONST>
0

>  <SCORE.SYSTEM.DIHEDRAL>
0

>  <SCORE.SYSTEM.SOLV>
0

>  <SCORE.SYSTEM.norm>
0

>  <SCORE.heavy>
9

>  <SCORE.norm>
-0.560273

>  <RMSD>
22.339

$$$$
ligand
 OpenBabel02271912143D
libRbt.so/2013.1/901 2013/11/27
  9  8  0  0  0  0  0  0  0  0999 V2000
  -30.0949   68.1781   -8.6364 C   0  0  0  0  0  0  0  0  0  0  0  0
  -29.9200   69.4387   -8.4629 O   0  0  0  0  0  0  0  0  0  0  0  0
  -30.2843   67.6422   -9.9904 C   0  0  0  0  0  0  0  0  0  0  0  0
  -30.1532   67.3731   -7.6504 O   0  0  0  0  0  0  0  0  0  0  0  0
  -29.0830   66.9868  -10.5943 C   0  0  0  0  0  0  0  0  0  0  0  0
  -28.5418   65.7772   -9.9257 C   0  0  0  0  0  0  0  0  0  0  0  0
  -29.5584   64.6699   -9.7043 C   0  0  0  0  0  0  0  0  0  0  0  0
  -30.2684   64.0403  -10.9133 C   0  0  0  0  0  0  0  0  0  0  0  0
  -29.4968   63.3482  -11.8242 N   0  0  0  0  0  0  0  0  0  0  0  0
  1  2  1  0  0  0  0
  1  3  1  0  0  0  0
  1  4  1  0  0  0  0
  3  5  1  0  0  0  0
  5  6  1  0  0  0  0
  6  7  1  0  0  0  0
  7  8  1  0  0  0  0
  8  9  1  0  0  0  0
M  END
>  <CHROM.1>
101.86191365,62.75210250,54.09764752,60.15020990,64.22090185,-29.71523525
66.41834240,-9.70978349,1.87415753,1.30997543,0.22385718

>  <Name>
ligand

>  <RI>
0

>  <Rbt.Current_Directory>
/home/itssahil/PROJECTS/Mol_Feturizer/Test_systems_manuscript/rnas/4erj

>  <Rbt.Executable>
rbdock ($Id: //depot/dev/client3/rdock/2013.1/src/exe/rbdock.cxx#4 $)

>  <Rbt.Library>
libRbt.so (2013.1, Build901 2013/11/27)

>  <Rbt.Parameter_File>
/export/apps/rDock/src/rDock_2013.1_src/data/scripts/dock_solv.prm

>  <Rbt.Receptor>
prm/blind_docking_80.prm

>  <SCORE>
-4.62851

>  <SCORE.INTER>
-2.50515

>  <SCORE.INTER.CONST>
1

>  <SCORE.INTER.POLAR>
0

>  <SCORE.INTER.ROT>
5

>  <SCORE.INTER.SOLV>
4.80065

>  <SCORE.INTER.VDW>
-10.2037

>  <SCORE.INTER.norm>
-0.27835

>  <SCORE.INTRA>
-2.12336

>  <SCORE.INTRA.DIHEDRAL>
-5.72828

>  <SCORE.INTRA.DIHEDRAL.0>
7.73744

>  <SCORE.INTRA.POLAR>
0

>  <SCORE.INTRA.POLAR.0>
0

>  <SCORE.INTRA.REPUL>
0

>  <SCORE.INTRA.REPUL.0>
0

>  <SCORE.INTRA.SOLV>
1.01672

>  <SCORE.INTRA.SOLV.lig_0>
-15.8342

>  <SCORE.INTRA.VDW>
0.232421

>  <SCORE.INTRA.VDW.0>
-0.219494

>  <SCORE.INTRA.norm>
-0.235929

>  <SCORE.RESTR>
0

>  <SCORE.RESTR.CAVITY>
0

>  <SCORE.RESTR.norm>
0

>  <SCORE.SYSTEM>
0

>  <SCORE.SYSTEM.CONST>
0

>  <SCORE.SYSTEM.DIHEDRAL>
0

>  <SCORE.SYSTEM.SOLV>
0

>  <SCORE.SYSTEM.norm>
0

>  <SCORE.heavy>
9

>  <SCORE.norm>
-0.514279

>  <RMSD>
22.346

$$$$
ligand
 OpenBabel02271912143D
libRbt.so/2013.1/901 2013/11/27
  9  8  0  0  0  0  0  0  0  0999 V2000
  -28.7850   65.7196   -9.8730 C   0  0  0  0  0  0  0  0  0  0  0  0
  -29.3303   64.5672  -10.0296 O   0  0  0  0  0  0  0  0  0  0  0  0
  -29.6170   66.8908   -9.5687 C   0  0  0  0  0  0  0  0  0  0  0  0
  -27.5303   65.8868  -10.0190 O   0  0  0  0  0  0  0  0  0  0  0  0
  -30.0080   67.0438   -8.1330 C   0  0  0  0  0  0  0  0  0  0  0  0
  -30.7420   68.2726   -7.7401 C   0  0  0  0  0  0  0  0  0  0  0  0
  -31.0026   68.4028   -6.2489 C   0  0  0  0  0  0  0  0  0  0  0  0
  -31.7219   69.6501   -5.7115 C   0  0  0  0  0  0  0  0  0  0  0  0
  -33.0128   69.8832   -6.1397 N   0  0  0  0  0  0  0  0  0  0  0  0
  1  2  1  0  0  0  0
  1  3  1  0  0  0  0
  1  4  1  0  0  0  0
  3  5  1  0  0  0  0
  5  6  1  0  0  0  0
  6  7  1  0  0  0  0
  7  8  1  0  0  0  0
  8  9  1  0  0  0  0
M  END
>  <CHROM.1>
81.43038728,174.45431637,-175.29853498,178.39407409,62.14613488,-30.16186709
67.32815045,-8.19334890,1.00318930,-0.18244200,-2.47940652

>  <Name>
ligand

>  <RI>
0

>  <Rbt.Current_Directory>
/home/itssahil/PROJECTS/Mol_Feturizer/Test_systems_manuscript/rnas/4erj

>  <Rbt.Executable>
rbdock ($Id: //depot/dev/client3/rdock/2013.1/src/exe/rbdock.cxx#4 $)

>  <Rbt.Library>
libRbt.so (2013.1, Build901 2013/11/27)

>  <Rbt.Parameter_File>
/export/apps/rDock/src/rDock_2013.1_src/data/scripts/dock_solv.prm

>  <Rbt.Receptor>
prm/blind_docking_80.prm

>  <SCORE>
-4.79151

>  <SCORE.INTER>
-1.68138

>  <SCORE.INTER.CONST>
1

>  <SCORE.INTER.POLAR>
0

>  <SCORE.INTER.ROT>
5

>  <SCORE.INTER.SOLV>
2.50876

>  <SCORE.INTER.VDW>
-8.89051

>  <SCORE.INTER.norm>
-0.18682

>  <SCORE.INTRA>
-3.11012

>  <SCORE.INTRA.DIHEDRAL>
-5.72093

>  <SCORE.INTRA.DIHEDRAL.0>
7.73744

>  <SCORE.INTRA.POLAR>
0

>  <SCORE.INTRA.POLAR.0>
0

>  <SCORE.INTRA.REPUL>
0

>  <SCORE.INTRA.REPUL.0>
0

>  <SCORE.INTRA.SOLV>
0.507671

>  <SCORE.INTRA.SOLV.lig_0>
-15.8342

>  <SCORE.INTRA.VDW>
-0.503495

>  <SCORE.INTRA.VDW.0>
-0.219494

>  <SCORE.INTRA.norm>
-0.345569

>  <SCORE.RESTR>
0

>  <SCORE.RESTR.CAVITY>
0

>  <SCORE.RESTR.norm>
0

>  <SCORE.SYSTEM>
0

>  <SCORE.SYSTEM.CONST>
0

>  <SCORE.SYSTEM.DIHEDRAL>
0

>  <SCORE.SYSTEM.SOLV>
0

>  <SCORE.SYSTEM.norm>
0

>  <SCORE.heavy>
9

>  <SCORE.norm>
-0.53239

>  <RMSD>
22.425

$$$$
ligand
 OpenBabel02271912143D
libRbt.so/2013.1/901 2013/11/27
  9  8  0  0  0  0  0  0  0  0999 V2000
  -28.5739   66.4055  -10.2658 C   0  0  0  0  0  0  0  0  0  0  0  0
  -28.4000   67.1153  -11.3222 O   0  0  0  0  0  0  0  0  0  0  0  0
  -29.9149   66.2731   -9.6823 C   0  0  0  0  0  0  0  0  0  0  0  0
  -27.5959   65.8405   -9.6760 O   0  0  0  0  0  0  0  0  0  0  0  0
  -30.7406   67.5203   -9.6836 C   0  0  0  0  0  0  0  0  0  0  0  0
  -30.3174   68.6344   -8.7988 C   0  0  0  0  0  0  0  0  0  0  0  0
  -30.5496   68.3877   -7.3177 C   0  0  0  0  0  0  0  0  0  0  0  0
  -30.1541   69.4678   -6.2985 C   0  0  0  0  0  0  0  0  0  0  0  0
  -30.5100   69.2699   -4.9800 N   0  0  0  0  0  0  0  0  0  0  0  0
  1  2  1  0  0  0  0
  1  3  1  0  0  0  0
  1  4  1  0  0  0  0
  3  5  1  0  0  0  0
  5  6  1  0  0  0  0
  6  7  1  0  0  0  0
  7  8  1  0  0  0  0
  8  9  1  0  0  0  0
M  END
>  <CHROM.1>
-39.79115262,-68.56595973,-72.14846720,-179.94285455,173.18881517,-29.60568683
67.64028491,-8.70123797,-1.14640274,-0.55287915,1.25232495

>  <Name>
ligand

>  <RI>
0

>  <Rbt.Current_Directory>
/home/itssahil/PROJECTS/Mol_Feturizer/Test_systems_manuscript/rnas/4erj

>  <Rbt.Executable>
rbdock ($Id: //depot/dev/client3/rdock/2013.1/src/exe/rbdock.cxx#4 $)

>  <Rbt.Library>
libRbt.so (2013.1, Build901 2013/11/27)

>  <Rbt.Parameter_File>
/export/apps/rDock/src/rDock_2013.1_src/data/scripts/dock_solv.prm

>  <Rbt.Receptor>
prm/blind_docking_80.prm

>  <SCORE>
-5.866

>  <SCORE.INTER>
-3.30173

>  <SCORE.INTER.CONST>
1

>  <SCORE.INTER.POLAR>
0

>  <SCORE.INTER.ROT>
5

>  <SCORE.INTER.SOLV>
4.07803

>  <SCORE.INTER.VDW>
-10.4938

>  <SCORE.INTER.norm>
-0.366859

>  <SCORE.INTRA>
-2.56427

>  <SCORE.INTRA.DIHEDRAL>
-4.89801

>  <SCORE.INTRA.DIHEDRAL.0>
7.73744

>  <SCORE.INTRA.POLAR>
0

>  <SCORE.INTRA.POLAR.0>
0

>  <SCORE.INTRA.REPUL>
0

>  <SCORE.INTRA.REPUL.0>
0

>  <SCORE.INTRA.SOLV>
-0.126864

>  <SCORE.INTRA.SOLV.lig_0>
-15.8342

>  <SCORE.INTRA.VDW>
-0.0518275

>  <SCORE.INTRA.VDW.0>
-0.219494

>  <SCORE.INTRA.norm>
-0.284918

>  <SCORE.RESTR>
0

>  <SCORE.RESTR.CAVITY>
0

>  <SCORE.RESTR.norm>
0

>  <SCORE.SYSTEM>
0

>  <SCORE.SYSTEM.CONST>
0

>  <SCORE.SYSTEM.DIHEDRAL>
0

>  <SCORE.SYSTEM.SOLV>
0

>  <SCORE.SYSTEM.norm>
0

>  <SCORE.heavy>
9

>  <SCORE.norm>
-0.651778

>  <RMSD>
22.561

$$$$
ligand
 OpenBabel02271912143D
libRbt.so/2013.1/901 2013/11/27
  9  8  0  0  0  0  0  0  0  0999 V2000
  -30.8474   69.1834   -7.3932 C   0  0  0  0  0  0  0  0  0  0  0  0
  -32.0968   69.1687   -7.0955 O   0  0  0  0  0  0  0  0  0  0  0  0
  -30.4074   68.7828   -8.7357 C   0  0  0  0  0  0  0  0  0  0  0  0
  -29.9624   69.4980   -6.5322 O   0  0  0  0  0  0  0  0  0  0  0  0
  -29.9082   67.3778   -8.8541 C   0  0  0  0  0  0  0  0  0  0  0  0
  -29.2458   66.9804  -10.1215 C   0  0  0  0  0  0  0  0  0  0  0  0
  -28.5560   65.6273  -10.0763 C   0  0  0  0  0  0  0  0  0  0  0  0
  -29.3997   64.3513   -9.9296 C   0  0  0  0  0  0  0  0  0  0  0  0
  -30.2439   64.0149  -10.9681 N   0  0  0  0  0  0  0  0  0  0  0  0
  1  2  1  0  0  0  0
  1  3  1  0  0  0  0
  1  4  1  0  0  0  0
  3  5  1  0  0  0  0
  5  6  1  0  0  0  0
  6  7  1  0  0  0  0
  7  8  1  0  0  0  0
  8  9  1  0  0  0  0
M  END
>  <CHROM.1>
-98.66562514,-170.21822329,169.82629113,67.00960992,66.00093947,-30.09141553
67.25518543,-8.81604329,1.83154842,0.21762768,0.56655087

>  <Name>
ligand

>  <RI>
0

>  <Rbt.Current_Directory>
/home/itssahil/PROJECTS/Mol_Feturizer/Test_systems_manuscript/rnas/4erj

>  <Rbt.Executable>
rbdock ($Id: //depot/dev/client3/rdock/2013.1/src/exe/rbdock.cxx#4 $)

>  <Rbt.Library>
libRbt.so (2013.1, Build901 2013/11/27)

>  <Rbt.Parameter_File>
/export/apps/rDock/src/rDock_2013.1_src/data/scripts/dock_solv.prm

>  <Rbt.Receptor>
prm/blind_docking_80.prm

>  <SCORE>
-4.88309

>  <SCORE.INTER>
-2.55159

>  <SCORE.INTER.CONST>
1

>  <SCORE.INTER.POLAR>
0

>  <SCORE.INTER.ROT>
5

>  <SCORE.INTER.SOLV>
3.45469

>  <SCORE.INTER.VDW>
-9.78596

>  <SCORE.INTER.norm>
-0.28351

>  <SCORE.INTRA>
-2.3315

>  <SCORE.INTRA.DIHEDRAL>
-4.98957

>  <SCORE.INTRA.DIHEDRAL.0>
7.73744

>  <SCORE.INTRA.POLAR>
0

>  <SCORE.INTRA.POLAR.0>
0

>  <SCORE.INTRA.REPUL>
0

>  <SCORE.INTRA.REPUL.0>
0

>  <SCORE.INTRA.SOLV>
0.929596

>  <SCORE.INTRA.SOLV.lig_0>
-15.8342

>  <SCORE.INTRA.VDW>
-0.301513

>  <SCORE.INTRA.VDW.0>
-0.219494

>  <SCORE.INTRA.norm>
-0.259056

>  <SCORE.RESTR>
0

>  <SCORE.RESTR.CAVITY>
0

>  <SCORE.RESTR.norm>
0

>  <SCORE.SYSTEM>
0

>  <SCORE.SYSTEM.CONST>
0

>  <SCORE.SYSTEM.DIHEDRAL>
0

>  <SCORE.SYSTEM.SOLV>
0

>  <SCORE.SYSTEM.norm>
0

>  <SCORE.heavy>
9

>  <SCORE.norm>
-0.542566

>  <RMSD>
22.603

$$$$
ligand
 OpenBabel02271912143D
libRbt.so/2013.1/901 2013/11/27
  9  8  0  0  0  0  0  0  0  0999 V2000
  -28.5312   66.3738  -10.2683 C   0  0  0  0  0  0  0  0  0  0  0  0
  -27.4924   65.7971   -9.7804 O   0  0  0  0  0  0  0  0  0  0  0  0
  -29.8532   66.1279   -9.6782 C   0  0  0  0  0  0  0  0  0  0  0  0
  -28.4533   67.1296  -11.2911 O   0  0  0  0  0  0  0  0  0  0  0  0
  -30.2218   67.0211   -8.5364 C   0  0  0  0  0  0  0  0  0  0  0  0
  -30.2946   68.4814   -8.7921 C   0  0  0  0  0  0  0  0  0  0  0  0
  -30.8048   69.3030   -7.6203 C   0  0  0  0  0  0  0  0  0  0  0  0
  -30.0120   69.3188   -6.3038 C   0  0  0  0  0  0  0  0  0  0  0  0
  -30.5434   70.0202   -5.2409 N   0  0  0  0  0  0  0  0  0  0  0  0
  1  2  1  0  0  0  0
  1  3  1  0  0  0  0
  1  4  1  0  0  0  0
  3  5  1  0  0  0  0
  5  6  1  0  0  0  0
  6  7  1  0  0  0  0
  7  8  1  0  0  0  0
  8  9  1  0  0  0  0
M  END
>  <CHROM.1>
87.29075734,60.72713710,174.34740553,62.31183054,-176.68895429,-29.54539956
67.71229842,-8.64606951,-1.08890333,-0.65478503,1.21356348

>  <Name>
ligand

>  <RI>
0

>  <Rbt.Current_Directory>
/home/itssahil/PROJECTS/Mol_Feturizer/Test_systems_manuscript/rnas/4erj

>  <Rbt.Executable>
rbdock ($Id: //depot/dev/client3/rdock/2013.1/src/exe/rbdock.cxx#4 $)

>  <Rbt.Library>
libRbt.so (2013.1, Build901 2013/11/27)

>  <Rbt.Parameter_File>
/export/apps/rDock/src/rDock_2013.1_src/data/scripts/dock_solv.prm

>  <Rbt.Receptor>
prm/blind_docking_80.prm

>  <SCORE>
-7.30928

>  <SCORE.INTER>
-4.24547

>  <SCORE.INTER.CONST>
1

>  <SCORE.INTER.POLAR>
0

>  <SCORE.INTER.ROT>
5

>  <SCORE.INTER.SOLV>
4.72477

>  <SCORE.INTER.VDW>
-11.3386

>  <SCORE.INTER.norm>
-0.471719

>  <SCORE.INTRA>
-3.0638

>  <SCORE.INTRA.DIHEDRAL>
-5.75976

>  <SCORE.INTRA.DIHEDRAL.0>
7.73744

>  <SCORE.INTRA.POLAR>
0

>  <SCORE.INTRA.POLAR.0>
0

>  <SCORE.INTRA.REPUL>
0

>  <SCORE.INTRA.REPUL.0>
0

>  <SCORE.INTRA.SOLV>
0.0568931

>  <SCORE.INTRA.SOLV.lig_0>
-15.8342

>  <SCORE.INTRA.VDW>
-0.212367

>  <SCORE.INTRA.VDW.0>
-0.219494

>  <SCORE.INTRA.norm>
-0.340422

>  <SCORE.RESTR>
0

>  <SCORE.RESTR.CAVITY>
0

>  <SCORE.RESTR.norm>
0

>  <SCORE.SYSTEM>
0

>  <SCORE.SYSTEM.CONST>
0

>  <SCORE.SYSTEM.DIHEDRAL>
0

>  <SCORE.SYSTEM.SOLV>
0

>  <SCORE.SYSTEM.norm>
0

>  <SCORE.heavy>
9

>  <SCORE.norm>
-0.812142

>  <RMSD>
22.645

$$$$
ligand
 OpenBabel02271912143D
libRbt.so/2013.1/901 2013/11/27
  9  8  0  0  0  0  0  0  0  0999 V2000
  -29.9868   67.2590  -10.2933 C   0  0  0  0  0  0  0  0  0  0  0  0
  -30.8375   67.4890  -11.2277 O   0  0  0  0  0  0  0  0  0  0  0  0
  -30.3964   67.3565   -8.8865 C   0  0  0  0  0  0  0  0  0  0  0  0
  -28.7695   66.9875  -10.5544 O   0  0  0  0  0  0  0  0  0  0  0  0
  -30.1861   68.6930   -8.2487 C   0  0  0  0  0  0  0  0  0  0  0  0
  -30.2741   68.7785   -6.7695 C   0  0  0  0  0  0  0  0  0  0  0  0
  -29.4749   69.9148   -6.1540 C   0  0  0  0  0  0  0  0  0  0  0  0
  -29.4446   70.0790   -4.6262 C   0  0  0  0  0  0  0  0  0  0  0  0
  -30.6007   70.4991   -4.0010 N   0  0  0  0  0  0  0  0  0  0  0  0
  1  2  1  0  0  0  0
  1  3  1  0  0  0  0
  1  4  1  0  0  0  0
  3  5  1  0  0  0  0
  5  6  1  0  0  0  0
  6  7  1  0  0  0  0
  7  8  1  0  0  0  0
  8  9  1  0  0  0  0
M  END
>  <CHROM.1>
-92.11509378,-165.93682464,153.67026395,-177.83564690,-70.30304447,-29.99086351
68.54125510,-7.91798369,-1.56761761,-0.13459230,1.10902533

>  <Name>
ligand

>  <RI>
0

>  <Rbt.Current_Directory>
/home/itssahil/PROJECTS/Mol_Feturizer/Test_systems_manuscript/rnas/4erj

>  <Rbt.Executable>
rbdock ($Id: //depot/dev/client3/rdock/2013.1/src/exe/rbdock.cxx#4 $)

>  <Rbt.Library>
libRbt.so (2013.1, Build901 2013/11/27)

>  <Rbt.Parameter_File>
/export/apps/rDock/src/rDock_2013.1_src/data/scripts/dock_solv.prm

>  <Rbt.Receptor>
prm/blind_docking_80.prm

>  <SCORE>
-1.87963

>  <SCORE.INTER>
-0.32924

>  <SCORE.INTER.CONST>
1

>  <SCORE.INTER.POLAR>
0

>  <SCORE.INTER.ROT>
5

>  <SCORE.INTER.SOLV>
3.69959

>  <SCORE.INTER.VDW>
-8.38602

>  <SCORE.INTER.norm>
-0.0365822

>  <SCORE.INTRA>
-1.55192

>  <SCORE.INTRA.DIHEDRAL>
-2.47675

>  <SCORE.INTRA.DIHEDRAL.0>
7.73744

>  <SCORE.INTRA.POLAR>
0

>  <SCORE.INTRA.POLAR.0>
0

>  <SCORE.INTRA.REPUL>
0

>  <SCORE.INTRA.REPUL.0>
0

>  <SCORE.INTRA.SOLV>
0.420952

>  <SCORE.INTRA.SOLV.lig_0>
-15.8342

>  <SCORE.INTRA.VDW>
-0.524019

>  <SCORE.INTRA.VDW.0>
-0.219494

>  <SCORE.INTRA.norm>
-0.172435

>  <SCORE.RESTR>
0.00152313

>  <SCORE.RESTR.CAVITY>
0.00152313

>  <SCORE.RESTR.norm>
0.000169237

>  <SCORE.SYSTEM>
0

>  <SCORE.SYSTEM.CONST>
0

>  <SCORE.SYSTEM.DIHEDRAL>
0

>  <SCORE.SYSTEM.SOLV>
0

>  <SCORE.SYSTEM.norm>
0

>  <SCORE.heavy>
9

>  <SCORE.norm>
-0.208848

>  <RMSD>
22.786

$$$$
ligand
 OpenBabel02271912143D
libRbt.so/2013.1/901 2013/11/27
  9  8  0  0  0  0  0  0  0  0999 V2000
  -28.8540   65.9507   -9.8093 C   0  0  0  0  0  0  0  0  0  0  0  0
  -28.0929   66.6934  -10.5297 O   0  0  0  0  0  0  0  0  0  0  0  0
  -29.5895   66.5308   -8.6784 C   0  0  0  0  0  0  0  0  0  0  0  0
  -28.9572   64.6989  -10.0235 O   0  0  0  0  0  0  0  0  0  0  0  0
  -30.3111   67.8081   -8.9704 C   0  0  0  0  0  0  0  0  0  0  0  0
  -31.0511   68.4575   -7.8597 C   0  0  0  0  0  0  0  0  0  0  0  0
  -30.1714   68.9899   -6.7411 C   0  0  0  0  0  0  0  0  0  0  0  0
  -30.8223   69.6288   -5.5042 C   0  0  0  0  0  0  0  0  0  0  0  0
  -29.9893   70.1166   -4.5181 N   0  0  0  0  0  0  0  0  0  0  0  0
  1  2  1  0  0  0  0
  1  3  1  0  0  0  0
  1  4  1  0  0  0  0
  3  5  1  0  0  0  0
  5  6  1  0  0  0  0
  6  7  1  0  0  0  0
  7  8  1  0  0  0  0
  8  9  1  0  0  0  0
M  END
>  <CHROM.1>
47.17647123,-178.82078578,66.67070354,-177.30917125,-179.15468308,-29.73605308
67.61888084,-8.11161705,-1.27850199,-0.37763061,0.97289014

>  <Name>
ligand

>  <RI>
0

>  <Rbt.Current_Directory>
/home/itssahil/PROJECTS/Mol_Feturizer/Test_systems_manuscript/rnas/4erj

>  <Rbt.Executable>
rbdock ($Id: //depot/dev/client3/rdock/2013.1/src/exe/rbdock.cxx#4 $)

>  <Rbt.Library>
libRbt.so (2013.1, Build901 2013/11/27)

>  <Rbt.Parameter_File>
/export/apps/rDock/src/rDock_2013.1_src/data/scripts/dock_solv.prm

>  <Rbt.Receptor>
prm/blind_docking_80.prm

>  <SCORE>
-5.11085

>  <SCORE.INTER>
-2.13862

>  <SCORE.INTER.CONST>
1

>  <SCORE.INTER.POLAR>
0

>  <SCORE.INTER.ROT>
5

>  <SCORE.INTER.SOLV>
4.1866

>  <SCORE.INTER.VDW>
-9.75461

>  <SCORE.INTER.norm>
-0.237624

>  <SCORE.INTRA>
-2.97223

>  <SCORE.INTRA.DIHEDRAL>
-5.90107

>  <SCORE.INTRA.DIHEDRAL.0>
7.73744

>  <SCORE.INTRA.POLAR>
0

>  <SCORE.INTRA.POLAR.0>
0

>  <SCORE.INTRA.REPUL>
0

>  <SCORE.INTRA.REPUL.0>
0

>  <SCORE.INTRA.SOLV>
-0.122572

>  <SCORE.INTRA.SOLV.lig_0>
-15.8342

>  <SCORE.INTRA.VDW>
0.0395939

>  <SCORE.INTRA.VDW.0>
-0.219494

>  <SCORE.INTRA.norm>
-0.330248

>  <SCORE.RESTR>
0

>  <SCORE.RESTR.CAVITY>
0

>  <SCORE.RESTR.norm>
0

>  <SCORE.SYSTEM>
0

>  <SCORE.SYSTEM.CONST>
0

>  <SCORE.SYSTEM.DIHEDRAL>
0

>  <SCORE.SYSTEM.SOLV>
0

>  <SCORE.SYSTEM.norm>
0

>  <SCORE.heavy>
9

>  <SCORE.norm>
-0.567872

>  <RMSD>
22.844

$$$$
ligand
 OpenBabel02271912143D
libRbt.so/2013.1/901 2013/11/27
  9  8  0  0  0  0  0  0  0  0999 V2000
  -30.1178   69.2431   -7.5231 C   0  0  0  0  0  0  0  0  0  0  0  0
  -29.9664   70.0665   -8.4973 O   0  0  0  0  0  0  0  0  0  0  0  0
  -30.8765   68.0016   -7.7217 C   0  0  0  0  0  0  0  0  0  0  0  0
  -29.6597   69.4962   -6.3614 O   0  0  0  0  0  0  0  0  0  0  0  0
  -30.0800   66.8355   -8.2149 C   0  0  0  0  0  0  0  0  0  0  0  0
  -29.4267   66.9521   -9.5426 C   0  0  0  0  0  0  0  0  0  0  0  0
  -28.5802   65.7537   -9.9373 C   0  0  0  0  0  0  0  0  0  0  0  0
  -29.2655   64.4204  -10.2758 C   0  0  0  0  0  0  0  0  0  0  0  0
  -30.0454   63.8319   -9.3012 N   0  0  0  0  0  0  0  0  0  0  0  0
  1  2  1  0  0  0  0
  1  3  1  0  0  0  0
  1  4  1  0  0  0  0
  3  5  1  0  0  0  0
  5  6  1  0  0  0  0
  6  7  1  0  0  0  0
  7  8  1  0  0  0  0
  8  9  1  0  0  0  0
M  END
>  <CHROM.1>
87.98774262,-62.11704023,177.02382908,69.87284772,-59.38348223,-29.77545045
67.22606971,-8.57807992,1.80328473,1.06744991,0.25775330

>  <Name>
ligand

>  <RI>
0

>  <Rbt.Current_Directory>
/home/itssahil/PROJECTS/Mol_Feturizer/Test_systems_manuscript/rnas/4erj

>  <Rbt.Executable>
rbdock ($Id: //depot/dev/client3/rdock/2013.1/src/exe/rbdock.cxx#4 $)

>  <Rbt.Library>
libRbt.so (2013.1, Build901 2013/11/27)

>  <Rbt.Parameter_File>
/export/apps/rDock/src/rDock_2013.1_src/data/scripts/dock_solv.prm

>  <Rbt.Receptor>
prm/blind_docking_80.prm

>  <SCORE>
-5.07529

>  <SCORE.INTER>
-2.80038

>  <SCORE.INTER.CONST>
1

>  <SCORE.INTER.POLAR>
0

>  <SCORE.INTER.ROT>
5

>  <SCORE.INTER.SOLV>
7.64701

>  <SCORE.INTER.VDW>
-11.3493

>  <SCORE.INTER.norm>
-0.311153

>  <SCORE.INTRA>
-2.27491

>  <SCORE.INTRA.DIHEDRAL>
-5.50099

>  <SCORE.INTRA.DIHEDRAL.0>
7.73744

>  <SCORE.INTRA.POLAR>
0

>  <SCORE.INTRA.POLAR.0>
0

>  <SCORE.INTRA.REPUL>
0

>  <SCORE.INTRA.REPUL.0>
0

>  <SCORE.INTRA.SOLV>
1.67305

>  <SCORE.INTRA.SOLV.lig_0>
-15.8342

>  <SCORE.INTRA.VDW>
-0.360942

>  <SCORE.INTRA.VDW.0>
-0.219494

>  <SCORE.INTRA.norm>
-0.252768

>  <SCORE.RESTR>
0

>  <SCORE.RESTR.CAVITY>
0

>  <SCORE.RESTR.norm>
0

>  <SCORE.SYSTEM>
0

>  <SCORE.SYSTEM.CONST>
0

>  <SCORE.SYSTEM.DIHEDRAL>
0

>  <SCORE.SYSTEM.SOLV>
0

>  <SCORE.SYSTEM.norm>
0

>  <SCORE.heavy>
9

>  <SCORE.norm>
-0.563921

>  <RMSD>
22.911

$$$$
