@<TRIPOS>MOLECULE
4erj_rdock.pdb
 3478 3896 0 0 0
SMALL
GASTEIGER

@<TRIPOS>ATOM
      1  P        -68.3940   68.5410  -21.1280 P.3     1  G1          0.1280
      2  C5'      -70.4020   68.7340  -19.4350 C.3     1  G1          0.1795
      3  O5'      -69.4730   67.9140  -20.1340 O.3     1  G1         -0.3259
      4  C4'      -71.4700   67.9030  -18.7620 C.3     1  G1          0.1772
      5  O4'      -72.3050   67.2750  -19.7650 O.3     1  G1         -0.3307
      6  C3'      -70.9670   66.7460  -17.9210 C.3     1  G1          0.1860
      7  O3'      -70.5900   67.1480  -16.6230 O.3     1  G1         -0.3112
      8  C2'      -72.1250   65.7510  -17.9460 C.3     1  G1          0.2309
      9  O2'      -73.1030   66.0940  -16.9770 O.3     1  G1         -0.2156
     10  C1'      -72.7170   65.9950  -19.3330 C.3     1  G1          0.2408
     11  N1       -72.5130   61.0860  -21.0140 N.ar    1  G1         -0.1709
     12  C2       -73.0620   61.5620  -19.8440 C.ar    1  G1          0.2606
     13  N2       -73.6130   60.6250  -19.0500 N.pl3   1  G1         -0.0859
     14  N3       -73.0700   62.8490  -19.4880 N.ar    1  G1         -0.1918
     15  C4       -72.4730   63.6360  -20.4100 C.ar    1  G1          0.1723
     16  C5       -71.8950   63.2410  -21.6010 C.ar    1  G1          0.1748
     17  C6       -71.8900   61.8690  -21.9800 C.ar    1  G1          0.3023
     18  O6       -71.4160   61.3430  -23.0070 O.2     1  G1         -0.2633
     19  N7       -71.3710   64.3300  -22.2700 N.ar    1  G1         -0.2173
     20  C8       -71.6390   65.3420  -21.4970 C.ar    1  G1          0.1817
     21  N9       -72.2820   65.0010  -20.3380 N.ar    1  G1         -0.2693
     22  OP1      -68.8530   69.8760  -21.6230 O.3     1  G1         -0.1955
     23  OP2      -67.9650   67.5140  -22.1140 O.co2   1  G1         -0.7863
     24  P        -69.2450   66.5710  -15.9620 P.3     2  G2          0.2141
     25  C5'      -70.6180   64.6640  -14.8440 C.3     2  G2          0.1812
     26  O5'      -69.6050   65.0420  -15.7550 O.3     2  G2         -0.3114
     27  C4'      -70.7910   63.1720  -14.8060 C.3     2  G2          0.1773
     28  O4'      -71.4080   62.7130  -16.0340 O.3     2  G2         -0.3307
     29  C3'      -69.5240   62.3490  -14.7400 C.3     2  G2          0.1860
     30  O3'      -68.9180   62.3490  -13.4620 O.3     2  G2         -0.3112
     31  C2'      -70.0230   60.9850  -15.1890 C.3     2  G2          0.2309
     32  O2'      -70.7730   60.3620  -14.1500 O.3     2  G2         -0.2156
     33  C1'      -70.9930   61.3870  -16.2950 C.3     2  G2          0.2408
     34  N1       -69.4720   58.4160  -20.1550 N.ar    2  G2         -0.1709
     35  C2       -70.0250   58.0660  -18.9440 C.ar    2  G2          0.2606
     36  N2       -70.1960   56.7490  -18.7550 N.pl3   2  G2         -0.0859
     37  N3       -70.3890   58.9370  -18.0020 N.ar    2  G2         -0.1918
     38  C4       -70.1390   60.2120  -18.3760 C.ar    2  G2          0.1723
     39  C5       -69.5850   60.6650  -19.5580 C.ar    2  G2          0.1748
     40  C6       -69.2100   59.7210  -20.5590 C.ar    2  G2          0.3023
     41  O6       -68.7100   59.9190  -21.6740 O.2     2  G2         -0.2633
     42  N7       -69.4900   62.0470  -19.5460 N.ar    2  G2         -0.2173
     43  C8       -69.9790   62.3990  -18.3870 C.ar    2  G2          0.1817
     44  N9       -70.3780   61.3370  -17.6290 N.ar    2  G2         -0.2693
     45  OP1      -69.0830   67.2420  -14.6340 O.3     2  G2         -0.4373
     46  OP2      -68.1520   66.7040  -16.9790 O.co2   2  G2         -0.5172
     47  P        -67.3210   62.1740  -13.3290 P.3     3  A3          0.2141
     48  C5'      -67.5530   59.6080  -12.8420 C.3     3  A3          0.1812
     49  O5'      -67.1010   60.6400  -13.7050 O.3     3  A3         -0.3114
     50  C4'      -67.2860   58.2500  -13.4310 C.3     3  A3          0.1773
     51  O4'      -67.9960   58.1170  -14.6900 O.3     3  A3         -0.3307
     52  C3'      -65.8410   57.9550  -13.8130 C.3     3  A3          0.1860
     53  O3'      -65.0170   57.6090  -12.7140 O.3     3  A3         -0.3112
     54  C2'      -65.9960   56.8460  -14.8420 C.3     3  A3          0.2309
     55  O2'      -66.2960   55.6090  -14.2120 O.3     3  A3         -0.2156
     56  C1'      -67.2380   57.3250  -15.5860 C.3     3  A3          0.2408
     57  N1       -65.7940   56.9890  -20.4110 N.ar    3  A3         -0.2040
     58  C2       -66.1070   56.0820  -19.4770 C.ar    3  A3          0.2016
     59  N3       -66.4820   56.2840  -18.2140 N.ar    3  A3         -0.2048
     60  C4       -66.5190   57.5960  -17.9390 C.ar    3  A3          0.1692
     61  C5       -66.2300   58.6540  -18.7790 C.ar    3  A3          0.1518
     62  C6       -65.8460   58.3050  -20.0920 C.ar    3  A3          0.1919
     63  N6       -65.5210   59.1800  -21.0450 N.pl3   3  A3         -0.1054
     64  N7       -66.3890   59.8650  -18.1030 N.ar    3  A3         -0.2193
     65  C8       -66.7650   59.5100  -16.8900 C.ar    3  A3          0.1816
     66  N9       -66.8760   58.1450  -16.7480 N.ar    3  A3         -0.2693
     67  OP1      -66.9800   62.4080  -11.9040 O.3     3  A3         -0.4373
     68  OP2      -66.6910   63.0370  -14.3670 O.co2   3  A3         -0.5172
     69  P        -63.4710   58.0420  -12.7200 P.3     4  C4          0.2141
     70  C5'      -62.9940   55.5810  -13.4360 C.3     4  C4          0.1812
     71  O5'      -62.8160   56.9600  -13.6800 O.3     4  C4         -0.3114
     72  C4'      -62.6010   54.7670  -14.6330 C.3     4  C4          0.1773
     73  O4'      -63.4650   55.0970  -15.7470 O.3     4  C4         -0.3307
     74  C3'      -61.2120   55.0250  -15.1860 C.3     4  C4          0.1860
     75  O3'      -60.1830   54.4120  -14.4400 O.3     4  C4         -0.3112
     76  C2'      -61.3350   54.5080  -16.6130 C.3     4  C4          0.2309
     77  O2'      -61.3060   53.0880  -16.6480 O.3     4  C4         -0.2156
     78  C1'      -62.7440   54.9700  -16.9610 C.3     4  C4          0.2420
     79  N1       -62.7230   56.2680  -17.6390 N.ar    4  C4         -0.2535
     80  C2       -62.4360   56.1820  -18.9950 C.ar    4  C4          0.3532
     81  O2       -62.2650   55.0590  -19.5000 O.2     4  C4         -0.2443
     82  N3       -62.3760   57.3050  -19.7260 N.ar    4  C4         -0.1739
     83  C4       -62.5730   58.4720  -19.1310 C.ar    4  C4          0.1759
     84  N4       -62.4880   59.5360  -19.9280 N.pl3   4  C4         -0.1070
     85  C5       -62.8640   58.5930  -17.7320 C.ar    4  C4          0.0566
     86  C6       -62.9240   57.4660  -17.0110 C.ar    4  C4          0.0850
     87  OP1      -62.9660   57.8730  -11.3320 O.3     4  C4         -0.4373
     88  OP2      -63.3880   59.3880  -13.3520 O.co2   4  C4         -0.5172
     89  P        -58.6540   54.8570  -14.6700 P.3     5  G5          0.2141
     90  C5'      -57.3270   54.7920  -16.9300 C.3     5  G5          0.1812
     91  O5'      -58.3150   54.2240  -16.0950 O.3     5  G5         -0.3114
     92  C4'      -57.3790   54.1980  -18.3120 C.3     5  G5          0.1773
     93  O4'      -58.6670   54.4880  -18.9140 O.3     5  G5         -0.3307
     94  C3'      -56.3620   54.7460  -19.3110 C.3     5  G5          0.1860
     95  O3'      -55.1000   54.1130  -19.2260 O.3     5  G5         -0.3112
     96  C2'      -57.0590   54.5530  -20.6480 C.3     5  G5          0.2309
     97  O2'      -56.9990   53.1950  -21.0590 O.3     5  G5         -0.2156
     98  C1'      -58.4950   54.8820  -20.2590 C.3     5  G5          0.2408
     99  N1       -58.7080   59.0180  -23.1920 N.ar    5  G5         -0.1709
    100  C2       -58.4080   57.7190  -23.5440 C.ar    5  G5          0.2606
    101  N2       -58.1310   57.5030  -24.8460 N.pl3   5  G5         -0.0859
    102  N3       -58.3810   56.7080  -22.6890 N.ar    5  G5         -0.1918
    103  C4       -58.6840   57.1240  -21.4450 C.ar    5  G5          0.1723
    104  C5       -58.9990   58.3930  -20.9920 C.ar    5  G5          0.1748
    105  C6       -59.0240   59.4560  -21.9140 C.ar    5  G5          0.3023
    106  O6       -59.2790   60.6420  -21.6970 O.2     5  G5         -0.2633
    107  N7       -59.2530   58.4010  -19.6270 N.ar    5  G5         -0.2173
    108  C8       -59.0850   57.1480  -19.2820 C.ar    5  G5          0.1817
    109  N9       -58.7490   56.3270  -20.3350 N.ar    5  G5         -0.2693
    110  OP1      -57.8480   54.1900  -13.6050 O.3     5  G5         -0.4373
    111  OP2      -58.6360   56.3460  -14.7610 O.co2   5  G5         -0.5172
    112  P        -53.7670   54.9960  -19.2420 P.3     6  G6          0.2141
    113  C5'      -53.6640   54.6190  -21.8290 C.3     6  G6          0.1812
    114  O5'      -53.7200   55.5250  -20.7430 O.3     6  G6         -0.3114
    115  C4'      -53.7590   55.3320  -23.1520 C.3     6  G6          0.1773
    116  O4'      -55.0000   56.0690  -23.2200 O.3     6  G6         -0.3307
    117  C3'      -52.7020   56.3820  -23.4240 C.3     6  G6          0.1860
    118  O3'      -51.4830   55.8260  -23.8640 O.3     6  G6         -0.3112
    119  C2'      -53.3740   57.2680  -24.4630 C.3     6  G6          0.2309
    120  O2'      -53.3050   56.6690  -25.7490 O.3     6  G6         -0.2156
    121  C1'      -54.8260   57.2290  -24.0000 C.3     6  G6          0.2408
    122  N1       -55.8480   62.1850  -24.0090 N.ar    6  G6         -0.1709
    123  C2       -55.4450   61.3490  -25.0290 C.ar    6  G6          0.2606
    124  N2       -55.2900   61.9010  -26.2410 N.pl3   6  G6         -0.0859
    125  N3       -55.1930   60.0610  -24.8930 N.ar    6  G6         -0.1918
    126  C4       -55.3970   59.6730  -23.6340 C.ar    6  G6          0.1723
    127  C5       -55.8030   60.4190  -22.5470 C.ar    6  G6          0.1748
    128  C6       -56.0610   61.8080  -22.6910 C.ar    6  G6          0.3023
    129  O6       -56.4200   62.6590  -21.8460 O.2     6  G6         -0.2633
    130  N7       -55.8820   59.6080  -21.4340 N.ar    6  G6         -0.2173
    131  C8       -55.5270   58.4200  -21.8650 C.ar    6  G6          0.1817
    132  N9       -55.2060   58.4000  -23.1930 N.ar    6  G6         -0.2693
    133  OP1      -52.6460   54.0730  -18.9930 O.2     6  G6         -0.5172
    134  OP2      -53.9770   56.1410  -18.3090 O.co2   6  G6         -0.4373
    135  P        -50.0910   56.4360  -23.3560 P.3     7  A7          0.2141
    136  C5'      -49.6030   57.0690  -25.8350 C.3     7  A7          0.1812
    137  O5'      -49.7350   57.4820  -24.4910 O.3     7  A7         -0.3114
    138  C4'      -49.8100   58.2230  -26.7750 C.3     7  A7          0.1773
    139  O4'      -51.1070   58.8120  -26.5350 O.3     7  A7         -0.3307
    140  C3'      -48.8260   59.3790  -26.6300 C.3     7  A7          0.1860
    141  O3'      -47.6330   59.1590  -27.3630 O.3     7  A7         -0.3112
    142  C2'      -49.6230   60.5870  -27.1160 C.3     7  A7          0.2309
    143  O2'      -49.5610   60.6870  -28.5290 O.3     7  A7         -0.2156
    144  C1'      -51.0530   60.2080  -26.7260 C.3     7  A7          0.2408
    145  N1       -53.2030   64.4530  -24.6400 N.ar    7  A7         -0.2040
    146  C2       -52.8140   64.1700  -25.8850 C.ar    7  A7          0.2016
    147  N3       -52.2590   63.0480  -26.3530 N.ar    7  A7         -0.2048
    148  C4       -52.0900   62.1310  -25.3800 C.ar    7  A7          0.1692
    149  C5       -52.4370   62.2820  -24.0480 C.ar    7  A7          0.1518
    150  C6       -53.0250   63.5040  -23.6840 C.ar    7  A7          0.1919
    151  N6       -53.4110   63.7690  -22.4340 N.pl3   7  A7         -0.1054
    152  N7       -52.1310   61.1470  -23.3170 N.ar    7  A7         -0.2193
    153  C8       -51.6100   60.3440  -24.2250 C.ar    7  A7          0.1816
    154  N9       -51.5310   60.8750  -25.4920 N.ar    7  A7         -0.2693
    155  OP1      -49.1020   55.3250  -23.3610 O.2     7  A7         -0.5172
    156  OP2      -50.3600   57.1470  -22.0820 O.co2   7  A7         -0.4373
    157  P        -46.2200   59.6030  -26.7690 P.3     8  G8          0.2141
    158  C5'      -46.3580   61.5830  -28.4640 C.3     8  G8          0.1812
    159  O5'      -46.1780   61.1550  -27.1180 O.3     8  G8         -0.3114
    160  C4'      -46.4930   63.0910  -28.6080 C.3     8  G8          0.1773
    161  O4'      -47.6380   63.5820  -27.8690 O.3     8  G8         -0.3307
    162  C3'      -45.2970   63.9460  -28.1750 C.3     8  G8          0.1860
    163  O3'      -44.9960   64.8570  -29.2150 O.3     8  G8         -0.3112
    164  C2'      -45.8250   64.7370  -26.9730 C.3     8  G8          0.2309
    165  O2'      -45.2690   66.0250  -26.8460 O.3     8  G8         -0.2156
    166  C1'      -47.3040   64.8220  -27.2840 C.3     8  G8          0.2408
    167  N1       -49.0850   62.8890  -22.9850 N.ar    8  G8         -0.1709
    168  C2       -48.1820   62.3570  -23.8650 C.ar    8  G8          0.2606
    169  N2       -47.7200   61.1400  -23.5290 N.pl3   8  G8         -0.0859
    170  N3       -47.7790   62.9630  -24.9630 N.ar    8  G8         -0.1918
    171  C4       -48.3700   64.1620  -25.0870 C.ar    8  G8          0.1723
    172  C5       -49.2810   64.7860  -24.2620 C.ar    8  G8          0.1748
    173  C6       -49.7020   64.1270  -23.0880 C.ar    8  G8          0.3023
    174  O6       -50.4870   64.4940  -22.2000 O.2     8  G8         -0.2633
    175  N7       -49.6370   66.0240  -24.7580 N.ar    8  G8         -0.2173
    176  C8       -48.9510   66.1240  -25.8660 C.ar    8  G8          0.1817
    177  N9       -48.1600   65.0320  -26.1180 N.ar    8  G8         -0.2693
    178  OP1      -45.1930   58.8860  -27.5430 O.2     8  G8         -0.5172
    179  OP2      -46.2680   59.4050  -25.3060 O.co2   8  G8         -0.4373
    180  P        -43.8250   64.5230  -30.2330 P.3     9  G9          0.2141
    181  C5'      -42.2950   66.0760  -28.8020 C.3     9  G9          0.1812
    182  O5'      -42.5340   64.7910  -29.3550 O.3     9  G9         -0.3114
    183  C4'      -41.2050   66.0500  -27.7570 C.3     9  G9          0.1773
    184  O4'      -41.6620   65.3060  -26.5870 O.3     9  G9         -0.3307
    185  C3'      -39.8820   65.3980  -28.1970 C.3     9  G9          0.1860
    186  O3'      -38.7740   66.1770  -27.7220 O.3     9  G9         -0.3112
    187  C2'      -39.9090   64.0570  -27.4650 C.3     9  G9          0.2309
    188  O2'      -38.6350   63.5040  -27.2010 O.3     9  G9         -0.2156
    189  C1'      -40.6320   64.4400  -26.1840 C.3     9  G9          0.2408
    190  N1       -44.0320   62.5320  -22.7800 N.ar    9  G9         -0.1709
    191  C2       -43.9370   63.8160  -23.2730 C.ar    9  G9          0.2606
    192  N2       -44.8520   64.6600  -22.7770 N.pl3   9  G9         -0.0859
    193  N3       -43.0410   64.2470  -24.1660 N.ar    9  G9         -0.1918
    194  C4       -42.2180   63.2440  -24.5310 C.ar    9  G9          0.1723
    195  C5       -42.2390   61.9230  -24.0990 C.ar    9  G9          0.1748
    196  C6       -43.2070   61.4800  -23.1480 C.ar    9  G9          0.3023
    197  O6       -43.3760   60.3440  -22.6560 O.2     9  G9         -0.2633
    198  N7       -41.2260   61.2040  -24.7110 N.ar    9  G9         -0.2173
    199  C8       -40.6320   62.0680  -25.4780 C.ar    9  G9          0.1817
    200  N9       -41.1940   63.3120  -25.4470 N.ar    9  G9         -0.2693
    201  OP1      -43.9090   65.5200  -31.3300 O.2     9  G9         -0.5172
    202  OP2      -43.9250   63.0740  -30.5580 O.co2   9  G9         -0.4373
    203  P        -37.8620   67.0010  -28.7590 P.3    10  C10         0.2141
    204  C5'      -36.2090   65.2850  -27.6540 C.3    10  C10         0.1812
    205  O5'      -36.4140   66.3880  -28.5300 O.3    10  C10        -0.3114
    206  C4'      -35.4330   65.6840  -26.4170 C.3    10  C10         0.1773
    207  O4'      -34.2920   66.5010  -26.8060 O.3    10  C10        -0.3307
    208  C3'      -36.2170   66.4990  -25.3930 C.3    10  C10         0.1860
    209  O3'      -35.8230   66.1320  -24.0740 O.3    10  C10        -0.3112
    210  C2'      -35.7780   67.9290  -25.6640 C.3    10  C10         0.2309
    211  O2'      -35.8570   68.7760  -24.5390 O.3    10  C10        -0.2156
    212  C1'      -34.3310   67.7420  -26.1250 C.3    10  C10         0.2420
    213  N1       -33.8620   68.8050  -27.0590 N.ar   10  C10        -0.2535
    214  C2       -33.0860   69.8720  -26.5670 C.ar   10  C10         0.3532
    215  O2       -32.7830   69.8990  -25.3590 O.2    10  C10        -0.2443
    216  N3       -32.6840   70.8470  -27.4250 N.ar   10  C10        -0.1739
    217  C4       -33.0260   70.7930  -28.7190 C.ar   10  C10         0.1759
    218  N4       -32.6020   71.7740  -29.5230 N.pl3  10  C10        -0.1070
    219  C5       -33.8190   69.7280  -29.2460 C.ar   10  C10         0.0566
    220  C6       -34.2130   68.7720  -28.3910 C.ar   10  C10         0.0850
    221  OP1      -37.8810   68.4210  -28.3180 O.3    10  C10        -0.4373
    222  OP2      -38.3410   66.6650  -30.1240 O.co2  10  C10        -0.5172
    223  P        -36.8160   65.2690  -23.1480 P.3    11  G11         0.2141
    224  C5'      -38.5990   67.2100  -23.1840 C.3    11  G11         0.1812
    225  O5'      -37.7150   66.3870  -22.4350 O.3    11  G11        -0.3114
    226  C4'      -39.9380   67.3590  -22.5070 C.3    11  G11         0.1773
    227  O4'      -40.7910   66.2340  -22.8340 O.3    11  G11        -0.3307
    228  C3'      -39.9360   67.3720  -20.9880 C.3    11  G11         0.1860
    229  O3'      -39.5340   68.6140  -20.4410 O.3    11  G11        -0.3112
    230  C2'      -41.3770   67.0080  -20.6690 C.3    11  G11         0.2309
    231  O2'      -42.2320   68.1260  -20.8830 O.3    11  G11        -0.2156
    232  C1'      -41.6640   65.9740  -21.7550 C.3    11  G11         0.2408
    233  N1       -42.9470   62.2720  -18.4690 N.ar   11  G11        -0.1709
    234  C2       -43.4400   63.5440  -18.5620 C.ar   11  G11         0.2606
    235  N2       -44.3950   63.8640  -17.6800 N.pl3  11  G11        -0.0859
    236  N3       -43.0330   64.4290  -19.4550 N.ar   11  G11        -0.1918
    237  C4       -42.0780   63.9310  -20.2630 C.ar   11  G11         0.1723
    238  C5       -41.5190   62.6740  -20.2420 C.ar   11  G11         0.1748
    239  C6       -41.9580   61.7400  -19.2810 C.ar   11  G11         0.3023
    240  O6       -41.5730   60.5790  -19.1160 O.2    11  G11        -0.2633
    241  N7       -40.5590   62.5410  -21.2280 N.ar   11  G11        -0.2173
    242  C8       -40.5500   63.7040  -21.8210 C.ar   11  G11         0.1817
    243  N9       -41.4360   64.5970  -21.2850 N.ar   11  G11        -0.2693
    244  OP1      -35.9760   64.5740  -22.1300 O.3    11  G11        -0.4373
    245  OP2      -37.6590   64.4450  -24.0660 O.co2  11  G11        -0.5172
    246  P        -38.6880   68.6530  -19.0810 P.3    12  C12         0.2141
    247  C5'      -40.8010   69.3780  -17.7560 C.3    12  C12         0.1812
    248  O5'      -39.7880   68.4170  -17.9730 O.3    12  C12        -0.3114
    249  C4'      -41.7590   68.9150  -16.7030 C.3    12  C12         0.1773
    250  O4'      -42.3690   67.6710  -17.1210 O.3    12  C12        -0.3307
    251  C3'      -41.1530   68.5560  -15.3610 C.3    12  C12         0.1860
    252  O3'      -40.8140   69.6760  -14.5720 O.3    12  C12        -0.3112
    253  C2'      -42.2350   67.6770  -14.7520 C.3    12  C12         0.2309
    254  O2'      -43.3400   68.4620  -14.3150 O.3    12  C12        -0.2156
    255  C1'      -42.6740   66.8860  -15.9810 C.3    12  C12         0.2420
    256  N1       -41.9650   65.6150  -16.0920 N.ar   12  C12        -0.2535
    257  C2       -42.3270   64.6040  -15.2070 C.ar   12  C12         0.3532
    258  O2       -43.2170   64.8060  -14.3660 O.2    12  C12        -0.2443
    259  N3       -41.6860   63.4250  -15.2820 N.ar   12  C12        -0.1739
    260  C4       -40.7320   63.2570  -16.1970 C.ar   12  C12         0.1759
    261  N4       -40.1340   62.0660  -16.2500 N.pl3  12  C12        -0.1070
    262  C5       -40.3580   64.2820  -17.1060 C.ar   12  C12         0.0566
    263  C6       -40.9960   65.4500  -17.0250 C.ar   12  C12         0.0850
    264  OP1      -38.1260   70.0280  -18.9540 O.3    12  C12        -0.4373
    265  OP2      -37.7650   67.5040  -19.1070 O.co2  12  C12        -0.5172
    266  P        -39.4930   69.6130  -13.6660 P.3    13  G13         0.2141
    267  C5'      -40.6620   69.2010  -11.3560 C.3    13  G13         0.1812
    268  O5'      -39.9450   68.6640  -12.4580 O.3    13  G13        -0.3114
    269  C4'      -41.2970   68.1230  -10.5280 C.3    13  G13         0.1773
    270  O4'      -41.7710   67.0550  -11.3850 O.3    13  G13        -0.3307
    271  C3'      -40.3880   67.4060   -9.5610 C.3    13  G13         0.1860
    272  O3'      -40.1320   68.1540   -8.3930 O.3    13  G13        -0.3112
    273  C2'      -41.1450   66.1090   -9.3070 C.3    13  G13         0.2309
    274  O2'      -42.2350   66.3340   -8.4330 O.3    13  G13        -0.2156
    275  C1'      -41.7030   65.8230  -10.6930 C.3    13  G13         0.2408
    276  N1       -39.8170   61.0830  -11.1560 N.ar   13  G13        -0.1709
    277  C2       -40.6470   61.6230  -10.2010 C.ar   13  G13         0.2606
    278  N2       -41.0280   60.7770   -9.2450 N.pl3  13  G13        -0.0859
    279  N3       -41.0810   62.8790  -10.1560 N.ar   13  G13        -0.1918
    280  C4       -40.6020   63.5810  -11.1960 C.ar   13  G13         0.1723
    281  C5       -39.7640   63.1450  -12.2070 C.ar   13  G13         0.1748
    282  C6       -39.3100   61.7960  -12.2270 C.ar   13  G13         0.3023
    283  O6       -38.5720   61.2350  -13.0420 O.2    13  G13        -0.2633
    284  N7       -39.5050   64.1870  -13.0860 N.ar   13  G13        -0.2173
    285  C8       -40.1720   65.2050  -12.6050 C.ar   13  G13         0.1817
    286  N9       -40.8500   64.9030  -11.4580 N.ar   13  G13        -0.2693
    287  OP1      -39.2350   70.9990  -13.1550 O.3    13  G13        -0.4373
    288  OP2      -38.4420   68.9420  -14.4990 O.co2  13  G13        -0.5172
    289  P        -38.7180   68.0170   -7.6490 P.3    14  C14         0.2141
    290  C5'      -39.8710   66.5070   -5.8420 C.3    14  C14         0.1812
    291  O5'      -38.8790   66.6500   -6.8500 O.3    14  C14        -0.3114
    292  C4'      -39.9510   65.0800   -5.3450 C.3    14  C14         0.1773
    293  O4'      -40.3550   64.2110   -6.4290 O.3    14  C14        -0.3307
    294  C3'      -38.6510   64.4630   -4.8670 C.3    14  C14         0.1860
    295  O3'      -38.3040   64.8420   -3.5560 O.3    14  C14        -0.3112
    296  C2'      -38.9280   62.9820   -5.0180 C.3    14  C14         0.2309
    297  O2'      -39.8240   62.5380   -4.0070 O.3    14  C14        -0.2156
    298  C1'      -39.6760   62.9820   -6.3340 C.3    14  C14         0.2420
    299  N1       -38.7720   62.8670   -7.4850 N.ar   14  C14        -0.2535
    300  C2       -38.3750   61.5890   -7.8600 C.ar   14  C14         0.3532
    301  O2       -38.7770   60.6230   -7.1810 O.2    14  C14        -0.2443
    302  N3       -37.5620   61.4490   -8.9340 N.ar   14  C14        -0.1739
    303  C4       -37.1800   62.5260   -9.6160 C.ar   14  C14         0.1759
    304  N4       -36.3950   62.3420  -10.6680 N.pl3  14  C14        -0.1070
    305  C5       -37.5760   63.8410   -9.2560 C.ar   14  C14         0.0566
    306  C6       -38.3680   63.9620   -8.1890 C.ar   14  C14         0.0850
    307  OP1      -38.6230   69.1630   -6.6970 O.3    14  C14        -0.4373
    308  OP2      -37.6700   67.8530   -8.7010 O.co2  14  C14        -0.5172
    309  P        -36.7630   65.0240   -3.1660 P.3    15  C15         0.2141
    310  C5'      -37.0180   62.6770   -2.0640 C.3    15  C15         0.1812
    311  O5'      -36.2890   63.5280   -2.9270 O.3    15  C15        -0.3114
    312  C4'      -36.5300   61.2630   -2.1620 C.3    15  C15         0.1773
    313  O4'      -36.8240   60.7400   -3.4760 O.3    15  C15        -0.3307
    314  C3'      -35.0320   61.0690   -2.0350 C.3    15  C15         0.1860
    315  O3'      -34.5790   61.1100   -0.7020 O.3    15  C15        -0.3112
    316  C2'      -34.8230   59.7270   -2.7100 C.3    15  C15         0.2309
    317  O2'      -35.2670   58.6740   -1.8650 O.3    15  C15        -0.2156
    318  C1'      -35.8020   59.8440   -3.8690 C.3    15  C15         0.2420
    319  N1       -35.1730   60.3690   -5.0940 N.ar   15  C15        -0.2535
    320  C2       -34.4000   59.5150   -5.8830 C.ar   15  C15         0.3532
    321  O2       -34.2320   58.3540   -5.5100 O.2    15  C15        -0.2443
    322  N3       -33.8510   59.9720   -7.0310 N.ar   15  C15        -0.1739
    323  C4       -34.0660   61.2430   -7.3940 C.ar   15  C15         0.1759
    324  N4       -33.5110   61.6680   -8.5280 N.pl3  15  C15        -0.1070
    325  C5       -34.8490   62.1450   -6.6070 C.ar   15  C15         0.0566
    326  C6       -35.3840   61.6680   -5.4750 C.ar   15  C15         0.0850
    327  OP1      -36.7370   65.7830   -1.8870 O.3    15  C15        -0.4373
    328  OP2      -36.0670   65.5880   -4.3530 O.co2  15  C15        -0.5172
    329  P        -33.0750   61.5560   -0.3940 P.3    16  C16         0.2141
    330  C5'      -32.1850   59.0810   -0.4020 C.3    16  C16         0.1812
    331  O5'      -32.2240   60.3600   -1.0230 O.3    16  C16        -0.3114
    332  C4'      -31.1680   58.1900   -1.0620 C.3    16  C16         0.1773
    333  O4'      -31.5590   57.9320   -2.4310 O.3    16  C16        -0.3307
    334  C3'      -29.7670   58.7680   -1.1830 C.3    16  C16         0.1860
    335  O3'      -29.0110   58.6170   -0.0060 O.3    16  C16        -0.3112
    336  C2'      -29.1890   58.0050   -2.3600 C.3    16  C16         0.2309
    337  O2'      -28.7510   56.7150   -1.9560 O.3    16  C16        -0.2156
    338  C1'      -30.4130   57.8480   -3.2530 C.3    16  C16         0.2420
    339  N1       -30.4770   58.9060   -4.2840 N.ar   16  C16        -0.2535
    340  C2       -29.6240   58.7820   -5.3890 C.ar   16  C16         0.3532
    341  O2       -28.8660   57.8010   -5.4560 O.2    16  C16        -0.2443
    342  N3       -29.6330   59.7200   -6.3720 N.ar   16  C16        -0.1739
    343  C4       -30.4660   60.7550   -6.2780 C.ar   16  C16         0.1759
    344  N4       -30.4570   61.6490   -7.2600 N.pl3  16  C16        -0.1070
    345  C5       -31.3490   60.9060   -5.1600 C.ar   16  C16         0.0566
    346  C6       -31.3220   59.9750   -4.1900 C.ar   16  C16         0.0850
    347  OP1      -32.9120   61.5710    1.0890 O.3    16  C16        -0.4373
    348  OP2      -32.8290   62.8140   -1.1620 O.co2  16  C16        -0.5172
    349  P        -28.0190   59.7740    0.4600 P.3    17  G17         0.2141
    350  C5'      -26.0930   58.8530   -1.1060 C.3    17  G17         0.1812
    351  O5'      -27.0060   59.9020   -0.7690 O.3    17  G17        -0.3114
    352  C4'      -25.4540   59.1020   -2.4490 C.3    17  G17         0.1773
    353  O4'      -26.4890   59.2920   -3.4300 O.3    17  G17        -0.3307
    354  C3'      -24.6150   60.3610   -2.5430 C.3    17  G17         0.1860
    355  O3'      -23.2900   60.1500   -2.1330 O.3    17  G17        -0.3112
    356  C2'      -24.7280   60.7770   -3.9990 C.3    17  G17         0.2309
    357  O2'      -23.7760   60.0840   -4.7910 O.3    17  G17        -0.2156
    358  C1'      -26.1140   60.2730   -4.3680 C.3    17  G17         0.2408
    359  N1       -28.2210   64.1650   -6.9680 N.ar   17  G17        -0.1709
    360  C2       -27.1590   63.3640   -7.2920 C.ar   17  G17         0.2606
    361  N2       -26.5830   63.6150   -8.4730 N.pl3  17  G17        -0.0859
    362  N3       -26.6970   62.3870   -6.5360 N.ar   17  G17        -0.1918
    363  C4       -27.3900   62.2540   -5.3910 C.ar   17  G17         0.1723
    364  C5       -28.4580   63.0020   -4.9730 C.ar   17  G17         0.1748
    365  C6       -28.9550   64.0570   -5.7990 C.ar   17  G17         0.3023
    366  O6       -29.9060   64.8400   -5.6130 O.2    17  G17        -0.2633
    367  N7       -28.8760   62.5430   -3.7330 N.ar   17  G17        -0.2173
    368  C8       -28.0830   61.5570   -3.4250 C.ar   17  G17         0.1817
    369  N9       -27.1400   61.3410   -4.3820 N.ar   17  G17        -0.2693
    370  OP1      -27.3140   59.2540    1.6660 O.3    17  G17        -0.4373
    371  OP2      -28.8160   61.0240    0.5720 O.co2  17  G17        -0.5172
    372  P        -22.6810   61.0150   -0.9390 P.3    18  A18         0.2141
    373  C5'      -20.2390   60.1840   -1.3900 C.3    18  A18         0.1812
    374  O5'      -21.1740   61.2420   -1.4110 O.3    18  A18        -0.3114
    375  C4'      -19.5610   60.0130   -2.7200 C.3    18  A18         0.1773
    376  O4'      -20.5390   59.8910   -3.7850 O.3    18  A18        -0.3307
    377  C3'      -18.6960   61.1550   -3.1930 C.3    18  A18         0.1860
    378  O3'      -17.4720   61.2530   -2.4960 O.3    18  A18        -0.3112
    379  C2'      -18.5350   60.8140   -4.6620 C.3    18  A18         0.2309
    380  O2'      -17.6350   59.7250   -4.8260 O.3    18  A18        -0.2156
    381  C1'      -19.9500   60.3330   -4.9980 C.3    18  A18         0.2408
    382  N1       -20.7400   62.9360   -9.2810 N.ar   18  A18        -0.2040
    383  C2       -19.9550   61.9080   -8.9510 C.ar   18  A18         0.2016
    384  N3       -19.8310   61.2820   -7.7870 N.ar   18  A18        -0.2048
    385  C4       -20.6330   61.8350   -6.8720 C.ar   18  A18         0.1692
    386  C5       -21.4950   62.8970   -7.0460 C.ar   18  A18         0.1518
    387  C6       -21.5340   63.4650   -8.3290 C.ar   18  A18         0.1919
    388  N6       -22.3010   64.4920   -8.6810 N.pl3  18  A18        -0.1054
    389  N7       -22.1560   63.1670   -5.8620 N.ar   18  A18        -0.2193
    390  C8       -21.6760   62.2790   -5.0070 C.ar   18  A18         0.1816
    391  N9       -20.7600   61.4250   -5.5710 N.ar   18  A18        -0.2693
    392  OP1      -22.7290   60.1430    0.2850 O.3    18  A18        -0.4373
    393  OP2      -23.3960   62.3220   -0.9330 O.co2  18  A18        -0.5172
    394  P        -16.9810   62.6740   -1.9270 P.3    19  G19         0.2141
    395  C5'      -16.0630   63.3030   -4.3020 C.3    19  G19         0.1812
    396  O5'      -16.9400   63.5890   -3.2350 O.3    19  G19        -0.3114
    397  C4'      -16.4440   64.0660   -5.5410 C.3    19  G19         0.1773
    398  O4'      -17.8590   63.8880   -5.8170 O.3    19  G19        -0.3307
    399  C3'      -16.2870   65.5710   -5.4740 C.3    19  G19         0.1860
    400  O3'      -14.9500   66.0010   -5.6290 O.3    19  G19        -0.3112
    401  C2'      -17.2160   66.0450   -6.5850 C.3    19  G19         0.2309
    402  O2'      -16.6150   65.8620   -7.8570 O.3    19  G19        -0.2156
    403  C1'      -18.3700   65.0520   -6.4460 C.3    19  G19         0.2408
    404  N1       -22.1600   68.4100   -6.2160 N.ar   19  G19        -0.1709
    405  C2       -21.2930   68.1520   -7.2500 C.ar   19  G19         0.2606
    406  N2       -21.4880   68.9090   -8.3480 N.pl3  19  G19        -0.0859
    407  N3       -20.3230   67.2360   -7.1980 N.ar   19  G19        -0.1918
    408  C4       -20.3250   66.6020   -6.0020 C.ar   19  G19         0.1723
    409  C5       -21.1500   66.7920   -4.9130 C.ar   19  G19         0.1748
    410  C6       -22.1590   67.7650   -4.9830 C.ar   19  G19         0.3023
    411  O6       -22.9830   68.0690   -4.1110 O.2    19  G19        -0.2633
    412  N7       -20.8290   65.9470   -3.8710 N.ar   19  G19        -0.2173
    413  C8       -19.8120   65.2620   -4.3330 C.ar   19  G19         0.1817
    414  N9       -19.4630   65.6020   -5.6210 N.ar   19  G19        -0.2693
    415  OP1      -15.6090   62.4750   -1.3910 O.2    19  G19        -0.5172
    416  OP2      -18.0420   63.1700   -1.0010 O.co2  19  G19        -0.4373
    417  P        -14.4230   67.3040   -4.8360 P.3    20  A20         0.2141
    418  C5'      -14.3430   68.7470   -7.0230 C.3    20  A20         0.1812
    419  O5'      -14.9330   68.5060   -5.7590 O.3    20  A20        -0.3114
    420  C4'      -15.2450   69.5690   -7.8960 C.3    20  A20         0.1773
    421  O4'      -16.5940   69.0660   -7.7980 O.3    20  A20        -0.3307
    422  C3'      -15.3870   71.0320   -7.5130 C.3    20  A20         0.1860
    423  O3'      -14.3060   71.8360   -7.9380 O.3    20  A20        -0.3112
    424  C2'      -16.7060   71.4120   -8.1540 C.3    20  A20         0.2309
    425  O2'      -16.5400   71.6270   -9.5490 O.3    20  A20        -0.2156
    426  C1'      -17.5080   70.1330   -7.9470 C.3    20  A20         0.2408
    427  N1       -21.6750   72.3760   -6.0850 N.ar   20  A20        -0.2040
    428  C2       -20.9950   72.5060   -7.2380 C.ar   20  A20         0.2016
    429  N3       -19.9000   71.8670   -7.6360 N.ar   20  A20        -0.2048
    430  C4       -19.4880   71.0090   -6.6820 C.ar   20  A20         0.1692
    431  C5       -20.0720   70.7640   -5.4510 C.ar   20  A20         0.1518
    432  C6       -21.2350   71.4970   -5.1500 C.ar   20  A20         0.1919
    433  N6       -21.9290   71.3860   -4.0110 N.pl3  20  A20        -0.1054
    434  N7       -19.3520   69.8140   -4.7520 N.ar   20  A20        -0.2193
    435  C8       -18.3630   69.5080   -5.5680 C.ar   20  A20         0.1816
    436  N9       -18.3840   70.2010   -6.7560 N.ar   20  A20        -0.2693
    437  OP1      -12.9410   67.2500   -4.8520 O.2    20  A20        -0.5172
    438  OP2      -15.1260   67.3390   -3.5170 O.co2  20  A20        -0.4373
    439  P        -13.7600   73.0080   -6.9750 P.3    21  U21         0.2141
    440  C5'      -15.2870   74.7670   -8.2050 C.3    21  U21         0.1812
    441  O5'      -14.9420   74.0850   -7.0080 O.3    21  U21        -0.3114
    442  C4'      -16.6050   75.4960   -8.0630 C.3    21  U21         0.1773
    443  O4'      -17.6630   74.5450   -7.7820 O.3    21  U21        -0.3307
    444  C3'      -16.7240   76.4890   -6.9070 C.3    21  U21         0.1860
    445  O3'      -16.0930   77.7370   -7.1410 O.3    21  U21        -0.3112
    446  C2'      -18.2230   76.6050   -6.7600 C.3    21  U21         0.2309
    447  O2'      -18.7630   77.3950   -7.8090 O.3    21  U21        -0.2156
    448  C1'      -18.6420   75.1550   -6.9660 C.3    21  U21         0.2420
    449  N1       -18.6890   74.4480   -5.6930 N.ar   21  U21        -0.2534
    450  C2       -19.8050   74.6250   -4.9250 C.ar   21  U21         0.3546
    451  O2       -20.7450   75.3050   -5.2890 O.2    21  U21        -0.2443
    452  N3       -19.7910   73.9680   -3.7250 N.ar   21  U21        -0.1530
    453  C4       -18.7780   73.1850   -3.2230 C.ar   21  U21         0.2846
    454  O4       -18.8920   72.6420   -2.1250 O.2    21  U21        -0.2650
    455  C5       -17.6520   73.0730   -4.0790 C.ar   21  U21         0.0814
    456  C6       -17.6430   73.7030   -5.2540 C.ar   21  U21         0.0870
    457  OP1      -12.5430   73.5690   -7.6300 O.2    21  U21        -0.5172
    458  OP2      -13.6410   72.4280   -5.5880 O.co2  21  U21        -0.4373
    459  P        -15.1590   78.3850   -5.9990 P.3    22  G22         0.2141
    460  C5'      -17.3980   79.6290   -5.3990 C.3    22  G22         0.1812
    461  O5'      -16.1990   79.0120   -4.9650 O.3    22  G22        -0.3114
    462  C4'      -18.4450   79.5720   -4.3230 C.3    22  G22         0.1773
    463  O4'      -18.7950   78.1980   -4.0470 O.3    22  G22        -0.3307
    464  C3'      -18.0290   80.1340   -2.9790 C.3    22  G22         0.1860
    465  O3'      -18.1670   81.5410   -2.9370 O.3    22  G22        -0.3112
    466  C2'      -18.9550   79.4040   -2.0140 C.3    22  G22         0.2309
    467  O2'      -20.2450   79.9920   -2.0210 O.3    22  G22        -0.2156
    468  C1'      -19.0580   78.0320   -2.6730 C.3    22  G22         0.2408
    469  N1       -18.2000   74.5170    0.8810 N.ar   22  G22        -0.1709
    470  C2       -19.3040   75.2720    0.6610 C.ar   22  G22         0.2606
    471  N2       -20.3050   75.0490    1.5200 N.pl3  22  G22        -0.0859
    472  N3       -19.4090   76.1650   -0.3090 N.ar   22  G22        -0.1918
    473  C4       -18.2910   76.2300   -1.0500 C.ar   22  G22         0.1723
    474  C5       -17.1320   75.5180   -0.9170 C.ar   22  G22         0.1748
    475  C6       -17.0410   74.5730    0.1250 C.ar   22  G22         0.3023
    476  O6       -16.0960   73.8250    0.4180 O.2    22  G22        -0.2633
    477  N7       -16.2120   75.8810   -1.8870 N.ar   22  G22        -0.2173
    478  C8       -16.8170   76.8040   -2.5850 C.ar   22  G22         0.1817
    479  N9       -18.0860   77.0670   -2.1200 N.ar   22  G22        -0.2693
    480  OP1      -14.3670   79.4640   -6.6520 O.2    22  G22        -0.5172
    481  OP2      -14.4420   77.2640   -5.3410 O.co2  22  G22        -0.4373
    482  P        -17.0210   82.4910   -2.3040 P.3    23  A23         0.2141
    483  C5'      -14.4310   82.2360   -2.3870 C.3    23  A23         0.1812
    484  O5'      -15.7030   81.6030   -2.3600 O.3    23  A23        -0.3114
    485  C4'      -13.3170   81.3010   -2.0120 C.3    23  A23         0.1773
    486  O4'      -13.6060   80.6890   -0.7270 O.3    23  A23        -0.3307
    487  C3'      -13.0830   80.1530   -2.9880 C.3    23  A23         0.1860
    488  O3'      -11.6990   79.8380   -3.0060 O.3    23  A23        -0.3112
    489  C2'      -13.8320   79.0070   -2.3130 C.3    23  A23         0.2309
    490  O2'      -13.4140   77.7110   -2.6980 O.3    23  A23        -0.2156
    491  C1'      -13.5150   79.2900   -0.8550 C.3    23  A23         0.2408
    492  N1       -14.1800   75.6390    2.7430 N.ar   23  A23        -0.2040
    493  C2       -13.1430   75.9790    1.9750 C.ar   23  A23         0.2016
    494  N3       -13.0330   76.9380    1.0550 N.ar   23  A23        -0.2048
    495  C4       -14.1740   77.6180    0.9280 C.ar   23  A23         0.1692
    496  C5       -15.3330   77.3790    1.6340 C.ar   23  A23         0.1518
    497  C6       -15.3140   76.3420    2.5810 C.ar   23  A23         0.1919
    498  N6       -16.3510   75.9960    3.3290 N.pl3  23  A23        -0.1054
    499  N7       -16.3120   78.2760    1.2470 N.ar   23  A23        -0.2193
    500  C8       -15.7330   79.0290    0.3300 C.ar   23  A23         0.1816
    501  N9       -14.4370   78.6760    0.0890 N.ar   23  A23        -0.2693
    502  OP1      -17.4160   82.7370   -0.8680 O.3    23  A23        -0.4373
    503  OP2      -16.8690   83.6630   -3.2390 O.co2  23  A23        -0.5172
    504  P        -10.6680   80.6650   -3.9140 P.3    24  G24         0.2141
    505  C5'       -8.6380   81.2870   -2.3280 C.3    24  G24         0.1812
    506  O5'       -9.2820   80.3360   -3.1830 O.3    24  G24        -0.3114
    507  C4'       -9.3140   81.4150   -0.9780 C.3    24  G24         0.1773
    508  O4'       -9.1760   80.1680   -0.2260 O.3    24  G24        -0.3307
    509  C3'       -8.7400   82.5060   -0.0700 C.3    24  G24         0.1860
    510  O3'       -9.7940   83.0430    0.7170 O.3    24  G24        -0.3112
    511  C2'       -7.8110   81.7060    0.8320 C.3    24  G24         0.2309
    512  O2'       -7.4640   82.3320    2.0440 O.3    24  G24        -0.2156
    513  C1'       -8.6620   80.4760    1.0560 C.3    24  G24         0.2408
    514  N1        -8.6140   76.5560    4.3770 N.ar   24  G24        -0.1709
    515  C2        -9.6110   77.4530    4.1280 C.ar   24  G24         0.2606
    516  N2       -10.7060   77.2560    4.8780 N.pl3  24  G24        -0.0859
    517  N3        -9.5390   78.4340    3.2320 N.ar   24  G24        -0.1918
    518  C4        -8.3440   78.4580    2.6000 C.ar   24  G24         0.1723
    519  C5        -7.2890   77.5920    2.7910 C.ar   24  G24         0.1748
    520  C6        -7.3900   76.5380    3.7450 C.ar   24  G24         0.3023
    521  O6        -6.5680   75.6610    4.0580 O.2    24  G24        -0.2633
    522  N7        -6.2430   77.9280    1.9390 N.ar   24  G24        -0.2173
    523  C8        -6.6480   78.9670    1.2600 C.ar   24  G24         0.1817
    524  N9        -7.9290   79.3280    1.5940 N.ar   24  G24        -0.2693
    525  OP1      -11.0030   82.1110   -3.7780 O.3    24  G24        -0.4373
    526  OP2      -10.6810   80.0570   -5.2650 O.co2  24  G24        -0.5172
    527  P         -9.5880   84.4150    1.5110 P.3    25  U25         0.2141
    528  C5'      -11.7100   85.2660    0.2150 C.3    25  U25         0.1812
    529  O5'      -11.0390   85.0640    1.4540 O.3    25  U25        -0.3114
    530  C4'      -13.2030   85.1910    0.3930 C.3    25  U25         0.1773
    531  O4'      -13.6410   83.8280    0.1900 O.3    25  U25        -0.3307
    532  C3'      -13.7140   85.5400    1.7810 C.3    25  U25         0.1860
    533  O3'      -13.8670   86.9320    1.9790 O.3    25  U25        -0.3112
    534  C2'      -15.0200   84.7680    1.8770 C.3    25  U25         0.2309
    535  O2'      -16.0650   85.4720    1.2230 O.3    25  U25        -0.2156
    536  C1'      -14.7040   83.5210    1.0630 C.3    25  U25         0.2420
    537  N1       -14.3100   82.3760    1.9090 N.ar   25  U25        -0.2534
    538  C2       -15.2980   81.7570    2.6630 C.ar   25  U25         0.3546
    539  O2       -16.4590   82.1250    2.6850 O.2    25  U25        -0.2443
    540  N3       -14.8850   80.6810    3.4070 N.ar   25  U25        -0.1530
    541  C4       -13.6100   80.1690    3.4690 C.ar   25  U25         0.2846
    542  O4       -13.4060   79.2010    4.1930 O.2    25  U25        -0.2650
    543  C5       -12.6410   80.8500    2.6570 C.ar   25  U25         0.0814
    544  C6       -13.0150   81.9070    1.9230 C.ar   25  U25         0.0870
    545  OP1       -8.6270   85.2330    0.7140 O.2    25  U25        -0.5172
    546  OP2       -9.2490   84.0600    2.9210 O.co2  25  U25        -0.4373
    547  P        -13.7470   87.5440    3.4570 P.3    26  A26         0.2141
    548  C5'      -16.2700   87.4690    4.0970 C.3    26  A26         0.1812
    549  O5'      -14.9810   86.9000    4.2090 O.3    26  A26        -0.3114
    550  C4'      -17.2720   86.6950    4.9020 C.3    26  A26         0.1773
    551  O4'      -17.1560   85.2860    4.5920 O.3    26  A26        -0.3307
    552  C3'      -17.0840   86.7270    6.4030 C.3    26  A26         0.1860
    553  O3'      -17.5230   87.9290    7.0000 O.3    26  A26        -0.3112
    554  C2'      -17.8550   85.4940    6.8470 C.3    26  A26         0.2309
    555  O2'      -19.2510   85.7270    6.8220 O.3    26  A26        -0.2156
    556  C1'      -17.5150   84.5240    5.7250 C.3    26  A26         0.2408
    557  N1       -16.3130   80.8220    8.9230 N.ar   26  A26        -0.2040
    558  C2       -17.4340   81.5260    8.7000 C.ar   26  A26         0.2016
    559  N3       -17.6530   82.4950    7.8100 N.ar   26  A26        -0.2048
    560  C4       -16.5340   82.7330    7.0880 C.ar   26  A26         0.1692
    561  C5       -15.3120   82.1110    7.1950 C.ar   26  A26         0.1518
    562  C6       -15.2170   81.0990    8.1740 C.ar   26  A26         0.1919
    563  N6       -14.1060   80.3940    8.3980 N.pl3  26  A26        -0.1054
    564  N7       -14.4200   82.6440    6.2730 N.ar   26  A26        -0.2193
    565  C8       -15.1110   83.5660    5.6350 C.ar   26  A26         0.1816
    566  N9       -16.3950   83.6530    6.0930 N.ar   26  A26        -0.2693
    567  OP1      -13.9360   89.0110    3.3360 O.2    26  A26        -0.5172
    568  OP2      -12.4900   87.0320    4.0440 O.co2  26  A26        -0.4373
    569  P        -16.5160   88.7650    7.9250 P.3    27  G27         0.2141
    570  C5'      -17.4570   87.4800    9.9990 C.3    27  G27         0.1812
    571  O5'      -16.3460   87.8130    9.1890 O.3    27  G27        -0.3114
    572  C4'      -17.2620   86.1530   10.6900 C.3    27  G27         0.1773
    573  O4'      -16.8320   85.1530    9.7300 O.3    27  G27        -0.3307
    574  C3'      -16.1820   86.0970   11.7550 C.3    27  G27         0.1860
    575  O3'      -16.5690   86.6820   12.9870 O.3    27  G27        -0.3112
    576  C2'      -15.8970   84.6040   11.8390 C.3    27  G27         0.2309
    577  O2'      -16.9420   83.9250   12.5220 O.3    27  G27        -0.2156
    578  C1'      -15.9630   84.2260   10.3620 C.3    27  G27         0.2408
    579  N1       -11.3850   82.1810   10.3780 N.ar   27  G27        -0.1709
    580  C2       -12.5130   81.8590   11.1130 C.ar   27  G27         0.2606
    581  N2       -12.4160   80.8490   12.0010 N.pl3  27  G27        -0.0859
    582  N3       -13.6700   82.5020   10.9820 N.ar   27  G27        -0.1918
    583  C4       -13.5980   83.4900   10.0570 C.ar   27  G27         0.1723
    584  C5       -12.5290   83.8980    9.2700 C.ar   27  G27         0.1748
    585  C6       -11.2970   83.2060    9.4210 C.ar   27  G27         0.3023
    586  O6       -10.2340   83.4120    8.8200 O.2    27  G27        -0.2633
    587  N7       -12.8860   84.9610    8.4420 N.ar   27  G27        -0.2173
    588  C8       -14.1490   85.1700    8.7580 C.ar   27  G27         0.1817
    589  N9       -14.6350   84.3090    9.7260 N.ar   27  G27        -0.2693
    590  OP1      -17.2140   90.0220    8.3200 O.3    27  G27        -0.4373
    591  OP2      -15.2300   88.8670    7.1850 O.co2  27  G27        -0.5172
    592  P        -15.5410   87.6430   13.7800 P.3    28  G28         0.2141
    593  C5'      -14.8890   85.5490   15.2170 C.3    28  G28         0.1812
    594  O5'      -14.4750   86.6040   14.3590 O.3    28  G28        -0.3114
    595  C4'      -13.7380   84.6500   15.5770 C.3    28  G28         0.1773
    596  O4'      -13.2860   83.9350   14.4070 O.3    28  G28        -0.3307
    597  C3'      -12.4930   85.3460   16.0700 C.3    28  G28         0.1860
    598  O3'      -12.5790   85.7220   17.4220 O.3    28  G28        -0.3112
    599  C2'      -11.4180   84.3140   15.8040 C.3    28  G28         0.2309
    600  O2'      -11.4570   83.2960   16.7920 O.3    28  G28        -0.2156
    601  C1'      -11.8980   83.7270   14.4860 C.3    28  G28         0.2408
    602  N1        -7.6270   84.3910   11.9120 N.ar   28  G28        -0.1709
    603  C2        -7.8460   83.6370   13.0400 C.ar   28  G28         0.2606
    604  N2        -6.7690   82.9920   13.5180 N.pl3  28  G28        -0.0859
    605  N3        -9.0320   83.5340   13.6350 N.ar   28  G28        -0.1918
    606  C4        -9.9670   84.2660   12.9910 C.ar   28  G28         0.1723
    607  C5        -9.8500   85.0420   11.8610 C.ar   28  G28         0.1748
    608  C6        -8.5880   85.1410   11.2380 C.ar   28  G28         0.3023
    609  O6        -8.2860   85.7800   10.2270 O.2    28  G28        -0.2633
    610  N7       -11.0590   85.6230   11.5250 N.ar   28  G28        -0.2173
    611  C8       -11.8810   85.2060   12.4470 C.ar   28  G28         0.1817
    612  N9       -11.2720   84.3840   13.3470 N.ar   28  G28        -0.2693
    613  OP1      -16.3060   88.2630   14.9100 O.3    28  G28        -0.4373
    614  OP2      -14.8850   88.5380   12.7610 O.co2  28  G28        -0.5172
    615  P        -11.8090   87.0260   17.9290 P.3    29  C29         0.2141
    616  C5'       -9.8010   85.6350   18.8450 C.3    29  C29         0.1812
    617  O5'      -10.2970   86.5620   17.9030 O.3    29  C29        -0.3114
    618  C4'       -8.3510   85.3370   18.5780 C.3    29  C29         0.1773
    619  O4'       -8.2000   84.8340   17.2230 O.3    29  C29        -0.3307
    620  C3'       -7.4080   86.5260   18.6010 C.3    29  C29         0.1860
    621  O3'       -7.0820   86.9740   19.9050 O.3    29  C29        -0.3112
    622  C2'       -6.2280   85.9850   17.8240 C.3    29  C29         0.2309
    623  O2'       -5.5260   85.0270   18.6030 O.3    29  C29        -0.2156
    624  C1'       -6.9520   85.2440   16.7080 C.3    29  C29         0.2420
    625  N1        -7.1830   86.1030   15.5310 N.ar   29  C29        -0.2535
    626  C2        -6.1550   86.1790   14.5880 C.ar   29  C29         0.3532
    627  O2        -5.1190   85.5360   14.7810 O.2    29  C29        -0.2443
    628  N3        -6.2930   86.9360   13.4810 N.ar   29  C29        -0.1739
    629  C4        -7.4200   87.6110   13.2830 C.ar   29  C29         0.1759
    630  N4        -7.5030   88.3390   12.1650 N.pl3  29  C29        -0.1070
    631  C5        -8.4930   87.5530   14.2260 C.ar   29  C29         0.0566
    632  C6        -8.3400   86.7930   15.3240 C.ar   29  C29         0.0850
    633  OP1      -12.2490   87.2680   19.3280 O.3    29  C29        -0.4373
    634  OP2      -12.0200   88.1020   16.9000 O.co2  29  C29        -0.5172
    635  P         -6.9180   88.5580   20.1910 P.3    30  U30         0.2141
    636  C5'       -4.3450   88.2080   19.8670 C.3    30  U30         0.1812
    637  O5'       -5.5290   88.8920   19.4850 O.3    30  U30        -0.3114
    638  C4'       -3.2060   88.4900   18.9230 C.3    30  U30         0.1773
    639  O4'       -3.4850   87.9140   17.6200 O.3    30  U30        -0.3307
    640  C3'       -2.9420   89.9510   18.6070 C.3    30  U30         0.1860
    641  O3'       -2.2570   90.6470   19.6390 O.3    30  U30        -0.3112
    642  C2'       -2.1690   89.8410   17.3050 C.3    30  U30         0.2309
    643  O2'       -0.8730   89.3140   17.5420 O.3    30  U30        -0.2156
    644  C1'       -2.9820   88.7640   16.6080 C.3    30  U30         0.2420
    645  N1        -4.1200   89.3410   15.8760 N.ar   30  U30        -0.2534
    646  C2        -3.8430   89.8300   14.6240 C.ar   30  U30         0.3546
    647  O2        -2.7360   89.7780   14.1400 O.2    30  U30        -0.2443
    648  N3        -4.9200   90.3590   13.9690 N.ar   30  U30        -0.1530
    649  C4        -6.2180   90.4400   14.4520 C.ar   30  U30         0.2846
    650  O4        -7.0800   90.9510   13.7440 O.2    30  U30        -0.2650
    651  C5        -6.4410   89.9190   15.7630 C.ar   30  U30         0.0814
    652  C6        -5.3990   89.4020   16.4080 C.ar   30  U30         0.0870
    653  OP1       -6.7890   88.7280   21.6690 O.3    30  U30        -0.4373
    654  OP2       -8.0310   89.2560   19.4790 O.co2  30  U30        -0.5172
    655  P         -2.7050   92.1420   20.0330 P.3    31  G31         0.2141
    656  C5'       -0.4870   92.8530   18.8440 C.3    31  G31         0.1812
    657  O5'       -1.8840   93.0340   18.9940 O.3    31  G31        -0.3114
    658  C4'        0.0180   93.3790   17.5250 C.3    31  G31         0.1773
    659  O4'       -0.5340   92.6170   16.4300 O.3    31  G31        -0.3307
    660  C3'       -0.3420   94.8070   17.1720 C.3    31  G31         0.1860
    661  O3'        0.4180   95.7610   17.8930 O.3    31  G31        -0.3112
    662  C2'       -0.0840   94.8190   15.6690 C.3    31  G31         0.2309
    663  O2'        1.3100   94.8490   15.3930 O.3    31  G31        -0.2156
    664  C1'       -0.6190   93.4430   15.2830 C.3    31  G31         0.2408
    665  N1        -3.6950   94.6730   11.5170 N.ar   31  G31        -0.1709
    666  C2        -2.3290   94.7270   11.5740 C.ar   31  G31         0.2606
    667  N2        -1.7040   95.1880   10.4690 N.pl3  31  G31        -0.0859
    668  N3        -1.6300   94.3670   12.6360 N.ar   31  G31        -0.1918
    669  C4        -2.4370   93.9560   13.6330 C.ar   31  G31         0.1723
    670  C5        -3.8020   93.8680   13.6760 C.ar   31  G31         0.1748
    671  C6        -4.5260   94.2550   12.5420 C.ar   31  G31         0.3023
    672  O6        -5.7470   94.2510   12.3970 O.2    31  G31        -0.2633
    673  N7        -4.2430   93.3960   14.8970 N.ar   31  G31        -0.2173
    674  C8        -3.1450   93.2040   15.5780 C.ar   31  G31         0.1817
    675  N9        -2.0230   93.5190   14.8610 N.ar   31  G31        -0.2693
    676  OP1       -2.2250   92.3880   21.4200 O.3    31  G31        -0.4373
    677  OP2       -4.1640   92.2560   19.7470 O.co2  31  G31        -0.5172
    678  P         -0.2260   97.1720   18.3140 P.3    32  U32         0.2141
    679  C5'        1.0200   98.1300   16.2130 C.3    32  U32         0.1812
    680  O5'       -0.1950   97.9830   16.9380 O.3    32  U32        -0.3114
    681  C4'        0.7900   98.7360   14.8480 C.3    32  U32         0.1773
    682  O4'        0.0490   97.8170   14.0070 O.3    32  U32        -0.3307
    683  C3'       -0.0410  100.0070   14.8030 C.3    32  U32         0.1860
    684  O3'        0.6940  101.1510   15.1650 O.3    32  U32        -0.3112
    685  C2'       -0.5220  100.0330   13.3620 C.3    32  U32         0.2309
    686  O2'        0.5060  100.4810   12.4920 O.3    32  U32        -0.2156
    687  C1'       -0.7610   98.5530   13.1040 C.3    32  U32         0.2420
    688  N1        -2.1620   98.1970   13.3290 N.ar   32  U32        -0.2534
    689  C2        -3.0110   98.4310   12.2740 C.ar   32  U32         0.3546
    690  O2        -2.6360   98.8930   11.2050 O.2    32  U32        -0.2443
    691  N3        -4.3080   98.0900   12.5240 N.ar   32  U32        -0.1530
    692  C4        -4.8010   97.5720   13.7000 C.ar   32  U32         0.2846
    693  O4        -5.9940   97.3090   13.7910 O.2    32  U32        -0.2650
    694  C5        -3.8620   97.3780   14.7420 C.ar   32  U32         0.0814
    695  C6        -2.5940   97.7000   14.5270 C.ar   32  U32         0.0870
    696  OP1        0.7100   97.7870   19.3000 O.3    32  U32        -0.4373
    697  OP2       -1.6410   96.9190   18.7230 O.co2  32  U32        -0.5172
    698  P         -0.0710  102.4920   15.6220 P.3    33  C33         0.2141
    699  C5'       -2.1480  103.4430   14.3210 C.3    33  C33         0.1812
    700  O5'       -0.8130  102.9600   14.2920 O.3    33  C33        -0.3114
    701  C4'       -2.7380  103.4390   12.9350 C.3    33  C33         0.1773
    702  O4'       -3.1360  102.0910   12.5890 O.3    33  C33        -0.3307
    703  C3'       -3.9990  104.2680   12.7170 C.3    33  C33         0.1860
    704  O3'       -3.7310  105.6430   12.4830 O.3    33  C33        -0.3112
    705  C2'       -4.6450  103.5740   11.5240 C.3    33  C33         0.2309
    706  O2'       -4.0040  103.9480   10.3100 O.3    33  C33        -0.2156
    707  C1'       -4.3100  102.1200   11.8050 C.3    33  C33         0.2420
    708  N1        -5.3800  101.4440   12.5460 N.ar   33  C33        -0.2535
    709  C2        -6.5200  101.0940   11.8400 C.ar   33  C33         0.3532
    710  O2        -6.5730  101.3890   10.6360 O.2    33  C33        -0.2443
    711  N3        -7.5200  100.4500   12.4880 N.ar   33  C33        -0.1739
    712  C4        -7.3950  100.1660   13.7910 C.ar   33  C33         0.1759
    713  N4        -8.4020   99.5330   14.4000 N.pl3  33  C33        -0.1070
    714  C5        -6.2230  100.5180   14.5270 C.ar   33  C33         0.0566
    715  C6        -5.2450  101.1500   13.8720 C.ar   33  C33         0.0850
    716  OP1        1.0010  103.4680   15.9780 O.2    33  C33        -0.5172
    717  OP2       -1.0850  102.1080   16.6590 O.co2  33  C33        -0.4373
    718  P         -4.9020  106.7410   12.6580 P.3    34  C34         0.2141
    719  C5'       -5.8470  106.5950   10.2190 C.3    34  C34         0.1812
    720  O5'       -5.9920  106.2750   11.5920 O.3    34  C34        -0.3114
    721  C4'       -7.0690  106.2010    9.4370 C.3    34  C34         0.1773
    722  O4'       -7.4230  104.8340    9.7490 O.3    34  C34        -0.3307
    723  C3'       -8.3420  106.9760    9.7500 C.3    34  C34         0.1860
    724  O3'       -8.3950  108.2420    9.1210 O.3    34  C34        -0.3112
    725  C2'       -9.4380  106.0230    9.2970 C.3    34  C34         0.2309
    726  O2'       -9.6060  106.0740    7.8830 O.3    34  C34        -0.2156
    727  C1'       -8.8270  104.6720    9.6660 C.3    34  C34         0.2420
    728  N1        -9.3270  104.1630   10.9590 N.ar   34  C34        -0.2535
    729  C2       -10.6110  103.6220   10.9470 C.ar   34  C34         0.3532
    730  O2       -11.2360  103.6340    9.8790 O.2    34  C34        -0.2443
    731  N3       -11.1440  103.1050   12.0760 N.ar   34  C34        -0.1739
    732  C4       -10.4310  103.1140   13.1970 C.ar   34  C34         0.1759
    733  N4       -11.0180  102.5940   14.2770 N.pl3  34  C34        -0.1070
    734  C5        -9.1060  103.6520   13.2430 C.ar   34  C34         0.0566
    735  C6        -8.5880  104.1630   12.1110 C.ar   34  C34         0.0850
    736  OP1       -4.3320  108.0540   12.2530 O.2    34  C34        -0.5172
    737  OP2       -5.4480  106.5900   14.0450 O.co2  34  C34        -0.4373
    738  P         -9.0710  109.4810    9.8840 P.3    35  C35         0.2141
    739  C5'      -11.1380  109.0210    8.3510 C.3    35  C35         0.1812
    740  O5'      -10.6240  109.2120    9.6600 O.3    35  C35        -0.3114
    741  C4'      -12.5610  108.5150    8.3750 C.3    35  C35         0.1773
    742  O4'      -12.6260  107.2580    9.0720 O.3    35  C35        -0.3307
    743  C3'      -13.5820  109.3860    9.0970 C.3    35  C35         0.1860
    744  O3'      -14.0500  110.4540    8.2880 O.3    35  C35        -0.3112
    745  C2'      -14.6850  108.3950    9.4590 C.3    35  C35         0.2309
    746  O2'      -15.5960  108.2570    8.3770 O.3    35  C35        -0.2156
    747  C1'      -13.9160  107.0800    9.6000 C.3    35  C35         0.2420
    748  N1       -13.8110  106.5980   10.9910 N.ar   35  C35        -0.2535
    749  C2       -14.9100  105.9220   11.5580 C.ar   35  C35         0.3532
    750  O2       -15.9640  105.8180   10.9080 O.2    35  C35        -0.2443
    751  N3       -14.8100  105.4050   12.8120 N.ar   35  C35        -0.1739
    752  C4       -13.6540  105.5340   13.4840 C.ar   35  C35         0.1759
    753  N4       -13.5870  105.0220   14.7220 N.pl3  35  C35        -0.1070
    754  C5       -12.5140  106.2000   12.9170 C.ar   35  C35         0.0566
    755  C6       -12.6300  106.7010   11.6770 C.ar   35  C35         0.0850
    756  OP1       -8.6510  110.7080    9.1580 O.2    35  C35        -0.5172
    757  OP2       -8.7350  109.3490   11.3360 O.co2  35  C35        -0.4373
    758  P        -14.1280  111.9490    8.8660 P.3    36  A36         0.2141
    759  C5'      -16.5890  111.6250    9.6710 C.3    36  A36         0.1812
    760  O5'      -15.2240  111.8370    9.9980 O.3    36  A36        -0.3114
    761  C4'      -17.3970  111.3560   10.9070 C.3    36  A36         0.1773
    762  O4'      -16.7230  110.3230   11.6820 O.3    36  A36        -0.3307
    763  C3'      -17.5510  112.5510   11.8380 C.3    36  A36         0.1860
    764  O3'      -18.8020  112.4720   12.5040 O.3    36  A36        -0.3112
    765  C2'      -16.4160  112.3530   12.8420 C.3    36  A36         0.2309
    766  O2'      -16.6280  112.9500   14.1030 O.3    36  A36        -0.2156
    767  C1'      -16.3340  110.8320   12.9450 C.3    36  A36         0.2408
    768  N1       -13.3260  108.1350   16.1460 N.ar   36  A36        -0.2040
    769  C2       -14.6440  108.3600   16.1430 C.ar   36  A36         0.2016
    770  N3       -15.3700  109.0640   15.2750 N.ar   36  A36        -0.2048
    771  C4       -14.5900  109.5810   14.3060 C.ar   36  A36         0.1692
    772  C5       -13.2230  109.4320   14.1770 C.ar   36  A36         0.1518
    773  C6       -12.5680  108.6650   15.1600 C.ar   36  A36         0.1919
    774  N6       -11.2510  108.4210   15.1760 N.pl3  36  A36        -0.1054
    775  N7       -12.7730  110.1050   13.0460 N.ar   36  A36        -0.2193
    776  C8       -13.8500  110.6420   12.5280 C.ar   36  A36         0.1816
    777  N9       -14.9850  110.3530   13.2380 N.ar   36  A36        -0.2693
    778  OP1      -14.6260  112.8070    7.7660 O.2    36  A36        -0.5172
    779  OP2      -12.8130  112.2550    9.4780 O.co2  36  A36        -0.4373
    780  P        -19.8330  113.6890   12.4060 P.3    37  U37         0.2141
    781  C5'      -21.9330  112.2280   11.8380 C.3    37  U37         0.1812
    782  O5'      -21.2090  112.9990   12.7890 O.3    37  U37        -0.3114
    783  C4'      -22.6370  111.0720   12.5000 C.3    37  U37         0.1773
    784  O4'      -21.6480  110.2590   13.1910 O.3    37  U37        -0.3307
    785  C3'      -23.6800  111.4520   13.5560 C.3    37  U37         0.1860
    786  O3'      -24.7470  110.5030   13.5320 O.3    37  U37        -0.3112
    787  C2'      -22.8940  111.3040   14.8580 C.3    37  U37         0.2309
    788  O2'      -23.6840  111.0880   16.0060 O.3    37  U37        -0.2156
    789  C1'      -22.0370  110.0960   14.5320 C.3    37  U37         0.2420
    790  N1       -20.8340  109.9730   15.3440 N.ar   37  U37        -0.2534
    791  C2       -21.0250  109.3380   16.5380 C.ar   37  U37         0.3546
    792  O2       -22.1250  108.9450   16.8770 O.2    37  U37        -0.2443
    793  N3       -19.8970  109.2010   17.3080 N.ar   37  U37        -0.1530
    794  C4       -18.6220  109.6260   16.9900 C.ar   37  U37         0.2846
    795  O4       -17.7110  109.4200   17.7930 O.2    37  U37        -0.2650
    796  C5       -18.5090  110.2670   15.7120 C.ar   37  U37         0.0814
    797  C6       -19.5990  110.4130   14.9410 C.ar   37  U37         0.0870
    798  OP1      -19.8600  114.1320   10.9790 O.2    37  U37        -0.5172
    799  OP2      -19.4520  114.6690   13.4630 O.co2  37  U37        -0.4373
    800  P        -25.9410  110.6560   12.4640 P.3    38  C38         0.2141
    801  C5'      -25.5870  108.2350   11.5790 C.3    38  C38         0.1812
    802  O5'      -25.5330  109.6260   11.3320 O.3    38  C38        -0.3114
    803  C4'      -24.4360  107.5100   10.9360 C.3    38  C38         0.1773
    804  O4'      -23.1910  107.9470   11.5060 O.3    38  C38        -0.3307
    805  C3'      -24.4260  106.0030   11.1050 C.3    38  C38         0.1860
    806  O3'      -25.1960  105.3710   10.1050 O.3    38  C38        -0.3112
    807  C2'      -22.9410  105.6180   11.0550 C.3    38  C38         0.2309
    808  O2'      -22.5860  105.1450    9.7630 O.3    38  C38        -0.2156
    809  C1'      -22.2240  106.9550   11.3130 C.3    38  C38         0.2420
    810  N1       -21.2950  106.9360   12.4710 N.ar   38  C38        -0.2535
    811  C2       -21.5740  106.3950   13.7480 C.ar   38  C38         0.3532
    812  O2       -22.6750  105.8980   14.0250 O.2    38  C38        -0.2443
    813  N3       -20.6160  106.4470   14.7120 N.ar   38  C38        -0.1739
    814  C4       -19.4170  106.9960   14.4490 C.ar   38  C38         0.1759
    815  N4       -18.4880  107.0250   15.4210 N.pl3  38  C38        -0.1070
    816  C5       -19.1130  107.5420   13.1580 C.ar   38  C38         0.0566
    817  C6       -20.0670  107.4880   12.2210 C.ar   38  C38         0.0850
    818  OP1      -25.8780  112.0350   11.9270 O.2    38  C38        -0.5172
    819  OP2      -27.1910  110.2030   13.1350 O.co2  38  C38        -0.4373
    820  P        -26.3000  104.2820   10.5000 P.3    39  A39         0.2141
    821  C5'      -24.4440  102.4390   10.3940 C.3    39  A39         0.1812
    822  O5'      -25.4130  103.1330   11.1580 O.3    39  A39        -0.3114
    823  C4'      -24.6520  100.9570   10.4780 C.3    39  A39         0.1773
    824  O4'      -24.3470  100.5140   11.8320 O.3    39  A39        -0.3307
    825  C3'      -26.0820  100.4760   10.1820 C.3    39  A39         0.1860
    826  O3'      -26.0340   99.2350    9.4900 O.3    39  A39        -0.3112
    827  C2'      -26.6420  100.2330   11.5760 C.3    39  A39         0.2309
    828  O2'      -27.7150   99.3110   11.6300 O.3    39  A39        -0.2156
    829  C1'      -25.4020   99.7060   12.2880 C.3    39  A39         0.2408
    830  N1       -24.5980   97.2210   16.6810 N.ar   39  A39        -0.2040
    831  C2       -24.3770   96.8880   15.4090 C.ar   39  A39         0.2016
    832  N3       -24.6050   97.5850   14.3010 N.ar   39  A39        -0.2048
    833  C4       -25.1210   98.7800   14.6060 C.ar   39  A39         0.1692
    834  C5       -25.3990   99.2650   15.8640 C.ar   39  A39         0.1518
    835  C6       -25.1180   98.4300   16.9440 C.ar   39  A39         0.1919
    836  N6       -25.3340   98.7780   18.2100 N.pl3  39  A39        -0.1054
    837  N7       -25.9280  100.5440   15.7940 N.ar   39  A39        -0.2193
    838  C8       -25.9590  100.7960   14.5070 C.ar   39  A39         0.1816
    839  N9       -25.4690   99.7790   13.7390 N.ar   39  A39        -0.2693
    840  OP1      -26.9070  103.7970    9.2260 O.2    39  A39        -0.5172
    841  OP2      -27.1880  104.8950   11.5310 O.co2  39  A39        -0.4373
    842  P        -25.7830   99.1900    7.9070 P.3    40  G40         0.2141
    843  C5'      -26.3020   96.6170    7.8940 C.3    40  G40         0.1812
    844  O5'      -26.6390   97.9290    7.4560 O.3    40  G40        -0.3114
    845  C4'      -27.4300   95.6500    7.6530 C.3    40  G40         0.1773
    846  O4'      -28.5040   95.9450    8.5890 O.3    40  G40        -0.3307
    847  C3'      -28.0440   95.7230    6.2580 C.3    40  G40         0.1860
    848  O3'      -28.4660   94.4290    5.8390 O.3    40  G40        -0.3112
    849  C2'      -29.2540   96.6190    6.4670 C.3    40  G40         0.2309
    850  O2'      -30.2910   96.4410    5.5310 O.3    40  G40        -0.2156
    851  C1'      -29.6880   96.2390    7.8790 C.3    40  G40         0.2408
    852  N1       -34.1760   98.1990    8.9420 N.ar   40  G40        -0.1709
    853  C2       -33.8540   97.0750    8.2310 C.ar   40  G40         0.2606
    854  N2       -34.8880   96.3830    7.7400 N.pl3  40  G40        -0.0859
    855  N3       -32.6170   96.6610    8.0220 N.ar   40  G40        -0.1918
    856  C4       -31.7270   97.4860    8.6000 C.ar   40  G40         0.1723
    857  C5       -31.9370   98.6360    9.3210 C.ar   40  G40         0.1748
    858  C6       -33.2650   99.0650    9.5320 C.ar   40  G40         0.3023
    859  O6       -33.6710  100.0620   10.1400 O.2    40  G40        -0.2633
    860  N7       -30.7380   99.1880    9.7330 N.ar   40  G40        -0.2173
    861  C8       -29.8330   98.3760    9.2600 C.ar   40  G40         0.1817
    862  N9       -30.3780   97.3200    8.5730 N.ar   40  G40        -0.2693
    863  OP1      -24.3220   98.9170    7.7020 O.3    40  G40        -0.4373
    864  OP2      -26.3820  100.4300    7.3330 O.co2  40  G40        -0.5172
    865  P        -27.9870   93.8550    4.4150 P.3    41  G41         0.2141
    866  C5'      -28.8770   95.1580    2.3390 C.3    41  G41         0.1812
    867  O5'      -29.1550   94.3180    3.4440 O.3    41  G41        -0.3114
    868  C4'      -30.1210   95.4510    1.5390 C.3    41  G41         0.1773
    869  O4'      -31.1030   94.4110    1.7540 O.3    41  G41        -0.3307
    870  C3'      -30.8760   96.7100    1.9130 C.3    41  G41         0.1860
    871  O3'      -30.2750   97.8880    1.4330 O.3    41  G41        -0.3112
    872  C2'      -32.2460   96.4460    1.3220 C.3    41  G41         0.2309
    873  O2'      -32.2160   96.5970   -0.0870 O.3    41  G41        -0.2156
    874  C1'      -32.4060   94.9670    1.6370 C.3    41  G41         0.2408
    875  N1       -36.9260   95.3150    3.9200 N.ar   41  G41        -0.1709
    876  C2       -36.5580   95.6510    2.6330 C.ar   41  G41         0.2606
    877  N2       -37.5400   96.1500    1.8560 N.pl3  41  G41        -0.0859
    878  N3       -35.3240   95.5050    2.1540 N.ar   41  G41        -0.1918
    879  C4       -34.4810   95.0010    3.0850 C.ar   41  G41         0.1723
    880  C5       -34.7500   94.6390    4.3900 C.ar   41  G41         0.1748
    881  C6       -36.0730   94.7880    4.8960 C.ar   41  G41         0.3023
    882  O6       -36.5080   94.5110    6.0340 O.2    41  G41        -0.2633
    883  N7       -33.6040   94.1580    5.0110 N.ar   41  G41        -0.2173
    884  C8       -32.6810   94.2350    4.0880 C.ar   41  G41         0.1817
    885  N9       -33.1450   94.7460    2.8980 N.ar   41  G41        -0.2693
    886  OP1      -27.9690   92.3730    4.5190 O.3    41  G41        -0.4373
    887  OP2      -26.7280   94.5620    4.0580 O.co2  41  G41        -0.5172
    888  P        -30.4990   99.2650    2.2210 P.3    42  G42         0.2141
    889  C5'      -32.3680  100.2200    0.6220 C.3    42  G42         0.1812
    890  O5'      -32.0210   99.6260    1.8710 O.3    42  G42        -0.3114
    891  C4'      -33.7840  100.7650    0.6250 C.3    42  G42         0.1773
    892  O4'      -34.7380   99.6710    0.7520 O.3    42  G42        -0.3307
    893  C3'      -34.1540  101.7010    1.7710 C.3    42  G42         0.1860
    894  O3'      -33.7090  103.0300    1.5900 O.3    42  G42        -0.3112
    895  C2'      -35.6670  101.5700    1.8180 C.3    42  G42         0.2309
    896  O2'      -36.2670  102.2860    0.7480 O.3    42  G42        -0.2156
    897  C1'      -35.8300  100.0790    1.5570 C.3    42  G42         0.2408
    898  N1       -38.3440   98.5230    5.6990 N.ar   42  G42        -0.1709
    899  C2       -38.7910   99.2780    4.6520 C.ar   42  G42         0.2606
    900  N2       -40.0710   99.6500    4.7420 N.pl3  42  G42        -0.0859
    901  N3       -38.0540   99.6330    3.6100 N.ar   42  G42        -0.1918
    902  C4       -36.7990   99.1500    3.7170 C.ar   42  G42         0.1723
    903  C5       -36.2520   98.3860    4.7240 C.ar   42  G42         0.1748
    904  C6       -37.0620   98.0240    5.8200 C.ar   42  G42         0.3023
    905  O6       -36.7680   97.3570    6.8120 O.2    42  G42        -0.2633
    906  N7       -34.9220   98.0960    4.4690 N.ar   42  G42        -0.2173
    907  C8       -34.6890   98.6780    3.3280 C.ar   42  G42         0.1817
    908  N9       -35.7860   99.3170    2.8120 N.ar   42  G42        -0.2693
    909  OP1      -29.5800  100.2630    1.6110 O.2    42  G42        -0.5172
    910  OP2      -30.3660   98.9650    3.6760 O.co2  42  G42        -0.4373
    911  P        -33.4360  103.9620    2.8750 P.3    43  G43         0.2141
    912  C5'      -35.8960  104.8790    2.9370 C.3    43  G43         0.1812
    913  O5'      -34.8830  104.0890    3.5400 O.3    43  G43        -0.3114
    914  C4'      -37.1870  104.8310    3.7190 C.3    43  G43         0.1773
    915  O4'      -37.6750  103.4640    3.7980 O.3    43  G43        -0.3307
    916  C3'      -37.1150  105.2530    5.1760 C.3    43  G43         0.1860
    917  O3'      -37.0260  106.6530    5.3690 O.3    43  G43        -0.3112
    918  C2'      -38.3790  104.6260    5.7460 C.3    43  G43         0.2309
    919  O2'      -39.5360  105.3510    5.3540 O.3    43  G43        -0.2156
    920  C1'      -38.3730  103.2820    5.0210 C.3    43  G43         0.2408
    921  N1       -38.8060  100.3150    9.0420 N.ar   43  G43        -0.1709
    922  C2       -39.7050  101.1650    8.4680 C.ar   43  G43         0.2606
    923  N2       -40.8950  101.2280    9.0770 N.pl3  43  G43        -0.0859
    924  N3       -39.4580  101.8880    7.3930 N.ar   43  G43        -0.1918
    925  C4       -38.2100  101.6800    6.9390 C.ar   43  G43         0.1723
    926  C5       -37.2330  100.8550    7.4340 C.ar   43  G43         0.1748
    927  C6       -37.5230  100.0850    8.5880 C.ar   43  G43         0.3023
    928  O6       -36.8220   99.2830    9.2070 O.2    43  G43        -0.2633
    929  N7       -36.0870  100.9450    6.6560 N.ar   43  G43        -0.2173
    930  C8       -36.3870  101.8070    5.7210 C.ar   43  G43         0.1817
    931  N9       -37.6740  102.2670    5.8250 N.ar   43  G43        -0.2693
    932  OP1      -32.9880  105.2840    2.3640 O.2    43  G43        -0.5172
    933  OP2      -32.5330  103.2060    3.7840 O.co2  43  G43        -0.4373
    934  P        -36.2310  107.2390    6.6450 P.3    44  A44         0.2141
    935  C5'      -38.5670  107.4410    7.8000 C.3    44  A44         0.1812
    936  O5'      -37.2370  106.9550    7.8430 O.3    44  A44        -0.3114
    937  C4'      -39.3650  106.9580    8.9790 C.3    44  A44         0.1773
    938  O4'      -39.6110  105.5340    8.8460 O.3    44  A44        -0.3307
    939  C3'      -38.6940  107.0860   10.3410 C.3    44  A44         0.1860
    940  O3'      -38.7660  108.3890   10.8920 O.3    44  A44        -0.3112
    941  C2'      -39.4310  106.0430   11.1560 C.3    44  A44         0.2309
    942  O2'      -40.7190  106.5130   11.5180 O.3    44  A44        -0.2156
    943  C1'      -39.5850  104.9270   10.1230 C.3    44  A44         0.2408
    944  N1       -37.5270  101.1040   12.7410 N.ar   44  A44        -0.2040
    945  C2       -38.6760  101.7750   12.8800 C.ar   44  A44         0.2016
    946  N3       -39.1410  102.7660   12.1330 N.ar   44  A44        -0.2048
    947  C4       -38.2770  103.0580   11.1420 C.ar   44  A44         0.1692
    948  C5       -37.0630  102.4610   10.8660 C.ar   44  A44         0.1518
    949  C6       -36.6820  101.4210   11.7280 C.ar   44  A44         0.1919
    950  N6       -35.5450  100.7350   11.6040 N.pl3  44  A44        -0.1054
    951  N7       -36.4630  103.0420    9.7540 N.ar   44  A44        -0.2193
    952  C8       -37.3190  103.9680    9.3870 C.ar   44  A44         0.1816
    953  N9       -38.4400  104.0100   10.1770 N.ar   44  A44        -0.2693
    954  OP1      -36.0860  108.7000    6.4380 O.2    44  A44        -0.5172
    955  OP2      -35.0020  106.4210    6.8150 O.co2  44  A44        -0.4373
    956  P        -37.6360  108.8880   11.9220 P.3    45  G45         0.2141
    957  C5'      -39.1560  108.1010   13.9100 C.3    45  G45         0.1812
    958  O5'      -37.9220  107.9990   13.2180 O.3    45  G45        -0.3114
    959  C4'      -39.2660  107.0890   15.0270 C.3    45  G45         0.1773
    960  O4'      -39.2000  105.7390   14.4980 O.3    45  G45        -0.3307
    961  C3'      -38.1680  107.1120   16.0700 C.3    45  G45         0.1860
    962  O3'      -38.3010  108.1720   16.9950 O.3    45  G45        -0.3112
    963  C2'      -38.3030  105.7290   16.6940 C.3    45  G45         0.2309
    964  O2'      -39.4340  105.6740   17.5480 O.3    45  G45        -0.2156
    965  C1'      -38.5960  104.8840   15.4560 C.3    45  G45         0.2408
    966  N1       -34.9610  101.2880   15.8030 N.ar   45  G45        -0.1709
    967  C2       -36.0570  101.4900   16.6000 C.ar   45  G45         0.2606
    968  N2       -36.1980  100.6270   17.6160 N.pl3  45  G45        -0.0859
    969  N3       -36.9420  102.4590   16.4110 N.ar   45  G45        -0.1918
    970  C4       -36.6390  103.2280   15.3420 C.ar   45  G45         0.1723
    971  C5       -35.5650  103.1020   14.4850 C.ar   45  G45         0.1748
    972  C6       -34.6270  102.0560   14.6960 C.ar   45  G45         0.3023
    973  O6       -33.6110  101.7790   14.0470 O.2    45  G45        -0.2633
    974  N7       -35.5990  104.0830   13.5070 N.ar   45  G45        -0.2173
    975  C8       -36.6680  104.7750   13.7820 C.ar   45  G45         0.1817
    976  N9       -37.3560  104.3140   14.8790 N.ar   45  G45        -0.2693
    977  OP1      -37.9120  110.3130   12.2170 O.3    45  G45        -0.4373
    978  OP2      -36.3190  108.5260   11.3400 O.co2  45  G45        -0.5172
    979  P        -36.9980  108.7970   17.6950 P.3    46  G46         0.2141
    980  C5'      -35.1680  107.4640   19.0460 C.3    46  G46         0.1812
    981  O5'      -36.0900  107.5090   17.9630 O.3    46  G46        -0.3114
    982  C4'      -35.2240  106.1340   19.7710 C.3    46  G46         0.1773
    983  O4'      -35.4620  105.0580   18.8200 O.3    46  G46        -0.3307
    984  C3'      -33.9540  105.7260   20.5090 C.3    46  G46         0.1860
    985  O3'      -33.8700  106.2880   21.8030 O.3    46  G46        -0.3112
    986  C2'      -34.0220  104.2020   20.5120 C.3    46  G46         0.2309
    987  O2'      -34.8660  103.7390   21.5510 O.3    46  G46        -0.2156
    988  C1'      -34.6960  103.9190   19.1650 C.3    46  G46         0.2408
    989  N1       -30.8640  101.0730   17.4210 N.ar   46  G46        -0.1709
    990  C2       -31.6200  100.8980   18.5600 C.ar   46  G46         0.2606
    991  N2       -31.3180   99.8520   19.3390 N.pl3  46  G46        -0.0859
    992  N3       -32.6090  101.7010   18.9140 N.ar   46  G46        -0.1918
    993  C4       -32.7710  102.7010   18.0230 C.ar   46  G46         0.1723
    994  C5       -32.0700  102.9590   16.8610 C.ar   46  G46         0.1748
    995  C6       -31.0210  102.0990   16.4860 C.ar   46  G46         0.3023
    996  O6       -30.3030  102.1880   15.4800 O.2    46  G46        -0.2633
    997  N7       -32.5440  104.0870   16.2190 N.ar   46  G46        -0.2173
    998  C8       -33.5120  104.4920   16.9940 C.ar   46  G46         0.1817
    999  N9       -33.7040  103.6970   18.0990 N.ar   46  G46        -0.2693
   1000  OP1      -37.4430  109.3860   18.9880 O.3    46  G46        -0.4373
   1001  OP2      -36.3440  109.6770   16.6910 O.co2  46  G46        -0.5172
   1002  P        -32.5220  107.0070   22.2800 P.3    47  A47         0.2141
   1003  C5'      -32.2790  104.9820   23.9150 C.3    47  A47         0.1812
   1004  O5'      -31.6960  105.8060   22.9240 O.3    47  A47        -0.3114
   1005  C4'      -31.4460  103.7570   24.1830 C.3    47  A47         0.1773
   1006  O4'      -31.6180  102.7970   23.1080 O.3    47  A47        -0.3307
   1007  C3'      -29.9400  103.9620   24.2460 C.3    47  A47         0.1860
   1008  O3'      -29.4970  104.4850   25.4850 O.3    47  A47        -0.3112
   1009  C2'      -29.4200  102.5620   23.9580 C.3    47  A47         0.2309
   1010  O2'      -29.5870  101.7260   25.0950 O.3    47  A47        -0.2156
   1011  C1'      -30.4020  102.1080   22.8820 C.3    47  A47         0.2408
   1012  N1       -27.2470  100.9110   18.9850 N.ar   47  A47        -0.2040
   1013  C2       -27.4480  100.3570   20.1810 C.ar   47  A47         0.2016
   1014  N3       -28.2770  100.7120   21.1560 N.ar   47  A47        -0.2048
   1015  C4       -28.9720  101.7910   20.7910 C.ar   47  A47         0.1692
   1016  C5       -28.8760  102.4750   19.5930 C.ar   47  A47         0.1518
   1017  C6       -27.9580  101.9920   18.6520 C.ar   47  A47         0.1919
   1018  N6       -27.7400  102.5320   17.4550 N.pl3  47  A47        -0.1054
   1019  N7       -29.7520  103.5490   19.5730 N.ar   47  A47        -0.2193
   1020  C8       -30.3470  103.4880   20.7390 C.ar   47  A47         0.1816
   1021  N9       -29.9240  102.4460   21.5280 N.ar   47  A47        -0.2693
   1022  OP1      -32.8970  107.9840   23.3310 O.3    47  A47        -0.4373
   1023  OP2      -31.8360  107.5010   21.0630 O.co2  47  A47        -0.5172
   1024  P        -28.2910  105.5490   25.5250 P.3    48  A48         0.2141
   1025  C5'      -26.6220  103.5730   25.9710 C.3    48  A48         0.1812
   1026  O5'      -27.0180  104.6650   25.1580 O.3    48  A48        -0.3114
   1027  C4'      -25.6500  102.6870   25.2440 C.3    48  A48         0.1773
   1028  O4'      -26.2500  102.2260   24.0100 O.3    48  A48        -0.3307
   1029  C3'      -24.3540  103.3510   24.8040 C.3    48  A48         0.1860
   1030  O3'      -23.3820  103.4000   25.8360 O.3    48  A48        -0.3112
   1031  C2'      -23.9330  102.5080   23.6110 C.3    48  A48         0.2309
   1032  O2'      -23.3370  101.2930   24.0460 O.3    48  A48        -0.2156
   1033  C1'      -25.2850  102.1840   22.9860 C.3    48  A48         0.2408
   1034  N1       -24.7430  103.8950   18.1160 N.ar   48  A48        -0.2040
   1035  C2       -24.1530  102.8760   18.7600 C.ar   48  A48         0.2016
   1036  N3       -24.3220  102.4740   20.0220 N.ar   48  A48        -0.2048
   1037  C4       -25.2300  103.2530   20.6580 C.ar   48  A48         0.1692
   1038  C5       -25.9220  104.3360   20.1230 C.ar   48  A48         0.1518
   1039  C6       -25.6550  104.6610   18.7840 C.ar   48  A48         0.1919
   1040  N6       -26.2620  105.6850   18.1680 N.pl3  48  A48        -0.1054
   1041  N7       -26.7750  104.9100   21.0530 N.ar   48  A48        -0.2193
   1042  C8       -26.5880  104.1720   22.1210 C.ar   48  A48         0.1816
   1043  N9       -25.6690  103.1640   21.9610 N.ar   48  A48        -0.2693
   1044  OP1      -28.1840  106.0310   26.9240 O.3    48  A48        -0.4373
   1045  OP2      -28.5440  106.5360   24.4450 O.co2  48  A48        -0.5172
   1046  P        -22.7310  104.8070   26.2750 P.3    49  U49         0.2141
   1047  C5'      -20.5800  104.3550   24.8190 C.3    49  U49         0.1812
   1048  O5'      -21.7490  105.1410   25.0590 O.3    49  U49        -0.3114
   1049  C4'      -19.6390  105.0280   23.8480 C.3    49  U49         0.1773
   1050  O4'      -20.3070  105.1870   22.5680 O.3    49  U49        -0.3307
   1051  C3'      -19.1500  106.4250   24.2550 C.3    49  U49         0.1860
   1052  O3'      -17.7750  106.5730   23.9070 O.3    49  U49        -0.3112
   1053  C2'      -20.0000  107.3540   23.3880 C.3    49  U49         0.2309
   1054  O2'      -19.4140  108.6110   23.1090 O.3    49  U49        -0.2156
   1055  C1'      -20.1730  106.5210   22.1280 C.3    49  U49         0.2420
   1056  N1       -21.3640  106.8790   21.3320 N.ar   49  U49        -0.2534
   1057  C2       -21.1280  107.2790   20.0320 C.ar   49  U49         0.3546
   1058  O2       -20.0070  107.3200   19.5510 O.2    49  U49        -0.2443
   1059  N3       -22.2360  107.6240   19.3060 N.ar   49  U49        -0.1530
   1060  C4       -23.5400  107.6220   19.7400 C.ar   49  U49         0.2846
   1061  O4       -24.4370  107.9640   18.9530 O.2    49  U49        -0.2650
   1062  C5       -23.6970  107.2030   21.1030 C.ar   49  U49         0.0814
   1063  C6       -22.6350  106.8600   21.8410 C.ar   49  U49         0.0870
   1064  OP1      -21.9420  104.5510   27.5100 O.3    49  U49        -0.4373
   1065  OP2      -23.8330  105.8040   26.3210 O.co2  49  U49        -0.5172
   1066  P        -16.6380  106.3000   25.0050 P.3    50  C50         0.2141
   1067  C5'      -14.9080  104.3170   25.1300 C.3    50  C50         0.1812
   1068  O5'      -16.1500  104.8230   24.6460 O.3    50  C50        -0.3114
   1069  C4'      -15.0140  102.8620   25.5230 C.3    50  C50         0.1773
   1070  O4'      -14.9340  102.7520   26.9710 O.3    50  C50        -0.3307
   1071  C3'      -16.3120  102.1770   25.1070 C.3    50  C50         0.1860
   1072  O3'      -16.0530  100.8290   24.7240 O.3    50  C50        -0.3112
   1073  C2'      -17.1500  102.2050   26.3830 C.3    50  C50         0.2309
   1074  O2'      -18.1110  101.1730   26.4770 O.3    50  C50        -0.2156
   1075  C1'      -16.0860  102.0990   27.4780 C.3    50  C50         0.2420
   1076  N1       -16.4780  102.7710   28.7540 N.ar   50  C50        -0.2535
   1077  C2       -16.0620  102.2940   30.0130 C.ar   50  C50         0.3532
   1078  O2       -15.3260  101.2960   30.0880 O.2    50  C50        -0.2443
   1079  N3       -16.4620  102.9500   31.1360 N.ar   50  C50        -0.1739
   1080  C4       -17.2520  104.0270   31.0560 C.ar   50  C50         0.1759
   1081  N4       -17.6220  104.6390   32.1880 N.pl3  50  C50        -0.1070
   1082  C5       -17.6970  104.5240   29.7970 C.ar   50  C50         0.0566
   1083  C6       -17.2940  103.8730   28.6960 C.ar   50  C50         0.0850
   1084  OP1      -17.3050  106.3050   26.3310 O.3    50  C50        -0.4373
   1085  OP2      -15.5470  107.2670   24.7510 O.co2  50  C50        -0.5172
   1086  P        -16.3830  100.3540   23.2230 P.3    51  G51         0.2141
   1087  C5'      -18.9940  100.1670   23.3950 C.3    51  G51         0.1812
   1088  O5'      -17.8560  100.9120   22.9950 O.3    51  G51        -0.3114
   1089  C4'      -20.1920  100.5300   22.5640 C.3    51  G51         0.1773
   1090  O4'      -20.3150  101.9760   22.4990 O.3    51  G51        -0.3307
   1091  C3'      -20.1340  100.1160   21.1020 C.3    51  G51         0.1860
   1092  O3'      -20.4470   98.7600   20.8860 O.3    51  G51        -0.3112
   1093  C2'      -21.1010  101.0830   20.4400 C.3    51  G51         0.2309
   1094  O2'      -22.4510  100.7050   20.6780 O.3    51  G51        -0.2156
   1095  C1'      -20.8050  102.3570   21.2230 C.3    51  G51         0.2408
   1096  N1       -19.9540  105.2360   17.2000 N.ar   51  G51        -0.1709
   1097  C2       -21.1090  104.5740   17.5840 C.ar   51  G51         0.2606
   1098  N2       -22.1910  104.6930   16.7790 N.pl3  51  G51        -0.0859
   1099  N3       -21.1780  103.8420   18.6880 N.ar   51  G51        -0.1918
   1100  C4       -20.0030  103.8370   19.3660 C.ar   51  G51         0.1723
   1101  C5       -18.8090  104.4610   19.0620 C.ar   51  G51         0.1748
   1102  C6       -18.7360  105.2340   17.8810 C.ar   51  G51         0.3023
   1103  O6       -17.7860  105.8730   17.4260 O.2    51  G51        -0.2633
   1104  N7       -17.8560  104.1840   20.0300 N.ar   51  G51        -0.2173
   1105  C8       -18.4740  103.4130   20.8920 C.ar   51  G51         0.1817
   1106  N9       -19.7830  103.1740   20.5470 N.ar   51  G51        -0.2693
   1107  OP1      -16.4000   98.8600   23.2240 O.3    51  G51        -0.4373
   1108  OP2      -15.4280  101.0680   22.3180 O.co2  51  G51        -0.5172
   1109  P        -19.6640   97.9520   19.7510 P.3    52  G52         0.2141
   1110  C5'      -21.5030   98.5070   17.9800 C.3    52  G52         0.1812
   1111  O5'      -20.1610   98.6460   18.4080 O.3    52  G52        -0.3114
   1112  C4'      -21.7730   99.3200   16.7480 C.3    52  G52         0.1773
   1113  O4'      -21.5300  100.7220   17.0290 O.3    52  G52        -0.3307
   1114  C3'      -20.8750   99.0370   15.5570 C.3    52  G52         0.1860
   1115  O3'      -21.2470   97.8750   14.8280 O.3    52  G52        -0.3112
   1116  C2'      -20.9740  100.3370   14.7680 C.3    52  G52         0.2309
   1117  O2'      -22.2360  100.4440   14.1190 O.3    52  G52        -0.2156
   1118  C1'      -20.9450  101.3440   15.9040 C.3    52  G52         0.2408
   1119  N1       -16.6690  103.7570   14.5980 N.ar   52  G52        -0.1709
   1120  C2       -17.8280  103.6250   13.8810 C.ar   52  G52         0.2606
   1121  N2       -17.8340  104.2080   12.6760 N.pl3  52  G52        -0.0859
   1122  N3       -18.8950  102.9720   14.3020 N.ar   52  G52        -0.1918
   1123  C4       -18.6810  102.4530   15.5240 C.ar   52  G52         0.1723
   1124  C5       -17.5650  102.5250   16.3210 C.ar   52  G52         0.1748
   1125  C6       -16.4390  103.2200   15.8640 C.ar   52  G52         0.3023
   1126  O6       -15.3610  103.3720   16.4640 O.2    52  G52        -0.2633
   1127  N7       -17.7430  101.8630   17.5150 N.ar   52  G52        -0.2173
   1128  C8       -18.9550  101.3930   17.4380 C.ar   52  G52         0.1817
   1129  N9       -19.5730  101.7180   16.2600 N.ar   52  G52        -0.2693
   1130  OP1      -20.1460   96.5550   19.8110 O.2    52  G52        -0.5172
   1131  OP2      -18.2140   98.2190   19.9450 O.co2  52  G52        -0.4373
   1132  P        -20.1040   96.8900   14.2770 P.3    53  G53         0.2141
   1133  C5'      -20.7130   98.1380   12.0760 C.3    53  G53         0.1812
   1134  O5'      -19.7200   97.5540   12.8930 O.3    53  G53        -0.3114
   1135  C4'      -20.1030   99.1200   11.1350 C.3    53  G53         0.1773
   1136  O4'      -19.6590  100.2800   11.8710 O.3    53  G53        -0.3307
   1137  C3'      -18.8420   98.6590   10.4510 C.3    53  G53         0.1860
   1138  O3'      -19.0710   97.7600    9.4010 O.3    53  G53        -0.3112
   1139  C2'      -18.2170   99.9690   10.0220 C.3    53  G53         0.2309
   1140  O2'      -18.9280  100.5330    8.9240 O.3    53  G53        -0.2156
   1141  C1'      -18.4950  100.8090   11.2600 C.3    53  G53         0.2408
   1142  N1       -13.8000  102.3430   12.0200 N.ar   53  G53        -0.1709
   1143  C2       -14.6630  102.5500   10.9610 C.ar   53  G53         0.2606
   1144  N2       -14.2100  103.2810    9.9330 N.pl3  53  G53        -0.0859
   1145  N3       -15.8930  102.0700   10.9080 N.ar   53  G53        -0.1918
   1146  C4       -16.1840  101.3530   12.0110 C.ar   53  G53         0.1723
   1147  C5       -15.4060  101.0750   13.1210 C.ar   53  G53         0.1748
   1148  C6       -14.0840  101.6010   13.1770 C.ar   53  G53         0.3023
   1149  O6       -13.2320  101.4730   14.0810 O.2    53  G53        -0.2633
   1150  N7       -16.1160  100.2940   14.0270 N.ar   53  G53        -0.2173
   1151  C8       -17.2880  100.1220   13.4470 C.ar   53  G53         0.1817
   1152  N9       -17.3830  100.7450   12.2220 N.ar   53  G53        -0.2693
   1153  OP1      -20.7360   95.5680   14.0420 O.2    53  G53        -0.5172
   1154  OP2      -18.9560   96.9830   15.2230 O.co2  53  G53        -0.4373
   1155  P        -18.0180   96.5860    9.1300 P.3    54  G54         0.2141
   1156  C5'      -16.9060   98.0820    7.2910 C.3    54  G54         0.1812
   1157  O5'      -16.7770   97.3850    8.5190 O.3    54  G54        -0.3114
   1158  C4'      -15.7160   98.9610    7.0220 C.3    54  G54         0.1773
   1159  O4'      -15.4750   99.8240    8.1590 O.3    54  G54        -0.3307
   1160  C3'      -14.3940   98.2460    6.8290 C.3    54  G54         0.1860
   1161  O3'      -14.2410   97.7080    5.5370 O.3    54  G54        -0.3112
   1162  C2'      -13.3780   99.3240    7.1550 C.3    54  G54         0.2309
   1163  O2'      -13.2100  100.1990    6.0550 O.3    54  G54        -0.2156
   1164  C1'      -14.0870  100.0780    8.2750 C.3    54  G54         0.2408
   1165  N1       -10.1870   99.8990   11.4890 N.ar   54  G54        -0.1709
   1166  C2       -10.2370  100.4520   10.2270 C.ar   54  G54         0.2606
   1167  N2        -9.0980  101.0160    9.7890 N.pl3  54  G54        -0.0859
   1168  N3       -11.3380  100.4370    9.4690 N.ar   54  G54        -0.1918
   1169  C4       -12.3790   99.8130   10.0940 C.ar   54  G54         0.1723
   1170  C5       -12.4240   99.2380   11.3500 C.ar   54  G54         0.1748
   1171  C6       -11.2430   99.2620   12.1490 C.ar   54  G54         0.3023
   1172  O6       -11.0740   98.8060   13.2930 O.2    54  G54        -0.2633
   1173  N7       -13.6890   98.7100   11.6130 N.ar   54  G54        -0.2173
   1174  C8       -14.3770   98.9600   10.5350 C.ar   54  G54         0.1817
   1175  N9       -13.6410   99.6250    9.5930 N.ar   54  G54        -0.2693
   1176  OP1      -18.6200   95.6930    8.0900 O.2    54  G54        -0.5172
   1177  OP2      -17.6470   96.0020   10.4640 O.co2  54  G54        -0.4373
   1178  P        -13.3480   96.3910    5.3250 P.3    55  A55         0.2141
   1179  C5'      -11.6260   98.0250    4.2440 C.3    55  A55         0.1812
   1180  O5'      -11.8860   97.0050    5.1860 O.3    55  A55        -0.3114
   1181  C4'      -10.2480   98.6040    4.4260 C.3    55  A55         0.1773
   1182  O4'      -10.1540   99.2350    5.7200 O.3    55  A55        -0.3307
   1183  C3'       -9.0950   97.6180    4.4280 C.3    55  A55         0.1860
   1184  O3'       -8.7150   97.2100    3.1310 O.3    55  A55        -0.3112
   1185  C2'       -8.0080   98.3870    5.1630 C.3    55  A55         0.2309
   1186  O2'       -7.3970   99.3410    4.3030 O.3    55  A55        -0.2156
   1187  C1'       -8.8300   99.1370    6.2030 C.3    55  A55         0.2408
   1188  N1        -6.0920   98.0380   10.3740 N.ar   55  A55        -0.2040
   1189  C2        -5.8170   98.6850    9.2400 C.ar   55  A55         0.2016
   1190  N3        -6.5980   98.9200    8.1860 N.ar   55  A55        -0.2048
   1191  C4        -7.8120   98.4080    8.3870 C.ar   55  A55         0.1692
   1192  C5        -8.2600   97.7160    9.4920 C.ar   55  A55         0.1518
   1193  C6        -7.3320   97.5320   10.5340 C.ar   55  A55         0.1919
   1194  N6        -7.6010   96.8810   11.6670 N.pl3  55  A55        -0.1054
   1195  N7        -9.5850   97.3310    9.3220 N.ar   55  A55        -0.2193
   1196  C8        -9.8880   97.7970    8.1310 C.ar   55  A55         0.1816
   1197  N9        -8.8530   98.4540    7.5110 N.ar   55  A55        -0.2693
   1198  OP1      -13.7740   95.7720    4.0310 O.2    55  A55        -0.5172
   1199  OP2      -13.4500   95.5750    6.5850 O.co2  55  A55        -0.4373
   1200  P         -8.1090   95.7430    2.9020 P.3    56  C56         0.2141
   1201  C5'       -5.6750   96.7110    2.8780 C.3    56  C56         0.1812
   1202  O5'       -6.6420   95.8850    3.5140 O.3    56  C56        -0.3114
   1203  C4'       -4.4030   96.8310    3.6930 C.3    56  C56         0.1773
   1204  O4'       -4.6870   97.4700    4.9670 O.3    56  C56        -0.3307
   1205  C3'       -3.7200   95.5320    4.0900 C.3    56  C56         0.1860
   1206  O3'       -2.9580   94.9540    3.0450 O.3    56  C56        -0.3112
   1207  C2'       -2.8890   95.9720    5.2850 C.3    56  C56         0.2309
   1208  O2'       -1.7550   96.7130    4.8600 O.3    56  C56        -0.2156
   1209  C1'       -3.8550   96.9340    5.9690 C.3    56  C56         0.2420
   1210  N1        -4.7090   96.2450    6.9450 N.ar   56  C56        -0.2535
   1211  C2        -4.2820   96.0800    8.2750 C.ar   56  C56         0.3532
   1212  O2        -3.1760   96.5340    8.6510 O.2    56  C56        -0.2443
   1213  N3        -5.1210   95.4230    9.1220 N.ar   56  C56        -0.1739
   1214  C4        -6.3000   94.9570    8.6870 C.ar   56  C56         0.1759
   1215  N4        -7.0930   94.3290    9.5410 N.pl3  56  C56        -0.1070
   1216  C5        -6.7370   95.1100    7.3500 C.ar   56  C56         0.0566
   1217  C6        -5.9140   95.7540    6.5290 C.ar   56  C56         0.0850
   1218  OP1       -8.0240   95.5330    1.4190 O.2    56  C56        -0.5172
   1219  OP2       -8.9290   94.7850    3.7270 O.co2  56  C56        -0.4373
   1220  P         -3.0320   93.3650    2.7700 P.3    57  G57         0.2141
   1221  C5'       -0.6550   93.1300    3.8140 C.3    57  G57         0.1812
   1222  O5'       -2.0260   92.7760    3.8500 O.3    57  G57        -0.3114
   1223  C4'        0.0630   92.7340    5.0770 C.3    57  G57         0.1773
   1224  O4'       -0.4900   93.4400    6.2070 O.3    57  G57        -0.3307
   1225  C3'       -0.0430   91.2870    5.4970 C.3    57  G57         0.1860
   1226  O3'        0.7480   90.4130    4.7180 O.3    57  G57        -0.3112
   1227  C2'        0.3730   91.3590    6.9620 C.3    57  G57         0.2309
   1228  O2'        1.7860   91.4840    7.0850 O.3    57  G57        -0.2156
   1229  C1'       -0.2590   92.6840    7.3760 C.3    57  G57         0.2408
   1230  N1        -2.2940   91.0520   11.6630 N.ar   57  G57        -0.1709
   1231  C2        -0.9910   91.0700   11.2580 C.ar   57  G57         0.2606
   1232  N2        -0.1120   90.5730   12.1490 N.pl3  57  G57        -0.0859
   1233  N3        -0.5890   91.5310   10.0880 N.ar   57  G57        -0.1918
   1234  C4        -1.6220   91.9690    9.3530 C.ar   57  G57         0.1723
   1235  C5        -2.9520   91.9990    9.6690 C.ar   57  G57         0.1748
   1236  C6        -3.3670   91.5060   10.9320 C.ar   57  G57         0.3023
   1237  O6        -4.4960   91.4170   11.4380 O.2    57  G57        -0.2633
   1238  N7        -3.6680   92.5450    8.6140 N.ar   57  G57        -0.2173
   1239  C8        -2.7840   92.8330    7.6950 C.ar   57  G57         0.1817
   1240  N9        -1.5270   92.4970    8.0910 N.ar   57  G57        -0.2693
   1241  OP1       -2.4920   93.1420    1.4000 O.2    57  G57        -0.5172
   1242  OP2       -4.4230   92.9110    3.0860 O.co2  57  G57        -0.4373
   1243  P          0.3300   88.8690    4.5890 P.3    58  G58         0.2141
   1244  C5'        1.8630   88.1690    6.5980 C.3    58  G58         0.1812
   1245  O5'        0.5540   88.3100    6.0640 O.3    58  G58        -0.3114
   1246  C4'        1.8220   87.5370    7.9570 C.3    58  G58         0.1773
   1247  O4'        1.1620   88.4350    8.8790 O.3    58  G58        -0.3307
   1248  C3'        1.0110   86.2570    8.0520 C.3    58  G58         0.1860
   1249  O3'        1.7180   85.1180    7.6250 O.3    58  G58        -0.3112
   1250  C2'        0.6030   86.2130    9.5140 C.3    58  G58         0.2309
   1251  O2'        1.6680   85.7360   10.3290 O.3    58  G58        -0.2156
   1252  C1'        0.3810   87.6990    9.7980 C.3    58  G58         0.2408
   1253  N1        -4.1590   87.5770   11.8630 N.ar   58  G58        -0.1709
   1254  C2        -2.9630   87.1430   12.3610 C.ar   58  G58         0.2606
   1255  N2        -3.0290   86.6020   13.5760 N.pl3  58  G58        -0.0859
   1256  N3        -1.8150   87.2430   11.7130 N.ar   58  G58        -0.1918
   1257  C4        -1.9990   87.8160   10.5060 C.ar   58  G58         0.1723
   1258  C5        -3.1440   88.2830    9.9060 C.ar   58  G58         0.1748
   1259  C6        -4.3570   88.1790   10.6220 C.ar   58  G58         0.3023
   1260  O6        -5.4920   88.5420   10.2790 O.2    58  G58        -0.2633
   1261  N7        -2.8790   88.8070    8.6520 N.ar   58  G58        -0.2173
   1262  C8        -1.5910   88.6500    8.5030 C.ar   58  G58         0.1817
   1263  N9        -1.0210   88.0660    9.6030 N.ar   58  G58        -0.2693
   1264  OP1        1.2950   88.2390    3.6490 O.2    58  G58        -0.5172
   1265  OP2       -1.1150   88.8340    4.2630 O.co2  58  G58        -0.4373
   1266  P          0.9320   83.9350    6.8930 P.3    59  C59         0.2141
   1267  C5'        0.8230   82.4260    9.0340 C.3    59  C59         0.1812
   1268  O5'        0.1390   83.2470    8.0970 O.3    59  C59        -0.3114
   1269  C4'        0.0050   82.1830   10.2810 C.3    59  C59         0.1773
   1270  O4'       -0.5810   83.4220   10.7420 O.3    59  C59        -0.3307
   1271  C3'       -1.1930   81.2690   10.1410 C.3    59  C59         0.1860
   1272  O3'       -0.8600   79.8980   10.0900 O.3    59  C59        -0.3112
   1273  C2'       -2.0270   81.6470   11.3500 C.3    59  C59         0.2309
   1274  O2'       -1.4990   81.0810   12.5300 O.3    59  C59        -0.2156
   1275  C1'       -1.8040   83.1490   11.3970 C.3    59  C59         0.2420
   1276  N1        -2.8750   83.8510   10.7020 N.ar   59  C59        -0.2535
   1277  C2        -4.1000   83.8910   11.3800 C.ar   59  C59         0.3532
   1278  O2        -4.2160   83.3890   12.5200 O.2    59  C59        -0.2443
   1279  N3        -5.1370   84.4960   10.7770 N.ar   59  C59        -0.1739
   1280  C4        -4.9790   85.0180    9.5630 C.ar   59  C59         0.1759
   1281  N4        -6.0540   85.6030    9.0280 N.pl3  59  C59        -0.1070
   1282  C5        -3.7420   84.9730    8.8510 C.ar   59  C59         0.0566
   1283  C6        -2.7110   84.3710    9.4510 C.ar   59  C59         0.0850
   1284  OP1        1.9580   83.0040    6.3530 O.3    59  C59        -0.4373
   1285  OP2       -0.0270   84.5650    5.9500 O.co2  59  C59        -0.5172
   1286  P         -1.6440   78.9250    9.0770 P.3    60  U60         0.2141
   1287  C5'       -3.3450   78.1860   10.9180 C.3    60  U60         0.1812
   1288  O5'       -3.1040   78.8620    9.7010 O.3    60  U60        -0.3114
   1289  C4'       -4.6960   78.5500   11.4850 C.3    60  U60         0.1773
   1290  O4'       -4.8620   79.9900   11.4680 O.3    60  U60        -0.3307
   1291  C3'       -5.9120   78.0420   10.7210 C.3    60  U60         0.1860
   1292  O3'       -6.2150   76.6960   11.0080 O.3    60  U60        -0.3112
   1293  C2'       -6.9980   78.9980   11.1690 C.3    60  U60         0.2309
   1294  O2'       -7.4390   78.6600   12.4740 O.3    60  U60        -0.2156
   1295  C1'       -6.2230   80.3110   11.2520 C.3    60  U60         0.2420
   1296  N1        -6.3350   81.1150   10.0110 N.ar   60  U60        -0.2534
   1297  C2        -7.4960   81.8390    9.8520 C.ar   60  U60         0.3546
   1298  O2        -8.3980   81.8030   10.6760 O.2    60  U60        -0.2443
   1299  N3        -7.5750   82.5900    8.7020 N.ar   60  U60        -0.1530
   1300  C4        -6.6130   82.6900    7.7160 C.ar   60  U60         0.2846
   1301  O4        -6.8160   83.4040    6.7330 O.2    60  U60        -0.2650
   1302  C5        -5.4360   81.9100    7.9600 C.ar   60  U60         0.0814
   1303  C6        -5.3360   81.1690    9.0710 C.ar   60  U60         0.0870
   1304  OP1       -1.0010   77.5970    9.1690 O.3    60  U60        -0.4373
   1305  OP2       -1.6900   79.6100    7.7470 O.co2  60  U60        -0.5172
   1306  P         -6.6880   75.7220    9.8340 P.3    61  G61         0.2141
   1307  C5'       -9.1860   76.2950   10.4180 C.3    61  G61         0.1812
   1308  O5'       -8.1320   76.2830    9.4650 O.3    61  G61        -0.3114
   1309  C4'      -10.3470   77.1130    9.9190 C.3    61  G61         0.1773
   1310  O4'       -9.9300   78.4950    9.7530 O.3    61  G61        -0.3307
   1311  C3'      -10.8690   76.7360    8.5460 C.3    61  G61         0.1860
   1312  O3'      -11.7310   75.6130    8.5700 O.3    61  G61        -0.3112
   1313  C2'      -11.5360   78.0200    8.0830 C.3    61  G61         0.2309
   1314  O2'      -12.7780   78.2010    8.7410 O.3    61  G61        -0.2156
   1315  C1'      -10.5570   79.0570    8.6170 C.3    61  G61         0.2408
   1316  N1        -9.2270   82.0350    4.7220 N.ar   61  G61        -0.1709
   1317  C2       -10.3730   82.0200    5.4820 C.ar   61  G61         0.2606
   1318  N2       -11.3030   82.9190    5.1600 N.pl3  61  G61        -0.0859
   1319  N3       -10.6170   81.1860    6.4790 N.ar   61  G61        -0.1918
   1320  C4        -9.5850   80.3530    6.6650 C.ar   61  G61         0.1723
   1321  C5        -8.3970   80.2770    5.9690 C.ar   61  G61         0.1748
   1322  C6        -8.1530   81.1700    4.8960 C.ar   61  G61         0.3023
   1323  O6        -7.1600   81.2450    4.1610 O.2    61  G61        -0.2633
   1324  N7        -7.6050   79.2700    6.4900 N.ar   61  G61        -0.2173
   1325  C8        -8.3100   78.7660    7.4670 C.ar   61  G61         0.1817
   1326  N9        -9.5210   79.3840    7.6270 N.ar   61  G61        -0.2693
   1327  OP1       -6.8090   74.3630   10.4250 O.3    61  G61        -0.4373
   1328  OP2       -5.7530   75.9350    8.6740 O.co2  61  G61        -0.5172
   1329  P        -11.8780   74.6880    7.2620 P.3    62  A62         0.2141
   1330  C5'      -14.2460   74.9870    6.1340 C.3    62  A62         0.1812
   1331  O5'      -12.9450   75.5030    6.3890 O.3    62  A62        -0.3114
   1332  C4'      -15.2030   75.2690    7.2720 C.3    62  A62         0.1773
   1333  O4'      -15.1770   76.6800    7.5960 O.3    62  A62        -0.3307
   1334  C3'      -16.6660   74.9690    6.9810 C.3    62  A62         0.1860
   1335  O3'      -16.9960   73.6060    7.2030 O.3    62  A62        -0.3112
   1336  C2'      -17.4170   75.9520    7.8800 C.3    62  A62         0.2309
   1337  O2'      -17.4990   75.4660    9.2130 O.3    62  A62        -0.2156
   1338  C1'      -16.4770   77.1500    7.8680 C.3    62  A62         0.2408
   1339  N1       -19.8750   80.6240    6.1490 N.ar   62  A62        -0.2040
   1340  C2       -19.9150   79.8080    7.2030 C.ar   62  A62         0.2016
   1341  N3       -19.0060   78.9230    7.6010 N.ar   62  A62        -0.2048
   1342  C4       -17.9480   78.9190    6.7610 C.ar   62  A62         0.1692
   1343  C5       -17.7680   79.7010    5.6360 C.ar   62  A62         0.1518
   1344  C6       -18.7990   80.5960    5.3270 C.ar   62  A62         0.1919
   1345  N6       -18.7670   81.4130    4.2640 N.pl3  62  A62        -0.1054
   1346  N7       -16.5580   79.4290    5.0190 N.ar   62  A62        -0.2193
   1347  C8       -16.0340   78.4990    5.7750 C.ar   62  A62         0.1816
   1348  N9       -16.8270   78.1370    6.8340 N.ar   62  A62        -0.2693
   1349  OP1      -12.4580   73.3860    7.7200 O.3    62  A62        -0.4373
   1350  OP2      -10.5590   74.6890    6.5650 O.co2  62  A62        -0.5172
   1351  P        -17.7000   72.7440    6.0440 P.3    63  A63         0.2141
   1352  C5'      -19.8990   73.1980    7.4120 C.3    63  A63         0.1812
   1353  O5'      -19.2250   73.1980    6.1560 O.3    63  A63        -0.3114
   1354  C4'      -21.1170   74.0940    7.3840 C.3    63  A63         0.1773
   1355  O4'      -20.7040   75.4830    7.3240 O.3    63  A63        -0.3307
   1356  C3'      -22.0390   73.9270    6.1840 C.3    63  A63         0.1860
   1357  O3'      -22.9530   72.8650    6.3460 O.3    63  A63        -0.3112
   1358  C2'      -22.7140   75.2850    6.0770 C.3    63  A63         0.2309
   1359  O2'      -23.7710   75.3900    7.0170 O.3    63  A63        -0.2156
   1360  C1'      -21.5880   76.2170    6.5090 C.3    63  A63         0.2408
   1361  N1       -21.3010   79.8240    2.8990 N.ar   63  A63        -0.2040
   1362  C2       -22.2050   79.5940    3.8620 C.ar   63  A63         0.2016
   1363  N3       -22.2300   78.6280    4.7780 N.ar   63  A63        -0.2048
   1364  C4       -21.1490   77.8280    4.6240 C.ar   63  A63         0.1692
   1365  C5       -20.1440   77.9340    3.6840 C.ar   63  A63         0.1518
   1366  C6       -20.2380   78.9940    2.7780 C.ar   63  A63         0.1919
   1367  N6       -19.3420   79.2270    1.8170 N.pl3  63  A63        -0.1054
   1368  N7       -19.2230   76.9200    3.8460 N.ar   63  A63        -0.2193
   1369  C8       -19.6590   76.2210    4.8640 C.ar   63  A63         0.1816
   1370  N9       -20.8240   76.7250    5.3670 N.ar   63  A63        -0.2693
   1371  OP1      -17.5650   71.3200    6.4300 O.3    63  A63        -0.4373
   1372  OP2      -17.1380   73.1900    4.7370 O.co2  63  A63        -0.5172
   1373  P        -23.5110   72.0980    5.0590 P.3    64  A64         0.2141
   1374  C5'      -25.8120   73.3470    5.3940 C.3    64  A64         0.1812
   1375  O5'      -24.6950   73.0580    4.5630 O.3    64  A64        -0.3114
   1376  C4'      -26.5770   74.5320    4.8740 C.3    64  A64         0.1773
   1377  O4'      -25.6980   75.6810    4.8240 O.3    64  A64        -0.3307
   1378  C3'      -27.0930   74.4270    3.4450 C.3    64  A64         0.1860
   1379  O3'      -28.2840   73.6770    3.3180 O.3    64  A64        -0.3112
   1380  C2'      -27.2530   75.8840    3.0380 C.3    64  A64         0.2309
   1381  O2'      -28.4520   76.4330    3.5660 O.3    64  A64        -0.2156
   1382  C1'      -26.0700   76.5260    3.7510 C.3    64  A64         0.2408
   1383  N1       -24.0380   79.6110    0.2300 N.ar   64  A64        -0.2040
   1384  C2       -25.1370   79.6800    0.9790 C.ar   64  A64         0.2016
   1385  N3       -25.5890   78.8180    1.8810 N.ar   64  A64        -0.2048
   1386  C4       -24.7730   77.7600    1.9980 C.ar   64  A64         0.1692
   1387  C5       -23.6050   77.5380    1.3030 C.ar   64  A64         0.1518
   1388  C6       -23.2280   78.5290    0.3670 C.ar   64  A64         0.1919
   1389  N6       -22.1180   78.4550   -0.3910 N.pl3  64  A64        -0.1054
   1390  N7       -23.0410   76.3270    1.7040 N.ar   64  A64        -0.2193
   1391  C8       -23.8670   75.8470    2.6170 C.ar   64  A64         0.1816
   1392  N9       -24.9250   76.6870    2.8460 N.ar   64  A64        -0.2693
   1393  OP1      -24.0630   70.7930    5.5410 O.3    64  A64        -0.4373
   1394  OP2      -22.4180   72.0870    4.0450 O.co2  64  A64        -0.5172
   1395  P        -28.5570   72.8540    1.9620 P.3    65  G65         0.2141
   1396  C5'      -30.3690   74.6500    1.3450 C.3    65  G65         0.1812
   1397  O5'      -29.1970   73.9420    0.9950 O.3    65  G65        -0.3114
   1398  C4'      -30.4670   75.9290    0.5590 C.3    65  G65         0.1773
   1399  O4'      -29.2970   76.7440    0.8310 O.3    65  G65        -0.3307
   1400  C3'      -30.4540   75.7790   -0.9600 C.3    65  G65         0.1860
   1401  O3'      -31.7160   75.4300   -1.5110 O.3    65  G65        -0.3112
   1402  C2'      -29.9370   77.1280   -1.4250 C.3    65  G65         0.2309
   1403  O2'      -30.9620   78.1050   -1.3840 O.3    65  G65        -0.2156
   1404  C1'      -28.9110   77.4380   -0.3350 C.3    65  G65         0.2408
   1405  N1       -24.8180   78.7230   -2.8030 N.ar   65  G65        -0.1709
   1406  C2       -25.9440   79.4700   -2.5370 C.ar   65  G65         0.2606
   1407  N2       -25.9540   80.7240   -3.0260 N.pl3  65  G65        -0.0859
   1408  N3       -26.9690   78.9950   -1.8500 N.ar   65  G65        -0.1918
   1409  C4       -26.7330   77.7170   -1.4720 C.ar   65  G65         0.1723
   1410  C5       -25.6480   76.8990   -1.6820 C.ar   65  G65         0.1748
   1411  C6       -24.5540   77.4050   -2.4220 C.ar   65  G65         0.3023
   1412  O6       -23.4810   76.8480   -2.7340 O.2    65  G65        -0.2633
   1413  N7       -25.8400   75.6620   -1.0990 N.ar   65  G65        -0.2173
   1414  C8       -27.0230   75.7430   -0.5550 C.ar   65  G65         0.1817
   1415  N9       -27.5870   76.9720   -0.7340 N.ar   65  G65        -0.2693
   1416  OP1      -29.5600   71.7950    2.2880 O.3    65  G65        -0.4373
   1417  OP2      -27.2320   72.4420    1.4190 O.co2  65  G65        -0.5172
   1418  P        -31.8280   74.2010   -2.5410 P.3    66  G66         0.2141
   1419  C5'      -31.4950   75.7010   -4.6420 C.3    66  G66         0.1812
   1420  O5'      -30.9690   74.7070   -3.7850 O.3    66  G66        -0.3114
   1421  C4'      -30.4570   76.2430   -5.5810 C.3    66  G66         0.1773
   1422  O4'      -29.3440   76.8050   -4.8220 O.3    66  G66        -0.3307
   1423  C3'      -29.7790   75.2370   -6.4860 C.3    66  G66         0.1860
   1424  O3'      -30.5670   74.8110   -7.5820 O.3    66  G66        -0.3112
   1425  C2'      -28.5090   75.9830   -6.8660 C.3    66  G66         0.2309
   1426  O2'      -28.8050   77.0860   -7.7110 O.3    66  G66        -0.2156
   1427  C1'      -28.1260   76.5270   -5.4960 C.3    66  G66         0.2408
   1428  N1       -23.8950   73.7290   -4.9180 N.ar   66  G66        -0.1709
   1429  C2       -24.1580   74.7130   -5.8560 C.ar   66  G66         0.2606
   1430  N2       -23.1940   74.9820   -6.7470 N.pl3  66  G66        -0.0859
   1431  N3       -25.2900   75.3920   -5.9160 N.ar   66  G66        -0.1918
   1432  C4       -26.1530   74.9940   -4.9480 C.ar   66  G66         0.1723
   1433  C5       -25.9810   74.0310   -3.9720 C.ar   66  G66         0.1748
   1434  C6       -24.7700   73.3060   -3.8980 C.ar   66  G66         0.3023
   1435  O6       -24.4680   72.4150   -3.0700 O.2    66  G66        -0.2633
   1436  N7       -27.0940   73.9290   -3.1670 N.ar   66  G66        -0.2173
   1437  C8       -27.9190   74.8150   -3.6550 C.ar   66  G66         0.1817
   1438  N9       -27.4070   75.5040   -4.7190 N.ar   66  G66        -0.2693
   1439  OP1      -33.2510   74.0940   -2.9350 O.2    66  G66        -0.5172
   1440  OP2      -31.1750   73.0260   -1.8930 O.co2  66  G66        -0.4373
   1441  P        -30.5170   73.2600   -8.0260 P.3    67  C67         0.2141
   1442  C5'      -28.5670   73.9050   -9.6560 C.3    67  C67         0.1812
   1443  O5'      -29.0320   73.1080   -8.5810 O.3    67  C67        -0.3114
   1444  C4'      -27.1580   73.5380  -10.0290 C.3    67  C67         0.1773
   1445  O4'      -26.2940   73.6970   -8.8810 O.3    67  C67        -0.3307
   1446  C3'      -26.9300   72.0930  -10.4290 C.3    67  C67         0.1860
   1447  O3'      -27.3380   71.8060  -11.7460 O.3    67  C67        -0.3112
   1448  C2'      -25.4410   71.9280  -10.2110 C.3    67  C67         0.2309
   1449  O2'      -24.7060   72.5430  -11.2590 O.3    67  C67        -0.2156
   1450  C1'      -25.2470   72.7460   -8.9380 C.3    67  C67         0.2420
   1451  N1       -25.3150   71.8990   -7.7450 N.ar   67  C67        -0.2535
   1452  C2       -24.2310   71.0510   -7.5040 C.ar   67  C67         0.3532
   1453  O2       -23.2620   71.0540   -8.2860 O.2    67  C67        -0.2443
   1454  N3       -24.2640   70.2380   -6.4240 N.ar   67  C67        -0.1739
   1455  C4       -25.3260   70.2540   -5.6220 C.ar   67  C67         0.1759
   1456  N4       -25.3150   69.4390   -4.5720 N.pl3  67  C67        -0.1070
   1457  C5       -26.4390   71.1100   -5.8550 C.ar   67  C67         0.0566
   1458  C6       -26.3980   71.9090   -6.9260 C.ar   67  C67         0.0850
   1459  OP1      -31.4850   73.0880   -9.1340 O.2    67  C67        -0.5172
   1460  OP2      -30.6780   72.4290   -6.7860 O.co2  67  C67        -0.4373
   1461  P        -28.0200   70.3930  -12.0770 P.3    68  G68         0.2141
   1462  C5'      -25.7360   69.1830  -12.4390 C.3    68  G68         0.1812
   1463  O5'      -26.8930   69.3560  -11.6480 O.3    68  G68        -0.3114
   1464  C4'      -24.7840   68.2280  -11.7900 C.3    68  G68         0.1773
   1465  O4'      -24.5490   68.6480  -10.4300 O.3    68  G68        -0.3307
   1466  C3'      -25.2670   66.7950  -11.6740 C.3    68  G68         0.1860
   1467  O3'      -25.0010   66.0470  -12.8440 O.3    68  G68        -0.3112
   1468  C2'      -24.5290   66.2740  -10.4490 C.3    68  G68         0.2309
   1469  O2'      -23.2200   65.8530  -10.7990 O.3    68  G68        -0.2156
   1470  C1'      -24.4170   67.5330   -9.5890 C.3    68  G68         0.2408
   1471  N1       -26.2070   66.1610   -5.0130 N.ar   68  G68        -0.1709
   1472  C2       -25.0510   65.7440   -5.6150 C.ar   68  G68         0.2606
   1473  N2       -24.3150   64.8790   -4.8930 N.pl3  68  G68        -0.0859
   1474  N3       -24.6580   66.1550   -6.8130 N.ar   68  G68        -0.1918
   1475  C4       -25.5450   67.0140   -7.3520 C.ar   68  G68         0.1723
   1476  C5       -26.7260   67.4780   -6.8310 C.ar   68  G68         0.1748
   1477  C6       -27.1330   67.0460   -5.5600 C.ar   68  G68         0.3023
   1478  O6       -28.1630   67.3670   -4.9440 O.2    68  G68        -0.2633
   1479  N7       -27.3550   68.3490   -7.6960 N.ar   68  G68        -0.2173
   1480  C8       -26.5660   68.4190   -8.7250 C.ar   68  G68         0.1817
   1481  N9       -25.4690   67.6200   -8.5780 N.ar   68  G68        -0.2693
   1482  OP1      -28.2100   70.3580  -13.5580 O.2    68  G68        -0.5172
   1483  OP2      -29.2180   70.2410  -11.1830 O.co2  68  G68        -0.4373
   1484  P        -26.1850   65.2760  -13.5980 P.3    69  A69         0.2141
   1485  C5'      -24.3020   64.2270  -15.0750 C.3    69  A69         0.1812
   1486  O5'      -25.4330   64.0350  -14.2410 O.3    69  A69        -0.3114
   1487  C4'      -23.2090   63.2370  -14.7580 C.3    69  A69         0.1773
   1488  O4'      -22.7340   63.4610  -13.4180 O.3    69  A69        -0.3307
   1489  C3'      -23.6160   61.7680  -14.7670 C.3    69  A69         0.1860
   1490  O3'      -23.6140   61.2020  -16.0610 O.3    69  A69        -0.3112
   1491  C2'      -22.6170   61.1190  -13.8230 C.3    69  A69         0.2309
   1492  O2'      -21.3940   60.8530  -14.4880 O.3    69  A69        -0.2156
   1493  C1'      -22.3860   62.2360  -12.8140 C.3    69  A69         0.2408
   1494  N1       -22.8910   59.4980   -8.6200 N.ar   69  A69        -0.2040
   1495  C2       -22.0250   59.4400   -9.6430 C.ar   69  A69         0.2016
   1496  N3       -21.9670   60.2040  -10.7220 N.ar   69  A69        -0.2048
   1497  C4       -22.9500   61.1140  -10.6790 C.ar   69  A69         0.1692
   1498  C5       -23.9110   61.3060   -9.7180 C.ar   69  A69         0.1518
   1499  C6       -23.8680   60.4400   -8.6320 C.ar   69  A69         0.1919
   1500  N6       -24.7470   60.5190   -7.6320 N.pl3  69  A69        -0.1054
   1501  N7       -24.7500   62.3600  -10.0390 N.ar   69  A69        -0.2193
   1502  C8       -24.2870   62.7920  -11.1870 C.ar   69  A69         0.1816
   1503  N9       -23.2030   62.0660  -11.6090 N.ar   69  A69        -0.2693
   1504  OP1      -26.6890   66.1880  -14.6760 O.2    69  A69        -0.5172
   1505  OP2      -27.1290   64.8030  -12.5510 O.co2  69  A69        -0.4373
   1506  P        -24.8390   60.2960  -16.5300 P.3    70  G70         0.2141
   1507  C5'      -23.7960   58.1820  -15.3950 C.3    70  G70         0.1812
   1508  O5'      -24.8460   59.1350  -15.4350 O.3    70  G70        -0.3114
   1509  C4'      -23.9580   57.2160  -14.2480 C.3    70  G70         0.1773
   1510  O4'      -23.6810   57.8890  -12.9920 O.3    70  G70        -0.3307
   1511  C3'      -25.3430   56.6320  -14.0390 C.3    70  G70         0.1860
   1512  O3'      -25.6550   55.5910  -14.9460 O.3    70  G70        -0.3112
   1513  C2'      -25.2730   56.1880  -12.5860 C.3    70  G70         0.2309
   1514  O2'      -24.4660   55.0250  -12.4480 O.3    70  G70        -0.2156
   1515  C1'      -24.5220   57.3690  -11.9810 C.3    70  G70         0.2408
   1516  N1       -27.9110   59.0740   -8.5650 N.ar   70  G70        -0.1709
   1517  C2       -27.1950   57.9170   -8.5450 C.ar   70  G70         0.2606
   1518  N2       -27.4330   57.1320   -7.4910 N.pl3  70  G70        -0.0859
   1519  N3       -26.3270   57.5490   -9.4760 N.ar   70  G70        -0.1918
   1520  C4       -26.2460   58.4800  -10.4570 C.ar   70  G70         0.1723
   1521  C5       -26.9150   59.6690  -10.5620 C.ar   70  G70         0.1748
   1522  C6       -27.8280   60.0260   -9.5570 C.ar   70  G70         0.3023
   1523  O6       -28.5150   61.0460   -9.4850 O.2    70  G70        -0.2633
   1524  N7       -26.5550   60.3440  -11.7130 N.ar   70  G70        -0.2173
   1525  C8       -25.6850   59.5740  -12.2910 C.ar   70  G70         0.1817
   1526  N9       -25.4460   58.4340  -11.5770 N.ar   70  G70        -0.2693
   1527  OP1      -24.4680   59.7430  -17.8580 O.2    70  G70        -0.5172
   1528  OP2      -26.0810   61.1270  -16.4090 O.co2  70  G70        -0.4373
   1529  P        -27.1770   55.3480  -15.4200 P.3    71  G71         0.2141
   1530  C5'      -27.5900   53.5450  -13.5810 C.3    71  G71         0.1812
   1531  O5'      -27.8750   54.8360  -14.0870 O.3    71  G71        -0.3114
   1532  C4'      -28.1390   53.3510  -12.1880 C.3    71  G71         0.1773
   1533  O4'      -27.7180   54.4420  -11.3230 O.3    71  G71        -0.3307
   1534  C3'      -29.6500   53.3620  -12.0410 C.3    71  G71         0.1860
   1535  O3'      -30.2770   52.1750  -12.4890 O.3    71  G71        -0.3112
   1536  C2'      -29.8000   53.6140  -10.5490 C.3    71  G71         0.2309
   1537  O2'      -29.4480   52.4590   -9.7970 O.3    71  G71        -0.2156
   1538  C1'      -28.7220   54.6760  -10.3470 C.3    71  G71         0.2408
   1539  N1       -31.7710   58.0920   -8.3510 N.ar   71  G71        -0.1709
   1540  C2       -31.3390   56.8790   -7.8380 C.ar   71  G71         0.2606
   1541  N2       -31.8260   56.5660   -6.6170 N.pl3  71  G71        -0.0859
   1542  N3       -30.5010   56.0550   -8.4790 N.ar   71  G71        -0.1918
   1543  C4       -30.1480   56.5780   -9.6810 C.ar   71  G71         0.1723
   1544  C5       -30.5150   57.7680  -10.2750 C.ar   71  G71         0.1748
   1545  C6       -31.4020   58.6240   -9.5830 C.ar   71  G71         0.3023
   1546  O6       -31.8440   59.7100   -9.9380 O.2    71  G71        -0.2633
   1547  N7       -29.9040   57.9000  -11.5160 N.ar   71  G71        -0.2173
   1548  C8       -29.1930   56.8100  -11.6670 C.ar   71  G71         0.1817
   1549  N9       -29.2890   56.0010  -10.5720 N.ar   71  G71        -0.2693
   1550  OP1      -27.1300   54.2660  -16.4200 O.2    71  G71        -0.5172
   1551  OP2      -27.7600   56.6750  -15.8140 O.co2  71  G71        -0.4373
   1552  P        -31.7270   52.2380  -13.1980 P.3    72  G72         0.2141
   1553  C5'      -32.8850   51.6420  -10.9140 C.3    72  G72         0.1812
   1554  O5'      -32.7140   52.5650  -11.9820 O.3    72  G72        -0.3114
   1555  C4'      -33.6360   52.2540   -9.7580 C.3    72  G72         0.1773
   1556  O4'      -33.0060   53.5010   -9.3620 O.3    72  G72        -0.3307
   1557  C3'      -35.0750   52.6630  -10.0250 C.3    72  G72         0.1860
   1558  O3'      -35.9810   51.5840  -10.0320 O.3    72  G72        -0.3112
   1559  C2'      -35.3310   53.6610   -8.9120 C.3    72  G72         0.2309
   1560  O2'      -35.5100   52.9980   -7.6640 O.3    72  G72        -0.2156
   1561  C1'      -33.9930   54.4030   -8.8930 C.3    72  G72         0.2408
   1562  N1       -35.8980   59.0330   -9.5730 N.ar   72  G72        -0.1709
   1563  C2       -36.0670   58.1630   -8.5280 C.ar   72  G72         0.2606
   1564  N2       -36.8440   58.6030   -7.5250 N.pl3  72  G72        -0.0859
   1565  N3       -35.5050   56.9640   -8.4720 N.ar   72  G72        -0.1918
   1566  C4       -34.7480   56.7100   -9.5640 C.ar   72  G72         0.1723
   1567  C5       -34.5190   57.5090  -10.6710 C.ar   72  G72         0.1748
   1568  C6       -35.1320   58.7970  -10.7160 C.ar   72  G72         0.3023
   1569  O6       -35.0490   59.6740  -11.6030 O.2    72  G72        -0.2633
   1570  N7       -33.6740   56.8620  -11.5810 N.ar   72  G72        -0.2173
   1571  C8       -33.4200   55.7010  -11.0180 C.ar   72  G72         0.1817
   1572  N9       -34.0240   55.5650   -9.7900 N.ar   72  G72        -0.2693
   1573  OP1      -31.9930   50.8820  -13.7190 O.3    72  G72        -0.4373
   1574  OP2      -31.7170   53.3800  -14.1550 O.co2  72  G72        -0.5172
   1575  P        -37.2080   51.5800  -11.0730 P.3    73  C73         0.2141
   1576  C5'      -38.8520   52.0930   -9.1080 C.3    73  C73         0.1812
   1577  O5'      -38.2900   52.4990  -10.3430 O.3    73  C73        -0.3114
   1578  C4'      -39.5160   53.2400   -8.3900 C.3    73  C73         0.1773
   1579  O4'      -38.5970   54.3570   -8.2680 O.3    73  C73        -0.3307
   1580  C3'      -40.7200   53.8640   -9.0730 C.3    73  C73         0.1860
   1581  O3'      -41.8980   53.0910   -8.9730 O.3    73  C73        -0.3112
   1582  C2'      -40.7990   55.2100   -8.3710 C.3    73  C73         0.2309
   1583  O2'      -41.2510   55.0620   -7.0310 O.3    73  C73        -0.2156
   1584  C1'      -39.3250   55.5750   -8.3340 C.3    73  C73         0.2420
   1585  N1       -38.9260   56.2950   -9.5520 N.ar   73  C73        -0.2535
   1586  C2       -39.3010   57.6300   -9.6670 C.ar   73  C73         0.3532
   1587  O2       -39.9420   58.1340   -8.7350 O.2    73  C73        -0.2443
   1588  N3       -38.9600   58.3370  -10.7660 N.ar   73  C73        -0.1739
   1589  C4       -38.2710   57.7300  -11.7260 C.ar   73  C73         0.1759
   1590  N4       -37.9410   58.4250  -12.8130 N.pl3  73  C73        -0.1070
   1591  C5       -37.8880   56.3670  -11.6380 C.ar   73  C73         0.0566
   1592  C6       -38.2370   55.6820  -10.5470 C.ar   73  C73         0.0850
   1593  OP1      -37.6970   50.1720  -11.1510 O.3    73  C73        -0.4373
   1594  OP2      -36.7380   52.2500  -12.3210 O.co2  73  C73        -0.5172
   1595  P        -43.0190   53.1780  -10.1200 P.3    74  G74         0.2141
   1596  C5'      -44.2540   55.0180   -8.7500 C.3    74  G74         0.1812
   1597  O5'      -43.5890   54.6470   -9.9440 O.3    74  G74        -0.3114
   1598  C4'      -44.7010   56.4490   -8.8020 C.3    74  G74         0.1773
   1599  O4'      -43.5590   57.3130   -9.0370 O.3    74  G74        -0.3307
   1600  C3'      -45.6640   56.7980   -9.9200 C.3    74  G74         0.1860
   1601  O3'      -47.0040   56.4130   -9.6230 O.3    74  G74        -0.3112
   1602  C2'      -45.4610   58.3080  -10.0670 C.3    74  G74         0.2309
   1603  O2'      -46.1770   59.0220   -9.0640 O.3    74  G74        -0.2156
   1604  C1'      -43.9600   58.4420   -9.7810 C.3    74  G74         0.2408
   1605  N1       -42.4430   61.3470  -13.6040 N.ar   74  G74        -0.1709
   1606  C2       -43.2340   61.6670  -12.5270 C.ar   74  G74         0.2606
   1607  N2       -43.6710   62.9370  -12.4920 N.pl3  74  G74        -0.0859
   1608  N3       -43.5640   60.8090  -11.5700 N.ar   74  G74        -0.1918
   1609  C4       -43.0190   59.5960  -11.8070 C.ar   74  G74         0.1723
   1610  C5       -42.2210   59.1740  -12.8540 C.ar   74  G74         0.1748
   1611  C6       -41.8780   60.0990  -13.8650 C.ar   74  G74         0.3023
   1612  O6       -41.1790   59.9130  -14.8750 O.2    74  G74        -0.2633
   1613  N7       -41.8800   57.8350  -12.7170 N.ar   74  G74        -0.2173
   1614  C8       -42.4730   57.4720  -11.6070 C.ar   74  G74         0.1817
   1615  N9       -43.1710   58.4920  -11.0160 N.ar   74  G74        -0.2693
   1616  OP1      -44.0700   52.1890   -9.7660 O.3    74  G74        -0.4373
   1617  OP2      -42.3270   53.0580  -11.4360 O.co2  74  G74        -0.5172
   1618  P        -48.0920   56.2240  -10.7970 P.3    75  C75         0.2141
   1619  C5'      -48.3320   58.0320  -12.6600 C.3    75  C75         0.1812
   1620  O5'      -48.3220   57.7080  -11.2860 O.3    75  C75        -0.3114
   1621  C4'      -47.9890   59.4790  -12.8510 C.3    75  C75         0.1773
   1622  O4'      -46.5560   59.6270  -12.9230 O.3    75  C75        -0.3307
   1623  C3'      -48.5100   60.1420  -14.1160 C.3    75  C75         0.1860
   1624  O3'      -49.8620   60.5730  -13.9850 O.3    75  C75        -0.3112
   1625  C2'      -47.5280   61.2940  -14.3070 C.3    75  C75         0.2309
   1626  O2'      -47.8810   62.3970  -13.4730 O.3    75  C75        -0.2156
   1627  C1'      -46.2260   60.6940  -13.7730 C.3    75  C75         0.2420
   1628  N1       -45.3520   60.1880  -14.8290 N.ar   75  C75        -0.2535
   1629  C2       -44.7590   61.0800  -15.7120 C.ar   75  C75         0.3532
   1630  O2       -45.0140   62.2790  -15.6230 O.2    75  C75        -0.2443
   1631  N3       -43.9320   60.6060  -16.6660 N.ar   75  C75        -0.1739
   1632  C4       -43.6860   59.2980  -16.7150 C.ar   75  C75         0.1759
   1633  N4       -42.8700   58.8940  -17.6780 N.pl3  75  C75        -0.1070
   1634  C5       -44.2600   58.3600  -15.8020 C.ar   75  C75         0.0566
   1635  C6       -45.0790   58.8540  -14.8730 C.ar   75  C75         0.0850
   1636  OP1      -49.3240   55.7230  -10.1570 O.3    75  C75        -0.4373
   1637  OP2      -47.4620   55.4140  -11.8860 O.co2  75  C75        -0.5172
   1638  P        -50.8100   60.7290  -15.2810 P.3    76  C76         0.2141
   1639  C5'      -50.2480   63.2250  -15.8630 C.3    76  C76         0.1812
   1640  O5'      -50.0630   61.8420  -16.1380 O.3    76  C76        -0.3114
   1641  C4'      -50.1060   64.0520  -17.1110 C.3    76  C76         0.1773
   1642  O4'      -48.7740   63.8510  -17.6690 O.3    76  C76        -0.3307
   1643  C3'      -51.0900   63.7120  -18.2300 C.3    76  C76         0.1860
   1644  O3'      -51.4020   64.8940  -18.9560 O.3    76  C76        -0.3112
   1645  C2'      -50.2700   62.7880  -19.1200 C.3    76  C76         0.2309
   1646  O2'      -50.7220   62.7080  -20.4570 O.3    76  C76        -0.2156
   1647  C1'      -48.8910   63.4350  -19.0160 C.3    76  C76         0.2420
   1648  N1       -47.7630   62.5300  -19.3310 N.ar   76  C76        -0.2535
   1649  C2       -46.8940   62.8850  -20.3740 C.ar   76  C76         0.3532
   1650  O2       -47.0730   63.9420  -20.9930 O.2    76  C76        -0.2443
   1651  N3       -45.8650   62.0790  -20.6960 N.ar   76  C76        -0.1739
   1652  C4       -45.6810   60.9520  -20.0080 C.ar   76  C76         0.1759
   1653  N4       -44.6410   60.1780  -20.3440 N.pl3  76  C76        -0.1070
   1654  C5       -46.5470   60.5600  -18.9450 C.ar   76  C76         0.0566
   1655  C6       -47.5690   61.3680  -18.6430 C.ar   76  C76         0.0850
   1656  OP1      -52.1050   61.2570  -14.8060 O.3    76  C76        -0.4373
   1657  OP2      -50.7830   59.4240  -16.0170 O.co2  76  C76        -0.5172
   1658  P        -52.5800   65.8590  -18.4600 P.3    77  G77         0.2141
   1659  C5'      -52.8540   67.1080  -16.1810 C.3    77  G77         0.1812
   1660  O5'      -51.9980   66.4610  -17.1090 O.3    77  G77        -0.3114
   1661  C4'      -52.0820   67.9850  -15.2420 C.3    77  G77         0.1773
   1662  O4'      -51.6310   69.1660  -15.9590 O.3    77  G77        -0.3307
   1663  C3'      -52.8570   68.4980  -14.0190 C.3    77  G77         0.1860
   1664  O3'      -52.0070   68.4470  -12.8700 O.3    77  G77        -0.3112
   1665  C2'      -53.1250   69.9630  -14.3790 C.3    77  G77         0.2309
   1666  O2'      -53.2890   70.8260  -13.2760 O.3    77  G77        -0.2156
   1667  C1'      -51.8720   70.2960  -15.1560 C.3    77  G77         0.2408
   1668  N1       -49.3950   73.4430  -18.2410 N.ar   77  G77        -0.1709
   1669  C2       -48.9740   72.2850  -17.6390 C.ar   77  G77         0.2606
   1670  N2       -47.7100   71.9290  -17.8900 N.pl3  77  G77        -0.0859
   1671  N3       -49.7200   71.5330  -16.8520 N.ar   77  G77        -0.1918
   1672  C4       -50.9560   72.0390  -16.7200 C.ar   77  G77         0.1723
   1673  C5       -51.4850   73.1780  -17.2730 C.ar   77  G77         0.1748
   1674  C6       -50.6760   73.9790  -18.1130 C.ar   77  G77         0.3023
   1675  O6       -50.9930   75.0310  -18.6940 O.2    77  G77        -0.2633
   1676  N7       -52.7980   73.3540  -16.8810 N.ar   77  G77        -0.2173
   1677  C8       -53.0330   72.3280  -16.1070 C.ar   77  G77         0.1817
   1678  N9       -51.9690   71.4860  -15.9930 N.ar   77  G77        -0.2693
   1679  OP1      -53.7550   64.9910  -18.1670 O.3    77  G77        -0.4373
   1680  OP2      -52.7230   66.9430  -19.4770 O.co2  77  G77        -0.5172
   1681  P        -51.7430   67.0520  -12.1140 P.3    78  A78         0.2141
   1682  C5'      -49.2370   66.5620  -12.6150 C.3    78  A78         0.1812
   1683  O5'      -50.5920   66.3970  -12.9810 O.3    78  A78        -0.3114
   1684  C4'      -48.3300   65.8330  -13.5590 C.3    78  A78         0.1773
   1685  O4'      -48.3850   66.4550  -14.8610 O.3    78  A78        -0.3307
   1686  C3'      -46.8570   65.8460  -13.2150 C.3    78  A78         0.1860
   1687  O3'      -46.5270   64.8920  -12.2190 O.3    78  A78        -0.3112
   1688  C2'      -46.2040   65.5570  -14.5640 C.3    78  A78         0.2309
   1689  O2'      -46.1850   64.1620  -14.8100 O.3    78  A78        -0.2156
   1690  C1'      -47.1890   66.2080  -15.5470 C.3    78  A78         0.2408
   1691  N1       -44.4470   68.1550  -19.3470 N.ar   78  A78        -0.2040
   1692  C2       -44.7990   66.9030  -19.0280 C.ar   78  A78         0.2016
   1693  N3       -45.5330   66.4890  -17.9970 N.ar   78  A78        -0.2048
   1694  C4       -45.9290   67.5350  -17.2370 C.ar   78  A78         0.1692
   1695  C5       -45.6460   68.8800  -17.4370 C.ar   78  A78         0.1518
   1696  C6       -44.8520   69.1820  -18.5670 C.ar   78  A78         0.1919
   1697  N6       -44.4750   70.4040  -18.9360 N.pl3  78  A78        -0.1054
   1698  N7       -46.2430   69.6470  -16.4340 N.ar   78  A78        -0.2193
   1699  C8       -46.8560   68.7570  -15.6720 C.ar   78  A78         0.1816
   1700  N9       -46.6900   67.4700  -16.1000 N.ar   78  A78        -0.2693
   1701  OP1      -52.9790   66.2400  -12.2360 O.2    78  A78        -0.5172
   1702  OP2      -51.2350   67.3940  -10.7490 O.co2  78  A78        -0.4373
   1703  P        -46.0360   65.3740  -10.7610 P.3    79  A79         0.2141
   1704  C5'      -45.4070   67.9050  -10.7040 C.3    79  A79         0.1812
   1705  O5'      -45.0830   66.5910  -11.1090 O.3    79  A79        -0.3114
   1706  C4'      -44.8110   68.9060  -11.6460 C.3    79  A79         0.1773
   1707  O4'      -45.6640   69.0390  -12.8160 O.3    79  A79        -0.3307
   1708  C3'      -44.6850   70.3280  -11.1360 C.3    79  A79         0.1860
   1709  O3'      -43.5850   70.5250  -10.2630 O.3    79  A79        -0.3112
   1710  C2'      -44.5890   71.1110  -12.4360 C.3    79  A79         0.2309
   1711  O2'      -43.3120   70.9160  -13.0440 O.3    79  A79        -0.2156
   1712  C1'      -45.6270   70.3760  -13.2770 C.3    79  A79         0.2408
   1713  N1       -49.0830   74.0170  -14.6770 N.ar   79  A79        -0.2040
   1714  C2       -47.8190   73.8160  -15.0410 C.ar   79  A79         0.2016
   1715  N3       -46.9620   72.8670  -14.6620 N.ar   79  A79        -0.2048
   1716  C4       -47.5350   72.0430  -13.7720 C.ar   79  A79         0.1692
   1717  C5       -48.8300   72.1310  -13.3000 C.ar   79  A79         0.1518
   1718  C6       -49.6280   73.1750  -13.7850 C.ar   79  A79         0.1919
   1719  N6       -50.8930   73.3670  -13.4060 N.pl3  79  A79        -0.1054
   1720  N7       -49.0970   71.1190  -12.3990 N.ar   79  A79        -0.2193
   1721  C8       -47.9710   70.4540  -12.3440 C.ar   79  A79         0.1816
   1722  N9       -46.9790   70.9530  -13.1390 N.ar   79  A79        -0.2693
   1723  OP1      -45.2340   64.2540  -10.1760 O.2    79  A79        -0.5172
   1724  OP2      -47.2400   65.8590  -10.0220 O.co2  79  A79        -0.4373
   1725  P        -43.6950   71.6060   -9.0670 P.3    80  G80         0.2141
   1726  C5'      -42.3570   73.3320  -10.5150 C.3    80  G80         0.1812
   1727  O5'      -43.5580   73.0030   -9.8320 O.3    80  G80        -0.3114
   1728  C4'      -42.5040   74.5790  -11.3480 C.3    80  G80         0.1773
   1729  O4'      -43.4780   74.3610  -12.3950 O.3    80  G80        -0.3307
   1730  C3'      -43.0180   75.8150  -10.6290 C.3    80  G80         0.1860
   1731  O3'      -42.0250   76.4670   -9.8710 O.3    80  G80        -0.3112
   1732  C2'      -43.5600   76.6550  -11.7800 C.3    80  G80         0.2309
   1733  O2'      -42.5040   77.2690  -12.5120 O.3    80  G80        -0.2156
   1734  C1'      -44.1850   75.5670  -12.6510 C.3    80  G80         0.2408
   1735  N1       -48.9780   77.2800  -13.1000 N.ar   80  G80        -0.1709
   1736  C2       -47.8230   77.7720  -13.6400 C.ar   80  G80         0.2606
   1737  N2       -47.9680   78.8660  -14.3940 N.pl3  80  G80        -0.0859
   1738  N3       -46.6210   77.2440  -13.4650 N.ar   80  G80        -0.1918
   1739  C4       -46.6670   76.1560  -12.6810 C.ar   80  G80         0.1723
   1740  C5       -47.7690   75.5870  -12.0960 C.ar   80  G80         0.1748
   1741  C6       -49.0450   76.1580  -12.2920 C.ar   80  G80         0.3023
   1742  O6       -50.1290   75.7720  -11.8380 O.2    80  G80        -0.2633
   1743  N7       -47.4140   74.4690  -11.3680 N.ar   80  G80        -0.2173
   1744  C8       -46.1160   74.3810  -11.5170 C.ar   80  G80         0.1817
   1745  N9       -45.6050   75.3650  -12.3120 N.ar   80  G80        -0.2693
   1746  OP1      -42.5250   71.3950   -8.1840 O.3    80  G80        -0.4373
   1747  OP2      -45.0560   71.4820   -8.4800 O.co2  80  G80        -0.5172
   1748  P        -42.4330   77.3500   -8.5910 P.3    81  C81         0.2141
   1749  C5'      -42.6920   79.6230   -9.8720 C.3    81  C81         0.1812
   1750  O5'      -43.3170   78.5250   -9.2290 O.3    81  C81        -0.3114
   1751  C4'      -43.6830   80.5680  -10.5090 C.3    81  C81         0.1773
   1752  O4'      -44.6750   79.8420  -11.2830 O.3    81  C81        -0.3307
   1753  C3'      -44.5390   81.4020   -9.5780 C.3    81  C81         0.1860
   1754  O3'      -43.8350   82.4540   -8.9370 O.3    81  C81        -0.3112
   1755  C2'      -45.6200   81.8880  -10.5300 C.3    81  C81         0.2309
   1756  O2'      -45.1110   82.9010  -11.3780 O.3    81  C81        -0.2156
   1757  C1'      -45.8550   80.6360  -11.3730 C.3    81  C81         0.2420
   1758  N1       -47.0140   79.8620  -10.8790 N.ar   81  C81        -0.2535
   1759  C2       -48.3420   80.3490  -11.0960 C.ar   81  C81         0.3532
   1760  O2       -48.5750   81.3970  -11.7240 O.2    81  C81        -0.2443
   1761  N3       -49.3980   79.6590  -10.6250 N.ar   81  C81        -0.1739
   1762  C4       -49.1560   78.5330   -9.9590 C.ar   81  C81         0.1759
   1763  N4       -50.2150   77.8660   -9.5090 N.pl3  81  C81        -0.1070
   1764  C5       -47.8340   78.0240   -9.7220 C.ar   81  C81         0.0566
   1765  C6       -46.7950   78.7170  -10.1870 C.ar   81  C81         0.0850
   1766  OP1      -41.1720   77.9060   -8.0430 O.2    81  C81        -0.5172
   1767  OP2      -43.2800   76.4950   -7.7110 O.co2  81  C81        -0.4373
   1768  P        -44.2810   82.9330   -7.4530 P.3    82  G82         0.2141
   1769  C5'      -45.5890   84.8010   -8.7330 C.3    82  G82         0.1812
   1770  O5'      -45.5840   83.7960   -7.7370 O.3    82  G82        -0.3114
   1771  C4'      -46.9890   85.2160   -9.0530 C.3    82  G82         0.1773
   1772  O4'      -47.7190   84.0810   -9.5730 O.3    82  G82        -0.3307
   1773  C3'      -47.8110   85.6810   -7.8670 C.3    82  G82         0.1860
   1774  O3'      -47.5610   87.0400   -7.5320 O.3    82  G82        -0.3112
   1775  C2'      -49.2430   85.4010   -8.3130 C.3    82  G82         0.2309
   1776  O2'      -49.7280   86.4430   -9.1520 O.3    82  G82        -0.2156
   1777  C1'      -49.0610   84.1410   -9.1650 C.3    82  G82         0.2408
   1778  N1       -52.5970   81.4330   -6.6900 N.ar   82  G82        -0.1709
   1779  C2       -52.6950   82.6670   -7.2620 C.ar   82  G82         0.2606
   1780  N2       -53.8910   83.2490   -7.1570 N.pl3  82  G82        -0.0859
   1781  N3       -51.7110   83.2830   -7.8800 N.ar   82  G82        -0.1918
   1782  C4       -50.5880   82.5370   -7.8790 C.ar   82  G82         0.1723
   1783  C5       -50.3880   81.2840   -7.3300 C.ar   82  G82         0.1748
   1784  C6       -51.4630   80.6390   -6.6640 C.ar   82  G82         0.3023
   1785  O6       -51.5050   79.5240   -6.1080 O.2    82  G82        -0.2633
   1786  N7       -49.0880   80.8620   -7.5500 N.ar   82  G82        -0.2173
   1787  C8       -48.5350   81.8500   -8.2060 C.ar   82  G82         0.1817
   1788  N9       -49.3800   82.9030   -8.4320 N.ar   82  G82        -0.2693
   1789  OP1      -43.2000   83.8080   -6.9300 O.2    82  G82        -0.5172
   1790  OP2      -44.6540   81.7010   -6.6750 O.co2  82  G82        -0.4373
   1791  P        -47.4710   87.4990   -5.9910 P.3    83  A83         0.2141
   1792  C5'      -49.9410   88.3310   -5.9680 C.3    83  A83         0.1812
   1793  O5'      -48.9810   87.3910   -5.5180 O.3    83  A83        -0.3114
   1794  C4'      -51.3190   87.9620   -5.5050 C.3    83  A83         0.1773
   1795  O4'      -51.7090   86.7060   -6.1180 O.3    83  A83        -0.3307
   1796  C3'      -51.4630   87.7210   -4.0120 C.3    83  A83         0.1860
   1797  O3'      -51.6800   88.9120   -3.2860 O.3    83  A83        -0.3112
   1798  C2'      -52.6130   86.7230   -3.9300 C.3    83  A83         0.2309
   1799  O2'      -53.8690   87.3710   -4.0820 O.3    83  A83        -0.2156
   1800  C1'      -52.3560   85.8820   -5.1740 C.3    83  A83         0.2408
   1801  N1       -51.8850   81.2690   -3.0420 N.ar   83  A83        -0.2040
   1802  C2       -52.9350   82.1020   -3.1380 C.ar   83  A83         0.2016
   1803  N3       -52.9910   83.3080   -3.7130 N.ar   83  A83        -0.2048
   1804  C4       -51.7900   83.6210   -4.2270 C.ar   83  A83         0.1692
   1805  C5       -50.6240   82.8790   -4.2080 C.ar   83  A83         0.1518
   1806  C6       -50.6800   81.6340   -3.5840 C.ar   83  A83         0.1919
   1807  N6       -49.5920   80.8450   -3.5190 N.pl3  83  A83        -0.1054
   1808  N7       -49.5860   83.5380   -4.8310 N.ar   83  A83        -0.2193
   1809  C8       -50.1390   84.6560   -5.2160 C.ar   83  A83         0.1816
   1810  N9       -51.4660   84.7550   -4.8880 N.ar   83  A83        -0.2693
   1811  OP1      -47.0370   88.9250   -5.9760 O.2    83  A83        -0.5172
   1812  OP2      -46.6430   86.5000   -5.2800 O.co2  83  A83        -0.4373
   1813  P        -51.0020   89.1090   -1.8400 P.3    84  G84         0.2141
   1814  C5'      -53.4160   88.7050   -0.9440 C.3    84  G84         0.1812
   1815  O5'      -52.0430   88.3900   -0.8760 O.3    84  G84        -0.3114
   1816  C4'      -54.2350   87.6710   -0.2400 C.3    84  G84         0.1773
   1817  O4'      -54.1560   86.4100   -0.9480 O.3    84  G84        -0.3307
   1818  C3'      -53.7880   87.3260    1.1610 C.3    84  G84         0.1860
   1819  O3'      -54.1790   88.2910    2.1140 O.3    84  G84        -0.3112
   1820  C2'      -54.4050   85.9470    1.3770 C.3    84  G84         0.2309
   1821  O2'      -55.7900   86.0560    1.6950 O.3    84  G84        -0.2156
   1822  C1'      -54.2760   85.3410   -0.0270 C.3    84  G84         0.2408
   1823  N1       -52.1630   80.7470    0.8800 N.ar   84  G84        -0.1709
   1824  C2       -53.3970   81.2300    1.2420 C.ar   84  G84         0.2606
   1825  N2       -54.1580   80.3660    1.9300 N.pl3  84  G84        -0.0859
   1826  N3       -53.8500   82.4500    0.9590 N.ar   84  G84        -0.1918
   1827  C4       -52.9400   83.1660    0.2670 C.ar   84  G84         0.1723
   1828  C5       -51.6730   82.7780   -0.1300 C.ar   84  G84         0.1748
   1829  C6       -51.2120   81.4670    0.1800 C.ar   84  G84         0.3023
   1830  O6       -50.1300   80.9300   -0.0810 O.2    84  G84        -0.2633
   1831  N7       -51.0430   83.8070   -0.8100 N.ar   84  G84        -0.2173
   1832  C8       -51.9220   84.7770   -0.8160 C.ar   84  G84         0.1817
   1833  N9       -53.0920   84.4640   -0.1680 N.ar   84  G84        -0.2693
   1834  OP1      -50.9750   90.5680   -1.5520 O.3    84  G84        -0.4373
   1835  OP2      -49.7110   88.3570   -1.8510 O.co2  84  G84        -0.5172
   1836  P        -53.1390   88.7480    3.2470 P.3    85  C85         0.2141
   1837  C5'      -54.5400   87.2300    4.8560 C.3    85  C85         0.1812
   1838  O5'      -53.2700   87.5700    4.3170 O.3    85  C85        -0.3114
   1839  C4'      -54.5370   85.8710    5.5030 C.3    85  C85         0.1773
   1840  O4'      -54.3830   84.8460    4.4960 O.3    85  C85        -0.3307
   1841  C3'      -53.4000   85.5760    6.4620 C.3    85  C85         0.1860
   1842  O3'      -53.5340   86.2000    7.7200 O.3    85  C85        -0.3112
   1843  C2'      -53.4360   84.0650    6.5300 C.3    85  C85         0.2309
   1844  O2'      -54.5240   83.6390    7.3220 O.3    85  C85        -0.2156
   1845  C1'      -53.7410   83.7210    5.0740 C.3    85  C85         0.2420
   1846  N1       -52.5170   83.4350    4.3210 N.ar   85  C85        -0.2535
   1847  C2       -51.9620   82.1500    4.3920 C.ar   85  C85         0.3532
   1848  O2       -52.5320   81.2790    5.0540 O.2    85  C85        -0.2443
   1849  N3       -50.8260   81.8900    3.7130 N.ar   85  C85        -0.1739
   1850  C4       -50.2650   82.8780    3.0050 C.ar   85  C85         0.1759
   1851  N4       -49.1470   82.6260    2.3340 N.pl3  85  C85        -0.1070
   1852  C5       -50.8020   84.1930    2.9370 C.ar   85  C85         0.0566
   1853  C6       -51.9260   84.4320    3.6090 C.ar   85  C85         0.0850
   1854  OP1      -53.6550   90.0250    3.8240 O.3    85  C85        -0.4373
   1855  OP2      -51.7720   88.7310    2.6370 O.co2  85  C85        -0.5172
   1856  P        -52.2190   86.7760    8.4510 P.3    86  A86         0.2141
   1857  C5'      -52.2770   84.5300    9.7810 C.3    86  A86         0.1812
   1858  O5'      -51.5260   85.4500    9.0070 O.3    86  A86        -0.3114
   1859  C4'      -51.5380   83.2360    9.9930 C.3    86  A86         0.1773
   1860  O4'      -51.4190   82.5170    8.7450 O.3    86  A86        -0.3307
   1861  C3'      -50.1110   83.3540   10.4810 C.3    86  A86         0.1860
   1862  O3'      -50.0270   83.6150   11.8640 O.3    86  A86        -0.3112
   1863  C2'      -49.5170   82.0120   10.0810 C.3    86  A86         0.2309
   1864  O2'      -49.8960   80.9990   11.0060 O.3    86  A86        -0.2156
   1865  C1'      -50.2320   81.7500    8.7550 C.3    86  A86         0.2408
   1866  N1       -46.4640   80.3030    5.5840 N.ar   86  A86        -0.2040
   1867  C2       -47.0430   79.7050    6.6400 C.ar   86  A86         0.2016
   1868  N3       -48.0260   80.1390    7.4320 N.ar   86  A86        -0.2048
   1869  C4       -48.4280   81.3600    7.0380 C.ar   86  A86         0.1692
   1870  C5       -47.9330   82.1050    5.9770 C.ar   86  A86         0.1518
   1871  C6       -46.8920   81.5320    5.2180 C.ar   86  A86         0.1919
   1872  N6       -46.3190   82.1240    4.1710 N.pl3  86  A86        -0.1054
   1873  N7       -48.5970   83.3170    5.8760 N.ar   86  A86        -0.2193
   1874  C8       -49.4650   83.2810    6.8580 C.ar   86  A86         0.1816
   1875  N9       -49.4100   82.1290    7.5950 N.ar   86  A86        -0.2693
   1876  OP1      -52.6760   87.6250    9.5890 O.3    86  A86        -0.4373
   1877  OP2      -51.3760   87.4010    7.3860 O.co2  86  A86        -0.5172
   1878  P        -48.9860   84.7080   12.4090 P.3    87  G87         0.2141
   1879  C5'      -47.4210   82.9280   13.5280 C.3    87  G87         0.1812
   1880  O5'      -47.6210   83.8790   12.4970 O.3    87  G87        -0.3114
   1881  C4'      -46.4790   81.8380   13.1000 C.3    87  G87         0.1773
   1882  O4'      -46.8220   81.3850   11.7700 O.3    87  G87        -0.3307
   1883  C3'      -45.0280   82.2280   12.9540 C.3    87  G87         0.1860
   1884  O3'      -44.3510   82.3790   14.1830 O.3    87  G87        -0.3112
   1885  C2'      -44.4890   81.1090   12.0760 C.3    87  G87         0.2309
   1886  O2'      -44.3420   79.9070   12.8110 O.3    87  G87        -0.2156
   1887  C1'      -45.6500   80.9340   11.1120 C.3    87  G87         0.2408
   1888  N1       -43.0120   81.0950    6.9000 N.ar   87  G87        -0.1709
   1889  C2       -43.0050   80.1910    7.9170 C.ar   87  G87         0.2606
   1890  N2       -42.1600   79.1610    7.7900 N.pl3  87  G87        -0.0859
   1891  N3       -43.7660   80.2830    8.9820 N.ar   87  G87        -0.1918
   1892  C4       -44.5470   81.3730    8.9320 C.ar   87  G87         0.1723
   1893  C5       -44.6420   82.3330    7.9680 C.ar   87  G87         0.1748
   1894  C6       -43.8140   82.2170    6.8340 C.ar   87  G87         0.3023
   1895  O6       -43.7390   82.9670    5.8550 O.2    87  G87        -0.2633
   1896  N7       -45.5870   83.2830    8.3130 N.ar   87  G87        -0.2173
   1897  C8       -46.0390   82.8810    9.4740 C.ar   87  G87         0.1817
   1898  N9       -45.4520   81.7220    9.8880 N.ar   87  G87        -0.2693
   1899  OP1      -49.4370   85.0940   13.7730 O.3    87  G87        -0.4373
   1900  OP2      -48.8710   85.7690   11.3650 O.co2  87  G87        -0.5172
   1901  P        -43.3210   83.5980   14.3590 P.3    88  A88         0.2141
   1902  C5'      -41.4730   81.7560   14.0540 C.3    88  A88         0.1812
   1903  O5'      -41.9840   83.0280   13.6890 O.3    88  A88        -0.3114
   1904  C4'      -40.5000   81.2150   13.0270 C.3    88  A88         0.1773
   1905  O4'      -41.1820   80.9540   11.7730 O.3    88  A88        -0.3307
   1906  C3'      -39.3690   82.1320   12.6080 C.3    88  A88         0.1860
   1907  O3'      -38.3440   82.2390   13.5670 O.3    88  A88        -0.3112
   1908  C2'      -38.9240   81.5000   11.2960 C.3    88  A88         0.2309
   1909  O2'      -38.2180   80.2880   11.5280 O.3    88  A88        -0.2156
   1910  C1'      -40.2760   81.1540   10.6940 C.3    88  A88         0.2408
   1911  N1       -39.6950   83.5960    6.2530 N.ar   88  A88        -0.2040
   1912  C2       -39.0660   82.5530    6.8020 C.ar   88  A88         0.2016
   1913  N3       -39.2750   81.9650    7.9810 N.ar   88  A88        -0.2048
   1914  C4       -40.2760   82.5760    8.6300 C.ar   88  A88         0.1692
   1915  C5       -41.0200   83.6520    8.2000 C.ar   88  A88         0.1518
   1916  C6       -40.7020   84.1810    6.9410 C.ar   88  A88         0.1919
   1917  N6       -41.3430   85.2210    6.4010 N.pl3  88  A88        -0.1054
   1918  N7       -41.9700   84.0040    9.1450 N.ar   88  A88        -0.2193
   1919  C8       -41.7830   83.1390   10.1100 C.ar   88  A88         0.1816
   1920  N9       -40.7790   82.2470    9.8500 N.ar   88  A88        -0.2693
   1921  OP1      -43.1250   83.7960   15.8140 O.3    88  A88        -0.4373
   1922  OP2      -43.8440   84.7290   13.5480 O.co2  88  A88        -0.5172
   1923  P        -37.5380   83.6210   13.7210 P.3    89  G89         0.2141
   1924  C5'      -35.6600   82.5980   12.2140 C.3    89  G89         0.1812
   1925  O5'      -36.6110   83.6260   12.4260 O.3    89  G89        -0.3114
   1926  C4'      -34.9670   82.7710   10.8930 C.3    89  G89         0.1773
   1927  O4'      -35.9210   82.6290    9.8120 O.3    89  G89        -0.3307
   1928  C3'      -34.3510   84.1360   10.6480 C.3    89  G89         0.1860
   1929  O3'      -33.1040   84.2860   11.2870 O.3    89  G89        -0.3112
   1930  C2'      -34.2750   84.1960    9.1280 C.3    89  G89         0.2309
   1931  O2'      -33.1890   83.4140    8.6450 O.3    89  G89        -0.2156
   1932  C1'      -35.5750   83.5010    8.7490 C.3    89  G89         0.2408
   1933  N1       -37.5800   86.9450    5.6930 N.ar   89  G89        -0.1709
   1934  C2       -36.4460   86.1960    5.5440 C.ar   89  G89         0.2606
   1935  N2       -35.7800   86.4130    4.4090 N.pl3  89  G89        -0.0859
   1936  N3       -36.0210   85.3100    6.4300 N.ar   89  G89        -0.1918
   1937  C4       -36.8440   85.2580    7.4910 C.ar   89  G89         0.1723
   1938  C5       -38.0030   85.9580    7.7460 C.ar   89  G89         0.1748
   1939  C6       -38.4480   86.8980    6.7790 C.ar   89  G89         0.3023
   1940  O6       -39.4450   87.6360    6.7870 O.2    89  G89        -0.2633
   1941  N7       -38.5440   85.5850    8.9700 N.ar   89  G89        -0.2173
   1942  C8       -37.7150   84.6870    9.4250 C.ar   89  G89         0.1817
   1943  N9       -36.6710   84.4570    8.5690 N.ar   89  G89        -0.2693
   1944  OP1      -36.7070   83.4940   14.9440 O.3    89  G89        -0.4373
   1945  OP2      -38.5260   84.7340   13.6440 O.co2  89  G89        -0.5172
   1946  P        -32.7030   85.6820   11.9610 P.3    90  U90         0.2141
   1947  C5'      -31.6140   86.2930    9.6980 C.3    90  U90         0.1812
   1948  O5'      -32.5490   86.6230   10.6960 O.3    90  U90        -0.3114
   1949  C4'      -31.7220   87.2070    8.5210 C.3    90  U90         0.1773
   1950  O4'      -33.0050   87.0460    7.8840 O.3    90  U90        -0.3307
   1951  C3'      -31.6480   88.6880    8.8170 C.3    90  U90         0.1860
   1952  O3'      -30.3190   89.1200    9.0330 O.3    90  U90        -0.3112
   1953  C2'      -32.2900   89.2920    7.5730 C.3    90  U90         0.2309
   1954  O2'      -31.3590   89.3330    6.4950 O.3    90  U90        -0.2156
   1955  C1'      -33.3680   88.2460    7.2490 C.3    90  U90         0.2420
   1956  N1       -34.6770   88.6390    7.7410 N.ar   90  U90        -0.2534
   1957  C2       -35.3990   89.4200    6.8910 C.ar   90  U90         0.3546
   1958  O2       -34.9580   89.7390    5.7930 O.2    90  U90        -0.2443
   1959  N3       -36.6290   89.7850    7.4010 N.ar   90  U90        -0.1530
   1960  C4       -37.1610   89.4300    8.6310 C.ar   90  U90         0.2846
   1961  O4       -38.2770   89.8280    8.9390 O.2    90  U90        -0.2650
   1962  C5       -36.3310   88.6090    9.4450 C.ar   90  U90         0.0814
   1963  C6       -35.1320   88.2530    8.9790 C.ar   90  U90         0.0870
   1964  OP1      -31.3670   85.4700   12.6080 O.2    90  U90        -0.5172
   1965  OP2      -33.8600   86.1330   12.8060 O.co2  90  U90        -0.4373
   1966  P        -29.9390   89.9560   10.3490 P.3    91  U91         0.2141
   1967  C5'      -29.4790   92.5010    9.9320 C.3    91  U91         0.1812
   1968  O5'      -29.0980   91.1550    9.7240 O.3    91  U91        -0.3114
   1969  C4'      -28.6920   93.1270   11.0510 C.3    91  U91         0.1773
   1970  O4'      -29.1330   94.4940   11.1750 O.3    91  U91        -0.3307
   1971  C3'      -28.8890   92.4600   12.4130 C.3    91  U91         0.1860
   1972  O3'      -27.6310   92.0310   13.0360 O.3    91  U91        -0.3112
   1973  C2'      -29.7080   93.4600   13.2560 C.3    91  U91         0.2309
   1974  O2'      -29.1930   93.7530   14.5320 O.3    91  U91        -0.2156
   1975  C1'      -29.8140   94.7190   12.3930 C.3    91  U91         0.2420
   1976  N1       -31.2240   95.0640   12.0730 N.ar   91  U91        -0.2534
   1977  C2       -31.7730   96.2590   12.4970 C.ar   91  U91         0.3546
   1978  O2       -31.1490   97.1110   13.0880 O.2    91  U91        -0.2443
   1979  N3       -33.0870   96.4620   12.1920 N.ar   91  U91        -0.1530
   1980  C4       -33.9210   95.5920   11.5350 C.ar   91  U91         0.2846
   1981  O4       -35.0900   95.9210   11.3390 O.2    91  U91        -0.2650
   1982  C5       -33.3030   94.3660   11.1390 C.ar   91  U91         0.0814
   1983  C6       -32.0170   94.1530   11.4240 C.ar   91  U91         0.0870
   1984  OP1      -29.0580   89.0990   11.1940 O.3    91  U91        -0.4373
   1985  OP2      -31.2030   90.4630   10.9350 O.co2  91  U91        -0.5172
   1986  P        -26.5080   93.0390   13.6250 P.3    92  C92         0.2141
   1987  C5'      -26.8000   92.6540   16.2020 C.3    92  C92         0.1812
   1988  O5'      -27.0920   93.4360   15.0550 O.3    92  C92        -0.3114
   1989  C4'      -27.3070   93.3120   17.4630 C.3    92  C92         0.1773
   1990  O4'      -26.7940   94.6670   17.5540 O.3    92  C92        -0.3307
   1991  C3'      -28.8140   93.4950   17.5670 C.3    92  C92         0.1860
   1992  O3'      -29.4930   92.3280   17.9560 O.3    92  C92        -0.3112
   1993  C2'      -28.9460   94.6320   18.5670 C.3    92  C92         0.2309
   1994  O2'      -28.7270   94.1720   19.8980 O.3    92  C92        -0.2156
   1995  C1'      -27.7670   95.5110   18.1570 C.3    92  C92         0.2420
   1996  N1       -28.1700   96.5430   17.1780 N.ar   92  C92        -0.2535
   1997  C2       -29.0620   97.5350   17.5820 C.ar   92  C92         0.3532
   1998  O2       -29.4810   97.5250   18.7520 O.2    92  C92        -0.2443
   1999  N3       -29.4410   98.4830   16.6880 N.ar   92  C92        -0.1739
   2000  C4       -28.9670   98.4660   15.4410 C.ar   92  C92         0.1759
   2001  N4       -29.3660   99.4140   14.5880 N.pl3  92  C92        -0.1070
   2002  C5       -28.0560   97.4640   15.0120 C.ar   92  C92         0.0566
   2003  C6       -27.6900   96.5310   15.9020 C.ar   92  C92         0.0850
   2004  OP1      -26.4600   94.2240   12.7350 O.2    92  C92        -0.5172
   2005  OP2      -25.2740   92.2480   13.8110 O.co2  92  C92        -0.4373
   2006  P        -30.9990   92.1030   17.4880 P.3    93  C93         0.2141
   2007  C5'      -32.3170   93.1090   19.5170 C.3    93  C93         0.1812
   2008  O5'      -31.7810   93.2960   18.2090 O.3    93  C93        -0.3114
   2009  C4'      -33.3420   94.1660   19.8890 C.3    93  C93         0.1773
   2010  O4'      -32.7650   95.4820   19.7470 O.3    93  C93        -0.3307
   2011  C3'      -34.6040   94.2350   19.0410 C.3    93  C93         0.1860
   2012  O3'      -35.5640   93.2620   19.3880 O.3    93  C93        -0.3112
   2013  C2'      -35.0870   95.6500   19.2910 C.3    93  C93         0.2309
   2014  O2'      -35.7440   95.7370   20.5450 O.3    93  C93        -0.2156
   2015  C1'      -33.7690   96.4030   19.3870 C.3    93  C93         0.2420
   2016  N1       -33.4020   97.0140   18.1150 N.ar   93  C93        -0.2535
   2017  C2       -33.9990   98.2440   17.8700 C.ar   93  C93         0.3532
   2018  O2       -34.7780   98.6970   18.7250 O.2    93  C93        -0.2443
   2019  N3       -33.7190   98.9070   16.7310 N.ar   93  C93        -0.1739
   2020  C4       -32.8750   98.3590   15.8630 C.ar   93  C93         0.1759
   2021  N4       -32.6370   99.0530   14.7490 N.pl3  93  C93        -0.1070
   2022  C5       -32.2460   97.0930   16.1020 C.ar   93  C93         0.0566
   2023  C6       -32.5320   96.4440   17.2370 C.ar   93  C93         0.0850
   2024  OP1      -31.4380   90.8030   18.0600 O.3    93  C93        -0.4373
   2025  OP2      -31.0240   92.2780   16.0170 O.co2  93  C93        -0.5172
   2026  P        -36.5920   92.7190   18.2750 P.3    94  U94         0.2141
   2027  C5'      -38.4340   94.3550   19.1930 C.3    94  U94         0.1812
   2028  O5'      -37.6310   93.9190   18.1080 O.3    94  U94        -0.3114
   2029  C4'      -39.2750   95.5460   18.8030 C.3    94  U94         0.1773
   2030  O4'      -38.4350   96.7210   18.6520 O.3    94  U94        -0.3307
   2031  C3'      -39.9910   95.4420   17.4690 C.3    94  U94         0.1860
   2032  O3'      -41.1680   94.6710   17.5290 O.3    94  U94        -0.3112
   2033  C2'      -40.2360   96.8970   17.1060 C.3    94  U94         0.2309
   2034  O2'      -41.3580   97.4130   17.8100 O.3    94  U94        -0.2156
   2035  C1'      -38.9700   97.5610   17.6450 C.3    94  U94         0.2420
   2036  N1       -37.9600   97.7410   16.5840 N.ar   94  U94        -0.2534
   2037  C2       -38.1970   98.7700   15.6950 C.ar   94  U94         0.3546
   2038  O2       -39.1630   99.5090   15.7750 O.2    94  U94        -0.2443
   2039  N3       -37.2590   98.9150   14.7050 N.ar   94  U94        -0.1530
   2040  C4       -36.1310   98.1490   14.5100 C.ar   94  U94         0.2846
   2041  O4       -35.3820   98.4210   13.5710 O.2    94  U94        -0.2650
   2042  C5       -35.9600   97.0920   15.4620 C.ar   94  U94         0.0814
   2043  C6       -36.8590   96.9260   16.4430 C.ar   94  U94         0.0870
   2044  OP1      -37.2690   91.5350   18.8660 O.3    94  U94        -0.4373
   2045  OP2      -35.8210   92.5530   17.0110 O.co2  94  U94        -0.5172
   2046  P        -41.7530   94.0040   16.1970 P.3    95  C95         0.2141
   2047  C5'      -43.3890   96.0050   15.8210 C.3    95  C95         0.1812
   2048  O5'      -42.2650   95.2620   15.3720 O.3    95  C95        -0.3114
   2049  C4'      -43.8060   97.0460   14.8160 C.3    95  C95         0.1773
   2050  O4'      -42.7970   98.0810   14.7410 O.3    95  C95        -0.3307
   2051  C3'      -43.9540   96.5640   13.3830 C.3    95  C95         0.1860
   2052  O3'      -45.1940   95.9140   13.1380 O.3    95  C95        -0.3112
   2053  C2'      -43.7550   97.8480   12.5830 C.3    95  C95         0.2309
   2054  O2'      -44.9320   98.6380   12.5920 O.3    95  C95        -0.2156
   2055  C1'      -42.6970   98.5610   13.4170 C.3    95  C95         0.2420
   2056  N1       -41.3290   98.3000   12.9190 N.ar   95  C95        -0.2535
   2057  C2       -40.8610   99.0740   11.8510 C.ar   95  C95         0.3532
   2058  O2       -41.5960   99.9410   11.3530 O.2    95  C95        -0.2443
   2059  N3       -39.6110   98.8560   11.3870 N.ar   95  C95        -0.1739
   2060  C4       -38.8420   97.9110   11.9420 C.ar   95  C95         0.1759
   2061  N4       -37.6200   97.7320   11.4440 N.pl3  95  C95        -0.1070
   2062  C5       -39.2890   97.1050   13.0260 C.ar   95  C95         0.0566
   2063  C6       -40.5290   97.3330   13.4800 C.ar   95  C95         0.0850
   2064  OP1      -42.9030   93.1600   16.6020 O.3    95  C95        -0.4373
   2065  OP2      -40.6130   93.3700   15.4920 O.co2  95  C95        -0.5172
   2066  P        -45.3070   94.7800   11.9930 P.3    96  C96         0.2141
   2067  C5'      -46.2550   96.6860   10.4410 C.3    96  C96         0.1812
   2068  O5'      -45.3110   95.6400   10.6430 O.3    96  C96        -0.3114
   2069  C4'      -45.9170   97.5140    9.2240 C.3    96  C96         0.1773
   2070  O4'      -44.7430   98.3260    9.4850 O.3    96  C96        -0.3307
   2071  C3'      -45.5420   96.7410    7.9740 C.3    96  C96         0.1860
   2072  O3'      -46.6510   96.2080    7.2810 O.3    96  C96        -0.3112
   2073  C2'      -44.7530   97.7630    7.1730 C.3    96  C96         0.2309
   2074  O2'      -45.6190   98.6840    6.5300 O.3    96  C96        -0.2156
   2075  C1'      -44.0030   98.4920    8.2870 C.3    96  C96         0.2420
   2076  N1       -42.6450   97.9350    8.4780 N.ar   96  C96        -0.2535
   2077  C2       -41.6590   98.2970    7.5480 C.ar   96  C96         0.3532
   2078  O2       -41.9470   99.0820    6.6310 O.2    96  C96        -0.2443
   2079  N3       -40.4090   97.8020    7.6660 N.ar   96  C96        -0.1739
   2080  C4       -40.1300   96.9690    8.6630 C.ar   96  C96         0.1759
   2081  N4       -38.8830   96.5080    8.7440 N.pl3  96  C96        -0.1070
   2082  C5       -41.1120   96.5690    9.6170 C.ar   96  C96         0.0566
   2083  C6       -42.3490   97.0650    9.4890 C.ar   96  C96         0.0850
   2084  OP1      -46.6160   94.1100   12.1690 O.3    96  C96        -0.4373
   2085  OP2      -44.0710   93.9530   12.0650 O.co2  96  C96        -0.5172
   2086  P        -46.5140   94.7820    6.5570 P.3    97  C97         0.2141
   2087  C5'      -46.0060   95.7240    4.1610 C.3    97  C97         0.1812
   2088  O5'      -45.5240   95.1010    5.3410 O.3    97  C97        -0.3114
   2089  C4'      -44.8890   96.2910    3.3140 C.3    97  C97         0.1773
   2090  O4'      -43.9010   96.9410    4.1530 O.3    97  C97        -0.3307
   2091  C3'      -44.0620   95.2980    2.5160 C.3    97  C97         0.1860
   2092  O3'      -44.7140   94.8150    1.3610 O.3    97  C97        -0.3112
   2093  C2'      -42.8050   96.0990    2.2160 C.3    97  C97         0.2309
   2094  O2'      -43.0420   97.0440    1.1820 O.3    97  C97        -0.2156
   2095  C1'      -42.6240   96.8530    3.5330 C.3    97  C97         0.2420
   2096  N1       -41.7070   96.1380    4.4370 N.ar   97  C97        -0.2535
   2097  C2       -40.3420   96.1560    4.1420 C.ar   97  C97         0.3532
   2098  O2       -39.9300   96.7890    3.1580 O.2    97  C97        -0.2443
   2099  N3       -39.5020   95.4800    4.9520 N.ar   97  C97        -0.1739
   2100  C4       -39.9840   94.8040    6.0050 C.ar   97  C97         0.1759
   2101  N4       -39.1210   94.1480    6.7860 N.pl3  97  C97        -0.1070
   2102  C5       -41.3730   94.7620    6.3160 C.ar   97  C97         0.0566
   2103  C6       -42.1900   95.4380    5.5050 C.ar   97  C97         0.0850
   2104  OP1      -47.8560   94.4150    6.0330 O.2    97  C97        -0.5172
   2105  OP2      -45.8550   93.8700    7.5320 O.co2  97  C97        -0.4373
   2106  P        -44.6780   93.2410    1.0330 P.3    98  G98         0.2141
   2107  C5'      -42.7520   93.9260   -0.6200 C.3    98  G98         0.1812
   2108  O5'      -43.2180   93.0500    0.3990 O.3    98  G98        -0.3114
   2109  C4'      -41.2510   93.8530   -0.7960 C.3    98  G98         0.1773
   2110  O4'      -40.5740   94.3300    0.3930 O.3    98  G98        -0.3307
   2111  C3'      -40.6640   92.4760   -1.0080 C.3    98  G98         0.1860
   2112  O3'      -40.8550   91.9930   -2.3180 O.3    98  G98        -0.3112
   2113  C2'      -39.2010   92.6850   -0.6400 C.3    98  G98         0.2309
   2114  O2'      -38.5040   93.3290   -1.6970 O.3    98  G98        -0.2156
   2115  C1'      -39.3280   93.6680    0.5220 C.3    98  G98         0.2408
   2116  N1       -36.5060   91.3200    4.1050 N.ar   98  G98        -0.1709
   2117  C2       -36.0970   91.8260    2.8900 C.ar   98  G98         0.2606
   2118  N2       -34.7870   91.6810    2.6240 N.pl3  98  G98        -0.0859
   2119  N3       -36.9100   92.4190    2.0200 N.ar   98  G98        -0.1918
   2120  C4       -38.1850   92.4610    2.4800 C.ar   98  G98         0.1723
   2121  C5       -38.6810   91.9790    3.6790 C.ar   98  G98         0.1748
   2122  C6       -37.8060   91.3480    4.6050 C.ar   98  G98         0.3023
   2123  O6       -38.0730   90.8620    5.7180 O.2    98  G98        -0.2633
   2124  N7       -40.0430   92.2100    3.7740 N.ar   98  G98        -0.2173
   2125  C8       -40.3520   92.8170    2.6650 C.ar   98  G98         0.1817
   2126  N9       -39.2840   92.9960    1.8340 N.ar   98  G98        -0.2693
   2127  OP1      -45.7230   92.9870   -0.0050 O.2    98  G98        -0.5172
   2128  OP2      -44.7730   92.5180    2.3500 O.co2  98  G98        -0.4373
   2129  P        -41.1600   90.4390   -2.5490 P.3    99  C99         0.2141
   2130  C5'      -38.6560   89.9110   -3.0210 C.3    99  C99         0.1812
   2131  O5'      -39.7770   89.7660   -2.1690 O.3    99  C99        -0.3114
   2132  C4'      -37.4210   89.3350   -2.3940 C.3    99  C99         0.1773
   2133  O4'      -37.1410   90.0360   -1.1590 O.3    99  C99        -0.3307
   2134  C3'      -37.5090   87.8790   -1.9560 C.3    99  C99         0.1860
   2135  O3'      -37.3530   86.9550   -3.0180 O.3    99  C99        -0.3112
   2136  C2'      -36.4120   87.7990   -0.9150 C.3    99  C99         0.2309
   2137  O2'      -35.1350   87.8020   -1.5400 O.3    99  C99        -0.2156
   2138  C1'      -36.5950   89.1360   -0.2170 C.3    99  C99         0.2420
   2139  N1       -37.5130   89.0290    0.9070 N.ar   99  C99        -0.2535
   2140  C2       -36.9470   88.5400    2.0780 C.ar   99  C99         0.3532
   2141  O2       -35.7410   88.2440    2.0780 O.2    99  C99        -0.2443
   2142  N3       -37.7370   88.4170    3.1730 N.ar   99  C99        -0.1739
   2143  C4       -39.0270   88.7570    3.1030 C.ar   99  C99         0.1759
   2144  N4       -39.7520   88.6140    4.2080 N.pl3  99  C99        -0.1070
   2145  C5       -39.6140   89.2570    1.9080 C.ar   99  C99         0.0566
   2146  C6       -38.8310   89.3760    0.8310 C.ar   99  C99         0.0850
   2147  OP1      -41.4290   90.2550   -4.0070 O.2    99  C99        -0.5172
   2148  OP2      -42.2070   90.0440   -1.5630 O.co2  99  C99        -0.4373
   2149  P        -38.1350   85.5520   -2.9740 P.3   100  U100        0.2141
   2150  C5'      -36.1150   84.3430   -1.8250 C.3   100  U100        0.1812
   2151  O5'      -37.4510   84.8000   -1.7440 O.3   100  U100       -0.3114
   2152  C4'      -35.7310   83.5700   -0.5960 C.3   100  U100        0.1773
   2153  O4'      -35.8020   84.4330    0.5610 O.3   100  U100       -0.3307
   2154  C3'      -36.6360   82.4100   -0.2350 C.3   100  U100        0.1860
   2155  O3'      -36.3770   81.2490   -0.9930 O.3   100  U100       -0.3112
   2156  C2'      -36.3750   82.2340    1.2500 C.3   100  U100        0.2309
   2157  O2'      -35.1680   81.5230    1.4680 O.3   100  U100       -0.2156
   2158  C1'      -36.1750   83.6840    1.6960 C.3   100  U100        0.2420
   2159  N1       -37.4120   84.2500    2.2430 N.ar  100  U100       -0.2534
   2160  C2       -37.7580   83.8510    3.5190 C.ar  100  U100        0.3546
   2161  O2       -37.0740   83.1050    4.1960 O.2   100  U100       -0.2443
   2162  N3       -38.9340   84.3660    3.9880 N.ar  100  U100       -0.1530
   2163  C4       -39.7830   85.2260    3.3090 C.ar  100  U100        0.2846
   2164  O4       -40.8160   85.6120    3.8650 O.2   100  U100       -0.2650
   2165  C5       -39.3560   85.5840    1.9840 C.ar  100  U100        0.0814
   2166  C6       -38.2070   85.0880    1.4990 C.ar  100  U100        0.0870
   2167  OP1      -37.8210   84.8490   -4.2500 O.2   100  U100       -0.5172
   2168  OP2      -39.5610   85.8510   -2.6480 O.co2 100  U100       -0.4373
   2169  P        -37.5970   80.3060   -1.4440 P.3   101  C101        0.2141
   2170  C5'      -36.9030   78.6330    0.4290 C.3   101  C101        0.1812
   2171  O5'      -37.8960   79.4860   -0.1100 O.3   101  C101       -0.3114
   2172  C4'      -37.2560   78.1580    1.8120 C.3   101  C101        0.1773
   2173  O4'      -37.3860   79.2840    2.7150 O.3   101  C101       -0.3307
   2174  C3'      -38.5800   77.4340    1.9750 C.3   101  C101        0.1860
   2175  O3'      -38.5660   76.1060    1.4800 O.3   101  C101       -0.3112
   2176  C2'      -38.7860   77.5160    3.4770 C.3   101  C101        0.2309
   2177  O2'      -37.9370   76.5920    4.1430 O.3   101  C101       -0.2156
   2178  C1'      -38.2760   78.9330    3.7620 C.3   101  C101        0.2420
   2179  N1       -39.3710   79.9130    3.7940 N.ar  101  C101       -0.2535
   2180  C2       -40.2410   79.9820    4.9080 C.ar  101  C101        0.3532
   2181  O2       -40.0780   79.2200    5.8870 O.2   101  C101       -0.2443
   2182  N3       -41.2450   80.9010    4.8760 N.ar  101  C101       -0.1739
   2183  C4       -41.3940   81.7030    3.8120 C.ar  101  C101        0.1759
   2184  N4       -42.3790   82.5950    3.8070 N.pl3 101  C101       -0.1070
   2185  C5       -40.5270   81.6430    2.6860 C.ar  101  C101        0.0566
   2186  C6       -39.5340   80.7360    2.7130 C.ar  101  C101        0.0850
   2187  OP1      -37.0780   79.3860   -2.5080 O.2   101  C101       -0.5172
   2188  OP2      -38.7460   81.2040   -1.7690 O.co2 101  C101       -0.4373
   2189  P        -39.8170   75.5660    0.6340 P.3   102  U102        0.2141
   2190  C5'      -40.4090   74.3910    2.8850 C.3   102  U102        0.1812
   2191  O5'      -40.8420   75.1610    1.7750 O.3   102  U102       -0.3114
   2192  C4'      -41.3640   74.4990    4.0410 C.3   102  U102        0.1773
   2193  O4'      -41.3170   75.8370    4.5930 O.3   102  U102       -0.3307
   2194  C3'      -42.8290   74.2990    3.7100 C.3   102  U102        0.1860
   2195  O3'      -43.1790   72.9460    3.5700 O.3   102  U102       -0.3112
   2196  C2'      -43.5250   74.9950    4.8680 C.3   102  U102        0.2309
   2197  O2'      -43.4930   74.1840    6.0370 O.3   102  U102       -0.2156
   2198  C1'      -42.5980   76.1960    5.0790 C.3   102  U102        0.2420
   2199  N1       -43.0600   77.3660    4.3340 N.ar  102  U102       -0.2534
   2200  C2       -44.0470   78.1200    4.9230 C.ar  102  U102        0.3546
   2201  O2       -44.5000   77.8580    6.0250 O.2   102  U102       -0.2443
   2202  N3       -44.4540   79.1940    4.1590 N.ar  102  U102       -0.1530
   2203  C4       -43.9770   79.5540    2.9010 C.ar  102  U102        0.2846
   2204  O4       -44.4370   80.5400    2.3210 O.2   102  U102       -0.2650
   2205  C5       -42.9620   78.7020    2.3680 C.ar  102  U102        0.0814
   2206  C6       -42.5500   77.6590    3.0880 C.ar  102  U102        0.0870
   2207  OP1      -39.3670   74.3580   -0.1000 O.3   102  U102       -0.4373
   2208  OP2      -40.3520   76.7240   -0.1380 O.co2 102  U102       -0.5172
   2209  P        -44.3030   72.5270    2.5130 P.3   103  G103        0.2141
   2210  C5'      -46.1110   71.9820    4.3090 C.3   103  G103        0.1812
   2211  O5'      -45.6500   72.8520    3.2920 O.3   103  G103       -0.3114
   2212  C4'      -47.3420   72.5210    4.9860 C.3   103  G103        0.1773
   2213  O4'      -47.0740   73.8290    5.5540 O.3   103  G103       -0.3307
   2214  C3'      -48.5430   72.7560    4.1010 C.3   103  G103        0.1860
   2215  O3'      -49.2350   71.5650    3.8010 O.3   103  G103       -0.3112
   2216  C2'      -49.3490   73.7300    4.9350 C.3   103  G103        0.2309
   2217  O2'      -49.9600   73.0480    6.0240 O.3   103  G103       -0.2156
   2218  C1'      -48.2390   74.6160    5.4910 C.3   103  G103        0.2408
   2219  N1       -49.5380   79.3520    4.0800 N.ar  103  G103       -0.1709
   2220  C2       -50.1100   78.5190    5.0050 C.ar  103  G103        0.2606
   2221  N2       -51.1850   78.9910    5.6470 N.pl3 103  G103       -0.0859
   2222  N3       -49.6980   77.3010    5.2950 N.ar  103  G103       -0.1918
   2223  C4       -48.6250   76.9680    4.5670 C.ar  103  G103        0.1723
   2224  C5       -47.9710   77.7210    3.6200 C.ar  103  G103        0.1748
   2225  C6       -48.4340   79.0250    3.3190 C.ar  103  G103        0.3023
   2226  O6       -47.9770   79.8410    2.5020 O.2   103  G103       -0.2633
   2227  N7       -46.9080   77.0070    3.0920 N.ar  103  G103       -0.2173
   2228  C8       -46.9370   75.8620    3.7170 C.ar  103  G103        0.1817
   2229  N9       -47.9610   75.7680    4.6240 N.ar  103  G103       -0.2693
   2230  OP1      -44.1800   71.0530    2.3090 O.3   103  G103       -0.4373
   2231  OP2      -44.1590   73.4380    1.3370 O.co2 103  G103       -0.5172
   2232  P        -50.0050   71.4030    2.3970 P.3   104  C104        0.2141
   2233  C5'      -52.2290   72.0080    3.6390 C.3   104  C104        0.1812
   2234  O5'      -51.3030   72.3090    2.6100 O.3   104  C104       -0.3114
   2235  C4'      -53.2020   73.1310    3.8490 C.3   104  C104        0.1773
   2236  O4'      -52.4850   74.3300    4.2330 O.3   104  C104       -0.3307
   2237  C3'      -53.9950   73.5600    2.6300 C.3   104  C104        0.1860
   2238  O3'      -55.0890   72.7180    2.3580 O.3   104  C104       -0.3112
   2239  C2'      -54.3960   74.9770    2.9860 C.3   104  C104        0.2309
   2240  O2'      -55.4550   74.9660    3.9240 O.3   104  C104       -0.2156
   2241  C1'      -53.1290   75.4670    3.6860 C.3   104  C104        0.2420
   2242  N1       -52.2030   76.1160    2.7370 N.ar  104  C104       -0.2535
   2243  C2       -52.4960   77.4100    2.3360 C.ar  104  C104        0.3532
   2244  O2       -53.4920   77.9620    2.8140 O.2   104  C104       -0.2443
   2245  N3       -51.6850   78.0350    1.4530 N.ar  104  C104       -0.1739
   2246  C4       -50.6260   77.3910    0.9700 C.ar  104  C104        0.1759
   2247  N4       -49.8470   78.0330    0.1070 N.pl3 104  C104       -0.1070
   2248  C5       -50.3070   76.0620    1.3470 C.ar  104  C104        0.0566
   2249  C6       -51.1170   75.4640    2.2250 C.ar  104  C104        0.0850
   2250  OP1      -50.3970   69.9670    2.2860 O.3   104  C104       -0.4373
   2251  OP2      -49.1330   71.9960    1.3350 O.co2 104  C104       -0.5172
   2252  P        -55.5830   72.5000    0.8410 P.3   105  U105        0.2141
   2253  C5'      -57.2400   74.5020    1.1240 C.3   105  U105        0.1812
   2254  O5'      -56.1280   73.9460    0.4490 O.3   105  U105       -0.3114
   2255  C4'      -57.4330   75.9520    0.7750 C.3   105  U105        0.1773
   2256  O4'      -56.1900   76.6810    0.9290 O.3   105  U105       -0.3307
   2257  C3'      -57.8300   76.2500   -0.6550 C.3   105  U105        0.1860
   2258  O3'      -59.1950   75.9720   -0.9180 O.3   105  U105       -0.3112
   2259  C2'      -57.4640   77.7260   -0.8010 C.3   105  U105        0.2309
   2260  O2'      -58.4920   78.5580   -0.2790 O.3   105  U105       -0.2156
   2261  C1'      -56.2320   77.8370    0.1110 C.3   105  U105        0.2420
   2262  N1       -54.9610   77.9580   -0.6570 N.ar  105  U105       -0.2534
   2263  C2       -54.6960   79.2440   -1.1650 C.ar  105  U105        0.3546
   2264  O2       -55.4500   80.1970   -1.0150 O.2   105  U105       -0.2443
   2265  N3       -53.5390   79.4080   -1.8620 N.ar  105  U105       -0.1530
   2266  C4       -52.6460   78.4010   -2.0880 C.ar  105  U105        0.2846
   2267  O4       -51.6510   78.6760   -2.7410 O.2   105  U105       -0.2650
   2268  C5       -52.9670   77.1050   -1.5320 C.ar  105  U105        0.0814
   2269  C6       -54.0950   76.9100   -0.8470 C.ar  105  U105        0.0870
   2270  OP1      -56.7120   71.5200    0.8930 O.3   105  U105       -0.4373
   2271  OP2      -54.3790   72.1630    0.0140 O.co2 105  U105       -0.5172
   2272  P        -59.6180   75.2840   -2.3090 P.3   106  U106        0.2141
   2273  C5'      -60.0440   77.6810   -3.2970 C.3   106  U106        0.1812
   2274  O5'      -59.3340   76.4510   -3.3660 O.3   106  U106       -0.3114
   2275  C4'      -59.4590   78.7200   -4.2260 C.3   106  U106        0.1773
   2276  O4'      -58.1350   79.0900   -3.7750 O.3   106  U106       -0.3307
   2277  C3'      -59.2660   78.3010   -5.6830 C.3   106  U106        0.1860
   2278  O3'      -60.4500   78.4590   -6.4530 O.3   106  U106       -0.3112
   2279  C2'      -58.1370   79.2120   -6.1520 C.3   106  U106        0.2309
   2280  O2'      -58.6470   80.4860   -6.5200 O.3   106  U106       -0.2156
   2281  C1'      -57.3080   79.3800   -4.8810 C.3   106  U106        0.2420
   2282  N1       -56.1310   78.4830   -4.8480 N.ar  106  U106       -0.2534
   2283  C2       -54.9450   78.9860   -5.3320 C.ar  106  U106        0.3546
   2284  O2       -54.8600   80.1060   -5.7920 O.2   106  U106       -0.2443
   2285  N3       -53.8640   78.1510   -5.2630 N.ar  106  U106       -0.1530
   2286  C4       -53.8610   76.8730   -4.7680 C.ar  106  U106        0.2846
   2287  O4       -52.8220   76.2090   -4.7690 O.2   106  U106       -0.2650
   2288  C5       -55.1240   76.4290   -4.2800 C.ar  106  U106        0.0814
   2289  C6       -56.1940   77.2220   -4.3300 C.ar  106  U106        0.0870
   2290  OP1      -61.0810   75.0040   -2.2270 O.3   106  U106       -0.4373
   2291  OP2      -58.6740   74.1410   -2.5430 O.co2 106  U106       -0.5172
   2292  P        -61.3050   77.1830   -6.9420 P.3   107  G107        0.2141
   2293  C5'      -59.6950   76.2190   -8.7460 C.3   107  G107        0.1812
   2294  O5'      -60.8370   77.0000   -8.4480 O.3   107  G107       -0.3114
   2295  C4'      -59.0600   76.6220  -10.0530 C.3   107  G107        0.1773
   2296  O4'      -59.1770   75.5440  -11.0000 O.3   107  G107       -0.3307
   2297  C3'      -59.6510   77.8360  -10.7680 C.3   107  G107        0.1860
   2298  O3'      -59.1180   79.0550  -10.2570 O.3   107  G107       -0.3112
   2299  C2'      -59.2990   77.5850  -12.2470 C.3   107  G107        0.2309
   2300  O2'      -58.0590   78.2010  -12.5840 O.3   107  G107       -0.2156
   2301  C1'      -59.1160   76.0520  -12.3060 C.3   107  G107        0.2408
   2302  N1       -63.9060   75.5680  -14.2230 N.ar  107  G107       -0.1709
   2303  C2       -63.4140   76.5650  -13.4020 C.ar  107  G107        0.2606
   2304  N2       -64.2690   77.5360  -13.0430 N.pl3 107  G107       -0.0859
   2305  N3       -62.1710   76.6180  -12.9530 N.ar  107  G107       -0.1918
   2306  C4       -61.4430   75.5780  -13.4030 C.ar  107  G107        0.1723
   2307  C5       -61.8410   74.5350  -14.2280 C.ar  107  G107        0.1748
   2308  C6       -63.1710   74.4840  -14.7000 C.ar  107  G107        0.3023
   2309  O6       -63.6810   73.6320  -15.4360 O.2   107  G107       -0.2633
   2310  N7       -60.8070   73.6520  -14.4690 N.ar  107  G107       -0.2173
   2311  C8       -59.8210   74.1660  -13.8020 C.ar  107  G107        0.1817
   2312  N9       -60.1160   75.3420  -13.1430 N.ar  107  G107       -0.2693
   2313  OP1      -62.7330   77.5830   -6.8980 O.2   107  G107       -0.5172
   2314  OP2      -60.8600   76.0080   -6.1390 O.co2 107  G107       -0.4373
   2315  P        -59.9410   80.4380  -10.3590 P.3   108  G108        0.2141
   2316  C5'      -59.3000   82.6850  -11.5670 C.3   108  G108        0.1812
   2317  O5'      -59.0390   81.3070  -11.3630 O.3   108  G108       -0.3114
   2318  C4'      -58.0350   83.4760  -11.8320 C.3   108  G108        0.1773
   2319  O4'      -57.1920   83.4900  -10.6510 O.3   108  G108       -0.3307
   2320  C3'      -57.1210   82.9560  -12.9300 C.3   108  G108        0.1860
   2321  O3'      -57.5590   83.3050  -14.2300 O.3   108  G108       -0.3112
   2322  C2'      -55.7690   83.5640  -12.5600 C.3   108  G108        0.2309
   2323  O2'      -55.6920   84.9220  -12.9710 O.3   108  G108       -0.2156
   2324  C1'      -55.8260   83.5210  -11.0340 C.3   108  G108        0.2408
   2325  N1       -51.4390   80.8780  -10.4700 N.ar  108  G108       -0.1709
   2326  C2       -51.6490   82.0830  -11.1240 C.ar  108  G108        0.2606
   2327  N2       -50.5210   82.5960  -11.6790 N.pl3 108  G108       -0.0859
   2328  N3       -52.8560   82.7020  -11.2080 N.ar  108  G108       -0.1918
   2329  C4       -53.8320   81.9900  -10.5780 C.ar  108  G108        0.1723
   2330  C5       -53.7170   80.7780   -9.9010 C.ar  108  G108        0.1748
   2331  C6       -52.4410   80.1470   -9.8130 C.ar  108  G108        0.3023
   2332  O6       -52.1500   79.0820   -9.2510 O.2   108  G108       -0.2633
   2333  N7       -54.9280   80.3580   -9.3960 N.ar  108  G108       -0.2173
   2334  C8       -55.7390   81.3080   -9.7660 C.ar  108  G108        0.1817
   2335  N9       -55.1560   82.3220  -10.4890 N.ar  108  G108       -0.2693
   2336  OP1      -59.9260   81.0620   -9.0050 O.3   108  G108       -0.4373
   2337  OP2      -61.2530   80.1140  -10.9840 O.co2 108  G108       -0.5172
   2338  P        -57.2270   82.3380  -15.4740 P.3   109  C109        0.2141
   2339  C5'      -55.0480   83.7030  -16.0170 C.3   109  C109        0.1812
   2340  O5'      -55.6460   82.4820  -15.6200 O.3   109  C109       -0.3114
   2341  C4'      -53.5700   83.5260  -16.2390 C.3   109  C109        0.1773
   2342  O4'      -52.9270   83.2260  -14.9760 O.3   109  C109       -0.3307
   2343  C3'      -53.1800   82.3640  -17.1380 C.3   109  C109        0.1860
   2344  O3'      -53.2450   82.6860  -18.5090 O.3   109  C109       -0.3112
   2345  C2'      -51.7800   82.0030  -16.6580 C.3   109  C109        0.2309
   2346  O2'      -50.8140   82.8810  -17.2050 O.3   109  C109       -0.2156
   2347  C1'      -51.8920   82.2840  -15.1670 C.3   109  C109        0.2420
   2348  N1       -52.2220   81.0750  -14.4080 N.ar  109  C109       -0.2535
   2349  C2       -51.1910   80.1980  -14.1130 C.ar  109  C109        0.3532
   2350  O2       -50.0590   80.4870  -14.5120 O.2   109  C109       -0.2443
   2351  N3       -51.4480   79.0780  -13.4100 N.ar  109  C109       -0.1739
   2352  C4       -52.6980   78.8370  -13.0160 C.ar  109  C109        0.1759
   2353  N4       -52.9520   77.7230  -12.3220 N.pl3 109  C109       -0.1070
   2354  C5       -53.7660   79.7290  -13.3050 C.ar  109  C109        0.0566
   2355  C6       -53.4890   80.8320  -13.9960 C.ar  109  C109        0.0850
   2356  OP1      -57.8950   82.9150  -16.6730 O.2   109  C109       -0.5172
   2357  OP2      -57.5790   80.9370  -15.0530 O.co2 109  C109       -0.4373
   2358  P        -53.5730   81.5440  -19.5820 P.3   110  U110        0.2141
   2359  C5'      -51.1960   80.8600  -20.3720 C.3   110  U110        0.1812
   2360  O5'      -52.2870   80.6230  -19.5160 O.3   110  U110       -0.3114
   2361  C4'      -50.0240   80.0020  -20.0050 C.3   110  U110        0.1773
   2362  O4'      -49.9170   79.8990  -18.5670 O.3   110  U110       -0.3307
   2363  C3'      -50.0910   78.5550  -20.4400 C.3   110  U110        0.1860
   2364  O3'      -49.8240   78.3810  -21.8120 O.3   110  U110       -0.3112
   2365  C2'      -49.0510   77.9180  -19.5410 C.3   110  U110        0.2309
   2366  O2'      -47.7480   78.2280  -19.9960 O.3   110  U110       -0.2156
   2367  C1'      -49.2800   78.6790  -18.2410 C.3   110  U110        0.2420
   2368  N1       -50.1170   77.9230  -17.3000 N.ar  110  U110       -0.2534
   2369  C2       -49.5590   76.7560  -16.8300 C.ar  110  U110        0.3546
   2370  O2       -48.4620   76.3460  -17.1640 O.2   110  U110       -0.2443
   2371  N3       -50.3230   76.0470  -15.9570 N.ar  110  U110       -0.1530
   2372  C4       -51.5580   76.3870  -15.5060 C.ar  110  U110        0.2846
   2373  O4       -52.1130   75.6330  -14.7220 O.2   110  U110       -0.2650
   2374  C5       -52.0670   77.6120  -16.0300 C.ar  110  U110        0.0814
   2375  C6       -51.3500   78.3360  -16.8900 C.ar  110  U110        0.0870
   2376  OP1      -53.6470   82.2170  -20.9110 O.2   110  U110       -0.5172
   2377  OP2      -54.7630   80.7870  -19.0850 O.co2 110  U110       -0.4373
   2378  P        -51.0100   78.0420  -22.8350 P.3   111  G111        0.2141
   2379  C5'      -51.3280   75.5340  -22.1740 C.3   111  G111        0.1812
   2380  O5'      -50.8180   76.4850  -23.0900 O.3   111  G111       -0.3114
   2381  C4'      -50.7990   74.1640  -22.4780 C.3   111  G111        0.1773
   2382  O4'      -51.2250   73.7640  -23.8080 O.3   111  G111       -0.3307
   2383  C3'      -49.2890   74.0550  -22.5230 C.3   111  G111        0.1860
   2384  O3'      -48.7190   73.8900  -21.2400 O.3   111  G111       -0.3112
   2385  C2'      -49.0500   72.8770  -23.4610 C.3   111  G111        0.2309
   2386  O2'      -49.2150   71.6430  -22.7800 O.3   111  G111       -0.2156
   2387  C1'      -50.1960   73.0450  -24.4560 C.3   111  G111        0.2408
   2388  N1       -47.3300   72.9670  -28.6120 N.ar  111  G111       -0.1709
   2389  C2       -47.5130   72.0020  -27.6500 C.ar  111  G111        0.2606
   2390  N2       -46.8310   70.8590  -27.8160 N.pl3 111  G111       -0.0859
   2391  N3       -48.3100   72.1490  -26.6020 N.ar  111  G111       -0.1918
   2392  C4       -48.9080   73.3580  -26.5970 C.ar  111  G111        0.1723
   2393  C5       -48.7920   74.3970  -27.5040 C.ar  111  G111        0.1748
   2394  C6       -47.9380   74.2220  -28.6290 C.ar  111  G111        0.3023
   2395  O6       -47.7030   75.0190  -29.5540 O.2   111  G111       -0.2633
   2396  N7       -49.5830   75.4790  -27.1210 N.ar  111  G111       -0.2173
   2397  C8       -50.1470   75.0780  -26.0090 C.ar  111  G111        0.1817
   2398  N9       -49.7780   73.8040  -25.6440 N.ar  111  G111       -0.2693
   2399  OP1      -50.7200   78.8010  -24.0760 O.2   111  G111       -0.5172
   2400  OP2      -52.2990   78.2830  -22.1280 O.co2 111  G111       -0.4373
   2401  P        -47.2610   74.4860  -20.9220 P.3   112  G112        0.2141
   2402  C5'      -46.3270   72.1090  -21.4530 C.3   112  G112        0.1812
   2403  O5'      -46.3130   73.4970  -21.7190 O.3   112  G112       -0.3114
   2404  C4'      -45.3180   71.3950  -22.3020 C.3   112  G112        0.1773
   2405  O4'      -45.7580   71.3990  -23.6840 O.3   112  G112       -0.3307
   2406  C3'      -43.9360   72.0290  -22.3520 C.3   112  G112        0.1860
   2407  O3'      -43.1360   71.6940  -21.2250 O.3   112  G112       -0.3112
   2408  C2'      -43.3910   71.5040  -23.6690 C.3   112  G112        0.2309
   2409  O2'      -42.9970   70.1420  -23.5270 O.3   112  G112       -0.2156
   2410  C1'      -44.6450   71.5460  -24.5440 C.3   112  G112        0.2408
   2411  N1       -43.6650   74.5380  -28.6980 N.ar  112  G112       -0.1709
   2412  C2       -43.2070   73.2720  -28.4350 C.ar  112  G112        0.2606
   2413  N2       -42.4210   72.7600  -29.3900 N.pl3 112  G112       -0.0859
   2414  N3       -43.4980   72.5620  -27.3440 N.ar  112  G112       -0.1918
   2415  C4       -44.3130   73.2390  -26.5060 C.ar  112  G112        0.1723
   2416  C5       -44.8170   74.5180  -26.6920 C.ar  112  G112        0.1748
   2417  C6       -44.4980   75.2730  -27.8580 C.ar  112  G112        0.3023
   2418  O6       -44.8610   76.4300  -28.1700 O.2   112  G112       -0.2633
   2419  N7       -45.5970   74.8870  -25.6220 N.ar  112  G112       -0.2173
   2420  C8       -45.5600   73.8580  -24.8260 C.ar  112  G112        0.1817
   2421  N9       -44.7940   72.8220  -25.2770 N.ar  112  G112       -0.2693
   2422  OP1      -47.0400   74.3370  -19.4620 O.3   112  G112       -0.4373
   2423  OP2      -47.1910   75.8440  -21.5290 O.co2 112  G112       -0.5172
   2424  P        -42.1260   72.7790  -20.5890 P.3   113  G113        0.2141
   2425  C5'      -39.8470   71.7440  -21.3450 C.3   113  G113        0.1812
   2426  O5'      -40.8710   72.7000  -21.5650 O.3   113  G113       -0.3114
   2427  C4'      -39.0990   71.4550  -22.6100 C.3   113  G113        0.1773
   2428  O4'      -40.0320   71.3960  -23.7150 O.3   113  G113       -0.3307
   2429  C3'      -38.1000   72.5090  -23.0320 C.3   113  G113        0.1860
   2430  O3'      -36.8620   72.3780  -22.3730 O.3   113  G113       -0.3112
   2431  C2'      -38.0140   72.3100  -24.5350 C.3   113  G113        0.2309
   2432  O2'      -37.2030   71.1930  -24.8560 O.3   113  G113       -0.2156
   2433  C1'      -39.4590   71.9700  -24.8680 C.3   113  G113        0.2408
   2434  N1       -40.3340   75.5600  -28.3280 N.ar  113  G113       -0.1709
   2435  C2       -39.4800   74.4910  -28.3980 C.ar  113  G113        0.2606
   2436  N2       -38.7810   74.3820  -29.5370 N.pl3 113  G113       -0.0859
   2437  N3       -39.3370   73.6040  -27.4290 N.ar  113  G113       -0.1918
   2438  C4       -40.1310   73.8990  -26.3780 C.ar  113  G113        0.1723
   2439  C5       -41.0060   74.9500  -26.2120 C.ar  113  G113        0.1748
   2440  C6       -41.1540   75.8830  -27.2570 C.ar  113  G113        0.3023
   2441  O6       -41.8890   76.8790  -27.3040 O.2   113  G113       -0.2633
   2442  N7       -41.6290   74.8980  -24.9720 N.ar  113  G113       -0.2173
   2443  C8       -41.1250   73.8360  -24.4060 C.ar  113  G113        0.1817
   2444  N9       -40.2240   73.1800  -25.2100 N.ar  113  G113       -0.2693
   2445  OP1      -41.7460   72.2810  -19.2360 O.3   113  G113       -0.4373
   2446  OP2      -42.7720   74.1140  -20.7110 O.co2 113  G113       -0.5172
   2447  P        -36.0050   73.6840  -22.0070 P.3   114  G114        0.2141
   2448  C5'      -34.7190   73.4100  -24.2520 C.3   114  G114        0.1812
   2449  O5'      -35.5510   74.2100  -23.4350 O.3   114  G114       -0.3114
   2450  C4'      -34.5460   73.9970  -25.6300 C.3   114  G114        0.1773
   2451  O4'      -35.8280   74.0960  -26.3070 O.3   114  G114       -0.3307
   2452  C3'      -34.0030   75.4100  -25.7080 C.3   114  G114        0.1860
   2453  O3'      -32.6100   75.4930  -25.4500 O.3   114  G114       -0.3112
   2454  C2'      -34.3920   75.8020  -27.1270 C.3   114  G114        0.2309
   2455  O2'      -33.5350   75.1740  -28.0730 O.3   114  G114       -0.2156
   2456  C1'      -35.7790   75.1610  -27.2360 C.3   114  G114        0.2408
   2457  N1       -38.0890   79.3120  -28.8090 N.ar  114  G114       -0.1709
   2458  C2       -37.0630   78.5910  -29.3770 C.ar  114  G114        0.2606
   2459  N2       -36.5780   79.0480  -30.5390 N.pl3 114  G114       -0.0859
   2460  N3       -36.5510   77.4960  -28.8470 N.ar  114  G114       -0.1918
   2461  C4       -37.1560   77.1900  -27.6860 C.ar  114  G114        0.1723
   2462  C5       -38.1800   77.8330  -27.0340 C.ar  114  G114        0.1748
   2463  C6       -38.7200   78.9990  -27.6170 C.ar  114  G114        0.3023
   2464  O6       -39.6230   79.7230  -27.2070 O.2   114  G114       -0.2633
   2465  N7       -38.5030   77.1720  -25.8620 N.ar  114  G114       -0.2173
   2466  C8       -37.6730   76.1600  -25.8290 C.ar  114  G114        0.1817
   2467  N9       -36.8410   76.1180  -26.9130 N.ar  114  G114       -0.2693
   2468  OP1      -34.8270   73.2170  -21.2310 O.3   114  G114       -0.4373
   2469  OP2      -36.9300   74.6720  -21.3830 O.co2 114  G114       -0.5172
   2470  P        -32.0010   76.7850  -24.7040 P.3   115  G115        0.2141
   2471  C5'      -31.2540   77.6760  -27.0620 C.3   115  G115        0.1812
   2472  O5'      -31.9730   77.8900  -25.8550 O.3   115  G115       -0.3114
   2473  C4'      -31.4740   78.8070  -28.0310 C.3   115  G115        0.1773
   2474  O4'      -32.8470   78.7880  -28.4960 O.3   115  G115       -0.3307
   2475  C3'      -31.2870   80.2040  -27.4590 C.3   115  G115        0.1860
   2476  O3'      -29.9390   80.6170  -27.4580 O.3   115  G115       -0.3112
   2477  C2'      -32.1940   81.0650  -28.3300 C.3   115  G115        0.2309
   2478  O2'      -31.5710   81.3680  -29.5690 O.3   115  G115       -0.2156
   2479  C1'      -33.3490   80.1050  -28.5890 C.3   115  G115        0.2408
   2480  N1       -37.3430   82.8690  -27.3160 N.ar  115  G115       -0.1709
   2481  C2       -36.4750   82.9940  -28.3720 C.ar  115  G115        0.2606
   2482  N2       -36.6990   84.0020  -29.2250 N.pl3 115  G115       -0.0859
   2483  N3       -35.4570   82.1870  -28.5780 N.ar  115  G115       -0.1918
   2484  C4       -35.3800   81.2370  -27.6300 C.ar  115  G115        0.1723
   2485  C5       -36.1840   81.0230  -26.5350 C.ar  115  G115        0.1748
   2486  C6       -37.2830   81.9000  -26.3240 C.ar  115  G115        0.3023
   2487  O6       -38.1310   81.9030  -25.4220 O.2   115  G115       -0.2633
   2488  N7       -35.7340   79.9230  -25.8160 N.ar  115  G115       -0.2173
   2489  C8       -34.6890   79.5020  -26.4760 C.ar  115  G115        0.1817
   2490  N9       -34.4260   80.2620  -27.5930 N.ar  115  G115       -0.2693
   2491  OP1      -30.6160   76.4390  -24.3020 O.2   115  G115       -0.5172
   2492  OP2      -32.9730   77.1880  -23.6510 O.co2 115  G115       -0.4373
   2493  P        -29.3730   81.5060  -26.2530 P.3   116  U116        0.2141
   2494  C5'      -29.7190   83.5500  -27.8800 C.3   116  U116        0.1812
   2495  O5'      -29.9300   82.9640  -26.5990 O.3   116  U116       -0.3114
   2496  C4'      -30.5000   84.8380  -28.0440 C.3   116  U116        0.1773
   2497  O4'      -31.9080   84.5400  -28.2390 O.3   116  U116       -0.3307
   2498  C3'      -30.4910   85.7830  -26.8510 C.3   116  U116        0.1860
   2499  O3'      -29.3230   86.5650  -26.7610 O.3   116  U116       -0.3112
   2500  C2'      -31.7550   86.6040  -27.0510 C.3   116  U116        0.2309
   2501  O2'      -31.5460   87.6280  -28.0090 O.3   116  U116       -0.2156
   2502  C1'      -32.7020   85.5570  -27.6430 C.3   116  U116        0.2420
   2503  N1       -33.5610   84.9440  -26.5970 N.ar  116  U116       -0.2534
   2504  C2       -34.7710   85.5570  -26.2920 C.ar  116  U116        0.3546
   2505  O2       -35.1940   86.5630  -26.8450 O.2   116  U116       -0.2443
   2506  N3       -35.4830   84.9280  -25.3010 N.ar  116  U116       -0.1530
   2507  C4       -35.1190   83.7980  -24.5990 C.ar  116  U116        0.2846
   2508  O4       -35.8700   83.3610  -23.7390 O.2   116  U116       -0.2650
   2509  C5       -33.8650   83.2330  -24.9570 C.ar  116  U116        0.0814
   2510  C6       -33.1480   83.8160  -25.9180 C.ar  116  U116        0.0870
   2511  OP1      -27.8960   81.4830  -26.3640 O.2   116  U116       -0.5172
   2512  OP2      -30.0000   81.0080  -25.0000 O.co2 116  U116       -0.4373
   2513  P        -28.7380   86.9400  -25.3190 P.3   117  G117        0.2141
   2514  C5'      -29.6550   89.4050  -25.3380 C.3   117  G117        0.1812
   2515  O5'      -29.7350   88.0850  -24.8170 O.3   117  G117       -0.3114
   2516  C4'      -30.9010   90.2050  -25.0430 C.3   117  G117        0.1773
   2517  O4'      -32.0780   89.4840  -25.4990 O.3   117  G117       -0.3307
   2518  C3'      -31.2040   90.4620  -23.5810 C.3   117  G117        0.1860
   2519  O3'      -30.4200   91.4750  -23.0020 O.3   117  G117       -0.3112
   2520  C2'      -32.6840   90.7860  -23.6120 C.3   117  G117        0.2309
   2521  O2'      -32.9000   92.0800  -24.1450 O.3   117  G117       -0.2156
   2522  C1'      -33.1670   89.7590  -24.6280 C.3   117  G117        0.2408
   2523  N1       -36.8550   87.6350  -21.9220 N.ar  117  G117       -0.1709
   2524  C2       -36.7270   88.8930  -22.4530 C.ar  117  G117        0.2606
   2525  N2       -37.7480   89.7310  -22.2320 N.pl3 117  G117       -0.0859
   2526  N3       -35.6900   89.3150  -23.1500 N.ar  117  G117       -0.1918
   2527  C4       -34.7640   88.3550  -23.2770 C.ar  117  G117        0.1723
   2528  C5       -34.7790   87.0640  -22.7880 C.ar  117  G117        0.1748
   2529  C6       -35.9120   86.6290  -22.0380 C.ar  117  G117        0.3023
   2530  O6       -36.1490   85.5390  -21.5070 O.2   117  G117       -0.2633
   2531  N7       -33.6060   86.4080  -23.1500 N.ar  117  G117       -0.2173
   2532  C8       -32.9290   87.2990  -23.8350 C.ar  117  G117        0.1817
   2533  N9       -33.5860   88.5050  -23.9630 N.ar  117  G117       -0.2693
   2534  OP1      -27.3830   87.5030  -25.5370 O.2   117  G117       -0.5172
   2535  OP2      -28.8810   85.7300  -24.4610 O.co2 117  G117       -0.4373
   2536  P        -30.1910   91.4640  -21.4140 P.3   118  A118        0.2141
   2537  C5'      -31.7950   93.4910  -21.0090 C.3   118  A118        0.1812
   2538  O5'      -31.5410   92.1060  -20.8560 O.3   118  A118       -0.3114
   2539  C4'      -33.1220   93.8840  -20.4160 C.3   118  A118        0.1773
   2540  O4'      -34.1870   93.1070  -21.0220 O.3   118  A118       -0.3307
   2541  C3'      -33.2920   93.6300  -18.9320 C.3   118  A118        0.1860
   2542  O3'      -32.6830   94.6130  -18.1250 O.3   118  A118       -0.3112
   2543  C2'      -34.8010   93.5780  -18.7850 C.3   118  A118        0.2309
   2544  O2'      -35.3590   94.8810  -18.8360 O.3   118  A118       -0.2156
   2545  C1'      -35.1840   92.8330  -20.0580 C.3   118  A118        0.2408
   2546  N1       -37.7560   88.9370  -18.0190 N.ar  118  A118       -0.2040
   2547  C2       -38.0430   90.2440  -18.1060 C.ar  118  A118        0.2016
   2548  N3       -37.3260   91.2130  -18.6610 N.ar  118  A118       -0.2048
   2549  C4       -36.1900   90.7100  -19.1610 C.ar  118  A118        0.1692
   2550  C5       -35.7560   89.4000  -19.1440 C.ar  118  A118        0.1518
   2551  C6       -36.5910   88.4670  -18.5380 C.ar  118  A118        0.1919
   2552  N6       -36.2660   87.1680  -18.4660 N.pl3 118  A118       -0.1054
   2553  N7       -34.5220   89.2580  -19.7580 N.ar  118  A118       -0.2193
   2554  C8       -34.2310   90.4770  -20.1370 C.ar  118  A118        0.1816
   2555  N9       -35.2070   91.3890  -19.8220 N.ar  118  A118       -0.2693
   2556  OP1      -29.0420   92.3640  -21.1280 O.2   118  A118       -0.5172
   2557  OP2      -30.1030   90.0340  -20.9950 O.co2 118  A118       -0.4373
   2558  P        -32.0810   94.2020  -16.6980 P.3   119  G119        0.2141
   2559  C5'      -34.3040   94.7850  -15.4120 C.3   119  G119        0.1812
   2560  O5'      -33.3880   93.7960  -15.8640 O.3   119  G119       -0.3114
   2561  C4'      -35.4750   94.1720  -14.6780 C.3   119  G119        0.1773
   2562  O4'      -36.1780   93.2510  -15.5560 O.3   119  G119       -0.3307
   2563  C3'      -35.1360   93.3150  -13.4690 C.3   119  G119        0.1860
   2564  O3'      -34.8610   94.0550  -12.3090 O.3   119  G119       -0.3112
   2565  C2'      -36.3600   92.4360  -13.3440 C.3   119  G119        0.2309
   2566  O2'      -37.4560   93.1830  -12.8370 O.3   119  G119       -0.2156
   2567  C1'      -36.6230   92.1300  -14.8100 C.3   119  G119        0.2408
   2568  N1       -36.1280   87.0630  -14.6510 N.ar  119  G119       -0.1709
   2569  C2       -37.0820   87.8610  -14.0540 C.ar  119  G119        0.2606
   2570  N2       -38.0160   87.2350  -13.3250 N.pl3 119  G119       -0.0859
   2571  N3       -37.1140   89.1770  -14.1650 N.ar  119  G119       -0.1918
   2572  C4       -36.1020   89.6360  -14.9280 C.ar  119  G119        0.1723
   2573  C5       -35.1020   88.9210  -15.5650 C.ar  119  G119        0.1748
   2574  C6       -35.0700   87.5120  -15.4460 C.ar  119  G119        0.3023
   2575  O6       -34.2550   86.7210  -15.9450 O.2   119  G119       -0.2633
   2576  N7       -34.2500   89.7680  -16.2570 N.ar  119  G119       -0.2173
   2577  C8       -34.7360   90.9610  -16.0360 C.ar  119  G119        0.1817
   2578  N9       -35.8590   90.9510  -15.2490 N.ar  119  G119       -0.2693
   2579  OP1      -31.4650   95.4190  -16.1130 O.3   119  G119       -0.4373
   2580  OP2      -31.2230   93.0020  -16.9220 O.co2 119  G119       -0.5172
   2581  P        -33.7640   93.5070  -11.2830 P.3   120  G120        0.2141
   2582  C5'      -35.5290   92.2840   -9.7930 C.3   120  G120        0.1812
   2583  O5'      -34.4500   92.1940  -10.7040 O.3   120  G120       -0.3114
   2584  C4'      -36.0040   90.9210   -9.3730 C.3   120  G120        0.1773
   2585  O4'      -36.3090   90.1230  -10.5460 O.3   120  G120       -0.3307
   2586  C3'      -35.0030   90.0640   -8.6280 C.3   120  G120        0.1860
   2587  O3'      -34.8400   90.4240   -7.2740 O.3   120  G120       -0.3112
   2588  C2'      -35.5750   88.6700   -8.8190 C.3   120  G120        0.2309
   2589  O2'      -36.7010   88.4670   -7.9750 O.3   120  G120       -0.2156
   2590  C1'      -36.0590   88.7560  -10.2640 C.3   120  G120        0.2408
   2591  N1       -33.8070   84.6210  -12.0190 N.ar  120  G120       -0.1709
   2592  C2       -34.7890   84.7440  -11.0760 C.ar  120  G120        0.2606
   2593  N2       -35.2270   83.5980  -10.5220 N.pl3 120  G120       -0.0859
   2594  N3       -35.3000   85.8990  -10.7080 N.ar  120  G120       -0.1918
   2595  C4       -34.7270   86.9200  -11.3710 C.ar  120  G120        0.1723
   2596  C5       -33.7390   86.8960  -12.3270 C.ar  120  G120        0.1748
   2597  C6       -33.2080   85.6530  -12.7110 C.ar  120  G120        0.3023
   2598  O6       -32.3280   85.4100  -13.5380 O.2   120  G120       -0.2633
   2599  N7       -33.4280   88.1760  -12.7590 N.ar  120  G120       -0.2173
   2600  C8       -34.2270   88.9450  -12.0630 C.ar  120  G120        0.1817
   2601  N9       -35.0450   88.2460  -11.2080 N.ar  120  G120       -0.2693
   2602  OP1      -33.6210   94.5270  -10.2040 O.3   120  G120       -0.4373
   2603  OP2      -32.5690   93.1350  -12.0860 O.co2 120  G120       -0.5172
   2604  P        -33.4180   90.1840   -6.5620 P.3   121  G121        0.2141
   2605  C5'      -34.2630   87.9610   -5.5010 C.3   121  G121        0.1812
   2606  O5'      -33.3720   88.6030   -6.3870 O.3   121  G121       -0.3114
   2607  C4'      -34.1330   86.4670   -5.5740 C.3   121  G121        0.1773
   2608  O4'      -34.3620   86.0050   -6.9290 O.3   121  G121       -0.3307
   2609  C3'      -32.7730   85.8930   -5.2400 C.3   121  G121        0.1860
   2610  O3'      -32.5090   85.8830   -3.8500 O.3   121  G121       -0.3112
   2611  C2'      -32.8780   84.5050   -5.8530 C.3   121  G121        0.2309
   2612  O2'      -33.7350   83.6850   -5.0640 O.3   121  G121       -0.2156
   2613  C1'      -33.6050   84.8320   -7.1570 C.3   121  G121        0.2408
   2614  N1       -30.3770   82.9050  -10.6820 N.ar  121  G121       -0.1709
   2615  C2       -31.0970   82.2490   -9.7080 C.ar  121  G121        0.2606
   2616  N2       -30.9440   80.9160   -9.6710 N.pl3 121  G121       -0.0859
   2617  N3       -31.9090   82.8450   -8.8320 N.ar  121  G121       -0.1918
   2618  C4       -31.9460   84.1820   -9.0130 C.ar  121  G121        0.1723
   2619  C5       -31.2630   84.9220   -9.9620 C.ar  121  G121        0.1748
   2620  C6       -30.3990   84.2730  -10.8950 C.ar  121  G121        0.3023
   2621  O6       -29.7140   84.7550  -11.8090 O.2   121  G121       -0.2633
   2622  N7       -31.5760   86.2630   -9.8150 N.ar  121  G121       -0.2173
   2623  C8       -32.4120   86.3120   -8.8130 C.ar  121  G121        0.1817
   2624  N9       -32.6780   85.0850   -8.2730 N.ar  121  G121       -0.2693
   2625  OP1      -33.4750   90.8360   -5.2260 O.3   121  G121       -0.4373
   2626  OP2      -32.3690   90.6220   -7.5360 O.co2 121  G121       -0.5172
   2627  P        -31.0100   86.0790   -3.3040 P.3   122  G122        0.2141
   2628  C5'      -29.8760   83.7430   -3.6700 C.3   122  G122        0.1812
   2629  O5'      -30.1760   85.0370   -4.1750 O.3   122  G122       -0.3114
   2630  C4'      -28.7920   83.0800   -4.4760 C.3   122  G122        0.1773
   2631  O4'      -29.1750   83.0500   -5.8720 O.3   122  G122       -0.3307
   2632  C3'      -27.4430   83.7830   -4.4950 C.3   122  G122        0.1860
   2633  O3'      -26.6680   83.5400   -3.3340 O.3   122  G122       -0.3112
   2634  C2'      -26.8200   83.2360   -5.7640 C.3   122  G122        0.2309
   2635  O2'      -26.3720   81.9010   -5.5650 O.3   122  G122       -0.2156
   2636  C1'      -28.0340   83.2050   -6.6850 C.3   122  G122        0.2408
   2637  N1       -26.9210   85.6440  -10.9690 N.ar  122  G122       -0.1709
   2638  C2       -26.6190   84.3590  -10.5950 C.ar  122  G122        0.2606
   2639  N2       -25.9220   83.6370  -11.4850 N.pl3 122  G122       -0.0859
   2640  N3       -26.9720   83.8310   -9.4370 N.ar  122  G122       -0.1918
   2641  C4       -27.6590   84.7070   -8.6780 C.ar  122  G122        0.1723
   2642  C5       -28.0100   86.0060   -8.9600 C.ar  122  G122        0.1748
   2643  C6       -27.6240   86.5640  -10.2060 C.ar  122  G122        0.3023
   2644  O6       -27.8330   87.6930  -10.6610 O.2   122  G122       -0.2633
   2645  N7       -28.7220   86.5500   -7.9000 N.ar  122  G122       -0.2173
   2646  C8       -28.7890   85.5970   -7.0090 C.ar  122  G122        0.1817
   2647  N9       -28.1690   84.4570   -7.4320 N.ar  122  G122       -0.2693
   2648  OP1      -31.0240   85.6550   -1.8650 O.3   122  G122       -0.4373
   2649  OP2      -30.5830   87.4680   -3.6490 O.co2 122  G122       -0.5172
   2650  P        -25.9840   84.7690   -2.5620 P.3   123  A123        0.2141
   2651  C5'      -24.3030   85.4360   -4.4040 C.3   123  A123        0.1812
   2652  O5'      -24.5290   84.8060   -3.1690 O.3   123  A123       -0.3114
   2653  C4'      -22.8410   85.5330   -4.7150 C.3   123  A123        0.1773
   2654  O4'      -22.1240   84.3670   -4.2470 O.3   123  A123       -0.3307
   2655  C3'      -22.4990   85.5560   -6.1740 C.3   123  A123        0.1860
   2656  O3'      -22.8370   86.7590   -6.7890 O.3   123  A123       -0.3112
   2657  C2'      -21.0210   85.2590   -6.1640 C.3   123  A123        0.2309
   2658  O2'      -20.2870   86.4080   -5.7600 O.3   123  A123       -0.2156
   2659  C1'      -20.9560   84.2200   -5.0420 C.3   123  A123        0.2408
   2660  N1       -22.5070   79.3670   -4.6520 N.ar  123  A123       -0.2040
   2661  C2       -22.8470   80.4880   -3.9850 C.ar  123  A123        0.2016
   2662  N3       -22.4220   81.7300   -4.1280 N.ar  123  A123       -0.2048
   2663  C4       -21.5210   81.7420   -5.1110 C.ar  123  A123        0.1692
   2664  C5       -21.0630   80.6880   -5.9020 C.ar  123  A123        0.1518
   2665  C6       -21.5880   79.4290   -5.6430 C.ar  123  A123        0.1919
   2666  N6       -21.2340   78.3310   -6.3120 N.pl3 123  A123       -0.1054
   2667  N7       -20.1200   81.1010   -6.8260 N.ar  123  A123       -0.2193
   2668  C8       -20.0410   82.3950   -6.5830 C.ar  123  A123        0.1816
   2669  N9       -20.8760   82.8450   -5.5700 N.ar  123  A123       -0.2693
   2670  OP1      -25.9170   84.3980   -1.1280 O.3   123  A123       -0.4373
   2671  OP2      -26.7190   86.0000   -2.9550 O.co2 123  A123       -0.5172
   2672  P        -23.8900   86.7170   -7.9600 P.3   124  A124        0.2141
   2673  C5'      -21.9360   86.1030   -9.5760 C.3   124  A124        0.1812
   2674  O5'      -23.1730   85.7430   -8.9870 O.3   124  A124       -0.3114
   2675  C4'      -21.4310   85.0020  -10.4510 C.3   124  A124        0.1773
   2676  O4'      -21.1250   83.8580   -9.6240 O.3   124  A124       -0.3307
   2677  C3'      -22.4340   84.4920  -11.4770 C.3   124  A124        0.1860
   2678  O3'      -22.3950   85.2340  -12.6890 O.3   124  A124       -0.3112
   2679  C2'      -22.0560   83.0290  -11.6450 C.3   124  A124        0.2309
   2680  O2'      -20.9550   82.9120  -12.5400 O.3   124  A124       -0.2156
   2681  C1'      -21.5690   82.6730  -10.2370 C.3   124  A124        0.2408
   2682  N1       -23.5020   78.3240   -8.0900 N.ar  124  A124       -0.2040
   2683  C2       -22.5370   78.5470   -8.9890 C.ar  124  A124        0.2016
   2684  N3       -22.0940   79.6890   -9.5070 N.ar  124  A124       -0.2048
   2685  C4       -22.7720   80.7360   -9.0190 C.ar  124  A124        0.1692
   2686  C5       -23.7980   80.6680   -8.0880 C.ar  124  A124        0.1518
   2687  C6       -24.1720   79.3860   -7.6090 C.ar  124  A124        0.1919
   2688  N6       -25.1350   79.1180   -6.7160 N.pl3 124  A124       -0.1054
   2689  N7       -24.2540   81.9450   -7.8160 N.ar  124  A124       -0.2193
   2690  C8       -23.5110   82.7280   -8.5650 C.ar  124  A124        0.1816
   2691  N9       -22.6080   82.0680   -9.3610 N.ar  124  A124       -0.2693
   2692  OP1      -23.9820   88.0940   -8.5380 O.2   124  A124       -0.5172
   2693  OP2      -25.1190   86.0750   -7.4050 O.co2 124  A124       -0.4373
   2694  P        -23.7610   85.7550  -13.3750 P.3   125  U125        0.2141
   2695  C5'      -22.1830   85.2270  -15.4060 C.3   125  U125        0.1812
   2696  O5'      -23.3540   85.8730  -14.9100 O.3   125  U125       -0.3114
   2697  C4'      -22.4690   84.4450  -16.6660 C.3   125  U125        0.1773
   2698  O4'      -21.7080   85.0210  -17.7670 O.3   125  U125       -0.3307
   2699  C3'      -22.0900   82.9640  -16.6130 C.3   125  U125        0.1860
   2700  O3'      -23.0070   82.2060  -17.4170 O.3   125  U125       -0.3112
   2701  C2'      -20.7100   82.9600  -17.2720 C.3   125  U125        0.2309
   2702  O2'      -20.3240   81.7200  -17.8210 O.3   125  U125       -0.2156
   2703  C1'      -20.8870   84.0290  -18.3500 C.3   125  U125        0.2420
   2704  N1       -19.6180   84.6730  -18.8050 N.ar  125  U125       -0.2534
   2705  C2       -19.7020   85.4880  -19.9220 C.ar  125  U125        0.3546
   2706  O2       -20.7520   85.7020  -20.5000 O.2   125  U125       -0.2443
   2707  N3       -18.5270   86.0670  -20.3360 N.ar  125  U125       -0.1530
   2708  C4       -17.2800   85.9160  -19.7740 C.ar  125  U125        0.2846
   2709  O4       -16.3170   86.5070  -20.2700 O.2   125  U125       -0.2650
   2710  C5       -17.2640   85.0510  -18.6330 C.ar  125  U125        0.0814
   2711  C6       -18.3960   84.4720  -18.2010 C.ar  125  U125        0.0870
   2712  OP1      -24.0520   87.1050  -12.8230 O.3   125  U125       -0.4373
   2713  OP2      -24.7730   84.6840  -13.2030 O.co2 125  U125       -0.5172
   2714  P        -24.3060   81.4930  -16.7620 P.3   126  A126        0.2141
   2715  C5'      -22.9570   79.2790  -16.3070 C.3   126  A126        0.1812
   2716  O5'      -23.6620   80.3980  -15.7840 O.3   126  A126       -0.3114
   2717  C4'      -23.1280   78.0390  -15.4530 C.3   126  A126        0.1773
   2718  O4'      -22.7850   78.3290  -14.0760 O.3   126  A126       -0.3307
   2719  C3'      -24.5320   77.4490  -15.3680 C.3   126  A126        0.1860
   2720  O3'      -24.8720   76.6600  -16.4970 O.3   126  A126       -0.3112
   2721  C2'      -24.4660   76.6480  -14.0730 C.3   126  A126        0.2309
   2722  O2'      -23.7890   75.4140  -14.2690 O.3   126  A126       -0.2156
   2723  C1'      -23.5890   77.5540  -13.2070 C.3   126  A126        0.2408
   2724  N1       -26.7180   78.0010   -9.1740 N.ar  126  A126       -0.2040
   2725  C2       -26.0490   76.9610   -9.6810 C.ar  126  A126        0.2016
   2726  N3       -25.2410   76.9080  -10.7370 N.ar  126  A126       -0.2048
   2727  C4       -25.1460   78.1200  -11.3020 C.ar  126  A126        0.1692
   2728  C5       -25.7690   79.2800  -10.9040 C.ar  126  A126        0.1518
   2729  C6       -26.5970   79.1960   -9.7790 C.ar  126  A126        0.1919
   2730  N6       -27.2600   80.2330   -9.2740 N.pl3 126  A126       -0.1054
   2731  N7       -25.4310   80.3340  -11.7360 N.ar  126  A126       -0.2193
   2732  C8       -24.6300   79.7950  -12.6140 C.ar  126  A126        0.1816
   2733  N9       -24.4070   78.4650  -12.3960 N.ar  126  A126       -0.2693
   2734  OP1      -25.0300   80.8120  -17.8710 O.2   126  A126       -0.5172
   2735  OP2      -25.0370   82.5310  -15.9650 O.co2 126  A126       -0.4373
   2736  P        -26.2500   76.9150  -17.2980 P.3   127  C127        0.2141
   2737  C5'      -27.7460   75.3900  -15.7810 C.3   127  C127        0.1812
   2738  O5'      -27.3640   76.6930  -16.1800 O.3   127  C127       -0.3114
   2739  C4'      -28.4290   75.4070  -14.4400 C.3   127  C127        0.1773
   2740  O4'      -27.7140   76.2890  -13.5390 O.3   127  C127       -0.3307
   2741  C3'      -29.8400   75.9600  -14.4190 C.3   127  C127        0.1860
   2742  O3'      -30.8070   75.0490  -14.8740 O.3   127  C127       -0.3112
   2743  C2'      -30.0120   76.3580  -12.9650 C.3   127  C127        0.2309
   2744  O2'      -30.2250   75.2190  -12.1370 O.3   127  C127       -0.2156
   2745  C1'      -28.6280   76.9280  -12.6690 C.3   127  C127        0.2420
   2746  N1       -28.5870   78.3700  -12.9310 N.ar  127  C127       -0.2535
   2747  C2       -29.3290   79.1660  -12.0610 C.ar  127  C127        0.3532
   2748  O2       -29.9480   78.6450  -11.1100 O.2   127  C127       -0.2443
   2749  N3       -29.3450   80.4950  -12.2770 N.ar  127  C127       -0.1739
   2750  C4       -28.6780   81.0180  -13.3030 C.ar  127  C127        0.1759
   2751  N4       -28.7410   82.3430  -13.4520 N.pl3 127  C127       -0.1070
   2752  C5       -27.9180   80.2200  -14.2060 C.ar  127  C127        0.0566
   2753  C6       -27.9040   78.9030  -13.9860 C.ar  127  C127        0.0850
   2754  OP1      -26.3460   75.8490  -18.3330 O.2   127  C127       -0.5172
   2755  OP2      -26.2560   78.3420  -17.7360 O.co2 127  C127       -0.4373
   2756  P        -32.0710   75.5980  -15.6830 P.3   128  C128        0.2141
   2757  C5'      -33.5160   75.5660  -13.4950 C.3   128  C128        0.1812
   2758  O5'      -32.9230   76.3150  -14.5400 O.3   128  C128       -0.3114
   2759  C4'      -34.0720   76.4710  -12.4330 C.3   128  C128        0.1773
   2760  O4'      -33.0610   77.4310  -12.0480 O.3   128  C128       -0.3307
   2761  C3'      -35.2490   77.3360  -12.8510 C.3   128  C128        0.1860
   2762  O3'      -36.4820   76.6490  -12.8090 O.3   128  C128       -0.3112
   2763  C2'      -35.1690   78.5230  -11.8920 C.3   128  C128        0.2309
   2764  O2'      -35.7240   78.2050  -10.6250 O.3   128  C128       -0.2156
   2765  C1'      -33.6640   78.6710  -11.7260 C.3   128  C128        0.2420
   2766  N1       -33.1080   79.7150  -12.6050 N.ar  128  C128       -0.2535
   2767  C2       -33.2210   81.0280  -12.1580 C.ar  128  C128        0.3532
   2768  O2       -33.7950   81.2350  -11.0750 O.2   128  C128       -0.2443
   2769  N3       -32.7040   82.0230  -12.9080 N.ar  128  C128       -0.1739
   2770  C4       -32.0960   81.7360  -14.0590 C.ar  128  C128        0.1759
   2771  N4       -31.5990   82.7450  -14.7850 N.pl3 128  C128       -0.1070
   2772  C5       -31.9710   80.3940  -14.5280 C.ar  128  C128        0.0566
   2773  C6       -32.4830   79.4130  -13.7760 C.ar  128  C128        0.0850
   2774  OP1      -32.8070   74.4010  -16.2010 O.3   128  C128       -0.4373
   2775  OP2      -31.5570   76.6230  -16.6640 O.co2 128  C128       -0.5172
   2776  P        -37.5890   76.9180  -13.9450 P.3   129  C129        0.2141
   2777  C5'      -38.8040   78.3430  -12.1030 C.3   129  C129        0.1812
   2778  O5'      -38.3090   78.2470  -13.4280 O.3   129  C129       -0.3114
   2779  C4'      -39.2690   79.7380  -11.8010 C.3   129  C129        0.1773
   2780  O4'      -38.1290   80.5940  -11.5410 O.3   129  C129       -0.3307
   2781  C3'      -39.9830   80.4510  -12.9240 C.3   129  C129        0.1860
   2782  O3'      -41.3160   80.0230  -13.0960 O.3   129  C129       -0.3112
   2783  C2'      -39.8470   81.9110  -12.5120 C.3   129  C129        0.2309
   2784  O2'      -40.7390   82.2220  -11.4500 O.3   129  C129       -0.2156
   2785  C1'      -38.4290   81.9170  -11.9530 C.3   129  C129        0.2420
   2786  N1       -37.4300   82.3510  -12.9640 N.ar  129  C129       -0.2535
   2787  C2       -37.2800   83.7260  -13.1510 C.ar  129  C129        0.3532
   2788  O2       -37.9830   84.4980  -12.4750 O.2   129  C129       -0.2443
   2789  N3       -36.3830   84.1840  -14.0500 N.ar  129  C129       -0.1739
   2790  C4       -35.6550   83.3250  -14.7490 C.ar  129  C129        0.1759
   2791  N4       -34.7790   83.8190  -15.6200 N.pl3 129  C129       -0.1070
   2792  C5       -35.7850   81.9250  -14.5830 C.ar  129  C129        0.0566
   2793  C6       -36.6730   81.4790  -13.6910 C.ar  129  C129        0.0850
   2794  OP1      -38.5400   75.7640  -13.9060 O.3   129  C129       -0.4373
   2795  OP2      -36.8630   77.2140  -15.2170 O.co2 129  C129       -0.5172
   2796  P        -41.9970   80.0930  -14.5470 P.3   130  U130        0.2141
   2797  C5'      -43.1460   82.3910  -14.0360 C.3   130  U130        0.1812
   2798  O5'      -42.1820   81.6590  -14.7730 O.3   130  U130       -0.3114
   2799  C4'      -42.9460   83.8810  -14.1870 C.3   130  U130        0.1773
   2800  O4'      -41.5550   84.2240  -13.9900 O.3   130  U130       -0.3307
   2801  C3'      -43.2510   84.4730  -15.5500 C.3   130  U130        0.1860
   2802  O3'      -44.6260   84.6180  -15.7980 O.3   130  U130       -0.3112
   2803  C2'      -42.5180   85.7960  -15.4840 C.3   130  U130        0.2309
   2804  O2'      -43.2390   86.7180  -14.6830 O.3   130  U130       -0.2156
   2805  C1'      -41.2560   85.3940  -14.7290 C.3   130  U130        0.2420
   2806  N1       -40.1370   85.1160  -15.6390 N.ar  130  U130       -0.2534
   2807  C2       -39.5280   86.2020  -16.2150 C.ar  130  U130        0.3546
   2808  O2       -39.8750   87.3500  -16.0170 O.2   130  U130       -0.2443
   2809  N3       -38.4840   85.9120  -17.0400 N.ar  130  U130       -0.1530
   2810  C4       -37.9930   84.6700  -17.3530 C.ar  130  U130        0.2846
   2811  O4       -37.0400   84.5840  -18.1290 O.2   130  U130       -0.2650
   2812  C5       -38.6820   83.5870  -16.7230 C.ar  130  U130        0.0814
   2813  C6       -39.7100   83.8460  -15.9020 C.ar  130  U130        0.0870
   2814  OP1      -43.3280   79.4330  -14.4320 O.3   130  U130       -0.4373
   2815  OP2      -41.0080   79.5620  -15.5270 O.co2 130  U130       -0.5172
   2816  P        -45.1870   84.4900  -17.2960 P.3   131  U131        0.2141
   2817  C5'      -45.4090   87.0330  -17.8840 C.3   131  U131        0.1812
   2818  O5'      -44.6720   85.8270  -17.9850 O.3   131  U131       -0.3114
   2819  C4'      -44.7010   88.1590  -18.5880 C.3   131  U131        0.1773
   2820  O4'      -43.3280   88.2300  -18.1190 O.3   131  U131       -0.3307
   2821  C3'      -44.5540   88.0070  -20.0910 C.3   131  U131        0.1860
   2822  O3'      -45.7110   88.3700  -20.8160 O.3   131  U131       -0.3112
   2823  C2'      -43.3490   88.8730  -20.3900 C.3   131  U131        0.2309
   2824  O2'      -43.7000   90.2450  -20.3280 O.3   131  U131       -0.2156
   2825  C1'      -42.4690   88.5490  -19.1920 C.3   131  U131        0.2420
   2826  N1       -41.5910   87.3820  -19.4590 N.ar  131  U131       -0.2534
   2827  C2       -40.3820   87.6570  -20.0490 C.ar  131  U131        0.3546
   2828  O2       -40.0600   88.7920  -20.3180 O.2   131  U131       -0.2443
   2829  N3       -39.5710   86.5860  -20.3090 N.ar  131  U131       -0.1530
   2830  C4       -39.8610   85.2650  -20.0420 C.ar  131  U131        0.2846
   2831  O4       -39.0370   84.3890  -20.3260 O.2   131  U131       -0.2650
   2832  C5       -41.1380   85.0430  -19.4300 C.ar  131  U131        0.0814
   2833  C6       -41.9360   86.0830  -19.1710 C.ar  131  U131        0.0870
   2834  OP1      -46.6780   84.5110  -17.1950 O.3   131  U131       -0.4373
   2835  OP2      -44.5190   83.3080  -17.9270 O.co2 131  U131       -0.5172
   2836  P        -46.0580   87.5960  -22.1810 P.3   132  A132        0.2141
   2837  C5'      -45.1570   89.6900  -23.4860 C.3   132  A132        0.1812
   2838  O5'      -45.0860   88.2930  -23.2380 O.3   132  A132       -0.3114
   2839  C4'      -44.0010   90.1670  -24.3340 C.3   132  A132        0.1773
   2840  O4'      -42.7570   90.0140  -23.6010 O.3   132  A132       -0.3307
   2841  C3'      -43.7610   89.4110  -25.6360 C.3   132  A132        0.1860
   2842  O3'      -44.5970   89.8430  -26.6910 O.3   132  A132       -0.3112
   2843  C2'      -42.2860   89.6590  -25.8960 C.3   132  A132        0.2309
   2844  O2'      -42.0780   90.9650  -26.4140 O.3   132  A132       -0.2156
   2845  C1'      -41.7290   89.6070  -24.4780 C.3   132  A132        0.2408
   2846  N1       -37.9220   86.2800  -24.7050 N.ar  132  A132       -0.2040
   2847  C2       -38.0490   87.5400  -25.1300 C.ar  132  A132        0.2016
   2848  N3       -39.1020   88.3420  -25.0260 N.ar  132  A132       -0.2048
   2849  C4       -40.1100   87.7130  -24.4020 C.ar  132  A132        0.1692
   2850  C5       -40.1420   86.4220  -23.9050 C.ar  132  A132        0.1518
   2851  C6       -38.9620   85.6760  -24.0780 C.ar  132  A132        0.1919
   2852  N6       -38.8110   84.4140  -23.6670 N.pl3 132  A132       -0.1054
   2853  N7       -41.3770   86.1450  -23.3210 N.ar  132  A132       -0.2193
   2854  C8       -42.0520   87.2630  -23.4760 C.ar  132  A132        0.1816
   2855  N9       -41.3280   88.2440  -24.1150 N.ar  132  A132       -0.2693
   2856  OP1      -47.4700   87.9000  -22.5020 O.2   132  A132       -0.5172
   2857  OP2      -45.6560   86.1740  -21.9940 O.co2 132  A132       -0.4373
   2858  P        -45.1970   88.7770  -27.7280 P.3   133  C133        0.2141
   2859  C5'      -43.4780   89.7210  -29.4770 C.3   133  C133        0.1812
   2860  O5'      -44.0110   88.5990  -28.7860 O.3   133  C133       -0.3114
   2861  C4'      -42.1050   89.4350  -30.0340 C.3   133  C133        0.1773
   2862  O4'      -41.1550   89.2440  -28.9490 O.3   133  C133       -0.3307
   2863  C3'      -41.9650   88.1650  -30.8520 C.3   133  C133        0.1860
   2864  O3'      -42.4620   88.2790  -32.1690 O.3   133  C133       -0.3112
   2865  C2'      -40.4710   87.9010  -30.7810 C.3   133  C133        0.2309
   2866  O2'      -39.7620   88.7890  -31.6260 O.3   133  C133       -0.2156
   2867  C1'      -40.1860   88.2810  -29.3310 C.3   133  C133        0.2420
   2868  N1       -40.2990   87.1010  -28.4350 N.ar  133  C133       -0.2535
   2869  C2       -39.2010   86.2340  -28.3820 C.ar  133  C133        0.3532
   2870  O2       -38.1840   86.4950  -29.0450 O.2   133  C133       -0.2443
   2871  N3       -39.2600   85.1390  -27.6040 N.ar  133  C133       -0.1739
   2872  C4       -40.3570   84.8860  -26.9090 C.ar  133  C133        0.1759
   2873  N4       -40.3510   83.7910  -26.1600 N.pl3 133  C133       -0.1070
   2874  C5       -41.4970   85.7330  -26.9420 C.ar  133  C133        0.0566
   2875  C6       -41.4340   86.8190  -27.7190 C.ar  133  C133        0.0850
   2876  OP1      -46.3680   89.4180  -28.3720 O.2   133  C133       -0.5172
   2877  OP2      -45.4020   87.5130  -26.9850 O.co2 133  C133       -0.4373
   2878  P        -43.0280   86.9710  -32.9150 P.3   134  C134        0.2141
   2879  C5'      -40.6790   86.6440  -34.0180 C.3   134  C134        0.1812
   2880  O5'      -41.7050   86.1290  -33.1910 O.3   134  C134       -0.3114
   2881  C4'      -39.5520   85.6620  -34.1550 C.3   134  C134        0.1773
   2882  O4'      -38.9390   85.4490  -32.8640 O.3   134  C134       -0.3307
   2883  C3'      -39.9420   84.2660  -34.6110 C.3   134  C134        0.1860
   2884  O3'      -40.1040   84.1680  -36.0070 O.3   134  C134       -0.3112
   2885  C2'      -38.8120   83.4090  -34.0760 C.3   134  C134        0.2309
   2886  O2'      -37.6700   83.4980  -34.9190 O.3   134  C134       -0.2156
   2887  C1'      -38.5040   84.1090  -32.7550 C.3   134  C134        0.2420
   2888  N1       -39.2000   83.4720  -31.6070 N.ar  134  C134       -0.2535
   2889  C2       -38.6630   82.2870  -31.0960 C.ar  134  C134        0.3532
   2890  O2       -37.6440   81.8130  -31.6270 O.2   134  C134       -0.2443
   2891  N3       -39.2730   81.6940  -30.0410 N.ar  134  C134       -0.1739
   2892  C4       -40.3640   82.2370  -29.5090 C.ar  134  C134        0.1759
   2893  N4       -40.9070   81.6130  -28.4800 N.pl3 134  C134       -0.1070
   2894  C5       -40.9410   83.4390  -29.9960 C.ar  134  C134        0.0566
   2895  C6       -40.3290   84.0170  -31.0410 C.ar  134  C134        0.0850
   2896  OP1      -43.6220   87.4160  -34.1990 O.2   134  C134       -0.5172
   2897  OP2      -43.8930   86.2510  -31.9400 O.co2 134  C134       -0.4373
   2898  P        -41.5260   83.7530  -36.6070 P.3   135  A135        0.2141
   2899  C5'      -41.2500   81.2510  -37.3290 C.3   135  A135        0.1812
   2900  O5'      -41.5870   82.1870  -36.3180 O.3   135  A135       -0.3114
   2901  C4'      -40.0260   80.4510  -36.9620 C.3   135  A135        0.1773
   2902  O4'      -39.4840   80.9200  -35.7020 O.3   135  A135       -0.3307
   2903  C3'      -40.2500   78.9660  -36.7300 C.3   135  A135        0.1860
   2904  O3'      -40.3200   78.2250  -37.9260 O.3   135  A135       -0.3112
   2905  C2'      -39.0750   78.5840  -35.8440 C.3   135  A135        0.2309
   2906  O2'      -37.8850   78.4470  -36.6070 O.3   135  A135       -0.2156
   2907  C1'      -38.9520   79.8300  -34.9700 C.3   135  A135        0.2408
   2908  N1       -39.5760   77.0340  -30.7170 N.ar  135  A135       -0.2040
   2909  C2       -38.7490   76.9230  -31.7580 C.ar  135  A135        0.2016
   2910  N3       -38.6480   77.6980  -32.8330 N.ar  135  A135       -0.2048
   2911  C4       -39.5330   78.7040  -32.7820 C.ar  135  A135        0.1692
   2912  C5       -40.4500   78.9530  -31.7770 C.ar  135  A135        0.1518
   2913  C6       -40.4530   78.0550  -30.6920 C.ar  135  A135        0.1919
   2914  N6       -41.2670   78.1460  -29.6420 N.pl3 135  A135       -0.1054
   2915  N7       -41.2000   80.0910  -32.0720 N.ar  135  A135       -0.2193
   2916  C8       -40.7220   80.4850  -33.2290 C.ar  135  A135        0.1816
   2917  N9       -39.7120   79.6900  -33.7150 N.ar  135  A135       -0.2693
   2918  OP1      -41.4690   83.9930  -38.0760 O.2   135  A135       -0.5172
   2919  OP2      -42.5580   84.4640  -35.8020 O.co2 135  A135       -0.4373
   2920  P        -41.4480   77.1020  -38.0950 P.3   136  C136        0.2141
   2921  C5'      -39.8140   75.2890  -37.1390 C.3   136  C136        0.1812
   2922  O5'      -41.0250   76.0140  -37.0110 O.3   136  C136       -0.3114
   2923  C4'      -39.6200   74.3330  -35.9880 C.3   136  C136        0.1773
   2924  O4'      -39.4510   75.0790  -34.7570 O.3   136  C136       -0.3307
   2925  C3'      -40.7820   73.4010  -35.6820 C.3   136  C136        0.1860
   2926  O3'      -40.8560   72.2860  -36.5420 O.3   136  C136       -0.3112
   2927  C2'      -40.5240   73.0280  -34.2390 C.3   136  C136        0.2309
   2928  O2'      -39.4820   72.0780  -34.1490 O.3   136  C136       -0.2156
   2929  C1'      -40.0150   74.3530  -33.6830 C.3   136  C136        0.2420
   2930  N1       -41.1130   75.1460  -33.0980 N.ar  136  C136       -0.2535
   2931  C2       -41.5230   74.7770  -31.8180 C.ar  136  C136        0.3532
   2932  O2       -40.9370   73.8460  -31.2530 O.2   136  C136       -0.2443
   2933  N3       -42.5320   75.4450  -31.2260 N.ar  136  C136       -0.1739
   2934  C4       -43.1270   76.4450  -31.8800 C.ar  136  C136        0.1759
   2935  N4       -44.1230   77.0820  -31.2500 N.pl3 136  C136       -0.1070
   2936  C5       -42.7310   76.8310  -33.2000 C.ar  136  C136        0.0566
   2937  C6       -41.7280   76.1600  -33.7730 C.ar  136  C136        0.0850
   2938  OP1      -41.2990   76.5420  -39.4610 O.2   136  C136       -0.5172
   2939  OP2      -42.7490   77.7230  -37.7070 O.co2 136  C136       -0.4373
   2940  P        -42.2890   71.7650  -37.0410 P.3   137  U137        0.2141
   2941  C5'      -41.9650   69.8780  -35.2700 C.3   137  U137        0.1812
   2942  O5'      -42.7900   70.8860  -35.8200 O.3   137  U137       -0.3114
   2943  C4'      -42.4400   69.4790  -33.9050 C.3   137  U137        0.1773
   2944  O4'      -42.3440   70.6130  -33.0080 O.3   137  U137       -0.3307
   2945  C3'      -43.8950   69.0700  -33.8070 C.3   137  U137        0.1860
   2946  O3'      -44.1300   67.7530  -34.2350 O.3   137  U137       -0.3112
   2947  C2'      -44.1980   69.2880  -32.3400 C.3   137  U137        0.2309
   2948  O2'      -43.6570   68.2240  -31.5610 O.3   137  U137       -0.2156
   2949  C1'      -43.3890   70.5580  -32.0600 C.3   137  U137        0.2420
   2950  N1       -44.2090   71.7990  -32.1730 N.ar  137  U137       -0.2534
   2951  C2       -45.0810   72.0770  -31.1390 C.ar  137  U137        0.3546
   2952  O2       -45.2100   71.3420  -30.1750 O.2   137  U137       -0.2443
   2953  N3       -45.8080   73.2400  -31.2580 N.ar  137  U137       -0.1530
   2954  C4       -45.7680   74.1590  -32.2860 C.ar  137  U137        0.2846
   2955  O4       -46.4940   75.1610  -32.2330 O.2   137  U137       -0.2650
   2956  C5       -44.8380   73.8120  -33.3250 C.ar  137  U137        0.0814
   2957  C6       -44.1090   72.6810  -33.2290 C.ar  137  U137        0.0870
   2958  OP1      -42.0540   70.8980  -38.2200 O.2   137  U137       -0.5172
   2959  OP2      -43.1580   72.9640  -37.1920 O.co2 137  U137       -0.4373
   2960  P        -45.4340   67.4420  -35.0960 P.3   138  G138        0.2141
   2961  C5'      -46.4610   66.0520  -33.1390 C.3   138  G138        0.1812
   2962  O5'      -46.5380   67.1910  -33.9820 O.3   138  G138       -0.3114
   2963  C4'      -47.3830   66.1920  -31.9630 C.3   138  G138        0.1773
   2964  O4'      -47.0150   67.3670  -31.1970 O.3   138  G138       -0.3307
   2965  C3'      -48.8400   66.4350  -32.2960 C.3   138  G138        0.1860
   2966  O3'      -49.5280   65.2630  -32.6650 O.3   138  G138       -0.3112
   2967  C2'      -49.3530   67.0690  -31.0200 C.3   138  G138        0.2309
   2968  O2'      -49.5130   66.0890  -30.0060 O.3   138  G138       -0.2156
   2969  C1'      -48.1740   67.9570  -30.6530 C.3   138  G138        0.2408
   2970  N1       -50.4110   72.3710  -29.9270 N.ar  138  G138       -0.1709
   2971  C2       -50.4420   71.2260  -29.1830 C.ar  138  G138        0.2606
   2972  N2       -51.1970   71.2630  -28.0730 N.pl3 138  G138       -0.0859
   2973  N3       -49.7910   70.1230  -29.5050 N.ar  138  G138       -0.1918
   2974  C4       -49.0990   70.2700  -30.6470 C.ar  138  G138        0.1723
   2975  C5       -48.9980   71.3690  -31.4700 C.ar  138  G138        0.1748
   2976  C6       -49.7100   72.5410  -31.1050 C.ar  138  G138        0.3023
   2977  O6       -49.7720   73.6320  -31.6830 O.2   138  G138       -0.2633
   2978  N7       -48.1730   71.0850  -32.5600 N.ar  138  G138       -0.2173
   2979  C8       -47.7930   69.8360  -32.3670 C.ar  138  G138        0.1817
   2980  N9       -48.3220   69.2990  -31.2180 N.ar  138  G138       -0.2693
   2981  OP1      -45.1850   66.1840  -35.8520 O.2   138  G138       -0.5172
   2982  OP2      -45.7460   68.6760  -35.8490 O.co2 138  G138       -0.4373
   2983  P        -50.7070   65.3410  -33.7470 P.3   139  U139        0.2141
   2984  C5'      -52.3190   65.6790  -31.7150 C.3   139  U139        0.1812
   2985  O5'      -51.8360   66.1270  -32.9710 O.3   139  U139       -0.3114
   2986  C4'      -53.3330   66.6410  -31.1850 C.3   139  U139        0.1773
   2987  O4'      -52.6700   67.8570  -30.7530 O.3   139  U139       -0.3307
   2988  C3'      -54.3250   67.1380  -32.2110 C.3   139  U139        0.1860
   2989  O3'      -55.3580   66.2200  -32.4660 O.3   139  U139       -0.3112
   2990  C2'      -54.7940   68.4490  -31.6140 C.3   139  U139        0.2309
   2991  O2'      -55.7150   68.2180  -30.5570 O.3   139  U139       -0.2156
   2992  C1'      -53.4990   68.9720  -31.0100 C.3   139  U139        0.2420
   2993  N1       -52.8020   69.8990  -31.9180 N.ar  139  U139       -0.2534
   2994  C2       -53.2750   71.1820  -31.8290 C.ar  139  U139        0.3546
   2995  O2       -54.1850   71.4640  -31.0700 O.2   139  U139       -0.2443
   2996  N3       -52.6620   72.1230  -32.6290 N.ar  139  U139       -0.1530
   2997  C4       -51.6270   71.8920  -33.5240 C.ar  139  U139        0.2846
   2998  O4       -51.1810   72.8460  -34.1920 O.2   139  U139       -0.2650
   2999  C5       -51.1900   70.5200  -33.5630 C.ar  139  U139        0.0814
   3000  C6       -51.7750   69.5950  -32.7790 C.ar  139  U139        0.0870
   3001  OP1      -51.1490   63.9460  -34.0060 O.3   139  U139       -0.4373
   3002  OP2      -50.2150   66.1690  -34.8890 O.co2 139  U139       -0.5172
   3003  P        -55.9030   66.0340  -33.9620 P.3   140  C140        0.2141
   3004  C5'      -58.2600   66.9410  -33.2830 C.3   140  C140        0.1812
   3005  O5'      -57.0650   67.1150  -34.0340 O.3   140  C140       -0.3114
   3006  C4'      -58.9070   68.2600  -32.9810 C.3   140  C140        0.1773
   3007  O4'      -57.9240   69.1580  -32.4150 O.3   140  C140       -0.3307
   3008  C3'      -59.4360   69.0210  -34.1780 C.3   140  C140        0.1860
   3009  O3'      -60.6950   68.5550  -34.6110 O.3   140  C140       -0.3112
   3010  C2'      -59.4480   70.4590  -33.6820 C.3   140  C140        0.2309
   3011  O2'      -60.5550   70.6950  -32.8180 O.3   140  C140       -0.2156
   3012  C1'      -58.1760   70.4780  -32.8470 C.3   140  C140        0.2420
   3013  N1       -57.0290   70.9300  -33.6220 N.ar  140  C140       -0.2535
   3014  C2       -56.9160   72.3040  -33.7840 C.ar  140  C140        0.3532
   3015  O2       -57.7680   73.0410  -33.2690 O.2   140  C140       -0.2443
   3016  N3       -55.8730   72.7810  -34.4860 N.ar  140  C140       -0.1739
   3017  C4       -54.9890   71.9290  -35.0070 C.ar  140  C140        0.1759
   3018  N4       -53.9790   72.4580  -35.6900 N.pl3 140  C140       -0.1070
   3019  C5       -55.0950   70.5130  -34.8540 C.ar  140  C140        0.0566
   3020  C6       -56.1350   70.0520  -34.1570 C.ar  140  C140        0.0850
   3021  OP1      -56.4730   64.6510  -34.0440 O.3   140  C140       -0.4373
   3022  OP2      -54.8110   66.4170  -34.8850 O.co2 140  C140       -0.5172
   3023  P        -61.0440   68.5250  -36.1730 P.3   141  G141        0.2141
   3024  C5'      -62.4420   70.7240  -36.0070 C.3   141  G141        0.1812
   3025  O5'      -61.2920   70.0730  -36.4990 O.3   141  G141       -0.3114
   3026  C4'      -62.3100   72.2160  -36.0740 C.3   141  G141        0.1773
   3027  O4'      -61.0510   72.6130  -35.5130 O.3   141  G141       -0.3307
   3028  C3'      -62.2880   72.8210  -37.4590 C.3   141  G141        0.1860
   3029  O3'      -63.5750   72.9290  -38.0330 O.3   141  G141       -0.3112
   3030  C2'      -61.6110   74.1590  -37.2140 C.3   141  G141        0.2309
   3031  O2'      -62.5120   75.0660  -36.6100 O.3   141  G141       -0.2156
   3032  C1'      -60.5770   73.7700  -36.1700 C.3   141  G141        0.2408
   3033  N1       -56.4580   75.5810  -38.6080 N.ar  141  G141       -0.1709
   3034  C2       -57.6090   76.2460  -38.2340 C.ar  141  G141        0.2606
   3035  N2       -57.6790   77.5610  -38.5320 N.pl3 141  G141       -0.0859
   3036  N3       -58.6260   75.6640  -37.6010 N.ar  141  G141       -0.1918
   3037  C4       -58.3880   74.3510  -37.3690 C.ar  141  G141        0.1723
   3038  C5       -57.2740   73.6010  -37.7030 C.ar  141  G141        0.1748
   3039  C6       -56.1910   74.2310  -38.3740 C.ar  141  G141        0.3023
   3040  O6       -55.1160   73.7230  -38.7400 O.2   141  G141       -0.2633
   3041  N7       -57.4230   72.2810  -37.3000 N.ar  141  G141       -0.2173
   3042  C8       -58.5990   72.2600  -36.7400 C.ar  141  G141        0.1817
   3043  N9       -59.2500   73.4730  -36.7560 N.ar  141  G141       -0.2693
   3044  OP1      -62.3140   67.7500  -36.3130 O.3   141  G141       -0.4373
   3045  OP2      -59.8320   68.0410  -36.8860 O.co2 141  G141       -0.5172
   3046  P        -63.7870   72.5840  -39.5830 P.3   142  C142        0.2141
   3047  C5'      -63.6510   75.1550  -40.0030 C.3   142  C142        0.1812
   3048  O5'      -63.1500   73.8570  -40.2940 O.3   142  C142       -0.3114
   3049  C4'      -63.0100   76.2150  -40.8590 C.3   142  C142        0.1773
   3050  O4'      -61.7260   76.6010  -40.2900 O.3   142  C142       -0.3307
   3051  C3'      -62.6550   75.8090  -42.2800 C.3   142  C142        0.1860
   3052  O3'      -63.7560   75.7950  -43.1670 O.3   142  C142       -0.3112
   3053  C2'      -61.5920   76.8300  -42.6330 C.3   142  C142        0.2309
   3054  O2'      -62.1820   78.1040  -42.8330 O.3   142  C142       -0.2156
   3055  C1'      -60.8050   76.8620  -41.3340 C.3   142  C142        0.2420
   3056  N1       -59.7690   75.8110  -41.3180 N.ar  142  C142       -0.2535
   3057  C2       -58.5520   76.1450  -41.8910 C.ar  142  C142        0.3532
   3058  O2       -58.4380   77.2990  -42.3420 O.2   142  C142       -0.2443
   3059  N3       -57.5550   75.2240  -41.9130 N.ar  142  C142       -0.1739
   3060  C4       -57.7670   74.0080  -41.4000 C.ar  142  C142        0.1759
   3061  N4       -56.7770   73.1170  -41.4410 N.pl3 142  C142       -0.1070
   3062  C5       -59.0090   73.6360  -40.8190 C.ar  142  C142        0.0566
   3063  C6       -59.9750   74.5580  -40.8010 C.ar  142  C142        0.0850
   3064  OP1      -65.2530   72.5470  -39.8250 O.3   142  C142       -0.4373
   3065  OP2      -62.9750   71.3580  -39.8820 O.co2 142  C142       -0.5172
   3066  P        -63.7370   74.8030  -44.4290 P.3   143  G143        0.2141
   3067  C5'      -62.3620   76.5640  -45.8250 C.3   143  G143        0.1812
   3068  O5'      -62.4440   75.2770  -45.2250 O.3   143  G143       -0.3114
   3069  C4'      -61.0610   76.7210  -46.5680 C.3   143  G143        0.1773
   3070  O4'      -59.9450   76.6960  -45.6280 O.3   143  G143       -0.3307
   3071  C3'      -60.7160   75.5920  -47.5160 C.3   143  G143        0.1860
   3072  O3'      -61.4400   75.6200  -48.7240 O.3   143  G143       -0.3112
   3073  C2'      -59.2250   75.7720  -47.6770 C.3   143  G143        0.2309
   3074  O2'      -58.9510   76.9480  -48.4190 O.3   143  G143       -0.2156
   3075  C1'      -58.8420   76.0260  -46.2240 C.3   143  G143        0.2408
   3076  N1       -55.4190   72.4010  -45.3310 N.ar  143  G143       -0.1709
   3077  C2       -55.3070   73.5960  -46.0090 C.ar  143  G143        0.2606
   3078  N2       -54.1130   73.8660  -46.5570 N.pl3 143  G143       -0.0859
   3079  N3       -56.2960   74.4630  -46.1550 N.ar  143  G143       -0.1918
   3080  C4       -57.4290   74.0390  -45.5590 C.ar  143  G143        0.1723
   3081  C5       -57.6430   72.8730  -44.8500 C.ar  143  G143        0.1748
   3082  C6       -56.5730   71.9460  -44.7020 C.ar  143  G143        0.3023
   3083  O6       -56.5510   70.8610  -44.1100 O.2   143  G143       -0.2633
   3084  N7       -58.9460   72.8330  -44.3860 N.ar  143  G143       -0.2173
   3085  C8       -59.4810   73.9470  -44.8230 C.ar  143  G143        0.1817
   3086  N9       -58.6080   74.7440  -45.5210 N.ar  143  G143       -0.2693
   3087  OP1      -64.9520   75.0890  -45.2210 O.2   143  G143       -0.5172
   3088  OP2      -63.5250   73.4200  -43.9120 O.co2 143  G143       -0.4373
   3089  P        -61.8650   74.2360  -49.4160 P.3   144  A144        0.2141
   3090  C5'      -60.3630   72.5970  -50.7870 C.3   144  A144        0.1812
   3091  O5'      -60.6070   73.9100  -50.3220 O.3   144  A144       -0.3114
   3092  C4'      -59.3660   72.6220  -51.9000 C.3   144  A144        0.1773
   3093  O4'      -59.8060   73.5760  -52.8910 O.3   144  A144       -0.3307
   3094  C3'      -57.9690   73.0820  -51.5000 C.3   144  A144        0.1860
   3095  O3'      -57.1460   71.9990  -51.0930 O.3   144  A144       -0.3112
   3096  C2'      -57.4440   73.8000  -52.7420 C.3   144  A144        0.2309
   3097  O2'      -56.8400   72.8760  -53.6410 O.3   144  A144       -0.2156
   3098  C1'      -58.7220   74.3200  -53.3860 C.3   144  A144        0.2408
   3099  N1       -57.5520   79.1970  -54.6300 N.ar  144  A144       -0.2040
   3100  C2       -57.0690   78.0190  -55.0470 C.ar  144  A144        0.2016
   3101  N3       -57.4130   76.7820  -54.6690 N.ar  144  A144       -0.2048
   3102  C4       -58.3880   76.8120  -53.7450 C.ar  144  A144        0.1692
   3103  C5       -58.9940   77.9440  -53.2220 C.ar  144  A144        0.1518
   3104  C6       -58.5400   79.1950  -53.7030 C.ar  144  A144        0.1919
   3105  N6       -59.0240   80.3740  -53.2990 N.pl3 144  A144       -0.1054
   3106  N7       -59.9680   77.5840  -52.2980 N.ar  144  A144       -0.2193
   3107  C8       -59.9220   76.2720  -52.2890 C.ar  144  A144        0.1816
   3108  N9       -58.9740   75.7460  -53.1220 N.ar  144  A144       -0.2693
   3109  OP1      -63.0510   74.5260  -50.2660 O.2   144  A144       -0.5172
   3110  OP2      -61.9780   73.2110  -48.3360 O.co2 144  A144       -0.4373
   3111  P        -56.8230   71.7350  -49.5400 P.3   145  A145        0.2141
   3112  C5'      -54.3700   71.4650  -50.3500 C.3   145  A145        0.1812
   3113  O5'      -55.2830   72.0880  -49.4670 O.3   145  A145       -0.3114
   3114  C4'      -53.4690   72.4770  -50.9870 C.3   145  A145        0.1773
   3115  O4'      -54.2740   73.4690  -51.6710 O.3   145  A145       -0.3307
   3116  C3'      -52.5910   73.2570  -50.0200 C.3   145  A145        0.1860
   3117  O3'      -51.3390   72.6120  -49.8180 O.3   145  A145       -0.3112
   3118  C2'      -52.4650   74.6450  -50.6580 C.3   145  A145        0.2309
   3119  O2'      -51.3350   74.7060  -51.5220 O.3   145  A145       -0.2156
   3120  C1'      -53.7330   74.7510  -51.5100 C.3   145  A145        0.2408
   3121  N1       -55.9950   79.3780  -51.5820 N.ar  145  A145       -0.2040
   3122  C2       -54.9380   78.8760  -52.2380 C.ar  145  A145        0.2016
   3123  N3       -54.3930   77.6610  -52.1600 N.ar  145  A145       -0.2048
   3124  C4       -55.0600   76.8980  -51.2810 C.ar  145  A145        0.1692
   3125  C5       -56.1650   77.2660  -50.5300 C.ar  145  A145        0.1518
   3126  C6       -56.6480   78.5820  -50.6970 C.ar  145  A145        0.1919
   3127  N6       -57.6970   79.0890  -50.0330 N.pl3 145  A145       -0.1054
   3128  N7       -56.5710   76.2110  -49.7260 N.ar  145  A145       -0.2193
   3129  C8       -55.7240   75.2480  -50.0070 C.ar  145  A145        0.1816
   3130  N9       -54.7690   75.6090  -50.9200 N.ar  145  A145       -0.2693
   3131  OP1      -57.0130   70.2730  -49.2970 O.2   145  A145       -0.5172
   3132  OP2      -57.6210   72.7160  -48.7390 O.co2 145  A145       -0.4373
   3133  P        -50.6910   72.5000  -48.3480 P.3   146  A146        0.2141
   3134  C5'      -48.7030   73.9940  -49.1760 C.3   146  A146        0.1812
   3135  O5'      -49.7860   73.8090  -48.2740 O.3   146  A146       -0.3114
   3136  C4'      -48.4840   75.4500  -49.4640 C.3   146  A146        0.1773
   3137  O4'      -49.6830   75.9970  -50.0570 O.3   146  A146       -0.3307
   3138  C3'      -48.2300   76.3220  -48.2470 C.3   146  A146        0.1860
   3139  O3'      -46.8670   76.3190  -47.8510 O.3   146  A146       -0.3112
   3140  C2'      -48.7420   77.6830  -48.6900 C.3   146  A146        0.2309
   3141  O2'      -47.7940   78.3260  -49.5230 O.3   146  A146       -0.2156
   3142  C1'      -49.9360   77.2830  -49.5490 C.3   146  A146        0.2408
   3143  N1       -54.2850   79.7900  -48.5950 N.ar  146  A146       -0.2040
   3144  C2       -53.2340   80.0400  -49.3840 C.ar  146  A146        0.2016
   3145  N3       -52.1390   79.3120  -49.5690 N.ar  146  A146       -0.2048
   3146  C4       -52.1580   78.1980  -48.8230 C.ar  146  A146        0.1692
   3147  C5       -53.1560   77.7940  -47.9600 C.ar  146  A146        0.1518
   3148  C6       -54.2840   78.6580  -47.8480 C.ar  146  A146        0.1919
   3149  N6       -55.3570   78.4420  -47.0730 N.pl3 146  A146       -0.1054
   3150  N7       -52.8040   76.5710  -47.3870 N.ar  146  A146       -0.2193
   3151  C8       -51.6290   76.2780  -47.8930 C.ar  146  A146        0.1816
   3152  N9       -51.1870   77.2340  -48.7730 N.ar  146  A146       -0.2693
   3153  OP1      -49.8250   71.2760  -48.3490 O.2   146  A146       -0.5172
   3154  OP2      -51.7990   72.5990  -47.3540 O.co2 146  A146       -0.4373
   3155  P        -46.4660   76.3120  -46.2800 P.3   147  G147        0.2141
   3156  C5'      -47.3790   78.1340  -44.6490 C.3   147  G147        0.1812
   3157  O5'      -46.7100   77.8260  -45.8560 O.3   147  G147       -0.3114
   3158  C4'      -48.6510   78.8910  -44.9030 C.3   147  G147        0.1773
   3159  O4'      -49.6090   78.0160  -45.5310 O.3   147  G147       -0.3307
   3160  C3'      -49.3670   79.4230  -43.6640 C.3   147  G147        0.1860
   3161  O3'      -48.8400   80.6700  -43.2270 O.3   147  G147       -0.3112
   3162  C2'      -50.8220   79.5050  -44.1130 C.3   147  G147        0.2309
   3163  O2'      -51.0540   80.7050  -44.8380 O.3   147  G147       -0.2156
   3164  C1'      -50.9140   78.3260  -45.0890 C.3   147  G147        0.2408
   3165  N1       -55.0080   75.9630  -43.0000 N.ar  147  G147       -0.1709
   3166  C2       -54.8990   77.2650  -43.4420 C.ar  147  G147        0.2606
   3167  N2       -55.9900   78.0400  -43.3220 N.pl3 147  G147       -0.0859
   3168  N3       -53.7930   77.7780  -43.9680 N.ar  147  G147       -0.1918
   3169  C4       -52.7840   76.8780  -44.0130 C.ar  147  G147        0.1723
   3170  C5       -52.8020   75.5610  -43.5910 C.ar  147  G147        0.1748
   3171  C6       -53.9900   75.0140  -43.0350 C.ar  147  G147        0.3023
   3172  O6       -54.1990   73.8690  -42.6040 O.2   147  G147       -0.2633
   3173  N7       -51.5730   74.9720  -43.8140 N.ar  147  G147       -0.2173
   3174  C8       -50.8470   75.9180  -44.3440 C.ar  147  G147        0.1817
   3175  N9       -51.5040   77.1110  -44.4810 N.ar  147  G147       -0.2693
   3176  OP1      -45.0050   75.9800  -46.2030 O.2   147  G147       -0.5172
   3177  OP2      -47.4380   75.4400  -45.5720 O.co2 147  G147       -0.4373
   3178  P        -48.7460   81.0210  -41.6530 P.3   148  C148        0.2141
   3179  C5'      -50.8590   82.5330  -41.6520 C.3   148  C148        0.1812
   3180  O5'      -50.2570   81.3130  -41.2740 O.3   148  C148       -0.3114
   3181  C4'      -52.3370   82.5000  -41.4130 C.3   148  C148        0.1773
   3182  O4'      -52.9150   81.3610  -42.0910 O.3   148  C148       -0.3307
   3183  C3'      -52.7740   82.2920  -39.9770 C.3   148  C148        0.1860
   3184  O3'      -52.6530   83.4460  -39.1780 O.3   148  C148       -0.3112
   3185  C2'      -54.2000   81.8220  -40.1590 C.3   148  C148        0.2309
   3186  O2'      -55.0420   82.9020  -40.5480 O.3   148  C148       -0.2156
   3187  C1'      -54.0290   80.8950  -41.3500 C.3   148  C148        0.2420
   3188  N1       -53.7710   79.5140  -40.9220 N.ar  148  C148       -0.2535
   3189  C2       -54.8840   78.7870  -40.4830 C.ar  148  C148        0.3532
   3190  O2       -55.9950   79.3410  -40.4840 O.2   148  C148       -0.2443
   3191  N3       -54.7160   77.5020  -40.0850 N.ar  148  C148       -0.1739
   3192  C4       -53.4940   76.9640  -40.1150 C.ar  148  C148        0.1759
   3193  N4       -53.3630   75.7080  -39.7190 N.pl3 148  C148       -0.1070
   3194  C5       -52.3450   77.6790  -40.5530 C.ar  148  C148        0.0566
   3195  C6       -52.5210   78.9510  -40.9410 C.ar  148  C148        0.0850
   3196  OP1      -47.9540   82.2840  -41.5320 O.2   148  C148       -0.5172
   3197  OP2      -48.2660   79.7850  -40.9520 O.co2 148  C148       -0.4373
   3198  P        -52.4450   83.3030  -37.5910 P.3   149  G149        0.2141
   3199  C5'      -55.0170   83.2280  -37.1470 C.3   149  G149        0.1812
   3200  O5'      -53.7700   82.5600  -37.1300 O.3   149  G149       -0.3114
   3201  C4'      -56.0890   82.3620  -36.5620 C.3   149  G149        0.1773
   3202  O4'      -56.1580   81.1100  -37.2890 O.3   149  G149       -0.3307
   3203  C3'      -55.8670   81.9300  -35.1350 C.3   149  G149        0.1860
   3204  O3'      -56.1770   82.9470  -34.2010 O.3   149  G149       -0.3112
   3205  C2'      -56.7440   80.6810  -35.0350 C.3   149  G149        0.2309
   3206  O2'      -58.1190   81.0250  -34.9050 O.3   149  G149       -0.2156
   3207  C1'      -56.5400   80.0710  -36.4150 C.3   149  G149        0.2408
   3208  N1       -55.5330   75.3530  -35.1430 N.ar  149  G149       -0.1709
   3209  C2       -56.6810   76.0770  -34.9900 C.ar  149  G149        0.2606
   3210  N2       -57.7100   75.4430  -34.4210 N.pl3 149  G149       -0.0859
   3211  N3       -56.8080   77.3290  -35.3760 N.ar  149  G149       -0.1918
   3212  C4       -55.6640   77.7830  -35.9260 C.ar  149  G149        0.1723
   3213  C5       -54.4590   77.1440  -36.1210 C.ar  149  G149        0.1748
   3214  C6       -54.3440   75.8040  -35.7080 C.ar  149  G149        0.3023
   3215  O6       -53.3550   75.0600  -35.7910 O.2   149  G149       -0.2633
   3216  N7       -53.5320   77.9760  -36.7220 N.ar  149  G149       -0.2173
   3217  C8       -54.1960   79.1000  -36.8780 C.ar  149  G149        0.1817
   3218  N9       -55.4900   79.0420  -36.4160 N.ar  149  G149       -0.2693
   3219  OP1      -52.4240   84.6900  -37.0400 O.3   149  G149       -0.4373
   3220  OP2      -51.2570   82.4050  -37.3660 O.co2 149  G149       -0.5172
   3221  P        -55.4140   83.0190  -32.7930 P.3   150  G150        0.2141
   3222  C5'      -57.5750   81.8330  -31.9010 C.3   150  G150        0.1812
   3223  O5'      -56.1530   81.8840  -31.9540 O.3   150  G150       -0.3114
   3224  C4'      -58.0500   80.6240  -31.1450 C.3   150  G150        0.1773
   3225  O4'      -57.8920   79.4340  -31.9570 O.3   150  G150       -0.3307
   3226  C3'      -57.2770   80.3100  -29.8850 C.3   150  G150        0.1860
   3227  O3'      -57.6900   81.0900  -28.7980 O.3   150  G150       -0.3112
   3228  C2'      -57.5150   78.8210  -29.7010 C.3   150  G150        0.2309
   3229  O2'      -58.8220   78.5770  -29.1930 O.3   150  G150       -0.2156
   3230  C1'      -57.4760   78.3510  -31.1470 C.3   150  G150        0.2408
   3231  N1       -54.1390   74.5590  -31.8440 N.ar  150  G150       -0.1709
   3232  C2       -55.4260   74.5120  -31.3370 C.ar  150  G150        0.2606
   3233  N2       -55.8790   73.3000  -30.9700 N.pl3 150  G150       -0.0859
   3234  N3       -56.2150   75.5750  -31.1930 N.ar  150  G150       -0.1918
   3235  C4       -55.5960   76.7040  -31.6010 C.ar  150  G150        0.1723
   3236  C5       -54.3270   76.8620  -32.1180 C.ar  150  G150        0.1748
   3237  C6       -53.4890   75.7290  -32.2820 C.ar  150  G150        0.3023
   3238  O6       -52.3160   75.7100  -32.7380 O.2   150  G150       -0.2633
   3239  N7       -54.0670   78.1850  -32.4150 N.ar  150  G150       -0.2173
   3240  C8       -55.1640   78.8030  -32.0800 C.ar  150  G150        0.1817
   3241  N9       -56.1220   77.9640  -31.5720 N.ar  150  G150       -0.2693
   3242  OP1      -55.6980   84.3490  -32.2110 O.3   150  G150       -0.4373
   3243  OP2      -54.0070   82.6330  -33.0260 O.co2 150  G150       -0.5172
   3244  P        -56.6670   81.3890  -27.6240 P.3   151  A151        0.2141
   3245  C5'      -56.5790   79.8250  -25.6130 C.3   151  A151        0.1812
   3246  O5'      -57.3450   80.6530  -26.4320 O.3   151  A151       -0.3114
   3247  C4'      -57.2170   78.4940  -25.4320 C.3   151  A151        0.1773
   3248  O4'      -56.8960   77.6650  -26.5800 O.3   151  A151       -0.3307
   3249  C3'      -56.6800   77.7580  -24.2420 C.3   151  A151        0.1860
   3250  O3'      -57.5830   76.7370  -23.8790 O.3   151  A151       -0.3112
   3251  C2'      -55.4280   77.1480  -24.8100 C.3   151  A151        0.2309
   3252  O2'      -54.9170   76.0740  -24.0540 O.3   151  A151       -0.2156
   3253  C1'      -55.9050   76.7200  -26.2120 C.3   151  A151        0.2408
   3254  N1       -52.4500   74.2080  -29.1450 N.ar  151  A151       -0.2040
   3255  C2       -53.3820   73.7560  -28.3040 C.ar  151  A151        0.2016
   3256  N3       -54.2640   74.4410  -27.5790 N.ar  151  A151       -0.2048
   3257  C4       -54.1250   75.7600  -27.7800 C.ar  151  A151        0.1692
   3258  C5       -53.2010   76.3790  -28.6090 C.ar  151  A151        0.1518
   3259  C6       -52.3250   75.5420  -29.3160 C.ar  151  A151        0.1919
   3260  N6       -51.3910   76.0210  -30.1460 N.pl3 151  A151       -0.1054
   3261  N7       -53.3250   77.7650  -28.5700 N.ar  151  A151       -0.2193
   3262  C8       -54.3090   77.9400  -27.7200 C.ar  151  A151        0.1816
   3263  N9       -54.8440   76.7800  -27.2130 N.ar  151  A151       -0.2693
   3264  OP1      -56.6720   82.8560  -27.3820 O.3   151  A151       -0.4373
   3265  OP2      -55.3850   80.7200  -27.9730 O.co2 151  A151       -0.5172
   3266  P        -57.9330   76.5300  -22.3510 P.3   152  G152        0.2141
   3267  C5'      -56.8020   74.1990  -22.7000 C.3   152  G152        0.1812
   3268  O5'      -57.8830   74.9590  -22.1910 O.3   152  G152       -0.3114
   3269  C4'      -56.3680   73.1650  -21.7090 C.3   152  G152        0.1773
   3270  O4'      -55.9790   71.9780  -22.4300 O.3   152  G152       -0.3307
   3271  C3'      -55.2000   73.5840  -20.8440 C.3   152  G152        0.1860
   3272  O3'      -55.5930   73.8070  -19.4500 O.3   152  G152       -0.3112
   3273  C2'      -54.1170   72.4870  -21.0280 C.3   152  G152        0.2309
   3274  O2'      -53.6670   71.8750  -19.8360 O.3   152  G152       -0.2156
   3275  C1'      -54.7600   71.4550  -21.9600 C.3   152  G152        0.2408
   3276  N1       -51.6030   68.1140  -24.3140 N.ar  152  G152       -0.1709
   3277  C2       -52.1950   68.0320  -23.0740 C.ar  152  G152        0.2606
   3278  N2       -51.9350   66.9400  -22.3480 N.pl3 152  G152       -0.0859
   3279  N3       -52.9960   68.9580  -22.5610 N.ar  152  G152       -0.1918
   3280  C4       -53.1770   70.0040  -23.3980 C.ar  152  G152        0.1723
   3281  C5       -52.6310   70.1780  -24.6590 C.ar  152  G152        0.1748
   3282  C6       -51.7700   69.1800  -25.2010 C.ar  152  G152        0.3023
   3283  O6       -51.2030   69.1560  -26.3080 O.2   152  G152       -0.2633
   3284  N7       -53.0570   71.3710  -25.1980 N.ar  152  G152       -0.2173
   3285  C8       -53.8180   71.8910  -24.2700 C.ar  152  G152        0.1817
   3286  N9       -53.9430   71.1250  -23.1400 N.ar  152  G152       -0.2693
   3287  OP1      -59.3210   77.0060  -22.1530 O.2   152  G152       -0.5172
   3288  OP2      -56.8350   77.1640  -21.5760 O.co2 152  G152       -0.4373
   3289  P        -56.3500   72.7170  -18.5150 P.3   153  A153        0.2141
   3290  C5'      -58.8060   71.8380  -18.6390 C.3   153  A153        0.1812
   3291  O5'      -57.8980   72.9330  -18.8160 O.3   153  A153       -0.3114
   3292  C4'      -60.2380   72.1690  -19.0130 C.3   153  A153        0.1773
   3293  O4'      -60.7970   73.0830  -18.0320 O.3   153  A153       -0.3307
   3294  C3'      -60.4430   72.8240  -20.3750 C.3   153  A153        0.1860
   3295  O3'      -61.7170   72.4300  -20.9140 O.3   153  A153       -0.3112
   3296  C2'      -60.4920   74.3020  -20.0090 C.3   153  A153        0.2309
   3297  O2'      -61.1620   75.1100  -20.9420 O.3   153  A153       -0.2156
   3298  C1'      -61.2240   74.2650  -18.6680 C.3   153  A153        0.2408
   3299  N1       -62.9660   78.4800  -16.1890 N.ar  153  A153       -0.2040
   3300  C2       -63.5620   77.5860  -16.9950 C.ar  153  A153        0.2016
   3301  N3       -63.0580   76.5100  -17.6080 N.ar  153  A153       -0.2048
   3302  C4       -61.7560   76.3680  -17.3230 C.ar  153  A153        0.1692
   3303  C5       -61.0050   77.2040  -16.5150 C.ar  153  A153        0.1518
   3304  C6       -61.6530   78.3200  -15.9170 C.ar  153  A153        0.1919
   3305  N6       -61.0870   79.2280  -15.1020 N.pl3 153  A153       -0.1054
   3306  N7       -59.7030   76.7320  -16.4680 N.ar  153  A153       -0.2193
   3307  C8       -59.6920   75.6640  -17.2240 C.ar  153  A153        0.1816
   3308  N9       -60.9080   75.3870  -17.7830 N.ar  153  A153       -0.2693
   3309  OP1      -56.0600   73.1030  -17.1150 O.3   153  A153       -0.4373
   3310  OP2      -55.9500   71.3660  -18.9690 O.co2 153  A153       -0.5172
   3311  P        -61.9200   70.9970  -21.6550 P.3   154  G154        0.2141
   3312  C5'      -61.0010   72.0770  -23.8460 C.3   154  G154        0.1812
   3313  O5'      -60.8860   71.0690  -22.8580 O.3   154  G154       -0.3114
   3314  C4'      -59.9500   71.9240  -24.9060 C.3   154  G154        0.1773
   3315  O4'      -58.6400   71.8910  -24.2860 O.3   154  G154       -0.3307
   3316  C3'      -60.0030   70.6410  -25.7190 C.3   154  G154        0.1860
   3317  O3'      -60.9630   70.6830  -26.7620 O.3   154  G154       -0.3112
   3318  C2'      -58.5730   70.5200  -26.2200 C.3   154  G154        0.2309
   3319  O2'      -58.3540   71.4090  -27.3080 O.3   154  G154       -0.2156
   3320  C1'      -57.7880   71.0310  -25.0110 C.3   154  G154        0.2408
   3321  N1       -54.6710   67.0640  -24.4620 N.ar  154  G154       -0.1709
   3322  C2       -54.8260   67.9170  -25.5230 C.ar  154  G154        0.2606
   3323  N2       -54.0450   67.6900  -26.5870 N.pl3 154  G154       -0.0859
   3324  N3       -55.6740   68.9250  -25.5350 N.ar  154  G154       -0.1918
   3325  C4       -56.3770   69.0040  -24.3850 C.ar  154  G154        0.1723
   3326  C5       -56.3060   68.2030  -23.2650 C.ar  154  G154        0.1748
   3327  C6       -55.3770   67.1250  -23.2630 C.ar  154  G154        0.3023
   3328  O6       -55.1410   66.2850  -22.3740 O.2   154  G154       -0.2633
   3329  N7       -57.2100   68.6270  -22.3000 N.ar  154  G154       -0.2173
   3330  C8       -57.7990   69.6530  -22.8490 C.ar  154  G154        0.1817
   3331  N9       -57.3470   69.9360  -24.1170 N.ar  154  G154       -0.2693
   3332  OP1      -63.3080   70.9820  -22.1920 O.2   154  G154       -0.5172
   3333  OP2      -61.5140   69.9300  -20.6960 O.co2 154  G154       -0.4373
   3334  P        -61.8120   69.3630  -27.1430 P.3   155  C155        0.2141
   3335  C5'      -59.9750   68.9050  -28.9450 C.3   155  C155        0.1812
   3336  O5'      -60.7310   68.4350  -27.8440 O.3   155  C155       -0.3114
   3337  C4'      -58.9050   67.9250  -29.3130 C.3   155  C155        0.1773
   3338  O4'      -57.8770   67.9270  -28.3000 O.3   155  C155       -0.3307
   3339  C3'      -59.3470   66.4780  -29.3790 C.3   155  C155        0.1860
   3340  O3'      -59.9960   66.1580  -30.5920 O.3   155  C155       -0.3112
   3341  C2'      -58.0470   65.7220  -29.1600 C.3   155  C155        0.2309
   3342  O2'      -57.2590   65.6890  -30.3490 O.3   155  C155       -0.2156
   3343  C1'      -57.3540   66.6250  -28.1450 C.3   155  C155        0.2420
   3344  N1       -57.5970   66.1790  -26.7660 N.ar  155  C155       -0.2535
   3345  C2       -56.9880   64.9960  -26.3810 C.ar  155  C155        0.3532
   3346  O2       -56.2770   64.3950  -27.1940 O.2   155  C155       -0.2443
   3347  N3       -57.1810   64.5290  -25.1370 N.ar  155  C155       -0.1739
   3348  C4       -57.9410   65.2020  -24.2880 C.ar  155  C155        0.1759
   3349  N4       -58.0830   64.6950  -23.0650 N.pl3 155  C155       -0.1070
   3350  C5       -58.5790   66.4160  -24.6510 C.ar  155  C155        0.0566
   3351  C6       -58.3850   66.8660  -25.8950 C.ar  155  C155        0.0850
   3352  OP1      -62.8360   69.7830  -28.1370 O.2   155  C155       -0.5172
   3353  OP2      -62.2630   68.7300  -25.8610 O.co2 155  C155       -0.4373
   3354  P        -61.1150   65.0120  -30.6340 P.3   156  C156        0.2141
   3355  C5'      -59.5570   63.1130  -31.4750 C.3   156  C156        0.1812
   3356  O5'      -60.2680   63.6930  -30.4060 O.3   156  C156       -0.3114
   3357  C4'      -58.9630   61.8000  -31.0740 C.3   156  C156        0.1773
   3358  O4'      -58.0700   61.9970  -29.9460 O.3   156  C156       -0.3307
   3359  C3'      -59.9440   60.7540  -30.5810 C.3   156  C156        0.1860
   3360  O3'      -60.6320   60.0910  -31.6320 O.3   156  C156       -0.3112
   3361  C2'      -59.0450   59.8470  -29.7500 C.3   156  C156        0.2309
   3362  O2'      -58.2540   59.0100  -30.5880 O.3   156  C156       -0.2156
   3363  C1'      -58.1260   60.8750  -29.0930 C.3   156  C156        0.2420
   3364  N1       -58.6490   61.3100  -27.7940 N.ar  156  C156       -0.2535
   3365  C2       -58.4810   60.4280  -26.7320 C.ar  156  C156        0.3532
   3366  O2       -57.9030   59.3490  -26.9430 O.2   156  C156       -0.2443
   3367  N3       -58.9510   60.7750  -25.5140 N.ar  156  C156       -0.1739
   3368  C4       -59.5700   61.9440  -25.3550 C.ar  156  C156        0.1759
   3369  N4       -60.0190   62.2230  -24.1330 N.pl3 156  C156       -0.1070
   3370  C5       -59.7520   62.8690  -26.4310 C.ar  156  C156        0.0566
   3371  C6       -59.2830   62.5120  -27.6340 C.ar  156  C156        0.0850
   3372  OP1      -61.6800   65.0220  -32.0040 O.2   156  C156       -0.5172
   3373  OP2      -62.0280   65.2360  -29.4700 O.co2 156  C156       -0.4373
   3374  P        -62.1180   59.5040  -31.3960 P.3   157  G157        0.2141
   3375  C5'      -60.9960   57.2300  -30.7710 C.3   157  G157        0.1812
   3376  O5'      -61.8570   58.2950  -30.3990 O.3   157  G157       -0.3114
   3377  C4'      -60.8860   56.2110  -29.6790 C.3   157  G157        0.1773
   3378  O4'      -60.1630   56.7660  -28.5520 O.3   157  G157       -0.3307
   3379  C3'      -62.1930   55.7660  -29.0680 C.3   157  G157        0.1860
   3380  O3'      -62.9020   54.8550  -29.8830 O.3   157  G157       -0.3112
   3381  C2'      -61.7400   55.1860  -27.7430 C.3   157  G157        0.2309
   3382  O2'      -61.1470   53.9100  -27.9420 O.3   157  G157       -0.2156
   3383  C1'      -60.6370   56.1720  -27.3590 C.3   157  G157        0.2408
   3384  N1       -61.8200   57.2040  -22.5480 N.ar  157  G157       -0.1709
   3385  C2       -61.3920   56.0300  -23.1260 C.ar  157  G157        0.2606
   3386  N2       -61.2440   54.9680  -22.3040 N.pl3 157  G157       -0.0859
   3387  N3       -61.1290   55.9170  -24.4240 N.ar  157  G157       -0.1918
   3388  C4       -61.3220   57.0690  -25.0950 C.ar  157  G157        0.1723
   3389  C5       -61.7420   58.2870  -24.6070 C.ar  157  G157        0.1748
   3390  C6       -62.0280   58.4090  -23.2120 C.ar  157  G157        0.3023
   3391  O6       -62.4170   59.3900  -22.5570 O.2   157  G157       -0.2633
   3392  N7       -61.8010   59.2100  -25.6460 N.ar  157  G157       -0.2173
   3393  C8       -61.4270   58.5450  -26.7130 C.ar  157  G157        0.1817
   3394  N9       -61.1200   57.2330  -26.4460 N.ar  157  G157       -0.2693
   3395  OP1      -62.5940   58.9870  -32.7010 O.2   157  G157       -0.5172
   3396  OP2      -62.9150   60.5580  -30.7120 O.co2 157  G157       -0.4373
   3397  P        -64.5120   54.8900  -29.9180 P.3   158  U158        0.2141
   3398  C5'      -64.1160   52.7320  -28.5190 C.3   158  U158        0.1812
   3399  O5'      -64.8960   53.8860  -28.7520 O.3   158  U158       -0.3114
   3400  C4'      -64.4060   52.1650  -27.1710 C.3   158  U158        0.1773
   3401  O4'      -63.6310   52.8670  -26.1710 O.3   158  U158       -0.3307
   3402  C3'      -65.8300   52.3330  -26.6910 C.3   158  U158        0.1860
   3403  O3'      -66.7280   51.4090  -27.2720 O.3   158  U158       -0.3112
   3404  C2'      -65.6730   52.1910  -25.1870 C.3   158  U158        0.2309
   3405  O2'      -65.4530   50.8370  -24.8250 O.3   158  U158       -0.2156
   3406  C1'      -64.3750   52.9540  -24.9720 C.3   158  U158        0.2420
   3407  N1       -64.6270   54.3750  -24.6640 N.ar  158  U158       -0.2534
   3408  C2       -64.9300   54.6050  -23.3440 C.ar  158  U158        0.3546
   3409  O2       -64.9640   53.7090  -22.5230 O.2   158  U158       -0.2443
   3410  N3       -65.1800   55.9050  -23.0120 N.ar  158  U158       -0.1530
   3411  C4       -65.1690   56.9810  -23.8700 C.ar  158  U158        0.2846
   3412  O4       -65.4200   58.0970  -23.4120 O.2   158  U158       -0.2650
   3413  C5       -64.8580   56.6640  -25.2340 C.ar  158  U158        0.0814
   3414  C6       -64.6050   55.3980  -25.5850 C.ar  158  U158        0.0870
   3415  OP1      -64.9320   54.3330  -31.2310 O.2   158  U158       -0.5172
   3416  OP2      -64.9390   56.2740  -29.5540 O.co2 158  U158       -0.4373
   3417  P        -68.3010   51.5150  -26.9740 P.3   159  C159        0.2141
   3418  C5'      -69.6070   51.0320  -24.7610 C.3   159  C159        0.1812
   3419  O5'      -68.4060   50.9310  -25.4930 O.3   159  C159       -0.3114
   3420  C4'      -69.3520   51.1930  -23.2900 C.3   159  C159        0.1773
   3421  O4'      -68.2100   52.0590  -23.0790 O.3   159  C159       -0.3307
   3422  C3'      -70.4630   51.8730  -22.5140 C.3   159  C159        0.1860
   3423  O3'      -71.5280   51.0120  -22.2070 O.3   159  C159       -0.3112
   3424  C2'      -69.7430   52.4270  -21.3020 C.3   159  C159        0.2309
   3425  O2'      -69.4430   51.3930  -20.3760 O.3   159  C159       -0.2156
   3426  C1'      -68.4400   52.8910  -21.9490 C.3   159  C159        0.2420
   3427  N1       -68.5180   54.3080  -22.4110 N.ar  159  C159       -0.2535
   3428  C2       -68.7540   55.3590  -21.4930 C.ar  159  C159        0.3532
   3429  O2       -68.9210   55.1180  -20.2810 O.2   159  C159       -0.2443
   3430  N3       -68.8080   56.6390  -21.9550 N.ar  159  C159       -0.1739
   3431  C4       -68.6330   56.8920  -23.2610 C.ar  159  C159        0.1759
   3432  N4       -68.6940   58.1640  -23.6590 N.pl3 159  C159       -0.1070
   3433  C5       -68.3900   55.8520  -24.2120 C.ar  159  C159        0.0566
   3434  C6       -68.3440   54.5940  -23.7450 C.ar  159  C159        0.0850
   3435  OP1      -68.9830   50.6080  -27.9370 O.2   159  C159       -0.5172
   3436  OP2      -68.6630   52.9610  -26.9730 O.co2 159  C159       -0.4373
   3437  P        -72.9700   51.2820  -22.8510 P.3   160  C160        0.2141
   3438  C5'      -73.5630   51.7630  -20.3390 C.3   160  C160        0.1812
   3439  O5'      -73.6940   52.1280  -21.7060 O.3   160  C160       -0.3114
   3440  C4'      -73.8000   52.9390  -19.4220 C.3   160  C160        0.1773
   3441  O4'      -72.7050   53.8800  -19.5340 O.3   160  C160       -0.3307
   3442  C3'      -75.0400   53.7770  -19.7110 C.3   160  C160        0.1860
   3443  O3'      -76.2290   53.2050  -19.1900 O.3   160  C160       -0.3112
   3444  C2'      -74.6920   55.1340  -19.0990 C.3   160  C160        0.2309
   3445  O2'      -74.9250   55.1350  -17.6980 O.3   160  C160       -0.2156
   3446  C1'      -73.1820   55.2020  -19.3350 C.3   160  C160        0.2420
   3447  N1       -72.8170   56.0280  -20.5180 N.ar  160  C160       -0.2535
   3448  C2       -72.7790   57.4370  -20.4550 C.ar  160  C160        0.3532
   3449  O2       -73.0940   58.0260  -19.4130 O.2   160  C160       -0.2443
   3450  N3       -72.4000   58.1440  -21.5480 N.ar  160  C160       -0.1739
   3451  C4       -72.0590   57.5080  -22.6830 C.ar  160  C160        0.1759
   3452  N4       -71.6900   58.2310  -23.7690 N.pl3 160  C160       -0.1070
   3453  C5       -72.0860   56.0760  -22.7590 C.ar  160  C160        0.0566
   3454  C6       -72.4570   55.3870  -21.6720 C.ar  160  C160        0.0850
   3455  OP1      -73.6240   49.9590  -23.0040 O.3   160  C160       -0.4373
   3456  OP2      -72.7660   52.1270  -24.0670 O.co2 160  C160       -0.5172
   3457  P        -77.3730   52.6730  -20.1850 P.3   161  A161        0.2141
   3458  C5'      -79.0150   54.3620  -19.0340 C.3   161  A161        0.1813
   3459  O5'      -78.3980   53.8910  -20.2220 O.3   161  A161       -0.3114
   3460  C4'      -79.0480   55.8680  -18.9960 C.3   161  A161        0.1801
   3461  O4'      -77.7110   56.3810  -19.2200 O.3   161  A161       -0.3306
   3462  C3'      -79.8920   56.5490  -20.0720 C.3   161  A161        0.2161
   3463  O3'      -81.2820   56.5900  -19.7590 O.3   161  A161       -0.2175
   3464  C2'      -79.2430   57.9260  -20.1870 C.3   161  A161        0.2337
   3465  O2'      -79.6700   58.7810  -19.1330 O.3   161  A161       -0.2155
   3466  C1'      -77.7680   57.5840  -19.9620 C.3   161  A161        0.2409
   3467  N1       -74.8480   59.9050  -23.5120 N.ar  161  A161       -0.2040
   3468  C2       -75.4170   60.3280  -22.3750 C.ar  161  A161        0.2016
   3469  N3       -76.1670   59.6630  -21.5040 N.ar  161  A161       -0.2048
   3470  C4       -76.3210   58.3840  -21.8980 C.ar  161  A161        0.1692
   3471  C5       -75.7890   57.7910  -23.0410 C.ar  161  A161        0.1518
   3472  C6       -75.0100   58.6200  -23.8880 C.ar  161  A161        0.1919
   3473  N6       -74.4190   58.2380  -25.0280 N.pl3 161  A161       -0.1054
   3474  N7       -76.1660   56.4470  -23.1010 N.ar  161  A161       -0.2193
   3475  C8       -76.8960   56.2680  -22.0180 C.ar  161  A161        0.1816
   3476  N9       -77.0330   57.3990  -21.2370 N.ar  161  A161       -0.2693
   3477  OP1      -78.0050   51.4980  -19.5340 O.3   161  A161       -0.4373
   3478  OP2      -76.7460   52.4980  -21.5230 O.co2 161  A161       -0.5172
@<TRIPOS>BOND
     1  3100  3101   ar
     2  3100  3099   ar
     3  3101  3102   ar
     4  3099  3104   ar
     5  3102  3103   ar
     6  3102  3108   ar
     7  3104  3105    1
     8  3104  3103   ar
     9  3097  3096    1
    10  3098  3108    1
    11  3098  3093    1
    12  3098  3096    1
    13  3103  3106   ar
    14  3108  3107   ar
    15  3093  3092    1
    16  3096  3094    1
    17  3106  3107   ar
    18  3122  3123   ar
    19  3122  3121   ar
    20  3123  3124   ar
    21  3092  3094    1
    22  3092  3090    1
    23  3115  3120    1
    24  3115  3114    1
    25  3121  3126   ar
    26  3119  3118    1
    27  3120  3130    1
    28  3120  3118    1
    29  3094  3095    1
    30  3124  3130   ar
    31  3124  3125   ar
    32  3095  3111    1
    33  3114  3112    1
    34  3114  3116    1
    35  3130  3129   ar
    36  3090  3091    1
    37  3126  3125   ar
    38  3126  3127    1
    39  3118  3116    1
    40  3125  3128   ar
    41  3112  3113    1
    42  3091  3089    1
    43  3109  3089    2
    44  3137  3142    1
    45  3137  3136    1
    46  3116  3117    1
    47  3129  3128   ar
    48  3117  3133    1
    49  3145  3144   ar
    50  3145  3146   ar
    51  3142  3152    1
    52  3142  3140    1
    53  3111  3113    1
    54  3111  3131    2
    55  3111  3132    1
    56  3141  3140    1
    57  3136  3134    1
    58  3136  3138    1
    59  3089  3072    1
    60  3089  3110    1
    61  3144  3143   ar
    62  3134  3135    1
    63  3146  3152   ar
    64  3146  3147   ar
    65  3152  3151   ar
    66  3072  3071    1
    67  3140  3138    1
    68  3143  3148   ar
    69  3074  3073    1
    70  3153  3133    2
    71  3133  3135    1
    72  3133  3154    1
    73  3138  3139    1
    74  3147  3148   ar
    75  3147  3150   ar
    76  3151  3150   ar
    77  3139  3155    1
    78  3148  3149    1
    79  3073  3071    1
    80  3073  3075    1
    81  3071  3069    1
    82  3069  3067    1
    83  3069  3070    1
    84  3078  3077    1
    85  3155  3176    2
    86  3155  3157    1
    87  3155  3177    1
    88  3075  3070    1
    89  3075  3086    1
    90  3079  3077   ar
    91  3079  3080   ar
    92  3077  3076   ar
    93  3157  3156    1
    94  3067  3068    1
    95  3080  3086   ar
    96  3080  3081   ar
    97  3159  3164    1
    98  3159  3158    1
    99  3086  3085   ar
   100  3076  3082   ar
   101  3068  3066    1
   102  3087  3066    2
   103  3164  3175    1
   104  3164  3162    1
   105  3158  3156    1
   106  3158  3160    1
   107  3081  3082   ar
   108  3081  3084   ar
   109  3163  3162    1
   110  3085  3084   ar
   111  3082  3083    2
   112  3175  3174   ar
   113  3175  3169   ar
   114  3066  3088    1
   115  3066  3052    1
   116  3174  3173   ar
   117  3162  3160    1
   118  3169  3168   ar
   119  3169  3170   ar
   120  3168  3166   ar
   121  3173  3170   ar
   122  3160  3161    1
   123  3170  3171   ar
   124  3166  3167    1
   125  3166  3165   ar
   126  3161  3178    1
   127  3052  3051    1
   128  3171  3165   ar
   129  3171  3172    2
   130  3054  3053    1
   131  3053  3051    1
   132  3053  3055    1
   133  3058  3057    2
   134  3051  3049    1
   135  3182  3181    1
   136  3182  3187    1
   137  3059  3057   ar
   138  3059  3060   ar
   139  3057  3056   ar
   140  3178  3196    2
   141  3178  3180    1
   142  3178  3197    1
   143  3179  3181    1
   144  3179  3180    1
   145  3061  3060    1
   146  3181  3183    1
   147  3060  3062   ar
   148  3187  3188    1
   149  3187  3185    1
   150  3055  3056    1
   151  3055  3050    1
   152  3056  3063   ar
   153  3195  3188   ar
   154  3195  3194   ar
   155  3188  3189   ar
   156  3049  3050    1
   157  3049  3047    1
   158  3062  3063   ar
   159  3194  3192   ar
   160  3186  3185    1
   161  3190  3189    2
   162  3189  3191   ar
   163  3048  3047    1
   164  3048  3046    1
   165  3185  3183    1
   166  3192  3191   ar
   167  3192  3193    1
   168  3183  3184    1
   169  3065  3046    2
   170  3064  3046    1
   171  3046  3029    1
   172  2938  2920    2
   173  3184  3198    1
   174  3040  3039    2
   175  3033  3039   ar
   176  3033  3034   ar
   177  3035  3034    1
   178  3039  3038   ar
   179  3034  3036   ar
   180  2958  2940    2
   181  2920  2904    1
   182  2920  2939    1
   183  2920  2922    1
   184  2918  2898    2
   185  3029  3028    1
   186  2904  2903    1
   187  3038  3037   ar
   188  3038  3041   ar
   189  3036  3037   ar
   190  3198  3220    2
   191  3198  3200    1
   192  3198  3219    1
   193  3028  3030    1
   194  3028  3026    1
   195  3037  3043   ar
   196  2899  2901    1
   197  2899  2900    1
   198  3041  3042   ar
   199  3202  3201    1
   200  3202  3207    1
   201  3030  3031    1
   202  3030  3032    1
   203  2959  2940    1
   204  3199  3200    1
   205  3199  3201    1
   206  2921  2922    1
   207  2921  2923    1
   208  2940  2926    1
   209  2940  2942    1
   210  2901  2903    1
   211  2901  2902    1
   212  3045  3023    2
   213  3217  3216   ar
   214  3217  3218   ar
   215  3043  3042   ar
   216  3043  3032    1
   217  2903  2905    1
   218  3216  3213   ar
   219  2898  2900    1
   220  2898  2884    1
   221  2898  2919    1
   222  2906  2905    1
   223  3201  3203    1
   224  2926  2925    1
   225  3025  3023    1
   226  3025  3024    1
   227  3218  3207    1
   228  3218  3212   ar
   229  3207  3205    1
   230  3044  3023    1
   231  3023  3009    1
   232  3032  3027    1
   233  3213  3212   ar
   234  3213  3214   ar
   235  3026  3024    1
   236  3026  3027    1
   237  2884  2883    1
   238  2923  2925    1
   239  2923  2924    1
   240  3212  3211   ar
   241  2981  2960    2
   242  2982  2960    1
   243  2905  2907    1
   244  2942  2941    1
   245  3215  3214    2
   246  3214  3208   ar
   247  2902  2907    1
   248  3018  3017    1
   249  2925  2927    1
   250  3211  3209   ar
   251  2941  2943    1
   252  3208  3209   ar
   253  3203  3205    1
   254  3203  3204    1
   255  2960  2946    1
   256  2960  2962    1
   257  3205  3206    1
   258  3017  3019   ar
   259  3017  3016   ar
   260  3209  3210    1
   261  2907  2917    1
   262  2886  2885    1
   263  3002  2983    2
   264  3022  3003    2
   265  3019  3020   ar
   266  2924  2929    1
   267  3009  3008    1
   268  2883  2881    1
   269  2883  2885    1
   270  3016  3014   ar
   271  2927  2928    1
   272  2927  2929    1
   273  2946  2945    1
   274  3204  3221    1
   275  2896  2878    2
   276  2998  2997    2
   277  3008  3010    1
   278  3008  3006    1
   279  3020  3013   ar
   280  2881  2879    1
   281  2881  2882    1
   282  2885  2887    1
   283  3021  3003    1
   284  3005  3003    1
   285  3005  3004    1
   286  2879  2880    1
   287  3001  2983    1
   288  2962  2961    1
   289  3003  2989    1
   290  2943  2945    1
   291  2943  2944    1
   292  2945  2947    1
   293  3014  3013   ar
   294  3014  3015    2
   295  2937  2936   ar
   296  2937  2930   ar
   297  2983  2985    1
   298  2983  2966    1
   299  2917  2916   ar
   300  2917  2911   ar
   301  2929  2930    1
   302  3010  3012    1
   303  3010  3011    1
   304  3013  3012    1
   305  2999  2997   ar
   306  2999  3000   ar
   307  2997  2996   ar
   308  2956  2957   ar
   309  2956  2954   ar
   310  3004  3006    1
   311  2916  2915   ar
   312  2957  2950   ar
   313  2936  2934   ar
   314  2880  2878    1
   315  2961  2963    1
   316  2930  2931   ar
   317  3243  3221    2
   318  2944  2949    1
   319  3006  3007    1
   320  2985  2984    1
   321  2878  2864    1
   322  2878  2897    1
   323  2882  2887    1
   324  3012  3007    1
   325  2910  2911   ar
   326  2910  2909   ar
   327  3221  3242    1
   328  3221  3223    1
   329  2911  2912   ar
   330  3000  2993   ar
   331  2887  2888    1
   332  3238  3237    2
   333  3395  3374    2
   334  2966  2965    1
   335  2996  2994   ar
   336  2978  2979   ar
   337  2978  2975   ar
   338  2989  2988    1
   339  3239  3236   ar
   340  3239  3240   ar
   341  2979  2980   ar
   342  2947  2949    1
   343  2947  2948    1
   344  2965  2963    1
   345  2965  2967    1
   346  2954  2955    2
   347  2954  2953   ar
   348  3237  3236   ar
   349  3237  3231   ar
   350  2988  2990    1
   351  2988  2986    1
   352  2950  2949    1
   353  2950  2951   ar
   354  2864  2863    1
   355  3236  3235   ar
   356  3240  3241   ar
   357  2915  2912   ar
   358  3372  3354    2
   359  2963  2964    1
   360  3225  3230    1
   361  3225  3224    1
   362  3223  3222    1
   363  2993  2994   ar
   364  2993  2992    1
   365  3222  3224    1
   366  2934  2935    1
   367  2934  2933   ar
   368  3231  3232   ar
   369  2994  2995    2
   370  2931  2932    2
   371  2931  2933   ar
   372  2912  2913   ar
   373  2909  2908   ar
   374  2984  2986    1
   375  2977  2976    2
   376  3360  3374    1
   377  3360  3359    1
   378  2890  2889    2
   379  2866  2865    1
   380  2990  2992    1
   381  2990  2991    1
   382  2888  2889   ar
   383  2888  2895   ar
   384  3235  3241   ar
   385  3235  3234   ar
   386  3241  3230    1
   387  3355  3357    1
   388  3355  3356    1
   389  2975  2976   ar
   390  2975  2974   ar
   391  3374  3396    1
   392  3374  3376    1
   393  3232  3234   ar
   394  3232  3233    1
   395   201   180    2
   396  2953  2951   ar
   397  3415  3397    2
   398  2980  2969    1
   399  2980  2974   ar
   400  2964  2969    1
   401  2986  2987    1
   402  3230  3228    1
   403  3224  3226    1
   404  2951  2952    2
   405  2976  2970   ar
   406  2889  2891   ar
   407  3357  3359    1
   408  3357  3358    1
   409  2895  2894   ar
   410  2967  2969    1
   411  2967  2968    1
   412  2992  2987    1
   413  2863  2865    1
   414  2863  2861    1
   415  2865  2867    1
   416  3375  3376    1
   417  3375  3377    1
   418  2908  2913   ar
   419  2913  2914    1
   420  2974  2973   ar
   421  3354  3340    1
   422  3354  3356    1
   423  3354  3373    1
   424  3340  3339    1
   425  3362  3361    1
   426  3359  3361    1
   427   202   180    1
   428  2459  2458    1
   429  3342  3341    1
   430   180   182    1
   431   180   163    1
   432  3260  3259    1
   433   222   203    2
   434  2891  2892   ar
   435  2861  2859    1
   436  2861  2862    1
   437  2894  2892   ar
   438  3358  3363    1
   439  2970  2971   ar
   440  3397  3380    1
   441  3397  3416    1
   442  3397  3399    1
   443  3226  3228    1
   444  3226  3227    1
   445  3380  3379    1
   446  3361  3363    1
   447  3228  3229    1
   448  3377  3379    1
   449  3377  3378    1
   450  2478  2477    1
   451  2395  2394    2
   452  2436  2435    1
   453   218   217    1
   454  2892  2893    1
   455  2973  2971   ar
   456  2859  2860    1
   457  2413  2412    1
   458  3339  3337    1
   459  3339  3341    1
   460  2458  2460   ar
   461  2458  2457   ar
   462   182   181    1
   463  2867  2862    1
   464  2867  2868    1
   465  3259  3254   ar
   466  3259  3258   ar
   467  3337  3335    1
   468  3337  3338    1
   469   219   217   ar
   470   219   220   ar
   471  2482  2481    1
   472   163   162    1
   473  2971  2972    1
   474  3341  3343    1
   475  3254  3255   ar
   476  3363  3364    1
   477  3379  3381    1
   478  2870  2869    2
   479  3335  3336    1
   480  2460  2461   ar
   481  2457  2463   ar
   482   181   183    1
   483  3227  3244    1
   484  2860  2858    1
   485   203   205    1
   486   203   221    1
   487   203   186    1
   488  3399  3398    1
   489   217   216   ar
   490  2411  2412   ar
   491  2411  2417   ar
   492  2394  2388   ar
   493  2394  2393   ar
   494  2388  2389   ar
   495  3258  3261   ar
   496  3258  3257   ar
   497   160   158    1
   498   160   162    1
   499   160   161    1
   500  2479  2474    1
   501  2479  2477    1
   502  2479  2490    1
   503  2483  2481   ar
   504  2483  2484   ar
   505  3261  3262   ar
   506  3378  3383    1
   507   205   204    1
   508   143   142    1
   509  3398  3400    1
   510  2474  2473    1
   511   158   159    1
   512  2412  2414   ar
   513  2868  2869   ar
   514  2868  2875   ar
   515  2435  2434   ar
   516  2435  2437   ar
   517   220   213   ar
   518  2869  2871   ar
   519  2481  2480   ar
   520  2876  2858    2
   521  2477  2475    1
   522  2434  2440   ar
   523  3255  3256   ar
   524  3338  3343    1
   525  2497  2496    1
   526  2497  2502    1
   527   185   183    1
   528   185   186    1
   529   185   187    1
   530   162   164    1
   531  2418  2417    2
   532  3343  3344    1
   533  3352  3334    2
   534  2455  2454    1
   535  2496  2494    1
   536  2496  2498    1
   537  2473  2475    1
   538  2473  2471    1
   539  2501  2500    1
   540  3265  3244    2
   541  3382  3381    1
   542  3435  3417    2
   543  2494  2495    1
   544   161   166    1
   545  2417  2416   ar
   546  3336  3334    1
   547  2390  2389    1
   548  3364  3371   ar
   549  3364  3365   ar
   550  3257  3256   ar
   551  3257  3263   ar
   552   183   184    1
   553  3381  3383    1
   554  2858  2877    1
   555  2858  2842    1
   556  3262  3263   ar
   557  2875  2874   ar
   558  2461  2462   ar
   559  2461  2467   ar
   560   204   206    1
   561  2389  2391   ar
   562  2502  2500    1
   563  2502  2503    1
   564  3371  3370   ar
   565  2484  2490   ar
   566  2484  2485   ar
   567  3244  3264    1
   568  3244  3246    1
   569  2463  2464    2
   570  2463  2462   ar
   571  2871  2872   ar
   572  2490  2489   ar
   573   178   157    2
   574  2393  2396   ar
   575  2393  2392   ar
   576   187   188    1
   577   187   189    1
   578  2475  2476    1
   579  2476  2493    1
   580  2437  2438   ar
   581   216   214   ar
   582   141   157    1
   583   141   140    1
   584  3383  3394    1
   585  2414  2415   ar
   586  2480  2486   ar
   587  3319  3318    1
   588  2441  2440    2
   589   166   164    1
   590   166   177    1
   591  3403  3417    1
   592  3403  3402    1
   593  2440  2439   ar
   594  2456  2454    1
   595  2456  2467    1
   596  2456  2451    1
   597  3263  3253    1
   598  3346  3345    2
   599  3400  3402    1
   600  3400  3401    1
   601  3334  3317    1
   602  3334  3353    1
   603  2454  2452    1
   604  2396  2397   ar
   605   159   157    1
   606   142   144    1
   607   142   140    1
   608  2471  2472    1
   609   213   214   ar
   610   213   212    1
   611  2500  2498    1
   612  2462  2465   ar
   613  3417  3436    1
   614  3417  3419    1
   615   164   165    1
   616  3366  3365    2
   617  2874  2872   ar
   618  2467  2466   ar
   619  2872  2873    1
   620  2498  2499    1
   621  2505  2504    2
   622   207   206    1
   623   207   212    1
   624   138   140    1
   625   138   139    1
   626   138   136    1
   627   157   179    1
   628  3344  3345   ar
   629  3344  3351   ar
   630  3317  3316    1
   631  2499  2513    1
   632  3365  3367   ar
   633   144   139    1
   634   144   154    1
   635  3393  3394   ar
   636  3393  3392   ar
   637  2416  2415   ar
   638  2416  2419   ar
   639  2842  2841    1
   640  3402  3404    1
   641  2391  2392   ar
   642  2495  2493    1
   643  2392  2398   ar
   644  2503  2504   ar
   645  2503  2510   ar
   646  3323  3322    1
   647   184   189    1
   648  3248  3253    1
   649  3248  3247    1
   650   214   215    2
   651  2485  2486   ar
   652  2485  2488   ar
   653  2415  2421   ar
   654  2489  2488   ar
   655  3394  3388   ar
   656  3246  3245    1
   657  3370  3368   ar
   658   206   208    1
   659  2844  2843    1
   660  3345  3347   ar
   661  2438  2439   ar
   662  2438  2444   ar
   663  2511  2493    2
   664   147   146   ar
   665   147   148   ar
   666  2486  2487    2
   667  3283  3282    2
   668  2451  2450    1
   669  2504  2506   ar
   670  2493  2512    1
   671   124   123    1
   672  3318  3316    1
   673  3318  3320    1
   674  2439  2442   ar
   675  3253  3251    1
   676   189   200    1
   677  3401  3406    1
   678   212   210    1
   679   177   176   ar
   680   177   171   ar
   681  2397  2398   ar
   682  2510  2509   ar
   683  2843  2841    1
   684  2843  2845    1
   685  3351  3350   ar
   686   146   145   ar
   687   176   175   ar
   688  2465  2466   ar
   689  2472  2470    1
   690   136   137    1
   691   120   119    1
   692  3316  3314    1
   693  2452  2450    1
   694  2452  2453    1
   695   210   208    1
   696   210   211    1
   697  3392  3389   ar
   698  2398  2387    1
   699  2841  2839    1
   700  2450  2448    1
   701  2419  2420   ar
   702  3245  3247    1
   703  3414  3413   ar
   704  3414  3407   ar
   705  2534  2513    2
   706  3324  3322   ar
   707  3324  3325   ar
   708  3322  3321   ar
   709  3367  3368   ar
   710  2517  2516    1
   711  2517  2522    1
   712  3419  3418    1
   713   154   148   ar
   714   154   153   ar
   715   199   200   ar
   716   199   198   ar
   717  2453  2470    1
   718   200   194   ar
   719  3247  3249    1
   720   208   209    1
   721   148   149   ar
   722  3368  3369    1
   723  2514  2516    1
   724  2514  2515    1
   725  2513  2515    1
   726  2513  2535    1
   727  2506  2507   ar
   728  2421  2420   ar
   729  2421  2410    1
   730  3413  3411   ar
   731  2444  2433    1
   732  2444  2443   ar
   733  3282  3281   ar
   734  3282  3276   ar
   735  3284  3281   ar
   736  3284  3285   ar
   737  3404  3406    1
   738  3404  3405    1
   739  3347  3348   ar
   740  2847  2848   ar
   741  2847  2846   ar
   742  3388  3389   ar
   743  3388  3387   ar
   744   171   170   ar
   745   171   172   ar
   746  2516  2518    1
   747   123   125   ar
   748   123   122   ar
   749  3473  3472    1
   750  2848  2849   ar
   751  3320  3315    1
   752  3320  3331    1
   753  2442  2443   ar
   754  3406  3407    1
   755   170   168   ar
   756  2509  2507   ar
   757  3314  3315    1
   758  3314  3312    1
   759   125   126   ar
   760  2433  2431    1
   761  2433  2428    1
   762  2432  2431    1
   763   101   100    1
   764  3251  3249    1
   765  3251  3252    1
   766  3418  3420    1
   767   175   172   ar
   768   198   195   ar
   769  2846  2851   ar
   770  2470  2491    2
   771  2470  2492    1
   772  3407  3408   ar
   773  3281  3280   ar
   774  3350  3348   ar
   775   145   150   ar
   776  2522  2533    1
   777  2522  2520    1
   778  3389  3390   ar
   779  2507  2508    2
   780  2410  2405    1
   781  2410  2408    1
   782  2431  2429    1
   783   194   193   ar
   784   194   195   ar
   785   137   135    1
   786  2845  2855    1
   787  2845  2840    1
   788   119   121    1
   789   119   117    1
   790  3321  3327   ar
   791  2387  2382    1
   792  2387  2385    1
   793  3387  3385   ar
   794  2849  2855   ar
   795  2849  2850   ar
   796  3325  3331   ar
   797  3325  3326   ar
   798  2839  2840    1
   799  2839  2837    1
   800  3276  3277   ar
   801  3348  3349    1
   802  3285  3286   ar
   803   172   173   ar
   804  2448  2449    1
   805  3249  3250    1
   806   153   152   ar
   807  3433  3434   ar
   808  3433  3431   ar
   809   193   191   ar
   810  2521  2520    1
   811  3331  3330   ar
   812  2855  2854   ar
   813   195   196   ar
   814  2851  2850   ar
   815  2851  2852    1
   816  2399  2378    2
   817   209   223    1
   818  3456  3437    2
   819   245   223    2
   820   149   150   ar
   821   149   152   ar
   822   122   128   ar
   823   121   116    1
   824   121   132    1
   825  2533  2532   ar
   826  2533  2527   ar
   827  2850  2853   ar
   828  3472  3467   ar
   829  3472  3471   ar
   830  3250  3266    1
   831  3411  3412    2
   832  3411  3410   ar
   833   168   169    1
   834   168   167   ar
   835   118   117    1
   836   118   135    1
   837  3312  3313    1
   838  2532  2531   ar
   839  2382  2381    1
   840  3452  3451    1
   841  3434  3427   ar
   842  2428  2427    1
   843  2405  2404    1
   844   150   151    1
   845  2408  2409    1
   846  2408  2406    1
   847  3432  3431    1
   848   126   132   ar
   849   126   127   ar
   850  2520  2518    1
   851  2518  2519    1
   852   100    99   ar
   853   100   102   ar
   854  3467  3468   ar
   855  2837  2838    1
   856  2854  2853   ar
   857  2385  2386    1
   858  2385  2383    1
   859  2449  2447    1
   860   117   115    1
   861  3280  3286   ar
   862  3280  3279   ar
   863   155   135    2
   864   135   156    1
   865  3408  3410   ar
   866  3408  3409    2
   867  3420  3421    1
   868  3420  3422    1
   869  2527  2526   ar
   870  2527  2528   ar
   871   191   190   ar
   872   191   192    1
   873  3326  3327   ar
   874  3326  3329   ar
   875  3327  3328    2
   876  3431  3430   ar
   877  2838  2836    1
   878   116   115    1
   879  3390  3391    2
   880  3390  3384   ar
   881   132   131   ar
   882    99   105   ar
   883   224   226    1
   884   224   225    1
   885   115   113    1
   886  2526  2524   ar
   887  2531  2528   ar
   888   223   225    1
   889   223   244    1
   890   196   190   ar
   891   196   197    2
   892  3286  3275    1
   893  3385  3384   ar
   894  3385  3386    1
   895  3474  3471   ar
   896  3474  3475   ar
   897  2380  2378    1
   898  2380  2379    1
   899   173   167   ar
   900   173   174    2
   901  3421  3426    1
   902  3277  3279   ar
   903  3277  3278    1
   904  3471  3470   ar
   905  2429  2427    1
   906  2429  2430    1
   907    18    17    2
   908  3455  3437    1
   909  2519  2536    1
   910  3313  3311    1
   911  3437  3423    1
   912  3437  3439    1
   913  3330  3329   ar
   914  2378  2400    1
   915  2378  2364    1
   916   227   226    1
   917   227   232    1
   918  2528  2529   ar
   919  3453  3451   ar
   920  3453  3454   ar
   921  3267  3268    1
   922  3267  3269    1
   923   128   127   ar
   924   128   129    2
   925   102   103   ar
   926  3451  3450   ar
   927  2427  2425    1
   928   127   130   ar
   929  2383  2381    1
   930  2383  2384    1
   931  3422  3423    1
   932  3422  3424    1
   933   226   228    1
   934  2856  2836    2
   935  2381  2379    1
   936  2524  2525    1
   937  2524  2523   ar
   938  3270  3275    1
   939  3270  3269    1
   940  3427  3426    1
   941  3427  3428   ar
   942  3468  3469   ar
   943  2430  2447    1
   944  2406  2404    1
   945  2406  2407    1
   946  3266  3268    1
   947  3266  3287    2
   948  3266  3288    1
   949  2404  2402    1
   950    19    16   ar
   951    19    20   ar
   952  3332  3311    2
   953  2836  2857    1
   954  2836  2822    1
   955    23     1    1
   956  2529  2523   ar
   957  2529  2530    2
   958  3475  3476   ar
   959  2447  2469    2
   960  2447  2468    1
   961    17    16   ar
   962    17    11   ar
   963  3275  3273    1
   964  3430  3428   ar
   965  3426  3424    1
   966   105   106    2
   967   105   104   ar
   968  3470  3469   ar
   969  3470  3476   ar
   970   131   130   ar
   971   113   114    1
   972   242   243   ar
   973   242   241   ar
   974  2364  2363    1
   975   232   243    1
   976   232   230    1
   977  2403  2402    1
   978  2403  2401    1
   979  3269  3271    1
   980  3439  3438    1
   981    41    40    2
   982  3454  3447   ar
   983  3311  3295    1
   984  3311  3333    1
   985    22     1    1
   986    16    15   ar
   987  2426  2425    1
   988  2426  2424    1
   989  3450  3448   ar
   990  2423  2401    2
   991  3478  3457    2
   992    20    21   ar
   993  3428  3429    2
   994   103   104   ar
   995   103   109   ar
   996  2536  2556    2
   997  2536  2557    1
   998  2536  2538    1
   999  3424  3425    1
  1000   243   237   ar
  1001  2384  2401    1
  1002  3476  3466    1
  1003   241   238   ar
  1004  2407  2424    1
  1005     1     3    1
  1006    97    96    1
  1007    63    62    1
  1008  3273  3271    1
  1009  3273  3274    1
  1010  2540  2539    1
  1011  2540  2545    1
  1012    11    12   ar
  1013  2537  2538    1
  1014  2537  2539    1
  1015  1650  1649    2
  1016   104   107   ar
  1017   228   230    1
  1018   228   229    1
  1019  3297  3296    1
  1020  2401  2422    1
  1021  3295  3294    1
  1022  2376  2358    2
  1023   231   230    1
  1024  3271  3272    1
  1025  2822  2821    1
  1026   114   112    1
  1027  2446  2424    2
  1028  1651  1649   ar
  1029  1651  1652   ar
  1030    96    98    1
  1031    96    94    1
  1032  2424  2445    1
  1033    40    34   ar
  1034    40    39   ar
  1035  3447  3448   ar
  1036  3447  3446    1
  1037  2706  2705    2
  1038  1646  1645    1
  1039  3448  3449    2
  1040   229   246    1
  1041  2363  2361    1
  1042  2363  2365    1
  1043  2539  2541    1
  1044    57    62   ar
  1045    57    58   ar
  1046    15    21   ar
  1047    15    14   ar
  1048  2823  2824    1
  1049  2823  2821    1
  1050  2823  2825    1
  1051  3294  3296    1
  1052  3294  3292    1
  1053  1649  1648   ar
  1054  2359  2361    1
  1055  2359  2360    1
  1056  1653  1652    1
  1057  3438  3440    1
  1058    21    10    1
  1059  2707  2705   ar
  1060  2707  2708   ar
  1061   109    98    1
  1062   109   108   ar
  1063  2831  2830    2
  1064  2828  2827    2
  1065  2829  2827   ar
  1066  2829  2830   ar
  1067  2709  2708    2
  1068   237   238   ar
  1069   237   236   ar
  1070    98    93    1
  1071   238   239   ar
  1072  3459  3457    1
  1073  3459  3458    1
  1074  3464  3462    1
  1075  3464  3466    1
  1076  3464  3465    1
  1077  3457  3477    1
  1078  3457  3443    1
  1079    34    35   ar
  1080  2554  2555   ar
  1081  2554  2553   ar
  1082     3     2    1
  1083    62    61   ar
  1084  2821  2819    1
  1085  3462  3463    1
  1086  3462  3460    1
  1087  2545  2555    1
  1088  2545  2543    1
  1089  2827  2826   ar
  1090  2830  2832   ar
  1091  3296  3298    1
  1092  1652  1654   ar
  1093  2361  2362    1
  1094  2366  2365    1
  1095  3466  3461    1
  1096    84    83    1
  1097  2705  2704   ar
  1098    12    14   ar
  1099    12    13    1
  1100  2555  2549   ar
  1101  2708  2710   ar
  1102     5    10    1
  1103     5     4    1
  1104  2553  2550   ar
  1105    82    83   ar
  1106    82    80   ar
  1107  3442  3440    1
  1108  3442  3443    1
  1109  3442  3444    1
  1110   107   108   ar
  1111  2358  2360    1
  1112  2358  2377    1
  1113  2358  2344    1
  1114    39    42   ar
  1115    39    38   ar
  1116    42    43   ar
  1117  2365  2367    1
  1118  3441  3440    1
  1119  3441  3446    1
  1120    81    80    2
  1121  1680  1658    2
  1122    58    59   ar
  1123  2826  2825    1
  1124  2826  2833   ar
  1125   236   234   ar
  1126  3272  3289    1
  1127     2     4    1
  1128  2832  2833   ar
  1129  1691  1692   ar
  1130  1691  1696   ar
  1131  3446  3444    1
  1132    10     8    1
  1133  1648  1647    1
  1134  1648  1655   ar
  1135    94    95    1
  1136    94    92    1
  1137   239   240    2
  1138   239   233   ar
  1139   112    95    1
  1140   112   133    2
  1141   112   134    1
  1142  3461  3460    1
  1143  2825  2820    1
  1144  2549  2550   ar
  1145  2549  2548   ar
  1146  2550  2551   ar
  1147    83    85   ar
  1148  1645  1647    1
  1149  1645  1643    1
  1150   265   246    2
  1151  3444  3445    1
  1152   246   264    1
  1153   246   248    1
  1154  3458  3460    1
  1155  1692  1693   ar
  1156  1647  1642    1
  1157  3292  3290    1
  1158  3292  3293    1
  1159    80    79   ar
  1160  3310  3289    2
  1161  1644  1658    1
  1162  1644  1643    1
  1163  1654  1655   ar
  1164    35    36    1
  1165    35    37   ar
  1166  1697  1696    1
  1167  2541  2543    1
  1168  2541  2542    1
  1169    93    92    1
  1170  2544  2543    1
  1171  3291  3290    1
  1172  3291  3289    1
  1173  2704  2703    1
  1174  2704  2711   ar
  1175    61    64   ar
  1176    61    60   ar
  1177     4     6    1
  1178  1675  1674    2
  1179  3298  3293    1
  1180  3298  3308    1
  1181  2548  2547   ar
  1182  2710  2711   ar
  1183  2819  2820    1
  1184  2819  2817    1
  1185  1696  1695   ar
  1186  2362  2367    1
  1187   234   233   ar
  1188   234   235    1
  1189  2551  2552    1
  1190  2551  2546   ar
  1191  3289  3309    1
  1192  2344  2343    1
  1193  1658  1679    1
  1194  1658  1660    1
  1195    43    44   ar
  1196    38    37   ar
  1197    38    44   ar
  1198  2703  2698    1
  1199  2703  2701    1
  1200  2754  2736    2
  1201    92    90    1
  1202  2367  2368    1
  1203  1668  1674   ar
  1204  1668  1669   ar
  1205  1643  1641    1
  1206    59    60   ar
  1207  2811  2810    2
  1208  2542  2558    1
  1209  1674  1673   ar
  1210  2547  2546   ar
  1211    64    65   ar
  1212  1693  1694   ar
  1213  2818  2817    1
  1214  2818  2816    1
  1215   248   247    1
  1216     8     6    1
  1217     8     9    1
  1218    60    66   ar
  1219  2835  2816    2
  1220     6     7    1
  1221  1670  1669    1
  1222  2734  2714    2
  1223  1527  1506    2
  1224  2702  2701    1
  1225  3308  3302   ar
  1226  3308  3307   ar
  1227  2698  2697    1
  1228   247   249    1
  1229  2755  2736    1
  1230    85    86   ar
  1231  1633  1632    1
  1232  1642  1641    1
  1233    79    86   ar
  1234    79    78    1
  1235  1669  1671   ar
  1236    44    33    1
  1237  3301  3302   ar
  1238  3301  3300   ar
  1239  1695  1694   ar
  1240  1695  1698   ar
  1241  2700  2714    1
  1242  2700  2699    1
  1243  2810  2809   ar
  1244  2810  2812   ar
  1245  3302  3303   ar
  1246  2368  2375   ar
  1247  2368  2369   ar
  1248  2736  2720    1
  1249  2736  2738    1
  1250  2816  2834    1
  1251  2816  2802    1
  1252  1673  1676   ar
  1253  1673  1672   ar
  1254  2701  2699    1
  1255  1694  1700   ar
  1256  3307  3306   ar
  1257  2346  2345    1
  1258  2370  2369    2
  1259  2343  2345    1
  1260  2343  2341    1
  1261   250   249    1
  1262   250   255    1
  1263  1641  1639    1
  1264  1660  1659    1
  1265   262   263   ar
  1266   262   260   ar
  1267  2809  2807   ar
  1268   263   256   ar
  1269  3300  3299   ar
  1270    46    24    2
  1271    78    76    1
  1272    78    73    1
  1273    90    91    1
  1274  2580  2558    2
  1275  2375  2374   ar
  1276    65    66   ar
  1277  1676  1677   ar
  1278  1671  1672   ar
  1279  2369  2371   ar
  1280  2714  2735    1
  1281  2714  2716    1
  1282    66    56    1
  1283  2812  2813   ar
  1284  1672  1678   ar
  1285  1632  1631   ar
  1286  1632  1634   ar
  1287   249   251    1
  1288  2558  2579    1
  1289  2558  2560    1
  1290  2356  2338    2
  1291  2697  2699    1
  1292  2697  2695    1
  1293  1631  1629   ar
  1294  2775  2756    2
  1295  2345  2347    1
  1296    77    76    1
  1297     7    24    1
  1298    76    74    1
  1299  1506  1528    1
  1300  1506  1490    1
  1301  1506  1508    1
  1302  3303  3306   ar
  1303  3303  3304   ar
  1304  2720  2719    1
  1305  1698  1699   ar
  1306  1550  1529    2
  1307  2715  2716    1
  1308  2715  2717    1
  1309    33    28    1
  1310    33    31    1
  1311  2576  2577   ar
  1312  2576  2573   ar
  1313   261   260    1
  1314  2341  2339    1
  1315  2341  2342    1
  1316  2807  2808    2
  1317  2807  2806   ar
  1318  2774  2756    1
  1319   260   259   ar
  1320  3299  3304   ar
  1321  1659  1661    1
  1322  2738  2737    1
  1323  1640  1639    1
  1324  1640  1638    1
  1325  1677  1678   ar
  1326  1700  1699   ar
  1327  1700  1690    1
  1328    91    89    1
  1329   256   255    1
  1330   256   257   ar
  1331  1490  1489    1
  1332  2577  2578   ar
  1333    28    27    1
  1334  2374  2372   ar
  1335  2339  2340    1
  1336  1657  1638    2
  1337  1678  1667    1
  1338   255   253    1
  1339    24    26    1
  1340    24    45    1
  1341  1662  1661    1
  1342  1662  1667    1
  1343  2371  2372   ar
  1344  2575  2574    2
  1345  3304  3305    1
  1346  2813  2806   ar
  1347  2560  2559    1
  1348  1551  1529    1
  1349  1634  1635   ar
  1350  2802  2801    1
  1351  2737  2739    1
  1352    26    25    1
  1353    73    72    1
  1354  1629  1630    2
  1355  1629  1628   ar
  1356  2756  2742    1
  1357  2756  2758    1
  1358  2806  2805    1
  1359  2340  2338    1
  1360  2791  2790    1
  1361    56    54    1
  1362    56    51    1
  1363  2573  2574   ar
  1364  2573  2572   ar
  1365  2562  2567    1
  1366  2562  2561    1
  1367  2801  2803    1
  1368  2801  2799    1
  1369  1690  1685    1
  1370  1690  1688    1
  1371  2815  2796    2
  1372  2372  2373    2
  1373  2803  2805    1
  1374  2803  2804    1
  1375  2338  2357    1
  1376  2338  2321    1
  1377  2717  2719    1
  1378  2717  2718    1
  1379  2574  2568   ar
  1380  2309  2308    2
  1381  1508  1507    1
  1382  1529  1512    1
  1383  1529  1531    1
  1384  2559  2561    1
  1385  2695  2696    1
  1386  1507  1509    1
  1387  2719  2721    1
  1388   251   253    1
  1389   251   252    1
  1390   259   257   ar
  1391  1638  1656    1
  1392  1638  1624    1
  1393  2578  2572   ar
  1394  2578  2567    1
  1395  1661  1663    1
  1396  2795  2776    2
  1397   257   258    2
  1398    31    29    1
  1399    31    32    1
  1400    74    72    1
  1401    74    75    1
  1402  2347  2342    1
  1403  2347  2348    1
  1404  1667  1665    1
  1405  1485  1487    1
  1406  1485  1486    1
  1407  1714  1713   ar
  1408  1714  1715   ar
  1409  1512  1511    1
  1410  2572  2571   ar
  1411  2696  2694    1
  1412  1612  1611    2
  1413  2742  2741    1
  1414  1635  1628   ar
  1415  1685  1684    1
  1416    25    27    1
  1417    54    55    1
  1418    54    52    1
  1419  1628  1627    1
  1420  2567  2565    1
  1421  1689  1688    1
  1422    27    29    1
  1423  2771  2770    1
  1424  2798  2796    1
  1425  2798  2797    1
  1426  1489  1487    1
  1427  1489  1491    1
  1428   111    89    2
  1429  1487  1488    1
  1430   253   254    1
  1431  2790  2792   ar
  1432  2790  2789   ar
  1433    29    30    1
  1434  2805  2800    1
  1435  2308  2307   ar
  1436  2308  2302   ar
  1437    51    50    1
  1438  2561  2563    1
  1439  1713  1718   ar
  1440  1504  1484    2
  1441    89    75    1
  1442    89   110    1
  1443  1715  1716   ar
  1444  2568  2569   ar
  1445    72    70    1
  1446  2792  2793   ar
  1447   252   266    1
  1448  1688  1686    1
  1449  2796  2814    1
  1450  2796  2782    1
  1451  2758  2757    1
  1452  2772  2770   ar
  1453  2772  2773   ar
  1454  2350  2349    2
  1455   288   266    2
  1456  1492  1491    1
  1457  2310  2307   ar
  1458  2310  2311   ar
  1459  2739  2741    1
  1460  2739  2740    1
  1461  2741  2743    1
  1462  2348  2349   ar
  1463  2348  2355   ar
  1464  1737  1736    1
  1465  1665  1663    1
  1466  1665  1666    1
  1467    68    47    2
  1468  1625  1623    1
  1469  1625  1627    1
  1470  1625  1626    1
  1471  2722  2721    1
  1472  1509  1511    1
  1473  1509  1510    1
  1474  1486  1484    1
  1475  2321  2320    1
  1476  2307  2306   ar
  1477  2302  2303   ar
  1478  2752  2753   ar
  1479  2752  2750   ar
  1480  2799  2797    1
  1481  2799  2800    1
  1482  2571  2569   ar
  1483  1574  1552    2
  1484  1623  1624    1
  1485  1623  1621    1
  1486  2349  2351   ar
  1487  1531  1530    1
  1488  2718  2723    1
  1489  2721  2723    1
  1490  2770  2769   ar
  1491  2569  2570    1
  1492  2789  2787   ar
  1493  1511  1513    1
  1494  1663  1664    1
  1495  2355  2354   ar
  1496  2753  2746   ar
  1497  2776  2794    1
  1498  2776  2778    1
  1499  2776  2762    1
  1500  1611  1605   ar
  1501  1611  1610   ar
  1502  1491  1493    1
  1503    52    50    1
  1504    52    53    1
  1505  2311  2312   ar
  1506  1718  1719    1
  1507  1718  1717   ar
  1508  2773  2766   ar
  1509  1627  1622    1
  1510  1716  1717   ar
  1511  1716  1722   ar
  1512  1573  1552    1
  1513    49    47    1
  1514    49    48    1
  1515  2793  2786   ar
  1516    71    70    1
  1517    71    69    1
  1518   266   287    1
  1519   266   268    1
  1520  1736  1738   ar
  1521  1736  1735   ar
  1522  1605  1606   ar
  1523  1484  1467    1
  1524  1484  1505    1
  1525  1530  1532    1
  1526  1684  1686    1
  1527  1684  1682    1
  1528  1482  1461    2
  1529  2740  2745    1
  1530  2598  2597    2
  1531  2757  2759    1
  1532  2563  2565    1
  1533  2563  2564    1
  1534  1738  1739   ar
  1535    30    47    1
  1536  2751  2750    1
  1537    50    48    1
  1538  2778  2777    1
  1539  1488  1493    1
  1540  2351  2352   ar
  1541  2306  2312   ar
  1542  2306  2305   ar
  1543  2303  2304    1
  1544  2303  2305   ar
  1545  2694  2713    2
  1546  2694  2712    1
  1547  2694  2678    1
  1548    88    69    2
  1549  2565  2566    1
  1550    47    67    1
  1551  2354  2352   ar
  1552  2750  2749   ar
  1553  1717  1720   ar
  1554  1712  1722    1
  1555  1712  1707    1
  1556  1712  1710    1
  1557  1686  1687    1
  1558  2723  2733    1
  1559  1552  1535    1
  1560  1552  1554    1
  1561  2787  2786   ar
  1562  2787  2788    2
  1563  2312  2301    1
  1564  1722  1721   ar
  1565  1735  1741   ar
  1566  2782  2781    1
  1567   284   285   ar
  1568   284   281   ar
  1569  1711  1710    1
  1570   283   282    2
  1571  2352  2353    1
  1572  1510  1515    1
  1573  1683  1682    1
  1574  1683  1681    1
  1575  2323  2322    1
  1576  2743  2745    1
  1577  2743  2744    1
  1578  2786  2785    1
  1579  2746  2745    1
  1580  2746  2747   ar
  1581  2320  2322    1
  1582  2320  2318    1
  1583  2781  2783    1
  1584  2781  2779    1
  1585  1622  1621    1
  1586  2769  2767   ar
  1587  1664  1681    1
  1588  1610  1613   ar
  1589  1610  1609   ar
  1590  1621  1619    1
  1591  2761  2762    1
  1592  2761  2759    1
  1593  2761  2763    1
  1594  1467  1466    1
  1595  1707  1706    1
  1596  1493  1503    1
  1597  1590  1589    1
  1598  2599  2596   ar
  1599  2599  2600   ar
  1600    69    53    1
  1601    69    87    1
  1602  1613  1614   ar
  1603  2597  2596   ar
  1604  2597  2591   ar
  1605  2678  2677    1
  1606  1739  1745   ar
  1607  1739  1740   ar
  1608  1619  1620    1
  1609  1734  1729    1
  1610  1734  1745    1
  1611  1734  1732    1
  1612  2732  2733   ar
  1613  2732  2731   ar
  1614  2766  2767   ar
  1615  2766  2765    1
  1616   285   286   ar
  1617  1513  1514    1
  1618  1513  1515    1
  1619  2300  2299    1
  1620  2322  2324    1
  1621  2680  2679    1
  1622  1606  1607    1
  1623  1606  1608   ar
  1624  2783  2785    1
  1625  2783  2784    1
  1626  1733  1732    1
  1627  1535  1534    1
  1628   268   267    1
  1629  1462  1464    1
  1630  1462  1463    1
  1631  1710  1708    1
  1632  2759  2760    1
  1633  1720  1721   ar
  1634  2733  2727   ar
  1635  1729  1728    1
  1636  2596  2595   ar
  1637  1594  1575    2
  1638  1745  1744   ar
  1639  2564  2581    1
  1640  2301  2299    1
  1641  2301  2296    1
  1642  1741  1740   ar
  1643  1741  1742    2
  1644  1525  1524   ar
  1645  1525  1526   ar
  1646  2749  2747   ar
  1647  2299  2297    1
  1648  1701  1681    2
  1649   282   281   ar
  1650   282   276   ar
  1651  1687  1703    1
  1652   281   280   ar
  1653  1532  1534    1
  1654  1532  1533    1
  1655  2767  2768    2
  1656  1681  1702    1
  1657  2777  2779    1
  1658  1740  1743   ar
  1659  2603  2581    2
  1660  1461  1447    1
  1661  1461  1463    1
  1662  1461  1483    1
  1663  2600  2601   ar
  1664  2747  2748    2
  1665  2760  2765    1
  1666  1534  1536    1
  1667  2591  2592   ar
  1668  1554  1553    1
  1669  1515  1526    1
  1670  2785  2780    1
  1671  2763  2765    1
  1672  2763  2764    1
  1673  1637  1618    2
  1674  2318  2316    1
  1675  2318  2319    1
  1676  2621  2620    2
  1677  1609  1608   ar
  1678  1609  1615   ar
  1679  2779  2780    1
  1680  1464  1466    1
  1681  1464  1465    1
  1682  1732  1730    1
  1683  1447  1446    1
  1684  2731  2728   ar
  1685  1589  1591   ar
  1686  1589  1588   ar
  1687  1760  1759    2
  1688  1524  1521   ar
  1689  2327  2326    1
  1690  1466  1468    1
  1691  1548  1547   ar
  1692  1548  1549   ar
  1693  1706  1708    1
  1694  1706  1704    1
  1695  2679  2677    1
  1696  2679  2681    1
  1697  1591  1592   ar
  1698  1503  1502   ar
  1699  1503  1497   ar
  1700  1614  1615   ar
  1701  1569  1568    2
  1702  1570  1571   ar
  1703  1570  1567   ar
  1704  1526  1520   ar
  1705  2316  2317    1
  1706  1744  1743   ar
  1707  1547  1544   ar
  1708  2639  2638    1
  1709  2677  2675    1
  1710   286   280   ar
  1711   286   275    1
  1712  1617  1595    2
  1713   270   275    1
  1714   270   269    1
  1715  1756  1755    1
  1716  1757  1752    1
  1717  1757  1758    1
  1718  1757  1755    1
  1719  2595  2601   ar
  1720  2595  2594   ar
  1721  2317  2315    1
  1722   267   269    1
  1723  1728  1730    1
  1724  1728  1726    1
  1725  1533  1538    1
  1726  2727  2728   ar
  1727  2727  2726   ar
  1728  1620  1618    1
  1729  1752  1751    1
  1730  2581  2583    1
  1731  2581  2602    1
  1732  1449  1448    1
  1733  2601  2590    1
  1734  2328  2326   ar
  1735  2328  2329   ar
  1736   280   279   ar
  1737  1502  1501   ar
  1738   276   277   ar
  1739  1593  1575    1
  1740  1708  1709    1
  1741  2326  2325   ar
  1742  1705  1703    1
  1743  1705  1704    1
  1744  1759  1758   ar
  1745  1759  1761   ar
  1746  2592  2594   ar
  1747  2592  2593    1
  1748  1575  1577    1
  1749  1575  1558    1
  1750  2324  2319    1
  1751  2324  2335    1
  1752  1571  1572   ar
  1753  1615  1604    1
  1754  2296  2295    1
  1755  2337  2315    2
  1756  2637  2638   ar
  1757  2637  2643   ar
  1758  1553  1555    1
  1759  2728  2729   ar
  1760  2620  2614   ar
  1761  2620  2619   ar
  1762  1758  1765   ar
  1763  1469  1468    1
  1764  1618  1636    1
  1765  1618  1601    1
  1766  2297  2298    1
  1767  2297  2295    1
  1768  1588  1586   ar
  1769  1703  1723    2
  1770  1703  1724    1
  1771  2726  2725   ar
  1772  1496  1497   ar
  1773  1496  1495   ar
  1774  1568  1567   ar
  1775  1568  1562   ar
  1776  2583  2582    1
  1777   275   273    1
  1778  2614  2615   ar
  1779  1497  1498   ar
  1780  1567  1566   ar
  1781   304   303    1
  1782  2644  2643    2
  1783  1730  1731    1
  1784  1761  1762   ar
  1785  2638  2640   ar
  1786  2329  2335   ar
  1787  2329  2330   ar
  1788  1549  1538    1
  1789  1549  1543   ar
  1790  1521  1520   ar
  1791  1521  1522   ar
  1792  1536  1538    1
  1793  1536  1537    1
  1794  1592  1585   ar
  1795  2585  2590    1
  1796  2585  2584    1
  1797  1755  1753    1
  1798   269   271    1
  1799  1726  1727    1
  1800  1751  1749    1
  1801  1751  1753    1
  1802  2335  2334   ar
  1803  2325  2331   ar
  1804  1520  1519   ar
  1805  2675  2676    1
  1806  2675  2673    1
  1807  1468  1470    1
  1808  1465  1470    1
  1809  1446  1448    1
  1810  1446  1444    1
  1811  2315  2298    1
  1812  2315  2336    1
  1813  1577  1576    1
  1814  1544  1543   ar
  1815  1544  1545   ar
  1816  2590  2588    1
  1817  1709  1725    1
  1818  2681  2676    1
  1819  2681  2691    1
  1820  1448  1450    1
  1821  2643  2642   ar
  1822   277   279   ar
  1823   277   278    1
  1824  1765  1764   ar
  1825  1595  1597    1
  1826  1595  1616    1
  1827  1595  1581    1
  1828  1602  1600    1
  1829  1602  1604    1
  1830  1602  1603    1
  1831  2295  2293    1
  1832  1501  1498   ar
  1833  1558  1557    1
  1834  1444  1442    1
  1835  1444  1445    1
  1836  1557  1555    1
  1837  1557  1559    1
  1838  2619  2622   ar
  1839  2619  2618   ar
  1840  1762  1764   ar
  1841  1762  1763    1
  1842  1597  1596    1
  1843  1546  1545    2
  1844  1600  1601    1
  1845  1600  1598    1
  1846  2330  2331   ar
  1847  2330  2333   ar
  1848  1749  1750    1
  1849  1731  1748    1
  1850  1727  1725    1
  1851  2622  2623   ar
  1852  2331  2332    2
  1853  2582  2584    1
  1854  1572  1566   ar
  1855  1572  1561    1
  1856  1604  1599    1
  1857  2729  2730    1
  1858  2729  2724   ar
  1859  2334  2333   ar
  1860  1555  1556    1
  1861  1498  1499   ar
  1862  2615  2616    1
  1863  2615  2617   ar
  1864  2725  2724   ar
  1865  1543  1542   ar
  1866  1586  1585   ar
  1867  1586  1587    2
  1868  1442  1443    1
  1869  1495  1494   ar
  1870   303   305   ar
  1871   303   302   ar
  1872  1470  1481    1
  1873  1545  1539   ar
  1874  1753  1754    1
  1875  2673  2674    1
  1876  1772  1777    1
  1877  1772  1771    1
  1878  1562  1563   ar
  1879  1566  1565   ar
  1880   271   273    1
  1881   271   272    1
  1882  1522  1523    2
  1883  1522  1516   ar
  1884  1585  1584    1
  1885   425   424    1
  1886  2684  2685   ar
  1887  2684  2683   ar
  1888  1519  1517   ar
  1889  2640  2641   ar
  1890  2584  2586    1
  1891  1556  1561    1
  1892  2691  2685   ar
  1893  2691  2690   ar
  1894   273   274    1
  1895   382   383   ar
  1896   382   387   ar
  1897   305   306   ar
  1898  1750  1748    1
  1899  1777  1788    1
  1900  1777  1775    1
  1901  1776  1775    1
  1902  1459  1441    2
  1903  1576  1578    1
  1904  1580  1581    1
  1905  1580  1578    1
  1906  1580  1582    1
  1907  1725  1747    2
  1908  1725  1746    1
  1909  1771  1769    1
  1910  1771  1773    1
  1911  1599  1598    1
  1912  2685  2686   ar
  1913  2618  2617   ar
  1914  2618  2624   ar
  1915  2683  2682   ar
  1916  2674  2672    1
  1917  2642  2641   ar
  1918  2642  2645   ar
  1919   383   384   ar
  1920  1450  1445    1
  1921  1450  1451    1
  1922  1754  1768    1
  1923   302   300   ar
  1924  1559  1561    1
  1925  1559  1560    1
  1926  2588  2586    1
  1927  2588  2589    1
  1928  2623  2624   ar
  1929  1598  1596    1
  1930  2293  2294    1
  1931  1769  1770    1
  1932  1480  1481   ar
  1933  1480  1479   ar
  1934   308   289    2
  1935   388   387    1
  1936  2641  2647   ar
  1937  1499  1494   ar
  1938  1499  1500    1
  1939  2586  2587    1
  1940  1748  1766    2
  1941  1748  1767    1
  1942  1443  1441    1
  1943  1481  1475   ar
  1944  2690  2689   ar
  1945  1516  1517   ar
  1946  1517  1518    1
  1947  2692  2672    2
  1948   324   323    1
  1949  1563  1565   ar
  1950  1563  1564    1
  1951  1542  1540   ar
  1952   361   360    1
  1953  2294  2292    1
  1954  1788  1787   ar
  1955  1788  1782   ar
  1956   272   289    1
  1957  1578  1579    1
  1958  1582  1584    1
  1959  1582  1583    1
  1960  1539  1540   ar
  1961   406   405    1
  1962  1584  1579    1
  1963   387   386   ar
  1964  1775  1773    1
  1965  1453  1452    2
  1966  2624  2613    1
  1967  1787  1786   ar
  1968   440   442    1
  1969   440   441    1
  1970   306   299   ar
  1971   424   426    1
  1972   424   422    1
  1973  2682  2687   ar
  1974  2686  2689   ar
  1975  2686  2687   ar
  1976   442   443    1
  1977   442   444    1
  1978  1441  1424    1
  1979  1441  1460    1
  1980  2672  2693    1
  1981  2672  2656    1
  1982   426   421    1
  1983   426   436    1
  1984   423   422    1
  1985   423   439    1
  1986  2645  2646   ar
  1987   420   421    1
  1988   420   422    1
  1989   420   418    1
  1990  1781  1782   ar
  1991  1781  1779   ar
  1992  1782  1783   ar
  1993  1773  1774    1
  1994   300   299   ar
  1995   300   301    2
  1996   402   401    1
  1997  1540  1541    1
  1998   447   446    1
  1999   384   385   ar
  2000   443   448    1
  2001  1451  1452   ar
  2002  1451  1458   ar
  2003  1770  1768    1
  2004  1426  1425    1
  2005  1479  1476   ar
  2006   289   291    1
  2007   289   307    1
  2008   429   428   ar
  2009   429   430   ar
  2010   457   439    2
  2011  2687  2688    1
  2012  1424  1423    1
  2013  1786  1783   ar
  2014  2626  2604    2
  2015  1774  1791    1
  2016  1452  1454   ar
  2017   299   298    1
  2018  1768  1789    2
  2019  1768  1790    1
  2020  2647  2646   ar
  2021  2647  2636    1
  2022   323   322   ar
  2023   323   325   ar
  2024  1475  1476   ar
  2025  1475  1474   ar
  2026  1783  1784   ar
  2027   360   359   ar
  2028   360   362   ar
  2029  2587  2604    1
  2030  1779  1780    1
  2031  1779  1778   ar
  2032   344   343    1
  2033   405   407   ar
  2034   405   404   ar
  2035   428   427   ar
  2036   407   408   ar
  2037  2613  2608    1
  2038  2613  2611    1
  2039   445   444    1
  2040   445   459    1
  2041   386   385   ar
  2042   386   389   ar
  2043   322   320   ar
  2044   418   419    1
  2045   441   439    1
  2046   439   458    1
  2047   359   365   ar
  2048   448   446    1
  2049   448   449    1
  2050  2292  2313    2
  2051  2292  2278    1
  2052  2292  2314    1
  2053  2608  2607    1
  2054  1458  1457   ar
  2055   444   446    1
  2056   385   391   ar
  2057  1425  1423    1
  2058  1425  1427    1
  2059   291   290    1
  2060  1476  1477   ar
  2061  2667  2668   ar
  2062  2667  2664   ar
  2063  1474  1472   ar
  2064  2656  2655    1
  2065   436   430   ar
  2066   436   435   ar
  2067  1430  1429    1
  2068  1778  1784   ar
  2069  2636  2631    1
  2070  2636  2634    1
  2071   430   431   ar
  2072  1784  1785    2
  2073   480   459    2
  2074   325   326   ar
  2075   401   403    1
  2076   401   399    1
  2077  2668  2669   ar
  2078  2604  2606    1
  2079  2604  2625    1
  2080   362   363   ar
  2081  2280  2279    1
  2082  1423  1421    1
  2083  2278  2277    1
  2084   403   398    1
  2085   403   414    1
  2086   293   298    1
  2087   293   292    1
  2088  1454  1455   ar
  2089  2606  2605    1
  2090   342   343   ar
  2091   342   340   ar
  2092   298   296    1
  2093  2666  2665    1
  2094   343   345   ar
  2095   404   410   ar
  2096  2655  2657    1
  2097  2655  2653    1
  2098  2657  2658    1
  2099  2657  2659    1
  2100  2279  2277    1
  2101  2279  2281    1
  2102  1795  1794    1
  2103  1795  1800    1
  2104   427   432   ar
  2105   408   414   ar
  2106   408   409   ar
  2107   459   481    1
  2108   459   461    1
  2109  1791  1811    2
  2110  1791  1793    1
  2111  1791  1812    1
  2112  1792  1793    1
  2113  1792  1794    1
  2114  1431  1429   ar
  2115  1431  1432   ar
  2116  2664  2665   ar
  2117  2664  2663   ar
  2118   320   321    2
  2119   320   319   ar
  2120  2631  2630    1
  2121   389   390   ar
  2122  1429  1428   ar
  2123  1457  1455   ar
  2124  2611  2609    1
  2125  2611  2612    1
  2126   290   292    1
  2127   398   397    1
  2128   365   366    2
  2129   365   364   ar
  2130  2284  2283    2
  2131  2634  2635    1
  2132  2634  2632    1
  2133   419   417    1
  2134   449   456   ar
  2135   449   450   ar
  2136  2277  2275    1
  2137  2665  2660   ar
  2138   400   399    1
  2139   400   417    1
  2140  1455  1456    1
  2141   414   413   ar
  2142  1472  1471   ar
  2143  1472  1473    1
  2144  1421  1422    1
  2145  1421  1419    1
  2146  2607  2605    1
  2147  2607  2609    1
  2148   391   390   ar
  2149   391   381    1
  2150  2669  2663   ar
  2151  2669  2659    1
  2152   435   434   ar
  2153  1477  1471   ar
  2154  1477  1478    2
  2155   397   399    1
  2156   397   395    1
  2157  1794  1796    1
  2158  1427  1422    1
  2159  1427  1438    1
  2160   326   319   ar
  2161   341   340    2
  2162   431   432   ar
  2163   431   434   ar
  2164   460   461    1
  2165   460   462    1
  2166   363   364   ar
  2167   363   369   ar
  2168   340   339   ar
  2169   292   294    1
  2170  2283  2285   ar
  2171  2283  2282   ar
  2172   451   450    2
  2173   526   504    2
  2174  2285  2286   ar
  2175   456   455   ar
  2176  2609  2610    1
  2177  1809  1810   ar
  2178  1809  1808   ar
  2179  1800  1810    1
  2180  1800  1798    1
  2181   345   346   ar
  2182   432   433    1
  2183  2663  2662   ar
  2184   319   318    1
  2185  2659  2654    1
  2186   296   294    1
  2187   296   297    1
  2188   381   379    1
  2189   381   376    1
  2190   410   409   ar
  2191   410   411    2
  2192   364   367   ar
  2193  1432  1438   ar
  2194  1432  1433   ar
  2195   450   452   ar
  2196  1428  1434   ar
  2197   409   412   ar
  2198  1810  1804   ar
  2199  2281  2282    1
  2200  2281  2276    1
  2201   294   295    1
  2202   437   417    2
  2203  2282  2289   ar
  2204   417   438    1
  2205  1808  1805   ar
  2206   380   379    1
  2207   357   356    1
  2208  2287  2286    2
  2209  2286  2288   ar
  2210  1438  1437   ar
  2211  2653  2651    1
  2212  2653  2654    1
  2213   379   377    1
  2214  2660  2661   ar
  2215  1419  1420    1
  2216  2632  2630    1
  2217  2632  2633    1
  2218  2630  2628    1
  2219  2651  2652    1
  2220   369   358    1
  2221   369   368   ar
  2222   358   356    1
  2223   358   353    1
  2224   328   309    2
  2225   413   412   ar
  2226  2289  2288   ar
  2227   462   463    1
  2228   462   464    1
  2229   395   396    1
  2230   339   346   ar
  2231   339   338    1
  2232  2167  2149    2
  2233  1804  1805   ar
  2234  1804  1803   ar
  2235  2275  2276    1
  2236  2275  2273    1
  2237  1805  1806   ar
  2238  2629  2628    1
  2239  2629  2627    1
  2240  2662  2661   ar
  2241  1799  1798    1
  2242   455   453   ar
  2243   463   468    1
  2244  1796  1798    1
  2245  1796  1797    1
  2246  2147  2129    2
  2247   356   354    1
  2248  1433  1434   ar
  2249  1433  1436   ar
  2250   504   525    1
  2251   504   506    1
  2252   504   488    1
  2253  1434  1435    2
  2254   318   313    1
  2255   318   316    1
  2256  2610  2627    1
  2257   376   375    1
  2258  1420  1418    1
  2259   367   368   ar
  2260   452   453   ar
  2261  1803  1802   ar
  2262  1437  1436   ar
  2263  2649  2627    2
  2264  1806  1807    1
  2265  1806  1801   ar
  2266   295   309    1
  2267   313   312    1
  2268   353   352    1
  2269  2274  2273    1
  2270  2274  2272    1
  2271  2633  2650    1
  2272  2627  2648    1
  2273  1797  1813    1
  2274   338   333    1
  2275   338   336    1
  2276   503   482    2
  2277   396   394    1
  2278   453   454    2
  2279   377   375    1
  2280   377   378    1
  2281   506   505    1
  2282  2652  2650    1
  2283   309   311    1
  2284   309   327    1
  2285  1802  1801   ar
  2286  1407  1406    1
  2287  2130  2132    1
  2288  2130  2131    1
  2289  2135  2149    1
  2290  2135  2134    1
  2291   488   487    1
  2292   487   489    1
  2293   487   485    1
  2294   464   465    1
  2295   464   466    1
  2296  2149  2168    1
  2297  2149  2151    1
  2298  2671  2650    2
  2299   465   482    1
  2300  1439  1418    2
  2301   311   310    1
  2302  1405  1406   ar
  2303  1405  1411   ar
  2304  2267  2266    2
  2305  1412  1411    2
  2306   375   373    1
  2307   316   314    1
  2308   316   317    1
  2309   490   489    1
  2310   468   479    1
  2311   468   466    1
  2312   478   479   ar
  2313   478   477   ar
  2314  2650  2670    1
  2315  2129  2112    1
  2316  2129  2131    1
  2317  2129  2148    1
  2318   354   352    1
  2319   354   355    1
  2320  2291  2272    2
  2321  1418  1440    1
  2322  1418  1401    1
  2323  1406  1408   ar
  2324  2187  2169    2
  2325   378   394    1
  2326   352   350    1
  2327   333   332    1
  2328  1411  1410   ar
  2329  2132  2134    1
  2330  2132  2133    1
  2331   483   484    1
  2332   483   485    1
  2333   336   337    1
  2334   336   334    1
  2335   484   482    1
  2336   505   507    1
  2337  2112  2111    1
  2338   489   491    1
  2339  2272  2290    1
  2340  2272  2258    1
  2341   482   502    1
  2342   312   310    1
  2343   312   314    1
  2344   355   372    1
  2345   479   473   ar
  2346  2266  2265   ar
  2347  2266  2268   ar
  2348   314   315    1
  2349   467   466    1
  2350   485   486    1
  2351  2134  2136    1
  2352   394   415    2
  2353   394   416    1
  2354   477   474   ar
  2355  2265  2263   ar
  2356  1835  1813    2
  2357  1408  1409   ar
  2358  1813  1834    1
  2359  1813  1815    1
  2360  2150  2151    1
  2361  2150  2152    1
  2362  2188  2169    1
  2363  2114  2113    1
  2364  1410  1409   ar
  2365  1410  1413   ar
  2366  2137  2136    1
  2367  2268  2269   ar
  2368  1401  1400    1
  2369  1409  1415   ar
  2370  2169  2155    1
  2371  2169  2171    1
  2372  1402  1403    1
  2373  1402  1400    1
  2374  1402  1404    1
  2375   374   373    1
  2376   374   372    1
  2377   334   332    1
  2378   334   335    1
  2379  2263  2264    2
  2380  2263  2262   ar
  2381   348   329    2
  2382  2133  2138    1
  2383   350   351    1
  2384  1413  1414   ar
  2385   332   330    1
  2386   473   474   ar
  2387   473   472   ar
  2388   331   330    1
  2389   331   329    1
  2390  2111  2109    1
  2391  2111  2113    1
  2392  2155  2154    1
  2393   507   508    1
  2394   507   509    1
  2395  1400  1398    1
  2396  1817  1816    1
  2397  1817  1822    1
  2398  1814  1815    1
  2399  1814  1816    1
  2400   372   393    2
  2401   372   392    1
  2402  2258  2257    1
  2403   474   475   ar
  2404  2136  2138    1
  2405   491   486    1
  2406   491   501    1
  2407  2269  2262   ar
  2408  1832  1831   ar
  2409  1832  1833   ar
  2410  1831  1828   ar
  2411  2259  2257    1
  2412  2259  2260    1
  2413  2259  2261    1
  2414  2109  2107    1
  2415  2109  2110    1
  2416   351   349    1
  2417  1415  1414   ar
  2418  1415  1404    1
  2419   315   329    1
  2420  2262  2261    1
  2421  2257  2255    1
  2422  2113  2115    1
  2423  2107  2108    1
  2424  2152  2154    1
  2425  2152  2153    1
  2426   329   347    1
  2427  1389  1388    1
  2428  1404  1399    1
  2429   472   470   ar
  2430  1816  1818    1
  2431  2154  2156    1
  2432   508   513    1
  2433  2138  2139    1
  2434  1833  1822    1
  2435  1833  1827   ar
  2436  2208  2189    2
  2437  1828  1829   ar
  2438  1828  1827   ar
  2439  2171  2170    1
  2440  2207  2189    1
  2441   873   872    1
  2442  1830  1829    2
  2443   509   510    1
  2444   509   511    1
  2445  1822  1820    1
  2446   335   349    1
  2447  2127  2106    2
  2448  2271  2252    2
  2449   501   500   ar
  2450   501   495   ar
  2451  2247  2246    1
  2452  2261  2256    1
  2453   475   476    2
  2454   475   469   ar
  2455  1829  1823   ar
  2456   531   530    1
  2457   531   536    1
  2458   528   530    1
  2459   528   529    1
  2460  1383  1388   ar
  2461  1383  1384   ar
  2462  1827  1826   ar
  2463   500   499   ar
  2464  1388  1387   ar
  2465   530   532    1
  2466  2110  2115    1
  2467  2108  2106    1
  2468  2170  2172    1
  2469  2254  2252    1
  2470  2254  2253    1
  2471   349   371    2
  2472   349   370    1
  2473  2115  2126    1
  2474  1398  1399    1
  2475  1398  1396    1
  2476  2153  2158    1
  2477   889   891    1
  2478   889   890    1
  2479   891   892    1
  2480   891   893    1
  2481  2189  2175    1
  2482  2189  2191    1
  2483   470   469   ar
  2484   470   471    1
  2485   545   527    2
  2486   510   527    1
  2487   896   895    1
  2488   892   897    1
  2489  2255  2256    1
  2490  2255  2253    1
  2491  2146  2139   ar
  2492  2146  2145   ar
  2493   511   513    1
  2494   511   512    1
  2495  2252  2270    1
  2496  2252  2238    1
  2497  1823  1824   ar
  2498  2139  2140   ar
  2499   495   494   ar
  2500   495   496   ar
  2501  1826  1824   ar
  2502  2246  2248   ar
  2503  2246  2245   ar
  2504  1384  1385   ar
  2505  1397  1396    1
  2506  1397  1395    1
  2507  2106  2092    1
  2508  2106  2128    1
  2509   494   493   ar
  2510   513   524    1
  2511   536   534    1
  2512   536   537    1
  2513  1818  1820    1
  2514  1818  1819    1
  2515  2094  2093    1
  2516   535   534    1
  2517  1824  1825    1
  2518   499   496   ar
  2519  2156  2157    1
  2520  2156  2158    1
  2521   523   524   ar
  2522   523   522   ar
  2523  1387  1390   ar
  2524  1387  1386   ar
  2525   872   874    1
  2526   872   870    1
  2527  2251  2232    2
  2528  2231  2209    2
  2529  2248  2249   ar
  2530  2092  2091    1
  2531  1820  1821    1
  2532  1241  1220    2
  2533  1218  1200    2
  2534  1417  1395    2
  2535   871   870    1
  2536   871   888    1
  2537  2245  2243   ar
  2538   529   527    1
  2539  2175  2174    1
  2540  2166  2165   ar
  2541  2166  2159   ar
  2542   527   546    1
  2543   868   869    1
  2544   868   870    1
  2545   868   866    1
  2546   897   895    1
  2547   897   908    1
  2548   894   893    1
  2549   894   911    1
  2550   524   518   ar
  2551   909   888    2
  2552   496   497   ar
  2553   874   869    1
  2554   874   885    1
  2555  2158  2159    1
  2556  1390  1391   ar
  2557   893   895    1
  2558  2191  2190    1
  2559   532   534    1
  2560   532   533    1
  2561  2172  2174    1
  2562  2172  2173    1
  2563  1367  1366    1
  2564  2126  2120   ar
  2565  2126  2125   ar
  2566   877   876    1
  2567   890   888    1
  2568  1385  1386   ar
  2569  2145  2143   ar
  2570   537   544   ar
  2571   537   538   ar
  2572   544   543   ar
  2573   522   519   ar
  2574  1395  1416    1
  2575  1395  1379    1
  2576   493   492   ar
  2577  2174  2176    1
  2578   533   547    1
  2579  2165  2163   ar
  2580  1386  1392   ar
  2581  2119  2120   ar
  2582  2119  2117   ar
  2583  2140  2141    2
  2584  2140  2142   ar
  2585  1819  1836    1
  2586   878   876   ar
  2587   878   879   ar
  2588  2093  2091    1
  2589  2093  2095    1
  2590   888   910    1
  2591  2249  2242   ar
  2592  2159  2160   ar
  2593  2250  2232    1
  2594  2230  2209    1
  2595  2204  2203    2
  2596  1851  1850    1
  2597  2243  2242   ar
  2598  2243  2244    2
  2599   866   867    1
  2600  2238  2237    1
  2601   932   911    2
  2602  2205  2203   ar
  2603  2205  2206   ar
  2604  2232  2234    1
  2605  2232  2215    1
  2606  2120  2121   ar
  2607  2226  2225    2
  2608  2209  2211    1
  2609  2209  2195    1
  2610  2091  2089    1
  2611   497   492   ar
  2612   497   498    1
  2613   518   519   ar
  2614   518   517   ar
  2615  2234  2233    1
  2616  1391  1392   ar
  2617  2118  2117    1
  2618  2237  2239    1
  2619  2237  2235    1
  2620   876   875   ar
  2621  1855  1836    2
  2622   543   541   ar
  2623   538   539    2
  2624   538   540   ar
  2625  2125  2124   ar
  2626  2185  2186   ar
  2627  2185  2183   ar
  2628  2186  2179   ar
  2629  2173  2178    1
  2630  2242  2241    1
  2631  1220  1206    1
  2632  1220  1242    1
  2633  1220  1222    1
  2634  1366  1361   ar
  2635  1366  1365   ar
  2636   519   520   ar
  2637   908   907   ar
  2638   908   902   ar
  2639  1392  1382    1
  2640   911   913    1
  2641   911   933    1
  2642  1201  1202    1
  2643  1201  1203    1
  2644  2190  2192    1
  2645  2117  2116   ar
  2646   885   879   ar
  2647   885   884   ar
  2648  1361  1362   ar
  2649  2203  2202   ar
  2650  1200  1184    1
  2651  1200  1202    1
  2652  1200  1219    1
  2653   912   913    1
  2654   912   914    1
  2655  1852  1850   ar
  2656  1852  1853   ar
  2657  2239  2241    1
  2658  2239  2240    1
  2659  1850  1849   ar
  2660  1380  1378    1
  2661  1380  1381    1
  2662  1380  1382    1
  2663  1206  1205    1
  2664   879   880   ar
  2665  2206  2199   ar
  2666  2227  2224   ar
  2667  2227  2228   ar
  2668  2143  2142   ar
  2669  2143  2144    1
  2670  1184  1183    1
  2671  2098  2097    2
  2672   517   515   ar
  2673  1836  1854    1
  2674  1836  1838    1
  2675  2211  2210    1
  2676  2163  2164    2
  2677  2163  2162   ar
  2678  2089  2090    1
  2679  2089  2087    1
  2680  1379  1378    1
  2681  2225  2224   ar
  2682  2225  2219   ar
  2683   907   906   ar
  2684   567   547    2
  2685   540   541   ar
  2686   867   865    1
  2687  1378  1376    1
  2688   547   568    1
  2689   547   549    1
  2690   541   542    2
  2691  2176  2178    1
  2692  2176  2177    1
  2693  2160  2162   ar
  2694  2160  2161    2
  2695  2095  2090    1
  2696  2095  2096    1
  2697  2195  2194    1
  2698  1853  1846   ar
  2699   901   902   ar
  2700   901   899   ar
  2701  2224  2223   ar
  2702  2233  2235    1
  2703  1264  1243    2
  2704  2121  2124   ar
  2705  2121  2122   ar
  2706  1365  1368   ar
  2707  1365  1364   ar
  2708  2241  2236    1
  2709  1203  1205    1
  2710  1203  1204    1
  2711  2194  2192    1
  2712  2194  2196    1
  2713  1849  1847   ar
  2714  2228  2229   ar
  2715   902   903   ar
  2716   914   915    1
  2717   914   916    1
  2718   520   521    2
  2719   520   514   ar
  2720  1382  1377    1
  2721  2178  2179    1
  2722  2179  2180   ar
  2723   915   920    1
  2724  2215  2214    1
  2725  2184  2183    1
  2726  2183  2182   ar
  2727  1221  1222    1
  2728  1221  1223    1
  2729  1368  1369   ar
  2730  2235  2236    1
  2731  1362  1363   ar
  2732   875   881   ar
  2733  1198  1178    2
  2734  2192  2193    1
  2735  1394  1373    2
  2736   887   865    2
  2737  2219  2220   ar
  2738   884   883   ar
  2739  1205  1207    1
  2740   548   549    1
  2741   548   550    1
  2742  2214  2216    1
  2743  2214  2212    1
  2744  2116  2122   ar
  2745   515   514   ar
  2746   515   516    1
  2747  2097  2096   ar
  2748  2097  2099   ar
  2749  2202  2200   ar
  2750  2087  2088    1
  2751  1323  1322    2
  2752  1872  1871    1
  2753  1179  1181    1
  2754  1179  1180    1
  2755  1265  1243    1
  2756  1345  1344    1
  2757  1186  1185    1
  2758  2210  2212    1
  2759  1838  1837    1
  2760  1846  1847   ar
  2761  1846  1845    1
  2762  2199  2200   ar
  2763  2199  2198    1
  2764   880   881   ar
  2765   880   883   ar
  2766  1847  1848    2
  2767  1935  1934    1
  2768   865   886    1
  2769   865   848    1
  2770  1181  1183    1
  2771  1181  1182    1
  2772  1183  1185    1
  2773  2096  2103   ar
  2774   906   903   ar
  2775  1840  1845    1
  2776  1840  1839    1
  2777  1375  1373    1
  2778  1375  1374    1
  2779  2223  2229   ar
  2780  2223  2222   ar
  2781  1243  1226    1
  2782  1243  1245    1
  2783   551   550    1
  2784   551   556    1
  2785  2193  2198    1
  2786  2122  2123    2
  2787  1364  1363   ar
  2788  1364  1370   ar
  2789  2229  2218    1
  2790   899   900    1
  2791   899   898   ar
  2792  1226  1225    1
  2793  1316  1322   ar
  2794  1316  1317   ar
  2795   903   904   ar
  2796  1372  1351    2
  2797  1377  1376    1
  2798  1837  1839    1
  2799  1208  1207    1
  2800  1369  1370   ar
  2801  2196  2198    1
  2802  2196  2197    1
  2803  1376  1374    1
  2804  2182  2180   ar
  2805   881   882    2
  2806  1322  1321   ar
  2807   550   552    1
  2808  2180  2181    2
  2809  2200  2201    2
  2810  2216  2218    1
  2811  2216  2217    1
  2812  2099  2100   ar
  2813  1204  1209    1
  2814  2212  2213    1
  2815  2220  2222   ar
  2816  2220  2221    1
  2817  1346  1343   ar
  2818  1346  1347   ar
  2819   920   918    1
  2820   920   931    1
  2821  1373  1393    1
  2822  1373  1357    1
  2823  1845  1843    1
  2824  1223  1225    1
  2825  1223  1224    1
  2826  1318  1317    1
  2827  1185  1187    1
  2828   916   917    1
  2829   916   918    1
  2830  1180  1178    1
  2831  1871  1866   ar
  2832  1871  1870   ar
  2833  1207  1209    1
  2834  1178  1161    1
  2835  1178  1199    1
  2836  1344  1343   ar
  2837  1344  1339   ar
  2838  2088  2086    1
  2839   919   918    1
  2840  1370  1360    1
  2841   917   934    1
  2842  1317  1319   ar
  2843  2218  2213    1
  2844  1225  1227    1
  2845  1839  1841    1
  2846  2103  2102   ar
  2847   850   849    1
  2848  1161  1160    1
  2849  1934  1933   ar
  2850  1934  1936   ar
  2851  1866  1867   ar
  2852   565   566   ar
  2853   565   564   ar
  2854  1343  1342   ar
  2855  1933  1939   ar
  2856   898   904   ar
  2857  1182  1187    1
  2858   930   931   ar
  2859   930   929   ar
  2860   556   566    1
  2861   556   554    1
  2862  1347  1348   ar
  2863  1958  1957    2
  2864   904   905    2
  2865   931   925   ar
  2866   848   847    1
  2867  1895  1894    2
  2868  1873  1870   ar
  2869  1873  1874   ar
  2870  1285  1266    2
  2871  1321  1324   ar
  2872  1321  1320   ar
  2873  1209  1210    1
  2874  1870  1869   ar
  2875  2100  2102   ar
  2876  2100  2101    1
  2877  2104  2086    2
  2878  1351  1353    1
  2879  1351  1371    1
  2880  1351  1335    1
  2881  1163  1162    1
  2882  1245  1244    1
  2883  1358  1356    1
  2884  1358  1360    1
  2885  1358  1359    1
  2886   566   560   ar
  2887  1330  1331    1
  2888  1330  1332    1
  2889  1339  1340   ar
  2890  1353  1352    1
  2891  1356  1357    1
  2892  1356  1354    1
  2893  1187  1197    1
  2894  1224  1229    1
  2895  1911  1912   ar
  2896  1911  1916   ar
  2897   847   849    1
  2898   847   845    1
  2899   564   561   ar
  2900  1284  1266    1
  2901  1331  1329    1
  2902  1917  1916    1
  2903   552   554    1
  2904   552   553    1
  2905  1936  1937   ar
  2906   954   934    2
  2907  1841  1843    1
  2908  1841  1842    1
  2909   849   851    1
  2910  1319  1320   ar
  2911  1324  1325   ar
  2912  1954  1953    1
  2913  1360  1355    1
  2914  1217  1210   ar
  2915  1217  1216   ar
  2916  2074  2073    1
  2917  1843  1844    1
  2918  2086  2072    1
  2919  2086  2105    1
  2920  1350  1329    2
  2921  1244  1246    1
  2922  2078  2077    2
  2923  1867  1868   ar
  2924   934   955    1
  2925   934   936    1
  2926   929   926   ar
  2927  1320  1326   ar
  2928  1301  1300    2
  2929  1342  1348   ar
  2930  1342  1341   ar
  2931  1939  1940    2
  2932  1939  1938   ar
  2933  1912  1913   ar
  2934   555   554    1
  2935  1160  1158    1
  2936  1160  1162    1
  2937  1348  1338    1
  2938  1894  1888   ar
  2939  1894  1893   ar
  2940  1874  1875   ar
  2941  1957  1959   ar
  2942  1957  1956   ar
  2943  1266  1249    1
  2944  1266  1268    1
  2945  1888  1889   ar
  2946   925   924   ar
  2947   925   926   ar
  2948  1916  1915   ar
  2949  1210  1211   ar
  2950  1227  1228    1
  2951  1227  1229    1
  2952  1334  1335    1
  2953  1334  1332    1
  2954  1334  1336    1
  2955   553   569    1
  2956  1158  1156    1
  2957  1158  1159    1
  2958  1869  1868   ar
  2959  1869  1875   ar
  2960   560   561   ar
  2961   560   559   ar
  2962  1162  1164    1
  2963  2073  2071    1
  2964  2073  2075    1
  2965   591   569    2
  2966   561   562   ar
  2967  1340  1341   ar
  2968  1955  1953    1
  2969  1955  1956    1
  2970  1955  1950    1
  2971  1329  1349    1
  2972  1329  1312    1
  2973  1332  1333    1
  2974  2072  2071    1
  2975  1156  1157    1
  2976  1355  1354    1
  2977   864   842    2
  2978  1216  1214   ar
  2979  1229  1240    1
  2980  1354  1352    1
  2981  1877  1856    2
  2982   924   922   ar
  2983  1959  1960   ar
  2984   926   927   ar
  2985   844   843    1
  2986   844   842    1
  2987  1325  1326   ar
  2988  1937  1938   ar
  2989  1937  1943   ar
  2990  1197  1196   ar
  2991  1197  1191   ar
  2992  2077  2079   ar
  2993  2077  2076   ar
  2994  1953  1951    1
  2995  1875  1865    1
  2996  1333  1338    1
  2997  1249  1248    1
  2998  1326  1315    1
  2999   845   843    1
  3000   845   846    1
  3001  2079  2080   ar
  3002  1239  1240   ar
  3003  1239  1238   ar
  3004   863   842    1
  3005  1300  1302   ar
  3006  1300  1299   ar
  3007  1842  1856    1
  3008   854   853    1
  3009  1956  1963   ar
  3010  1938  1941   ar
  3011  1305  1286    2
  3012   778   758    2
  3013  1890  1889    1
  3014   935   936    1
  3015   935   937    1
  3016   559   558   ar
  3017  1338  1336    1
  3018   851   862    1
  3019   851   846    1
  3020  1336  1337    1
  3021   726   725    1
  3022  1950  1949    1
  3023   842   826    1
  3024  1889  1891   ar
  3025   569   590    1
  3026   569   571    1
  3027  1246  1248    1
  3028  1246  1247    1
  3029  1302  1303   ar
  3030  1893  1896   ar
  3031  1893  1892   ar
  3032  2071  2069    1
  3033  1913  1914   ar
  3034   855   853   ar
  3035   855   856   ar
  3036  1248  1250    1
  3037  1313  1311    1
  3038  1313  1315    1
  3039  1313  1314    1
  3040  1176  1155    2
  3041  1240  1234   ar
  3042  1268  1267    1
  3043  1196  1195   ar
  3044  1159  1164    1
  3045   562   563    1
  3046   562   557   ar
  3047  1190  1191   ar
  3048  1190  1189   ar
  3049  1915  1914   ar
  3050  1915  1918   ar
  3051   853   852   ar
  3052  1211  1212    2
  3053  1211  1213   ar
  3054  1164  1175    1
  3055  2075  2076    1
  3056  2075  2070    1
  3057   744   758    1
  3058   744   743    1
  3059  1896  1897   ar
  3060   739   741    1
  3061   739   740    1
  3062   741   742    1
  3063   741   743    1
  3064   746   745    1
  3065  1191  1192   ar
  3066   587   588   ar
  3067   587   584   ar
  3068  1856  1858    1
  3069  1856  1876    1
  3070   922   921   ar
  3071   922   923    1
  3072  2076  2083   ar
  3073  1262  1261   ar
  3074  1262  1263   ar
  3075  1157  1155    1
  3076  1949  1951    1
  3077  1949  1947    1
  3078  1311  1312    1
  3079  1311  1309    1
  3080  1943  1932    1
  3081  1943  1942   ar
  3082   862   856   ar
  3083   862   861   ar
  3084   927   921   ar
  3085   927   928    2
  3086   856   857   ar
  3087  1238  1235   ar
  3088  1315  1310    1
  3089  1914  1920   ar
  3090  1960  1961    2
  3091  1960  1962   ar
  3092  1931  1930    1
  3093  1261  1258   ar
  3094  2080  2081    1
  3095  2080  2082   ar
  3096  1328  1306    2
  3097  1214  1213   ar
  3098  1214  1215    1
  3099   558   557   ar
  3100  1299  1297   ar
  3101  1860  1865    1
  3102  1860  1859    1
  3103  1932  1930    1
  3104  1932  1927    1
  3105  1865  1863    1
  3106   588   589   ar
  3107  1951  1952    1
  3108   586   585    2
  3109   938   937    1
  3110   938   943    1
  3111  1282  1283   ar
  3112  1282  1280   ar
  3113   758   779    1
  3114   758   760    1
  3115  1247  1252    1
  3116  1140  1139    1
  3117  1892  1891   ar
  3118  1892  1898   ar
  3119   852   858   ar
  3120  1941  1942   ar
  3121  1963  1962   ar
  3122   937   939    1
  3123  1858  1857    1
  3124  1281  1280    1
  3125  1952  1966    1
  3126  1267  1269    1
  3127  1303  1296   ar
  3128   742   747    1
  3129  1286  1304    1
  3130  1286  1288    1
  3131  1286  1272    1
  3132   743   745    1
  3133   724   723    1
  3134   724   738    1
  3135  1930  1928    1
  3136  1155  1138    1
  3137  1155  1177    1
  3138  1918  1919   ar
  3139   756   738    2
  3140   571   570    1
  3141  2069  2070    1
  3142  2069  2067    1
  3143   840   820    2
  3144  1189  1188   ar
  3145   861   860   ar
  3146   584   585   ar
  3147   584   583   ar
  3148   725   727    1
  3149   725   723    1
  3150   857   858   ar
  3151   857   860   ar
  3152  1195  1192   ar
  3153  1234  1235   ar
  3154  1234  1233   ar
  3155   952   951   ar
  3156   952   953   ar
  3157  1138  1137    1
  3158   585   579   ar
  3159   721   722    1
  3160   721   723    1
  3161   721   719    1
  3162  1283  1276   ar
  3163   745   747    1
  3164  1308  1306    1
  3165  1308  1307    1
  3166  1168  1169   ar
  3167  1168  1166   ar
  3168  1897  1898   ar
  3169  2083  2082   ar
  3170   826   825    1
  3171  1192  1193   ar
  3172  1250  1252    1
  3173  1250  1251    1
  3174   858   859    2
  3175  1280  1279   ar
  3176  1175  1169   ar
  3177  1175  1174   ar
  3178   747   748    1
  3179  1263  1252    1
  3180  1263  1257   ar
  3181   740   738    1
  3182   727   722    1
  3183   727   728    1
  3184  1235  1236   ar
  3185   759   760    1
  3186   759   761    1
  3187  1947  1948    1
  3188  1288  1287    1
  3189  1968  1967    1
  3190  1968  1966    1
  3191   589   583   ar
  3192   589   578    1
  3193   573   578    1
  3194   573   572    1
  3195  1310  1309    1
  3196   951   948   ar
  3197   808   807    1
  3198  1857  1859    1
  3199  1167  1166    1
  3200  1927  1926    1
  3201  1306  1327    1
  3202  1306  1292    1
  3203  1920  1919   ar
  3204  1920  1910    1
  3205  1297  1296   ar
  3206  1297  1298    2
  3207   730   729    2
  3208   738   757    1
  3209  1898  1887    1
  3210  1258  1257   ar
  3211  1258  1259   ar
  3212  1309  1307    1
  3213  1967  1969    1
  3214  1144  1143    1
  3215  1859  1861    1
  3216   570   572    1
  3217  1296  1295    1
  3218  1139  1137    1
  3219  1139  1141    1
  3220   583   582   ar
  3221  1863  1861    1
  3222  1863  1864    1
  3223  1233  1231   ar
  3224  1272  1271    1
  3225  1169  1170   ar
  3226   806   820    1
  3227   806   805    1
  3228   943   953    1
  3229   943   941    1
  3230  1271  1269    1
  3231  1271  1273    1
  3232   953   947   ar
  3233   825   823    1
  3234   825   827    1
  3235   719   720    1
  3236   609   608    2
  3237  1166  1165   ar
  3238  1260  1259    2
  3239  1269  1270    1
  3240   706   705    1
  3241   939   940    1
  3242   939   941    1
  3243  1966  1985    2
  3244  1966  1984    1
  3245   578   576    1
  3246  1188  1193   ar
  3247   579   580   ar
  3248   821   823    1
  3249   821   822    1
  3250  2067  2068    1
  3251  1137  1135    1
  3252   667   666    1
  3253   823   824    1
  3254  1861  1862    1
  3255   820   822    1
  3256   820   841    1
  3257  1257  1256   ar
  3258  1193  1194    1
  3259  1174  1173   ar
  3260  1259  1253   ar
  3261   710   709    2
  3262  2068  2066    1
  3263  1928  1926    1
  3264  1928  1929    1
  3265   572   574    1
  3266  1910  1908    1
  3267  1910  1905    1
  3268  1948  1946    1
  3269  1276  1277   ar
  3270  1276  1275    1
  3271  1291  1292    1
  3272  1291  1293    1
  3273  1291  1289    1
  3274  1270  1275    1
  3275  1279  1277   ar
  3276   948   947   ar
  3277   948   949   ar
  3278   940   956    1
  3279  1926  1924    1
  3280   761   762    1
  3281   761   763    1
  3282  1145  1143   ar
  3283  1145  1146   ar
  3284   750   749    2
  3285  1287  1289    1
  3286  1236  1237    2
  3287  1236  1230   ar
  3288   803   805    1
  3289   803   804    1
  3290   803   801    1
  3291   729   728   ar
  3292   729   731   ar
  3293   728   735   ar
  3294  1143  1142   ar
  3295   798   780    2
  3296   582   580   ar
  3297   748   749   ar
  3298   748   755   ar
  3299  1969  1970    1
  3300  1969  1971    1
  3301   807   805    1
  3302   807   809    1
  3303  1887  1882    1
  3304  1887  1885    1
  3305   580   581    1
  3306  1135  1136    1
  3307  1135  1133    1
  3308  1982  1983   ar
  3309  1982  1980   ar
  3310   947   946   ar
  3311   941   942    1
  3312  1293  1295    1
  3313  1293  1294    1
  3314  1970  1975    1
  3315   690   689    2
  3316   608   607   ar
  3317   608   602   ar
  3318  1295  1290    1
  3319  1231  1230   ar
  3320  1231  1232    1
  3321  1141  1136    1
  3322  1141  1152    1
  3323  1929  1946    1
  3324  1908  1909    1
  3325  1908  1906    1
  3326   809   804    1
  3327   809   810    1
  3328   802   801    1
  3329   802   800    1
  3330  1981  1980    2
  3331   978   956    2
  3332  1273  1275    1
  3333  1273  1274    1
  3334  1170  1173   ar
  3335  1170  1171   ar
  3336  2058  2057    2
  3337  1900  1878    2
  3338  1277  1278    2
  3339  2059  2057   ar
  3340  2059  2060   ar
  3341  1983  1976   ar
  3342  2061  2060    1
  3343  1290  1289    1
  3344  1165  1171   ar
  3345   665   666   ar
  3346   665   671   ar
  3347   705   707    1
  3348   705   703    1
  3349   610   607   ar
  3350   610   611   ar
  3351  1980  1979   ar
  3352   749   751   ar
  3353   666   668   ar
  3354   827   828    1
  3355   827   829    1
  3356   720   718    1
  3357   950   949    1
  3358   755   754   ar
  3359   762   767    1
  3360  1256  1254   ar
  3361   949   944   ar
  3362   574   576    1
  3363   574   575    1
  3364  1882  1881    1
  3365  1905  1904    1
  3366   707   708    1
  3367   707   702    1
  3368   824   829    1
  3369   781   783    1
  3370   781   782    1
  3371   763   764    1
  3372   763   765    1
  3373   576   577    1
  3374   709   711   ar
  3375   709   708   ar
  3376  2057  2056   ar
  3377   607   606   ar
  3378  1253  1254   ar
  3379  1862  1878    1
  3380   602   603   ar
  3381   956   977    1
  3382   956   958    1
  3383   818   800    2
  3384  2060  2062   ar
  3385  1946  1964    2
  3386  1946  1965    1
  3387  2066  2085    2
  3388  2066  2084    1
  3389  2066  2052    1
  3390  1146  1152   ar
  3391  1146  1147   ar
  3392  1142  1148   ar
  3393  1976  1975    1
  3394  1976  1977   ar
  3395   731   732   ar
  3396  1885  1886    1
  3397  1885  1883    1
  3398  1133  1134    1
  3399   735   734   ar
  3400   946   945   ar
  3401  1171  1172    2
  3402   630   629    1
  3403  1979  1977   ar
  3404  1924  1925    1
  3405   817   810   ar
  3406   817   816   ar
  3407  1152  1151   ar
  3408   736   718    2
  3409   689   691   ar
  3410   689   688   ar
  3411   829   839    1
  3412  1254  1255    1
  3413  1975  1973    1
  3414   672   671    2
  3415   780   764    1
  3416   780   782    1
  3417   780   799    1
  3418  1878  1880    1
  3419  1878  1899    1
  3420  1971  1972    1
  3421  1971  1973    1
  3422  1925  1923    1
  3423   611   612   ar
  3424   800   819    1
  3425   800   786    1
  3426   810   811   ar
  3427   704   718    1
  3428   704   703    1
  3429   711   712   ar
  3430   686   685    1
  3431  1977  1978    2
  3432  1880  1879    1
  3433   783   784    1
  3434   783   785    1
  3435   691   692   ar
  3436   776   775   ar
  3437   776   777   ar
  3438   671   670   ar
  3439   708   715   ar
  3440  2053  2054    1
  3441  2053  2051    1
  3442  2053  2055    1
  3443   702   701    1
  3444  1906  1904    1
  3445  1906  1907    1
  3446   668   669   ar
  3447   718   737    1
  3448  1121  1120    1
  3449   703   701    1
  3450  2004  1986    2
  3451   944   945   ar
  3452   614   592    2
  3453   751   752   ar
  3454   765   767    1
  3455   765   766    1
  3456  1134  1132    1
  3457   754   752   ar
  3458  2056  2055    1
  3459  2056  2063   ar
  3460   701   699    1
  3461   767   777    1
  3462  1883  1881    1
  3463  1883  1884    1
  3464   575   592    1
  3465   606   612   ar
  3466   606   605   ar
  3467  2062  2063   ar
  3468  1904  1902    1
  3469  1972  1986    1
  3470   603   604    1
  3471   603   605   ar
  3472   775   772   ar
  3473  1881  1879    1
  3474   687   688    1
  3475   687   685    1
  3476   687   682    1
  3477  1147  1148   ar
  3478  1147  1150   ar
  3479  2052  2051    1
  3480   816   814   ar
  3481  1148  1149    2
  3482   784   789    1
  3483   732   734   ar
  3484   732   733    1
  3485   958   957    1
  3486   777   771   ar
  3487  1973  1974    1
  3488   629   628   ar
  3489   629   631   ar
  3490   688   695   ar
  3491   612   601    1
  3492   685   683    1
  3493  2051  2049    1
  3494  2055  2050    1
  3495  1151  1150   ar
  3496   628   626   ar
  3497   752   753    1
  3498   974   975   ar
  3499   974   971   ar
  3500   786   785    1
  3501  1922  1901    2
  3502   785   787    1
  3503  1907  1923    1
  3504  2041  2040    2
  3505  1986  2005    1
  3506  1986  1988    1
  3507   669   670   ar
  3508   669   675   ar
  3509  1945  1923    2
  3510   670   673   ar
  3511  1903  1902    1
  3512  1903  1901    1
  3513   692   693    2
  3514   692   694   ar
  3515  1923  1944    1
  3516   839   838   ar
  3517   839   833   ar
  3518   650   649    2
  3519   811   812    2
  3520   811   813   ar
  3521   592   594    1
  3522   592   613    1
  3523   975   976   ar
  3524   712   713    1
  3525   712   714   ar
  3526   715   714   ar
  3527  1120  1122   ar
  3528  1120  1119   ar
  3529   957   959    1
  3530   648   649   ar
  3531   648   646   ar
  3532   682   681    1
  3533  1153  1132    2
  3534   973   972    2
  3535  1117  1116    1
  3536   647   646    2
  3537   772   771   ar
  3538   772   773   ar
  3539  1884  1901    1
  3540   631   632   ar
  3541  1132  1115    1
  3542  1132  1154    1
  3543   700   699    1
  3544   700   698    1
  3545   832   833   ar
  3546   832   831   ar
  3547  1122  1123   ar
  3548   771   770   ar
  3549   594   593    1
  3550  1901  1921    1
  3551   596   601    1
  3552   596   595    1
  3553   814   813   ar
  3554   814   815    1
  3555   649   651   ar
  3556   971   972   ar
  3557   971   970   ar
  3558   601   599    1
  3559   960   959    1
  3560   960   965    1
  3561   838   837   ar
  3562  2040  2039   ar
  3563  2040  2042   ar
  3564   695   694   ar
  3565   789   787    1
  3566   789   790    1
  3567  2001  2000    1
  3568   626   627    2
  3569   626   625   ar
  3570  1119  1125   ar
  3571   833   834   ar
  3572   646   645   ar
  3573   972   966   ar
  3574  2039  2037   ar
  3575  2050  2049    1
  3576  2021  2020    1
  3577  1116  1114    1
  3578  1116  1118    1
  3579   683   681    1
  3580   683   684    1
  3581  2049  2047    1
  3582  1115  1114    1
  3583   681   679    1
  3584   787   788    1
  3585   675   664    1
  3586   675   674   ar
  3587   976   970   ar
  3588   976   965    1
  3589   673   674   ar
  3590   797   790   ar
  3591   797   796   ar
  3592  2002  2000   ar
  3593  2002  2003   ar
  3594   959   961    1
  3595  1988  1987    1
  3596   773   774    1
  3597   773   768   ar
  3598   684   698    1
  3599   593   595    1
  3600   770   769   ar
  3601   664   662    1
  3602   664   659    1
  3603   632   625   ar
  3604   970   969   ar
  3605   790   791   ar
  3606  2048  2047    1
  3607  2048  2046    1
  3608   663   662    1
  3609   831   830   ar
  3610  2000  1999   ar
  3611   965   963    1
  3612  2042  2043   ar
  3613   996   995    2
  3614  2065  2046    2
  3615  1123  1129   ar
  3616  1123  1124   ar
  3617   625   624    1
  3618  1114  1112    1
  3619   595   597    1
  3620   698   716    2
  3621   698   717    1
  3622   662   660    1
  3623  2037  2038    2
  3624  2037  2036   ar
  3625   796   794   ar
  3626   651   652   ar
  3627   837   834   ar
  3628   966   967   ar
  3629   599   597    1
  3630   599   600    1
  3631  2020  2022   ar
  3632  2020  2019   ar
  3633   834   835   ar
  3634  1125  1124   ar
  3635  1125  1126    2
  3636   645   652   ar
  3637   645   644    1
  3638  2003  1996   ar
  3639  1118  1129    1
  3640  1118  1113    1
  3641  2025  2006    2
  3642   961   963    1
  3643   961   962    1
  3644   597   598    1
  3645  2022  2023   ar
  3646   769   768   ar
  3647  2046  2064    1
  3648  2046  2032    1
  3649  1987  1989    1
  3650   679   680    1
  3651   997   994   ar
  3652   997   998   ar
  3653  1129  1128   ar
  3654  1124  1127   ar
  3655   969   967   ar
  3656   659   658    1
  3657  2043  2036   ar
  3658   995   994   ar
  3659   995   989   ar
  3660   791   792    2
  3661   791   793   ar
  3662  2036  2035    1
  3663   967   968    1
  3664   644   642    1
  3665   644   639    1
  3666   830   835   ar
  3667  1999  1997   ar
  3668  1001   979    2
  3669   963   964    1
  3670   624   619    1
  3671   624   622    1
  3672  2019  2017   ar
  3673  1112  1113    1
  3674  1112  1110    1
  3675  1098  1097    1
  3676   994   993   ar
  3677   634   615    2
  3678   680   678    1
  3679   835   836    1
  3680   794   793   ar
  3681   794   795    2
  3682   998   999   ar
  3683   962   979    1
  3684  2045  2026    2
  3685  2033  2031    1
  3686  2033  2035    1
  3687  2033  2034    1
  3688   660   658    1
  3689   660   661    1
  3690  1996  1997   ar
  3691  1996  1995    1
  3692  1096  1097   ar
  3693  1096  1102   ar
  3694   619   618    1
  3695  2023  2016   ar
  3696   642   643    1
  3697   642   640    1
  3698   989   990   ar
  3699   598   615    1
  3700  1103  1102    2
  3701  1128  1127   ar
  3702  1018  1017    1
  3703  1989  1990    1
  3704  1989  1991    1
  3705  2031  2032    1
  3706  2031  2029    1
  3707  2006  1992    1
  3708  2006  2024    1
  3709  2006  2008    1
  3710   658   656    1
  3711  1990  1995    1
  3712  1991  1992    1
  3713  1991  1993    1
  3714  1997  1998    2
  3715  1097  1099   ar
  3716   639   638    1
  3717  2035  2030    1
  3718   979   981    1
  3719   979  1000    1
  3720   622   620    1
  3721   622   623    1
  3722  2017  2016   ar
  3723  2017  2018    2
  3724  1102  1101   ar
  3725   661   678    1
  3726   617   615    1
  3727   617   616    1
  3728   615   633    1
  3729   981   980    1
  3730  1110  1111    1
  3731   993   999   ar
  3732   993   992   ar
  3733   999   988    1
  3734  2028  2026    1
  3735  2028  2027    1
  3736  2016  2015    1
  3737  1034  1035   ar
  3738  1034  1039   ar
  3739  1995  1993    1
  3740  1040  1039    1
  3741  2008  2007    1
  3742  2026  2044    1
  3743  2026  2012    1
  3744   678   697    2
  3745   678   696    1
  3746  1111  1109    1
  3747   990   992   ar
  3748   990   991    1
  3749  1993  1994    1
  3750   618   620    1
  3751   618   616    1
  3752   620   621    1
  3753   640   638    1
  3754   640   641    1
  3755  1017  1012   ar
  3756  1017  1016   ar
  3757  2030  2029    1
  3758  1099  1100   ar
  3759  1035  1036   ar
  3760  1039  1038   ar
  3761  2029  2027    1
  3762   983   988    1
  3763   983   982    1
  3764   656   657    1
  3765   638   636    1
  3766  1061  1060    2
  3767  1012  1013   ar
  3768   657   655    1
  3769  2011  2013    1
  3770  2011  2012    1
  3771  2011  2009    1
  3772   980   982    1
  3773  1101  1100   ar
  3774  1101  1104   ar
  3775   988   986    1
  3776  2013  2015    1
  3777  2013  2014    1
  3778  1059  1060   ar
  3779  1059  1057   ar
  3780  1100  1106   ar
  3781  2015  2010    1
  3782   654   635    2
  3783   637   636    1
  3784   637   635    1
  3785  2007  2009    1
  3786  1058  1057    2
  3787  1019  1016   ar
  3788  1019  1020   ar
  3789  1016  1015   ar
  3790   641   655    1
  3791  1060  1062   ar
  3792  2010  2009    1
  3793   677   655    2
  3794  1109  1130    2
  3795  1109  1131    1
  3796  1109  1092    1
  3797   982   984    1
  3798   621   635    1
  3799  1036  1037   ar
  3800  1104  1105   ar
  3801  1057  1056   ar
  3802   655   676    1
  3803  1038  1037   ar
  3804  1038  1041   ar
  3805  1013  1014   ar
  3806   635   653    1
  3807  1093  1094    1
  3808  1093  1091    1
  3809  1093  1095    1
  3810   984   986    1
  3811   984   985    1
  3812   986   987    1
  3813  1106  1105   ar
  3814  1106  1095    1
  3815  1037  1043   ar
  3816  1020  1021   ar
  3817  1015  1014   ar
  3818  1015  1021   ar
  3819  1092  1091    1
  3820  1041  1042   ar
  3821  1023  1002    2
  3822  1091  1089    1
  3823  1062  1063   ar
  3824  1095  1090    1
  3825  1056  1063   ar
  3826  1056  1055    1
  3827  1021  1011    1
  3828   985  1002    1
  3829  1043  1042   ar
  3830  1043  1033    1
  3831  1055  1050    1
  3832  1055  1053    1
  3833  1002  1004    1
  3834  1002  1022    1
  3835  1108  1086    2
  3836  1090  1089    1
  3837  1089  1087    1
  3838  1050  1049    1
  3839  1011  1006    1
  3840  1011  1009    1
  3841  1004  1003    1
  3842  1033  1031    1
  3843  1033  1028    1
  3844  1088  1086    1
  3845  1088  1087    1
  3846  1006  1005    1
  3847  1054  1053    1
  3848  1086  1107    1
  3849  1086  1072    1
  3850  1053  1051    1
  3851  1031  1032    1
  3852  1031  1029    1
  3853  1049  1051    1
  3854  1049  1047    1
  3855  1052  1051    1
  3856  1052  1066    1
  3857  1003  1005    1
  3858  1009  1007    1
  3859  1009  1010    1
  3860  1028  1027    1
  3861  1005  1007    1
  3862  1007  1008    1
  3863  1045  1024    2
  3864  1068  1066    1
  3865  1068  1067    1
  3866  1072  1071    1
  3867  1085  1066    2
  3868  1029  1027    1
  3869  1029  1030    1
  3870  1047  1048    1
  3871  1066  1084    1
  3872  1048  1046    1
  3873  1071  1069    1
  3874  1071  1073    1
  3875  1067  1069    1
  3876  1026  1024    1
  3877  1026  1025    1
  3878  1027  1025    1
  3879  1008  1024    1
  3880  1069  1070    1
  3881  1024  1044    1
  3882  1030  1046    1
  3883  1046  1065    2
  3884  1046  1064    1
  3885  1073  1074    1
  3886  1073  1075    1
  3887  1070  1075    1
  3888  1075  1076    1
  3889  1083  1076   ar
  3890  1083  1082   ar
  3891  1076  1077   ar
  3892  1082  1080   ar
  3893  1077  1078    2
  3894  1077  1079   ar
  3895  1080  1079   ar
  3896  1080  1081    1
