ligand
  PyMOL2.3          3D                             0

 27 29  0  0  0  0  0  0  0  0999 V2000
   13.0660    3.7250   28.7420 N   0  0  0  0  0  0  0  0  0  0  0  0
   13.5740    4.7770   27.8290 C   0  0  0  0  0  0  0  0  0  0  0  0
   14.7860    4.2140   27.0980 C   0  0  0  0  0  0  0  0  0  0  0  0
   15.0690    2.9800   26.9410 O   0  0  0  0  0  0  0  0  0  0  0  0
   13.8890    6.0300   28.6490 C   0  0  0  0  0  0  0  0  0  0  0  0
   12.6410    6.8190   29.0220 C   0  0  0  0  0  0  0  0  0  0  0  0
   12.6920    8.4300   29.8930 S   0  0  0  0  0  0  0  0  0  0  0  0
   13.5180    9.3960   28.6300 C   0  0  0  0  0  0  0  0  0  0  0  0
   14.0210    8.0420   31.0760 C   0  0  0  0  0  0  0  0  0  0  0  0
   13.4700    7.5240   32.3760 C   0  0  0  0  0  0  0  0  0  0  0  0
   12.7580    6.2730   32.2180 O   0  0  0  0  0  0  0  0  0  0  0  0
   14.5120    7.3050   33.4490 C   0  0  0  0  0  0  0  0  0  0  0  0
   14.5070    8.3890   34.2720 O   0  0  0  0  0  0  0  0  0  0  0  0
   13.8790    6.1630   34.2090 C   0  0  0  0  0  0  0  0  0  0  0  0
   12.9860    6.7380   35.0560 O   0  0  0  0  0  0  0  0  0  0  0  0
   13.1140    5.3100   33.1730 C   0  0  0  0  0  0  0  0  0  0  0  0
   15.5910    5.0430   26.6700 O   0  0  0  0  0  0  0  0  0  0  0  0
   14.7920    0.6170   31.6450 N   0  0  0  0  0  0  0  0  0  0  0  0
   13.5660    1.0860   32.2260 C   0  0  0  0  0  0  0  0  0  0  0  0
   13.2270    2.4120   32.5930 N   0  0  0  0  0  0  0  0  0  0  0  0
   14.1760    3.2210   32.3310 C   0  0  0  0  0  0  0  0  0  0  0  0
   15.4730    2.8390   31.7290 C   0  0  0  0  0  0  0  0  0  0  0  0
   15.7590    1.5700   31.4100 C   0  0  0  0  0  0  0  0  0  0  0  0
   16.9560    1.3650   30.9000 N   0  0  0  0  0  0  0  0  0  0  0  0
   16.2950    3.8480   31.5660 N   0  0  0  0  0  0  0  0  0  0  0  0
   15.5060    4.8690   32.0630 C   0  0  0  0  0  0  0  0  0  0  0  0
   14.1830    4.4940   32.5360 N   0  0  0  0  0  0  0  0  0  0  0  0
  1  2  1  0  0  0  0
  2  3  1  0  0  0  0
  2  5  1  0  0  0  0
  3  4  4  0  0  0  0
  3 17  4  0  0  0  0
  5  6  1  0  0  0  0
  6  7  1  0  0  0  0
  7  8  1  0  0  0  0
  7  9  1  0  0  0  0
  9 10  1  0  0  0  0
 10 11  1  0  0  0  0
 10 12  1  0  0  0  0
 11 16  1  0  0  0  0
 12 13  1  0  0  0  0
 12 14  1  0  0  0  0
 14 15  1  0  0  0  0
 14 16  1  0  0  0  0
 16 27  1  0  0  0  0
 18 19  4  0  0  0  0
 19 20  4  0  0  0  0
 20 21  4  0  0  0  0
 21 22  4  0  0  0  0
 22 23  4  0  0  0  0
 18 23  4  0  0  0  0
 23 24  1  0  0  0  0
 22 25  4  0  0  0  0
 25 26  4  0  0  0  0
 21 27  4  0  0  0  0
 26 27  4  0  0  0  0
M  END
$$$$
