ligand
 OpenBabel02271912153D
libRbt.so/2013.1/901 2013/11/27
 27 29  0  0  0  0  0  0  0  0999 V2000
   13.0600    3.7249   29.0540 N   0  0  0  0  0  0  0  0  0  0  0  0
   13.0235    4.5917   27.8517 C   0  0  2  0  0  0  0  0  0  0  0  0
   14.4357    4.6623   27.2851 C   0  0  0  0  0  0  0  0  0  0  0  0
   14.7530    4.7491   26.0525 O   0  0  0  0  0  0  0  0  0  0  0  0
   12.4602    5.9583   28.2473 C   0  0  0  0  0  0  0  0  0  0  0  0
   13.2400    6.6111   29.3808 C   0  0  0  0  0  0  0  0  0  0  0  0
   12.8387    8.2666   30.0553 S   0  0  2  0  0  0  0  0  0  0  0  0
   13.6543    9.2705   28.8153 C   0  0  0  0  0  0  0  0  0  0  0  0
   14.0104    8.2684   31.4494 C   0  0  0  0  0  0  0  0  0  0  0  0
   13.3948    7.6810   32.6895 C   0  0  1  0  0  0  0  0  0  0  0  0
   12.6585    6.4635   32.4206 O   0  0  0  0  0  0  0  0  0  0  0  0
   14.3872    7.3625   33.7845 C   0  0  1  0  0  0  0  0  0  0  0  0
   14.3765    8.3894   34.6777 O   0  0  0  0  0  0  0  0  0  0  0  0
   13.6956    6.1907   34.4411 C   0  0  1  0  0  0  0  0  0  0  0  0
   12.7842    6.7330   35.2900 O   0  0  0  0  0  0  0  0  0  0  0  0
   12.9515    5.4298   33.3215 C   0  0  2  0  0  0  0  0  0  0  0  0
   15.3511    4.5699   28.1048 O   0  0  0  0  0  0  0  0  0  0  0  0
   14.8424    0.7322   32.0837 N   0  0  0  0  0  0  0  0  0  0  0  0
   13.6343    1.1734   32.7214 C   0  0  0  0  0  0  0  0  0  0  0  0
   13.2294    2.5034   32.9956 N   0  0  0  0  0  0  0  0  0  0  0  0
   14.0939    3.3439   32.5835 C   0  0  0  0  0  0  0  0  0  0  0  0
   15.3646    2.9918   31.9112 C   0  0  0  0  0  0  0  0  0  0  0  0
   15.7164    1.7196   31.6841 C   0  0  0  0  0  0  0  0  0  0  0  0
   16.8819    1.5455   31.0957 N   0  0  0  0  0  0  0  0  0  0  0  0
   16.0960    4.0322   31.5902 N   0  0  0  0  0  0  0  0  0  0  0  0
   15.2759    5.0422   32.0584 C   0  0  0  0  0  0  0  0  0  0  0  0
   14.0243    4.6284   32.6725 N   0  0  0  0  0  0  0  0  0  0  0  0
  2  1  1  1  0  0  0
  2  3  1  0  0  0  0
  2  5  1  0  0  0  0
  3  4  1  0  0  0  0
  3 17  1  0  0  0  0
  5  6  1  0  0  0  0
  7  6  1  6  0  0  0
  7  8  1  0  0  0  0
  7  9  1  0  0  0  0
 10  9  1  6  0  0  0
 10 11  1  0  0  0  0
 10 12  1  0  0  0  0
 11 16  1  0  0  0  0
 12 13  1  1  0  0  0
 12 14  1  0  0  0  0
 14 15  1  1  0  0  0
 14 16  1  0  0  0  0
 16 27  1  6  0  0  0
 18 19  2  0  0  0  0
 18 23  1  0  0  0  0
 19 20  1  0  0  0  0
 20 21  2  0  0  0  0
 21 22  1  0  0  0  0
 21 27  1  0  0  0  0
 22 23  2  0  0  0  0
 22 25  1  0  0  0  0
 23 24  1  0  0  0  0
 25 26  2  0  0  0  0
 26 27  1  0  0  0  0
M  END
>  <CHROM.1>
146.03196375,55.86547857,178.55540827,-81.28169979,-89.26257593,44.64641108
-134.69182927,14.00837143,5.29218686,31.19138809,0.33852040,1.29482259,-1.52176387

>  <Name>
ligand

>  <RI>
0

>  <Rbt.Current_Directory>
/home/itssahil/PROJECTS/Mol_Feturizer/Test_systems_manuscript/rnas/4aob

>  <Rbt.Executable>
rbdock ($Id: //depot/dev/client3/rdock/2013.1/src/exe/rbdock.cxx#4 $)

>  <Rbt.Library>
libRbt.so (2013.1, Build901 2013/11/27)

>  <Rbt.Parameter_File>
/export/apps/rDock/src/rDock_2013.1_src/data/scripts/dock_solv.prm

>  <Rbt.Receptor>
prm/pocket_docking_2.prm

>  <SCORE>
-12.0196

>  <SCORE.INTER>
-11.1859

>  <SCORE.INTER.CONST>
1

>  <SCORE.INTER.POLAR>
0

>  <SCORE.INTER.ROT>
7

>  <SCORE.INTER.SOLV>
17.6386

>  <SCORE.INTER.VDW>
-21.6035

>  <SCORE.INTER.norm>
-0.414293

>  <SCORE.INTRA>
-0.834925

>  <SCORE.INTRA.DIHEDRAL>
-0.655361

>  <SCORE.INTRA.DIHEDRAL.0>
6.31833

>  <SCORE.INTRA.POLAR>
0

>  <SCORE.INTRA.POLAR.0>
0

>  <SCORE.INTRA.REPUL>
0

>  <SCORE.INTRA.REPUL.0>
0

>  <SCORE.INTRA.SOLV>
0.543254

>  <SCORE.INTRA.SOLV.lig_0>
-48.4015

>  <SCORE.INTRA.VDW>
-0.778872

>  <SCORE.INTRA.VDW.0>
-2.83256

>  <SCORE.INTRA.norm>
-0.0309232

>  <SCORE.RESTR>
0.00118567

>  <SCORE.RESTR.CAVITY>
0.00118567

>  <SCORE.RESTR.norm>
4.39136e-05

>  <SCORE.SYSTEM>
0

>  <SCORE.SYSTEM.CONST>
0

>  <SCORE.SYSTEM.DIHEDRAL>
0

>  <SCORE.SYSTEM.SOLV>
0

>  <SCORE.SYSTEM.norm>
0

>  <SCORE.heavy>
27

>  <SCORE.norm>
-0.445172

>  <RMSD>
0.637

$$$$
ligand
 OpenBabel02271912153D
libRbt.so/2013.1/901 2013/11/27
 27 29  0  0  0  0  0  0  0  0999 V2000
   12.9540    4.1831   28.4183 N   0  0  0  0  0  0  0  0  0  0  0  0
   13.5143    5.0497   27.3537 C   0  0  2  0  0  0  0  0  0  0  0  0
   14.9614    4.6321   27.1264 C   0  0  0  0  0  0  0  0  0  0  0  0
   15.3681    3.4778   26.7663 O   0  0  0  0  0  0  0  0  0  0  0  0
   13.3654    6.5117   27.7803 C   0  0  0  0  0  0  0  0  0  0  0  0
   13.9364    6.7821   29.1659 C   0  0  0  0  0  0  0  0  0  0  0  0
   13.9109    8.4329   29.9602 S   0  0  2  0  0  0  0  0  0  0  0  0
   15.2167    9.2113   29.0116 C   0  0  0  0  0  0  0  0  0  0  0  0
   14.7264    7.9797   31.5240 C   0  0  0  0  0  0  0  0  0  0  0  0
   13.7421    7.4386   32.5242 C   0  0  1  0  0  0  0  0  0  0  0  0
   13.0331    6.2758   32.0320 O   0  0  0  0  0  0  0  0  0  0  0  0
   14.3540    7.0519   33.8513 C   0  0  1  0  0  0  0  0  0  0  0  0
   14.1571    8.0779   34.7236 O   0  0  0  0  0  0  0  0  0  0  0  0
   13.4251    5.9327   34.2595 C   0  0  1  0  0  0  0  0  0  0  0  0
   12.3472    6.5389   34.8218 O   0  0  0  0  0  0  0  0  0  0  0  0
   12.9840    5.2250   32.9591 C   0  0  2  0  0  0  0  0  0  0  0  0
   15.8145    5.4869   27.3715 O   0  0  0  0  0  0  0  0  0  0  0  0
   14.7081    0.5684   31.3721 N   0  0  0  0  0  0  0  0  0  0  0  0
   13.3985    1.1338   31.5332 C   0  0  0  0  0  0  0  0  0  0  0  0
   13.0604    2.4380   31.9721 N   0  0  0  0  0  0  0  0  0  0  0  0
   14.1033    3.1268   32.2206 C   0  0  0  0  0  0  0  0  0  0  0  0
   15.4937    2.6392   32.0814 C   0  0  0  0  0  0  0  0  0  0  0  0
   15.7695    1.3925   31.6767 C   0  0  0  0  0  0  0  0  0  0  0  0
   17.0480    1.0815   31.6152 N   0  0  0  0  0  0  0  0  0  0  0  0
   16.3990    3.5302   32.4081 N   0  0  0  0  0  0  0  0  0  0  0  0
   15.5711    4.5842   32.7479 C   0  0  0  0  0  0  0  0  0  0  0  0
   14.1409    4.3491   32.6295 N   0  0  0  0  0  0  0  0  0  0  0  0
  2  1  1  1  0  0  0
  2  3  1  0  0  0  0
  2  5  1  0  0  0  0
  3  4  1  0  0  0  0
  3 17  1  0  0  0  0
  5  6  1  0  0  0  0
  7  6  1  6  0  0  0
  7  8  1  0  0  0  0
  7  9  1  0  0  0  0
 10  9  1  6  0  0  0
 10 11  1  0  0  0  0
 10 12  1  0  0  0  0
 11 16  1  0  0  0  0
 12 13  1  1  0  0  0
 12 14  1  0  0  0  0
 14 15  1  6  0  0  0
 14 16  1  0  0  0  0
 16 27  1  6  0  0  0
 18 19  2  0  0  0  0
 18 23  1  0  0  0  0
 19 20  1  0  0  0  0
 20 21  2  0  0  0  0
 21 22  1  0  0  0  0
 21 27  1  0  0  0  0
 22 23  2  0  0  0  0
 22 25  1  0  0  0  0
 23 24  1  0  0  0  0
 25 26  2  0  0  0  0
 26 27  1  0  0  0  0
M  END
>  <CHROM.1>
59.66581065,52.44909426,-179.98356053,-74.93767398,-85.08106101,58.23137030
-116.30438238,14.32165746,5.17738151,31.03224925,-0.35363189,1.35867905,-1.00956736

>  <Name>
ligand

>  <RI>
0

>  <Rbt.Current_Directory>
/home/itssahil/PROJECTS/Mol_Feturizer/Test_systems_manuscript/rnas/4aob

>  <Rbt.Executable>
rbdock ($Id: //depot/dev/client3/rdock/2013.1/src/exe/rbdock.cxx#4 $)

>  <Rbt.Library>
libRbt.so (2013.1, Build901 2013/11/27)

>  <Rbt.Parameter_File>
/export/apps/rDock/src/rDock_2013.1_src/data/scripts/dock_solv.prm

>  <Rbt.Receptor>
prm/pocket_docking_3.prm

>  <SCORE>
-11.1943

>  <SCORE.INTER>
-11.7236

>  <SCORE.INTER.CONST>
1

>  <SCORE.INTER.POLAR>
0

>  <SCORE.INTER.ROT>
7

>  <SCORE.INTER.SOLV>
19.3057

>  <SCORE.INTER.VDW>
-22.5176

>  <SCORE.INTER.norm>
-0.434208

>  <SCORE.INTRA>
0.529305

>  <SCORE.INTRA.DIHEDRAL>
-2.09707

>  <SCORE.INTRA.DIHEDRAL.0>
6.31833

>  <SCORE.INTRA.POLAR>
0

>  <SCORE.INTRA.POLAR.0>
0

>  <SCORE.INTRA.REPUL>
0

>  <SCORE.INTRA.REPUL.0>
0

>  <SCORE.INTRA.SOLV>
0.159001

>  <SCORE.INTRA.SOLV.lig_0>
-48.4015

>  <SCORE.INTRA.VDW>
1.49834

>  <SCORE.INTRA.VDW.0>
-2.83256

>  <SCORE.INTRA.norm>
0.0196039

>  <SCORE.RESTR>
0

>  <SCORE.RESTR.CAVITY>
0

>  <SCORE.RESTR.norm>
0

>  <SCORE.SYSTEM>
0

>  <SCORE.SYSTEM.CONST>
0

>  <SCORE.SYSTEM.DIHEDRAL>
0

>  <SCORE.SYSTEM.SOLV>
0

>  <SCORE.SYSTEM.norm>
0

>  <SCORE.heavy>
27

>  <SCORE.norm>
-0.414604

>  <RMSD>
0.750

$$$$
ligand
 OpenBabel02271912153D
libRbt.so/2013.1/901 2013/11/27
 27 29  0  0  0  0  0  0  0  0999 V2000
   13.0586    3.6331   29.7236 N   0  0  0  0  0  0  0  0  0  0  0  0
   13.2107    4.4949   28.5267 C   0  0  2  0  0  0  0  0  0  0  0  0
   14.3622    3.9414   27.6973 C   0  0  0  0  0  0  0  0  0  0  0  0
   14.4681    3.9835   26.4267 O   0  0  0  0  0  0  0  0  0  0  0  0
   13.4324    5.9381   28.9846 C   0  0  0  0  0  0  0  0  0  0  0  0
   12.2010    6.5418   29.6466 C   0  0  0  0  0  0  0  0  0  0  0  0
   12.1717    8.2236   30.3729 S   0  0  2  0  0  0  0  0  0  0  0  0
   12.8847    9.1257   28.9987 C   0  0  0  0  0  0  0  0  0  0  0  0
   13.5648    8.0297   31.5296 C   0  0  0  0  0  0  0  0  0  0  0  0
   13.0926    7.6386   32.9029 C   0  0  1  0  0  0  0  0  0  0  0  0
   12.3790    6.3786   32.9067 O   0  0  0  0  0  0  0  0  0  0  0  0
   14.1960    7.5227   33.9296 C   0  0  1  0  0  0  0  0  0  0  0  0
   14.2332    8.6805   34.6442 O   0  0  0  0  0  0  0  0  0  0  0  0
   13.6139    6.4589   34.8306 C   0  0  1  0  0  0  0  0  0  0  0  0
   12.7685    7.1127   35.6693 O   0  0  0  0  0  0  0  0  0  0  0  0
   12.7946    5.5111   33.9270 C   0  0  2  0  0  0  0  0  0  0  0  0
   15.2429    3.3497   28.3241 O   0  0  0  0  0  0  0  0  0  0  0  0
   13.9432    1.0695   31.4517 N   0  0  0  0  0  0  0  0  0  0  0  0
   12.7124    1.6703   31.8814 C   0  0  0  0  0  0  0  0  0  0  0  0
   12.5330    2.9077   32.5481 N   0  0  0  0  0  0  0  0  0  0  0  0
   13.6473    3.4957   32.7389 C   0  0  0  0  0  0  0  0  0  0  0  0
   14.9666    2.9640   32.3301 C   0  0  0  0  0  0  0  0  0  0  0  0
   15.0934    1.7815   31.7142 C   0  0  0  0  0  0  0  0  0  0  0  0
   16.3255    1.4180   31.4232 N   0  0  0  0  0  0  0  0  0  0  0  0
   15.9704    3.7468   32.6465 N   0  0  0  0  0  0  0  0  0  0  0  0
   15.2753    4.7777   33.2515 C   0  0  0  0  0  0  0  0  0  0  0  0
   13.8290    4.6375   33.3098 N   0  0  0  0  0  0  0  0  0  0  0  0
  2  1  1  1  0  0  0
  2  3  1  0  0  0  0
  2  5  1  0  0  0  0
  3  4  1  0  0  0  0
  3 17  1  0  0  0  0
  5  6  1  0  0  0  0
  7  6  1  6  0  0  0
  7  8  1  0  0  0  0
  7  9  1  0  0  0  0
 10  9  1  6  0  0  0
 10 11  1  0  0  0  0
 10 12  1  0  0  0  0
 11 16  1  0  0  0  0
 12 13  1  1  0  0  0
 12 14  1  0  0  0  0
 14 15  1  1  0  0  0
 14 16  1  0  0  0  0
 16 27  1  6  0  0  0
 18 19  2  0  0  0  0
 18 23  1  0  0  0  0
 19 20  1  0  0  0  0
 20 21  2  0  0  0  0
 21 22  1  0  0  0  0
 21 27  1  0  0  0  0
 22 23  2  0  0  0  0
 22 25  1  0  0  0  0
 23 24  1  0  0  0  0
 25 26  2  0  0  0  0
 26 27  1  0  0  0  0
M  END
>  <CHROM.1>
148.02578936,-67.95092936,176.98814704,49.27315148,-94.74718691,60.45449265
-91.63828484,13.68871451,5.22577490,31.48948384,0.77548098,1.27401821,-1.71931462

>  <Name>
ligand

>  <RI>
0

>  <Rbt.Current_Directory>
/home/itssahil/PROJECTS/Mol_Feturizer/Test_systems_manuscript/rnas/4aob

>  <Rbt.Executable>
rbdock ($Id: //depot/dev/client3/rdock/2013.1/src/exe/rbdock.cxx#4 $)

>  <Rbt.Library>
libRbt.so (2013.1, Build901 2013/11/27)

>  <Rbt.Parameter_File>
/export/apps/rDock/src/rDock_2013.1_src/data/scripts/dock_solv.prm

>  <Rbt.Receptor>
prm/pocket_docking_4.prm

>  <SCORE>
-16.547

>  <SCORE.INTER>
-16.8787

>  <SCORE.INTER.CONST>
1

>  <SCORE.INTER.POLAR>
0

>  <SCORE.INTER.ROT>
7

>  <SCORE.INTER.SOLV>
16.9215

>  <SCORE.INTER.VDW>
-25.1596

>  <SCORE.INTER.norm>
-0.625137

>  <SCORE.INTRA>
0.331686

>  <SCORE.INTRA.DIHEDRAL>
-1.05579

>  <SCORE.INTRA.DIHEDRAL.0>
6.31833

>  <SCORE.INTRA.POLAR>
0

>  <SCORE.INTRA.POLAR.0>
0

>  <SCORE.INTRA.REPUL>
0

>  <SCORE.INTRA.REPUL.0>
0

>  <SCORE.INTRA.SOLV>
3.15865

>  <SCORE.INTRA.SOLV.lig_0>
-48.4015

>  <SCORE.INTRA.VDW>
-0.719742

>  <SCORE.INTRA.VDW.0>
-2.83256

>  <SCORE.INTRA.norm>
0.0122847

>  <SCORE.RESTR>
0

>  <SCORE.RESTR.CAVITY>
0

>  <SCORE.RESTR.norm>
0

>  <SCORE.SYSTEM>
0

>  <SCORE.SYSTEM.CONST>
0

>  <SCORE.SYSTEM.DIHEDRAL>
0

>  <SCORE.SYSTEM.SOLV>
0

>  <SCORE.SYSTEM.norm>
0

>  <SCORE.heavy>
27

>  <SCORE.norm>
-0.612852

>  <RMSD>
0.897

$$$$
ligand
 OpenBabel02271912153D
libRbt.so/2013.1/901 2013/11/27
 27 29  0  0  0  0  0  0  0  0999 V2000
   13.5000    3.9029   29.2946 N   0  0  0  0  0  0  0  0  0  0  0  0
   13.1125    4.7792   28.1631 C   0  0  2  0  0  0  0  0  0  0  0  0
   14.0231    4.4514   26.9868 C   0  0  0  0  0  0  0  0  0  0  0  0
   14.3637    5.2465   26.0491 O   0  0  0  0  0  0  0  0  0  0  0  0
   13.2081    6.2380   28.6153 C   0  0  0  0  0  0  0  0  0  0  0  0
   12.1424    6.6086   29.6382 C   0  0  0  0  0  0  0  0  0  0  0  0
   12.0569    8.2471   30.4534 S   0  0  2  0  0  0  0  0  0  0  0  0
   12.6860    9.2524   29.1102 C   0  0  0  0  0  0  0  0  0  0  0  0
   13.4913    8.0603   31.5596 C   0  0  0  0  0  0  0  0  0  0  0  0
   13.0670    7.7282   32.9638 C   0  0  1  0  0  0  0  0  0  0  0  0
   12.3141    6.4936   33.0388 O   0  0  0  0  0  0  0  0  0  0  0  0
   14.2097    7.6074   33.9459 C   0  0  1  0  0  0  0  0  0  0  0  0
   14.3152    8.7849   34.6202 O   0  0  0  0  0  0  0  0  0  0  0  0
   13.6334    6.5923   34.9049 C   0  0  1  0  0  0  0  0  0  0  0  0
   12.8468    7.2998   35.7570 O   0  0  0  0  0  0  0  0  0  0  0  0
   12.7455    5.6448   34.0682 C   0  0  2  0  0  0  0  0  0  0  0  0
   14.4168    3.2858   26.9178 O   0  0  0  0  0  0  0  0  0  0  0  0
   13.6319    1.1204   31.6355 N   0  0  0  0  0  0  0  0  0  0  0  0
   12.4407    1.7800   32.0900 C   0  0  0  0  0  0  0  0  0  0  0  0
   12.3335    3.0341   32.7409 N   0  0  0  0  0  0  0  0  0  0  0  0
   13.4768    3.5766   32.8900 C   0  0  0  0  0  0  0  0  0  0  0  0
   14.7600    2.9826   32.4526 C   0  0  0  0  0  0  0  0  0  0  0  0
   14.8183    1.7863   31.8531 C   0  0  0  0  0  0  0  0  0  0  0  0
   16.0249    1.3658   31.5333 N   0  0  0  0  0  0  0  0  0  0  0  0
   15.8049    3.7263   32.7273 N   0  0  0  0  0  0  0  0  0  0  0  0
   15.1721    4.7952   33.3346 C   0  0  0  0  0  0  0  0  0  0  0  0
   13.7235    4.7182   33.4364 N   0  0  0  0  0  0  0  0  0  0  0  0
  2  1  1  1  0  0  0
  2  3  1  0  0  0  0
  2  5  1  0  0  0  0
  3  4  1  0  0  0  0
  3 17  1  0  0  0  0
  5  6  1  0  0  0  0
  7  6  1  6  0  0  0
  7  8  1  0  0  0  0
  7  9  1  0  0  0  0
 10  9  1  6  0  0  0
 10 11  1  0  0  0  0
 10 12  1  0  0  0  0
 11 16  1  0  0  0  0
 12 13  1  1  0  0  0
 12 14  1  0  0  0  0
 14 15  1  1  0  0  0
 14 16  1  0  0  0  0
 16 27  1  6  0  0  0
 18 19  2  0  0  0  0
 18 23  1  0  0  0  0
 19 20  1  0  0  0  0
 20 21  2  0  0  0  0
 21 22  1  0  0  0  0
 21 27  1  0  0  0  0
 22 23  2  0  0  0  0
 22 25  1  0  0  0  0
 23 24  1  0  0  0  0
 25 26  2  0  0  0  0
 26 27  1  0  0  0  0
M  END
>  <CHROM.1>
-152.20536847,-69.19261345,175.93943216,32.58459629,-101.21361166,59.84164561
-90.29904270,13.55491263,5.37600699,31.42976771,-1.14951040,-1.31862417,1.42474683

>  <Name>
ligand

>  <RI>
0

>  <Rbt.Current_Directory>
/home/itssahil/PROJECTS/Mol_Feturizer/Test_systems_manuscript/rnas/4aob

>  <Rbt.Executable>
rbdock ($Id: //depot/dev/client3/rdock/2013.1/src/exe/rbdock.cxx#4 $)

>  <Rbt.Library>
libRbt.so (2013.1, Build901 2013/11/27)

>  <Rbt.Parameter_File>
/export/apps/rDock/src/rDock_2013.1_src/data/scripts/dock_solv.prm

>  <Rbt.Receptor>
prm/pocket_docking_2.prm

>  <SCORE>
-16.3638

>  <SCORE.INTER>
-18.1435

>  <SCORE.INTER.CONST>
1

>  <SCORE.INTER.POLAR>
0

>  <SCORE.INTER.ROT>
7

>  <SCORE.INTER.SOLV>
16.0168

>  <SCORE.INTER.VDW>
-25.7013

>  <SCORE.INTER.norm>
-0.671981

>  <SCORE.INTRA>
1.7797

>  <SCORE.INTRA.DIHEDRAL>
0.606175

>  <SCORE.INTRA.DIHEDRAL.0>
6.31833

>  <SCORE.INTRA.POLAR>
0

>  <SCORE.INTRA.POLAR.0>
0

>  <SCORE.INTRA.REPUL>
0

>  <SCORE.INTRA.REPUL.0>
0

>  <SCORE.INTRA.SOLV>
1.4739

>  <SCORE.INTRA.SOLV.lig_0>
-48.4015

>  <SCORE.INTRA.VDW>
0.739663

>  <SCORE.INTRA.VDW.0>
-2.83256

>  <SCORE.INTRA.norm>
0.0659149

>  <SCORE.RESTR>
0

>  <SCORE.RESTR.CAVITY>
0

>  <SCORE.RESTR.norm>
0

>  <SCORE.SYSTEM>
0

>  <SCORE.SYSTEM.CONST>
0

>  <SCORE.SYSTEM.DIHEDRAL>
0

>  <SCORE.SYSTEM.SOLV>
0

>  <SCORE.SYSTEM.norm>
0

>  <SCORE.heavy>
27

>  <SCORE.norm>
-0.606066

>  <RMSD>
0.972

$$$$
ligand
 OpenBabel02271912153D
libRbt.so/2013.1/901 2013/11/27
 27 29  0  0  0  0  0  0  0  0999 V2000
   13.4566    3.5779   28.3235 N   0  0  0  0  0  0  0  0  0  0  0  0
   13.2222    4.6751   27.3542 C   0  0  2  0  0  0  0  0  0  0  0  0
   14.5484    5.3900   27.1300 C   0  0  0  0  0  0  0  0  0  0  0  0
   15.5496    5.3928   27.9207 O   0  0  0  0  0  0  0  0  0  0  0  0
   12.1255    5.5904   27.9028 C   0  0  0  0  0  0  0  0  0  0  0  0
   12.4372    6.1117   29.2993 C   0  0  0  0  0  0  0  0  0  0  0  0
   12.4063    7.8898   29.7397 S   0  0  2  0  0  0  0  0  0  0  0  0
   13.3489    8.5290   28.3564 C   0  0  0  0  0  0  0  0  0  0  0  0
   13.6170    7.8402   31.0992 C   0  0  0  0  0  0  0  0  0  0  0  0
   12.9700    7.4574   32.4018 C   0  0  1  0  0  0  0  0  0  0  0  0
   12.3007    6.1751   32.3336 O   0  0  0  0  0  0  0  0  0  0  0  0
   13.9226    7.3950   33.5738 C   0  0  1  0  0  0  0  0  0  0  0  0
   13.8253    8.5653   34.2617 O   0  0  0  0  0  0  0  0  0  0  0  0
   13.2527    6.3283   34.4080 C   0  0  1  0  0  0  0  0  0  0  0  0
   12.2796    6.9685   35.1071 O   0  0  0  0  0  0  0  0  0  0  0  0
   12.5958    5.3391   33.4200 C   0  0  2  0  0  0  0  0  0  0  0  0
   14.6270    6.0730   26.1074 O   0  0  0  0  0  0  0  0  0  0  0  0
   14.2116    0.8769   31.2630 N   0  0  0  0  0  0  0  0  0  0  0  0
   12.9150    1.4414   31.5098 C   0  0  0  0  0  0  0  0  0  0  0  0
   12.6072    2.6893   32.1062 N   0  0  0  0  0  0  0  0  0  0  0  0
   13.6659    3.3254   32.4197 C   0  0  0  0  0  0  0  0  0  0  0  0
   15.0450    2.8340   32.2027 C   0  0  0  0  0  0  0  0  0  0  0  0
   15.2921    1.6402   31.6480 C   0  0  0  0  0  0  0  0  0  0  0  0
   16.5636    1.3168   31.5310 N   0  0  0  0  0  0  0  0  0  0  0  0
   15.9711    3.6639   32.6200 N   0  0  0  0  0  0  0  0  0  0  0  0
   15.1675    4.6838   33.0955 C   0  0  0  0  0  0  0  0  0  0  0  0
   13.7317    4.4891   32.9710 N   0  0  0  0  0  0  0  0  0  0  0  0
  2  1  1  1  0  0  0
  2  3  1  0  0  0  0
  2  5  1  0  0  0  0
  3  4  1  0  0  0  0
  3 17  1  0  0  0  0
  5  6  1  0  0  0  0
  7  6  1  6  0  0  0
  7  8  1  0  0  0  0
  7  9  1  0  0  0  0
 10  9  1  6  0  0  0
 10 11  1  0  0  0  0
 10 12  1  0  0  0  0
 11 16  1  0  0  0  0
 12 13  1  1  0  0  0
 12 14  1  0  0  0  0
 14 15  1  1  0  0  0
 14 16  1  0  0  0  0
 16 27  1  6  0  0  0
 18 19  2  0  0  0  0
 18 23  1  0  0  0  0
 19 20  1  0  0  0  0
 20 21  2  0  0  0  0
 21 22  1  0  0  0  0
 21 27  1  0  0  0  0
 22 23  2  0  0  0  0
 22 25  1  0  0  0  0
 23 24  1  0  0  0  0
 25 26  2  0  0  0  0
 26 27  1  0  0  0  0
M  END
>  <CHROM.1>
-22.33015078,54.82968994,127.24182565,-47.17384559,-84.78718960,57.68306143
-92.55070155,13.68627962,5.26904088,31.02385493,-1.63715532,-1.26751334,1.70692957

>  <Name>
ligand

>  <RI>
0

>  <Rbt.Current_Directory>
/home/itssahil/PROJECTS/Mol_Feturizer/Test_systems_manuscript/rnas/4aob

>  <Rbt.Executable>
rbdock ($Id: //depot/dev/client3/rdock/2013.1/src/exe/rbdock.cxx#4 $)

>  <Rbt.Library>
libRbt.so (2013.1, Build901 2013/11/27)

>  <Rbt.Parameter_File>
/export/apps/rDock/src/rDock_2013.1_src/data/scripts/dock_solv.prm

>  <Rbt.Receptor>
prm/pocket_docking_2.prm

>  <SCORE>
-11.7782

>  <SCORE.INTER>
-13.9498

>  <SCORE.INTER.CONST>
1

>  <SCORE.INTER.POLAR>
0

>  <SCORE.INTER.ROT>
7

>  <SCORE.INTER.SOLV>
19.2965

>  <SCORE.INTER.VDW>
-23.9987

>  <SCORE.INTER.norm>
-0.51666

>  <SCORE.INTRA>
2.17158

>  <SCORE.INTRA.DIHEDRAL>
4.02728

>  <SCORE.INTRA.DIHEDRAL.0>
6.31833

>  <SCORE.INTRA.POLAR>
0

>  <SCORE.INTRA.POLAR.0>
0

>  <SCORE.INTRA.REPUL>
0

>  <SCORE.INTRA.REPUL.0>
0

>  <SCORE.INTRA.SOLV>
0.108305

>  <SCORE.INTRA.SOLV.lig_0>
-48.4015

>  <SCORE.INTRA.VDW>
0.103787

>  <SCORE.INTRA.VDW.0>
-2.83256

>  <SCORE.INTRA.norm>
0.0804288

>  <SCORE.RESTR>
0

>  <SCORE.RESTR.CAVITY>
0

>  <SCORE.RESTR.norm>
0

>  <SCORE.SYSTEM>
0

>  <SCORE.SYSTEM.CONST>
0

>  <SCORE.SYSTEM.DIHEDRAL>
0

>  <SCORE.SYSTEM.SOLV>
0

>  <SCORE.SYSTEM.norm>
0

>  <SCORE.heavy>
27

>  <SCORE.norm>
-0.436231

>  <RMSD>
0.996

$$$$
ligand
 OpenBabel02271912153D
libRbt.so/2013.1/901 2013/11/27
 27 29  0  0  0  0  0  0  0  0999 V2000
   13.3223    3.3990   28.2034 N   0  0  0  0  0  0  0  0  0  0  0  0
   12.8465    4.7019   27.6794 C   0  0  2  0  0  0  0  0  0  0  0  0
   13.8288    5.1605   26.6093 C   0  0  0  0  0  0  0  0  0  0  0  0
   13.5580    5.8830   25.5934 O   0  0  0  0  0  0  0  0  0  0  0  0
   12.7187    5.6842   28.8457 C   0  0  0  0  0  0  0  0  0  0  0  0
   12.4459    7.1106   28.3872 C   0  0  0  0  0  0  0  0  0  0  0  0
   12.0331    8.4756   29.5374 S   0  0  2  0  0  0  0  0  0  0  0  0
   12.5593    9.8551   28.5222 C   0  0  0  0  0  0  0  0  0  0  0  0
   13.4104    8.2525   30.7077 C   0  0  0  0  0  0  0  0  0  0  0  0
   12.9173    7.8605   32.0734 C   0  0  1  0  0  0  0  0  0  0  0  0
   12.1392    6.6395   32.0534 O   0  0  0  0  0  0  0  0  0  0  0  0
   14.0124    7.6679   33.0976 C   0  0  1  0  0  0  0  0  0  0  0  0
   14.1090    8.8084   33.8341 O   0  0  0  0  0  0  0  0  0  0  0  0
   13.3749    6.6190   33.9783 C   0  0  1  0  0  0  0  0  0  0  0  0
   12.5639    7.2998   34.8294 O   0  0  0  0  0  0  0  0  0  0  0  0
   12.5081    5.7324   33.0570 C   0  0  2  0  0  0  0  0  0  0  0  0
   14.9816    4.7393   26.7191 O   0  0  0  0  0  0  0  0  0  0  0  0
   14.3279    0.8809   32.4859 N   0  0  0  0  0  0  0  0  0  0  0  0
   13.2145    1.4400   33.1987 C   0  0  0  0  0  0  0  0  0  0  0  0
   12.8170    2.7984   33.2670 N   0  0  0  0  0  0  0  0  0  0  0  0
   13.5880    3.5409   32.5755 C   0  0  0  0  0  0  0  0  0  0  0  0
   14.7559    3.0622   31.8026 C   0  0  0  0  0  0  0  0  0  0  0  0
   15.1061    1.7697   31.7766 C   0  0  0  0  0  0  0  0  0  0  0  0
   16.1773    1.4822   31.0661 N   0  0  0  0  0  0  0  0  0  0  0  0
   15.4030    4.0185   31.1805 N   0  0  0  0  0  0  0  0  0  0  0  0
   14.6324    5.1018   31.5609 C   0  0  0  0  0  0  0  0  0  0  0  0
   13.4963    4.8180   32.4232 N   0  0  0  0  0  0  0  0  0  0  0  0
  2  1  1  1  0  0  0
  2  3  1  0  0  0  0
  2  5  1  0  0  0  0
  3  4  1  0  0  0  0
  3 17  1  0  0  0  0
  5  6  1  0  0  0  0
  7  6  1  6  0  0  0
  7  8  1  0  0  0  0
  7  9  1  0  0  0  0
 10  9  1  6  0  0  0
 10 11  1  0  0  0  0
 10 12  1  0  0  0  0
 11 16  1  0  0  0  0
 12 13  1  1  0  0  0
 12 14  1  0  0  0  0
 14 15  1  1  0  0  0
 14 16  1  0  0  0  0
 16 27  1  6  0  0  0
 18 19  2  0  0  0  0
 18 23  1  0  0  0  0
 19 20  1  0  0  0  0
 20 21  2  0  0  0  0
 21 22  1  0  0  0  0
 21 27  1  0  0  0  0
 22 23  2  0  0  0  0
 22 25  1  0  0  0  0
 23 24  1  0  0  0  0
 25 26  2  0  0  0  0
 26 27  1  0  0  0  0
M  END
>  <CHROM.1>
150.28950090,171.03504467,172.02194642,156.19489132,-115.59093738,58.17724744
-139.38320635,13.49664027,5.52804403,30.82593530,-2.41656973,-1.29175476
1.61806443

>  <Name>
ligand

>  <RI>
0

>  <Rbt.Current_Directory>
/home/itssahil/PROJECTS/Mol_Feturizer/Test_systems_manuscript/rnas/4aob

>  <Rbt.Executable>
rbdock ($Id: //depot/dev/client3/rdock/2013.1/src/exe/rbdock.cxx#4 $)

>  <Rbt.Library>
libRbt.so (2013.1, Build901 2013/11/27)

>  <Rbt.Parameter_File>
/export/apps/rDock/src/rDock_2013.1_src/data/scripts/dock_solv.prm

>  <Rbt.Receptor>
prm/pocket_docking_7.prm

>  <SCORE>
-12.1974

>  <SCORE.INTER>
-12.2612

>  <SCORE.INTER.CONST>
1

>  <SCORE.INTER.POLAR>
0

>  <SCORE.INTER.ROT>
7

>  <SCORE.INTER.SOLV>
19.1628

>  <SCORE.INTER.VDW>
-22.8284

>  <SCORE.INTER.norm>
-0.454117

>  <SCORE.INTRA>
0.0637876

>  <SCORE.INTRA.DIHEDRAL>
1.86744

>  <SCORE.INTRA.DIHEDRAL.0>
6.31833

>  <SCORE.INTRA.POLAR>
0

>  <SCORE.INTRA.POLAR.0>
0

>  <SCORE.INTRA.REPUL>
0

>  <SCORE.INTRA.REPUL.0>
0

>  <SCORE.INTRA.SOLV>
-0.387443

>  <SCORE.INTRA.SOLV.lig_0>
-48.4015

>  <SCORE.INTRA.VDW>
-0.676211

>  <SCORE.INTRA.VDW.0>
-2.83256

>  <SCORE.INTRA.norm>
0.0023625

>  <SCORE.RESTR>
0

>  <SCORE.RESTR.CAVITY>
0

>  <SCORE.RESTR.norm>
0

>  <SCORE.SYSTEM>
0

>  <SCORE.SYSTEM.CONST>
0

>  <SCORE.SYSTEM.DIHEDRAL>
0

>  <SCORE.SYSTEM.SOLV>
0

>  <SCORE.SYSTEM.norm>
0

>  <SCORE.heavy>
27

>  <SCORE.norm>
-0.451755

>  <RMSD>
1.021

$$$$
ligand
 OpenBabel02271912153D
libRbt.so/2013.1/901 2013/11/27
 27 29  0  0  0  0  0  0  0  0999 V2000
   14.8364    6.6534   28.9559 N   0  0  0  0  0  0  0  0  0  0  0  0
   13.7987    5.5945   28.9404 C   0  0  2  0  0  0  0  0  0  0  0  0
   14.3950    4.3678   28.2623 C   0  0  0  0  0  0  0  0  0  0  0  0
   15.2513    4.3672   27.3167 O   0  0  0  0  0  0  0  0  0  0  0  0
   12.5551    6.1347   28.2311 C   0  0  0  0  0  0  0  0  0  0  0  0
   11.6240    6.8914   29.1689 C   0  0  0  0  0  0  0  0  0  0  0  0
   11.9536    8.5958   29.7548 S   0  0  2  0  0  0  0  0  0  0  0  0
   12.7424    9.2420   28.2814 C   0  0  0  0  0  0  0  0  0  0  0  0
   13.3502    8.2226   30.8622 C   0  0  0  0  0  0  0  0  0  0  0  0
   12.8765    7.7621   32.2133 C   0  0  1  0  0  0  0  0  0  0  0  0
   12.2160    6.4745   32.1609 O   0  0  0  0  0  0  0  0  0  0  0  0
   13.9701    7.6539   33.2513 C   0  0  1  0  0  0  0  0  0  0  0  0
   13.9495    8.7850   34.0080 O   0  0  0  0  0  0  0  0  0  0  0  0
   13.4208    6.5346   34.1045 C   0  0  1  0  0  0  0  0  0  0  0  0
   12.5379    7.1217   34.9537 O   0  0  0  0  0  0  0  0  0  0  0  0
   12.6537    5.5879   33.1550 C   0  0  2  0  0  0  0  0  0  0  0  0
   13.9570    3.2783   28.6361 O   0  0  0  0  0  0  0  0  0  0  0  0
   14.6769    0.8842   32.1768 N   0  0  0  0  0  0  0  0  0  0  0  0
   13.4773    1.3265   32.8293 C   0  0  0  0  0  0  0  0  0  0  0  0
   13.0319    2.6574   33.0251 N   0  0  0  0  0  0  0  0  0  0  0  0
   13.8475    3.4966   32.5208 C   0  0  0  0  0  0  0  0  0  0  0  0
   15.1049    3.1428   31.8250 C   0  0  0  0  0  0  0  0  0  0  0  0
   15.4968    1.8710   31.6742 C   0  0  0  0  0  0  0  0  0  0  0  0
   16.6456    1.6969   31.0536 N   0  0  0  0  0  0  0  0  0  0  0  0
   15.7833    4.1829   31.4027 N   0  0  0  0  0  0  0  0  0  0  0  0
   14.9428    5.1939   31.8309 C   0  0  0  0  0  0  0  0  0  0  0  0
   13.7318    4.7808   32.5219 N   0  0  0  0  0  0  0  0  0  0  0  0
  2  1  1  6  0  0  0
  2  3  1  0  0  0  0
  2  5  1  0  0  0  0
  3  4  1  0  0  0  0
  3 17  1  0  0  0  0
  5  6  1  0  0  0  0
  7  6  1  6  0  0  0
  7  8  1  0  0  0  0
  7  9  1  0  0  0  0
 10  9  1  6  0  0  0
 10 11  1  0  0  0  0
 10 12  1  0  0  0  0
 11 16  1  0  0  0  0
 12 13  1  1  0  0  0
 12 14  1  0  0  0  0
 14 15  1  1  0  0  0
 14 16  1  0  0  0  0
 16 27  1  6  0  0  0
 18 19  2  0  0  0  0
 18 23  1  0  0  0  0
 19 20  1  0  0  0  0
 20 21  2  0  0  0  0
 21 22  1  0  0  0  0
 21 27  1  0  0  0  0
 22 23  2  0  0  0  0
 22 25  1  0  0  0  0
 23 24  1  0  0  0  0
 25 26  2  0  0  0  0
 26 27  1  0  0  0  0
M  END
>  <CHROM.1>
-32.96301623,-86.20547199,76.61069882,34.62612114,-83.36486836,67.36553404
-130.22913886,13.69715610,5.50618058,31.13317310,-2.85543954,-1.20377201
1.73755581

>  <Name>
ligand

>  <RI>
0

>  <Rbt.Current_Directory>
/home/itssahil/PROJECTS/Mol_Feturizer/Test_systems_manuscript/rnas/4aob

>  <Rbt.Executable>
rbdock ($Id: //depot/dev/client3/rdock/2013.1/src/exe/rbdock.cxx#4 $)

>  <Rbt.Library>
libRbt.so (2013.1, Build901 2013/11/27)

>  <Rbt.Parameter_File>
/export/apps/rDock/src/rDock_2013.1_src/data/scripts/dock_solv.prm

>  <Rbt.Receptor>
prm/pocket_docking_2.prm

>  <SCORE>
-11.1215

>  <SCORE.INTER>
-12.3545

>  <SCORE.INTER.CONST>
1

>  <SCORE.INTER.POLAR>
0

>  <SCORE.INTER.ROT>
7

>  <SCORE.INTER.SOLV>
13.1414

>  <SCORE.INTER.VDW>
-20.8835

>  <SCORE.INTER.norm>
-0.457573

>  <SCORE.INTRA>
1.23299

>  <SCORE.INTRA.DIHEDRAL>
1.61285

>  <SCORE.INTRA.DIHEDRAL.0>
6.31833

>  <SCORE.INTRA.POLAR>
0

>  <SCORE.INTRA.POLAR.0>
0

>  <SCORE.INTRA.REPUL>
0

>  <SCORE.INTRA.REPUL.0>
0

>  <SCORE.INTRA.SOLV>
4.06575

>  <SCORE.INTRA.SOLV.lig_0>
-48.4015

>  <SCORE.INTRA.VDW>
-1.60631

>  <SCORE.INTRA.VDW.0>
-2.83256

>  <SCORE.INTRA.norm>
0.0456661

>  <SCORE.RESTR>
0

>  <SCORE.RESTR.CAVITY>
0

>  <SCORE.RESTR.norm>
0

>  <SCORE.SYSTEM>
0

>  <SCORE.SYSTEM.CONST>
0

>  <SCORE.SYSTEM.DIHEDRAL>
0

>  <SCORE.SYSTEM.SOLV>
0

>  <SCORE.SYSTEM.norm>
0

>  <SCORE.heavy>
27

>  <SCORE.norm>
-0.411907

>  <RMSD>
1.076

$$$$
ligand
 OpenBabel02271912153D
libRbt.so/2013.1/901 2013/11/27
 27 29  0  0  0  0  0  0  0  0999 V2000
   14.0245    3.5284   28.8003 N   0  0  0  0  0  0  0  0  0  0  0  0
   13.0470    4.6117   28.5375 C   0  0  2  0  0  0  0  0  0  0  0  0
   13.4710    5.3216   27.2582 C   0  0  0  0  0  0  0  0  0  0  0  0
   14.4016    4.9590   26.4645 O   0  0  0  0  0  0  0  0  0  0  0  0
   12.9978    5.5363   29.7558 C   0  0  0  0  0  0  0  0  0  0  0  0
   11.9604    6.6422   29.6145 C   0  0  0  0  0  0  0  0  0  0  0  0
   12.1415    8.2957   30.3823 S   0  0  2  0  0  0  0  0  0  0  0  0
   12.9083    9.1515   29.0074 C   0  0  0  0  0  0  0  0  0  0  0  0
   13.5392    7.9161   31.4863 C   0  0  0  0  0  0  0  0  0  0  0  0
   13.0672    7.4951   32.8508 C   0  0  1  0  0  0  0  0  0  0  0  0
   12.4087    6.2055   32.8371 O   0  0  0  0  0  0  0  0  0  0  0  0
   14.1617    7.4195   33.8907 C   0  0  1  0  0  0  0  0  0  0  0  0
   14.1398    8.5726   34.6135 O   0  0  0  0  0  0  0  0  0  0  0  0
   13.6149    6.3251   34.7771 C   0  0  1  0  0  0  0  0  0  0  0  0
   12.7316    6.9357   35.6092 O   0  0  0  0  0  0  0  0  0  0  0  0
   12.8486    5.3494   33.8567 C   0  0  2  0  0  0  0  0  0  0  0  0
   12.8865    6.3772   27.0078 O   0  0  0  0  0  0  0  0  0  0  0  0
   14.2212    0.9734   31.3785 N   0  0  0  0  0  0  0  0  0  0  0  0
   12.9603    1.5164   31.7979 C   0  0  0  0  0  0  0  0  0  0  0  0
   12.7186    2.7420   32.4669 N   0  0  0  0  0  0  0  0  0  0  0  0
   13.8032    3.3790   32.6706 C   0  0  0  0  0  0  0  0  0  0  0  0
   15.1492    2.9090   32.2732 C   0  0  0  0  0  0  0  0  0  0  0  0
   15.3353    1.7357   31.6547 C   0  0  0  0  0  0  0  0  0  0  0  0
   16.5854    1.4293   31.3748 N   0  0  0  0  0  0  0  0  0  0  0  0
   16.1134    3.7351   32.6022 N   0  0  0  0  0  0  0  0  0  0  0  0
   15.3665    4.7313   33.2036 C   0  0  0  0  0  0  0  0  0  0  0  0
   13.9276    4.5257   33.2470 N   0  0  0  0  0  0  0  0  0  0  0  0
  2  1  1  1  0  0  0
  2  3  1  0  0  0  0
  2  5  1  0  0  0  0
  3  4  1  0  0  0  0
  3 17  1  0  0  0  0
  5  6  1  0  0  0  0
  7  6  1  6  0  0  0
  7  8  1  0  0  0  0
  7  9  1  0  0  0  0
 10  9  1  6  0  0  0
 10 11  1  0  0  0  0
 10 12  1  0  0  0  0
 11 16  1  0  0  0  0
 12 13  1  1  0  0  0
 12 14  1  0  0  0  0
 14 15  1  1  0  0  0
 14 16  1  0  0  0  0
 16 27  1  6  0  0  0
 18 19  2  0  0  0  0
 18 23  1  0  0  0  0
 19 20  1  0  0  0  0
 20 21  2  0  0  0  0
 21 22  1  0  0  0  0
 21 27  1  0  0  0  0
 22 23  2  0  0  0  0
 22 25  1  0  0  0  0
 23 24  1  0  0  0  0
 25 26  2  0  0  0  0
 26 27  1  0  0  0  0
M  END
>  <CHROM.1>
7.63302233,-176.77724570,-149.40621796,92.99733025,-92.76569639,68.84486611
-91.91819612,13.62307420,5.36132251,31.38233479,0.08673947,1.24277744,-1.82141702

>  <Name>
ligand

>  <RI>
0

>  <Rbt.Current_Directory>
/home/itssahil/PROJECTS/Mol_Feturizer/Test_systems_manuscript/rnas/4aob

>  <Rbt.Executable>
rbdock ($Id: //depot/dev/client3/rdock/2013.1/src/exe/rbdock.cxx#4 $)

>  <Rbt.Library>
libRbt.so (2013.1, Build901 2013/11/27)

>  <Rbt.Parameter_File>
/export/apps/rDock/src/rDock_2013.1_src/data/scripts/dock_solv.prm

>  <Rbt.Receptor>
prm/pocket_docking_2.prm

>  <SCORE>
-12.7537

>  <SCORE.INTER>
-15.9147

>  <SCORE.INTER.CONST>
1

>  <SCORE.INTER.POLAR>
0

>  <SCORE.INTER.ROT>
7

>  <SCORE.INTER.SOLV>
17.466

>  <SCORE.INTER.VDW>
-24.6985

>  <SCORE.INTER.norm>
-0.589435

>  <SCORE.INTRA>
3.16101

>  <SCORE.INTRA.DIHEDRAL>
4.88033

>  <SCORE.INTRA.DIHEDRAL.0>
6.31833

>  <SCORE.INTRA.POLAR>
0

>  <SCORE.INTRA.POLAR.0>
0

>  <SCORE.INTRA.REPUL>
0

>  <SCORE.INTRA.REPUL.0>
0

>  <SCORE.INTRA.SOLV>
0.548367

>  <SCORE.INTRA.SOLV.lig_0>
-48.4015

>  <SCORE.INTRA.VDW>
0.44666

>  <SCORE.INTRA.VDW.0>
-2.83256

>  <SCORE.INTRA.norm>
0.117074

>  <SCORE.RESTR>
0

>  <SCORE.RESTR.CAVITY>
0

>  <SCORE.RESTR.norm>
0

>  <SCORE.SYSTEM>
0

>  <SCORE.SYSTEM.CONST>
0

>  <SCORE.SYSTEM.DIHEDRAL>
0

>  <SCORE.SYSTEM.SOLV>
0

>  <SCORE.SYSTEM.norm>
0

>  <SCORE.heavy>
27

>  <SCORE.norm>
-0.472361

>  <RMSD>
1.090

$$$$
ligand
 OpenBabel02271912153D
libRbt.so/2013.1/901 2013/11/27
 27 29  0  0  0  0  0  0  0  0999 V2000
   13.7031    5.9154   25.8686 N   0  0  0  0  0  0  0  0  0  0  0  0
   14.5835    5.6025   27.0198 C   0  0  2  0  0  0  0  0  0  0  0  0
   14.2514    4.1924   27.4906 C   0  0  0  0  0  0  0  0  0  0  0  0
   13.0876    3.7309   27.7355 O   0  0  0  0  0  0  0  0  0  0  0  0
   14.3775    6.6664   28.1002 C   0  0  0  0  0  0  0  0  0  0  0  0
   12.9344    6.7469   28.5800 C   0  0  0  0  0  0  0  0  0  0  0  0
   12.3506    7.9701   29.8128 S   0  0  2  0  0  0  0  0  0  0  0  0
   12.8771    9.4672   28.9808 C   0  0  0  0  0  0  0  0  0  0  0  0
   13.6383    7.7020   31.0722 C   0  0  0  0  0  0  0  0  0  0  0  0
   13.0423    7.3244   32.4004 C   0  0  1  0  0  0  0  0  0  0  0  0
   12.3873    6.0334   32.3681 O   0  0  0  0  0  0  0  0  0  0  0  0
   14.0363    7.2853   33.5387 C   0  0  1  0  0  0  0  0  0  0  0  0
   13.9485    8.4612   34.2184 O   0  0  0  0  0  0  0  0  0  0  0  0
   13.4095    6.2189   34.4061 C   0  0  1  0  0  0  0  0  0  0  0  0
   12.4536    6.8541   35.1330 O   0  0  0  0  0  0  0  0  0  0  0  0
   12.7308    5.2120   33.4513 C   0  0  2  0  0  0  0  0  0  0  0  0
   15.2146    3.4541   27.7044 O   0  0  0  0  0  0  0  0  0  0  0  0
   14.3208    0.7789   31.2165 N   0  0  0  0  0  0  0  0  0  0  0  0
   13.0272    1.3352   31.4953 C   0  0  0  0  0  0  0  0  0  0  0  0
   12.7264    2.5757   32.1106 N   0  0  0  0  0  0  0  0  0  0  0  0
   13.7887    3.2131   32.4091 C   0  0  0  0  0  0  0  0  0  0  0  0
   15.1651    2.7300   32.1591 C   0  0  0  0  0  0  0  0  0  0  0  0
   15.4058    1.5429   31.5874 C   0  0  0  0  0  0  0  0  0  0  0  0
   16.6760    1.2263   31.4413 N   0  0  0  0  0  0  0  0  0  0  0  0
   16.0960    3.5595   32.5661 N   0  0  0  0  0  0  0  0  0  0  0  0
   15.2981    4.5710   33.0682 C   0  0  0  0  0  0  0  0  0  0  0  0
   13.8609    4.3715   32.9708 N   0  0  0  0  0  0  0  0  0  0  0  0
  2  1  1  6  0  0  0
  2  3  1  0  0  0  0
  2  5  1  0  0  0  0
  3  4  1  0  0  0  0
  3 17  1  0  0  0  0
  5  6  1  0  0  0  0
  7  6  1  6  0  0  0
  7  8  1  0  0  0  0
  7  9  1  0  0  0  0
 10  9  1  6  0  0  0
 10 11  1  0  0  0  0
 10 12  1  0  0  0  0
 11 16  1  0  0  0  0
 12 13  1  1  0  0  0
 12 14  1  0  0  0  0
 14 15  1  1  0  0  0
 14 16  1  0  0  0  0
 16 27  1  6  0  0  0
 18 19  2  0  0  0  0
 18 23  1  0  0  0  0
 19 20  1  0  0  0  0
 20 21  2  0  0  0  0
 21 22  1  0  0  0  0
 21 27  1  0  0  0  0
 22 23  2  0  0  0  0
 22 25  1  0  0  0  0
 23 24  1  0  0  0  0
 25 26  2  0  0  0  0
 26 27  1  0  0  0  0
M  END
>  <CHROM.1>
-49.50437077,58.70080771,-177.19531425,55.83726822,-122.95401256,66.31984000
-91.04760522,13.80282089,5.20485129,30.99288075,-2.70888850,-1.26860743,1.66792354

>  <Name>
ligand

>  <RI>
0

>  <Rbt.Current_Directory>
/home/itssahil/PROJECTS/Mol_Feturizer/Test_systems_manuscript/rnas/4aob

>  <Rbt.Executable>
rbdock ($Id: //depot/dev/client3/rdock/2013.1/src/exe/rbdock.cxx#4 $)

>  <Rbt.Library>
libRbt.so (2013.1, Build901 2013/11/27)

>  <Rbt.Parameter_File>
/export/apps/rDock/src/rDock_2013.1_src/data/scripts/dock_solv.prm

>  <Rbt.Receptor>
prm/pocket_docking_3.prm

>  <SCORE>
-13.1982

>  <SCORE.INTER>
-14.5365

>  <SCORE.INTER.CONST>
1

>  <SCORE.INTER.POLAR>
0

>  <SCORE.INTER.ROT>
7

>  <SCORE.INTER.SOLV>
17.2565

>  <SCORE.INTER.VDW>
-23.7099

>  <SCORE.INTER.norm>
-0.53839

>  <SCORE.INTRA>
1.33832

>  <SCORE.INTRA.DIHEDRAL>
1.14436

>  <SCORE.INTRA.DIHEDRAL.0>
6.31833

>  <SCORE.INTRA.POLAR>
0

>  <SCORE.INTRA.POLAR.0>
0

>  <SCORE.INTRA.REPUL>
0

>  <SCORE.INTRA.REPUL.0>
0

>  <SCORE.INTRA.SOLV>
-0.122985

>  <SCORE.INTRA.SOLV.lig_0>
-48.4015

>  <SCORE.INTRA.VDW>
0.827633

>  <SCORE.INTRA.VDW.0>
-2.83256

>  <SCORE.INTRA.norm>
0.0495674

>  <SCORE.RESTR>
0

>  <SCORE.RESTR.CAVITY>
0

>  <SCORE.RESTR.norm>
0

>  <SCORE.SYSTEM>
0

>  <SCORE.SYSTEM.CONST>
0

>  <SCORE.SYSTEM.DIHEDRAL>
0

>  <SCORE.SYSTEM.SOLV>
0

>  <SCORE.SYSTEM.norm>
0

>  <SCORE.heavy>
27

>  <SCORE.norm>
-0.488823

>  <RMSD>
1.133

$$$$
ligand
 OpenBabel02271912153D
libRbt.so/2013.1/901 2013/11/27
 27 29  0  0  0  0  0  0  0  0999 V2000
   12.9922    4.3707   27.7156 N   0  0  0  0  0  0  0  0  0  0  0  0
   14.0958    4.9492   26.9121 C   0  0  2  0  0  0  0  0  0  0  0  0
   15.4017    4.3428   27.4094 C   0  0  0  0  0  0  0  0  0  0  0  0
   15.5215    3.3676   28.2231 O   0  0  0  0  0  0  0  0  0  0  0  0
   14.0491    6.4736   27.0376 C   0  0  0  0  0  0  0  0  0  0  0  0
   14.2150    6.9518   28.4739 C   0  0  0  0  0  0  0  0  0  0  0  0
   13.1057    6.4401   29.8392 S   0  0  2  0  0  0  0  0  0  0  0  0
   11.5415    6.9353   29.1189 C   0  0  0  0  0  0  0  0  0  0  0  0
   13.4895    7.7875   31.0026 C   0  0  0  0  0  0  0  0  0  0  0  0
   12.9796    7.4862   32.3850 C   0  0  1  0  0  0  0  0  0  0  0  0
   12.3053    6.2071   32.4614 O   0  0  0  0  0  0  0  0  0  0  0  0
   14.0478    7.4854   33.4546 C   0  0  1  0  0  0  0  0  0  0  0  0
   14.0234    8.6946   34.0788 O   0  0  0  0  0  0  0  0  0  0  0  0
   13.4660    6.4742   34.4145 C   0  0  1  0  0  0  0  0  0  0  0  0
   12.5709    7.1612   35.1710 O   0  0  0  0  0  0  0  0  0  0  0  0
   12.7096    5.4338   33.5591 C   0  0  2  0  0  0  0  0  0  0  0  0
   16.4340    4.8935   27.0227 O   0  0  0  0  0  0  0  0  0  0  0  0
   14.0657    0.9283   31.3149 N   0  0  0  0  0  0  0  0  0  0  0  0
   12.8028    1.5311   31.6347 C   0  0  0  0  0  0  0  0  0  0  0  0
   12.5669    2.7868   32.2474 N   0  0  0  0  0  0  0  0  0  0  0  0
   13.6603    3.3904   32.5002 C   0  0  0  0  0  0  0  0  0  0  0  0
   15.0095    2.8582   32.2054 C   0  0  0  0  0  0  0  0  0  0  0  0
   15.1888    1.6583   31.6379 C   0  0  0  0  0  0  0  0  0  0  0  0
   16.4413    1.2971   31.4490 N   0  0  0  0  0  0  0  0  0  0  0  0
   15.9822    3.6592   32.5694 N   0  0  0  0  0  0  0  0  0  0  0  0
   15.2379    4.7021   33.0894 C   0  0  0  0  0  0  0  0  0  0  0  0
   13.7922    4.5508   33.0466 N   0  0  0  0  0  0  0  0  0  0  0  0
  2  1  1  1  0  0  0
  2  3  1  0  0  0  0
  2  5  1  0  0  0  0
  3  4  1  0  0  0  0
  3 17  1  0  0  0  0
  5  6  1  0  0  0  0
  7  6  1  6  0  0  0
  7  8  1  0  0  0  0
  7  9  1  0  0  0  0
 10  9  1  6  0  0  0
 10 11  1  0  0  0  0
 10 12  1  0  0  0  0
 11 16  1  0  0  0  0
 12 13  1  1  0  0  0
 12 14  1  0  0  0  0
 14 15  1  1  0  0  0
 14 16  1  0  0  0  0
 16 27  1  6  0  0  0
 18 19  2  0  0  0  0
 18 23  1  0  0  0  0
 19 20  1  0  0  0  0
 20 21  2  0  0  0  0
 21 22  1  0  0  0  0
 21 27  1  0  0  0  0
 22 23  2  0  0  0  0
 22 25  1  0  0  0  0
 23 24  1  0  0  0  0
 25 26  2  0  0  0  0
 26 27  1  0  0  0  0
M  END
>  <CHROM.1>
9.78311269,60.35659269,-57.76189205,-55.24948396,-166.22522293,-0.18846606
-87.99050268,13.93558590,5.06246617,31.03058501,0.76954283,1.23817842,-1.19964798

>  <Name>
ligand

>  <RI>
0

>  <Rbt.Current_Directory>
/home/itssahil/PROJECTS/Mol_Feturizer/Test_systems_manuscript/rnas/4aob

>  <Rbt.Executable>
rbdock ($Id: //depot/dev/client3/rdock/2013.1/src/exe/rbdock.cxx#4 $)

>  <Rbt.Library>
libRbt.so (2013.1, Build901 2013/11/27)

>  <Rbt.Parameter_File>
/export/apps/rDock/src/rDock_2013.1_src/data/scripts/dock_solv.prm

>  <Rbt.Receptor>
prm/pocket_docking_2.prm

>  <SCORE>
-7.09427

>  <SCORE.INTER>
-11.1352

>  <SCORE.INTER.CONST>
1

>  <SCORE.INTER.POLAR>
0

>  <SCORE.INTER.ROT>
7

>  <SCORE.INTER.SOLV>
17.9683

>  <SCORE.INTER.VDW>
-21.6796

>  <SCORE.INTER.norm>
-0.412415

>  <SCORE.INTRA>
4.03301

>  <SCORE.INTRA.DIHEDRAL>
4.05668

>  <SCORE.INTRA.DIHEDRAL.0>
6.31833

>  <SCORE.INTRA.POLAR>
0

>  <SCORE.INTRA.POLAR.0>
0

>  <SCORE.INTRA.REPUL>
0

>  <SCORE.INTRA.REPUL.0>
0

>  <SCORE.INTRA.SOLV>
2.42838

>  <SCORE.INTRA.SOLV.lig_0>
-48.4015

>  <SCORE.INTRA.VDW>
0.790487

>  <SCORE.INTRA.VDW.0>
-2.83256

>  <SCORE.INTRA.norm>
0.149371

>  <SCORE.RESTR>
0.00793231

>  <SCORE.RESTR.CAVITY>
0.00793231

>  <SCORE.RESTR.norm>
0.000293789

>  <SCORE.SYSTEM>
0

>  <SCORE.SYSTEM.CONST>
0

>  <SCORE.SYSTEM.DIHEDRAL>
0

>  <SCORE.SYSTEM.SOLV>
0

>  <SCORE.SYSTEM.norm>
0

>  <SCORE.heavy>
27

>  <SCORE.norm>
-0.262751

>  <RMSD>
1.145

$$$$
ligand
 OpenBabel02271912153D
libRbt.so/2013.1/901 2013/11/27
 27 29  0  0  0  0  0  0  0  0999 V2000
   14.2462    3.4453   29.1386 N   0  0  0  0  0  0  0  0  0  0  0  0
   13.2121    4.4660   28.8433 C   0  0  2  0  0  0  0  0  0  0  0  0
   13.2782    4.7789   27.3540 C   0  0  0  0  0  0  0  0  0  0  0  0
   14.1340    4.3265   26.5231 O   0  0  0  0  0  0  0  0  0  0  0  0
   13.4592    5.6878   29.7309 C   0  0  0  0  0  0  0  0  0  0  0  0
   12.2862    6.6590   29.7359 C   0  0  0  0  0  0  0  0  0  0  0  0
   12.3943    8.3639   30.3979 S   0  0  2  0  0  0  0  0  0  0  0  0
   13.2684    9.1303   29.0344 C   0  0  0  0  0  0  0  0  0  0  0  0
   13.6972    8.0773   31.6376 C   0  0  0  0  0  0  0  0  0  0  0  0
   13.1189    7.6514   32.9590 C   0  0  1  0  0  0  0  0  0  0  0  0
   12.3616    6.4209   32.8627 O   0  0  0  0  0  0  0  0  0  0  0  0
   14.1450    7.4525   34.0510 C   0  0  1  0  0  0  0  0  0  0  0  0
   14.1753    8.5790   34.8142 O   0  0  0  0  0  0  0  0  0  0  0  0
   13.4649    6.3776   34.8661 C   0  0  1  0  0  0  0  0  0  0  0  0
   12.5886    7.0304   35.6733 O   0  0  0  0  0  0  0  0  0  0  0  0
   12.6752    5.4986   33.8713 C   0  0  2  0  0  0  0  0  0  0  0  0
   12.4523    5.5926   26.9366 O   0  0  0  0  0  0  0  0  0  0  0  0
   13.8473    1.0190   31.4767 N   0  0  0  0  0  0  0  0  0  0  0  0
   12.6114    1.6335   31.8711 C   0  0  0  0  0  0  0  0  0  0  0  0
   12.4260    2.8803   32.5185 N   0  0  0  0  0  0  0  0  0  0  0  0
   13.5399    3.4628   32.7273 C   0  0  0  0  0  0  0  0  0  0  0  0
   14.8642    2.9170   32.3549 C   0  0  0  0  0  0  0  0  0  0  0  0
   14.9963    1.7261   31.7564 C   0  0  0  0  0  0  0  0  0  0  0  0
   16.2320    1.3505   31.4979 N   0  0  0  0  0  0  0  0  0  0  0  0
   15.8662    3.6966   32.6845 N   0  0  0  0  0  0  0  0  0  0  0  0
   15.1651    4.7396   33.2611 C   0  0  0  0  0  0  0  0  0  0  0  0
   13.7169    4.6102   33.2883 N   0  0  0  0  0  0  0  0  0  0  0  0
  2  1  1  1  0  0  0
  2  3  1  0  0  0  0
  2  5  1  0  0  0  0
  3  4  1  0  0  0  0
  3 17  1  0  0  0  0
  5  6  1  0  0  0  0
  7  6  1  6  0  0  0
  7  8  1  0  0  0  0
  7  9  1  0  0  0  0
 10  9  1  6  0  0  0
 10 11  1  0  0  0  0
 10 12  1  0  0  0  0
 11 16  1  0  0  0  0
 12 13  1  1  0  0  0
 12 14  1  0  0  0  0
 14 15  1  1  0  0  0
 14 16  1  0  0  0  0
 16 27  1  6  0  0  0
 18 19  2  0  0  0  0
 18 23  1  0  0  0  0
 19 20  1  0  0  0  0
 20 21  2  0  0  0  0
 21 22  1  0  0  0  0
 21 27  1  0  0  0  0
 22 23  2  0  0  0  0
 22 25  1  0  0  0  0
 23 24  1  0  0  0  0
 25 26  2  0  0  0  0
 26 27  1  0  0  0  0
M  END
>  <CHROM.1>
-4.96611667,-167.11537544,-166.61386359,76.78658786,-88.70105504,60.22234805
-95.96817887,13.55721943,5.33313786,31.46826303,1.17076230,1.31118862,-1.90164124

>  <Name>
ligand

>  <RI>
0

>  <Rbt.Current_Directory>
/home/itssahil/PROJECTS/Mol_Feturizer/Test_systems_manuscript/rnas/4aob

>  <Rbt.Executable>
rbdock ($Id: //depot/dev/client3/rdock/2013.1/src/exe/rbdock.cxx#4 $)

>  <Rbt.Library>
libRbt.so (2013.1, Build901 2013/11/27)

>  <Rbt.Parameter_File>
/export/apps/rDock/src/rDock_2013.1_src/data/scripts/dock_solv.prm

>  <Rbt.Receptor>
prm/pocket_docking_2.prm

>  <SCORE>
-16.0609

>  <SCORE.INTER>
-16.6896

>  <SCORE.INTER.CONST>
1

>  <SCORE.INTER.POLAR>
0

>  <SCORE.INTER.ROT>
7

>  <SCORE.INTER.SOLV>
15.8531

>  <SCORE.INTER.VDW>
-24.6774

>  <SCORE.INTER.norm>
-0.618133

>  <SCORE.INTRA>
0.621059

>  <SCORE.INTRA.DIHEDRAL>
0.716173

>  <SCORE.INTRA.DIHEDRAL.0>
6.31833

>  <SCORE.INTRA.POLAR>
0

>  <SCORE.INTRA.POLAR.0>
0

>  <SCORE.INTRA.REPUL>
0

>  <SCORE.INTRA.REPUL.0>
0

>  <SCORE.INTRA.SOLV>
2.18399

>  <SCORE.INTRA.SOLV.lig_0>
-48.4015

>  <SCORE.INTRA.VDW>
-0.829024

>  <SCORE.INTRA.VDW.0>
-2.83256

>  <SCORE.INTRA.norm>
0.0230022

>  <SCORE.RESTR>
0.00759536

>  <SCORE.RESTR.CAVITY>
0.00759536

>  <SCORE.RESTR.norm>
0.00028131

>  <SCORE.SYSTEM>
0

>  <SCORE.SYSTEM.CONST>
0

>  <SCORE.SYSTEM.DIHEDRAL>
0

>  <SCORE.SYSTEM.SOLV>
0

>  <SCORE.SYSTEM.norm>
0

>  <SCORE.heavy>
27

>  <SCORE.norm>
-0.594849

>  <RMSD>
1.154

$$$$
ligand
 OpenBabel02271912153D
libRbt.so/2013.1/901 2013/11/27
 27 29  0  0  0  0  0  0  0  0999 V2000
   12.1277    6.3697   26.2507 N   0  0  0  0  0  0  0  0  0  0  0  0
   13.1691    6.2225   27.2957 C   0  0  2  0  0  0  0  0  0  0  0  0
   14.0825    5.0748   26.8849 C   0  0  0  0  0  0  0  0  0  0  0  0
   13.8718    3.8322   27.0824 O   0  0  0  0  0  0  0  0  0  0  0  0
   12.4836    5.9981   28.6453 C   0  0  0  0  0  0  0  0  0  0  0  0
   11.5149    7.1161   29.0070 C   0  0  0  0  0  0  0  0  0  0  0  0
   12.0562    8.7878   29.5260 S   0  0  2  0  0  0  0  0  0  0  0  0
   12.8507    9.3010   28.0041 C   0  0  0  0  0  0  0  0  0  0  0  0
   13.4470    8.2898   30.5909 C   0  0  0  0  0  0  0  0  0  0  0  0
   12.9779    7.8943   31.9640 C   0  0  1  0  0  0  0  0  0  0  0  0
   12.1358    6.7164   31.9450 O   0  0  0  0  0  0  0  0  0  0  0  0
   14.0934    7.6222   32.9471 C   0  0  1  0  0  0  0  0  0  0  0  0
   14.2740    8.7396   33.7029 O   0  0  0  0  0  0  0  0  0  0  0  0
   13.4298    6.5889   33.8271 C   0  0  1  0  0  0  0  0  0  0  0  0
   12.6837    7.2924   34.7182 O   0  0  0  0  0  0  0  0  0  0  0  0
   12.4882    5.7694   32.9172 C   0  0  2  0  0  0  0  0  0  0  0  0
   15.1507    5.3963   26.3614 O   0  0  0  0  0  0  0  0  0  0  0  0
   14.2149    0.8794   32.3867 N   0  0  0  0  0  0  0  0  0  0  0  0
   13.1780    1.4799   33.1772 C   0  0  0  0  0  0  0  0  0  0  0  0
   12.7973    2.8440   33.2240 N   0  0  0  0  0  0  0  0  0  0  0  0
   13.5035    3.5483   32.4308 C   0  0  0  0  0  0  0  0  0  0  0  0
   14.5893    3.0251   31.5719 C   0  0  0  0  0  0  0  0  0  0  0  0
   14.9274    1.7291   31.5688 C   0  0  0  0  0  0  0  0  0  0  0  0
   15.9241    1.4006   30.7729 N   0  0  0  0  0  0  0  0  0  0  0  0
   15.1801    3.9474   30.8502 N   0  0  0  0  0  0  0  0  0  0  0  0
   14.4560    5.0537   31.2548 C   0  0  0  0  0  0  0  0  0  0  0  0
   13.4056    4.8186   32.2326 N   0  0  0  0  0  0  0  0  0  0  0  0
  2  1  1  6  0  0  0
  2  3  1  0  0  0  0
  2  5  1  0  0  0  0
  3  4  1  0  0  0  0
  3 17  1  0  0  0  0
  5  6  1  0  0  0  0
  7  6  1  6  0  0  0
  7  8  1  0  0  0  0
  7  9  1  0  0  0  0
 10  9  1  6  0  0  0
 10 11  1  0  0  0  0
 10 12  1  0  0  0  0
 11 16  1  0  0  0  0
 12 13  1  1  0  0  0
 12 14  1  0  0  0  0
 14 15  1  1  0  0  0
 14 16  1  0  0  0  0
 16 27  1  6  0  0  0
 18 19  2  0  0  0  0
 18 23  1  0  0  0  0
 19 20  1  0  0  0  0
 20 21  2  0  0  0  0
 21 22  1  0  0  0  0
 21 27  1  0  0  0  0
 22 23  2  0  0  0  0
 22 25  1  0  0  0  0
 23 24  1  0  0  0  0
 25 26  2  0  0  0  0
 26 27  1  0  0  0  0
M  END
>  <CHROM.1>
-83.13525818,-56.92299709,-72.73160039,64.40395613,-82.15628245,64.46623221
-145.11981793,13.43721226,5.63627920,30.69281553,-2.38930410,-1.29035202
1.63694966

>  <Name>
ligand

>  <RI>
0

>  <Rbt.Current_Directory>
/home/itssahil/PROJECTS/Mol_Feturizer/Test_systems_manuscript/rnas/4aob

>  <Rbt.Executable>
rbdock ($Id: //depot/dev/client3/rdock/2013.1/src/exe/rbdock.cxx#4 $)

>  <Rbt.Library>
libRbt.so (2013.1, Build901 2013/11/27)

>  <Rbt.Parameter_File>
/export/apps/rDock/src/rDock_2013.1_src/data/scripts/dock_solv.prm

>  <Rbt.Receptor>
prm/pocket_docking_5.prm

>  <SCORE>
-12.7946

>  <SCORE.INTER>
-12.3278

>  <SCORE.INTER.CONST>
1

>  <SCORE.INTER.POLAR>
0

>  <SCORE.INTER.ROT>
7

>  <SCORE.INTER.SOLV>
14.8087

>  <SCORE.INTER.VDW>
-21.4215

>  <SCORE.INTER.norm>
-0.456587

>  <SCORE.INTRA>
-0.466732

>  <SCORE.INTRA.DIHEDRAL>
-1.6383

>  <SCORE.INTRA.DIHEDRAL.0>
6.31833

>  <SCORE.INTRA.POLAR>
0

>  <SCORE.INTRA.POLAR.0>
0

>  <SCORE.INTRA.REPUL>
0

>  <SCORE.INTRA.REPUL.0>
0

>  <SCORE.INTRA.SOLV>
1.45711

>  <SCORE.INTRA.SOLV.lig_0>
-48.4015

>  <SCORE.INTRA.VDW>
-0.376137

>  <SCORE.INTRA.VDW.0>
-2.83256

>  <SCORE.INTRA.norm>
-0.0172864

>  <SCORE.RESTR>
0

>  <SCORE.RESTR.CAVITY>
0

>  <SCORE.RESTR.norm>
0

>  <SCORE.SYSTEM>
0

>  <SCORE.SYSTEM.CONST>
0

>  <SCORE.SYSTEM.DIHEDRAL>
0

>  <SCORE.SYSTEM.SOLV>
0

>  <SCORE.SYSTEM.norm>
0

>  <SCORE.heavy>
27

>  <SCORE.norm>
-0.473873

>  <RMSD>
1.224

$$$$
ligand
 OpenBabel02271912153D
libRbt.so/2013.1/901 2013/11/27
 27 29  0  0  0  0  0  0  0  0999 V2000
   14.7925    5.4327   29.5075 N   0  0  0  0  0  0  0  0  0  0  0  0
   13.5512    4.6218   29.4959 C   0  0  2  0  0  0  0  0  0  0  0  0
   13.3055    4.1665   28.0632 C   0  0  0  0  0  0  0  0  0  0  0  0
   13.0197    4.9145   27.0701 O   0  0  0  0  0  0  0  0  0  0  0  0
   12.4086    5.4632   30.0688 C   0  0  0  0  0  0  0  0  0  0  0  0
   12.2898    6.8272   29.4021 C   0  0  0  0  0  0  0  0  0  0  0  0
   12.2462    8.4031   30.3356 S   0  0  2  0  0  0  0  0  0  0  0  0
   12.9788    9.4723   29.0984 C   0  0  0  0  0  0  0  0  0  0  0  0
   13.6215    8.0635   31.4799 C   0  0  0  0  0  0  0  0  0  0  0  0
   13.1223    7.6816   32.8462 C   0  0  1  0  0  0  0  0  0  0  0  0
   12.3657    6.4470   32.8358 O   0  0  0  0  0  0  0  0  0  0  0  0
   14.2107    7.5222   33.8831 C   0  0  1  0  0  0  0  0  0  0  0  0
   14.2805    8.6741   34.6046 O   0  0  0  0  0  0  0  0  0  0  0  0
   13.5831    6.4743   34.7722 C   0  0  1  0  0  0  0  0  0  0  0  0
   12.7524    7.1524   35.6062 O   0  0  0  0  0  0  0  0  0  0  0  0
   12.7408    5.5603   33.8552 C   0  0  2  0  0  0  0  0  0  0  0  0
   13.3345    2.9496   27.8714 O   0  0  0  0  0  0  0  0  0  0  0  0
   13.7695    1.0629   31.4282 N   0  0  0  0  0  0  0  0  0  0  0  0
   12.5557    1.6982   31.8569 C   0  0  0  0  0  0  0  0  0  0  0  0
   12.4095    2.9474   32.5094 N   0  0  0  0  0  0  0  0  0  0  0  0
   13.5386    3.5108   32.6873 C   0  0  0  0  0  0  0  0  0  0  0  0
   14.8426    2.9428   32.2781 C   0  0  0  0  0  0  0  0  0  0  0  0
   14.9377    1.7502   31.6760 C   0  0  0  0  0  0  0  0  0  0  0  0
   16.1592    1.3539   31.3831 N   0  0  0  0  0  0  0  0  0  0  0  0
   15.8665    3.7050   32.5798 N   0  0  0  0  0  0  0  0  0  0  0  0
   15.1995    4.7595   33.1758 C   0  0  0  0  0  0  0  0  0  0  0  0
   13.7507    4.6547   33.2433 N   0  0  0  0  0  0  0  0  0  0  0  0
  2  1  1  6  0  0  0
  2  3  1  0  0  0  0
  2  5  1  0  0  0  0
  3  4  1  0  0  0  0
  3 17  1  0  0  0  0
  5  6  1  0  0  0  0
  7  6  1  6  0  0  0
  7  8  1  0  0  0  0
  7  9  1  0  0  0  0
 10  9  1  6  0  0  0
 10 11  1  0  0  0  0
 10 12  1  0  0  0  0
 11 16  1  0  0  0  0
 12 13  1  1  0  0  0
 12 14  1  0  0  0  0
 14 15  1  1  0  0  0
 14 16  1  0  0  0  0
 16 27  1  6  0  0  0
 18 19  2  0  0  0  0
 18 23  1  0  0  0  0
 19 20  1  0  0  0  0
 20 21  2  0  0  0  0
 21 22  1  0  0  0  0
 21 27  1  0  0  0  0
 22 23  2  0  0  0  0
 22 25  1  0  0  0  0
 23 24  1  0  0  0  0
 25 26  2  0  0  0  0
 26 27  1  0  0  0  0
M  END
>  <CHROM.1>
-66.27655240,51.34502197,-127.48854256,150.86791228,-102.56348040,63.66418130
-93.10760264,13.52749056,5.35065673,31.53149036,0.92446688,1.30010476,-2.12115991

>  <Name>
ligand

>  <RI>
0

>  <Rbt.Current_Directory>
/home/itssahil/PROJECTS/Mol_Feturizer/Test_systems_manuscript/rnas/4aob

>  <Rbt.Executable>
rbdock ($Id: //depot/dev/client3/rdock/2013.1/src/exe/rbdock.cxx#4 $)

>  <Rbt.Library>
libRbt.so (2013.1, Build901 2013/11/27)

>  <Rbt.Parameter_File>
/export/apps/rDock/src/rDock_2013.1_src/data/scripts/dock_solv.prm

>  <Rbt.Receptor>
prm/pocket_docking_2.prm

>  <SCORE>
-15.5275

>  <SCORE.INTER>
-18.1741

>  <SCORE.INTER.CONST>
1

>  <SCORE.INTER.POLAR>
0

>  <SCORE.INTER.ROT>
7

>  <SCORE.INTER.SOLV>
13.7282

>  <SCORE.INTER.VDW>
-24.9588

>  <SCORE.INTER.norm>
-0.673115

>  <SCORE.INTRA>
2.64601

>  <SCORE.INTRA.DIHEDRAL>
6.33883

>  <SCORE.INTRA.DIHEDRAL.0>
6.31833

>  <SCORE.INTRA.POLAR>
0

>  <SCORE.INTRA.POLAR.0>
0

>  <SCORE.INTRA.REPUL>
0

>  <SCORE.INTRA.REPUL.0>
0

>  <SCORE.INTRA.SOLV>
2.49061

>  <SCORE.INTRA.SOLV.lig_0>
-48.4015

>  <SCORE.INTRA.VDW>
-1.76871

>  <SCORE.INTRA.VDW.0>
-2.83256

>  <SCORE.INTRA.norm>
0.0980004

>  <SCORE.RESTR>
0.000597548

>  <SCORE.RESTR.CAVITY>
0.000597548

>  <SCORE.RESTR.norm>
2.21314e-05

>  <SCORE.SYSTEM>
0

>  <SCORE.SYSTEM.CONST>
0

>  <SCORE.SYSTEM.DIHEDRAL>
0

>  <SCORE.SYSTEM.SOLV>
0

>  <SCORE.SYSTEM.norm>
0

>  <SCORE.heavy>
27

>  <SCORE.norm>
-0.575093

>  <RMSD>
1.252

$$$$
ligand
 OpenBabel02271912153D
libRbt.so/2013.1/901 2013/11/27
 27 29  0  0  0  0  0  0  0  0999 V2000
   15.1445    4.0214   28.6252 N   0  0  0  0  0  0  0  0  0  0  0  0
   13.8266    4.7006   28.6316 C   0  0  2  0  0  0  0  0  0  0  0  0
   13.5156    5.1275   27.2028 C   0  0  0  0  0  0  0  0  0  0  0  0
   14.3547    5.2483   26.2496 O   0  0  0  0  0  0  0  0  0  0  0  0
   13.8810    5.8712   29.6156 C   0  0  0  0  0  0  0  0  0  0  0  0
   12.5255    6.5360   29.8156 C   0  0  0  0  0  0  0  0  0  0  0  0
   12.3230    8.2185   30.5118 S   0  0  2  0  0  0  0  0  0  0  0  0
   13.0735    9.1554   29.1816 C   0  0  0  0  0  0  0  0  0  0  0  0
   13.6342    8.1357   31.7730 C   0  0  0  0  0  0  0  0  0  0  0  0
   13.0928    7.6946   33.1050 C   0  0  1  0  0  0  0  0  0  0  0  0
   12.3259    6.4696   33.0145 O   0  0  0  0  0  0  0  0  0  0  0  0
   14.1497    7.4752   34.1632 C   0  0  1  0  0  0  0  0  0  0  0  0
   14.2091    8.5909   34.9405 O   0  0  0  0  0  0  0  0  0  0  0  0
   13.4879    6.3929   34.9835 C   0  0  1  0  0  0  0  0  0  0  0  0
   12.6396    7.0391   35.8252 O   0  0  0  0  0  0  0  0  0  0  0  0
   12.6640    5.5319   34.0007 C   0  0  2  0  0  0  0  0  0  0  0  0
   12.3446    5.4362   26.9748 O   0  0  0  0  0  0  0  0  0  0  0  0
   13.7398    1.0765   31.5174 N   0  0  0  0  0  0  0  0  0  0  0  0
   12.5197    1.6916   31.9574 C   0  0  0  0  0  0  0  0  0  0  0  0
   12.3604    2.9312   32.6251 N   0  0  0  0  0  0  0  0  0  0  0  0
   13.4830    3.5063   32.8061 C   0  0  0  0  0  0  0  0  0  0  0  0
   14.7926    2.9593   32.3862 C   0  0  0  0  0  0  0  0  0  0  0  0
   14.9003    1.7751   31.7697 C   0  0  0  0  0  0  0  0  0  0  0  0
   16.1256    1.3973   31.4683 N   0  0  0  0  0  0  0  0  0  0  0  0
   15.8080    3.7304   32.6937 N   0  0  0  0  0  0  0  0  0  0  0  0
   15.1301    4.7694   33.3043 C   0  0  0  0  0  0  0  0  0  0  0  0
   13.6829    4.6461   33.3750 N   0  0  0  0  0  0  0  0  0  0  0  0
  2  1  1  6  0  0  0
  2  3  1  0  0  0  0
  2  5  1  0  0  0  0
  3  4  1  0  0  0  0
  3 17  1  0  0  0  0
  5  6  1  0  0  0  0
  7  6  1  6  0  0  0
  7  8  1  0  0  0  0
  7  9  1  0  0  0  0
 10  9  1  6  0  0  0
 10 11  1  0  0  0  0
 10 12  1  0  0  0  0
 11 16  1  0  0  0  0
 12 13  1  1  0  0  0
 12 14  1  0  0  0  0
 14 15  1  1  0  0  0
 14 16  1  0  0  0  0
 16 27  1  6  0  0  0
 18 19  2  0  0  0  0
 18 23  1  0  0  0  0
 19 20  1  0  0  0  0
 20 21  2  0  0  0  0
 21 22  1  0  0  0  0
 21 27  1  0  0  0  0
 22 23  2  0  0  0  0
 22 25  1  0  0  0  0
 23 24  1  0  0  0  0
 25 26  2  0  0  0  0
 26 27  1  0  0  0  0
M  END
>  <CHROM.1>
-18.72758570,-173.35123720,-161.43529824,66.80012955,-93.42086812,52.15873998
-96.10562735,13.60757852,5.41860901,31.49701798,-1.27658118,-1.32189718,1.48314044

>  <Name>
ligand

>  <RI>
0

>  <Rbt.Current_Directory>
/home/itssahil/PROJECTS/Mol_Feturizer/Test_systems_manuscript/rnas/4aob

>  <Rbt.Executable>
rbdock ($Id: //depot/dev/client3/rdock/2013.1/src/exe/rbdock.cxx#4 $)

>  <Rbt.Library>
libRbt.so (2013.1, Build901 2013/11/27)

>  <Rbt.Parameter_File>
/export/apps/rDock/src/rDock_2013.1_src/data/scripts/dock_solv.prm

>  <Rbt.Receptor>
prm/pocket_docking_3.prm

>  <SCORE>
-16.2804

>  <SCORE.INTER>
-16.0002

>  <SCORE.INTER.CONST>
1

>  <SCORE.INTER.POLAR>
0

>  <SCORE.INTER.ROT>
7

>  <SCORE.INTER.SOLV>
13.7923

>  <SCORE.INTER.VDW>
-23.5309

>  <SCORE.INTER.norm>
-0.592598

>  <SCORE.INTRA>
-0.280233

>  <SCORE.INTRA.DIHEDRAL>
0.454928

>  <SCORE.INTRA.DIHEDRAL.0>
6.31833

>  <SCORE.INTRA.POLAR>
0

>  <SCORE.INTRA.POLAR.0>
0

>  <SCORE.INTRA.REPUL>
0

>  <SCORE.INTRA.REPUL.0>
0

>  <SCORE.INTRA.SOLV>
0.137488

>  <SCORE.INTRA.SOLV.lig_0>
-48.4015

>  <SCORE.INTRA.VDW>
-0.576441

>  <SCORE.INTRA.VDW.0>
-2.83256

>  <SCORE.INTRA.norm>
-0.010379

>  <SCORE.RESTR>
0

>  <SCORE.RESTR.CAVITY>
0

>  <SCORE.RESTR.norm>
0

>  <SCORE.SYSTEM>
0

>  <SCORE.SYSTEM.CONST>
0

>  <SCORE.SYSTEM.DIHEDRAL>
0

>  <SCORE.SYSTEM.SOLV>
0

>  <SCORE.SYSTEM.norm>
0

>  <SCORE.heavy>
27

>  <SCORE.norm>
-0.602977

>  <RMSD>
1.266

$$$$
ligand
 OpenBabel02271912153D
libRbt.so/2013.1/901 2013/11/27
 27 29  0  0  0  0  0  0  0  0999 V2000
   13.7791    5.9412   27.2698 N   0  0  0  0  0  0  0  0  0  0  0  0
   13.2776    5.4118   28.5608 C   0  0  2  0  0  0  0  0  0  0  0  0
   13.4289    3.8963   28.5332 C   0  0  0  0  0  0  0  0  0  0  0  0
   13.0943    3.0855   29.4596 O   0  0  0  0  0  0  0  0  0  0  0  0
   11.8313    5.8730   28.7531 C   0  0  0  0  0  0  0  0  0  0  0  0
   11.6688    7.3798   28.6045 C   0  0  0  0  0  0  0  0  0  0  0  0
   11.9863    8.5652   29.9649 S   0  0  2  0  0  0  0  0  0  0  0  0
   12.9326    9.7814   29.0506 C   0  0  0  0  0  0  0  0  0  0  0  0
   13.2573    7.6077   30.8503 C   0  0  0  0  0  0  0  0  0  0  0  0
   12.8253    7.2801   32.2531 C   0  0  1  0  0  0  0  0  0  0  0  0
   12.2335    5.9626   32.3583 O   0  0  0  0  0  0  0  0  0  0  0  0
   13.9356    7.3469   33.2767 C   0  0  1  0  0  0  0  0  0  0  0  0
   13.8642    8.5542   33.9010 O   0  0  0  0  0  0  0  0  0  0  0  0
   13.4571    6.3051   34.2605 C   0  0  1  0  0  0  0  0  0  0  0  0
   12.5546    6.9388   35.0540 O   0  0  0  0  0  0  0  0  0  0  0  0
   12.7298    5.2184   33.4381 C   0  0  2  0  0  0  0  0  0  0  0  0
   13.9802    3.4272   27.5360 O   0  0  0  0  0  0  0  0  0  0  0  0
   14.2630    0.7905   31.1539 N   0  0  0  0  0  0  0  0  0  0  0  0
   12.9805    1.3155   31.5283 C   0  0  0  0  0  0  0  0  0  0  0  0
   12.6942    2.5584   32.1457 N   0  0  0  0  0  0  0  0  0  0  0  0
   13.7579    3.2308   32.3458 C   0  0  0  0  0  0  0  0  0  0  0  0
   15.1232    2.7818   31.9922 C   0  0  0  0  0  0  0  0  0  0  0  0
   15.3515    1.5915   31.4223 C   0  0  0  0  0  0  0  0  0  0  0  0
   16.6144    1.3078   31.1781 N   0  0  0  0  0  0  0  0  0  0  0  0
   16.0592    3.6446   32.3081 N   0  0  0  0  0  0  0  0  0  0  0  0
   15.2752    4.6426   32.8570 C   0  0  0  0  0  0  0  0  0  0  0  0
   13.8414    4.4011   32.8807 N   0  0  0  0  0  0  0  0  0  0  0  0
  2  1  1  6  0  0  0
  2  3  1  0  0  0  0
  2  5  1  0  0  0  0
  3  4  1  0  0  0  0
  3 17  1  0  0  0  0
  5  6  1  0  0  0  0
  7  6  1  6  0  0  0
  7  8  1  0  0  0  0
  7  9  1  0  0  0  0
 10  9  1  6  0  0  0
 10 11  1  0  0  0  0
 10 12  1  0  0  0  0
 11 16  1  0  0  0  0
 12 13  1  1  0  0  0
 12 14  1  0  0  0  0
 14 15  1  1  0  0  0
 14 16  1  0  0  0  0
 16 27  1  6  0  0  0
 18 19  2  0  0  0  0
 18 23  1  0  0  0  0
 19 20  1  0  0  0  0
 20 21  2  0  0  0  0
 21 22  1  0  0  0  0
 21 27  1  0  0  0  0
 22 23  2  0  0  0  0
 22 25  1  0  0  0  0
 23 24  1  0  0  0  0
 25 26  2  0  0  0  0
 26 27  1  0  0  0  0
M  END
>  <CHROM.1>
-179.26116689,-52.91013651,-83.45343696,134.77264559,-119.24502571,95.84869784
-88.31208354,13.47975896,5.23467551,31.14577900,2.82758642,-1.23330340,1.17310220

>  <Name>
ligand

>  <RI>
0

>  <Rbt.Current_Directory>
/home/itssahil/PROJECTS/Mol_Feturizer/Test_systems_manuscript/rnas/4aob

>  <Rbt.Executable>
rbdock ($Id: //depot/dev/client3/rdock/2013.1/src/exe/rbdock.cxx#4 $)

>  <Rbt.Library>
libRbt.so (2013.1, Build901 2013/11/27)

>  <Rbt.Parameter_File>
/export/apps/rDock/src/rDock_2013.1_src/data/scripts/dock_solv.prm

>  <Rbt.Receptor>
prm/pocket_docking_2.prm

>  <SCORE>
-12.072

>  <SCORE.INTER>
-17.3963

>  <SCORE.INTER.CONST>
1

>  <SCORE.INTER.POLAR>
0

>  <SCORE.INTER.ROT>
7

>  <SCORE.INTER.SOLV>
15.2771

>  <SCORE.INTER.VDW>
-24.9566

>  <SCORE.INTER.norm>
-0.644307

>  <SCORE.INTRA>
5.32434

>  <SCORE.INTRA.DIHEDRAL>
9.37479

>  <SCORE.INTRA.DIHEDRAL.0>
6.31833

>  <SCORE.INTRA.POLAR>
0

>  <SCORE.INTRA.POLAR.0>
0

>  <SCORE.INTRA.REPUL>
0

>  <SCORE.INTRA.REPUL.0>
0

>  <SCORE.INTRA.SOLV>
1.34324

>  <SCORE.INTRA.SOLV.lig_0>
-48.4015

>  <SCORE.INTRA.VDW>
-0.0346757

>  <SCORE.INTRA.VDW.0>
-2.83256

>  <SCORE.INTRA.norm>
0.197198

>  <SCORE.RESTR>
0

>  <SCORE.RESTR.CAVITY>
0

>  <SCORE.RESTR.norm>
0

>  <SCORE.SYSTEM>
0

>  <SCORE.SYSTEM.CONST>
0

>  <SCORE.SYSTEM.DIHEDRAL>
0

>  <SCORE.SYSTEM.SOLV>
0

>  <SCORE.SYSTEM.norm>
0

>  <SCORE.heavy>
27

>  <SCORE.norm>
-0.447109

>  <RMSD>
1.267

$$$$
ligand
 OpenBabel02271912153D
libRbt.so/2013.1/901 2013/11/27
 27 29  0  0  0  0  0  0  0  0999 V2000
   15.6360    4.8414   27.9885 N   0  0  0  0  0  0  0  0  0  0  0  0
   14.2531    5.3426   28.1754 C   0  0  2  0  0  0  0  0  0  0  0  0
   13.3009    4.1728   27.9630 C   0  0  0  0  0  0  0  0  0  0  0  0
   13.6171    2.9375   27.9224 O   0  0  0  0  0  0  0  0  0  0  0  0
   14.0146    6.5019   27.2054 C   0  0  0  0  0  0  0  0  0  0  0  0
   14.0013    7.8573   27.8995 C   0  0  0  0  0  0  0  0  0  0  0  0
   12.8571    8.2760   29.2677 S   0  0  2  0  0  0  0  0  0  0  0  0
   12.8715   10.0597   29.0981 C   0  0  0  0  0  0  0  0  0  0  0  0
   13.9924    7.9666   30.6576 C   0  0  0  0  0  0  0  0  0  0  0  0
   13.2440    7.6344   31.9191 C   0  0  1  0  0  0  0  0  0  0  0  0
   12.5225    6.3826   31.8233 O   0  0  0  0  0  0  0  0  0  0  0  0
   14.1135    7.5481   33.1527 C   0  0  1  0  0  0  0  0  0  0  0  0
   14.0251    8.7325   33.8172 O   0  0  0  0  0  0  0  0  0  0  0  0
   13.3417    6.5263   33.9543 C   0  0  1  0  0  0  0  0  0  0  0  0
   12.3551    7.2208   34.5787 O   0  0  0  0  0  0  0  0  0  0  0  0
   12.7066    5.5519   32.9378 C   0  0  2  0  0  0  0  0  0  0  0  0
   12.1222    4.4672   27.7569 O   0  0  0  0  0  0  0  0  0  0  0  0
   14.2534    0.8767   31.2275 N   0  0  0  0  0  0  0  0  0  0  0  0
   12.9657    1.4830   31.4146 C   0  0  0  0  0  0  0  0  0  0  0  0
   12.6772    2.7875   31.8865 N   0  0  0  0  0  0  0  0  0  0  0  0
   13.7455    3.4340   32.1403 C   0  0  0  0  0  0  0  0  0  0  0  0
   15.1169    2.9021   31.9761 C   0  0  0  0  0  0  0  0  0  0  0  0
   15.3455    1.6564   31.5402 C   0  0  0  0  0  0  0  0  0  0  0  0
   16.6118    1.3030   31.4589 N   0  0  0  0  0  0  0  0  0  0  0  0
   16.0555    3.7536   32.3140 N   0  0  0  0  0  0  0  0  0  0  0  0
   15.2678    4.8273   32.6861 C   0  0  0  0  0  0  0  0  0  0  0  0
   13.8293    4.6445   32.5766 N   0  0  0  0  0  0  0  0  0  0  0  0
  2  1  1  6  0  0  0
  2  3  1  0  0  0  0
  2  5  1  0  0  0  0
  3  4  1  0  0  0  0
  3 17  1  0  0  0  0
  5  6  1  0  0  0  0
  7  6  1  6  0  0  0
  7  8  1  0  0  0  0
  7  9  1  0  0  0  0
 10  9  1  6  0  0  0
 10 11  1  0  0  0  0
 10 12  1  0  0  0  0
 11 16  1  0  0  0  0
 12 13  1  1  0  0  0
 12 14  1  0  0  0  0
 14 15  1  6  0  0  0
 14 16  1  0  0  0  0
 16 27  1  6  0  0  0
 18 19  2  0  0  0  0
 18 23  1  0  0  0  0
 19 20  1  0  0  0  0
 20 21  2  0  0  0  0
 21 22  1  0  0  0  0
 21 27  1  0  0  0  0
 22 23  2  0  0  0  0
 22 25  1  0  0  0  0
 23 24  1  0  0  0  0
 25 26  2  0  0  0  0
 26 27  1  0  0  0  0
M  END
>  <CHROM.1>
13.96133546,-106.09578755,-57.38849585,-156.84749252,-155.03861525,65.57456714
-98.75672992,13.80057869,5.39728252,30.83767648,-0.00856057,1.35036976,-1.66304447

>  <Name>
ligand

>  <RI>
0

>  <Rbt.Current_Directory>
/home/itssahil/PROJECTS/Mol_Feturizer/Test_systems_manuscript/rnas/4aob

>  <Rbt.Executable>
rbdock ($Id: //depot/dev/client3/rdock/2013.1/src/exe/rbdock.cxx#4 $)

>  <Rbt.Library>
libRbt.so (2013.1, Build901 2013/11/27)

>  <Rbt.Parameter_File>
/export/apps/rDock/src/rDock_2013.1_src/data/scripts/dock_solv.prm

>  <Rbt.Receptor>
prm/pocket_docking_2.prm

>  <SCORE>
-8.55519

>  <SCORE.INTER>
-11.3929

>  <SCORE.INTER.CONST>
1

>  <SCORE.INTER.POLAR>
0

>  <SCORE.INTER.ROT>
7

>  <SCORE.INTER.SOLV>
15.2613

>  <SCORE.INTER.VDW>
-20.949

>  <SCORE.INTER.norm>
-0.421959

>  <SCORE.INTRA>
2.7886

>  <SCORE.INTRA.DIHEDRAL>
7.13286

>  <SCORE.INTRA.DIHEDRAL.0>
6.31833

>  <SCORE.INTRA.POLAR>
0

>  <SCORE.INTRA.POLAR.0>
0

>  <SCORE.INTRA.REPUL>
0

>  <SCORE.INTRA.REPUL.0>
0

>  <SCORE.INTRA.SOLV>
-0.203139

>  <SCORE.INTRA.SOLV.lig_0>
-48.4015

>  <SCORE.INTRA.VDW>
-0.676264

>  <SCORE.INTRA.VDW.0>
-2.83256

>  <SCORE.INTRA.norm>
0.103281

>  <SCORE.RESTR>
0.049091

>  <SCORE.RESTR.CAVITY>
0.049091

>  <SCORE.RESTR.norm>
0.00181818

>  <SCORE.SYSTEM>
0

>  <SCORE.SYSTEM.CONST>
0

>  <SCORE.SYSTEM.DIHEDRAL>
0

>  <SCORE.SYSTEM.SOLV>
0

>  <SCORE.SYSTEM.norm>
0

>  <SCORE.heavy>
27

>  <SCORE.norm>
-0.316859

>  <RMSD>
1.292

$$$$
ligand
 OpenBabel02271912153D
libRbt.so/2013.1/901 2013/11/27
 27 29  0  0  0  0  0  0  0  0999 V2000
   14.8599    5.6263   27.3684 N   0  0  0  0  0  0  0  0  0  0  0  0
   13.8832    5.7347   28.4786 C   0  0  2  0  0  0  0  0  0  0  0  0
   13.5605    4.3242   28.9546 C   0  0  0  0  0  0  0  0  0  0  0  0
   12.9506    4.0096   30.0301 O   0  0  0  0  0  0  0  0  0  0  0  0
   12.6563    6.5021   27.9814 C   0  0  0  0  0  0  0  0  0  0  0  0
   11.7260    6.9218   29.1117 C   0  0  0  0  0  0  0  0  0  0  0  0
   12.0212    8.3918   30.1644 S   0  0  2  0  0  0  0  0  0  0  0  0
   12.8326    9.4346   28.9541 C   0  0  0  0  0  0  0  0  0  0  0  0
   13.3988    7.7286   31.1537 C   0  0  0  0  0  0  0  0  0  0  0  0
   12.9680    7.4131   32.5597 C   0  0  1  0  0  0  0  0  0  0  0  0
   12.3117    6.1265   32.6637 O   0  0  0  0  0  0  0  0  0  0  0  0
   14.0928    7.4165   33.5696 C   0  0  1  0  0  0  0  0  0  0  0  0
   14.0901    8.6213   34.2027 O   0  0  0  0  0  0  0  0  0  0  0  0
   13.5742    6.3931   34.5526 C   0  0  1  0  0  0  0  0  0  0  0  0
   12.7148    7.0658   35.3614 O   0  0  0  0  0  0  0  0  0  0  0  0
   12.7829    5.3504   33.7323 C   0  0  2  0  0  0  0  0  0  0  0  0
   13.9844    3.4067   28.2497 O   0  0  0  0  0  0  0  0  0  0  0  0
   14.0521    0.9018   31.3294 N   0  0  0  0  0  0  0  0  0  0  0  0
   12.8025    1.4941   31.7145 C   0  0  0  0  0  0  0  0  0  0  0  0
   12.5902    2.7346   32.3656 N   0  0  0  0  0  0  0  0  0  0  0  0
   13.6922    3.3345   32.5878 C   0  0  0  0  0  0  0  0  0  0  0  0
   15.0290    2.8123   32.2259 C   0  0  0  0  0  0  0  0  0  0  0  0
   15.1865    1.6265   31.6235 C   0  0  0  0  0  0  0  0  0  0  0  0
   16.4307    1.2726   31.3753 N   0  0  0  0  0  0  0  0  0  0  0  0
   16.0147    3.6068   32.5687 N   0  0  0  0  0  0  0  0  0  0  0  0
   15.2909    4.6355   33.1430 C   0  0  0  0  0  0  0  0  0  0  0  0
   13.8449    4.4821   33.1555 N   0  0  0  0  0  0  0  0  0  0  0  0
  2  1  1  6  0  0  0
  2  3  1  0  0  0  0
  2  5  1  0  0  0  0
  3  4  1  0  0  0  0
  3 17  1  0  0  0  0
  5  6  1  0  0  0  0
  7  6  1  6  0  0  0
  7  8  1  0  0  0  0
  7  9  1  0  0  0  0
 10  9  1  6  0  0  0
 10 11  1  0  0  0  0
 10 12  1  0  0  0  0
 11 16  1  0  0  0  0
 12 13  1  1  0  0  0
 12 14  1  0  0  0  0
 14 15  1  1  0  0  0
 14 16  1  0  0  0  0
 16 27  1  6  0  0  0
 18 19  2  0  0  0  0
 18 23  1  0  0  0  0
 19 20  1  0  0  0  0
 20 21  2  0  0  0  0
 21 22  1  0  0  0  0
 21 27  1  0  0  0  0
 22 23  2  0  0  0  0
 22 25  1  0  0  0  0
 23 24  1  0  0  0  0
 25 26  2  0  0  0  0
 26 27  1  0  0  0  0
M  END
>  <CHROM.1>
166.93835738,-167.95328659,80.59337923,31.93739744,-107.09154699,81.89283877
-86.65919759,13.57322458,5.31710530,31.37908958,3.00832094,-1.26711390,1.33802449

>  <Name>
ligand

>  <RI>
0

>  <Rbt.Current_Directory>
/home/itssahil/PROJECTS/Mol_Feturizer/Test_systems_manuscript/rnas/4aob

>  <Rbt.Executable>
rbdock ($Id: //depot/dev/client3/rdock/2013.1/src/exe/rbdock.cxx#4 $)

>  <Rbt.Library>
libRbt.so (2013.1, Build901 2013/11/27)

>  <Rbt.Parameter_File>
/export/apps/rDock/src/rDock_2013.1_src/data/scripts/dock_solv.prm

>  <Rbt.Receptor>
prm/pocket_docking_2.prm

>  <SCORE>
-14.6208

>  <SCORE.INTER>
-16.3993

>  <SCORE.INTER.CONST>
1

>  <SCORE.INTER.POLAR>
0

>  <SCORE.INTER.ROT>
7

>  <SCORE.INTER.SOLV>
14.8967

>  <SCORE.INTER.VDW>
-24.1651

>  <SCORE.INTER.norm>
-0.607383

>  <SCORE.INTRA>
1.77858

>  <SCORE.INTRA.DIHEDRAL>
4.6437

>  <SCORE.INTRA.DIHEDRAL.0>
6.31833

>  <SCORE.INTRA.POLAR>
0

>  <SCORE.INTRA.POLAR.0>
0

>  <SCORE.INTRA.REPUL>
0

>  <SCORE.INTRA.REPUL.0>
0

>  <SCORE.INTRA.SOLV>
-0.38539

>  <SCORE.INTRA.SOLV.lig_0>
-48.4015

>  <SCORE.INTRA.VDW>
-0.350575

>  <SCORE.INTRA.VDW.0>
-2.83256

>  <SCORE.INTRA.norm>
0.0658732

>  <SCORE.RESTR>
0

>  <SCORE.RESTR.CAVITY>
0

>  <SCORE.RESTR.norm>
0

>  <SCORE.SYSTEM>
0

>  <SCORE.SYSTEM.CONST>
0

>  <SCORE.SYSTEM.DIHEDRAL>
0

>  <SCORE.SYSTEM.SOLV>
0

>  <SCORE.SYSTEM.norm>
0

>  <SCORE.heavy>
27

>  <SCORE.norm>
-0.54151

>  <RMSD>
1.376

$$$$
ligand
 OpenBabel02271912153D
libRbt.so/2013.1/901 2013/11/27
 27 29  0  0  0  0  0  0  0  0999 V2000
   12.8015    4.2717   28.1842 N   0  0  0  0  0  0  0  0  0  0  0  0
   12.0684    5.3180   27.4318 C   0  0  2  0  0  0  0  0  0  0  0  0
   13.0737    6.0503   26.5523 C   0  0  0  0  0  0  0  0  0  0  0  0
   12.8178    6.6769   25.4710 O   0  0  0  0  0  0  0  0  0  0  0  0
   11.3561    6.2337   28.4296 C   0  0  0  0  0  0  0  0  0  0  0  0
   12.2371    6.6151   29.6118 C   0  0  0  0  0  0  0  0  0  0  0  0
   12.1817    8.2588   30.4190 S   0  0  2  0  0  0  0  0  0  0  0  0
   12.9070    9.2332   29.1018 C   0  0  0  0  0  0  0  0  0  0  0  0
   13.5590    8.0199   31.5862 C   0  0  0  0  0  0  0  0  0  0  0  0
   13.0687    7.5716   32.9355 C   0  0  1  0  0  0  0  0  0  0  0  0
   12.3414    6.3209   32.8745 O   0  0  0  0  0  0  0  0  0  0  0  0
   14.1603    7.3963   33.9663 C   0  0  1  0  0  0  0  0  0  0  0  0
   14.2027    8.5196   34.7337 O   0  0  0  0  0  0  0  0  0  0  0  0
   13.5576    6.2990   34.8118 C   0  0  1  0  0  0  0  0  0  0  0  0
   12.7108    6.9231   35.6715 O   0  0  0  0  0  0  0  0  0  0  0  0
   12.7372    5.4029   33.8577 C   0  0  2  0  0  0  0  0  0  0  0  0
   14.2527    5.9746   26.9026 O   0  0  0  0  0  0  0  0  0  0  0  0
   13.8872    0.9887   31.3346 N   0  0  0  0  0  0  0  0  0  0  0  0
   12.6590    1.5699   31.7974 C   0  0  0  0  0  0  0  0  0  0  0  0
   12.4786    2.8018   32.4740 N   0  0  0  0  0  0  0  0  0  0  0  0
   13.5888    3.4050   32.6397 C   0  0  0  0  0  0  0  0  0  0  0  0
   14.9050    2.8941   32.1957 C   0  0  0  0  0  0  0  0  0  0  0  0
   15.0332    1.7160   31.5715 C   0  0  0  0  0  0  0  0  0  0  0  0
   16.2628    1.3716   31.2483 N   0  0  0  0  0  0  0  0  0  0  0  0
   15.9050    3.6899   32.4907 N   0  0  0  0  0  0  0  0  0  0  0  0
   15.2105    4.7081   33.1174 C   0  0  0  0  0  0  0  0  0  0  0  0
   13.7683    4.5468   33.2110 N   0  0  0  0  0  0  0  0  0  0  0  0
  2  1  1  1  0  0  0
  2  3  1  0  0  0  0
  2  5  1  0  0  0  0
  3  4  1  0  0  0  0
  3 17  1  0  0  0  0
  5  6  1  0  0  0  0
  7  6  1  6  0  0  0
  7  8  1  0  0  0  0
  7  9  1  0  0  0  0
 10  9  1  6  0  0  0
 10 11  1  0  0  0  0
 10 12  1  0  0  0  0
 11 16  1  0  0  0  0
 12 13  1  1  0  0  0
 12 14  1  0  0  0  0
 14 15  1  1  0  0  0
 14 16  1  0  0  0  0
 16 27  1  6  0  0  0
 18 19  2  0  0  0  0
 18 23  1  0  0  0  0
 19 20  1  0  0  0  0
 20 21  2  0  0  0  0
 21 22  1  0  0  0  0
 21 27  1  0  0  0  0
 22 23  2  0  0  0  0
 22 25  1  0  0  0  0
 23 24  1  0  0  0  0
 25 26  2  0  0  0  0
 26 27  1  0  0  0  0
M  END
>  <CHROM.1>
154.97153644,44.04537295,144.30211435,-69.91385219,-95.33443048,59.62011751
-95.06965034,13.39084229,5.52095901,31.21492757,-2.32143847,-1.28365684,1.13823265

>  <Name>
ligand

>  <RI>
0

>  <Rbt.Current_Directory>
/home/itssahil/PROJECTS/Mol_Feturizer/Test_systems_manuscript/rnas/4aob

>  <Rbt.Executable>
rbdock ($Id: //depot/dev/client3/rdock/2013.1/src/exe/rbdock.cxx#4 $)

>  <Rbt.Library>
libRbt.so (2013.1, Build901 2013/11/27)

>  <Rbt.Parameter_File>
/export/apps/rDock/src/rDock_2013.1_src/data/scripts/dock_solv.prm

>  <Rbt.Receptor>
prm/pocket_docking_7.prm

>  <SCORE>
-14.3855

>  <SCORE.INTER>
-16.7292

>  <SCORE.INTER.CONST>
1

>  <SCORE.INTER.POLAR>
0

>  <SCORE.INTER.ROT>
7

>  <SCORE.INTER.SOLV>
17.8585

>  <SCORE.INTER.VDW>
-25.3723

>  <SCORE.INTER.norm>
-0.6196

>  <SCORE.INTRA>
2.34372

>  <SCORE.INTRA.DIHEDRAL>
3.23809

>  <SCORE.INTRA.DIHEDRAL.0>
6.31833

>  <SCORE.INTRA.POLAR>
0

>  <SCORE.INTRA.POLAR.0>
0

>  <SCORE.INTRA.REPUL>
0

>  <SCORE.INTRA.REPUL.0>
0

>  <SCORE.INTRA.SOLV>
0.139029

>  <SCORE.INTRA.SOLV.lig_0>
-48.4015

>  <SCORE.INTRA.VDW>
0.655163

>  <SCORE.INTRA.VDW.0>
-2.83256

>  <SCORE.INTRA.norm>
0.0868044

>  <SCORE.RESTR>
0

>  <SCORE.RESTR.CAVITY>
0

>  <SCORE.RESTR.norm>
0

>  <SCORE.SYSTEM>
0

>  <SCORE.SYSTEM.CONST>
0

>  <SCORE.SYSTEM.DIHEDRAL>
0

>  <SCORE.SYSTEM.SOLV>
0

>  <SCORE.SYSTEM.norm>
0

>  <SCORE.heavy>
27

>  <SCORE.norm>
-0.532795

>  <RMSD>
1.383

$$$$
ligand
 OpenBabel02271912153D
libRbt.so/2013.1/901 2013/11/27
 27 29  0  0  0  0  0  0  0  0999 V2000
   12.5746    5.4817   26.6876 N   0  0  0  0  0  0  0  0  0  0  0  0
   13.0987    5.5831   28.0708 C   0  0  2  0  0  0  0  0  0  0  0  0
   13.8586    4.2988   28.3765 C   0  0  0  0  0  0  0  0  0  0  0  0
   15.1175    4.1877   28.5503 O   0  0  0  0  0  0  0  0  0  0  0  0
   11.9280    5.8360   29.0233 C   0  0  0  0  0  0  0  0  0  0  0  0
   12.3693    6.4298   30.3544 C   0  0  0  0  0  0  0  0  0  0  0  0
   12.3658    8.2281   30.7046 S   0  0  2  0  0  0  0  0  0  0  0  0
   13.1704    8.7981   29.2085 C   0  0  0  0  0  0  0  0  0  0  0  0
   13.6981    8.2521   31.9458 C   0  0  0  0  0  0  0  0  0  0  0  0
   13.2008    7.8233   33.2989 C   0  0  1  0  0  0  0  0  0  0  0  0
   12.3947    6.6218   33.2389 O   0  0  0  0  0  0  0  0  0  0  0  0
   14.2946    7.5695   34.3109 C   0  0  1  0  0  0  0  0  0  0  0  0
   14.4200    8.6806   35.0869 O   0  0  0  0  0  0  0  0  0  0  0  0
   13.6362    6.5048   35.1566 C   0  0  1  0  0  0  0  0  0  0  0  0
   12.8440    7.1733   36.0347 O   0  0  0  0  0  0  0  0  0  0  0  0
   12.7462    5.6715   34.2081 C   0  0  2  0  0  0  0  0  0  0  0  0
   13.1859    3.2667   28.4006 O   0  0  0  0  0  0  0  0  0  0  0  0
   13.5782    1.2072   31.6484 N   0  0  0  0  0  0  0  0  0  0  0  0
   12.3966    1.8591   32.1376 C   0  0  0  0  0  0  0  0  0  0  0  0
   12.3041    3.0967   32.8216 N   0  0  0  0  0  0  0  0  0  0  0  0
   13.4516    3.6313   32.9669 C   0  0  0  0  0  0  0  0  0  0  0  0
   14.7257    3.0441   32.4951 C   0  0  0  0  0  0  0  0  0  0  0  0
   14.7704    1.8633   31.8646 C   0  0  0  0  0  0  0  0  0  0  0  0
   15.9704    1.4469   31.5158 N   0  0  0  0  0  0  0  0  0  0  0  0
   15.7775    3.7770   32.7725 N   0  0  0  0  0  0  0  0  0  0  0  0
   15.1581    4.8324   33.4163 C   0  0  0  0  0  0  0  0  0  0  0  0
   13.7109    4.7578   33.5382 N   0  0  0  0  0  0  0  0  0  0  0  0
  2  1  1  6  0  0  0
  2  3  1  0  0  0  0
  2  5  1  0  0  0  0
  3  4  1  0  0  0  0
  3 17  1  0  0  0  0
  5  6  1  0  0  0  0
  7  6  1  6  0  0  0
  7  8  1  0  0  0  0
  7  9  1  0  0  0  0
 10  9  1  6  0  0  0
 10 11  1  0  0  0  0
 10 12  1  0  0  0  0
 11 16  1  0  0  0  0
 12 13  1  1  0  0  0
 12 14  1  0  0  0  0
 14 15  1  1  0  0  0
 14 16  1  0  0  0  0
 16 27  1  6  0  0  0
 18 19  2  0  0  0  0
 18 23  1  0  0  0  0
 19 20  1  0  0  0  0
 20 21  2  0  0  0  0
 21 22  1  0  0  0  0
 21 27  1  0  0  0  0
 22 23  2  0  0  0  0
 22 25  1  0  0  0  0
 23 24  1  0  0  0  0
 25 26  2  0  0  0  0
 26 27  1  0  0  0  0
M  END
>  <CHROM.1>
112.11467551,-159.93729164,95.22927058,-47.41030968,-80.03085612,46.86147956
-95.49883231,13.51366756,5.39426825,31.70899418,1.41681156,1.31022840,-2.07695769

>  <Name>
ligand

>  <RI>
0

>  <Rbt.Current_Directory>
/home/itssahil/PROJECTS/Mol_Feturizer/Test_systems_manuscript/rnas/4aob

>  <Rbt.Executable>
rbdock ($Id: //depot/dev/client3/rdock/2013.1/src/exe/rbdock.cxx#4 $)

>  <Rbt.Library>
libRbt.so (2013.1, Build901 2013/11/27)

>  <Rbt.Parameter_File>
/export/apps/rDock/src/rDock_2013.1_src/data/scripts/dock_solv.prm

>  <Rbt.Receptor>
prm/pocket_docking_2.prm

>  <SCORE>
-13.3166

>  <SCORE.INTER>
-15.2528

>  <SCORE.INTER.CONST>
1

>  <SCORE.INTER.POLAR>
0

>  <SCORE.INTER.ROT>
7

>  <SCORE.INTER.SOLV>
17.1207

>  <SCORE.INTER.VDW>
-24.1421

>  <SCORE.INTER.norm>
-0.564918

>  <SCORE.INTRA>
1.72373

>  <SCORE.INTRA.DIHEDRAL>
3.88007

>  <SCORE.INTRA.DIHEDRAL.0>
6.31833

>  <SCORE.INTRA.POLAR>
0

>  <SCORE.INTRA.POLAR.0>
0

>  <SCORE.INTRA.REPUL>
0

>  <SCORE.INTRA.REPUL.0>
0

>  <SCORE.INTRA.SOLV>
-0.125188

>  <SCORE.INTRA.SOLV.lig_0>
-48.4015

>  <SCORE.INTRA.VDW>
-0.153708

>  <SCORE.INTRA.VDW.0>
-2.83256

>  <SCORE.INTRA.norm>
0.0638419

>  <SCORE.RESTR>
0.212424

>  <SCORE.RESTR.CAVITY>
0.212424

>  <SCORE.RESTR.norm>
0.00786756

>  <SCORE.SYSTEM>
0

>  <SCORE.SYSTEM.CONST>
0

>  <SCORE.SYSTEM.DIHEDRAL>
0

>  <SCORE.SYSTEM.SOLV>
0

>  <SCORE.SYSTEM.norm>
0

>  <SCORE.heavy>
27

>  <SCORE.norm>
-0.493209

>  <RMSD>
1.392

$$$$
ligand
 OpenBabel02271912153D
libRbt.so/2013.1/901 2013/11/27
 27 29  0  0  0  0  0  0  0  0999 V2000
   13.8858    6.2366   26.4653 N   0  0  0  0  0  0  0  0  0  0  0  0
   13.4322    5.5093   27.6751 C   0  0  2  0  0  0  0  0  0  0  0  0
   13.8363    4.0488   27.5196 C   0  0  0  0  0  0  0  0  0  0  0  0
   14.5749    3.5619   26.6004 O   0  0  0  0  0  0  0  0  0  0  0  0
   11.9229    5.7071   27.8311 C   0  0  0  0  0  0  0  0  0  0  0  0
   11.5608    7.0930   28.3481 C   0  0  0  0  0  0  0  0  0  0  0  0
   12.0933    7.7282   29.9820 S   0  0  2  0  0  0  0  0  0  0  0  0
   13.7752    8.1820   29.5624 C   0  0  0  0  0  0  0  0  0  0  0  0
   12.2786    6.1289   30.8330 C   0  0  0  0  0  0  0  0  0  0  0  0
   12.5141    6.3112   32.3072 C   0  0  1  0  0  0  0  0  0  0  0  0
   12.4593    5.0616   33.0368 O   0  0  0  0  0  0  0  0  0  0  0  0
   13.8343    6.9632   32.6493 C   0  0  1  0  0  0  0  0  0  0  0  0
   13.6087    8.2874   32.8683 O   0  0  0  0  0  0  0  0  0  0  0  0
   14.1077    6.3275   33.9923 C   0  0  1  0  0  0  0  0  0  0  0  0
   13.4014    7.0586   34.8934 O   0  0  0  0  0  0  0  0  0  0  0  0
   13.5242    4.8984   33.9343 C   0  0  2  0  0  0  0  0  0  0  0  0
   13.3500    3.2646   28.3363 O   0  0  0  0  0  0  0  0  0  0  0  0
   14.7295    0.7143   31.0681 N   0  0  0  0  0  0  0  0  0  0  0  0
   13.5012    1.2134   31.6184 C   0  0  0  0  0  0  0  0  0  0  0  0
   13.3040    2.3886   32.3852 N   0  0  0  0  0  0  0  0  0  0  0  0
   14.3970    3.0230   32.5481 C   0  0  0  0  0  0  0  0  0  0  0  0
   15.7114    2.5962   32.0181 C   0  0  0  0  0  0  0  0  0  0  0  0
   15.8567    1.4691   31.3093 C   0  0  0  0  0  0  0  0  0  0  0  0
   17.0835    1.1966   30.9146 N   0  0  0  0  0  0  0  0  0  0  0  0
   16.6928    3.4095   32.3275 N   0  0  0  0  0  0  0  0  0  0  0  0
   15.9881    4.3545   33.0503 C   0  0  0  0  0  0  0  0  0  0  0  0
   14.5581    4.1299   33.1896 N   0  0  0  0  0  0  0  0  0  0  0  0
  2  1  1  6  0  0  0
  2  3  1  0  0  0  0
  2  5  1  0  0  0  0
  3  4  1  0  0  0  0
  3 17  1  0  0  0  0
  5  6  1  0  0  0  0
  7  6  1  6  0  0  0
  7  8  1  0  0  0  0
  7  9  1  0  0  0  0
 10  9  1  6  0  0  0
 10 11  1  0  0  0  0
 10 12  1  0  0  0  0
 11 16  1  0  0  0  0
 12 13  1  1  0  0  0
 12 14  1  0  0  0  0
 14 15  1  1  0  0  0
 14 16  1  0  0  0  0
 16 27  1  6  0  0  0
 18 19  2  0  0  0  0
 18 23  1  0  0  0  0
 19 20  1  0  0  0  0
 20 21  2  0  0  0  0
 21 22  1  0  0  0  0
 21 27  1  0  0  0  0
 22 23  2  0  0  0  0
 22 25  1  0  0  0  0
 23 24  1  0  0  0  0
 25 26  2  0  0  0  0
 26 27  1  0  0  0  0
M  END
>  <CHROM.1>
7.96011950,-75.33619026,-61.86922034,79.14446035,-171.11441382,171.08226557
-51.69150498,13.80471395,4.90951361,30.93743993,-2.81537029,-1.11779360,1.28895514

>  <Name>
ligand

>  <RI>
0

>  <Rbt.Current_Directory>
/home/itssahil/PROJECTS/Mol_Feturizer/Test_systems_manuscript/rnas/4aob

>  <Rbt.Executable>
rbdock ($Id: //depot/dev/client3/rdock/2013.1/src/exe/rbdock.cxx#4 $)

>  <Rbt.Library>
libRbt.so (2013.1, Build901 2013/11/27)

>  <Rbt.Parameter_File>
/export/apps/rDock/src/rDock_2013.1_src/data/scripts/dock_solv.prm

>  <Rbt.Receptor>
prm/pocket_docking_5.prm

>  <SCORE>
-14.5289

>  <SCORE.INTER>
-16.1058

>  <SCORE.INTER.CONST>
1

>  <SCORE.INTER.POLAR>
0

>  <SCORE.INTER.ROT>
7

>  <SCORE.INTER.SOLV>
16.0136

>  <SCORE.INTER.VDW>
-24.3417

>  <SCORE.INTER.norm>
-0.59651

>  <SCORE.INTRA>
1.57685

>  <SCORE.INTRA.DIHEDRAL>
0.716378

>  <SCORE.INTRA.DIHEDRAL.0>
6.31833

>  <SCORE.INTRA.POLAR>
0

>  <SCORE.INTRA.POLAR.0>
0

>  <SCORE.INTRA.REPUL>
0

>  <SCORE.INTRA.REPUL.0>
0

>  <SCORE.INTRA.SOLV>
1.32138

>  <SCORE.INTRA.SOLV.lig_0>
-48.4015

>  <SCORE.INTRA.VDW>
0.557972

>  <SCORE.INTRA.VDW.0>
-2.83256

>  <SCORE.INTRA.norm>
0.0584019

>  <SCORE.RESTR>
0

>  <SCORE.RESTR.CAVITY>
0

>  <SCORE.RESTR.norm>
0

>  <SCORE.SYSTEM>
0

>  <SCORE.SYSTEM.CONST>
0

>  <SCORE.SYSTEM.DIHEDRAL>
0

>  <SCORE.SYSTEM.SOLV>
0

>  <SCORE.SYSTEM.norm>
0

>  <SCORE.heavy>
27

>  <SCORE.norm>
-0.538108

>  <RMSD>
1.397

$$$$
ligand
 OpenBabel02271912153D
libRbt.so/2013.1/901 2013/11/27
 27 29  0  0  0  0  0  0  0  0999 V2000
   14.9492    4.4826   26.5740 N   0  0  0  0  0  0  0  0  0  0  0  0
   14.2914    5.2060   27.6886 C   0  0  2  0  0  0  0  0  0  0  0  0
   13.1076    4.3678   28.1538 C   0  0  0  0  0  0  0  0  0  0  0  0
   13.1612    3.3200   28.8796 O   0  0  0  0  0  0  0  0  0  0  0  0
   13.8922    6.6009   27.2023 C   0  0  0  0  0  0  0  0  0  0  0  0
   13.6808    7.5850   28.3450 C   0  0  0  0  0  0  0  0  0  0  0  0
   12.6020    7.2385   29.7848 S   0  0  2  0  0  0  0  0  0  0  0  0
   11.5325    8.6718   29.6745 C   0  0  0  0  0  0  0  0  0  0  0  0
   13.7794    7.6803   31.1019 C   0  0  0  0  0  0  0  0  0  0  0  0
   13.2362    7.3460   32.4639 C   0  0  1  0  0  0  0  0  0  0  0  0
   12.5350    6.0792   32.4863 O   0  0  0  0  0  0  0  0  0  0  0  0
   14.2826    7.2893   33.5533 C   0  0  1  0  0  0  0  0  0  0  0  0
   14.2699    8.4783   34.2153 O   0  0  0  0  0  0  0  0  0  0  0  0
   13.6617    6.2604   34.4689 C   0  0  1  0  0  0  0  0  0  0  0  0
   12.7656    6.9414   35.2296 O   0  0  0  0  0  0  0  0  0  0  0  0
   12.9019    5.2634   33.5662 C   0  0  2  0  0  0  0  0  0  0  0  0
   12.0023    4.7158   27.7349 O   0  0  0  0  0  0  0  0  0  0  0  0
   14.2174    0.7675   31.2790 N   0  0  0  0  0  0  0  0  0  0  0  0
   12.9599    1.3795   31.6028 C   0  0  0  0  0  0  0  0  0  0  0  0
   12.7353    2.6313   32.2277 N   0  0  0  0  0  0  0  0  0  0  0  0
   13.8342    3.2214   32.4883 C   0  0  0  0  0  0  0  0  0  0  0  0
   15.1786    2.6789   32.1905 C   0  0  0  0  0  0  0  0  0  0  0  0
   15.3471    1.4831   31.6112 C   0  0  0  0  0  0  0  0  0  0  0  0
   16.5963    1.1114   31.4207 N   0  0  0  0  0  0  0  0  0  0  0  0
   16.1586    3.4666   32.5640 N   0  0  0  0  0  0  0  0  0  0  0  0
   15.4237    4.5115   33.0933 C   0  0  0  0  0  0  0  0  0  0  0  0
   13.9766    4.3750   33.0466 N   0  0  0  0  0  0  0  0  0  0  0  0
  2  1  1  6  0  0  0
  2  3  1  0  0  0  0
  2  5  1  0  0  0  0
  3  4  1  0  0  0  0
  3 17  1  0  0  0  0
  5  6  1  0  0  0  0
  7  6  1  6  0  0  0
  7  8  1  0  0  0  0
  7  9  1  0  0  0  0
 10  9  1  6  0  0  0
 10 11  1  0  0  0  0
 10 12  1  0  0  0  0
 11 16  1  0  0  0  0
 12 13  1  1  0  0  0
 12 14  1  0  0  0  0
 14 15  1  1  0  0  0
 14 16  1  0  0  0  0
 16 27  1  6  0  0  0
 18 19  2  0  0  0  0
 18 23  1  0  0  0  0
 19 20  1  0  0  0  0
 20 21  2  0  0  0  0
 21 22  1  0  0  0  0
 21 27  1  0  0  0  0
 22 23  2  0  0  0  0
 22 25  1  0  0  0  0
 23 24  1  0  0  0  0
 25 26  2  0  0  0  0
 26 27  1  0  0  0  0
M  END
>  <CHROM.1>
76.95422611,-159.26398172,-51.37528087,-124.70539364,-173.26768152,40.30839031
-89.71357958,13.72003370,5.11749967,31.12759283,-2.87541240,-1.26679576,1.26508269

>  <Name>
ligand

>  <RI>
0

>  <Rbt.Current_Directory>
/home/itssahil/PROJECTS/Mol_Feturizer/Test_systems_manuscript/rnas/4aob

>  <Rbt.Executable>
rbdock ($Id: //depot/dev/client3/rdock/2013.1/src/exe/rbdock.cxx#4 $)

>  <Rbt.Library>
libRbt.so (2013.1, Build901 2013/11/27)

>  <Rbt.Parameter_File>
/export/apps/rDock/src/rDock_2013.1_src/data/scripts/dock_solv.prm

>  <Rbt.Receptor>
prm/pocket_docking_2.prm

>  <SCORE>
-10.4412

>  <SCORE.INTER>
-12.6458

>  <SCORE.INTER.CONST>
1

>  <SCORE.INTER.POLAR>
0

>  <SCORE.INTER.ROT>
7

>  <SCORE.INTER.SOLV>
18.744

>  <SCORE.INTER.VDW>
-22.9452

>  <SCORE.INTER.norm>
-0.468364

>  <SCORE.INTRA>
2.16122

>  <SCORE.INTRA.DIHEDRAL>
5.08225

>  <SCORE.INTRA.DIHEDRAL.0>
6.31833

>  <SCORE.INTRA.POLAR>
0

>  <SCORE.INTRA.POLAR.0>
0

>  <SCORE.INTRA.REPUL>
0

>  <SCORE.INTRA.REPUL.0>
0

>  <SCORE.INTRA.SOLV>
-0.599089

>  <SCORE.INTRA.SOLV.lig_0>
-48.4015

>  <SCORE.INTRA.VDW>
-0.0803591

>  <SCORE.INTRA.VDW.0>
-2.83256

>  <SCORE.INTRA.norm>
0.0800453

>  <SCORE.RESTR>
0.0434247

>  <SCORE.RESTR.CAVITY>
0.0434247

>  <SCORE.RESTR.norm>
0.00160832

>  <SCORE.SYSTEM>
0

>  <SCORE.SYSTEM.CONST>
0

>  <SCORE.SYSTEM.DIHEDRAL>
0

>  <SCORE.SYSTEM.SOLV>
0

>  <SCORE.SYSTEM.norm>
0

>  <SCORE.heavy>
27

>  <SCORE.norm>
-0.386711

>  <RMSD>
1.405

$$$$
ligand
 OpenBabel02271912153D
libRbt.so/2013.1/901 2013/11/27
 27 29  0  0  0  0  0  0  0  0999 V2000
   13.5650    6.6364   26.5657 N   0  0  0  0  0  0  0  0  0  0  0  0
   13.2080    5.8412   27.7651 C   0  0  2  0  0  0  0  0  0  0  0  0
   13.5721    4.3886   27.4865 C   0  0  0  0  0  0  0  0  0  0  0  0
   14.2430    3.9541   26.4923 O   0  0  0  0  0  0  0  0  0  0  0  0
   11.7219    6.0463   28.0669 C   0  0  0  0  0  0  0  0  0  0  0  0
   11.4200    7.4300   28.6267 C   0  0  0  0  0  0  0  0  0  0  0  0
   12.1213    8.0539   30.2001 S   0  0  2  0  0  0  0  0  0  0  0  0
   13.7742    8.4406   29.6267 C   0  0  0  0  0  0  0  0  0  0  0  0
   12.3224    6.4536   31.0457 C   0  0  0  0  0  0  0  0  0  0  0  0
   12.6311    6.6352   32.5064 C   0  0  1  0  0  0  0  0  0  0  0  0
   12.5452    5.3958   33.2502 O   0  0  0  0  0  0  0  0  0  0  0  0
   13.9962    7.2219   32.7845 C   0  0  1  0  0  0  0  0  0  0  0  0
   13.8476    8.5575   32.9998 O   0  0  0  0  0  0  0  0  0  0  0  0
   14.2957    6.5837   34.1207 C   0  0  1  0  0  0  0  0  0  0  0  0
   13.6672    7.3568   35.0442 O   0  0  0  0  0  0  0  0  0  0  0  0
   13.6388    5.1857   34.1024 C   0  0  2  0  0  0  0  0  0  0  0  0
   13.1209    3.5581   28.2772 O   0  0  0  0  0  0  0  0  0  0  0  0
   14.4972    0.9404   31.2015 N   0  0  0  0  0  0  0  0  0  0  0  0
   13.3205    1.5084   31.7959 C   0  0  0  0  0  0  0  0  0  0  0  0
   13.2190    2.6927   32.5673 N   0  0  0  0  0  0  0  0  0  0  0  0
   14.3516    3.2639   32.6884 C   0  0  0  0  0  0  0  0  0  0  0  0
   15.6190    2.7632   32.1109 C   0  0  0  0  0  0  0  0  0  0  0  0
   15.6737    1.6298   31.3993 C   0  0  0  0  0  0  0  0  0  0  0  0
   16.8675    1.2881   30.9600 N   0  0  0  0  0  0  0  0  0  0  0  0
   16.6559    3.5193   32.3822 N   0  0  0  0  0  0  0  0  0  0  0  0
   16.0333    4.5027   33.1288 C   0  0  0  0  0  0  0  0  0  0  0  0
   14.5990    4.3597   33.3213 N   0  0  0  0  0  0  0  0  0  0  0  0
  2  1  1  6  0  0  0
  2  3  1  0  0  0  0
  2  5  1  0  0  0  0
  3  4  1  0  0  0  0
  3 17  1  0  0  0  0
  5  6  1  0  0  0  0
  7  6  1  6  0  0  0
  7  8  1  0  0  0  0
  7  9  1  0  0  0  0
 10  9  1  6  0  0  0
 10 11  1  0  0  0  0
 10 12  1  0  0  0  0
 11 16  1  0  0  0  0
 12 13  1  1  0  0  0
 12 14  1  0  0  0  0
 14 15  1  1  0  0  0
 14 16  1  0  0  0  0
 16 27  1  6  0  0  0
 18 19  2  0  0  0  0
 18 23  1  0  0  0  0
 19 20  1  0  0  0  0
 20 21  2  0  0  0  0
 21 22  1  0  0  0  0
 21 27  1  0  0  0  0
 22 23  2  0  0  0  0
 22 25  1  0  0  0  0
 23 24  1  0  0  0  0
 25 26  2  0  0  0  0
 26 27  1  0  0  0  0
M  END
>  <CHROM.1>
9.58152109,-72.22733916,-61.37967782,76.86018254,-168.35327322,169.01504104
-50.99997313,13.75671288,5.18632126,31.06150575,-2.81515572,-1.14219311,1.15386415

>  <Name>
ligand

>  <RI>
0

>  <Rbt.Current_Directory>
/home/itssahil/PROJECTS/Mol_Feturizer/Test_systems_manuscript/rnas/4aob

>  <Rbt.Executable>
rbdock ($Id: //depot/dev/client3/rdock/2013.1/src/exe/rbdock.cxx#4 $)

>  <Rbt.Library>
libRbt.so (2013.1, Build901 2013/11/27)

>  <Rbt.Parameter_File>
/export/apps/rDock/src/rDock_2013.1_src/data/scripts/dock_solv.prm

>  <Rbt.Receptor>
prm/pocket_docking_4.prm

>  <SCORE>
-14.4086

>  <SCORE.INTER>
-16.0816

>  <SCORE.INTER.CONST>
1

>  <SCORE.INTER.POLAR>
0

>  <SCORE.INTER.ROT>
7

>  <SCORE.INTER.SOLV>
14.7176

>  <SCORE.INTER.VDW>
-23.8936

>  <SCORE.INTER.norm>
-0.595615

>  <SCORE.INTRA>
1.67303

>  <SCORE.INTRA.DIHEDRAL>
0.546866

>  <SCORE.INTRA.DIHEDRAL.0>
6.31833

>  <SCORE.INTRA.POLAR>
0

>  <SCORE.INTRA.POLAR.0>
0

>  <SCORE.INTRA.REPUL>
0

>  <SCORE.INTRA.REPUL.0>
0

>  <SCORE.INTRA.SOLV>
1.44997

>  <SCORE.INTRA.SOLV.lig_0>
-48.4015

>  <SCORE.INTRA.VDW>
0.674609

>  <SCORE.INTRA.VDW.0>
-2.83256

>  <SCORE.INTRA.norm>
0.0619639

>  <SCORE.RESTR>
0

>  <SCORE.RESTR.CAVITY>
0

>  <SCORE.RESTR.norm>
0

>  <SCORE.SYSTEM>
0

>  <SCORE.SYSTEM.CONST>
0

>  <SCORE.SYSTEM.DIHEDRAL>
0

>  <SCORE.SYSTEM.SOLV>
0

>  <SCORE.SYSTEM.norm>
0

>  <SCORE.heavy>
27

>  <SCORE.norm>
-0.533651

>  <RMSD>
1.406

$$$$
ligand
 OpenBabel02271912153D
libRbt.so/2013.1/901 2013/11/27
 27 29  0  0  0  0  0  0  0  0999 V2000
   13.2036    7.2217   25.9659 N   0  0  0  0  0  0  0  0  0  0  0  0
   13.3763    6.3752   27.1709 C   0  0  2  0  0  0  0  0  0  0  0  0
   14.0407    5.0753   26.7358 C   0  0  0  0  0  0  0  0  0  0  0  0
   13.7439    3.9020   27.1391 O   0  0  0  0  0  0  0  0  0  0  0  0
   12.0092    6.1673   27.8262 C   0  0  0  0  0  0  0  0  0  0  0  0
   11.4699    7.4334   28.4784 C   0  0  0  0  0  0  0  0  0  0  0  0
   12.0919    8.0872   30.0728 S   0  0  2  0  0  0  0  0  0  0  0  0
   13.7375    8.5638   29.5480 C   0  0  0  0  0  0  0  0  0  0  0  0
   12.3539    6.4965   30.9196 C   0  0  0  0  0  0  0  0  0  0  0  0
   12.6084    6.6881   32.3895 C   0  0  1  0  0  0  0  0  0  0  0  0
   12.4873    5.4552   33.1392 O   0  0  0  0  0  0  0  0  0  0  0  0
   13.9654    7.2694   32.7144 C   0  0  1  0  0  0  0  0  0  0  0  0
   13.8165    8.6076   32.9134 O   0  0  0  0  0  0  0  0  0  0  0  0
   14.2106    6.6403   34.0659 C   0  0  1  0  0  0  0  0  0  0  0  0
   13.5522    7.4243   34.9589 O   0  0  0  0  0  0  0  0  0  0  0  0
   13.5467    5.2459   34.0337 C   0  0  2  0  0  0  0  0  0  0  0  0
   14.9919    5.1887   25.9606 O   0  0  0  0  0  0  0  0  0  0  0  0
   14.5184    0.9035   31.3181 N   0  0  0  0  0  0  0  0  0  0  0  0
   13.3248    1.4713   31.8782 C   0  0  0  0  0  0  0  0  0  0  0  0
   13.1920    2.6840   32.5991 N   0  0  0  0  0  0  0  0  0  0  0  0
   14.3117    3.2827   32.7066 C   0  0  0  0  0  0  0  0  0  0  0  0
   15.5945    2.7848   32.1615 C   0  0  0  0  0  0  0  0  0  0  0  0
   15.6788    1.6245   31.4978 C   0  0  0  0  0  0  0  0  0  0  0  0
   16.8835    1.2895   31.0836 N   0  0  0  0  0  0  0  0  0  0  0  0
   16.6132    3.5724   32.4106 N   0  0  0  0  0  0  0  0  0  0  0  0
   15.9638    4.5727   33.1104 C   0  0  0  0  0  0  0  0  0  0  0  0
   14.5309    4.4084   33.2959 N   0  0  0  0  0  0  0  0  0  0  0  0
  2  1  1  6  0  0  0
  2  3  1  0  0  0  0
  2  5  1  0  0  0  0
  3  4  1  0  0  0  0
  3 17  1  0  0  0  0
  5  6  1  0  0  0  0
  7  6  1  6  0  0  0
  7  8  1  0  0  0  0
  7  9  1  0  0  0  0
 10  9  1  6  0  0  0
 10 11  1  0  0  0  0
 10 12  1  0  0  0  0
 11 16  1  0  0  0  0
 12 13  1  1  0  0  0
 12 14  1  0  0  0  0
 14 15  1  1  0  0  0
 14 16  1  0  0  0  0
 16 27  1  6  0  0  0
 18 19  2  0  0  0  0
 18 23  1  0  0  0  0
 19 20  1  0  0  0  0
 20 21  2  0  0  0  0
 21 22  1  0  0  0  0
 21 27  1  0  0  0  0
 22 23  2  0  0  0  0
 22 25  1  0  0  0  0
 23 24  1  0  0  0  0
 25 26  2  0  0  0  0
 26 27  1  0  0  0  0
M  END
>  <CHROM.1>
-138.43654016,-70.44575003,-75.61340952,67.73928578,-168.25239043,165.49742963
-53.91411089,13.80593296,5.34310517,30.89166778,-2.32923687,-1.16045885,1.42002827

>  <Name>
ligand

>  <RI>
0

>  <Rbt.Current_Directory>
/home/itssahil/PROJECTS/Mol_Feturizer/Test_systems_manuscript/rnas/4aob

>  <Rbt.Executable>
rbdock ($Id: //depot/dev/client3/rdock/2013.1/src/exe/rbdock.cxx#4 $)

>  <Rbt.Library>
libRbt.so (2013.1, Build901 2013/11/27)

>  <Rbt.Parameter_File>
/export/apps/rDock/src/rDock_2013.1_src/data/scripts/dock_solv.prm

>  <Rbt.Receptor>
prm/pocket_docking_4.prm

>  <SCORE>
-13.7083

>  <SCORE.INTER>
-15.2508

>  <SCORE.INTER.CONST>
1

>  <SCORE.INTER.POLAR>
0

>  <SCORE.INTER.ROT>
7

>  <SCORE.INTER.SOLV>
14.5186

>  <SCORE.INTER.VDW>
-23.2734

>  <SCORE.INTER.norm>
-0.564845

>  <SCORE.INTRA>
1.54251

>  <SCORE.INTRA.DIHEDRAL>
0.522945

>  <SCORE.INTRA.DIHEDRAL.0>
6.31833

>  <SCORE.INTRA.POLAR>
0

>  <SCORE.INTRA.POLAR.0>
0

>  <SCORE.INTRA.REPUL>
0

>  <SCORE.INTRA.REPUL.0>
0

>  <SCORE.INTRA.SOLV>
1.07612

>  <SCORE.INTRA.SOLV.lig_0>
-48.4015

>  <SCORE.INTRA.VDW>
0.742973

>  <SCORE.INTRA.VDW.0>
-2.83256

>  <SCORE.INTRA.norm>
0.0571299

>  <SCORE.RESTR>
0

>  <SCORE.RESTR.CAVITY>
0

>  <SCORE.RESTR.norm>
0

>  <SCORE.SYSTEM>
0

>  <SCORE.SYSTEM.CONST>
0

>  <SCORE.SYSTEM.DIHEDRAL>
0

>  <SCORE.SYSTEM.SOLV>
0

>  <SCORE.SYSTEM.norm>
0

>  <SCORE.heavy>
27

>  <SCORE.norm>
-0.507715

>  <RMSD>
1.413

$$$$
ligand
 OpenBabel02271912153D
libRbt.so/2013.1/901 2013/11/27
 27 29  0  0  0  0  0  0  0  0999 V2000
   15.8678    4.7791   27.2044 N   0  0  0  0  0  0  0  0  0  0  0  0
   14.6385    5.5882   27.3847 C   0  0  2  0  0  0  0  0  0  0  0  0
   13.9298    5.6653   26.0386 C   0  0  0  0  0  0  0  0  0  0  0  0
   14.4843    5.6525   24.8897 O   0  0  0  0  0  0  0  0  0  0  0  0
   15.0288    6.9583   27.9434 C   0  0  0  0  0  0  0  0  0  0  0  0
   13.8245    7.7791   28.3852 C   0  0  0  0  0  0  0  0  0  0  0  0
   12.7060    7.2729   29.7450 S   0  0  2  0  0  0  0  0  0  0  0  0
   11.5514    8.6412   29.6711 C   0  0  0  0  0  0  0  0  0  0  0  0
   13.7906    7.7001   31.1441 C   0  0  0  0  0  0  0  0  0  0  0  0
   13.1695    7.3218   32.4606 C   0  0  1  0  0  0  0  0  0  0  0  0
   12.4909    6.0437   32.4073 O   0  0  0  0  0  0  0  0  0  0  0  0
   14.1470    7.2536   33.6117 C   0  0  1  0  0  0  0  0  0  0  0  0
   14.0720    8.4247   34.3011 O   0  0  0  0  0  0  0  0  0  0  0  0
   13.4885    6.1914   34.4606 C   0  0  1  0  0  0  0  0  0  0  0  0
   12.5348    6.8378   35.1804 O   0  0  0  0  0  0  0  0  0  0  0  0
   12.8041    5.2061   33.4874 C   0  0  2  0  0  0  0  0  0  0  0  0
   12.7067    5.8092   26.0803 O   0  0  0  0  0  0  0  0  0  0  0  0
   14.3419    0.7556   31.2508 N   0  0  0  0  0  0  0  0  0  0  0  0
   13.0551    1.3322   31.5195 C   0  0  0  0  0  0  0  0  0  0  0  0
   12.7690    2.5752   32.1366 N   0  0  0  0  0  0  0  0  0  0  0  0
   13.8387    3.1939   32.4475 C   0  0  0  0  0  0  0  0  0  0  0  0
   15.2093    2.6890   32.2086 C   0  0  0  0  0  0  0  0  0  0  0  0
   15.4358    1.5003   31.6347 C   0  0  0  0  0  0  0  0  0  0  0  0
   16.7019    1.1632   31.4993 N   0  0  0  0  0  0  0  0  0  0  0  0
   16.1499    3.5016   32.6274 N   0  0  0  0  0  0  0  0  0  0  0  0
   15.3640    4.5243   33.1259 C   0  0  0  0  0  0  0  0  0  0  0  0
   13.9247    4.3489   33.0143 N   0  0  0  0  0  0  0  0  0  0  0  0
  2  1  1  6  0  0  0
  2  3  1  0  0  0  0
  2  5  1  0  0  0  0
  3  4  1  0  0  0  0
  3 17  1  0  0  0  0
  5  6  1  0  0  0  0
  7  6  1  6  0  0  0
  7  8  1  0  0  0  0
  7  9  1  0  0  0  0
 10  9  1  6  0  0  0
 10 11  1  0  0  0  0
 10 12  1  0  0  0  0
 11 16  1  0  0  0  0
 12 13  1  1  0  0  0
 12 14  1  0  0  0  0
 14 15  1  1  0  0  0
 14 16  1  0  0  0  0
 16 27  1  6  0  0  0
 18 19  2  0  0  0  0
 18 23  1  0  0  0  0
 19 20  1  0  0  0  0
 20 21  2  0  0  0  0
 21 22  1  0  0  0  0
 21 27  1  0  0  0  0
 22 23  2  0  0  0  0
 22 25  1  0  0  0  0
 23 24  1  0  0  0  0
 25 26  2  0  0  0  0
 26 27  1  0  0  0  0
M  END
>  <CHROM.1>
-31.04178598,-170.28799267,63.44503835,-178.67979013,-176.82580627,40.27537452
-91.46567492,13.90565570,5.32795273,30.86515867,-1.59980440,-1.22957687,1.79190782

>  <Name>
ligand

>  <RI>
0

>  <Rbt.Current_Directory>
/home/itssahil/PROJECTS/Mol_Feturizer/Test_systems_manuscript/rnas/4aob

>  <Rbt.Executable>
rbdock ($Id: //depot/dev/client3/rdock/2013.1/src/exe/rbdock.cxx#4 $)

>  <Rbt.Library>
libRbt.so (2013.1, Build901 2013/11/27)

>  <Rbt.Parameter_File>
/export/apps/rDock/src/rDock_2013.1_src/data/scripts/dock_solv.prm

>  <Rbt.Receptor>
prm/pocket_docking_6.prm

>  <SCORE>
-12.6907

>  <SCORE.INTER>
-12.1136

>  <SCORE.INTER.CONST>
1

>  <SCORE.INTER.POLAR>
0

>  <SCORE.INTER.ROT>
7

>  <SCORE.INTER.SOLV>
18.4383

>  <SCORE.INTER.VDW>
-22.4885

>  <SCORE.INTER.norm>
-0.448652

>  <SCORE.INTRA>
-0.577135

>  <SCORE.INTRA.DIHEDRAL>
-0.833595

>  <SCORE.INTRA.DIHEDRAL.0>
6.31833

>  <SCORE.INTRA.POLAR>
0

>  <SCORE.INTRA.POLAR.0>
0

>  <SCORE.INTRA.REPUL>
0

>  <SCORE.INTRA.REPUL.0>
0

>  <SCORE.INTRA.SOLV>
-0.702835

>  <SCORE.INTRA.SOLV.lig_0>
-48.4015

>  <SCORE.INTRA.VDW>
0.191079

>  <SCORE.INTRA.VDW.0>
-2.83256

>  <SCORE.INTRA.norm>
-0.0213754

>  <SCORE.RESTR>
0

>  <SCORE.RESTR.CAVITY>
0

>  <SCORE.RESTR.norm>
0

>  <SCORE.SYSTEM>
0

>  <SCORE.SYSTEM.CONST>
0

>  <SCORE.SYSTEM.DIHEDRAL>
0

>  <SCORE.SYSTEM.SOLV>
0

>  <SCORE.SYSTEM.norm>
0

>  <SCORE.heavy>
27

>  <SCORE.norm>
-0.470027

>  <RMSD>
1.436

$$$$
ligand
 OpenBabel02271912153D
libRbt.so/2013.1/901 2013/11/27
 27 29  0  0  0  0  0  0  0  0999 V2000
   13.4556    6.7303   26.5686 N   0  0  0  0  0  0  0  0  0  0  0  0
   13.1348    5.9508   27.7883 C   0  0  2  0  0  0  0  0  0  0  0  0
   13.5017    4.4966   27.5219 C   0  0  0  0  0  0  0  0  0  0  0  0
   14.1737    4.0551   26.5313 O   0  0  0  0  0  0  0  0  0  0  0  0
   11.6555    6.1506   28.1250 C   0  0  0  0  0  0  0  0  0  0  0  0
   11.3578    7.5414   28.6692 C   0  0  0  0  0  0  0  0  0  0  0  0
   12.0683    8.1841   30.2309 S   0  0  2  0  0  0  0  0  0  0  0  0
   13.7131    8.5783   29.6395 C   0  0  0  0  0  0  0  0  0  0  0  0
   12.2890    6.5928   31.0883 C   0  0  0  0  0  0  0  0  0  0  0  0
   12.6949    6.7896   32.5230 C   0  0  1  0  0  0  0  0  0  0  0  0
   12.5676    5.5789   33.3071 O   0  0  0  0  0  0  0  0  0  0  0  0
   14.1112    7.2854   32.7055 C   0  0  1  0  0  0  0  0  0  0  0  0
   14.0680    8.6333   32.8891 O   0  0  0  0  0  0  0  0  0  0  0  0
   14.4440    6.6622   34.0409 C   0  0  1  0  0  0  0  0  0  0  0  0
   13.9258    7.5012   34.9752 O   0  0  0  0  0  0  0  0  0  0  0  0
   13.6923    5.3141   34.1015 C   0  0  2  0  0  0  0  0  0  0  0  0
   13.0521    3.6719   28.3194 O   0  0  0  0  0  0  0  0  0  0  0  0
   14.0819    0.9494   31.2780 N   0  0  0  0  0  0  0  0  0  0  0  0
   12.9842    1.6148   31.9205 C   0  0  0  0  0  0  0  0  0  0  0  0
   13.0107    2.8216   32.6627 N   0  0  0  0  0  0  0  0  0  0  0  0
   14.1858    3.3125   32.7048 C   0  0  0  0  0  0  0  0  0  0  0  0
   15.3796    2.7081   32.0723 C   0  0  0  0  0  0  0  0  0  0  0  0
   15.3135    1.5569   31.3909 C   0  0  0  0  0  0  0  0  0  0  0  0
   16.4531    1.1197   30.8960 N   0  0  0  0  0  0  0  0  0  0  0  0
   16.4810    3.3939   32.2645 N   0  0  0  0  0  0  0  0  0  0  0  0
   15.9731    4.4373   33.0165 C   0  0  0  0  0  0  0  0  0  0  0  0
   14.5457    4.4026   33.2920 N   0  0  0  0  0  0  0  0  0  0  0  0
  2  1  1  6  0  0  0
  2  3  1  0  0  0  0
  2  5  1  0  0  0  0
  3  4  1  0  0  0  0
  3 17  1  0  0  0  0
  5  6  1  0  0  0  0
  7  6  1  6  0  0  0
  7  8  1  0  0  0  0
  7  9  1  0  0  0  0
 10  9  1  6  0  0  0
 10 11  1  0  0  0  0
 10 12  1  0  0  0  0
 11 16  1  0  0  0  0
 12 13  1  1  0  0  0
 12 14  1  0  0  0  0
 14 15  1  1  0  0  0
 14 16  1  0  0  0  0
 16 27  1  6  0  0  0
 18 19  2  0  0  0  0
 18 23  1  0  0  0  0
 19 20  1  0  0  0  0
 20 21  2  0  0  0  0
 21 22  1  0  0  0  0
 21 27  1  0  0  0  0
 22 23  2  0  0  0  0
 22 25  1  0  0  0  0
 23 24  1  0  0  0  0
 25 26  2  0  0  0  0
 26 27  1  0  0  0  0
M  END
>  <CHROM.1>
11.12239987,-72.10594906,-62.65945013,77.42602516,-171.97138130,166.16490759
-50.84539045,13.68205708,5.25968407,31.06319086,-2.98479826,-1.18859611,1.04864861

>  <Name>
ligand

>  <RI>
0

>  <Rbt.Current_Directory>
/home/itssahil/PROJECTS/Mol_Feturizer/Test_systems_manuscript/rnas/4aob

>  <Rbt.Executable>
rbdock ($Id: //depot/dev/client3/rdock/2013.1/src/exe/rbdock.cxx#4 $)

>  <Rbt.Library>
libRbt.so (2013.1, Build901 2013/11/27)

>  <Rbt.Parameter_File>
/export/apps/rDock/src/rDock_2013.1_src/data/scripts/dock_solv.prm

>  <Rbt.Receptor>
prm/pocket_docking_3.prm

>  <SCORE>
-14.39

>  <SCORE.INTER>
-16.0981

>  <SCORE.INTER.CONST>
1

>  <SCORE.INTER.POLAR>
0

>  <SCORE.INTER.ROT>
7

>  <SCORE.INTER.SOLV>
14.1881

>  <SCORE.INTER.VDW>
-23.7281

>  <SCORE.INTER.norm>
-0.596227

>  <SCORE.INTRA>
1.70809

>  <SCORE.INTRA.DIHEDRAL>
0.526007

>  <SCORE.INTRA.DIHEDRAL.0>
6.31833

>  <SCORE.INTRA.POLAR>
0

>  <SCORE.INTRA.POLAR.0>
0

>  <SCORE.INTRA.REPUL>
0

>  <SCORE.INTRA.REPUL.0>
0

>  <SCORE.INTRA.SOLV>
1.40887

>  <SCORE.INTRA.SOLV.lig_0>
-48.4015

>  <SCORE.INTRA.VDW>
0.740652

>  <SCORE.INTRA.VDW.0>
-2.83256

>  <SCORE.INTRA.norm>
0.0632626

>  <SCORE.RESTR>
0

>  <SCORE.RESTR.CAVITY>
0

>  <SCORE.RESTR.norm>
0

>  <SCORE.SYSTEM>
0

>  <SCORE.SYSTEM.CONST>
0

>  <SCORE.SYSTEM.DIHEDRAL>
0

>  <SCORE.SYSTEM.SOLV>
0

>  <SCORE.SYSTEM.norm>
0

>  <SCORE.heavy>
27

>  <SCORE.norm>
-0.532964

>  <RMSD>
1.441

$$$$
ligand
 OpenBabel02271912153D
libRbt.so/2013.1/901 2013/11/27
 27 29  0  0  0  0  0  0  0  0999 V2000
   15.0843    4.1704   26.4165 N   0  0  0  0  0  0  0  0  0  0  0  0
   14.5290    5.0890   27.4393 C   0  0  2  0  0  0  0  0  0  0  0  0
   13.8208    4.2433   28.4897 C   0  0  0  0  0  0  0  0  0  0  0  0
   13.9903    4.3071   29.7526 O   0  0  0  0  0  0  0  0  0  0  0  0
   13.6059    6.0948   26.7480 C   0  0  0  0  0  0  0  0  0  0  0  0
   13.1688    7.2244   27.6712 C   0  0  0  0  0  0  0  0  0  0  0  0
   12.1337    6.9635   29.1601 S   0  0  2  0  0  0  0  0  0  0  0  0
   11.2152    8.5016   29.1257 C   0  0  0  0  0  0  0  0  0  0  0  0
   13.4155    7.2558   30.4202 C   0  0  0  0  0  0  0  0  0  0  0  0
   12.8764    7.0663   31.8114 C   0  0  1  0  0  0  0  0  0  0  0  0
   12.3272    5.7425   32.0185 O   0  0  0  0  0  0  0  0  0  0  0  0
   13.8909    7.2984   32.9077 C   0  0  1  0  0  0  0  0  0  0  0  0
   13.7209    8.5630   33.3815 O   0  0  0  0  0  0  0  0  0  0  0  0
   13.3682    6.3512   33.9623 C   0  0  1  0  0  0  0  0  0  0  0  0
   12.3776    7.0263   34.6014 O   0  0  0  0  0  0  0  0  0  0  0  0
   12.7557    5.1470   33.2134 C   0  0  2  0  0  0  0  0  0  0  0  0
   13.0535    3.3801   28.0599 O   0  0  0  0  0  0  0  0  0  0  0  0
   14.6289    0.6733   31.3023 N   0  0  0  0  0  0  0  0  0  0  0  0
   13.3027    1.1957   31.4723 C   0  0  0  0  0  0  0  0  0  0  0  0
   12.9230    2.4522   32.0060 N   0  0  0  0  0  0  0  0  0  0  0  0
   13.9426    3.1404   32.3384 C   0  0  0  0  0  0  0  0  0  0  0  0
   15.3472    2.6953   32.1988 C   0  0  0  0  0  0  0  0  0  0  0  0
   15.6625    1.4921   31.7021 C   0  0  0  0  0  0  0  0  0  0  0  0
   16.9491    1.2143   31.6512 N   0  0  0  0  0  0  0  0  0  0  0  0
   16.2227    3.5757   32.6218 N   0  0  0  0  0  0  0  0  0  0  0  0
   15.3617    4.5806   33.0229 C   0  0  0  0  0  0  0  0  0  0  0  0
   13.9410    4.3257   32.8461 N   0  0  0  0  0  0  0  0  0  0  0  0
  2  1  1  6  0  0  0
  2  3  1  0  0  0  0
  2  5  1  0  0  0  0
  3  4  1  0  0  0  0
  3 17  1  0  0  0  0
  5  6  1  0  0  0  0
  7  6  1  6  0  0  0
  7  8  1  0  0  0  0
  7  9  1  0  0  0  0
 10  9  1  6  0  0  0
 10 11  1  0  0  0  0
 10 12  1  0  0  0  0
 11 16  1  0  0  0  0
 12 13  1  1  0  0  0
 12 14  1  0  0  0  0
 14 15  1  6  0  0  0
 14 16  1  0  0  0  0
 16 27  1  6  0  0  0
 18 19  2  0  0  0  0
 18 23  1  0  0  0  0
 19 20  1  0  0  0  0
 20 21  2  0  0  0  0
 21 22  1  0  0  0  0
 21 27  1  0  0  0  0
 22 23  2  0  0  0  0
 22 25  1  0  0  0  0
 23 24  1  0  0  0  0
 25 26  2  0  0  0  0
 26 27  1  0  0  0  0
M  END
>  <CHROM.1>
129.02736456,-170.34798405,-64.45614339,-146.50006707,-178.10595970,57.96578432
-82.00284250,13.71476985,4.98280425,30.87283842,-2.82683395,-1.15450179,1.47490449

>  <Name>
ligand

>  <RI>
0

>  <Rbt.Current_Directory>
/home/itssahil/PROJECTS/Mol_Feturizer/Test_systems_manuscript/rnas/4aob

>  <Rbt.Executable>
rbdock ($Id: //depot/dev/client3/rdock/2013.1/src/exe/rbdock.cxx#4 $)

>  <Rbt.Library>
libRbt.so (2013.1, Build901 2013/11/27)

>  <Rbt.Parameter_File>
/export/apps/rDock/src/rDock_2013.1_src/data/scripts/dock_solv.prm

>  <Rbt.Receptor>
prm/pocket_docking_3.prm

>  <SCORE>
-13.5042

>  <SCORE.INTER>
-11.9716

>  <SCORE.INTER.CONST>
1

>  <SCORE.INTER.POLAR>
0

>  <SCORE.INTER.ROT>
7

>  <SCORE.INTER.SOLV>
20.8282

>  <SCORE.INTER.VDW>
-23.1904

>  <SCORE.INTER.norm>
-0.443392

>  <SCORE.INTRA>
-1.53256

>  <SCORE.INTRA.DIHEDRAL>
1.1969

>  <SCORE.INTRA.DIHEDRAL.0>
6.31833

>  <SCORE.INTRA.POLAR>
0

>  <SCORE.INTRA.POLAR.0>
0

>  <SCORE.INTRA.REPUL>
0

>  <SCORE.INTRA.REPUL.0>
0

>  <SCORE.INTRA.SOLV>
-0.566555

>  <SCORE.INTRA.SOLV.lig_0>
-48.4015

>  <SCORE.INTRA.VDW>
-1.84774

>  <SCORE.INTRA.VDW.0>
-2.83256

>  <SCORE.INTRA.norm>
-0.0567615

>  <SCORE.RESTR>
0

>  <SCORE.RESTR.CAVITY>
0

>  <SCORE.RESTR.norm>
0

>  <SCORE.SYSTEM>
0

>  <SCORE.SYSTEM.CONST>
0

>  <SCORE.SYSTEM.DIHEDRAL>
0

>  <SCORE.SYSTEM.SOLV>
0

>  <SCORE.SYSTEM.norm>
0

>  <SCORE.heavy>
27

>  <SCORE.norm>
-0.500154

>  <RMSD>
1.464

$$$$
ligand
 OpenBabel02271912153D
libRbt.so/2013.1/901 2013/11/27
 27 29  0  0  0  0  0  0  0  0999 V2000
   13.7122    6.3027   26.9242 N   0  0  0  0  0  0  0  0  0  0  0  0
   13.1068    5.7142   28.1430 C   0  0  2  0  0  0  0  0  0  0  0  0
   13.3276    4.2079   28.0922 C   0  0  0  0  0  0  0  0  0  0  0  0
   13.0994    3.3776   29.0335 O   0  0  0  0  0  0  0  0  0  0  0  0
   11.6293    6.1086   28.1981 C   0  0  0  0  0  0  0  0  0  0  0  0
   11.4193    7.5417   28.6685 C   0  0  0  0  0  0  0  0  0  0  0  0
   12.1113    8.1991   30.2323 S   0  0  2  0  0  0  0  0  0  0  0  0
   13.7749    8.5506   29.6669 C   0  0  0  0  0  0  0  0  0  0  0  0
   12.2839    6.6198   31.1223 C   0  0  0  0  0  0  0  0  0  0  0  0
   12.7121    6.8328   32.5482 C   0  0  1  0  0  0  0  0  0  0  0  0
   12.5774    5.6365   33.3530 O   0  0  0  0  0  0  0  0  0  0  0  0
   14.1380    7.3099   32.7039 C   0  0  1  0  0  0  0  0  0  0  0  0
   14.1174    8.6610   32.8667 O   0  0  0  0  0  0  0  0  0  0  0  0
   14.4795    6.7026   34.0445 C   0  0  1  0  0  0  0  0  0  0  0  0
   13.9866    7.5638   34.9722 O   0  0  0  0  0  0  0  0  0  0  0  0
   13.7087    5.3671   34.1365 C   0  0  2  0  0  0  0  0  0  0  0  0
   13.8275    3.7706   27.0542 O   0  0  0  0  0  0  0  0  0  0  0  0
   13.9754    0.9978   31.3058 N   0  0  0  0  0  0  0  0  0  0  0  0
   12.8956    1.6968   31.9430 C   0  0  0  0  0  0  0  0  0  0  0  0
   12.9563    2.9007   32.6880 N   0  0  0  0  0  0  0  0  0  0  0  0
   14.1463    3.3535   32.7384 C   0  0  0  0  0  0  0  0  0  0  0  0
   15.3239    2.7123   32.1119 C   0  0  0  0  0  0  0  0  0  0  0  0
   15.2250    1.5652   31.4276 C   0  0  0  0  0  0  0  0  0  0  0  0
   16.3531    1.0926   30.9386 N   0  0  0  0  0  0  0  0  0  0  0  0
   16.4456    3.3620   32.3123 N   0  0  0  0  0  0  0  0  0  0  0  0
   15.9668    4.4196   33.0634 C   0  0  0  0  0  0  0  0  0  0  0  0
   14.5373    4.4303   33.3302 N   0  0  0  0  0  0  0  0  0  0  0  0
  2  1  1  6  0  0  0
  2  3  1  0  0  0  0
  2  5  1  0  0  0  0
  3  4  1  0  0  0  0
  3 17  1  0  0  0  0
  5  6  1  0  0  0  0
  7  6  1  6  0  0  0
  7  8  1  0  0  0  0
  7  9  1  0  0  0  0
 10  9  1  6  0  0  0
 10 11  1  0  0  0  0
 10 12  1  0  0  0  0
 11 16  1  0  0  0  0
 12 13  1  1  0  0  0
 12 14  1  0  0  0  0
 14 15  1  1  0  0  0
 14 16  1  0  0  0  0
 16 27  1  6  0  0  0
 18 19  2  0  0  0  0
 18 23  1  0  0  0  0
 19 20  1  0  0  0  0
 20 21  2  0  0  0  0
 21 22  1  0  0  0  0
 21 27  1  0  0  0  0
 22 23  2  0  0  0  0
 22 25  1  0  0  0  0
 23 24  1  0  0  0  0
 25 26  2  0  0  0  0
 26 27  1  0  0  0  0
M  END
>  <CHROM.1>
170.70200340,-77.58911572,-53.90836893,81.34860942,-173.96019160,167.43442224
-49.04161268,13.66833104,5.22199000,31.17597215,2.88502253,-1.18603274,0.91086400

>  <Name>
ligand

>  <RI>
0

>  <Rbt.Current_Directory>
/home/itssahil/PROJECTS/Mol_Feturizer/Test_systems_manuscript/rnas/4aob

>  <Rbt.Executable>
rbdock ($Id: //depot/dev/client3/rdock/2013.1/src/exe/rbdock.cxx#4 $)

>  <Rbt.Library>
libRbt.so (2013.1, Build901 2013/11/27)

>  <Rbt.Parameter_File>
/export/apps/rDock/src/rDock_2013.1_src/data/scripts/dock_solv.prm

>  <Rbt.Receptor>
prm/pocket_docking_6.prm

>  <SCORE>
-14.2013

>  <SCORE.INTER>
-16.1466

>  <SCORE.INTER.CONST>
1

>  <SCORE.INTER.POLAR>
0

>  <SCORE.INTER.ROT>
7

>  <SCORE.INTER.SOLV>
14.1476

>  <SCORE.INTER.VDW>
-23.747

>  <SCORE.INTER.norm>
-0.598024

>  <SCORE.INTRA>
1.94533

>  <SCORE.INTRA.DIHEDRAL>
1.36386

>  <SCORE.INTRA.DIHEDRAL.0>
6.31833

>  <SCORE.INTRA.POLAR>
0

>  <SCORE.INTRA.POLAR.0>
0

>  <SCORE.INTRA.REPUL>
0

>  <SCORE.INTRA.REPUL.0>
0

>  <SCORE.INTRA.SOLV>
1.66116

>  <SCORE.INTRA.SOLV.lig_0>
-48.4015

>  <SCORE.INTRA.VDW>
0.432817

>  <SCORE.INTRA.VDW.0>
-2.83256

>  <SCORE.INTRA.norm>
0.0720491

>  <SCORE.RESTR>
0

>  <SCORE.RESTR.CAVITY>
0

>  <SCORE.RESTR.norm>
0

>  <SCORE.SYSTEM>
0

>  <SCORE.SYSTEM.CONST>
0

>  <SCORE.SYSTEM.DIHEDRAL>
0

>  <SCORE.SYSTEM.SOLV>
0

>  <SCORE.SYSTEM.norm>
0

>  <SCORE.heavy>
27

>  <SCORE.norm>
-0.525975

>  <RMSD>
1.471

$$$$
ligand
 OpenBabel02271912153D
libRbt.so/2013.1/901 2013/11/27
 27 29  0  0  0  0  0  0  0  0999 V2000
   13.7385    6.0717   25.5762 N   0  0  0  0  0  0  0  0  0  0  0  0
   14.5114    5.7963   26.8111 C   0  0  2  0  0  0  0  0  0  0  0  0
   13.6694    4.8843   27.6941 C   0  0  0  0  0  0  0  0  0  0  0  0
   12.4148    4.6778   27.5897 O   0  0  0  0  0  0  0  0  0  0  0  0
   14.8646    7.1277   27.4777 C   0  0  0  0  0  0  0  0  0  0  0  0
   13.6346    7.9134   27.9122 C   0  0  0  0  0  0  0  0  0  0  0  0
   12.5432    7.3939   29.2890 S   0  0  2  0  0  0  0  0  0  0  0  0
   11.1955    8.5428   29.0162 C   0  0  0  0  0  0  0  0  0  0  0  0
   13.4792    8.1458   30.6583 C   0  0  0  0  0  0  0  0  0  0  0  0
   12.9317    7.7301   31.9960 C   0  0  1  0  0  0  0  0  0  0  0  0
   12.2831    6.4361   31.9526 O   0  0  0  0  0  0  0  0  0  0  0  0
   13.9646    7.6681   33.0979 C   0  0  1  0  0  0  0  0  0  0  0  0
   13.8938    8.8255   33.8106 O   0  0  0  0  0  0  0  0  0  0  0  0
   13.3742    6.5756   33.9583 C   0  0  1  0  0  0  0  0  0  0  0  0
   12.4405    7.1856   34.7340 O   0  0  0  0  0  0  0  0  0  0  0  0
   12.6686    5.5893   33.0016 C   0  0  2  0  0  0  0  0  0  0  0  0
   14.2609    4.3431   28.6299 O   0  0  0  0  0  0  0  0  0  0  0  0
   14.7266    0.8629   32.2264 N   0  0  0  0  0  0  0  0  0  0  0  0
   13.4838    1.3196   32.7808 C   0  0  0  0  0  0  0  0  0  0  0  0
   13.0343    2.6552   32.9291 N   0  0  0  0  0  0  0  0  0  0  0  0
   13.8922    3.4840   32.4808 C   0  0  0  0  0  0  0  0  0  0  0  0
   15.1967    3.1150   31.8868 C   0  0  0  0  0  0  0  0  0  0  0  0
   15.5898    1.8392   31.7787 C   0  0  0  0  0  0  0  0  0  0  0  0
   16.7813    1.6514   31.2497 N   0  0  0  0  0  0  0  0  0  0  0  0
   15.9129    4.1464   31.5078 N   0  0  0  0  0  0  0  0  0  0  0  0
   15.0494    5.1671   31.8606 C   0  0  0  0  0  0  0  0  0  0  0  0
   13.7861    4.7689   32.4607 N   0  0  0  0  0  0  0  0  0  0  0  0
  2  1  1  6  0  0  0
  2  3  1  0  0  0  0
  2  5  1  0  0  0  0
  3  4  1  0  0  0  0
  3 17  1  0  0  0  0
  5  6  1  0  0  0  0
  7  6  1  6  0  0  0
  7  8  1  0  0  0  0
  7  9  1  0  0  0  0
 10  9  1  6  0  0  0
 10 11  1  0  0  0  0
 10 12  1  0  0  0  0
 11 16  1  0  0  0  0
 12 13  1  1  0  0  0
 12 14  1  0  0  0  0
 14 15  1  1  0  0  0
 14 16  1  0  0  0  0
 16 27  1  6  0  0  0
 18 19  2  0  0  0  0
 18 23  1  0  0  0  0
 19 20  1  0  0  0  0
 20 21  2  0  0  0  0
 21 22  1  0  0  0  0
 21 27  1  0  0  0  0
 22 23  2  0  0  0  0
 22 25  1  0  0  0  0
 23 24  1  0  0  0  0
 25 26  2  0  0  0  0
 26 27  1  0  0  0  0
M  END
>  <CHROM.1>
-17.24070966,62.47260544,69.54722966,-169.25789990,-171.94247235,27.40512939
-128.19364700,13.72507072,5.50436570,30.80710772,-2.20624740,-1.21488222
1.69249235

>  <Name>
ligand

>  <RI>
0

>  <Rbt.Current_Directory>
/home/itssahil/PROJECTS/Mol_Feturizer/Test_systems_manuscript/rnas/4aob

>  <Rbt.Executable>
rbdock ($Id: //depot/dev/client3/rdock/2013.1/src/exe/rbdock.cxx#4 $)

>  <Rbt.Library>
libRbt.so (2013.1, Build901 2013/11/27)

>  <Rbt.Parameter_File>
/export/apps/rDock/src/rDock_2013.1_src/data/scripts/dock_solv.prm

>  <Rbt.Receptor>
prm/pocket_docking_4.prm

>  <SCORE>
-9.4294

>  <SCORE.INTER>
-9.6553

>  <SCORE.INTER.CONST>
1

>  <SCORE.INTER.POLAR>
0

>  <SCORE.INTER.ROT>
7

>  <SCORE.INTER.SOLV>
15.6965

>  <SCORE.INTER.VDW>
-19.9357

>  <SCORE.INTER.norm>
-0.357604

>  <SCORE.INTRA>
0.225905

>  <SCORE.INTRA.DIHEDRAL>
1.78795

>  <SCORE.INTRA.DIHEDRAL.0>
6.31833

>  <SCORE.INTRA.POLAR>
0

>  <SCORE.INTRA.POLAR.0>
0

>  <SCORE.INTRA.REPUL>
0

>  <SCORE.INTRA.REPUL.0>
0

>  <SCORE.INTRA.SOLV>
0.407892

>  <SCORE.INTRA.SOLV.lig_0>
-48.4015

>  <SCORE.INTRA.VDW>
-0.872018

>  <SCORE.INTRA.VDW.0>
-2.83256

>  <SCORE.INTRA.norm>
0.00836687

>  <SCORE.RESTR>
0

>  <SCORE.RESTR.CAVITY>
0

>  <SCORE.RESTR.norm>
0

>  <SCORE.SYSTEM>
0

>  <SCORE.SYSTEM.CONST>
0

>  <SCORE.SYSTEM.DIHEDRAL>
0

>  <SCORE.SYSTEM.SOLV>
0

>  <SCORE.SYSTEM.norm>
0

>  <SCORE.heavy>
27

>  <SCORE.norm>
-0.349237

>  <RMSD>
1.475

$$$$
ligand
 OpenBabel02271912153D
libRbt.so/2013.1/901 2013/11/27
 27 29  0  0  0  0  0  0  0  0999 V2000
   14.3272    5.7583   26.3097 N   0  0  0  0  0  0  0  0  0  0  0  0
   13.8761    5.0661   27.5409 C   0  0  2  0  0  0  0  0  0  0  0  0
   14.4045    3.6383   27.4929 C   0  0  0  0  0  0  0  0  0  0  0  0
   14.9786    3.0769   26.5016 O   0  0  0  0  0  0  0  0  0  0  0  0
   12.3499    5.1452   27.6186 C   0  0  0  0  0  0  0  0  0  0  0  0
   11.8471    6.5522   27.9131 C   0  0  0  0  0  0  0  0  0  0  0  0
   11.7684    7.2597   29.6013 S   0  0  2  0  0  0  0  0  0  0  0  0
   12.0012    8.9865   29.1835 C   0  0  0  0  0  0  0  0  0  0  0  0
   13.4124    6.7314   30.1796 C   0  0  0  0  0  0  0  0  0  0  0  0
   13.6158    7.0520   31.6348 C   0  0  1  0  0  0  0  0  0  0  0  0
   13.0958    6.0208   32.5084 O   0  0  0  0  0  0  0  0  0  0  0  0
   15.0589    7.2740   32.0262 C   0  0  1  0  0  0  0  0  0  0  0  0
   15.2900    8.6151   32.0497 O   0  0  0  0  0  0  0  0  0  0  0  0
   15.0242    6.8005   33.4604 C   0  0  1  0  0  0  0  0  0  0  0  0
   14.5638    7.8551   34.1825 O   0  0  0  0  0  0  0  0  0  0  0  0
   13.9896    5.6552   33.5251 C   0  0  2  0  0  0  0  0  0  0  0  0
   14.2013    2.9538   28.4972 O   0  0  0  0  0  0  0  0  0  0  0  0
   13.8430    0.8425   31.5275 N   0  0  0  0  0  0  0  0  0  0  0  0
   12.8292    1.7877   31.9007 C   0  0  0  0  0  0  0  0  0  0  0  0
   13.0048    3.0890   32.4334 N   0  0  0  0  0  0  0  0  0  0  0  0
   14.2404    3.3771   32.5514 C   0  0  0  0  0  0  0  0  0  0  0  0
   15.3585    2.4769   32.1909 C   0  0  0  0  0  0  0  0  0  0  0  0
   15.1483    1.2472   31.7034 C   0  0  0  0  0  0  0  0  0  0  0  0
   16.2306    0.5433   31.4428 N   0  0  0  0  0  0  0  0  0  0  0  0
   16.5431    2.9937   32.4141 N   0  0  0  0  0  0  0  0  0  0  0  0
   16.1651    4.2272   32.9116 C   0  0  0  0  0  0  0  0  0  0  0  0
   14.7358    4.4815   32.9961 N   0  0  0  0  0  0  0  0  0  0  0  0
  2  1  1  6  0  0  0
  2  3  1  0  0  0  0
  2  5  1  0  0  0  0
  3  4  1  0  0  0  0
  3 17  1  0  0  0  0
  5  6  1  0  0  0  0
  7  6  1  6  0  0  0
  7  8  1  0  0  0  0
  7  9  1  0  0  0  0
 10  9  1  6  0  0  0
 10 11  1  0  0  0  0
 10 12  1  0  0  0  0
 11 16  1  0  0  0  0
 12 13  1  1  0  0  0
 12 14  1  0  0  0  0
 14 15  1  1  0  0  0
 14 16  1  0  0  0  0
 16 27  1  6  0  0  0
 18 19  2  0  0  0  0
 18 23  1  0  0  0  0
 19 20  1  0  0  0  0
 20 21  2  0  0  0  0
 21 22  1  0  0  0  0
 21 27  1  0  0  0  0
 22 23  2  0  0  0  0
 22 25  1  0  0  0  0
 23 24  1  0  0  0  0
 25 26  2  0  0  0  0
 26 27  1  0  0  0  0
M  END
>  <CHROM.1>
-8.49386076,-70.28284694,-82.33066617,150.52091553,-174.24289537,85.53247932
-55.56769421,14.01709363,4.98645317,30.73286142,2.90719689,-1.19781103,0.82428905

>  <Name>
ligand

>  <RI>
0

>  <Rbt.Current_Directory>
/home/itssahil/PROJECTS/Mol_Feturizer/Test_systems_manuscript/rnas/4aob

>  <Rbt.Executable>
rbdock ($Id: //depot/dev/client3/rdock/2013.1/src/exe/rbdock.cxx#4 $)

>  <Rbt.Library>
libRbt.so (2013.1, Build901 2013/11/27)

>  <Rbt.Parameter_File>
/export/apps/rDock/src/rDock_2013.1_src/data/scripts/dock_solv.prm

>  <Rbt.Receptor>
prm/pocket_docking_2.prm

>  <SCORE>
-9.90091

>  <SCORE.INTER>
-11.5702

>  <SCORE.INTER.CONST>
1

>  <SCORE.INTER.POLAR>
0

>  <SCORE.INTER.ROT>
7

>  <SCORE.INTER.SOLV>
16.292

>  <SCORE.INTER.VDW>
-21.4108

>  <SCORE.INTER.norm>
-0.428527

>  <SCORE.INTRA>
1.6422

>  <SCORE.INTRA.DIHEDRAL>
2.78691

>  <SCORE.INTRA.DIHEDRAL.0>
6.31833

>  <SCORE.INTRA.POLAR>
0

>  <SCORE.INTRA.POLAR.0>
0

>  <SCORE.INTRA.REPUL>
0

>  <SCORE.INTRA.REPUL.0>
0

>  <SCORE.INTRA.SOLV>
0.458007

>  <SCORE.INTRA.SOLV.lig_0>
-48.4015

>  <SCORE.INTRA.VDW>
0.0197456

>  <SCORE.INTRA.VDW.0>
-2.83256

>  <SCORE.INTRA.norm>
0.0608224

>  <SCORE.RESTR>
0.0271192

>  <SCORE.RESTR.CAVITY>
0.0271192

>  <SCORE.RESTR.norm>
0.00100442

>  <SCORE.SYSTEM>
0

>  <SCORE.SYSTEM.CONST>
0

>  <SCORE.SYSTEM.DIHEDRAL>
0

>  <SCORE.SYSTEM.SOLV>
0

>  <SCORE.SYSTEM.norm>
0

>  <SCORE.heavy>
27

>  <SCORE.norm>
-0.3667

>  <RMSD>
1.486

$$$$
ligand
 OpenBabel02271912153D
libRbt.so/2013.1/901 2013/11/27
 27 29  0  0  0  0  0  0  0  0999 V2000
   15.0156    4.2302   27.9856 N   0  0  0  0  0  0  0  0  0  0  0  0
   14.1932    5.4602   28.0828 C   0  0  2  0  0  0  0  0  0  0  0  0
   13.0856    5.3635   27.0416 C   0  0  0  0  0  0  0  0  0  0  0  0
   11.8323    5.3073   27.2733 O   0  0  0  0  0  0  0  0  0  0  0  0
   15.1020    6.6761   27.8897 C   0  0  0  0  0  0  0  0  0  0  0  0
   14.3394    7.9937   27.9305 C   0  0  0  0  0  0  0  0  0  0  0  0
   13.0869    8.3922   29.2069 S   0  0  2  0  0  0  0  0  0  0  0  0
   12.9111   10.1447   28.8775 C   0  0  0  0  0  0  0  0  0  0  0  0
   14.1768    8.3356   30.6647 C   0  0  0  0  0  0  0  0  0  0  0  0
   13.4122    7.9918   31.9134 C   0  0  1  0  0  0  0  0  0  0  0  0
   12.4398    6.9408   31.6973 O   0  0  0  0  0  0  0  0  0  0  0  0
   14.2793    7.5577   33.0730 C   0  0  1  0  0  0  0  0  0  0  0  0
   14.4626    8.6307   33.8900 O   0  0  0  0  0  0  0  0  0  0  0  0
   13.3326    6.6148   33.7780 C   0  0  1  0  0  0  0  0  0  0  0  0
   12.5338    7.4032   34.5433 O   0  0  0  0  0  0  0  0  0  0  0  0
   12.4765    5.9429   32.6817 C   0  0  2  0  0  0  0  0  0  0  0  0
   13.4536    5.2762   25.8689 O   0  0  0  0  0  0  0  0  0  0  0  0
   13.9578    0.9451   32.7243 N   0  0  0  0  0  0  0  0  0  0  0  0
   12.9203    1.6729   33.3984 C   0  0  0  0  0  0  0  0  0  0  0  0
   12.6125    3.0519   33.2910 N   0  0  0  0  0  0  0  0  0  0  0  0
   13.3909    3.6366   32.4688 C   0  0  0  0  0  0  0  0  0  0  0  0
   14.4845    2.9761   31.7215 C   0  0  0  0  0  0  0  0  0  0  0  0
   14.7515    1.6713   31.8635 C   0  0  0  0  0  0  0  0  0  0  0  0
   15.7639    1.2150   31.1551 N   0  0  0  0  0  0  0  0  0  0  0  0
   15.1564    3.7902   30.9430 N   0  0  0  0  0  0  0  0  0  0  0  0
   14.4758    4.9663   31.1994 C   0  0  0  0  0  0  0  0  0  0  0  0
   13.3711    4.8836   32.1414 N   0  0  0  0  0  0  0  0  0  0  0  0
  2  1  1  6  0  0  0
  2  3  1  0  0  0  0
  2  5  1  0  0  0  0
  3  4  1  0  0  0  0
  3 17  1  0  0  0  0
  5  6  1  0  0  0  0
  7  6  1  6  0  0  0
  7  8  1  0  0  0  0
  7  9  1  0  0  0  0
 10  9  1  6  0  0  0
 10 11  1  0  0  0  0
 10 12  1  0  0  0  0
 11 16  1  0  0  0  0
 12 13  1  1  0  0  0
 12 14  1  0  0  0  0
 14 15  1  1  0  0  0
 14 16  1  0  0  0  0
 16 27  1  6  0  0  0
 18 19  2  0  0  0  0
 18 23  1  0  0  0  0
 19 20  1  0  0  0  0
 20 21  2  0  0  0  0
 21 22  1  0  0  0  0
 21 27  1  0  0  0  0
 22 23  2  0  0  0  0
 22 25  1  0  0  0  0
 23 24  1  0  0  0  0
 25 26  2  0  0  0  0
 26 27  1  0  0  0  0
M  END
>  <CHROM.1>
116.23416881,178.25872496,46.19288483,167.70415334,-153.52954767,41.86883650
-156.81901401,13.68792642,5.67560459,30.74961796,-2.05871245,-1.42046523
1.95796748

>  <Name>
ligand

>  <RI>
0

>  <Rbt.Current_Directory>
/home/itssahil/PROJECTS/Mol_Feturizer/Test_systems_manuscript/rnas/4aob

>  <Rbt.Executable>
rbdock ($Id: //depot/dev/client3/rdock/2013.1/src/exe/rbdock.cxx#4 $)

>  <Rbt.Library>
libRbt.so (2013.1, Build901 2013/11/27)

>  <Rbt.Parameter_File>
/export/apps/rDock/src/rDock_2013.1_src/data/scripts/dock_solv.prm

>  <Rbt.Receptor>
prm/pocket_docking_6.prm

>  <SCORE>
-9.71533

>  <SCORE.INTER>
-9.18681

>  <SCORE.INTER.CONST>
1

>  <SCORE.INTER.POLAR>
0

>  <SCORE.INTER.ROT>
7

>  <SCORE.INTER.SOLV>
13.2498

>  <SCORE.INTER.VDW>
-18.8078

>  <SCORE.INTER.norm>
-0.340252

>  <SCORE.INTRA>
-0.528518

>  <SCORE.INTRA.DIHEDRAL>
1.31978

>  <SCORE.INTRA.DIHEDRAL.0>
6.31833

>  <SCORE.INTRA.POLAR>
0

>  <SCORE.INTRA.POLAR.0>
0

>  <SCORE.INTRA.REPUL>
0

>  <SCORE.INTRA.REPUL.0>
0

>  <SCORE.INTRA.SOLV>
0.423259

>  <SCORE.INTRA.SOLV.lig_0>
-48.4015

>  <SCORE.INTRA.VDW>
-1.40004

>  <SCORE.INTRA.VDW.0>
-2.83256

>  <SCORE.INTRA.norm>
-0.0195747

>  <SCORE.RESTR>
0

>  <SCORE.RESTR.CAVITY>
0

>  <SCORE.RESTR.norm>
0

>  <SCORE.SYSTEM>
0

>  <SCORE.SYSTEM.CONST>
0

>  <SCORE.SYSTEM.DIHEDRAL>
0

>  <SCORE.SYSTEM.SOLV>
0

>  <SCORE.SYSTEM.norm>
0

>  <SCORE.heavy>
27

>  <SCORE.norm>
-0.359827

>  <RMSD>
1.486

$$$$
ligand
 OpenBabel02271912153D
libRbt.so/2013.1/901 2013/11/27
 27 29  0  0  0  0  0  0  0  0999 V2000
   15.0206    4.6644   26.3460 N   0  0  0  0  0  0  0  0  0  0  0  0
   15.0084    4.8773   27.8133 C   0  0  2  0  0  0  0  0  0  0  0  0
   13.9871    3.9203   28.4145 C   0  0  0  0  0  0  0  0  0  0  0  0
   12.7596    3.8175   28.0825 O   0  0  0  0  0  0  0  0  0  0  0  0
   14.6986    6.3492   28.0944 C   0  0  0  0  0  0  0  0  0  0  0  0
   14.8295    6.7075   29.5687 C   0  0  0  0  0  0  0  0  0  0  0  0
   14.5720    8.4007   30.2194 S   0  0  2  0  0  0  0  0  0  0  0  0
   15.9849    9.2010   29.4620 C   0  0  0  0  0  0  0  0  0  0  0  0
   15.1127    8.1039   31.9328 C   0  0  0  0  0  0  0  0  0  0  0  0
   13.9801    7.6151   32.7931 C   0  0  1  0  0  0  0  0  0  0  0  0
   13.1915    6.5895   32.1426 O   0  0  0  0  0  0  0  0  0  0  0  0
   14.4116    7.0569   34.1300 C   0  0  1  0  0  0  0  0  0  0  0  0
   14.2518    8.0308   35.0672 O   0  0  0  0  0  0  0  0  0  0  0  0
   13.3236    6.0338   34.3577 C   0  0  1  0  0  0  0  0  0  0  0  0
   12.2743    6.7247   34.8744 O   0  0  0  0  0  0  0  0  0  0  0  0
   12.9311    5.4861   32.9677 C   0  0  2  0  0  0  0  0  0  0  0  0
   14.3859    3.2229   29.3488 O   0  0  0  0  0  0  0  0  0  0  0  0
   14.2313    0.6905   31.3907 N   0  0  0  0  0  0  0  0  0  0  0  0
   12.9801    1.3829   31.5168 C   0  0  0  0  0  0  0  0  0  0  0  0
   12.7602    2.7116   31.9573 N   0  0  0  0  0  0  0  0  0  0  0  0
   13.8582    3.2911   32.2442 C   0  0  0  0  0  0  0  0  0  0  0  0
   15.1968    2.6678   32.1431 C   0  0  0  0  0  0  0  0  0  0  0  0
   15.3595    1.4024   31.7354 C   0  0  0  0  0  0  0  0  0  0  0  0
   16.6018    0.9656   31.7103 N   0  0  0  0  0  0  0  0  0  0  0  0
   16.1757    3.4618   32.5058 N   0  0  0  0  0  0  0  0  0  0  0  0
   15.4467    4.5912   32.8300 C   0  0  0  0  0  0  0  0  0  0  0  0
   14.0047    4.5009   32.6655 N   0  0  0  0  0  0  0  0  0  0  0  0
  2  1  1  6  0  0  0
  2  3  1  0  0  0  0
  2  5  1  0  0  0  0
  3  4  1  0  0  0  0
  3 17  1  0  0  0  0
  5  6  1  0  0  0  0
  7  6  1  6  0  0  0
  7  8  1  0  0  0  0
  7  9  1  0  0  0  0
 10  9  1  6  0  0  0
 10 11  1  0  0  0  0
 10 12  1  0  0  0  0
 11 16  1  0  0  0  0
 12 13  1  1  0  0  0
 12 14  1  0  0  0  0
 14 15  1  6  0  0  0
 14 16  1  0  0  0  0
 16 27  1  6  0  0  0
 18 19  2  0  0  0  0
 18 23  1  0  0  0  0
 19 20  1  0  0  0  0
 20 21  2  0  0  0  0
 21 22  1  0  0  0  0
 21 27  1  0  0  0  0
 22 23  2  0  0  0  0
 22 25  1  0  0  0  0
 23 24  1  0  0  0  0
 25 26  2  0  0  0  0
 26 27  1  0  0  0  0
M  END
>  <CHROM.1>
-54.72996050,-173.03792116,178.16778617,-67.22930990,-87.29257279,44.76666002
-121.90032325,14.33727151,5.14486356,31.28430234,-1.16098806,1.42329599,0.01126350

>  <Name>
ligand

>  <RI>
0

>  <Rbt.Current_Directory>
/home/itssahil/PROJECTS/Mol_Feturizer/Test_systems_manuscript/rnas/4aob

>  <Rbt.Executable>
rbdock ($Id: //depot/dev/client3/rdock/2013.1/src/exe/rbdock.cxx#4 $)

>  <Rbt.Library>
libRbt.so (2013.1, Build901 2013/11/27)

>  <Rbt.Parameter_File>
/export/apps/rDock/src/rDock_2013.1_src/data/scripts/dock_solv.prm

>  <Rbt.Receptor>
prm/pocket_docking_5.prm

>  <SCORE>
-14.3095

>  <SCORE.INTER>
-11.7089

>  <SCORE.INTER.CONST>
1

>  <SCORE.INTER.POLAR>
0

>  <SCORE.INTER.ROT>
7

>  <SCORE.INTER.SOLV>
19.3237

>  <SCORE.INTER.VDW>
-22.5138

>  <SCORE.INTER.norm>
-0.433661

>  <SCORE.INTRA>
-2.60065

>  <SCORE.INTRA.DIHEDRAL>
-1.37796

>  <SCORE.INTRA.DIHEDRAL.0>
6.31833

>  <SCORE.INTRA.POLAR>
0

>  <SCORE.INTRA.POLAR.0>
0

>  <SCORE.INTRA.REPUL>
0

>  <SCORE.INTRA.REPUL.0>
0

>  <SCORE.INTRA.SOLV>
-0.682992

>  <SCORE.INTRA.SOLV.lig_0>
-48.4015

>  <SCORE.INTRA.VDW>
-1.57018

>  <SCORE.INTRA.VDW.0>
-2.83256

>  <SCORE.INTRA.norm>
-0.0963205

>  <SCORE.RESTR>
0

>  <SCORE.RESTR.CAVITY>
0

>  <SCORE.RESTR.norm>
0

>  <SCORE.SYSTEM>
0

>  <SCORE.SYSTEM.CONST>
0

>  <SCORE.SYSTEM.DIHEDRAL>
0

>  <SCORE.SYSTEM.SOLV>
0

>  <SCORE.SYSTEM.norm>
0

>  <SCORE.heavy>
27

>  <SCORE.norm>
-0.529982

>  <RMSD>
1.489

$$$$
ligand
 OpenBabel02271912153D
libRbt.so/2013.1/901 2013/11/27
 27 29  0  0  0  0  0  0  0  0999 V2000
   13.7597    6.4010   26.9281 N   0  0  0  0  0  0  0  0  0  0  0  0
   13.1659    5.7249   28.1064 C   0  0  2  0  0  0  0  0  0  0  0  0
   13.4279    4.2308   27.9674 C   0  0  0  0  0  0  0  0  0  0  0  0
   13.9420    3.6435   26.9584 O   0  0  0  0  0  0  0  0  0  0  0  0
   11.6779    6.0752   28.1767 C   0  0  0  0  0  0  0  0  0  0  0  0
   11.4307    7.5054   28.6377 C   0  0  0  0  0  0  0  0  0  0  0  0
   12.1322    8.2007   30.1808 S   0  0  2  0  0  0  0  0  0  0  0  0
   13.8022    8.5053   29.6073 C   0  0  0  0  0  0  0  0  0  0  0  0
   12.2767    6.6480   31.1213 C   0  0  0  0  0  0  0  0  0  0  0  0
   12.7831    6.8918   32.5163 C   0  0  1  0  0  0  0  0  0  0  0  0
   12.6439    5.7293   33.3685 O   0  0  0  0  0  0  0  0  0  0  0  0
   14.2319    7.3175   32.5857 C   0  0  1  0  0  0  0  0  0  0  0  0
   14.2700    8.6731   32.7013 O   0  0  0  0  0  0  0  0  0  0  0  0
   14.6168    6.7426   33.9287 C   0  0  1  0  0  0  0  0  0  0  0  0
   14.2033    7.6532   34.8482 O   0  0  0  0  0  0  0  0  0  0  0  0
   13.8019    5.4422   34.1053 C   0  0  2  0  0  0  0  0  0  0  0  0
   13.0508    3.5273   28.9062 O   0  0  0  0  0  0  0  0  0  0  0  0
   13.7432    1.0196   31.3464 N   0  0  0  0  0  0  0  0  0  0  0  0
   12.7227    1.7888   32.0003 C   0  0  0  0  0  0  0  0  0  0  0  0
   12.8718    2.9991   32.7219 N   0  0  0  0  0  0  0  0  0  0  0  0
   14.0863    3.3848   32.7317 C   0  0  0  0  0  0  0  0  0  0  0  0
   15.2080    2.6680   32.0848 C   0  0  0  0  0  0  0  0  0  0  0  0
   15.0256    1.5174   31.4239 C   0  0  0  0  0  0  0  0  0  0  0  0
   16.1112    0.9739   30.9129 N   0  0  0  0  0  0  0  0  0  0  0  0
   16.3695    3.2564   32.2430 N   0  0  0  0  0  0  0  0  0  0  0  0
   15.9721    4.3514   32.9880 C   0  0  0  0  0  0  0  0  0  0  0  0
   14.5536    4.4471   33.2934 N   0  0  0  0  0  0  0  0  0  0  0  0
  2  1  1  6  0  0  0
  2  3  1  0  0  0  0
  2  5  1  0  0  0  0
  3  4  1  0  0  0  0
  3 17  1  0  0  0  0
  5  6  1  0  0  0  0
  7  6  1  6  0  0  0
  7  8  1  0  0  0  0
  7  9  1  0  0  0  0
 10  9  1  6  0  0  0
 10 11  1  0  0  0  0
 10 12  1  0  0  0  0
 11 16  1  0  0  0  0
 12 13  1  1  0  0  0
 12 14  1  0  0  0  0
 14 15  1  1  0  0  0
 14 16  1  0  0  0  0
 16 27  1  6  0  0  0
 18 19  2  0  0  0  0
 18 23  1  0  0  0  0
 19 20  1  0  0  0  0
 20 21  2  0  0  0  0
 21 22  1  0  0  0  0
 21 27  1  0  0  0  0
 22 23  2  0  0  0  0
 22 25  1  0  0  0  0
 23 24  1  0  0  0  0
 25 26  2  0  0  0  0
 26 27  1  0  0  0  0
M  END
>  <CHROM.1>
-6.58995637,-73.56809220,-53.42754952,77.98871547,-177.24884609,167.89852439
-47.15039254,13.67461295,5.23414123,31.12857558,2.82341030,-1.21169583,0.84548935

>  <Name>
ligand

>  <RI>
0

>  <Rbt.Current_Directory>
/home/itssahil/PROJECTS/Mol_Feturizer/Test_systems_manuscript/rnas/4aob

>  <Rbt.Executable>
rbdock ($Id: //depot/dev/client3/rdock/2013.1/src/exe/rbdock.cxx#4 $)

>  <Rbt.Library>
libRbt.so (2013.1, Build901 2013/11/27)

>  <Rbt.Parameter_File>
/export/apps/rDock/src/rDock_2013.1_src/data/scripts/dock_solv.prm

>  <Rbt.Receptor>
prm/pocket_docking_2.prm

>  <SCORE>
-14.3026

>  <SCORE.INTER>
-15.716

>  <SCORE.INTER.CONST>
1

>  <SCORE.INTER.POLAR>
0

>  <SCORE.INTER.ROT>
7

>  <SCORE.INTER.SOLV>
13.8983

>  <SCORE.INTER.VDW>
-23.3768

>  <SCORE.INTER.norm>
-0.582074

>  <SCORE.INTRA>
1.41004

>  <SCORE.INTRA.DIHEDRAL>
0.18389

>  <SCORE.INTRA.DIHEDRAL.0>
6.31833

>  <SCORE.INTRA.POLAR>
0

>  <SCORE.INTRA.POLAR.0>
0

>  <SCORE.INTRA.REPUL>
0

>  <SCORE.INTRA.REPUL.0>
0

>  <SCORE.INTRA.SOLV>
1.80088

>  <SCORE.INTRA.SOLV.lig_0>
-48.4015

>  <SCORE.INTRA.VDW>
0.417655

>  <SCORE.INTRA.VDW.0>
-2.83256

>  <SCORE.INTRA.norm>
0.0522237

>  <SCORE.RESTR>
0.00339299

>  <SCORE.RESTR.CAVITY>
0.00339299

>  <SCORE.RESTR.norm>
0.000125666

>  <SCORE.SYSTEM>
0

>  <SCORE.SYSTEM.CONST>
0

>  <SCORE.SYSTEM.DIHEDRAL>
0

>  <SCORE.SYSTEM.SOLV>
0

>  <SCORE.SYSTEM.norm>
0

>  <SCORE.heavy>
27

>  <SCORE.norm>
-0.529725

>  <RMSD>
1.498

$$$$
ligand
 OpenBabel02271912153D
libRbt.so/2013.1/901 2013/11/27
 27 29  0  0  0  0  0  0  0  0999 V2000
   13.8783    5.9431   26.5077 N   0  0  0  0  0  0  0  0  0  0  0  0
   15.0407    5.2130   27.0682 C   0  0  2  0  0  0  0  0  0  0  0  0
   14.5346    3.8887   27.6253 C   0  0  0  0  0  0  0  0  0  0  0  0
   14.1277    3.6745   28.8153 O   0  0  0  0  0  0  0  0  0  0  0  0
   15.7147    6.0954   28.1211 C   0  0  0  0  0  0  0  0  0  0  0  0
   14.7169    6.9106   28.9328 C   0  0  0  0  0  0  0  0  0  0  0  0
   13.6548    6.1891   30.2396 S   0  0  2  0  0  0  0  0  0  0  0  0
   12.1686    5.9332   29.2719 C   0  0  0  0  0  0  0  0  0  0  0  0
   13.3080    7.7189   31.1645 C   0  0  0  0  0  0  0  0  0  0  0  0
   12.9442    7.4297   32.5949 C   0  0  1  0  0  0  0  0  0  0  0  0
   12.3055    6.1401   32.7555 O   0  0  0  0  0  0  0  0  0  0  0  0
   14.1136    7.4640   33.5523 C   0  0  1  0  0  0  0  0  0  0  0  0
   14.1283    8.6820   34.1596 O   0  0  0  0  0  0  0  0  0  0  0  0
   13.6497    6.4574   34.5789 C   0  0  1  0  0  0  0  0  0  0  0  0
   12.8215    7.1398   35.4119 O   0  0  0  0  0  0  0  0  0  0  0  0
   12.8319    5.3909   33.8174 C   0  0  2  0  0  0  0  0  0  0  0  0
   14.5804    2.9271   26.8561 O   0  0  0  0  0  0  0  0  0  0  0  0
   14.0112    0.9702   31.3191 N   0  0  0  0  0  0  0  0  0  0  0  0
   12.7746    1.5715   31.7313 C   0  0  0  0  0  0  0  0  0  0  0  0
   12.5871    2.8027   32.4071 N   0  0  0  0  0  0  0  0  0  0  0  0
   13.6997    3.3844   32.6252 C   0  0  0  0  0  0  0  0  0  0  0  0
   15.0247    2.8517   32.2362 C   0  0  0  0  0  0  0  0  0  0  0  0
   15.1588    1.6750   31.6107 C   0  0  0  0  0  0  0  0  0  0  0  0
   16.3949    1.3096   31.3397 N   0  0  0  0  0  0  0  0  0  0  0  0
   16.0251    3.6272   32.5798 N   0  0  0  0  0  0  0  0  0  0  0  0
   15.3224    4.6546   33.1820 C   0  0  0  0  0  0  0  0  0  0  0  0
   13.8748    4.5195   33.2111 N   0  0  0  0  0  0  0  0  0  0  0  0
  2  1  1  1  0  0  0
  2  3  1  0  0  0  0
  2  5  1  0  0  0  0
  3  4  1  0  0  0  0
  3 17  1  0  0  0  0
  5  6  1  0  0  0  0
  7  6  1  6  0  0  0
  7  8  1  0  0  0  0
  7  9  1  0  0  0  0
 10  9  1  6  0  0  0
 10 11  1  0  0  0  0
 10 12  1  0  0  0  0
 11 16  1  0  0  0  0
 12 13  1  1  0  0  0
 12 14  1  0  0  0  0
 14 15  1  1  0  0  0
 14 16  1  0  0  0  0
 16 27  1  6  0  0  0
 18 19  2  0  0  0  0
 18 23  1  0  0  0  0
 19 20  1  0  0  0  0
 20 21  2  0  0  0  0
 21 22  1  0  0  0  0
 21 27  1  0  0  0  0
 22 23  2  0  0  0  0
 22 25  1  0  0  0  0
 23 24  1  0  0  0  0
 25 26  2  0  0  0  0
 26 27  1  0  0  0  0
M  END
>  <CHROM.1>
-90.28868692,36.69305769,74.64539600,-96.65959362,-156.18453366,-29.33952996
-83.50785856,14.00961225,4.96038651,31.18417527,0.59534039,1.35458670,-1.05091519

>  <Name>
ligand

>  <RI>
0

>  <Rbt.Current_Directory>
/home/itssahil/PROJECTS/Mol_Feturizer/Test_systems_manuscript/rnas/4aob

>  <Rbt.Executable>
rbdock ($Id: //depot/dev/client3/rdock/2013.1/src/exe/rbdock.cxx#4 $)

>  <Rbt.Library>
libRbt.so (2013.1, Build901 2013/11/27)

>  <Rbt.Parameter_File>
/export/apps/rDock/src/rDock_2013.1_src/data/scripts/dock_solv.prm

>  <Rbt.Receptor>
prm/pocket_docking_2.prm

>  <SCORE>
-8.97611

>  <SCORE.INTER>
-12.8017

>  <SCORE.INTER.CONST>
1

>  <SCORE.INTER.POLAR>
0

>  <SCORE.INTER.ROT>
7

>  <SCORE.INTER.SOLV>
15.0752

>  <SCORE.INTER.VDW>
-21.8262

>  <SCORE.INTER.norm>
-0.474136

>  <SCORE.INTRA>
3.55673

>  <SCORE.INTRA.DIHEDRAL>
7.03665

>  <SCORE.INTRA.DIHEDRAL.0>
6.31833

>  <SCORE.INTRA.POLAR>
0

>  <SCORE.INTRA.POLAR.0>
0

>  <SCORE.INTRA.REPUL>
0

>  <SCORE.INTRA.REPUL.0>
0

>  <SCORE.INTRA.SOLV>
2.08351

>  <SCORE.INTRA.SOLV.lig_0>
-48.4015

>  <SCORE.INTRA.VDW>
-1.00335

>  <SCORE.INTRA.VDW.0>
-2.83256

>  <SCORE.INTRA.norm>
0.131731

>  <SCORE.RESTR>
0.268837

>  <SCORE.RESTR.CAVITY>
0.268837

>  <SCORE.RESTR.norm>
0.00995694

>  <SCORE.SYSTEM>
0

>  <SCORE.SYSTEM.CONST>
0

>  <SCORE.SYSTEM.DIHEDRAL>
0

>  <SCORE.SYSTEM.SOLV>
0

>  <SCORE.SYSTEM.norm>
0

>  <SCORE.heavy>
27

>  <SCORE.norm>
-0.332448

>  <RMSD>
1.507

$$$$
ligand
 OpenBabel02271912153D
libRbt.so/2013.1/901 2013/11/27
 27 29  0  0  0  0  0  0  0  0999 V2000
   13.1520    6.6077   26.2859 N   0  0  0  0  0  0  0  0  0  0  0  0
   13.0281    5.9661   27.6168 C   0  0  2  0  0  0  0  0  0  0  0  0
   13.4093    4.4992   27.4642 C   0  0  0  0  0  0  0  0  0  0  0  0
   12.9681    3.5264   28.1616 O   0  0  0  0  0  0  0  0  0  0  0  0
   11.6016    6.1712   28.1310 C   0  0  0  0  0  0  0  0  0  0  0  0
   11.3605    7.5815   28.6528 C   0  0  0  0  0  0  0  0  0  0  0  0
   12.1890    8.2596   30.1395 S   0  0  2  0  0  0  0  0  0  0  0  0
   13.8336    8.4726   29.4611 C   0  0  0  0  0  0  0  0  0  0  0  0
   12.3138    6.7133   31.0934 C   0  0  0  0  0  0  0  0  0  0  0  0
   12.8234    6.9627   32.4862 C   0  0  1  0  0  0  0  0  0  0  0  0
   12.6419    5.8198   33.3567 O   0  0  0  0  0  0  0  0  0  0  0  0
   14.2856    7.3402   32.5544 C   0  0  1  0  0  0  0  0  0  0  0  0
   14.3695    8.6954   32.6481 O   0  0  0  0  0  0  0  0  0  0  0  0
   14.6461    6.7747   33.9082 C   0  0  1  0  0  0  0  0  0  0  0  0
   14.2607    7.7138   34.8110 O   0  0  0  0  0  0  0  0  0  0  0  0
   13.7869    5.5058   34.1027 C   0  0  2  0  0  0  0  0  0  0  0  0
   14.2696    4.2506   26.6178 O   0  0  0  0  0  0  0  0  0  0  0  0
   13.5868    1.0443   31.4139 N   0  0  0  0  0  0  0  0  0  0  0  0
   12.5909    1.8585   32.0508 C   0  0  0  0  0  0  0  0  0  0  0  0
   12.7787    3.0744   32.7538 N   0  0  0  0  0  0  0  0  0  0  0  0
   14.0057    3.4181   32.7632 C   0  0  0  0  0  0  0  0  0  0  0  0
   15.1046    2.6528   32.1329 C   0  0  0  0  0  0  0  0  0  0  0  0
   14.8854    1.4988   31.4895 C   0  0  0  0  0  0  0  0  0  0  0  0
   15.9536    0.9101   30.9922 N   0  0  0  0  0  0  0  0  0  0  0  0
   16.2851    3.2033   32.2872 N   0  0  0  0  0  0  0  0  0  0  0  0
   15.9228    4.3231   33.0129 C   0  0  0  0  0  0  0  0  0  0  0  0
   14.5072    4.4725   33.3102 N   0  0  0  0  0  0  0  0  0  0  0  0
  2  1  1  6  0  0  0
  2  3  1  0  0  0  0
  2  5  1  0  0  0  0
  3  4  1  0  0  0  0
  3 17  1  0  0  0  0
  5  6  1  0  0  0  0
  7  6  1  6  0  0  0
  7  8  1  0  0  0  0
  7  9  1  0  0  0  0
 10  9  1  6  0  0  0
 10 11  1  0  0  0  0
 10 12  1  0  0  0  0
 11 16  1  0  0  0  0
 12 13  1  1  0  0  0
 12 14  1  0  0  0  0
 14 15  1  1  0  0  0
 14 16  1  0  0  0  0
 16 27  1  6  0  0  0
 18 19  2  0  0  0  0
 18 23  1  0  0  0  0
 19 20  1  0  0  0  0
 20 21  2  0  0  0  0
 21 22  1  0  0  0  0
 21 27  1  0  0  0  0
 22 23  2  0  0  0  0
 22 25  1  0  0  0  0
 23 24  1  0  0  0  0
 25 26  2  0  0  0  0
 26 27  1  0  0  0  0
M  END
>  <CHROM.1>
-150.65460518,-76.46555615,-66.14580666,72.51073534,-173.14019143,166.58371084
-47.09443846,13.63473110,5.30980784,31.02649749,-3.04611593,-1.24191821,0.84815596

>  <Name>
ligand

>  <RI>
0

>  <Rbt.Current_Directory>
/home/itssahil/PROJECTS/Mol_Feturizer/Test_systems_manuscript/rnas/4aob

>  <Rbt.Executable>
rbdock ($Id: //depot/dev/client3/rdock/2013.1/src/exe/rbdock.cxx#4 $)

>  <Rbt.Library>
libRbt.so (2013.1, Build901 2013/11/27)

>  <Rbt.Parameter_File>
/export/apps/rDock/src/rDock_2013.1_src/data/scripts/dock_solv.prm

>  <Rbt.Receptor>
prm/pocket_docking_3.prm

>  <SCORE>
-14.9408

>  <SCORE.INTER>
-16.3267

>  <SCORE.INTER.CONST>
1

>  <SCORE.INTER.POLAR>
0

>  <SCORE.INTER.ROT>
7

>  <SCORE.INTER.SOLV>
14.3405

>  <SCORE.INTER.VDW>
-23.9313

>  <SCORE.INTER.norm>
-0.604693

>  <SCORE.INTRA>
1.38593

>  <SCORE.INTRA.DIHEDRAL>
0.221884

>  <SCORE.INTRA.DIHEDRAL.0>
6.31833

>  <SCORE.INTRA.POLAR>
0

>  <SCORE.INTRA.POLAR.0>
0

>  <SCORE.INTRA.REPUL>
0

>  <SCORE.INTRA.REPUL.0>
0

>  <SCORE.INTRA.SOLV>
1.19418

>  <SCORE.INTRA.SOLV.lig_0>
-48.4015

>  <SCORE.INTRA.VDW>
0.677894

>  <SCORE.INTRA.VDW.0>
-2.83256

>  <SCORE.INTRA.norm>
0.0513306

>  <SCORE.RESTR>
0

>  <SCORE.RESTR.CAVITY>
0

>  <SCORE.RESTR.norm>
0

>  <SCORE.SYSTEM>
0

>  <SCORE.SYSTEM.CONST>
0

>  <SCORE.SYSTEM.DIHEDRAL>
0

>  <SCORE.SYSTEM.SOLV>
0

>  <SCORE.SYSTEM.norm>
0

>  <SCORE.heavy>
27

>  <SCORE.norm>
-0.553362

>  <RMSD>
1.513

$$$$
ligand
 OpenBabel02271912153D
libRbt.so/2013.1/901 2013/11/27
 27 29  0  0  0  0  0  0  0  0999 V2000
   13.0241    6.6067   26.2695 N   0  0  0  0  0  0  0  0  0  0  0  0
   12.9422    5.9797   27.6106 C   0  0  2  0  0  0  0  0  0  0  0  0
   13.3553    4.5204   27.4688 C   0  0  0  0  0  0  0  0  0  0  0  0
   13.0176    3.5603   28.2379 O   0  0  0  0  0  0  0  0  0  0  0  0
   11.5217    6.1576   28.1510 C   0  0  0  0  0  0  0  0  0  0  0  0
   11.2598    7.5664   28.6668 C   0  0  0  0  0  0  0  0  0  0  0  0
   12.1076    8.2771   30.1272 S   0  0  2  0  0  0  0  0  0  0  0  0
   13.7335    8.5099   29.4111 C   0  0  0  0  0  0  0  0  0  0  0  0
   12.2796    6.7452   31.0967 C   0  0  0  0  0  0  0  0  0  0  0  0
   12.8300    7.0187   32.4694 C   0  0  1  0  0  0  0  0  0  0  0  0
   12.6542    5.8994   33.3712 O   0  0  0  0  0  0  0  0  0  0  0  0
   14.2992    7.3740   32.4900 C   0  0  1  0  0  0  0  0  0  0  0  0
   14.4065    8.7295   32.5493 O   0  0  0  0  0  0  0  0  0  0  0  0
   14.6870    6.8345   33.8468 C   0  0  1  0  0  0  0  0  0  0  0  0
   14.3404    7.8004   34.7370 O   0  0  0  0  0  0  0  0  0  0  0  0
   13.8137    5.5845   34.0939 C   0  0  2  0  0  0  0  0  0  0  0  0
   14.1362    4.2677   26.5496 O   0  0  0  0  0  0  0  0  0  0  0  0
   13.4738    1.0629   31.5219 N   0  0  0  0  0  0  0  0  0  0  0  0
   12.5080    1.9073   32.1660 C   0  0  0  0  0  0  0  0  0  0  0  0
   12.7330    3.1368   32.8335 N   0  0  0  0  0  0  0  0  0  0  0  0
   13.9646    3.4619   32.8005 C   0  0  0  0  0  0  0  0  0  0  0  0
   15.0343    2.6651   32.1591 C   0  0  0  0  0  0  0  0  0  0  0  0
   14.7804    1.4993   31.5505 C   0  0  0  0  0  0  0  0  0  0  0  0
   15.8256    0.8827   31.0384 N   0  0  0  0  0  0  0  0  0  0  0  0
   16.2265    3.2012   32.2671 N   0  0  0  0  0  0  0  0  0  0  0  0
   15.9009    4.3435   32.9749 C   0  0  0  0  0  0  0  0  0  0  0  0
   14.4965    4.5216   33.3074 N   0  0  0  0  0  0  0  0  0  0  0  0
  2  1  1  6  0  0  0
  2  3  1  0  0  0  0
  2  5  1  0  0  0  0
  3  4  1  0  0  0  0
  3 17  1  0  0  0  0
  5  6  1  0  0  0  0
  7  6  1  6  0  0  0
  7  8  1  0  0  0  0
  7  9  1  0  0  0  0
 10  9  1  6  0  0  0
 10 11  1  0  0  0  0
 10 12  1  0  0  0  0
 11 16  1  0  0  0  0
 12 13  1  1  0  0  0
 12 14  1  0  0  0  0
 14 15  1  1  0  0  0
 14 16  1  0  0  0  0
 16 27  1  6  0  0  0
 18 19  2  0  0  0  0
 18 23  1  0  0  0  0
 19 20  1  0  0  0  0
 20 21  2  0  0  0  0
 21 22  1  0  0  0  0
 21 27  1  0  0  0  0
 22 23  2  0  0  0  0
 22 25  1  0  0  0  0
 23 24  1  0  0  0  0
 25 26  2  0  0  0  0
 26 27  1  0  0  0  0
M  END
>  <CHROM.1>
-155.36030646,-76.78019068,-65.83937242,72.04992255,-173.83818282,164.92199684
-47.19799496,13.58948360,5.33925196,31.02681168,-3.10385601,-1.24166676,0.78735928

>  <Name>
ligand

>  <RI>
0

>  <Rbt.Current_Directory>
/home/itssahil/PROJECTS/Mol_Feturizer/Test_systems_manuscript/rnas/4aob

>  <Rbt.Executable>
rbdock ($Id: //depot/dev/client3/rdock/2013.1/src/exe/rbdock.cxx#4 $)

>  <Rbt.Library>
libRbt.so (2013.1, Build901 2013/11/27)

>  <Rbt.Parameter_File>
/export/apps/rDock/src/rDock_2013.1_src/data/scripts/dock_solv.prm

>  <Rbt.Receptor>
prm/pocket_docking_4.prm

>  <SCORE>
-14.7655

>  <SCORE.INTER>
-16.2343

>  <SCORE.INTER.CONST>
1

>  <SCORE.INTER.POLAR>
0

>  <SCORE.INTER.ROT>
7

>  <SCORE.INTER.SOLV>
14.4364

>  <SCORE.INTER.VDW>
-23.9016

>  <SCORE.INTER.norm>
-0.601269

>  <SCORE.INTRA>
1.46878

>  <SCORE.INTRA.DIHEDRAL>
0.300754

>  <SCORE.INTRA.DIHEDRAL.0>
6.31833

>  <SCORE.INTRA.POLAR>
0

>  <SCORE.INTRA.POLAR.0>
0

>  <SCORE.INTRA.REPUL>
0

>  <SCORE.INTRA.REPUL.0>
0

>  <SCORE.INTRA.SOLV>
1.19697

>  <SCORE.INTRA.SOLV.lig_0>
-48.4015

>  <SCORE.INTRA.VDW>
0.719918

>  <SCORE.INTRA.VDW.0>
-2.83256

>  <SCORE.INTRA.norm>
0.0543993

>  <SCORE.RESTR>
0

>  <SCORE.RESTR.CAVITY>
0

>  <SCORE.RESTR.norm>
0

>  <SCORE.SYSTEM>
0

>  <SCORE.SYSTEM.CONST>
0

>  <SCORE.SYSTEM.DIHEDRAL>
0

>  <SCORE.SYSTEM.SOLV>
0

>  <SCORE.SYSTEM.norm>
0

>  <SCORE.heavy>
27

>  <SCORE.norm>
-0.54687

>  <RMSD>
1.554

$$$$
ligand
 OpenBabel02271912153D
libRbt.so/2013.1/901 2013/11/27
 27 29  0  0  0  0  0  0  0  0999 V2000
   14.6275    5.2424   27.7691 N   0  0  0  0  0  0  0  0  0  0  0  0
   13.7286    5.7410   28.8376 C   0  0  2  0  0  0  0  0  0  0  0  0
   13.2445    4.5388   29.6380 C   0  0  0  0  0  0  0  0  0  0  0  0
   12.3417    4.5438   30.5393 O   0  0  0  0  0  0  0  0  0  0  0  0
   12.5920    6.5371   28.1926 C   0  0  0  0  0  0  0  0  0  0  0  0
   11.6457    7.1485   29.2173 C   0  0  0  0  0  0  0  0  0  0  0  0
   12.0845    8.5923   30.2564 S   0  0  2  0  0  0  0  0  0  0  0  0
   12.9486    9.5627   29.0227 C   0  0  0  0  0  0  0  0  0  0  0  0
   13.4269    7.8216   31.2156 C   0  0  0  0  0  0  0  0  0  0  0  0
   12.9966    7.5195   32.6247 C   0  0  1  0  0  0  0  0  0  0  0  0
   12.2997    6.2548   32.7332 O   0  0  0  0  0  0  0  0  0  0  0  0
   14.1283    7.4858   33.6261 C   0  0  1  0  0  0  0  0  0  0  0  0
   14.1695    8.6898   34.2596 O   0  0  0  0  0  0  0  0  0  0  0  0
   13.5842    6.4793   34.6127 C   0  0  1  0  0  0  0  0  0  0  0  0
   12.7530    7.1791   35.4281 O   0  0  0  0  0  0  0  0  0  0  0  0
   12.7534    5.4633   33.7980 C   0  0  2  0  0  0  0  0  0  0  0  0
   13.8293    3.4759   29.4219 O   0  0  0  0  0  0  0  0  0  0  0  0
   13.8741    0.9265   31.4880 N   0  0  0  0  0  0  0  0  0  0  0  0
   12.6471    1.5501   31.8956 C   0  0  0  0  0  0  0  0  0  0  0  0
   12.4755    2.8124   32.5163 N   0  0  0  0  0  0  0  0  0  0  0  0
   13.5934    3.4003   32.6848 C   0  0  0  0  0  0  0  0  0  0  0  0
   14.9093    2.8460   32.2955 C   0  0  0  0  0  0  0  0  0  0  0  0
   15.0286    1.6407   31.7236 C   0  0  0  0  0  0  0  0  0  0  0  0
   16.2584    1.2594   31.4459 N   0  0  0  0  0  0  0  0  0  0  0  0
   15.9179    3.6338   32.5825 N   0  0  0  0  0  0  0  0  0  0  0  0
   15.2293    4.6905   33.1493 C   0  0  0  0  0  0  0  0  0  0  0  0
   13.7823    4.5613   33.2131 N   0  0  0  0  0  0  0  0  0  0  0  0
  2  1  1  6  0  0  0
  2  3  1  0  0  0  0
  2  5  1  0  0  0  0
  3  4  1  0  0  0  0
  3 17  1  0  0  0  0
  5  6  1  0  0  0  0
  7  6  1  6  0  0  0
  7  8  1  0  0  0  0
  7  9  1  0  0  0  0
 10  9  1  6  0  0  0
 10 11  1  0  0  0  0
 10 12  1  0  0  0  0
 11 16  1  0  0  0  0
 12 13  1  1  0  0  0
 12 14  1  0  0  0  0
 14 15  1  1  0  0  0
 14 16  1  0  0  0  0
 16 27  1  6  0  0  0
 18 19  2  0  0  0  0
 18 23  1  0  0  0  0
 19 20  1  0  0  0  0
 20 21  2  0  0  0  0
 21 22  1  0  0  0  0
 21 27  1  0  0  0  0
 22 23  2  0  0  0  0
 22 25  1  0  0  0  0
 23 24  1  0  0  0  0
 25 26  2  0  0  0  0
 26 27  1  0  0  0  0
M  END
>  <CHROM.1>
-171.47680208,-177.33585749,73.46015633,40.41970560,-105.91488131,84.21301459
-89.08465783,13.48932757,5.40815773,31.56550423,2.89597878,-1.28925481,1.18728605

>  <Name>
ligand

>  <RI>
0

>  <Rbt.Current_Directory>
/home/itssahil/PROJECTS/Mol_Feturizer/Test_systems_manuscript/rnas/4aob

>  <Rbt.Executable>
rbdock ($Id: //depot/dev/client3/rdock/2013.1/src/exe/rbdock.cxx#4 $)

>  <Rbt.Library>
libRbt.so (2013.1, Build901 2013/11/27)

>  <Rbt.Parameter_File>
/export/apps/rDock/src/rDock_2013.1_src/data/scripts/dock_solv.prm

>  <Rbt.Receptor>
prm/pocket_docking_3.prm

>  <SCORE>
-15.4669

>  <SCORE.INTER>
-15.4758

>  <SCORE.INTER.CONST>
1

>  <SCORE.INTER.POLAR>
0

>  <SCORE.INTER.ROT>
7

>  <SCORE.INTER.SOLV>
14.068

>  <SCORE.INTER.VDW>
-23.2732

>  <SCORE.INTER.norm>
-0.573176

>  <SCORE.INTRA>
0.00883055

>  <SCORE.INTRA.DIHEDRAL>
2.61525

>  <SCORE.INTRA.DIHEDRAL.0>
6.31833

>  <SCORE.INTRA.POLAR>
0

>  <SCORE.INTRA.POLAR.0>
0

>  <SCORE.INTRA.REPUL>
0

>  <SCORE.INTRA.REPUL.0>
0

>  <SCORE.INTRA.SOLV>
-0.243405

>  <SCORE.INTRA.SOLV.lig_0>
-48.4015

>  <SCORE.INTRA.VDW>
-1.17709

>  <SCORE.INTRA.VDW.0>
-2.83256

>  <SCORE.INTRA.norm>
0.000327057

>  <SCORE.RESTR>
0

>  <SCORE.RESTR.CAVITY>
0

>  <SCORE.RESTR.norm>
0

>  <SCORE.SYSTEM>
0

>  <SCORE.SYSTEM.CONST>
0

>  <SCORE.SYSTEM.DIHEDRAL>
0

>  <SCORE.SYSTEM.SOLV>
0

>  <SCORE.SYSTEM.norm>
0

>  <SCORE.heavy>
27

>  <SCORE.norm>
-0.572849

>  <RMSD>
1.564

$$$$
ligand
 OpenBabel02271912153D
libRbt.so/2013.1/901 2013/11/27
 27 29  0  0  0  0  0  0  0  0999 V2000
   14.3444    5.4095   25.9112 N   0  0  0  0  0  0  0  0  0  0  0  0
   14.3631    5.4319   27.3936 C   0  0  2  0  0  0  0  0  0  0  0  0
   13.1409    4.6680   27.8865 C   0  0  0  0  0  0  0  0  0  0  0  0
   11.9240    4.9203   27.5985 O   0  0  0  0  0  0  0  0  0  0  0  0
   14.3977    6.8879   27.8633 C   0  0  0  0  0  0  0  0  0  0  0  0
   14.5475    7.0163   29.3733 C   0  0  0  0  0  0  0  0  0  0  0  0
   14.5990    8.6263   30.2461 S   0  0  2  0  0  0  0  0  0  0  0  0
   16.1001    9.2816   29.5195 C   0  0  0  0  0  0  0  0  0  0  0  0
   15.1390    8.0194   31.8759 C   0  0  0  0  0  0  0  0  0  0  0  0
   13.9755    7.5456   32.7026 C   0  0  1  0  0  0  0  0  0  0  0  0
   13.2011    6.5201   32.0350 O   0  0  0  0  0  0  0  0  0  0  0  0
   14.3591    6.9955   34.0574 C   0  0  1  0  0  0  0  0  0  0  0  0
   14.1760    7.9782   34.9810 O   0  0  0  0  0  0  0  0  0  0  0  0
   13.2569    5.9818   34.2576 C   0  0  1  0  0  0  0  0  0  0  0  0
   12.1963    6.6843   34.7343 O   0  0  0  0  0  0  0  0  0  0  0  0
   12.9059    5.4254   32.8600 C   0  0  2  0  0  0  0  0  0  0  0  0
   13.3610    3.7546   28.6839 O   0  0  0  0  0  0  0  0  0  0  0  0
   14.2225    0.6099   31.3592 N   0  0  0  0  0  0  0  0  0  0  0  0
   12.9731    1.3124   31.4381 C   0  0  0  0  0  0  0  0  0  0  0  0
   12.7484    2.6456   31.8623 N   0  0  0  0  0  0  0  0  0  0  0  0
   13.8404    3.2189   32.1827 C   0  0  0  0  0  0  0  0  0  0  0  0
   15.1769    2.5850   32.1313 C   0  0  0  0  0  0  0  0  0  0  0  0
   15.3437    1.3157   31.7375 C   0  0  0  0  0  0  0  0  0  0  0  0
   16.5828    0.8695   31.7576 N   0  0  0  0  0  0  0  0  0  0  0  0
   16.1489    3.3742   32.5221 N   0  0  0  0  0  0  0  0  0  0  0  0
   15.4179    4.5110   32.8139 C   0  0  0  0  0  0  0  0  0  0  0  0
   13.9817    4.4304   32.6009 N   0  0  0  0  0  0  0  0  0  0  0  0
  2  1  1  6  0  0  0
  2  3  1  0  0  0  0
  2  5  1  0  0  0  0
  3  4  1  0  0  0  0
  3 17  1  0  0  0  0
  5  6  1  0  0  0  0
  7  6  1  6  0  0  0
  7  8  1  0  0  0  0
  7  9  1  0  0  0  0
 10  9  1  6  0  0  0
 10 11  1  0  0  0  0
 10 12  1  0  0  0  0
 11 16  1  0  0  0  0
 12 13  1  1  0  0  0
 12 14  1  0  0  0  0
 14 15  1  6  0  0  0
 14 16  1  0  0  0  0
 16 27  1  6  0  0  0
 18 19  2  0  0  0  0
 18 23  1  0  0  0  0
 19 20  1  0  0  0  0
 20 21  2  0  0  0  0
 21 22  1  0  0  0  0
 21 27  1  0  0  0  0
 22 23  2  0  0  0  0
 22 25  1  0  0  0  0
 23 24  1  0  0  0  0
 25 26  2  0  0  0  0
 26 27  1  0  0  0  0
M  END
>  <CHROM.1>
-57.12175253,-174.74439492,-179.17896552,-63.21639214,-84.46009100,56.33876439
-121.77456861,14.15902331,5.28789321,31.14268540,-2.47166404,-1.56684892
2.07757339

>  <Name>
ligand

>  <RI>
0

>  <Rbt.Current_Directory>
/home/itssahil/PROJECTS/Mol_Feturizer/Test_systems_manuscript/rnas/4aob

>  <Rbt.Executable>
rbdock ($Id: //depot/dev/client3/rdock/2013.1/src/exe/rbdock.cxx#4 $)

>  <Rbt.Library>
libRbt.so (2013.1, Build901 2013/11/27)

>  <Rbt.Parameter_File>
/export/apps/rDock/src/rDock_2013.1_src/data/scripts/dock_solv.prm

>  <Rbt.Receptor>
prm/pocket_docking_3.prm

>  <SCORE>
-13.7788

>  <SCORE.INTER>
-11.7125

>  <SCORE.INTER.CONST>
1

>  <SCORE.INTER.POLAR>
0

>  <SCORE.INTER.ROT>
7

>  <SCORE.INTER.SOLV>
18.3668

>  <SCORE.INTER.VDW>
-22.1973

>  <SCORE.INTER.norm>
-0.433795

>  <SCORE.INTRA>
-2.0664

>  <SCORE.INTRA.DIHEDRAL>
-2.39248

>  <SCORE.INTRA.DIHEDRAL.0>
6.31833

>  <SCORE.INTRA.POLAR>
0

>  <SCORE.INTRA.POLAR.0>
0

>  <SCORE.INTRA.REPUL>
0

>  <SCORE.INTRA.REPUL.0>
0

>  <SCORE.INTRA.SOLV>
-0.757472

>  <SCORE.INTRA.SOLV.lig_0>
-48.4015

>  <SCORE.INTRA.VDW>
-0.491429

>  <SCORE.INTRA.VDW.0>
-2.83256

>  <SCORE.INTRA.norm>
-0.0765335

>  <SCORE.RESTR>
0.000127372

>  <SCORE.RESTR.CAVITY>
0.000127372

>  <SCORE.RESTR.norm>
4.7175e-06

>  <SCORE.SYSTEM>
0

>  <SCORE.SYSTEM.CONST>
0

>  <SCORE.SYSTEM.DIHEDRAL>
0

>  <SCORE.SYSTEM.SOLV>
0

>  <SCORE.SYSTEM.norm>
0

>  <SCORE.heavy>
27

>  <SCORE.norm>
-0.510324

>  <RMSD>
1.564

$$$$
ligand
 OpenBabel02271912153D
libRbt.so/2013.1/901 2013/11/27
 27 29  0  0  0  0  0  0  0  0999 V2000
   13.7768    6.0027   26.9234 N   0  0  0  0  0  0  0  0  0  0  0  0
   13.1793    5.6259   28.2270 C   0  0  2  0  0  0  0  0  0  0  0  0
   13.4067    4.1335   28.4299 C   0  0  0  0  0  0  0  0  0  0  0  0
   13.7207    3.2866   27.5289 O   0  0  0  0  0  0  0  0  0  0  0  0
   11.7002    6.0184   28.2222 C   0  0  0  0  0  0  0  0  0  0  0  0
   11.4763    7.4758   28.6027 C   0  0  0  0  0  0  0  0  0  0  0  0
   12.0954    8.2157   30.1602 S   0  0  2  0  0  0  0  0  0  0  0  0
   13.7598    8.6138   29.6293 C   0  0  0  0  0  0  0  0  0  0  0  0
   12.3036    6.6772   31.1120 C   0  0  0  0  0  0  0  0  0  0  0  0
   12.8087    6.9512   32.5019 C   0  0  1  0  0  0  0  0  0  0  0  0
   12.6461    5.8156   33.3855 O   0  0  0  0  0  0  0  0  0  0  0  0
   14.2643    7.3538   32.5657 C   0  0  1  0  0  0  0  0  0  0  0  0
   14.3255    8.7112   32.6437 O   0  0  0  0  0  0  0  0  0  0  0  0
   14.6340    6.8101   33.9259 C   0  0  1  0  0  0  0  0  0  0  0  0
   14.2327    7.7530   34.8179 O   0  0  0  0  0  0  0  0  0  0  0  0
   13.7960    5.5294   34.1351 C   0  0  2  0  0  0  0  0  0  0  0  0
   13.2108    3.7079   29.5696 O   0  0  0  0  0  0  0  0  0  0  0  0
   13.6618    1.0593   31.4565 N   0  0  0  0  0  0  0  0  0  0  0  0
   12.6521    1.8681   32.0785 C   0  0  0  0  0  0  0  0  0  0  0  0
   12.8223    3.0872   32.7804 N   0  0  0  0  0  0  0  0  0  0  0  0
   14.0466    3.4397   32.8043 C   0  0  0  0  0  0  0  0  0  0  0  0
   15.1589    2.6806   32.1901 C   0  0  0  0  0  0  0  0  0  0  0  0
   14.9560    1.5233   31.5471 C   0  0  0  0  0  0  0  0  0  0  0  0
   16.0346    0.9410   31.0649 N   0  0  0  0  0  0  0  0  0  0  0  0
   16.3334    3.2400   32.3576 N   0  0  0  0  0  0  0  0  0  0  0  0
   15.9539    4.3591   33.0756 C   0  0  0  0  0  0  0  0  0  0  0  0
   14.5336    4.4992   33.3546 N   0  0  0  0  0  0  0  0  0  0  0  0
  2  1  1  6  0  0  0
  2  3  1  0  0  0  0
  2  5  1  0  0  0  0
  3  4  1  0  0  0  0
  3 17  1  0  0  0  0
  5  6  1  0  0  0  0
  7  6  1  6  0  0  0
  7  8  1  0  0  0  0
  7  9  1  0  0  0  0
 10  9  1  6  0  0  0
 10 11  1  0  0  0  0
 10 12  1  0  0  0  0
 11 16  1  0  0  0  0
 12 13  1  1  0  0  0
 12 14  1  0  0  0  0
 14 15  1  1  0  0  0
 14 16  1  0  0  0  0
 16 27  1  6  0  0  0
 18 19  2  0  0  0  0
 18 23  1  0  0  0  0
 19 20  1  0  0  0  0
 20 21  2  0  0  0  0
 21 22  1  0  0  0  0
 21 27  1  0  0  0  0
 22 23  2  0  0  0  0
 22 25  1  0  0  0  0
 23 24  1  0  0  0  0
 25 26  2  0  0  0  0
 26 27  1  0  0  0  0
M  END
>  <CHROM.1>
-17.04635798,-84.17465295,-55.34647681,84.34736003,-179.44626350,164.50978370
-46.06124344,13.66007627,5.23685567,31.22544564,2.65260083,-1.20508960,0.74937167

>  <Name>
ligand

>  <RI>
0

>  <Rbt.Current_Directory>
/home/itssahil/PROJECTS/Mol_Feturizer/Test_systems_manuscript/rnas/4aob

>  <Rbt.Executable>
rbdock ($Id: //depot/dev/client3/rdock/2013.1/src/exe/rbdock.cxx#4 $)

>  <Rbt.Library>
libRbt.so (2013.1, Build901 2013/11/27)

>  <Rbt.Parameter_File>
/export/apps/rDock/src/rDock_2013.1_src/data/scripts/dock_solv.prm

>  <Rbt.Receptor>
prm/pocket_docking_4.prm

>  <SCORE>
-14.3468

>  <SCORE.INTER>
-15.8335

>  <SCORE.INTER.CONST>
1

>  <SCORE.INTER.POLAR>
0

>  <SCORE.INTER.ROT>
7

>  <SCORE.INTER.SOLV>
14.2226

>  <SCORE.INTER.VDW>
-23.5632

>  <SCORE.INTER.norm>
-0.586427

>  <SCORE.INTRA>
1.48675

>  <SCORE.INTRA.DIHEDRAL>
2.30011

>  <SCORE.INTRA.DIHEDRAL.0>
6.31833

>  <SCORE.INTRA.POLAR>
0

>  <SCORE.INTRA.POLAR.0>
0

>  <SCORE.INTRA.REPUL>
0

>  <SCORE.INTRA.REPUL.0>
0

>  <SCORE.INTRA.SOLV>
1.28535

>  <SCORE.INTRA.SOLV.lig_0>
-48.4015

>  <SCORE.INTRA.VDW>
-0.305981

>  <SCORE.INTRA.VDW.0>
-2.83256

>  <SCORE.INTRA.norm>
0.0550649

>  <SCORE.RESTR>
0

>  <SCORE.RESTR.CAVITY>
0

>  <SCORE.RESTR.norm>
0

>  <SCORE.SYSTEM>
0

>  <SCORE.SYSTEM.CONST>
0

>  <SCORE.SYSTEM.DIHEDRAL>
0

>  <SCORE.SYSTEM.SOLV>
0

>  <SCORE.SYSTEM.norm>
0

>  <SCORE.heavy>
27

>  <SCORE.norm>
-0.531362

>  <RMSD>
1.565

$$$$
ligand
 OpenBabel02271912153D
libRbt.so/2013.1/901 2013/11/27
 27 29  0  0  0  0  0  0  0  0999 V2000
   11.9077    5.8437   28.2362 N   0  0  0  0  0  0  0  0  0  0  0  0
   12.9205    6.6235   27.4848 C   0  0  2  0  0  0  0  0  0  0  0  0
   14.0693    5.6846   27.1396 C   0  0  0  0  0  0  0  0  0  0  0  0
   15.2208    6.0246   26.7084 O   0  0  0  0  0  0  0  0  0  0  0  0
   13.3508    7.8202   28.3359 C   0  0  0  0  0  0  0  0  0  0  0  0
   14.5802    7.5272   29.1855 C   0  0  0  0  0  0  0  0  0  0  0  0
   14.4927    6.8016   30.8655 S   0  0  2  0  0  0  0  0  0  0  0  0
   13.4997    5.3589   30.4873 C   0  0  0  0  0  0  0  0  0  0  0  0
   13.2971    7.9693   31.5891 C   0  0  0  0  0  0  0  0  0  0  0  0
   13.0437    7.6719   33.0414 C   0  0  1  0  0  0  0  0  0  0  0  0
   12.3495    6.4164   33.2381 O   0  0  0  0  0  0  0  0  0  0  0  0
   14.2920    7.6228   33.8925 C   0  0  1  0  0  0  0  0  0  0  0  0
   14.4283    8.8257   34.5145 O   0  0  0  0  0  0  0  0  0  0  0  0
   13.8633    6.6228   34.9406 C   0  0  1  0  0  0  0  0  0  0  0  0
   13.1506    7.3329   35.8535 O   0  0  0  0  0  0  0  0  0  0  0  0
   12.9234    5.6183   34.2380 C   0  0  2  0  0  0  0  0  0  0  0  0
   13.8299    4.4799   27.2387 O   0  0  0  0  0  0  0  0  0  0  0  0
   13.6347    1.1752   31.6061 N   0  0  0  0  0  0  0  0  0  0  0  0
   12.4748    1.8325   32.1381 C   0  0  0  0  0  0  0  0  0  0  0  0
   12.4149    3.0632   32.8379 N   0  0  0  0  0  0  0  0  0  0  0  0
   13.5713    3.5856   32.9539 C   0  0  0  0  0  0  0  0  0  0  0  0
   14.8248    2.9921   32.4372 C   0  0  0  0  0  0  0  0  0  0  0  0
   14.8391    1.8179   31.7930 C   0  0  0  0  0  0  0  0  0  0  0  0
   16.0239    1.3944   31.4033 N   0  0  0  0  0  0  0  0  0  0  0  0
   15.8915    3.7122   32.6903 N   0  0  0  0  0  0  0  0  0  0  0  0
   15.3020    4.7660   33.3640 C   0  0  0  0  0  0  0  0  0  0  0  0
   13.8586    4.7033   33.5292 N   0  0  0  0  0  0  0  0  0  0  0  0
  2  1  1  1  0  0  0
  2  3  1  0  0  0  0
  2  5  1  0  0  0  0
  3  4  1  0  0  0  0
  3 17  1  0  0  0  0
  5  6  1  0  0  0  0
  7  6  1  6  0  0  0
  7  8  1  0  0  0  0
  7  9  1  0  0  0  0
 10  9  1  6  0  0  0
 10 11  1  0  0  0  0
 10 12  1  0  0  0  0
 11 16  1  0  0  0  0
 12 13  1  1  0  0  0
 12 14  1  0  0  0  0
 14 15  1  1  0  0  0
 14 16  1  0  0  0  0
 16 27  1  6  0  0  0
 18 19  2  0  0  0  0
 18 23  1  0  0  0  0
 19 20  1  0  0  0  0
 20 21  2  0  0  0  0
 21 22  1  0  0  0  0
 21 27  1  0  0  0  0
 22 23  2  0  0  0  0
 22 25  1  0  0  0  0
 23 24  1  0  0  0  0
 25 26  2  0  0  0  0
 26 27  1  0  0  0  0
M  END
>  <CHROM.1>
-166.89654921,92.83500356,-88.10077069,53.30672313,-177.52577674,-67.53567940
-84.16745435,13.87662258,5.44774814,31.49292293,1.34607889,1.45731001,-1.37210689

>  <Name>
ligand

>  <RI>
0

>  <Rbt.Current_Directory>
/home/itssahil/PROJECTS/Mol_Feturizer/Test_systems_manuscript/rnas/4aob

>  <Rbt.Executable>
rbdock ($Id: //depot/dev/client3/rdock/2013.1/src/exe/rbdock.cxx#4 $)

>  <Rbt.Library>
libRbt.so (2013.1, Build901 2013/11/27)

>  <Rbt.Parameter_File>
/export/apps/rDock/src/rDock_2013.1_src/data/scripts/dock_solv.prm

>  <Rbt.Receptor>
prm/pocket_docking_2.prm

>  <SCORE>
-5.90841

>  <SCORE.INTER>
-10.8811

>  <SCORE.INTER.CONST>
1

>  <SCORE.INTER.POLAR>
0

>  <SCORE.INTER.ROT>
7

>  <SCORE.INTER.SOLV>
14.1002

>  <SCORE.INTER.VDW>
-20.2208

>  <SCORE.INTER.norm>
-0.403006

>  <SCORE.INTRA>
4.90587

>  <SCORE.INTRA.DIHEDRAL>
3.282

>  <SCORE.INTRA.DIHEDRAL.0>
6.31833

>  <SCORE.INTRA.POLAR>
0

>  <SCORE.INTRA.POLAR.0>
0

>  <SCORE.INTRA.REPUL>
0

>  <SCORE.INTRA.REPUL.0>
0

>  <SCORE.INTRA.SOLV>
2.38459

>  <SCORE.INTRA.SOLV.lig_0>
-48.4015

>  <SCORE.INTRA.VDW>
2.07258

>  <SCORE.INTRA.VDW.0>
-2.83256

>  <SCORE.INTRA.norm>
0.181699

>  <SCORE.RESTR>
0.0668623

>  <SCORE.RESTR.CAVITY>
0.0668623

>  <SCORE.RESTR.norm>
0.00247638

>  <SCORE.SYSTEM>
0

>  <SCORE.SYSTEM.CONST>
0

>  <SCORE.SYSTEM.DIHEDRAL>
0

>  <SCORE.SYSTEM.SOLV>
0

>  <SCORE.SYSTEM.norm>
0

>  <SCORE.heavy>
27

>  <SCORE.norm>
-0.21883

>  <RMSD>
1.626

$$$$
ligand
 OpenBabel02271912153D
libRbt.so/2013.1/901 2013/11/27
 27 29  0  0  0  0  0  0  0  0999 V2000
   15.7690    3.8917   27.3403 N   0  0  0  0  0  0  0  0  0  0  0  0
   15.0533    4.4431   28.5160 C   0  0  2  0  0  0  0  0  0  0  0  0
   13.6490    3.8531   28.5253 C   0  0  0  0  0  0  0  0  0  0  0  0
   13.1312    3.1468   29.4531 O   0  0  0  0  0  0  0  0  0  0  0  0
   15.0682    5.9708   28.4291 C   0  0  0  0  0  0  0  0  0  0  0  0
   14.6477    6.6389   29.7313 C   0  0  0  0  0  0  0  0  0  0  0  0
   13.0671    6.2760   30.5838 S   0  0  2  0  0  0  0  0  0  0  0  0
   11.9518    6.5138   29.2016 C   0  0  0  0  0  0  0  0  0  0  0  0
   12.9203    7.8268   31.5270 C   0  0  0  0  0  0  0  0  0  0  0  0
   12.9011    7.5726   33.0092 C   0  0  1  0  0  0  0  0  0  0  0  0
   12.2775    6.3103   33.3479 O   0  0  0  0  0  0  0  0  0  0  0  0
   14.2664    7.5772   33.6580 C   0  0  1  0  0  0  0  0  0  0  0  0
   14.4663    8.8026   34.2156 O   0  0  0  0  0  0  0  0  0  0  0  0
   14.0295    6.6039   34.7890 C   0  0  1  0  0  0  0  0  0  0  0  0
   13.4482    7.3292   35.7797 O   0  0  0  0  0  0  0  0  0  0  0  0
   13.0184    5.5577   34.2702 C   0  0  2  0  0  0  0  0  0  0  0  0
   12.9795    4.0377   27.5075 O   0  0  0  0  0  0  0  0  0  0  0  0
   13.3499    1.1770   31.4641 N   0  0  0  0  0  0  0  0  0  0  0  0
   12.2643    1.8497   32.1197 C   0  0  0  0  0  0  0  0  0  0  0  0
   12.3063    3.0602   32.8551 N   0  0  0  0  0  0  0  0  0  0  0  0
   13.4836    3.5472   32.8767 C   0  0  0  0  0  0  0  0  0  0  0  0
   14.6656    2.9353   32.2293 C   0  0  0  0  0  0  0  0  0  0  0  0
   14.5851    1.7808   31.5551 C   0  0  0  0  0  0  0  0  0  0  0  0
   15.7155    1.3370   31.0451 N   0  0  0  0  0  0  0  0  0  0  0  0
   15.7722    3.6182   32.4011 N   0  0  0  0  0  0  0  0  0  0  0  0
   15.2794    4.6672   33.1552 C   0  0  0  0  0  0  0  0  0  0  0  0
   13.8562    4.6390   33.4527 N   0  0  0  0  0  0  0  0  0  0  0  0
  2  1  1  6  0  0  0
  2  3  1  0  0  0  0
  2  5  1  0  0  0  0
  3  4  1  0  0  0  0
  3 17  1  0  0  0  0
  5  6  1  0  0  0  0
  7  6  1  6  0  0  0
  7  8  1  0  0  0  0
  7  9  1  0  0  0  0
 10  9  1  6  0  0  0
 10 11  1  0  0  0  0
 10 12  1  0  0  0  0
 11 16  1  0  0  0  0
 12 13  1  1  0  0  0
 12 14  1  0  0  0  0
 14 15  1  1  0  0  0
 14 16  1  0  0  0  0
 16 27  1  6  0  0  0
 18 19  2  0  0  0  0
 18 23  1  0  0  0  0
 19 20  1  0  0  0  0
 20 21  2  0  0  0  0
 21 22  1  0  0  0  0
 21 27  1  0  0  0  0
 22 23  2  0  0  0  0
 22 25  1  0  0  0  0
 23 24  1  0  0  0  0
 25 26  2  0  0  0  0
 26 27  1  0  0  0  0
M  END
>  <CHROM.1>
120.17200274,-166.80097501,-54.72857081,-51.61972953,-119.33115554,-32.12988169
-78.41778432,13.78854447,4.98308049,31.53219762,0.52919712,1.45252392,-1.17915693

>  <Name>
ligand

>  <RI>
0

>  <Rbt.Current_Directory>
/home/itssahil/PROJECTS/Mol_Feturizer/Test_systems_manuscript/rnas/4aob

>  <Rbt.Executable>
rbdock ($Id: //depot/dev/client3/rdock/2013.1/src/exe/rbdock.cxx#4 $)

>  <Rbt.Library>
libRbt.so (2013.1, Build901 2013/11/27)

>  <Rbt.Parameter_File>
/export/apps/rDock/src/rDock_2013.1_src/data/scripts/dock_solv.prm

>  <Rbt.Receptor>
prm/pocket_docking_2.prm

>  <SCORE>
-13.1884

>  <SCORE.INTER>
-13.0708

>  <SCORE.INTER.CONST>
1

>  <SCORE.INTER.POLAR>
0

>  <SCORE.INTER.ROT>
7

>  <SCORE.INTER.SOLV>
15.9925

>  <SCORE.INTER.VDW>
-22.3114

>  <SCORE.INTER.norm>
-0.484104

>  <SCORE.INTRA>
-0.117632

>  <SCORE.INTRA.DIHEDRAL>
4.64056

>  <SCORE.INTRA.DIHEDRAL.0>
6.31833

>  <SCORE.INTRA.POLAR>
0

>  <SCORE.INTRA.POLAR.0>
0

>  <SCORE.INTRA.REPUL>
0

>  <SCORE.INTRA.REPUL.0>
0

>  <SCORE.INTRA.SOLV>
0.583206

>  <SCORE.INTRA.SOLV.lig_0>
-48.4015

>  <SCORE.INTRA.VDW>
-2.72952

>  <SCORE.INTRA.VDW.0>
-2.83256

>  <SCORE.INTRA.norm>
-0.00435676

>  <SCORE.RESTR>
0

>  <SCORE.RESTR.CAVITY>
0

>  <SCORE.RESTR.norm>
0

>  <SCORE.SYSTEM>
0

>  <SCORE.SYSTEM.CONST>
0

>  <SCORE.SYSTEM.DIHEDRAL>
0

>  <SCORE.SYSTEM.SOLV>
0

>  <SCORE.SYSTEM.norm>
0

>  <SCORE.heavy>
27

>  <SCORE.norm>
-0.488461

>  <RMSD>
1.695

$$$$
ligand
 OpenBabel02271912153D
libRbt.so/2013.1/901 2013/11/27
 27 29  0  0  0  0  0  0  0  0999 V2000
   12.4100    6.5778   27.6985 N   0  0  0  0  0  0  0  0  0  0  0  0
   13.8764    6.5617   27.4798 C   0  0  2  0  0  0  0  0  0  0  0  0
   14.4049    5.2173   27.9629 C   0  0  0  0  0  0  0  0  0  0  0  0
   13.7040    4.2121   28.3179 O   0  0  0  0  0  0  0  0  0  0  0  0
   14.4960    7.7546   28.2110 C   0  0  0  0  0  0  0  0  0  0  0  0
   13.7306    8.1352   29.4713 C   0  0  0  0  0  0  0  0  0  0  0  0
   13.8916    7.2326   31.0575 S   0  0  2  0  0  0  0  0  0  0  0  0
   12.8060    5.8534   30.6969 C   0  0  0  0  0  0  0  0  0  0  0  0
   12.8652    8.3311   32.0851 C   0  0  0  0  0  0  0  0  0  0  0  0
   12.9046    7.9290   33.5338 C   0  0  1  0  0  0  0  0  0  0  0  0
   12.3432    6.6136   33.7604 O   0  0  0  0  0  0  0  0  0  0  0  0
   14.2892    7.9273   34.1404 C   0  0  1  0  0  0  0  0  0  0  0  0
   14.4583    9.0981   34.8135 O   0  0  0  0  0  0  0  0  0  0  0  0
   14.1285    6.8363   35.1732 C   0  0  1  0  0  0  0  0  0  0  0  0
   13.5515    7.4330   36.2486 O   0  0  0  0  0  0  0  0  0  0  0  0
   13.1434    5.8049   34.5801 C   0  0  2  0  0  0  0  0  0  0  0  0
   15.6291    5.1252   28.0684 O   0  0  0  0  0  0  0  0  0  0  0  0
   13.9829    1.2903   32.1125 N   0  0  0  0  0  0  0  0  0  0  0  0
   12.9325    1.7682   32.9663 C   0  0  0  0  0  0  0  0  0  0  0  0
   12.8170    3.0420   33.5762 N   0  0  0  0  0  0  0  0  0  0  0  0
   13.7992    3.7929   33.2675 C   0  0  0  0  0  0  0  0  0  0  0  0
   14.9259    3.3974   32.3931 C   0  0  0  0  0  0  0  0  0  0  0  0
   15.0040    2.1766   31.8477 C   0  0  0  0  0  0  0  0  0  0  0  0
   16.0688    1.9492   31.1065 N   0  0  0  0  0  0  0  0  0  0  0  0
   15.8235    4.3403   32.2326 N   0  0  0  0  0  0  0  0  0  0  0  0
   15.2526    5.3343   33.0058 C   0  0  0  0  0  0  0  0  0  0  0  0
   13.9899    5.0095   33.6499 N   0  0  0  0  0  0  0  0  0  0  0  0
  2  1  1  1  0  0  0
  2  3  1  0  0  0  0
  2  5  1  0  0  0  0
  3  4  1  0  0  0  0
  3 17  1  0  0  0  0
  5  6  1  0  0  0  0
  7  6  1  6  0  0  0
  7  8  1  0  0  0  0
  7  9  1  0  0  0  0
 10  9  1  6  0  0  0
 10 11  1  0  0  0  0
 10 12  1  0  0  0  0
 11 16  1  0  0  0  0
 12 13  1  1  0  0  0
 12 14  1  0  0  0  0
 14 15  1  1  0  0  0
 14 16  1  0  0  0  0
 16 27  1  6  0  0  0
 18 19  2  0  0  0  0
 18 23  1  0  0  0  0
 19 20  1  0  0  0  0
 20 21  2  0  0  0  0
 21 22  1  0  0  0  0
 21 27  1  0  0  0  0
 22 23  2  0  0  0  0
 22 25  1  0  0  0  0
 23 24  1  0  0  0  0
 25 26  2  0  0  0  0
 26 27  1  0  0  0  0
M  END
>  <CHROM.1>
8.93174186,31.28481720,78.98589583,-80.40069100,-174.15527740,-63.58826117
-99.34196443,13.95486222,5.65435344,31.78626426,0.98049479,1.41221415,-1.21527720

>  <Name>
ligand

>  <RI>
0

>  <Rbt.Current_Directory>
/home/itssahil/PROJECTS/Mol_Feturizer/Test_systems_manuscript/rnas/4aob

>  <Rbt.Executable>
rbdock ($Id: //depot/dev/client3/rdock/2013.1/src/exe/rbdock.cxx#4 $)

>  <Rbt.Library>
libRbt.so (2013.1, Build901 2013/11/27)

>  <Rbt.Parameter_File>
/export/apps/rDock/src/rDock_2013.1_src/data/scripts/dock_solv.prm

>  <Rbt.Receptor>
prm/pocket_docking_2.prm

>  <SCORE>
-7.05984

>  <SCORE.INTER>
-9.25812

>  <SCORE.INTER.CONST>
1

>  <SCORE.INTER.POLAR>
0

>  <SCORE.INTER.ROT>
7

>  <SCORE.INTER.SOLV>
11.0024

>  <SCORE.INTER.VDW>
-18.1062

>  <SCORE.INTER.norm>
-0.342893

>  <SCORE.INTRA>
2.15645

>  <SCORE.INTRA.DIHEDRAL>
2.14646

>  <SCORE.INTRA.DIHEDRAL.0>
6.31833

>  <SCORE.INTRA.POLAR>
0

>  <SCORE.INTRA.POLAR.0>
0

>  <SCORE.INTRA.REPUL>
0

>  <SCORE.INTRA.REPUL.0>
0

>  <SCORE.INTRA.SOLV>
2.27082

>  <SCORE.INTRA.SOLV.lig_0>
-48.4015

>  <SCORE.INTRA.VDW>
-0.0521946

>  <SCORE.INTRA.VDW.0>
-2.83256

>  <SCORE.INTRA.norm>
0.0798684

>  <SCORE.RESTR>
0.0418316

>  <SCORE.RESTR.CAVITY>
0.0418316

>  <SCORE.RESTR.norm>
0.00154932

>  <SCORE.SYSTEM>
0

>  <SCORE.SYSTEM.CONST>
0

>  <SCORE.SYSTEM.DIHEDRAL>
0

>  <SCORE.SYSTEM.SOLV>
0

>  <SCORE.SYSTEM.norm>
0

>  <SCORE.heavy>
27

>  <SCORE.norm>
-0.261476

>  <RMSD>
1.695

$$$$
ligand
 OpenBabel02271912153D
libRbt.so/2013.1/901 2013/11/27
 27 29  0  0  0  0  0  0  0  0999 V2000
   14.3685    6.0117   27.1175 N   0  0  0  0  0  0  0  0  0  0  0  0
   14.5887    4.8809   28.0508 C   0  0  2  0  0  0  0  0  0  0  0  0
   13.2430    4.2108   28.2966 C   0  0  0  0  0  0  0  0  0  0  0  0
   12.1449    4.4792   27.7052 O   0  0  0  0  0  0  0  0  0  0  0  0
   15.2412    5.4163   29.3272 C   0  0  0  0  0  0  0  0  0  0  0  0
   14.5033    6.6153   29.9077 C   0  0  0  0  0  0  0  0  0  0  0  0
   12.8225    6.5095   30.6292 S   0  0  2  0  0  0  0  0  0  0  0  0
   11.8778    7.0150   29.1930 C   0  0  0  0  0  0  0  0  0  0  0  0
   12.8862    8.0137   31.6537 C   0  0  0  0  0  0  0  0  0  0  0  0
   12.8843    7.6837   33.1209 C   0  0  1  0  0  0  0  0  0  0  0  0
   12.2628    6.4063   33.4018 O   0  0  0  0  0  0  0  0  0  0  0  0
   14.2574    7.6535   33.7525 C   0  0  1  0  0  0  0  0  0  0  0  0
   14.4661    8.8483   34.3699 O   0  0  0  0  0  0  0  0  0  0  0  0
   14.0326    6.6236   34.8348 C   0  0  1  0  0  0  0  0  0  0  0  0
   13.4644    7.2975   35.8685 O   0  0  0  0  0  0  0  0  0  0  0  0
   13.0135    5.6065   34.2752 C   0  0  2  0  0  0  0  0  0  0  0  0
   13.2160    3.3683   29.1954 O   0  0  0  0  0  0  0  0  0  0  0  0
   13.3720    1.2513   31.4329 N   0  0  0  0  0  0  0  0  0  0  0  0
   12.3000    1.8703   32.1598 C   0  0  0  0  0  0  0  0  0  0  0  0
   12.3315    3.0802   32.8967 N   0  0  0  0  0  0  0  0  0  0  0  0
   13.4834    3.6228   32.8453 C   0  0  0  0  0  0  0  0  0  0  0  0
   14.6491    3.0690   32.1207 C   0  0  0  0  0  0  0  0  0  0  0  0
   14.5804    1.9132   31.4475 C   0  0  0  0  0  0  0  0  0  0  0  0
   15.6956    1.5246   30.8642 N   0  0  0  0  0  0  0  0  0  0  0  0
   15.7307    3.8036   32.2246 N   0  0  0  0  0  0  0  0  0  0  0  0
   15.2380    4.8267   33.0136 C   0  0  0  0  0  0  0  0  0  0  0  0
   13.8398    4.7301   33.4014 N   0  0  0  0  0  0  0  0  0  0  0  0
  2  1  1  6  0  0  0
  2  3  1  0  0  0  0
  2  5  1  0  0  0  0
  3  4  1  0  0  0  0
  3 17  1  0  0  0  0
  5  6  1  0  0  0  0
  7  6  1  6  0  0  0
  7  8  1  0  0  0  0
  7  9  1  0  0  0  0
 10  9  1  6  0  0  0
 10 11  1  0  0  0  0
 10 12  1  0  0  0  0
 11 16  1  0  0  0  0
 12 13  1  1  0  0  0
 12 14  1  0  0  0  0
 14 15  1  1  0  0  0
 14 16  1  0  0  0  0
 16 27  1  6  0  0  0
 18 19  2  0  0  0  0
 18 23  1  0  0  0  0
 19 20  1  0  0  0  0
 20 21  2  0  0  0  0
 21 22  1  0  0  0  0
 21 27  1  0  0  0  0
 22 23  2  0  0  0  0
 22 25  1  0  0  0  0
 23 24  1  0  0  0  0
 25 26  2  0  0  0  0
 26 27  1  0  0  0  0
M  END
>  <CHROM.1>
6.60978911,50.37616406,67.46484610,-96.16449098,-112.06509028,-25.48084679
-83.35701861,13.65365272,5.18550037,31.54146701,1.38907225,1.42258439,-1.96918840

>  <Name>
ligand

>  <RI>
0

>  <Rbt.Current_Directory>
/home/itssahil/PROJECTS/Mol_Feturizer/Test_systems_manuscript/rnas/4aob

>  <Rbt.Executable>
rbdock ($Id: //depot/dev/client3/rdock/2013.1/src/exe/rbdock.cxx#4 $)

>  <Rbt.Library>
libRbt.so (2013.1, Build901 2013/11/27)

>  <Rbt.Parameter_File>
/export/apps/rDock/src/rDock_2013.1_src/data/scripts/dock_solv.prm

>  <Rbt.Receptor>
prm/pocket_docking_2.prm

>  <SCORE>
-11.0973

>  <SCORE.INTER>
-13.4977

>  <SCORE.INTER.CONST>
1

>  <SCORE.INTER.POLAR>
0

>  <SCORE.INTER.ROT>
7

>  <SCORE.INTER.SOLV>
11.6388

>  <SCORE.INTER.VDW>
-21.1447

>  <SCORE.INTER.norm>
-0.499914

>  <SCORE.INTRA>
2.19913

>  <SCORE.INTRA.DIHEDRAL>
6.2421

>  <SCORE.INTRA.DIHEDRAL.0>
6.31833

>  <SCORE.INTRA.POLAR>
0

>  <SCORE.INTRA.POLAR.0>
0

>  <SCORE.INTRA.REPUL>
0

>  <SCORE.INTRA.REPUL.0>
0

>  <SCORE.INTRA.SOLV>
2.86026

>  <SCORE.INTRA.SOLV.lig_0>
-48.4015

>  <SCORE.INTRA.VDW>
-2.35205

>  <SCORE.INTRA.VDW.0>
-2.83256

>  <SCORE.INTRA.norm>
0.0814492

>  <SCORE.RESTR>
0.201267

>  <SCORE.RESTR.CAVITY>
0.201267

>  <SCORE.RESTR.norm>
0.00745433

>  <SCORE.SYSTEM>
0

>  <SCORE.SYSTEM.CONST>
0

>  <SCORE.SYSTEM.DIHEDRAL>
0

>  <SCORE.SYSTEM.SOLV>
0

>  <SCORE.SYSTEM.norm>
0

>  <SCORE.heavy>
27

>  <SCORE.norm>
-0.41101

>  <RMSD>
1.697

$$$$
ligand
 OpenBabel02271912153D
libRbt.so/2013.1/901 2013/11/27
 27 29  0  0  0  0  0  0  0  0999 V2000
   13.4666    3.3316   28.4493 N   0  0  0  0  0  0  0  0  0  0  0  0
   13.4930    4.4750   27.5058 C   0  0  2  0  0  0  0  0  0  0  0  0
   14.6559    4.2600   26.5457 C   0  0  0  0  0  0  0  0  0  0  0  0
   15.0740    5.0850   25.6670 O   0  0  0  0  0  0  0  0  0  0  0  0
   13.6022    5.7731   28.3088 C   0  0  0  0  0  0  0  0  0  0  0  0
   12.3200    6.1125   29.0569 C   0  0  0  0  0  0  0  0  0  0  0  0
   12.1572    7.5587   30.1699 S   0  0  2  0  0  0  0  0  0  0  0  0
   12.8615    8.8086   29.0965 C   0  0  0  0  0  0  0  0  0  0  0  0
   13.5163    7.1583   31.3140 C   0  0  0  0  0  0  0  0  0  0  0  0
   13.0294    7.0441   32.7323 C   0  0  1  0  0  0  0  0  0  0  0  0
   12.0168    6.0212   32.8910 O   0  0  0  0  0  0  0  0  0  0  0  0
   14.1162    6.7477   33.7402 C   0  0  1  0  0  0  0  0  0  0  0  0
   14.4860    7.9213   34.3221 O   0  0  0  0  0  0  0  0  0  0  0  0
   13.3263    5.9690   34.7659 C   0  0  1  0  0  0  0  0  0  0  0  0
   12.7210    6.9016   35.5464 O   0  0  0  0  0  0  0  0  0  0  0  0
   12.2462    5.1823   33.9909 C   0  0  2  0  0  0  0  0  0  0  0  0
   15.2006    3.1559   26.5967 O   0  0  0  0  0  0  0  0  0  0  0  0
   16.0643    3.3811   30.9327 N   0  0  0  0  0  0  0  0  0  0  0  0
   15.6304    4.7001   31.2968 C   0  0  0  0  0  0  0  0  0  0  0  0
   14.5653    5.0598   32.1595 N   0  0  0  0  0  0  0  0  0  0  0  0
   13.9856    4.0286   32.6328 C   0  0  0  0  0  0  0  0  0  0  0  0
   14.3594    2.6301   32.3246 C   0  0  0  0  0  0  0  0  0  0  0  0
   15.3650    2.3334   31.4911 C   0  0  0  0  0  0  0  0  0  0  0  0
   15.5792    1.0497   31.2885 N   0  0  0  0  0  0  0  0  0  0  0  0
   13.6061    1.7396   32.9245 N   0  0  0  0  0  0  0  0  0  0  0  0
   12.7594    2.5851   33.6175 C   0  0  0  0  0  0  0  0  0  0  0  0
   12.9886    4.0114   33.4503 N   0  0  0  0  0  0  0  0  0  0  0  0
  2  1  1  1  0  0  0
  2  3  1  0  0  0  0
  2  5  1  0  0  0  0
  3  4  1  0  0  0  0
  3 17  1  0  0  0  0
  5  6  1  0  0  0  0
  7  6  1  6  0  0  0
  7  8  1  0  0  0  0
  7  9  1  0  0  0  0
 10  9  1  6  0  0  0
 10 11  1  0  0  0  0
 10 12  1  0  0  0  0
 11 16  1  0  0  0  0
 12 13  1  1  0  0  0
 12 14  1  0  0  0  0
 14 15  1  1  0  0  0
 14 16  1  0  0  0  0
 16 27  1  6  0  0  0
 18 19  2  0  0  0  0
 18 23  1  0  0  0  0
 19 20  1  0  0  0  0
 20 21  2  0  0  0  0
 21 22  1  0  0  0  0
 21 27  1  0  0  0  0
 22 23  2  0  0  0  0
 22 25  1  0  0  0  0
 23 24  1  0  0  0  0
 25 26  2  0  0  0  0
 26 27  1  0  0  0  0
M  END
>  <CHROM.1>
-173.37332327,-71.28703726,176.98673919,47.95820192,-122.12985288,59.29142627
45.15407032,13.73208520,5.11575539,31.13590274,-1.05929952,-1.20719153,1.82411971

>  <Name>
ligand

>  <RI>
0

>  <Rbt.Current_Directory>
/home/itssahil/PROJECTS/Mol_Feturizer/Test_systems_manuscript/rnas/4aob

>  <Rbt.Executable>
rbdock ($Id: //depot/dev/client3/rdock/2013.1/src/exe/rbdock.cxx#4 $)

>  <Rbt.Library>
libRbt.so (2013.1, Build901 2013/11/27)

>  <Rbt.Parameter_File>
/export/apps/rDock/src/rDock_2013.1_src/data/scripts/dock_solv.prm

>  <Rbt.Receptor>
prm/pocket_docking_2.prm

>  <SCORE>
-3.32187

>  <SCORE.INTER>
-14.4203

>  <SCORE.INTER.CONST>
1

>  <SCORE.INTER.POLAR>
0

>  <SCORE.INTER.ROT>
7

>  <SCORE.INTER.SOLV>
18.7845

>  <SCORE.INTER.VDW>
-24.1417

>  <SCORE.INTER.norm>
-0.534086

>  <SCORE.INTRA>
11.081

>  <SCORE.INTRA.DIHEDRAL>
1.4876

>  <SCORE.INTRA.DIHEDRAL.0>
6.31833

>  <SCORE.INTRA.POLAR>
0

>  <SCORE.INTRA.POLAR.0>
0

>  <SCORE.INTRA.REPUL>
0

>  <SCORE.INTRA.REPUL.0>
0

>  <SCORE.INTRA.SOLV>
0.821995

>  <SCORE.INTRA.SOLV.lig_0>
-48.4015

>  <SCORE.INTRA.VDW>
9.92619

>  <SCORE.INTRA.VDW.0>
-2.83256

>  <SCORE.INTRA.norm>
0.410407

>  <SCORE.RESTR>
0.0174501

>  <SCORE.RESTR.CAVITY>
0.0174501

>  <SCORE.RESTR.norm>
0.000646301

>  <SCORE.SYSTEM>
0

>  <SCORE.SYSTEM.CONST>
0

>  <SCORE.SYSTEM.DIHEDRAL>
0

>  <SCORE.SYSTEM.SOLV>
0

>  <SCORE.SYSTEM.norm>
0

>  <SCORE.heavy>
27

>  <SCORE.norm>
-0.123032

>  <RMSD>
1.771

$$$$
ligand
 OpenBabel02271912153D
libRbt.so/2013.1/901 2013/11/27
 27 29  0  0  0  0  0  0  0  0999 V2000
   10.4706    6.9559   26.2192 N   0  0  0  0  0  0  0  0  0  0  0  0
   11.5651    7.1057   27.2081 C   0  0  2  0  0  0  0  0  0  0  0  0
   12.8373    6.5477   26.5831 C   0  0  0  0  0  0  0  0  0  0  0  0
   12.9062    5.7655   25.5777 O   0  0  0  0  0  0  0  0  0  0  0  0
   11.1617    6.3926   28.5005 C   0  0  0  0  0  0  0  0  0  0  0  0
   12.0965    6.7041   29.6616 C   0  0  0  0  0  0  0  0  0  0  0  0
   12.2262    8.3611   30.4324 S   0  0  2  0  0  0  0  0  0  0  0  0
   13.0284    9.2264   29.0840 C   0  0  0  0  0  0  0  0  0  0  0  0
   13.5892    8.0035   31.5858 C   0  0  0  0  0  0  0  0  0  0  0  0
   13.0755    7.5689   32.9309 C   0  0  1  0  0  0  0  0  0  0  0  0
   12.3674    6.3071   32.8736 O   0  0  0  0  0  0  0  0  0  0  0  0
   14.1465    7.4251   33.9880 C   0  0  1  0  0  0  0  0  0  0  0  0
   14.1562    8.5605   34.7385 O   0  0  0  0  0  0  0  0  0  0  0  0
   13.5406    6.3323   34.8372 C   0  0  1  0  0  0  0  0  0  0  0  0
   12.6664    6.9573   35.6682 O   0  0  0  0  0  0  0  0  0  0  0  0
   12.7542    5.4101   33.8795 C   0  0  2  0  0  0  0  0  0  0  0  0
   13.8912    6.8452   27.1480 O   0  0  0  0  0  0  0  0  0  0  0  0
   14.0065    1.0211   31.3610 N   0  0  0  0  0  0  0  0  0  0  0  0
   12.7602    1.5996   31.7763 C   0  0  0  0  0  0  0  0  0  0  0  0
   12.5523    2.8245   32.4577 N   0  0  0  0  0  0  0  0  0  0  0  0
   13.6550    3.4237   32.6780 C   0  0  0  0  0  0  0  0  0  0  0  0
   14.9886    2.9152   32.2862 C   0  0  0  0  0  0  0  0  0  0  0  0
   15.1422    1.7437   31.6554 C   0  0  0  0  0  0  0  0  0  0  0  0
   16.3841    1.4004   31.3823 N   0  0  0  0  0  0  0  0  0  0  0  0
   15.9760    3.7058   32.6329 N   0  0  0  0  0  0  0  0  0  0  0  0
   15.2564    4.7186   33.2400 C   0  0  0  0  0  0  0  0  0  0  0  0
   13.8112    4.5591   33.2690 N   0  0  0  0  0  0  0  0  0  0  0  0
  2  1  1  6  0  0  0
  2  3  1  0  0  0  0
  2  5  1  0  0  0  0
  3  4  1  0  0  0  0
  3 17  1  0  0  0  0
  5  6  1  0  0  0  0
  7  6  1  6  0  0  0
  7  8  1  0  0  0  0
  7  9  1  0  0  0  0
 10  9  1  6  0  0  0
 10 11  1  0  0  0  0
 10 12  1  0  0  0  0
 11 16  1  0  0  0  0
 12 13  1  1  0  0  0
 12 14  1  0  0  0  0
 14 15  1  1  0  0  0
 14 16  1  0  0  0  0
 16 27  1  6  0  0  0
 18 19  2  0  0  0  0
 18 23  1  0  0  0  0
 19 20  1  0  0  0  0
 20 21  2  0  0  0  0
 21 22  1  0  0  0  0
 21 27  1  0  0  0  0
 22 23  2  0  0  0  0
 22 25  1  0  0  0  0
 23 24  1  0  0  0  0
 25 26  2  0  0  0  0
 26 27  1  0  0  0  0
M  END
>  <CHROM.1>
-17.98334134,-169.28986459,67.31630474,-69.92609923,-92.40861055,65.15846724
-92.92260181,13.29429175,5.71905539,31.18127342,-2.59607300,-1.22622097,1.03232376

>  <Name>
ligand

>  <RI>
0

>  <Rbt.Current_Directory>
/home/itssahil/PROJECTS/Mol_Feturizer/Test_systems_manuscript/rnas/4aob

>  <Rbt.Executable>
rbdock ($Id: //depot/dev/client3/rdock/2013.1/src/exe/rbdock.cxx#4 $)

>  <Rbt.Library>
libRbt.so (2013.1, Build901 2013/11/27)

>  <Rbt.Parameter_File>
/export/apps/rDock/src/rDock_2013.1_src/data/scripts/dock_solv.prm

>  <Rbt.Receptor>
prm/pocket_docking_7.prm

>  <SCORE>
-16.8414

>  <SCORE.INTER>
-16.3554

>  <SCORE.INTER.CONST>
1

>  <SCORE.INTER.POLAR>
0

>  <SCORE.INTER.ROT>
7

>  <SCORE.INTER.SOLV>
16.0224

>  <SCORE.INTER.VDW>
-24.5111

>  <SCORE.INTER.norm>
-0.605755

>  <SCORE.INTRA>
-0.486045

>  <SCORE.INTRA.DIHEDRAL>
-1.0715

>  <SCORE.INTRA.DIHEDRAL.0>
6.31833

>  <SCORE.INTRA.POLAR>
0

>  <SCORE.INTRA.POLAR.0>
0

>  <SCORE.INTRA.REPUL>
0

>  <SCORE.INTRA.REPUL.0>
0

>  <SCORE.INTRA.SOLV>
-0.437366

>  <SCORE.INTRA.SOLV.lig_0>
-48.4015

>  <SCORE.INTRA.VDW>
0.26839

>  <SCORE.INTRA.VDW.0>
-2.83256

>  <SCORE.INTRA.norm>
-0.0180017

>  <SCORE.RESTR>
0

>  <SCORE.RESTR.CAVITY>
0

>  <SCORE.RESTR.norm>
0

>  <SCORE.SYSTEM>
0

>  <SCORE.SYSTEM.CONST>
0

>  <SCORE.SYSTEM.DIHEDRAL>
0

>  <SCORE.SYSTEM.SOLV>
0

>  <SCORE.SYSTEM.norm>
0

>  <SCORE.heavy>
27

>  <SCORE.norm>
-0.623757

>  <RMSD>
1.773

$$$$
ligand
 OpenBabel02271912153D
libRbt.so/2013.1/901 2013/11/27
 27 29  0  0  0  0  0  0  0  0999 V2000
   10.1902    6.8628   26.2129 N   0  0  0  0  0  0  0  0  0  0  0  0
   11.3631    6.9369   27.1168 C   0  0  2  0  0  0  0  0  0  0  0  0
   12.5162    6.2024   26.4450 C   0  0  0  0  0  0  0  0  0  0  0  0
   13.1416    5.1915   26.9081 O   0  0  0  0  0  0  0  0  0  0  0  0
   10.9765    6.3454   28.4740 C   0  0  0  0  0  0  0  0  0  0  0  0
   11.9903    6.6626   29.5652 C   0  0  0  0  0  0  0  0  0  0  0  0
   12.1637    8.3200   30.3265 S   0  0  2  0  0  0  0  0  0  0  0  0
   12.9505    9.1671   28.9576 C   0  0  0  0  0  0  0  0  0  0  0  0
   13.5455    7.9442   31.4515 C   0  0  0  0  0  0  0  0  0  0  0  0
   13.0544    7.5365   32.8133 C   0  0  1  0  0  0  0  0  0  0  0  0
   12.3487    6.2722   32.7935 O   0  0  0  0  0  0  0  0  0  0  0  0
   14.1423    7.4171   33.8559 C   0  0  1  0  0  0  0  0  0  0  0  0
   14.1610    8.5679   34.5825 O   0  0  0  0  0  0  0  0  0  0  0  0
   13.5529    6.3409   34.7372 C   0  0  1  0  0  0  0  0  0  0  0  0
   12.6904    6.9810   35.5689 O   0  0  0  0  0  0  0  0  0  0  0  0
   12.7537    5.3971   33.8115 C   0  0  2  0  0  0  0  0  0  0  0  0
   12.9082    6.6758   25.3770 O   0  0  0  0  0  0  0  0  0  0  0  0
   13.9718    0.9773   31.3304 N   0  0  0  0  0  0  0  0  0  0  0  0
   12.7307    1.5645   31.7490 C   0  0  0  0  0  0  0  0  0  0  0  0
   12.5322    2.7973   32.4190 N   0  0  0  0  0  0  0  0  0  0  0  0
   13.6386    3.3950   32.6244 C   0  0  0  0  0  0  0  0  0  0  0  0
   14.9674    2.8777   32.2278 C   0  0  0  0  0  0  0  0  0  0  0  0
   15.1121    1.6991   31.6083 C   0  0  0  0  0  0  0  0  0  0  0  0
   16.3508    1.3486   31.3294 N   0  0  0  0  0  0  0  0  0  0  0  0
   15.9601    3.6686   32.5585 N   0  0  0  0  0  0  0  0  0  0  0  0
   15.2486    4.6902   33.1602 C   0  0  0  0  0  0  0  0  0  0  0  0
   13.8032    4.5360   33.2020 N   0  0  0  0  0  0  0  0  0  0  0  0
  2  1  1  6  0  0  0
  2  3  1  0  0  0  0
  2  5  1  0  0  0  0
  3  4  1  0  0  0  0
  3 17  1  0  0  0  0
  5  6  1  0  0  0  0
  7  6  1  6  0  0  0
  7  8  1  0  0  0  0
  7  9  1  0  0  0  0
 10  9  1  6  0  0  0
 10 11  1  0  0  0  0
 10 12  1  0  0  0  0
 11 16  1  0  0  0  0
 12 13  1  1  0  0  0
 12 14  1  0  0  0  0
 14 15  1  1  0  0  0
 14 16  1  0  0  0  0
 16 27  1  6  0  0  0
 18 19  2  0  0  0  0
 18 23  1  0  0  0  0
 19 20  1  0  0  0  0
 20 21  2  0  0  0  0
 21 22  1  0  0  0  0
 21 27  1  0  0  0  0
 22 23  2  0  0  0  0
 22 25  1  0  0  0  0
 23 24  1  0  0  0  0
 25 26  2  0  0  0  0
 26 27  1  0  0  0  0
M  END
>  <CHROM.1>
-120.41727227,-166.62797919,73.60604873,-73.11251598,-92.99006542,66.76091858
-92.10356917,13.20951218,5.64444008,31.08754634,-2.65535958,-1.20149122,0.95094722

>  <Name>
ligand

>  <RI>
0

>  <Rbt.Current_Directory>
/home/itssahil/PROJECTS/Mol_Feturizer/Test_systems_manuscript/rnas/4aob

>  <Rbt.Executable>
rbdock ($Id: //depot/dev/client3/rdock/2013.1/src/exe/rbdock.cxx#4 $)

>  <Rbt.Library>
libRbt.so (2013.1, Build901 2013/11/27)

>  <Rbt.Parameter_File>
/export/apps/rDock/src/rDock_2013.1_src/data/scripts/dock_solv.prm

>  <Rbt.Receptor>
prm/pocket_docking_8.prm

>  <SCORE>
-17.0486

>  <SCORE.INTER>
-17.0636

>  <SCORE.INTER.CONST>
1

>  <SCORE.INTER.POLAR>
0

>  <SCORE.INTER.ROT>
7

>  <SCORE.INTER.SOLV>
16.4559

>  <SCORE.INTER.VDW>
-25.1277

>  <SCORE.INTER.norm>
-0.631984

>  <SCORE.INTRA>
0.014975

>  <SCORE.INTRA.DIHEDRAL>
-0.0531936

>  <SCORE.INTRA.DIHEDRAL.0>
6.31833

>  <SCORE.INTRA.POLAR>
0

>  <SCORE.INTRA.POLAR.0>
0

>  <SCORE.INTRA.REPUL>
0

>  <SCORE.INTRA.REPUL.0>
0

>  <SCORE.INTRA.SOLV>
-0.473399

>  <SCORE.INTRA.SOLV.lig_0>
-48.4015

>  <SCORE.INTRA.VDW>
0.278271

>  <SCORE.INTRA.VDW.0>
-2.83256

>  <SCORE.INTRA.norm>
0.000554631

>  <SCORE.RESTR>
0

>  <SCORE.RESTR.CAVITY>
0

>  <SCORE.RESTR.norm>
0

>  <SCORE.SYSTEM>
0

>  <SCORE.SYSTEM.CONST>
0

>  <SCORE.SYSTEM.DIHEDRAL>
0

>  <SCORE.SYSTEM.SOLV>
0

>  <SCORE.SYSTEM.norm>
0

>  <SCORE.heavy>
27

>  <SCORE.norm>
-0.631429

>  <RMSD>
1.779

$$$$
ligand
 OpenBabel02271912153D
libRbt.so/2013.1/901 2013/11/27
 27 29  0  0  0  0  0  0  0  0999 V2000
   13.7816    5.9509   26.0136 N   0  0  0  0  0  0  0  0  0  0  0  0
   13.1604    6.2479   27.3267 C   0  0  2  0  0  0  0  0  0  0  0  0
   12.0850    5.1995   27.5812 C   0  0  0  0  0  0  0  0  0  0  0  0
   10.8242    5.3940   27.5834 O   0  0  0  0  0  0  0  0  0  0  0  0
   12.6181    7.6787   27.3021 C   0  0  0  0  0  0  0  0  0  0  0  0
   13.5353    8.6684   28.0080 C   0  0  0  0  0  0  0  0  0  0  0  0
   13.5598    8.8975   29.8256 S   0  0  2  0  0  0  0  0  0  0  0  0
   15.3318    9.0221   30.0601 C   0  0  0  0  0  0  0  0  0  0  0  0
   13.1813    7.1826   30.3072 C   0  0  0  0  0  0  0  0  0  0  0  0
   12.7956    7.0881   31.7578 C   0  0  1  0  0  0  0  0  0  0  0  0
   12.2734    5.7841   32.1096 O   0  0  0  0  0  0  0  0  0  0  0  0
   13.9222    7.3856   32.7207 C   0  0  1  0  0  0  0  0  0  0  0  0
   13.8029    8.6795   33.1257 O   0  0  0  0  0  0  0  0  0  0  0  0
   13.5173    6.5129   33.8856 C   0  0  1  0  0  0  0  0  0  0  0  0
   12.6007    7.2344   34.5818 O   0  0  0  0  0  0  0  0  0  0  0  0
   12.8290    5.2658   33.2881 C   0  0  2  0  0  0  0  0  0  0  0  0
   12.4888    4.0706   27.8656 O   0  0  0  0  0  0  0  0  0  0  0  0
   14.4681    0.7523   31.2592 N   0  0  0  0  0  0  0  0  0  0  0  0
   13.1684    1.3089   31.5074 C   0  0  0  0  0  0  0  0  0  0  0  0
   12.8539    2.5727   32.0657 N   0  0  0  0  0  0  0  0  0  0  0  0
   13.9091    3.2322   32.3401 C   0  0  0  0  0  0  0  0  0  0  0  0
   15.2909    2.7508   32.1178 C   0  0  0  0  0  0  0  0  0  0  0  0
   15.5446    1.5417   31.6004 C   0  0  0  0  0  0  0  0  0  0  0  0
   16.8182    1.2303   31.4740 N   0  0  0  0  0  0  0  0  0  0  0  0
   16.2126    3.6059   32.4915 N   0  0  0  0  0  0  0  0  0  0  0  0
   15.4035    4.6315   32.9447 C   0  0  0  0  0  0  0  0  0  0  0  0
   13.9686    4.4150   32.8502 N   0  0  0  0  0  0  0  0  0  0  0  0
  2  1  1  6  0  0  0
  2  3  1  0  0  0  0
  2  5  1  0  0  0  0
  3  4  1  0  0  0  0
  3 17  1  0  0  0  0
  5  6  1  0  0  0  0
  7  6  1  6  0  0  0
  7  8  1  0  0  0  0
  7  9  1  0  0  0  0
 10  9  1  6  0  0  0
 10 11  1  0  0  0  0
 10 12  1  0  0  0  0
 11 16  1  0  0  0  0
 12 13  1  1  0  0  0
 12 14  1  0  0  0  0
 14 15  1  1  0  0  0
 14 16  1  0  0  0  0
 16 27  1  6  0  0  0
 18 19  2  0  0  0  0
 18 23  1  0  0  0  0
 19 20  1  0  0  0  0
 20 21  2  0  0  0  0
 21 22  1  0  0  0  0
 21 27  1  0  0  0  0
 22 23  2  0  0  0  0
 22 25  1  0  0  0  0
 23 24  1  0  0  0  0
 25 26  2  0  0  0  0
 26 27  1  0  0  0  0
M  END
>  <CHROM.1>
-110.20388070,-100.82626398,-81.33160853,138.44374054,-166.04523946,170.17051929
-76.91414805,13.65549026,5.52377806,30.81556329,2.86994784,-1.31856636,0.69789165

>  <Name>
ligand

>  <RI>
0

>  <Rbt.Current_Directory>
/home/itssahil/PROJECTS/Mol_Feturizer/Test_systems_manuscript/rnas/4aob

>  <Rbt.Executable>
rbdock ($Id: //depot/dev/client3/rdock/2013.1/src/exe/rbdock.cxx#4 $)

>  <Rbt.Library>
libRbt.so (2013.1, Build901 2013/11/27)

>  <Rbt.Parameter_File>
/export/apps/rDock/src/rDock_2013.1_src/data/scripts/dock_solv.prm

>  <Rbt.Receptor>
prm/pocket_docking_3.prm

>  <SCORE>
-7.85587

>  <SCORE.INTER>
-12.1376

>  <SCORE.INTER.CONST>
1

>  <SCORE.INTER.POLAR>
0

>  <SCORE.INTER.ROT>
7

>  <SCORE.INTER.SOLV>
16.398

>  <SCORE.INTER.VDW>
-21.8244

>  <SCORE.INTER.norm>
-0.449539

>  <SCORE.INTRA>
4.28168

>  <SCORE.INTRA.DIHEDRAL>
7.46157

>  <SCORE.INTRA.DIHEDRAL.0>
6.31833

>  <SCORE.INTRA.POLAR>
0

>  <SCORE.INTRA.POLAR.0>
0

>  <SCORE.INTRA.REPUL>
0

>  <SCORE.INTRA.REPUL.0>
0

>  <SCORE.INTRA.SOLV>
0.0527712

>  <SCORE.INTRA.SOLV.lig_0>
-48.4015

>  <SCORE.INTRA.VDW>
0.524511

>  <SCORE.INTRA.VDW.0>
-2.83256

>  <SCORE.INTRA.norm>
0.158581

>  <SCORE.RESTR>
0

>  <SCORE.RESTR.CAVITY>
0

>  <SCORE.RESTR.norm>
0

>  <SCORE.SYSTEM>
0

>  <SCORE.SYSTEM.CONST>
0

>  <SCORE.SYSTEM.DIHEDRAL>
0

>  <SCORE.SYSTEM.SOLV>
0

>  <SCORE.SYSTEM.norm>
0

>  <SCORE.heavy>
27

>  <SCORE.norm>
-0.290958

>  <RMSD>
1.782

$$$$
ligand
 OpenBabel02271912153D
libRbt.so/2013.1/901 2013/11/27
 27 29  0  0  0  0  0  0  0  0999 V2000
   16.6986    3.6147   28.5206 N   0  0  0  0  0  0  0  0  0  0  0  0
   15.5415    4.2224   29.2207 C   0  0  2  0  0  0  0  0  0  0  0  0
   14.2714    3.6419   28.6123 C   0  0  0  0  0  0  0  0  0  0  0  0
   14.0370    3.4717   27.3699 O   0  0  0  0  0  0  0  0  0  0  0  0
   15.6335    5.7446   29.0935 C   0  0  0  0  0  0  0  0  0  0  0  0
   14.8975    6.4745   30.2091 C   0  0  0  0  0  0  0  0  0  0  0  0
   13.1449    6.1539   30.6361 S   0  0  2  0  0  0  0  0  0  0  0  0
   12.4172    6.4275   29.0217 C   0  0  0  0  0  0  0  0  0  0  0  0
   12.8085    7.7054   31.5283 C   0  0  0  0  0  0  0  0  0  0  0  0
   12.9186    7.5220   33.0169 C   0  0  1  0  0  0  0  0  0  0  0  0
   12.3460    6.2701   33.4659 O   0  0  0  0  0  0  0  0  0  0  0  0
   14.3336    7.5738   33.5462 C   0  0  1  0  0  0  0  0  0  0  0  0
   14.5606    8.8267   34.0271 O   0  0  0  0  0  0  0  0  0  0  0  0
   14.2088    6.6529   34.7373 C   0  0  1  0  0  0  0  0  0  0  0  0
   13.7018    7.4177   35.7391 O   0  0  0  0  0  0  0  0  0  0  0  0
   13.1741    5.5712   34.3559 C   0  0  2  0  0  0  0  0  0  0  0  0
   13.3703    3.3659   29.4061 O   0  0  0  0  0  0  0  0  0  0  0  0
   13.2506    1.2209   31.4846 N   0  0  0  0  0  0  0  0  0  0  0  0
   12.2087    1.9364   32.1651 C   0  0  0  0  0  0  0  0  0  0  0  0
   12.3204    3.1325   32.9166 N   0  0  0  0  0  0  0  0  0  0  0  0
   13.5205    3.5608   32.9279 C   0  0  0  0  0  0  0  0  0  0  0  0
   14.6618    2.9011   32.2550 C   0  0  0  0  0  0  0  0  0  0  0  0
   14.5152    1.7620   31.5661 C   0  0  0  0  0  0  0  0  0  0  0  0
   15.6153    1.2707   31.0337 N   0  0  0  0  0  0  0  0  0  0  0  0
   15.8029    3.5263   32.4203 N   0  0  0  0  0  0  0  0  0  0  0  0
   15.3728    4.5872   33.1959 C   0  0  0  0  0  0  0  0  0  0  0  0
   13.9543    4.6245   33.5135 N   0  0  0  0  0  0  0  0  0  0  0  0
  2  1  1  6  0  0  0
  2  3  1  0  0  0  0
  2  5  1  0  0  0  0
  3  4  1  0  0  0  0
  3 17  1  0  0  0  0
  5  6  1  0  0  0  0
  7  6  1  6  0  0  0
  7  8  1  0  0  0  0
  7  9  1  0  0  0  0
 10  9  1  6  0  0  0
 10 11  1  0  0  0  0
 10 12  1  0  0  0  0
 11 16  1  0  0  0  0
 12 13  1  1  0  0  0
 12 14  1  0  0  0  0
 14 15  1  1  0  0  0
 14 16  1  0  0  0  0
 16 27  1  6  0  0  0
 18 19  2  0  0  0  0
 18 23  1  0  0  0  0
 19 20  1  0  0  0  0
 20 21  2  0  0  0  0
 21 22  1  0  0  0  0
 21 27  1  0  0  0  0
 22 23  2  0  0  0  0
 22 25  1  0  0  0  0
 23 24  1  0  0  0  0
 25 26  2  0  0  0  0
 26 27  1  0  0  0  0
M  END
>  <CHROM.1>
-43.87793894,-155.59652755,-53.04020278,-54.98279368,-98.10891968,-40.56088762
-71.94208618,13.98911283,4.91355205,31.63547496,-0.26179616,1.40993180,-0.47806099

>  <Name>
ligand

>  <RI>
0

>  <Rbt.Current_Directory>
/home/itssahil/PROJECTS/Mol_Feturizer/Test_systems_manuscript/rnas/4aob

>  <Rbt.Executable>
rbdock ($Id: //depot/dev/client3/rdock/2013.1/src/exe/rbdock.cxx#4 $)

>  <Rbt.Library>
libRbt.so (2013.1, Build901 2013/11/27)

>  <Rbt.Parameter_File>
/export/apps/rDock/src/rDock_2013.1_src/data/scripts/dock_solv.prm

>  <Rbt.Receptor>
prm/pocket_docking_4.prm

>  <SCORE>
-13.9017

>  <SCORE.INTER>
-12.3293

>  <SCORE.INTER.CONST>
1

>  <SCORE.INTER.POLAR>
0

>  <SCORE.INTER.ROT>
7

>  <SCORE.INTER.SOLV>
14.9071

>  <SCORE.INTER.VDW>
-21.4552

>  <SCORE.INTER.norm>
-0.456641

>  <SCORE.INTRA>
-1.57235

>  <SCORE.INTRA.DIHEDRAL>
2.67931

>  <SCORE.INTRA.DIHEDRAL.0>
6.31833

>  <SCORE.INTRA.POLAR>
0

>  <SCORE.INTRA.POLAR.0>
0

>  <SCORE.INTRA.REPUL>
0

>  <SCORE.INTRA.REPUL.0>
0

>  <SCORE.INTRA.SOLV>
2.93496

>  <SCORE.INTRA.SOLV.lig_0>
-48.4015

>  <SCORE.INTRA.VDW>
-4.37948

>  <SCORE.INTRA.VDW.0>
-2.83256

>  <SCORE.INTRA.norm>
-0.058235

>  <SCORE.RESTR>
0

>  <SCORE.RESTR.CAVITY>
0

>  <SCORE.RESTR.norm>
0

>  <SCORE.SYSTEM>
0

>  <SCORE.SYSTEM.CONST>
0

>  <SCORE.SYSTEM.DIHEDRAL>
0

>  <SCORE.SYSTEM.SOLV>
0

>  <SCORE.SYSTEM.norm>
0

>  <SCORE.heavy>
27

>  <SCORE.norm>
-0.514876

>  <RMSD>
1.790

$$$$
ligand
 OpenBabel02271912153D
libRbt.so/2013.1/901 2013/11/27
 27 29  0  0  0  0  0  0  0  0999 V2000
   12.0834    4.6684   27.5047 N   0  0  0  0  0  0  0  0  0  0  0  0
   13.1387    5.5636   26.9725 C   0  0  2  0  0  0  0  0  0  0  0  0
   14.2467    4.6890   26.4001 C   0  0  0  0  0  0  0  0  0  0  0  0
   15.0576    5.0083   25.4685 O   0  0  0  0  0  0  0  0  0  0  0  0
   13.6145    6.4860   28.0969 C   0  0  0  0  0  0  0  0  0  0  0  0
   12.4644    7.1680   28.8258 C   0  0  0  0  0  0  0  0  0  0  0  0
   12.7067    8.4672   30.0947 S   0  0  2  0  0  0  0  0  0  0  0  0
   13.8301    9.5278   29.1870 C   0  0  0  0  0  0  0  0  0  0  0  0
   13.8023    7.5358   31.2120 C   0  0  0  0  0  0  0  0  0  0  0  0
   13.2375    7.4605   32.6039 C   0  0  1  0  0  0  0  0  0  0  0  0
   12.0947    6.5755   32.6922 O   0  0  0  0  0  0  0  0  0  0  0  0
   14.2276    7.0069   33.6522 C   0  0  1  0  0  0  0  0  0  0  0  0
   14.7178    8.1116   34.2781 O   0  0  0  0  0  0  0  0  0  0  0  0
   13.2955    6.3194   34.6223 C   0  0  1  0  0  0  0  0  0  0  0  0
   12.7794    7.3087   35.3970 O   0  0  0  0  0  0  0  0  0  0  0  0
   12.1609    5.6942   33.7808 C   0  0  2  0  0  0  0  0  0  0  0  0
   14.3190    3.5450   26.8524 O   0  0  0  0  0  0  0  0  0  0  0  0
   13.5726    2.8762   29.6286 N   0  0  0  0  0  0  0  0  0  0  0  0
   13.0129    4.1885   29.7870 C   0  0  0  0  0  0  0  0  0  0  0  0
   12.6775    4.8530   30.9927 N   0  0  0  0  0  0  0  0  0  0  0  0
   12.9482    4.1325   32.0083 C   0  0  0  0  0  0  0  0  0  0  0  0
   13.5302    2.7728   31.9514 C   0  0  0  0  0  0  0  0  0  0  0  0
   13.8192    2.1746   30.7885 C   0  0  0  0  0  0  0  0  0  0  0  0
   14.3139    0.9572   30.8797 N   0  0  0  0  0  0  0  0  0  0  0  0
   13.7074    2.2266   33.1307 N   0  0  0  0  0  0  0  0  0  0  0  0
   13.2396    3.2525   33.9311 C   0  0  0  0  0  0  0  0  0  0  0  0
   12.7706    4.4465   33.2462 N   0  0  0  0  0  0  0  0  0  0  0  0
  2  1  1  1  0  0  0
  2  3  1  0  0  0  0
  2  5  1  0  0  0  0
  3  4  1  0  0  0  0
  3 17  1  0  0  0  0
  5  6  1  0  0  0  0
  7  6  1  6  0  0  0
  7  8  1  0  0  0  0
  7  9  1  0  0  0  0
 10  9  1  6  0  0  0
 10 11  1  0  0  0  0
 10 12  1  0  0  0  0
 11 16  1  0  0  0  0
 12 13  1  1  0  0  0
 12 14  1  0  0  0  0
 14 15  1  1  0  0  0
 14 16  1  0  0  0  0
 16 27  1  6  0  0  0
 18 19  2  0  0  0  0
 18 23  1  0  0  0  0
 19 20  1  0  0  0  0
 20 21  2  0  0  0  0
 21 22  1  0  0  0  0
 21 27  1  0  0  0  0
 22 23  2  0  0  0  0
 22 25  1  0  0  0  0
 23 24  1  0  0  0  0
 25 26  2  0  0  0  0
 26 27  1  0  0  0  0
M  END
>  <CHROM.1>
153.20936559,-49.83262457,-173.09111249,49.70492761,-123.17000785,71.98168479
-12.80521905,13.36397664,5.51565428,30.83235585,-0.52256621,-1.47407997,2.39274270

>  <Name>
ligand

>  <RI>
0

>  <Rbt.Current_Directory>
/home/itssahil/PROJECTS/Mol_Feturizer/Test_systems_manuscript/rnas/4aob

>  <Rbt.Executable>
rbdock ($Id: //depot/dev/client3/rdock/2013.1/src/exe/rbdock.cxx#4 $)

>  <Rbt.Library>
libRbt.so (2013.1, Build901 2013/11/27)

>  <Rbt.Parameter_File>
/export/apps/rDock/src/rDock_2013.1_src/data/scripts/dock_solv.prm

>  <Rbt.Receptor>
prm/pocket_docking_2.prm

>  <SCORE>
-6.40088

>  <SCORE.INTER>
-11.0953

>  <SCORE.INTER.CONST>
1

>  <SCORE.INTER.POLAR>
0

>  <SCORE.INTER.ROT>
7

>  <SCORE.INTER.SOLV>
21.3298

>  <SCORE.INTER.VDW>
-22.7734

>  <SCORE.INTER.norm>
-0.410936

>  <SCORE.INTRA>
4.05623

>  <SCORE.INTRA.DIHEDRAL>
2.07248

>  <SCORE.INTRA.DIHEDRAL.0>
6.31833

>  <SCORE.INTRA.POLAR>
0

>  <SCORE.INTRA.POLAR.0>
0

>  <SCORE.INTRA.REPUL>
0

>  <SCORE.INTRA.REPUL.0>
0

>  <SCORE.INTRA.SOLV>
1.64314

>  <SCORE.INTRA.SOLV.lig_0>
-48.4015

>  <SCORE.INTRA.VDW>
2.19841

>  <SCORE.INTRA.VDW.0>
-2.83256

>  <SCORE.INTRA.norm>
0.150231

>  <SCORE.RESTR>
0.638159

>  <SCORE.RESTR.CAVITY>
0.638159

>  <SCORE.RESTR.norm>
0.0236355

>  <SCORE.SYSTEM>
0

>  <SCORE.SYSTEM.CONST>
0

>  <SCORE.SYSTEM.DIHEDRAL>
0

>  <SCORE.SYSTEM.SOLV>
0

>  <SCORE.SYSTEM.norm>
0

>  <SCORE.heavy>
27

>  <SCORE.norm>
-0.23707

>  <RMSD>
1.852

$$$$
ligand
 OpenBabel02271912153D
libRbt.so/2013.1/901 2013/11/27
 27 29  0  0  0  0  0  0  0  0999 V2000
   14.2961    6.3883   26.9613 N   0  0  0  0  0  0  0  0  0  0  0  0
   13.3431    6.4052   28.0969 C   0  0  2  0  0  0  0  0  0  0  0  0
   12.2809    5.3466   27.8296 C   0  0  0  0  0  0  0  0  0  0  0  0
   11.0397    5.5558   27.6218 O   0  0  0  0  0  0  0  0  0  0  0  0
   12.7697    7.8171   28.2371 C   0  0  0  0  0  0  0  0  0  0  0  0
   13.7301    8.7770   28.9267 C   0  0  0  0  0  0  0  0  0  0  0  0
   14.3076    8.5566   30.6513 S   0  0  2  0  0  0  0  0  0  0  0  0
   15.6027    7.3548   30.3530 C   0  0  0  0  0  0  0  0  0  0  0  0
   12.9186    7.5498   31.2621 C   0  0  0  0  0  0  0  0  0  0  0  0
   12.9556    7.4071   32.7589 C   0  0  1  0  0  0  0  0  0  0  0  0
   12.3755    6.1601   33.2121 O   0  0  0  0  0  0  0  0  0  0  0  0
   14.3414    7.4911   33.3568 C   0  0  1  0  0  0  0  0  0  0  0  0
   14.5292    8.7590   33.8146 O   0  0  0  0  0  0  0  0  0  0  0  0
   14.1672    6.6003   34.5646 C   0  0  1  0  0  0  0  0  0  0  0  0
   13.6014    7.3845   35.5187 O   0  0  0  0  0  0  0  0  0  0  0  0
   13.1657    5.4956   34.1610 C   0  0  2  0  0  0  0  0  0  0  0  0
   12.6623    4.1758   27.8765 O   0  0  0  0  0  0  0  0  0  0  0  0
   13.4425    1.0598   31.4368 N   0  0  0  0  0  0  0  0  0  0  0  0
   12.3595    1.7773   32.0474 C   0  0  0  0  0  0  0  0  0  0  0  0
   12.4177    2.9981   32.7644 N   0  0  0  0  0  0  0  0  0  0  0  0
   13.6088    3.4481   32.8149 C   0  0  0  0  0  0  0  0  0  0  0  0
   14.7898    2.7884   32.2145 C   0  0  0  0  0  0  0  0  0  0  0  0
   14.6931    1.6258   31.5566 C   0  0  0  0  0  0  0  0  0  0  0  0
   15.8238    1.1380   31.0892 N   0  0  0  0  0  0  0  0  0  0  0  0
   15.9119    3.4389   32.4097 N   0  0  0  0  0  0  0  0  0  0  0  0
   15.4301    4.5155   33.1313 C   0  0  0  0  0  0  0  0  0  0  0  0
   13.9983    4.5372   33.3847 N   0  0  0  0  0  0  0  0  0  0  0  0
  2  1  1  6  0  0  0
  2  3  1  0  0  0  0
  2  5  1  0  0  0  0
  3  4  1  0  0  0  0
  3 17  1  0  0  0  0
  5  6  1  0  0  0  0
  7  6  1  6  0  0  0
  7  8  1  0  0  0  0
  7  9  1  0  0  0  0
 10  9  1  6  0  0  0
 10 11  1  0  0  0  0
 10 12  1  0  0  0  0
 11 16  1  0  0  0  0
 12 13  1  1  0  0  0
 12 14  1  0  0  0  0
 14 15  1  1  0  0  0
 14 16  1  0  0  0  0
 16 27  1  6  0  0  0
 18 19  2  0  0  0  0
 18 23  1  0  0  0  0
 19 20  1  0  0  0  0
 20 21  2  0  0  0  0
 21 22  1  0  0  0  0
 21 27  1  0  0  0  0
 22 23  2  0  0  0  0
 22 25  1  0  0  0  0
 23 24  1  0  0  0  0
 25 26  2  0  0  0  0
 26 27  1  0  0  0  0
M  END
>  <CHROM.1>
-114.76311655,-78.39193001,-62.54848803,81.24451456,-169.05406828,-150.24851987
-72.47356392,13.73129409,5.58219959,31.35558008,2.41596781,-1.39846394,0.11568425

>  <Name>
ligand

>  <RI>
0

>  <Rbt.Current_Directory>
/home/itssahil/PROJECTS/Mol_Feturizer/Test_systems_manuscript/rnas/4aob

>  <Rbt.Executable>
rbdock ($Id: //depot/dev/client3/rdock/2013.1/src/exe/rbdock.cxx#4 $)

>  <Rbt.Library>
libRbt.so (2013.1, Build901 2013/11/27)

>  <Rbt.Parameter_File>
/export/apps/rDock/src/rDock_2013.1_src/data/scripts/dock_solv.prm

>  <Rbt.Receptor>
prm/pocket_docking_3.prm

>  <SCORE>
-8.44755

>  <SCORE.INTER>
-12.7535

>  <SCORE.INTER.CONST>
1

>  <SCORE.INTER.POLAR>
0

>  <SCORE.INTER.ROT>
7

>  <SCORE.INTER.SOLV>
12.7248

>  <SCORE.INTER.VDW>
-21.0106

>  <SCORE.INTER.norm>
-0.472352

>  <SCORE.INTRA>
4.3004

>  <SCORE.INTRA.DIHEDRAL>
3.91579

>  <SCORE.INTRA.DIHEDRAL.0>
6.31833

>  <SCORE.INTRA.POLAR>
0

>  <SCORE.INTRA.POLAR.0>
0

>  <SCORE.INTRA.REPUL>
0

>  <SCORE.INTRA.REPUL.0>
0

>  <SCORE.INTRA.SOLV>
1.17332

>  <SCORE.INTRA.SOLV.lig_0>
-48.4015

>  <SCORE.INTRA.VDW>
1.75585

>  <SCORE.INTRA.VDW.0>
-2.83256

>  <SCORE.INTRA.norm>
0.159274

>  <SCORE.RESTR>
0.00554149

>  <SCORE.RESTR.CAVITY>
0.00554149

>  <SCORE.RESTR.norm>
0.00020524

>  <SCORE.SYSTEM>
0

>  <SCORE.SYSTEM.CONST>
0

>  <SCORE.SYSTEM.DIHEDRAL>
0

>  <SCORE.SYSTEM.SOLV>
0

>  <SCORE.SYSTEM.norm>
0

>  <SCORE.heavy>
27

>  <SCORE.norm>
-0.312872

>  <RMSD>
1.874

$$$$
ligand
 OpenBabel02271912153D
libRbt.so/2013.1/901 2013/11/27
 27 29  0  0  0  0  0  0  0  0999 V2000
   13.4588    3.9636   29.4597 N   0  0  0  0  0  0  0  0  0  0  0  0
   13.4044    4.0217   27.9791 C   0  0  2  0  0  0  0  0  0  0  0  0
   14.8217    4.2493   27.4694 C   0  0  0  0  0  0  0  0  0  0  0  0
   15.6923    5.0308   27.9781 O   0  0  0  0  0  0  0  0  0  0  0  0
   12.4273    5.1243   27.5656 C   0  0  0  0  0  0  0  0  0  0  0  0
   12.7514    6.4684   28.2039 C   0  0  0  0  0  0  0  0  0  0  0  0
   12.0586    7.0125   29.8103 S   0  0  2  0  0  0  0  0  0  0  0  0
   12.1952    8.7841   29.5793 C   0  0  0  0  0  0  0  0  0  0  0  0
   13.4894    6.6039   30.8602 C   0  0  0  0  0  0  0  0  0  0  0  0
   13.1641    6.7546   32.3208 C   0  0  1  0  0  0  0  0  0  0  0  0
   12.0925    5.8775   32.7444 O   0  0  0  0  0  0  0  0  0  0  0  0
   14.3320    6.5015   33.2466 C   0  0  1  0  0  0  0  0  0  0  0  0
   14.8675    7.7042   33.5917 O   0  0  0  0  0  0  0  0  0  0  0  0
   13.6034    5.9713   34.4593 C   0  0  1  0  0  0  0  0  0  0  0  0
   13.1768    7.0681   35.1379 O   0  0  0  0  0  0  0  0  0  0  0  0
   12.3759    5.1937   33.9352 C   0  0  2  0  0  0  0  0  0  0  0  0
   15.1239    3.6561   26.4325 O   0  0  0  0  0  0  0  0  0  0  0  0
   16.2493    2.5806   31.6238 N   0  0  0  0  0  0  0  0  0  0  0  0
   16.0405    3.9667   31.9332 C   0  0  0  0  0  0  0  0  0  0  0  0
   14.9282    4.5563   32.5835 N   0  0  0  0  0  0  0  0  0  0  0  0
   14.0635    3.6782   32.9076 C   0  0  0  0  0  0  0  0  0  0  0  0
   14.1871    2.2280   32.6392 C   0  0  0  0  0  0  0  0  0  0  0  0
   15.2501    1.7130   32.0078 C   0  0  0  0  0  0  0  0  0  0  0  0
   15.2245    0.4102   31.8153 N   0  0  0  0  0  0  0  0  0  0  0  0
   13.1612    1.5260   33.0577 N   0  0  0  0  0  0  0  0  0  0  0  0
   12.3933    2.5416   33.5970 C   0  0  0  0  0  0  0  0  0  0  0  0
   12.9457    3.8844   33.5164 N   0  0  0  0  0  0  0  0  0  0  0  0
  2  1  1  1  0  0  0
  2  3  1  0  0  0  0
  2  5  1  0  0  0  0
  3  4  1  0  0  0  0
  3 17  1  0  0  0  0
  5  6  1  0  0  0  0
  7  6  1  6  0  0  0
  7  8  1  0  0  0  0
  7  9  1  0  0  0  0
 10  9  1  6  0  0  0
 10 11  1  0  0  0  0
 10 12  1  0  0  0  0
 11 16  1  0  0  0  0
 12 13  1  1  0  0  0
 12 14  1  0  0  0  0
 14 15  1  1  0  0  0
 14 16  1  0  0  0  0
 16 27  1  6  0  0  0
 18 19  2  0  0  0  0
 18 23  1  0  0  0  0
 19 20  1  0  0  0  0
 20 21  2  0  0  0  0
 21 22  1  0  0  0  0
 21 27  1  0  0  0  0
 22 23  2  0  0  0  0
 22 25  1  0  0  0  0
 23 24  1  0  0  0  0
 25 26  2  0  0  0  0
 26 27  1  0  0  0  0
M  END
>  <CHROM.1>
-40.76558642,53.76501749,-90.44969462,-155.47386459,-171.69944515,60.89812911
66.17617165,13.74174933,4.89154156,31.24384493,-1.51744614,-1.18947727,1.70233760

>  <Name>
ligand

>  <RI>
0

>  <Rbt.Current_Directory>
/home/itssahil/PROJECTS/Mol_Feturizer/Test_systems_manuscript/rnas/4aob

>  <Rbt.Executable>
rbdock ($Id: //depot/dev/client3/rdock/2013.1/src/exe/rbdock.cxx#4 $)

>  <Rbt.Library>
libRbt.so (2013.1, Build901 2013/11/27)

>  <Rbt.Parameter_File>
/export/apps/rDock/src/rDock_2013.1_src/data/scripts/dock_solv.prm

>  <Rbt.Receptor>
prm/pocket_docking_2.prm

>  <SCORE>
0.976752

>  <SCORE.INTER>
-15.1194

>  <SCORE.INTER.CONST>
1

>  <SCORE.INTER.POLAR>
0

>  <SCORE.INTER.ROT>
7

>  <SCORE.INTER.SOLV>
17.5292

>  <SCORE.INTER.VDW>
-24.1893

>  <SCORE.INTER.norm>
-0.559978

>  <SCORE.INTRA>
16.0913

>  <SCORE.INTRA.DIHEDRAL>
2.91872

>  <SCORE.INTRA.DIHEDRAL.0>
6.31833

>  <SCORE.INTRA.POLAR>
0

>  <SCORE.INTRA.POLAR.0>
0

>  <SCORE.INTRA.REPUL>
0

>  <SCORE.INTRA.REPUL.0>
0

>  <SCORE.INTRA.SOLV>
3.72122

>  <SCORE.INTRA.SOLV.lig_0>
-48.4015

>  <SCORE.INTRA.VDW>
12.7713

>  <SCORE.INTRA.VDW.0>
-2.83256

>  <SCORE.INTRA.norm>
0.595973

>  <SCORE.RESTR>
0.00488688

>  <SCORE.RESTR.CAVITY>
0.00488688

>  <SCORE.RESTR.norm>
0.000180995

>  <SCORE.SYSTEM>
0

>  <SCORE.SYSTEM.CONST>
0

>  <SCORE.SYSTEM.DIHEDRAL>
0

>  <SCORE.SYSTEM.SOLV>
0

>  <SCORE.SYSTEM.norm>
0

>  <SCORE.heavy>
27

>  <SCORE.norm>
0.036176

>  <RMSD>
1.886

$$$$
ligand
 OpenBabel02271912153D
libRbt.so/2013.1/901 2013/11/27
 27 29  0  0  0  0  0  0  0  0999 V2000
   12.7251    7.4893   26.2771 N   0  0  0  0  0  0  0  0  0  0  0  0
   14.0887    6.9129   26.3592 C   0  0  2  0  0  0  0  0  0  0  0  0
   14.2983    6.0353   25.1320 C   0  0  0  0  0  0  0  0  0  0  0  0
   13.7014    6.1484   24.0102 O   0  0  0  0  0  0  0  0  0  0  0  0
   14.2219    6.1505   27.6793 C   0  0  0  0  0  0  0  0  0  0  0  0
   13.9454    7.0250   28.8951 C   0  0  0  0  0  0  0  0  0  0  0  0
   13.9378    6.3871   30.6125 S   0  0  2  0  0  0  0  0  0  0  0  0
   12.6485    5.1549   30.4393 C   0  0  0  0  0  0  0  0  0  0  0  0
   13.0888    7.7897   31.4051 C   0  0  0  0  0  0  0  0  0  0  0  0
   12.9102    7.5650   32.8815 C   0  0  1  0  0  0  0  0  0  0  0  0
   12.2699    6.3003   33.1770 O   0  0  0  0  0  0  0  0  0  0  0  0
   14.1958    7.6039   33.6757 C   0  0  1  0  0  0  0  0  0  0  0  0
   14.3170    8.8431   34.2252 O   0  0  0  0  0  0  0  0  0  0  0  0
   13.8490    6.6499   34.7947 C   0  0  1  0  0  0  0  0  0  0  0  0
   13.1528    7.3857   35.6999 O   0  0  0  0  0  0  0  0  0  0  0  0
   12.9149    5.5779   34.1911 C   0  0  2  0  0  0  0  0  0  0  0  0
   15.0829    5.0950   25.2687 O   0  0  0  0  0  0  0  0  0  0  0  0
   13.6201    1.1204   31.5818 N   0  0  0  0  0  0  0  0  0  0  0  0
   12.4605    1.7847   32.1059 C   0  0  0  0  0  0  0  0  0  0  0  0
   12.4024    3.0186   32.8000 N   0  0  0  0  0  0  0  0  0  0  0  0
   13.5604    3.5370   32.9187 C   0  0  0  0  0  0  0  0  0  0  0  0
   14.8137    2.9363   32.4100 C   0  0  0  0  0  0  0  0  0  0  0  0
   14.8262    1.7592   31.7710 C   0  0  0  0  0  0  0  0  0  0  0  0
   16.0109    1.3295   31.3883 N   0  0  0  0  0  0  0  0  0  0  0  0
   15.8821    3.6534   32.6645 N   0  0  0  0  0  0  0  0  0  0  0  0
   15.2939    4.7124   33.3310 C   0  0  0  0  0  0  0  0  0  0  0  0
   13.8495    4.6561   33.4903 N   0  0  0  0  0  0  0  0  0  0  0  0
  2  1  1  6  0  0  0
  2  3  1  0  0  0  0
  2  5  1  0  0  0  0
  3  4  1  0  0  0  0
  3 17  1  0  0  0  0
  5  6  1  0  0  0  0
  7  6  1  6  0  0  0
  7  8  1  0  0  0  0
  7  9  1  0  0  0  0
 10  9  1  6  0  0  0
 10 11  1  0  0  0  0
 10 12  1  0  0  0  0
 11 16  1  0  0  0  0
 12 13  1  1  0  0  0
 12 14  1  0  0  0  0
 14 15  1  1  0  0  0
 14 16  1  0  0  0  0
 16 27  1  6  0  0  0
 18 19  2  0  0  0  0
 18 23  1  0  0  0  0
 19 20  1  0  0  0  0
 20 21  2  0  0  0  0
 21 22  1  0  0  0  0
 21 27  1  0  0  0  0
 22 23  2  0  0  0  0
 22 25  1  0  0  0  0
 23 24  1  0  0  0  0
 25 26  2  0  0  0  0
 26 27  1  0  0  0  0
M  END
>  <CHROM.1>
24.98569767,-57.40575973,176.68853581,-59.05122176,179.60753994,-52.85519346
-79.58991886,13.84367220,5.40677811,31.01937949,1.34186540,1.40454173,-1.24922744

>  <Name>
ligand

>  <RI>
0

>  <Rbt.Current_Directory>
/home/itssahil/PROJECTS/Mol_Feturizer/Test_systems_manuscript/rnas/4aob

>  <Rbt.Executable>
rbdock ($Id: //depot/dev/client3/rdock/2013.1/src/exe/rbdock.cxx#4 $)

>  <Rbt.Library>
libRbt.so (2013.1, Build901 2013/11/27)

>  <Rbt.Parameter_File>
/export/apps/rDock/src/rDock_2013.1_src/data/scripts/dock_solv.prm

>  <Rbt.Receptor>
prm/pocket_docking_5.prm

>  <SCORE>
-12.7258

>  <SCORE.INTER>
-12.0059

>  <SCORE.INTER.CONST>
1

>  <SCORE.INTER.POLAR>
0

>  <SCORE.INTER.ROT>
7

>  <SCORE.INTER.SOLV>
12.8326

>  <SCORE.INTER.VDW>
-20.5481

>  <SCORE.INTER.norm>
-0.444664

>  <SCORE.INTRA>
-0.71986

>  <SCORE.INTRA.DIHEDRAL>
-2.31237

>  <SCORE.INTRA.DIHEDRAL.0>
6.31833

>  <SCORE.INTRA.POLAR>
0

>  <SCORE.INTRA.POLAR.0>
0

>  <SCORE.INTRA.REPUL>
0

>  <SCORE.INTRA.REPUL.0>
0

>  <SCORE.INTRA.SOLV>
0.227209

>  <SCORE.INTRA.SOLV.lig_0>
-48.4015

>  <SCORE.INTRA.VDW>
0.32272

>  <SCORE.INTRA.VDW.0>
-2.83256

>  <SCORE.INTRA.norm>
-0.0266615

>  <SCORE.RESTR>
0

>  <SCORE.RESTR.CAVITY>
0

>  <SCORE.RESTR.norm>
0

>  <SCORE.SYSTEM>
0

>  <SCORE.SYSTEM.CONST>
0

>  <SCORE.SYSTEM.DIHEDRAL>
0

>  <SCORE.SYSTEM.SOLV>
0

>  <SCORE.SYSTEM.norm>
0

>  <SCORE.heavy>
27

>  <SCORE.norm>
-0.471325

>  <RMSD>
1.956

$$$$
ligand
 OpenBabel02271912153D
libRbt.so/2013.1/901 2013/11/27
 27 29  0  0  0  0  0  0  0  0999 V2000
   11.9826    4.6152   27.6275 N   0  0  0  0  0  0  0  0  0  0  0  0
   13.2209    5.4302   27.6591 C   0  0  2  0  0  0  0  0  0  0  0  0
   14.4008    4.4939   27.4327 C   0  0  0  0  0  0  0  0  0  0  0  0
   14.3377    3.2480   27.1656 O   0  0  0  0  0  0  0  0  0  0  0  0
   13.2858    6.1749   28.9944 C   0  0  0  0  0  0  0  0  0  0  0  0
   14.4641    7.1362   29.0760 C   0  0  0  0  0  0  0  0  0  0  0  0
   14.7989    8.1961   30.5323 S   0  0  2  0  0  0  0  0  0  0  0  0
   16.4869    8.6594   30.1492 C   0  0  0  0  0  0  0  0  0  0  0  0
   14.9859    6.8772   31.7741 C   0  0  0  0  0  0  0  0  0  0  0  0
   13.8691    6.9037   32.7811 C   0  0  1  0  0  0  0  0  0  0  0  0
   12.7102    6.1532   32.3447 O   0  0  0  0  0  0  0  0  0  0  0  0
   14.2494    6.3732   34.1445 C   0  0  1  0  0  0  0  0  0  0  0  0
   14.5397    7.4341   34.9461 O   0  0  0  0  0  0  0  0  0  0  0  0
   12.9187    5.8202   34.5982 C   0  0  1  0  0  0  0  0  0  0  0  0
   12.2318    6.8818   35.0947 O   0  0  0  0  0  0  0  0  0  0  0  0
   12.1992    5.3008   33.3339 C   0  0  2  0  0  0  0  0  0  0  0  0
   15.5192    4.9900   27.5794 O   0  0  0  0  0  0  0  0  0  0  0  0
   15.3776    2.3882   30.4032 N   0  0  0  0  0  0  0  0  0  0  0  0
   15.0071    3.7748   30.3791 C   0  0  0  0  0  0  0  0  0  0  0  0
   14.1239    4.4560   31.2532 N   0  0  0  0  0  0  0  0  0  0  0  0
   13.6577    3.6716   32.1426 C   0  0  0  0  0  0  0  0  0  0  0  0
   13.9809    2.2317   32.2560 C   0  0  0  0  0  0  0  0  0  0  0  0
   14.8106    1.6228   31.3988 C   0  0  0  0  0  0  0  0  0  0  0  0
   14.9964    0.3346   31.6010 N   0  0  0  0  0  0  0  0  0  0  0  0
   13.3672    1.6311   33.2474 N   0  0  0  0  0  0  0  0  0  0  0  0
   12.6601    2.7022   33.7619 C   0  0  0  0  0  0  0  0  0  0  0  0
   12.8368    3.9789   33.0883 N   0  0  0  0  0  0  0  0  0  0  0  0
  2  1  1  1  0  0  0
  2  3  1  0  0  0  0
  2  5  1  0  0  0  0
  3  4  1  0  0  0  0
  3 17  1  0  0  0  0
  5  6  1  0  0  0  0
  7  6  1  6  0  0  0
  7  8  1  0  0  0  0
  7  9  1  0  0  0  0
 10  9  1  6  0  0  0
 10 11  1  0  0  0  0
 10 12  1  0  0  0  0
 11 16  1  0  0  0  0
 12 13  1  1  0  0  0
 12 14  1  0  0  0  0
 14 15  1  6  0  0  0
 14 16  1  0  0  0  0
 16 27  1  6  0  0  0
 18 19  2  0  0  0  0
 18 23  1  0  0  0  0
 19 20  1  0  0  0  0
 20 21  2  0  0  0  0
 21 22  1  0  0  0  0
 21 27  1  0  0  0  0
 22 23  2  0  0  0  0
 22 25  1  0  0  0  0
 23 24  1  0  0  0  0
 25 26  2  0  0  0  0
 26 27  1  0  0  0  0
M  END
>  <CHROM.1>
4.68546801,-175.01697021,178.86199348,164.84269932,-112.65614793,86.45195772
-1.75091143,14.01128087,5.09693199,31.23942346,0.58456515,-1.36778674,-2.75590257

>  <Name>
ligand

>  <RI>
0

>  <Rbt.Current_Directory>
/home/itssahil/PROJECTS/Mol_Feturizer/Test_systems_manuscript/rnas/4aob

>  <Rbt.Executable>
rbdock ($Id: //depot/dev/client3/rdock/2013.1/src/exe/rbdock.cxx#4 $)

>  <Rbt.Library>
libRbt.so (2013.1, Build901 2013/11/27)

>  <Rbt.Parameter_File>
/export/apps/rDock/src/rDock_2013.1_src/data/scripts/dock_solv.prm

>  <Rbt.Receptor>
prm/pocket_docking_2.prm

>  <SCORE>
-4.67717

>  <SCORE.INTER>
-8.09922

>  <SCORE.INTER.CONST>
1

>  <SCORE.INTER.POLAR>
0

>  <SCORE.INTER.ROT>
7

>  <SCORE.INTER.SOLV>
21.9505

>  <SCORE.INTER.VDW>
-20.983

>  <SCORE.INTER.norm>
-0.299971

>  <SCORE.INTRA>
2.3506

>  <SCORE.INTRA.DIHEDRAL>
2.71384

>  <SCORE.INTRA.DIHEDRAL.0>
6.31833

>  <SCORE.INTRA.POLAR>
0

>  <SCORE.INTRA.POLAR.0>
0

>  <SCORE.INTRA.REPUL>
0

>  <SCORE.INTRA.REPUL.0>
0

>  <SCORE.INTRA.SOLV>
-0.659015

>  <SCORE.INTRA.SOLV.lig_0>
-48.4015

>  <SCORE.INTRA.VDW>
1.32319

>  <SCORE.INTRA.VDW.0>
-2.83256

>  <SCORE.INTRA.norm>
0.0870593

>  <SCORE.RESTR>
1.07144

>  <SCORE.RESTR.CAVITY>
1.07144

>  <SCORE.RESTR.norm>
0.0396831

>  <SCORE.SYSTEM>
0

>  <SCORE.SYSTEM.CONST>
0

>  <SCORE.SYSTEM.DIHEDRAL>
0

>  <SCORE.SYSTEM.SOLV>
0

>  <SCORE.SYSTEM.norm>
0

>  <SCORE.heavy>
27

>  <SCORE.norm>
-0.173229

>  <RMSD>
1.959

$$$$
ligand
 OpenBabel02271912153D
libRbt.so/2013.1/901 2013/11/27
 27 29  0  0  0  0  0  0  0  0999 V2000
   13.4155    6.5860   26.1278 N   0  0  0  0  0  0  0  0  0  0  0  0
   14.1337    6.2403   27.3780 C   0  0  2  0  0  0  0  0  0  0  0  0
   14.3484    4.7323   27.3901 C   0  0  0  0  0  0  0  0  0  0  0  0
   13.4795    3.8467   27.6870 O   0  0  0  0  0  0  0  0  0  0  0  0
   13.3181    6.7459   28.5699 C   0  0  0  0  0  0  0  0  0  0  0  0
   13.3329    8.2638   28.6924 C   0  0  0  0  0  0  0  0  0  0  0  0
   14.7915    9.2128   29.2656 S   0  0  2  0  0  0  0  0  0  0  0  0
   15.8843    8.8942   27.8819 C   0  0  0  0  0  0  0  0  0  0  0  0
   15.3679    8.0525   30.5454 C   0  0  0  0  0  0  0  0  0  0  0  0
   14.5069    8.1155   31.7769 C   0  0  1  0  0  0  0  0  0  0  0  0
   13.1887    7.5560   31.5619 O   0  0  0  0  0  0  0  0  0  0  0  0
   15.0923    7.4132   32.9807 C   0  0  1  0  0  0  0  0  0  0  0  0
   15.6918    8.3485   33.7669 O   0  0  0  0  0  0  0  0  0  0  0  0
   13.8257    6.9832   33.6830 C   0  0  1  0  0  0  0  0  0  0  0  0
   13.4151    8.0666   34.3922 O   0  0  0  0  0  0  0  0  0  0  0  0
   12.7876    6.6794   32.5802 C   0  0  2  0  0  0  0  0  0  0  0  0
   15.4924    4.3482   27.1406 O   0  0  0  0  0  0  0  0  0  0  0  0
   12.8881    1.5442   33.4713 N   0  0  0  0  0  0  0  0  0  0  0  0
   12.3347    2.6595   34.1858 C   0  0  0  0  0  0  0  0  0  0  0  0
   12.3693    4.0293   33.8249 N   0  0  0  0  0  0  0  0  0  0  0  0
   12.9723    4.1999   32.7154 C   0  0  0  0  0  0  0  0  0  0  0  0
   13.5712    3.1184   31.9017 C   0  0  0  0  0  0  0  0  0  0  0  0
   13.5290    1.8363   32.2870 C   0  0  0  0  0  0  0  0  0  0  0  0
   14.1176    0.9776   31.4801 N   0  0  0  0  0  0  0  0  0  0  0  0
   14.1487    3.5442   30.8037 N   0  0  0  0  0  0  0  0  0  0  0  0
   13.9047    4.8996   30.9272 C   0  0  0  0  0  0  0  0  0  0  0  0
   13.1680    5.3204   32.1083 N   0  0  0  0  0  0  0  0  0  0  0  0
  2  1  1  6  0  0  0
  2  3  1  0  0  0  0
  2  5  1  0  0  0  0
  3  4  1  0  0  0  0
  3 17  1  0  0  0  0
  5  6  1  0  0  0  0
  7  6  1  6  0  0  0
  7  8  1  0  0  0  0
  7  9  1  0  0  0  0
 10  9  1  6  0  0  0
 10 11  1  0  0  0  0
 10 12  1  0  0  0  0
 11 16  1  0  0  0  0
 12 13  1  1  0  0  0
 12 14  1  0  0  0  0
 14 15  1  1  0  0  0
 14 16  1  0  0  0  0
 16 27  1  6  0  0  0
 18 19  2  0  0  0  0
 18 23  1  0  0  0  0
 19 20  1  0  0  0  0
 20 21  2  0  0  0  0
 21 22  1  0  0  0  0
 21 27  1  0  0  0  0
 22 23  2  0  0  0  0
 22 25  1  0  0  0  0
 23 24  1  0  0  0  0
 25 26  2  0  0  0  0
 26 27  1  0  0  0  0
M  END
>  <CHROM.1>
-78.46533170,-71.00068482,-73.26928035,67.44874117,-75.53663895,70.47015329
-178.87754820,13.95931138,5.87706304,30.81574918,0.23590815,-1.35634700,-2.13189521

>  <Name>
ligand

>  <RI>
0

>  <Rbt.Current_Directory>
/home/itssahil/PROJECTS/Mol_Feturizer/Test_systems_manuscript/rnas/4aob

>  <Rbt.Executable>
rbdock ($Id: //depot/dev/client3/rdock/2013.1/src/exe/rbdock.cxx#4 $)

>  <Rbt.Library>
libRbt.so (2013.1, Build901 2013/11/27)

>  <Rbt.Parameter_File>
/export/apps/rDock/src/rDock_2013.1_src/data/scripts/dock_solv.prm

>  <Rbt.Receptor>
prm/pocket_docking_3.prm

>  <SCORE>
-11.5171

>  <SCORE.INTER>
-10.846

>  <SCORE.INTER.CONST>
1

>  <SCORE.INTER.POLAR>
0

>  <SCORE.INTER.ROT>
7

>  <SCORE.INTER.SOLV>
14.968

>  <SCORE.INTER.VDW>
-20.4867

>  <SCORE.INTER.norm>
-0.401702

>  <SCORE.INTRA>
-0.673536

>  <SCORE.INTRA.DIHEDRAL>
-0.893666

>  <SCORE.INTRA.DIHEDRAL.0>
6.31833

>  <SCORE.INTRA.POLAR>
0

>  <SCORE.INTRA.POLAR.0>
0

>  <SCORE.INTRA.REPUL>
0

>  <SCORE.INTRA.REPUL.0>
0

>  <SCORE.INTRA.SOLV>
0.977892

>  <SCORE.INTRA.SOLV.lig_0>
-48.4015

>  <SCORE.INTRA.VDW>
-0.71565

>  <SCORE.INTRA.VDW.0>
-2.83256

>  <SCORE.INTRA.norm>
-0.0249458

>  <SCORE.RESTR>
0.00236803

>  <SCORE.RESTR.CAVITY>
0.00236803

>  <SCORE.RESTR.norm>
8.77049e-05

>  <SCORE.SYSTEM>
0

>  <SCORE.SYSTEM.CONST>
0

>  <SCORE.SYSTEM.DIHEDRAL>
0

>  <SCORE.SYSTEM.SOLV>
0

>  <SCORE.SYSTEM.norm>
0

>  <SCORE.heavy>
27

>  <SCORE.norm>
-0.42656

>  <RMSD>
1.967

$$$$
ligand
 OpenBabel02271912153D
libRbt.so/2013.1/901 2013/11/27
 27 29  0  0  0  0  0  0  0  0999 V2000
   13.1097    3.7076   28.3448 N   0  0  0  0  0  0  0  0  0  0  0  0
   13.0985    5.1868   28.4449 C   0  0  2  0  0  0  0  0  0  0  0  0
   14.5451    5.6637   28.4615 C   0  0  0  0  0  0  0  0  0  0  0  0
   15.2137    6.0873   27.4610 O   0  0  0  0  0  0  0  0  0  0  0  0
   12.3133    5.5894   29.6951 C   0  0  0  0  0  0  0  0  0  0  0  0
   11.9075    7.0572   29.6885 C   0  0  0  0  0  0  0  0  0  0  0  0
   12.9619    8.3957   30.3619 S   0  0  2  0  0  0  0  0  0  0  0  0
   14.0382    8.6311   28.9488 C   0  0  0  0  0  0  0  0  0  0  0  0
   13.9623    7.3876   31.5017 C   0  0  0  0  0  0  0  0  0  0  0  0
   13.2568    7.1706   32.8121 C   0  0  1  0  0  0  0  0  0  0  0  0
   12.1241    6.2766   32.6914 O   0  0  0  0  0  0  0  0  0  0  0  0
   14.1388    6.6181   33.9084 C   0  0  1  0  0  0  0  0  0  0  0  0
   14.5450    7.6563   34.6891 O   0  0  0  0  0  0  0  0  0  0  0  0
   13.1209    5.8328   34.7019 C   0  0  1  0  0  0  0  0  0  0  0  0
   12.5125    6.7372   35.5126 O   0  0  0  0  0  0  0  0  0  0  0  0
   12.0894    5.2907   33.6878 C   0  0  2  0  0  0  0  0  0  0  0  0
   15.1304    5.5737   29.5421 O   0  0  0  0  0  0  0  0  0  0  0  0
   16.4874    3.1372   31.9003 N   0  0  0  0  0  0  0  0  0  0  0  0
   16.1835    4.4016   32.5082 C   0  0  0  0  0  0  0  0  0  0  0  0
   14.9262    4.8690   32.9650 N   0  0  0  0  0  0  0  0  0  0  0  0
   14.0158    3.9954   32.7868 C   0  0  0  0  0  0  0  0  0  0  0  0
   14.2272    2.6640   32.1758 C   0  0  0  0  0  0  0  0  0  0  0  0
   15.4310    2.2666   31.7433 C   0  0  0  0  0  0  0  0  0  0  0  0
   15.4760    1.0667   31.2020 N   0  0  0  0  0  0  0  0  0  0  0  0
   13.1335    1.9453   32.0888 N   0  0  0  0  0  0  0  0  0  0  0  0
   12.2329    2.8291   32.6542 C   0  0  0  0  0  0  0  0  0  0  0  0
   12.7696    4.1054   33.0988 N   0  0  0  0  0  0  0  0  0  0  0  0
  2  1  1  1  0  0  0
  2  3  1  0  0  0  0
  2  5  1  0  0  0  0
  3  4  1  0  0  0  0
  3 17  1  0  0  0  0
  5  6  1  0  0  0  0
  7  6  1  6  0  0  0
  7  8  1  0  0  0  0
  7  9  1  0  0  0  0
 10  9  1  6  0  0  0
 10 11  1  0  0  0  0
 10 12  1  0  0  0  0
 11 16  1  0  0  0  0
 12 13  1  1  0  0  0
 12 14  1  0  0  0  0
 14 15  1  1  0  0  0
 14 16  1  0  0  0  0
 16 27  1  6  0  0  0
 18 19  2  0  0  0  0
 18 23  1  0  0  0  0
 19 20  1  0  0  0  0
 20 21  2  0  0  0  0
 21 22  1  0  0  0  0
 21 27  1  0  0  0  0
 22 23  2  0  0  0  0
 22 25  1  0  0  0  0
 23 24  1  0  0  0  0
 25 26  2  0  0  0  0
 26 27  1  0  0  0  0
M  END
>  <CHROM.1>
96.96752395,-163.90438000,-88.86778409,82.10911164,-83.31051597,70.90120400
67.14534579,13.76571875,5.41771739,31.54096996,-1.69858144,-1.26240956,1.97737404

>  <Name>
ligand

>  <RI>
0

>  <Rbt.Current_Directory>
/home/itssahil/PROJECTS/Mol_Feturizer/Test_systems_manuscript/rnas/4aob

>  <Rbt.Executable>
rbdock ($Id: //depot/dev/client3/rdock/2013.1/src/exe/rbdock.cxx#4 $)

>  <Rbt.Library>
libRbt.so (2013.1, Build901 2013/11/27)

>  <Rbt.Parameter_File>
/export/apps/rDock/src/rDock_2013.1_src/data/scripts/dock_solv.prm

>  <Rbt.Receptor>
prm/pocket_docking_2.prm

>  <SCORE>
4.21455

>  <SCORE.INTER>
-10.1499

>  <SCORE.INTER.CONST>
1

>  <SCORE.INTER.POLAR>
0

>  <SCORE.INTER.ROT>
7

>  <SCORE.INTER.SOLV>
17.8193

>  <SCORE.INTER.VDW>
-20.9731

>  <SCORE.INTER.norm>
-0.375924

>  <SCORE.INTRA>
14.3341

>  <SCORE.INTRA.DIHEDRAL>
3.32292

>  <SCORE.INTRA.DIHEDRAL.0>
6.31833

>  <SCORE.INTRA.POLAR>
0

>  <SCORE.INTRA.POLAR.0>
0

>  <SCORE.INTRA.REPUL>
0

>  <SCORE.INTRA.REPUL.0>
0

>  <SCORE.INTRA.SOLV>
-0.367583

>  <SCORE.INTRA.SOLV.lig_0>
-48.4015

>  <SCORE.INTRA.VDW>
12.8564

>  <SCORE.INTRA.VDW.0>
-2.83256

>  <SCORE.INTRA.norm>
0.530892

>  <SCORE.RESTR>
0.0304058

>  <SCORE.RESTR.CAVITY>
0.0304058

>  <SCORE.RESTR.norm>
0.00112614

>  <SCORE.SYSTEM>
0

>  <SCORE.SYSTEM.CONST>
0

>  <SCORE.SYSTEM.DIHEDRAL>
0

>  <SCORE.SYSTEM.SOLV>
0

>  <SCORE.SYSTEM.norm>
0

>  <SCORE.heavy>
27

>  <SCORE.norm>
0.156095

>  <RMSD>
1.979

$$$$
ligand
 OpenBabel02271912153D
libRbt.so/2013.1/901 2013/11/27
 27 29  0  0  0  0  0  0  0  0999 V2000
   12.8216    7.0606   23.9293 N   0  0  0  0  0  0  0  0  0  0  0  0
   13.3912    7.4160   25.2512 C   0  0  2  0  0  0  0  0  0  0  0  0
   14.7856    6.8087   25.3362 C   0  0  0  0  0  0  0  0  0  0  0  0
   15.8807    7.4462   25.4839 O   0  0  0  0  0  0  0  0  0  0  0  0
   12.4449    6.9163   26.3451 C   0  0  0  0  0  0  0  0  0  0  0  0
   13.0088    7.1117   27.7462 C   0  0  0  0  0  0  0  0  0  0  0  0
   11.9976    6.9667   29.2670 S   0  0  2  0  0  0  0  0  0  0  0  0
   11.0969    8.5107   29.1431 C   0  0  0  0  0  0  0  0  0  0  0  0
   13.3052    7.3275   30.4820 C   0  0  0  0  0  0  0  0  0  0  0  0
   12.8106    7.1607   31.8924 C   0  0  1  0  0  0  0  0  0  0  0  0
   12.2506    5.8470   32.1326 O   0  0  0  0  0  0  0  0  0  0  0  0
   13.8645    7.3903   32.9515 C   0  0  1  0  0  0  0  0  0  0  0  0
   13.7278    8.6621   33.4165 O   0  0  0  0  0  0  0  0  0  0  0  0
   13.3646    6.4620   34.0336 C   0  0  1  0  0  0  0  0  0  0  0  0
   12.4054    7.1578   34.6978 O   0  0  0  0  0  0  0  0  0  0  0  0
   12.7109    5.2585   33.3192 C   0  0  2  0  0  0  0  0  0  0  0  0
   14.8516    5.5868   25.1913 O   0  0  0  0  0  0  0  0  0  0  0  0
   14.4540    0.7791   31.3015 N   0  0  0  0  0  0  0  0  0  0  0  0
   13.1427    1.3292   31.4978 C   0  0  0  0  0  0  0  0  0  0  0  0
   12.7994    2.5839   32.0596 N   0  0  0  0  0  0  0  0  0  0  0  0
   13.8390    3.2415   32.3920 C   0  0  0  0  0  0  0  0  0  0  0  0
   15.2309    2.7663   32.2264 C   0  0  0  0  0  0  0  0  0  0  0  0
   15.5115    1.5656   31.7034 C   0  0  0  0  0  0  0  0  0  0  0  0
   16.7904    1.2587   31.6312 N   0  0  0  0  0  0  0  0  0  0  0  0
   16.1321    3.6176   32.6547 N   0  0  0  0  0  0  0  0  0  0  0  0
   15.3002    4.6347   33.0853 C   0  0  0  0  0  0  0  0  0  0  0  0
   13.8718    4.4167   32.9217 N   0  0  0  0  0  0  0  0  0  0  0  0
  2  1  1  6  0  0  0
  2  3  1  0  0  0  0
  2  5  1  0  0  0  0
  3  4  1  0  0  0  0
  3 17  1  0  0  0  0
  5  6  1  0  0  0  0
  7  6  1  6  0  0  0
  7  8  1  0  0  0  0
  7  9  1  0  0  0  0
 10  9  1  6  0  0  0
 10 11  1  0  0  0  0
 10 12  1  0  0  0  0
 11 16  1  0  0  0  0
 12 13  1  1  0  0  0
 12 14  1  0  0  0  0
 14 15  1  1  0  0  0
 14 16  1  0  0  0  0
 16 27  1  6  0  0  0
 18 19  2  0  0  0  0
 18 23  1  0  0  0  0
 19 20  1  0  0  0  0
 20 21  2  0  0  0  0
 21 22  1  0  0  0  0
 21 27  1  0  0  0  0
 22 23  2  0  0  0  0
 22 25  1  0  0  0  0
 23 24  1  0  0  0  0
 25 26  2  0  0  0  0
 26 27  1  0  0  0  0
M  END
>  <CHROM.1>
118.97513560,174.33781915,166.11361618,-74.37103021,-174.71600522,55.40489137
-79.83433752,13.66256384,5.54636240,30.35139742,-1.75835654,-1.12142178,1.82967739

>  <Name>
ligand

>  <RI>
0

>  <Rbt.Current_Directory>
/home/itssahil/PROJECTS/Mol_Feturizer/Test_systems_manuscript/rnas/4aob

>  <Rbt.Executable>
rbdock ($Id: //depot/dev/client3/rdock/2013.1/src/exe/rbdock.cxx#4 $)

>  <Rbt.Library>
libRbt.so (2013.1, Build901 2013/11/27)

>  <Rbt.Parameter_File>
/export/apps/rDock/src/rDock_2013.1_src/data/scripts/dock_solv.prm

>  <Rbt.Receptor>
prm/pocket_docking_6.prm

>  <SCORE>
-11.9399

>  <SCORE.INTER>
-11.6814

>  <SCORE.INTER.CONST>
1

>  <SCORE.INTER.POLAR>
0

>  <SCORE.INTER.ROT>
7

>  <SCORE.INTER.SOLV>
16.5442

>  <SCORE.INTER.VDW>
-21.569

>  <SCORE.INTER.norm>
-0.432646

>  <SCORE.INTRA>
-0.258468

>  <SCORE.INTRA.DIHEDRAL>
-1.46145

>  <SCORE.INTRA.DIHEDRAL.0>
6.31833

>  <SCORE.INTRA.POLAR>
0

>  <SCORE.INTRA.POLAR.0>
0

>  <SCORE.INTRA.REPUL>
0

>  <SCORE.INTRA.REPUL.0>
0

>  <SCORE.INTRA.SOLV>
-0.766938

>  <SCORE.INTRA.SOLV.lig_0>
-48.4015

>  <SCORE.INTRA.VDW>
0.855725

>  <SCORE.INTRA.VDW.0>
-2.83256

>  <SCORE.INTRA.norm>
-0.0095729

>  <SCORE.RESTR>
0

>  <SCORE.RESTR.CAVITY>
0

>  <SCORE.RESTR.norm>
0

>  <SCORE.SYSTEM>
0

>  <SCORE.SYSTEM.CONST>
0

>  <SCORE.SYSTEM.DIHEDRAL>
0

>  <SCORE.SYSTEM.SOLV>
0

>  <SCORE.SYSTEM.norm>
0

>  <SCORE.heavy>
27

>  <SCORE.norm>
-0.442219

>  <RMSD>
1.983

$$$$
ligand
 OpenBabel02271912153D
libRbt.so/2013.1/901 2013/11/27
 27 29  0  0  0  0  0  0  0  0999 V2000
   12.4832    6.0207   27.8739 N   0  0  0  0  0  0  0  0  0  0  0  0
   13.8192    5.8247   27.2613 C   0  0  2  0  0  0  0  0  0  0  0  0
   14.0319    4.3278   27.0764 C   0  0  0  0  0  0  0  0  0  0  0  0
   13.5571    3.3996   27.8117 O   0  0  0  0  0  0  0  0  0  0  0  0
   14.8723    6.4804   28.1573 C   0  0  0  0  0  0  0  0  0  0  0  0
   14.5824    7.9507   28.4281 C   0  0  0  0  0  0  0  0  0  0  0  0
   15.6990    9.0350   29.3945 S   0  0  2  0  0  0  0  0  0  0  0  0
   17.1876    8.8317   28.4182 C   0  0  0  0  0  0  0  0  0  0  0  0
   15.9636    7.9302   30.8178 C   0  0  0  0  0  0  0  0  0  0  0  0
   14.8663    8.0692   31.8369 C   0  0  1  0  0  0  0  0  0  0  0  0
   13.5978    7.5591   31.3600 O   0  0  0  0  0  0  0  0  0  0  0  0
   15.1503    7.3821   33.1531 C   0  0  1  0  0  0  0  0  0  0  0  0
   15.6147    8.3163   34.0272 O   0  0  0  0  0  0  0  0  0  0  0  0
   13.7450    7.0287   33.5803 C   0  0  1  0  0  0  0  0  0  0  0  0
   13.2465    8.1509   34.1615 O   0  0  0  0  0  0  0  0  0  0  0  0
   12.9494    6.7335   32.2896 C   0  0  2  0  0  0  0  0  0  0  0  0
   14.7826    3.9991   26.1562 O   0  0  0  0  0  0  0  0  0  0  0  0
   12.9311    1.6675   33.5183 N   0  0  0  0  0  0  0  0  0  0  0  0
   12.3309    2.8292   34.1107 C   0  0  0  0  0  0  0  0  0  0  0  0
   12.4071    4.1722   33.6655 N   0  0  0  0  0  0  0  0  0  0  0  0
   13.1004    4.2675   32.6006 C   0  0  0  0  0  0  0  0  0  0  0  0
   13.7543    3.1329   31.9111 C   0  0  0  0  0  0  0  0  0  0  0  0
   13.6693    1.8790   32.3742 C   0  0  0  0  0  0  0  0  0  0  0  0
   14.3144    0.9672   31.6761 N   0  0  0  0  0  0  0  0  0  0  0  0
   14.4235    3.4837   30.8390 N   0  0  0  0  0  0  0  0  0  0  0  0
   14.1822    4.8452   30.8535 C   0  0  0  0  0  0  0  0  0  0  0  0
   13.3551    5.3452   31.9400 N   0  0  0  0  0  0  0  0  0  0  0  0
  2  1  1  1  0  0  0
  2  3  1  0  0  0  0
  2  5  1  0  0  0  0
  3  4  1  0  0  0  0
  3 17  1  0  0  0  0
  5  6  1  0  0  0  0
  7  6  1  6  0  0  0
  7  8  1  0  0  0  0
  7  9  1  0  0  0  0
 10  9  1  6  0  0  0
 10 11  1  0  0  0  0
 10 12  1  0  0  0  0
 11 16  1  0  0  0  0
 12 13  1  1  0  0  0
 12 14  1  0  0  0  0
 14 15  1  6  0  0  0
 14 16  1  0  0  0  0
 16 27  1  6  0  0  0
 18 19  2  0  0  0  0
 18 23  1  0  0  0  0
 19 20  1  0  0  0  0
 20 21  2  0  0  0  0
 21 22  1  0  0  0  0
 21 27  1  0  0  0  0
 22 23  2  0  0  0  0
 22 25  1  0  0  0  0
 23 24  1  0  0  0  0
 25 26  2  0  0  0  0
 26 27  1  0  0  0  0
M  END
>  <CHROM.1>
-30.76803863,-55.30892097,-176.80180747,57.15896339,-84.72339054,68.70813425
172.99706661,14.19875893,5.77394730,30.82699062,0.24422418,-1.24220153,-2.03748791

>  <Name>
ligand

>  <RI>
0

>  <Rbt.Current_Directory>
/home/itssahil/PROJECTS/Mol_Feturizer/Test_systems_manuscript/rnas/4aob

>  <Rbt.Executable>
rbdock ($Id: //depot/dev/client3/rdock/2013.1/src/exe/rbdock.cxx#4 $)

>  <Rbt.Library>
libRbt.so (2013.1, Build901 2013/11/27)

>  <Rbt.Parameter_File>
/export/apps/rDock/src/rDock_2013.1_src/data/scripts/dock_solv.prm

>  <Rbt.Receptor>
prm/pocket_docking_5.prm

>  <SCORE>
-13.4223

>  <SCORE.INTER>
-11.7842

>  <SCORE.INTER.CONST>
1

>  <SCORE.INTER.POLAR>
0

>  <SCORE.INTER.ROT>
7

>  <SCORE.INTER.SOLV>
15.5926

>  <SCORE.INTER.VDW>
-21.3204

>  <SCORE.INTER.norm>
-0.436453

>  <SCORE.INTRA>
-1.63803

>  <SCORE.INTRA.DIHEDRAL>
-2.20335

>  <SCORE.INTRA.DIHEDRAL.0>
6.31833

>  <SCORE.INTRA.POLAR>
0

>  <SCORE.INTRA.POLAR.0>
0

>  <SCORE.INTRA.REPUL>
0

>  <SCORE.INTRA.REPUL.0>
0

>  <SCORE.INTRA.SOLV>
0.585351

>  <SCORE.INTRA.SOLV.lig_0>
-48.4015

>  <SCORE.INTRA.VDW>
-0.829031

>  <SCORE.INTRA.VDW.0>
-2.83256

>  <SCORE.INTRA.norm>
-0.0606678

>  <SCORE.RESTR>
0

>  <SCORE.RESTR.CAVITY>
0

>  <SCORE.RESTR.norm>
0

>  <SCORE.SYSTEM>
0

>  <SCORE.SYSTEM.CONST>
0

>  <SCORE.SYSTEM.DIHEDRAL>
0

>  <SCORE.SYSTEM.SOLV>
0

>  <SCORE.SYSTEM.norm>
0

>  <SCORE.heavy>
27

>  <SCORE.norm>
-0.497121

>  <RMSD>
2.026

$$$$
ligand
 OpenBabel02271912153D
libRbt.so/2013.1/901 2013/11/27
 27 29  0  0  0  0  0  0  0  0999 V2000
   14.5683    3.3526   28.7029 N   0  0  0  0  0  0  0  0  0  0  0  0
   13.4574    4.3345   28.6991 C   0  0  2  0  0  0  0  0  0  0  0  0
   13.3051    4.8603   27.2777 C   0  0  0  0  0  0  0  0  0  0  0  0
   12.5135    5.7840   26.8933 O   0  0  0  0  0  0  0  0  0  0  0  0
   13.7663    5.4309   29.7210 C   0  0  0  0  0  0  0  0  0  0  0  0
   12.6469    6.4565   29.8411 C   0  0  0  0  0  0  0  0  0  0  0  0
   12.8935    8.1402   30.5200 S   0  0  2  0  0  0  0  0  0  0  0  0
   13.9904    8.7843   29.2581 C   0  0  0  0  0  0  0  0  0  0  0  0
   14.0168    7.7059   31.8860 C   0  0  0  0  0  0  0  0  0  0  0  0
   13.2649    7.4755   33.1680 C   0  0  1  0  0  0  0  0  0  0  0  0
   12.2364    6.4649   33.0344 O   0  0  0  0  0  0  0  0  0  0  0  0
   14.1357    7.0660   34.3338 C   0  0  1  0  0  0  0  0  0  0  0  0
   14.3913    8.1741   35.0815 O   0  0  0  0  0  0  0  0  0  0  0  0
   13.1595    6.2158   35.1126 C   0  0  1  0  0  0  0  0  0  0  0  0
   12.4190    7.0876   35.8453 O   0  0  0  0  0  0  0  0  0  0  0  0
   12.2458    5.5258   34.0756 C   0  0  2  0  0  0  0  0  0  0  0  0
   13.9782    4.2908   26.4168 O   0  0  0  0  0  0  0  0  0  0  0  0
   16.5726    3.9232   31.6496 N   0  0  0  0  0  0  0  0  0  0  0  0
   16.0820    5.2135   32.0435 C   0  0  0  0  0  0  0  0  0  0  0  0
   14.8727    5.5175   32.7166 N   0  0  0  0  0  0  0  0  0  0  0  0
   14.2089    4.4608   32.9743 C   0  0  0  0  0  0  0  0  0  0  0  0
   14.6295    3.0877   32.6162 C   0  0  0  0  0  0  0  0  0  0  0  0
   15.7751    2.8451   31.9661 C   0  0  0  0  0  0  0  0  0  0  0  0
   16.0192    1.5802   31.6914 N   0  0  0  0  0  0  0  0  0  0  0  0
   13.7716    2.1636   32.9774 N   0  0  0  0  0  0  0  0  0  0  0  0
   12.8110    2.9618   33.5707 C   0  0  0  0  0  0  0  0  0  0  0  0
   13.0735    4.3921   33.5816 N   0  0  0  0  0  0  0  0  0  0  0  0
  2  1  1  6  0  0  0
  2  3  1  0  0  0  0
  2  5  1  0  0  0  0
  3  4  1  0  0  0  0
  3 17  1  0  0  0  0
  5  6  1  0  0  0  0
  7  6  1  6  0  0  0
  7  8  1  0  0  0  0
  7  9  1  0  0  0  0
 10  9  1  6  0  0  0
 10 11  1  0  0  0  0
 10 12  1  0  0  0  0
 11 16  1  0  0  0  0
 12 13  1  1  0  0  0
 12 14  1  0  0  0  0
 14 15  1  1  0  0  0
 14 16  1  0  0  0  0
 16 27  1  6  0  0  0
 18 19  2  0  0  0  0
 18 23  1  0  0  0  0
 19 20  1  0  0  0  0
 20 21  2  0  0  0  0
 21 22  1  0  0  0  0
 21 27  1  0  0  0  0
 22 23  2  0  0  0  0
 22 25  1  0  0  0  0
 23 24  1  0  0  0  0
 25 26  2  0  0  0  0
 26 27  1  0  0  0  0
M  END
>  <CHROM.1>
-175.12175780,-177.19787323,-159.24903986,65.17629811,-93.47003846,55.88364576
45.07368455,13.80640270,5.50714988,31.60503293,-1.42750700,-1.22936077,1.49217873

>  <Name>
ligand

>  <RI>
0

>  <Rbt.Current_Directory>
/home/itssahil/PROJECTS/Mol_Feturizer/Test_systems_manuscript/rnas/4aob

>  <Rbt.Executable>
rbdock ($Id: //depot/dev/client3/rdock/2013.1/src/exe/rbdock.cxx#4 $)

>  <Rbt.Library>
libRbt.so (2013.1, Build901 2013/11/27)

>  <Rbt.Parameter_File>
/export/apps/rDock/src/rDock_2013.1_src/data/scripts/dock_solv.prm

>  <Rbt.Receptor>
prm/pocket_docking_2.prm

>  <SCORE>
-2.80828

>  <SCORE.INTER>
-12.5428

>  <SCORE.INTER.CONST>
1

>  <SCORE.INTER.POLAR>
0

>  <SCORE.INTER.ROT>
7

>  <SCORE.INTER.SOLV>
14.5416

>  <SCORE.INTER.VDW>
-21.4757

>  <SCORE.INTER.norm>
-0.464549

>  <SCORE.INTRA>
9.72787

>  <SCORE.INTRA.DIHEDRAL>
0.320205

>  <SCORE.INTRA.DIHEDRAL.0>
6.31833

>  <SCORE.INTRA.POLAR>
0

>  <SCORE.INTRA.POLAR.0>
0

>  <SCORE.INTRA.REPUL>
0

>  <SCORE.INTRA.REPUL.0>
0

>  <SCORE.INTRA.SOLV>
1.15212

>  <SCORE.INTRA.SOLV.lig_0>
-48.4015

>  <SCORE.INTRA.VDW>
8.99171

>  <SCORE.INTRA.VDW.0>
-2.83256

>  <SCORE.INTRA.norm>
0.360291

>  <SCORE.RESTR>
0.00666584

>  <SCORE.RESTR.CAVITY>
0.00666584

>  <SCORE.RESTR.norm>
0.000246883

>  <SCORE.SYSTEM>
0

>  <SCORE.SYSTEM.CONST>
0

>  <SCORE.SYSTEM.DIHEDRAL>
0

>  <SCORE.SYSTEM.SOLV>
0

>  <SCORE.SYSTEM.norm>
0

>  <SCORE.heavy>
27

>  <SCORE.norm>
-0.10401

>  <RMSD>
2.062

$$$$
ligand
 OpenBabel02271912153D
libRbt.so/2013.1/901 2013/11/27
 27 29  0  0  0  0  0  0  0  0999 V2000
   11.8211    8.3305   26.0516 N   0  0  0  0  0  0  0  0  0  0  0  0
   13.0606    7.8117   26.6783 C   0  0  2  0  0  0  0  0  0  0  0  0
   13.4580    6.5392   25.9414 C   0  0  0  0  0  0  0  0  0  0  0  0
   13.1662    5.3450   26.2822 O   0  0  0  0  0  0  0  0  0  0  0  0
   12.8028    7.5923   28.1707 C   0  0  0  0  0  0  0  0  0  0  0  0
   14.0510    7.1560   28.9262 C   0  0  0  0  0  0  0  0  0  0  0  0
   14.0085    6.4456   30.6144 S   0  0  2  0  0  0  0  0  0  0  0  0
   12.7762    5.1734   30.3432 C   0  0  0  0  0  0  0  0  0  0  0  0
   13.0771    7.7795   31.4325 C   0  0  0  0  0  0  0  0  0  0  0  0
   12.9364    7.5304   32.9090 C   0  0  1  0  0  0  0  0  0  0  0  0
   12.3273    6.2494   33.2003 O   0  0  0  0  0  0  0  0  0  0  0  0
   14.2387    7.5829   33.6746 C   0  0  1  0  0  0  0  0  0  0  0  0
   14.3488    8.8163   34.2394 O   0  0  0  0  0  0  0  0  0  0  0  0
   13.9358    6.6066   34.7870 C   0  0  1  0  0  0  0  0  0  0  0  0
   13.2464    7.3158   35.7183 O   0  0  0  0  0  0  0  0  0  0  0  0
   13.0089    5.5253   34.1889 C   0  0  2  0  0  0  0  0  0  0  0  0
   14.1775    6.6908   24.9525 O   0  0  0  0  0  0  0  0  0  0  0  0
   13.7374    1.1250   31.4905 N   0  0  0  0  0  0  0  0  0  0  0  0
   12.5774    1.7598   32.0492 C   0  0  0  0  0  0  0  0  0  0  0  0
   12.5123    2.9809   32.7652 N   0  0  0  0  0  0  0  0  0  0  0  0
   13.6633    3.5176   32.8693 C   0  0  0  0  0  0  0  0  0  0  0  0
   14.9162    2.9476   32.3252 C   0  0  0  0  0  0  0  0  0  0  0  0
   14.9359    1.7817   31.6662 C   0  0  0  0  0  0  0  0  0  0  0  0
   16.1198    1.3793   31.2524 N   0  0  0  0  0  0  0  0  0  0  0  0
   15.9770    3.6790   32.5702 N   0  0  0  0  0  0  0  0  0  0  0  0
   15.3844    4.7163   33.2664 C   0  0  0  0  0  0  0  0  0  0  0  0
   13.9448    4.6319   33.4538 N   0  0  0  0  0  0  0  0  0  0  0  0
  2  1  1  6  0  0  0
  2  3  1  0  0  0  0
  2  5  1  0  0  0  0
  3  4  1  0  0  0  0
  3 17  1  0  0  0  0
  5  6  1  0  0  0  0
  7  6  1  6  0  0  0
  7  8  1  0  0  0  0
  7  9  1  0  0  0  0
 10  9  1  6  0  0  0
 10 11  1  0  0  0  0
 10 12  1  0  0  0  0
 11 16  1  0  0  0  0
 12 13  1  1  0  0  0
 12 14  1  0  0  0  0
 14 15  1  1  0  0  0
 14 16  1  0  0  0  0
 16 27  1  6  0  0  0
 18 19  2  0  0  0  0
 18 23  1  0  0  0  0
 19 20  1  0  0  0  0
 20 21  2  0  0  0  0
 21 22  1  0  0  0  0
 21 27  1  0  0  0  0
 22 23  2  0  0  0  0
 22 25  1  0  0  0  0
 23 24  1  0  0  0  0
 25 26  2  0  0  0  0
 26 27  1  0  0  0  0
M  END
>  <CHROM.1>
-95.08022985,-175.74846525,-165.38770938,51.09905467,-176.53574076,-55.75159977
-79.37451902,13.70595247,5.56590285,31.12086156,2.10925428,1.37258652,-1.80524981

>  <Name>
ligand

>  <RI>
0

>  <Rbt.Current_Directory>
/home/itssahil/PROJECTS/Mol_Feturizer/Test_systems_manuscript/rnas/4aob

>  <Rbt.Executable>
rbdock ($Id: //depot/dev/client3/rdock/2013.1/src/exe/rbdock.cxx#4 $)

>  <Rbt.Library>
libRbt.so (2013.1, Build901 2013/11/27)

>  <Rbt.Parameter_File>
/export/apps/rDock/src/rDock_2013.1_src/data/scripts/dock_solv.prm

>  <Rbt.Receptor>
prm/pocket_docking_5.prm

>  <SCORE>
-12.594

>  <SCORE.INTER>
-10.9496

>  <SCORE.INTER.CONST>
1

>  <SCORE.INTER.POLAR>
0

>  <SCORE.INTER.ROT>
7

>  <SCORE.INTER.SOLV>
11.9307

>  <SCORE.INTER.VDW>
-19.5433

>  <SCORE.INTER.norm>
-0.405542

>  <SCORE.INTRA>
-1.65006

>  <SCORE.INTRA.DIHEDRAL>
-1.62316

>  <SCORE.INTRA.DIHEDRAL.0>
6.31833

>  <SCORE.INTRA.POLAR>
0

>  <SCORE.INTRA.POLAR.0>
0

>  <SCORE.INTRA.REPUL>
0

>  <SCORE.INTRA.REPUL.0>
0

>  <SCORE.INTRA.SOLV>
-0.545812

>  <SCORE.INTRA.SOLV.lig_0>
-48.4015

>  <SCORE.INTRA.VDW>
-0.565569

>  <SCORE.INTRA.VDW.0>
-2.83256

>  <SCORE.INTRA.norm>
-0.0611132

>  <SCORE.RESTR>
0.00564513

>  <SCORE.RESTR.CAVITY>
0.00564513

>  <SCORE.RESTR.norm>
0.000209079

>  <SCORE.SYSTEM>
0

>  <SCORE.SYSTEM.CONST>
0

>  <SCORE.SYSTEM.DIHEDRAL>
0

>  <SCORE.SYSTEM.SOLV>
0

>  <SCORE.SYSTEM.norm>
0

>  <SCORE.heavy>
27

>  <SCORE.norm>
-0.466446

>  <RMSD>
2.072

$$$$
ligand
 OpenBabel02271912153D
libRbt.so/2013.1/901 2013/11/27
 27 29  0  0  0  0  0  0  0  0999 V2000
   15.7701    6.1521   27.5138 N   0  0  0  0  0  0  0  0  0  0  0  0
   14.6423    5.3283   28.0113 C   0  0  2  0  0  0  0  0  0  0  0  0
   14.9037    3.8846   27.6018 C   0  0  0  0  0  0  0  0  0  0  0  0
   16.0435    3.3197   27.5064 O   0  0  0  0  0  0  0  0  0  0  0  0
   13.3357    5.8910   27.4475 C   0  0  0  0  0  0  0  0  0  0  0  0
   13.1045    7.3452   27.8360 C   0  0  0  0  0  0  0  0  0  0  0  0
   12.3563    7.8544   29.4289 S   0  0  2  0  0  0  0  0  0  0  0  0
   12.5824    9.6258   29.2818 C   0  0  0  0  0  0  0  0  0  0  0  0
   13.7128    7.3372   30.5284 C   0  0  0  0  0  0  0  0  0  0  0  0
   13.3793    7.5881   31.9733 C   0  0  1  0  0  0  0  0  0  0  0  0
   12.2028    6.8629   32.4056 O   0  0  0  0  0  0  0  0  0  0  0  0
   14.4904    7.2388   32.9369 C   0  0  1  0  0  0  0  0  0  0  0  0
   15.1586    8.3836   33.2461 O   0  0  0  0  0  0  0  0  0  0  0  0
   13.6804    6.8512   34.1518 C   0  0  1  0  0  0  0  0  0  0  0  0
   13.3743    8.0190   34.7749 O   0  0  0  0  0  0  0  0  0  0  0  0
   12.3795    6.2023   33.6297 C   0  0  2  0  0  0  0  0  0  0  0  0
   13.9122    3.2267   27.2813 O   0  0  0  0  0  0  0  0  0  0  0  0
   13.2902    2.6533   29.9216 N   0  0  0  0  0  0  0  0  0  0  0  0
   12.9221    4.0405   29.8914 C   0  0  0  0  0  0  0  0  0  0  0  0
   12.7101    4.9098   30.9901 N   0  0  0  0  0  0  0  0  0  0  0  0
   12.9012    4.3098   32.0978 C   0  0  0  0  0  0  0  0  0  0  0  0
   13.2870    2.8875   32.2353 C   0  0  0  0  0  0  0  0  0  0  0  0
   13.4634    2.0956   31.1696 C   0  0  0  0  0  0  0  0  0  0  0  0
   13.7860    0.8461   31.4335 N   0  0  0  0  0  0  0  0  0  0  0  0
   13.4136    2.4946   33.4803 N   0  0  0  0  0  0  0  0  0  0  0  0
   13.1114    3.6792   34.1263 C   0  0  0  0  0  0  0  0  0  0  0  0
   12.7973    4.8180   33.2783 N   0  0  0  0  0  0  0  0  0  0  0  0
  2  1  1  6  0  0  0
  2  3  1  0  0  0  0
  2  5  1  0  0  0  0
  3  4  1  0  0  0  0
  3 17  1  0  0  0  0
  5  6  1  0  0  0  0
  7  6  1  6  0  0  0
  7  8  1  0  0  0  0
  7  9  1  0  0  0  0
 10  9  1  6  0  0  0
 10 11  1  0  0  0  0
 10 12  1  0  0  0  0
 11 16  1  0  0  0  0
 12 13  1  1  0  0  0
 12 14  1  0  0  0  0
 14 15  1  6  0  0  0
 14 16  1  0  0  0  0
 16 27  1  6  0  0  0
 18 19  2  0  0  0  0
 18 23  1  0  0  0  0
 19 20  1  0  0  0  0
 20 21  2  0  0  0  0
 21 22  1  0  0  0  0
 21 27  1  0  0  0  0
 22 23  2  0  0  0  0
 22 25  1  0  0  0  0
 23 24  1  0  0  0  0
 25 26  2  0  0  0  0
 26 27  1  0  0  0  0
M  END
>  <CHROM.1>
33.36523431,-58.68306755,-83.89966373,173.41232715,-178.11805753,60.44882344
-3.57213514,13.53969834,5.51217514,30.80218212,0.05041581,1.40180498,-0.52333627

>  <Name>
ligand

>  <RI>
0

>  <Rbt.Current_Directory>
/home/itssahil/PROJECTS/Mol_Feturizer/Test_systems_manuscript/rnas/4aob

>  <Rbt.Executable>
rbdock ($Id: //depot/dev/client3/rdock/2013.1/src/exe/rbdock.cxx#4 $)

>  <Rbt.Library>
libRbt.so (2013.1, Build901 2013/11/27)

>  <Rbt.Parameter_File>
/export/apps/rDock/src/rDock_2013.1_src/data/scripts/dock_solv.prm

>  <Rbt.Receptor>
prm/pocket_docking_2.prm

>  <SCORE>
-4.42525

>  <SCORE.INTER>
-7.31965

>  <SCORE.INTER.CONST>
1

>  <SCORE.INTER.POLAR>
0

>  <SCORE.INTER.ROT>
7

>  <SCORE.INTER.SOLV>
18.5251

>  <SCORE.INTER.VDW>
-19.3215

>  <SCORE.INTER.norm>
-0.271098

>  <SCORE.INTRA>
1.82868

>  <SCORE.INTRA.DIHEDRAL>
-0.831211

>  <SCORE.INTRA.DIHEDRAL.0>
6.31833

>  <SCORE.INTRA.POLAR>
0

>  <SCORE.INTRA.POLAR.0>
0

>  <SCORE.INTRA.REPUL>
0

>  <SCORE.INTRA.REPUL.0>
0

>  <SCORE.INTRA.SOLV>
0.989731

>  <SCORE.INTRA.SOLV.lig_0>
-48.4015

>  <SCORE.INTRA.VDW>
1.74942

>  <SCORE.INTRA.VDW.0>
-2.83256

>  <SCORE.INTRA.norm>
0.0677289

>  <SCORE.RESTR>
1.06572

>  <SCORE.RESTR.CAVITY>
1.06572

>  <SCORE.RESTR.norm>
0.0394709

>  <SCORE.SYSTEM>
0

>  <SCORE.SYSTEM.CONST>
0

>  <SCORE.SYSTEM.DIHEDRAL>
0

>  <SCORE.SYSTEM.SOLV>
0

>  <SCORE.SYSTEM.norm>
0

>  <SCORE.heavy>
27

>  <SCORE.norm>
-0.163898

>  <RMSD>
2.108

$$$$
ligand
 OpenBabel02271912153D
libRbt.so/2013.1/901 2013/11/27
 27 29  0  0  0  0  0  0  0  0999 V2000
   13.9365    6.4579   26.8973 N   0  0  0  0  0  0  0  0  0  0  0  0
   13.2725    5.6569   27.9536 C   0  0  2  0  0  0  0  0  0  0  0  0
   13.5468    4.1866   27.6651 C   0  0  0  0  0  0  0  0  0  0  0  0
   14.2056    3.7194   26.6775 O   0  0  0  0  0  0  0  0  0  0  0  0
   11.7821    6.0034   27.9701 C   0  0  0  0  0  0  0  0  0  0  0  0
   11.5124    7.4216   28.4547 C   0  0  0  0  0  0  0  0  0  0  0  0
   12.1160    8.0686   30.0590 S   0  0  2  0  0  0  0  0  0  0  0  0
   13.8361    8.3165   29.6224 C   0  0  0  0  0  0  0  0  0  0  0  0
   12.1282    6.4990   30.9823 C   0  0  0  0  0  0  0  0  0  0  0  0
   12.6432    6.6856   32.3829 C   0  0  1  0  0  0  0  0  0  0  0  0
   12.0414    5.7634   33.3232 O   0  0  0  0  0  0  0  0  0  0  0  0
   14.1415    6.5375   32.5187 C   0  0  1  0  0  0  0  0  0  0  0  0
   14.6923    7.7821   32.5153 O   0  0  0  0  0  0  0  0  0  0  0  0
   14.2324    6.0117   33.9321 C   0  0  1  0  0  0  0  0  0  0  0  0
   14.1694    7.1063   34.7342 O   0  0  0  0  0  0  0  0  0  0  0  0
   12.9762    5.1434   34.1646 C   0  0  2  0  0  0  0  0  0  0  0  0
   13.0291    3.3792   28.4388 O   0  0  0  0  0  0  0  0  0  0  0  0
   16.5429    2.2018   31.7563 N   0  0  0  0  0  0  0  0  0  0  0  0
   16.5863    3.4952   32.3774 C   0  0  0  0  0  0  0  0  0  0  0  0
   15.5297    4.1911   33.0155 N   0  0  0  0  0  0  0  0  0  0  0  0
   14.4525    3.5106   33.0005 C   0  0  0  0  0  0  0  0  0  0  0  0
   14.3063    2.1692   32.3922 C   0  0  0  0  0  0  0  0  0  0  0  0
   15.3282    1.5520   31.7850 C   0  0  0  0  0  0  0  0  0  0  0  0
   15.0569    0.3710   31.2687 N   0  0  0  0  0  0  0  0  0  0  0  0
   13.0955    1.6750   32.4927 N   0  0  0  0  0  0  0  0  0  0  0  0
   12.4812    2.7101   33.1734 C   0  0  0  0  0  0  0  0  0  0  0  0
   13.3155    3.8551   33.5015 N   0  0  0  0  0  0  0  0  0  0  0  0
  2  1  1  6  0  0  0
  2  3  1  0  0  0  0
  2  5  1  0  0  0  0
  3  4  1  0  0  0  0
  3 17  1  0  0  0  0
  5  6  1  0  0  0  0
  7  6  1  6  0  0  0
  7  8  1  0  0  0  0
  7  9  1  0  0  0  0
 10  9  1  6  0  0  0
 10 11  1  0  0  0  0
 10 12  1  0  0  0  0
 11 16  1  0  0  0  0
 12 13  1  1  0  0  0
 12 14  1  0  0  0  0
 14 15  1  1  0  0  0
 14 16  1  0  0  0  0
 16 27  1  6  0  0  0
 18 19  2  0  0  0  0
 18 23  1  0  0  0  0
 19 20  1  0  0  0  0
 20 21  2  0  0  0  0
 21 22  1  0  0  0  0
 21 27  1  0  0  0  0
 22 23  2  0  0  0  0
 22 25  1  0  0  0  0
 23 24  1  0  0  0  0
 25 26  2  0  0  0  0
 26 27  1  0  0  0  0
M  END
>  <CHROM.1>
-1.33857396,-68.39725871,-54.82746564,75.84073026,177.93769721,148.76914492
113.92555085,13.64298848,5.05294474,31.13581874,-2.65566924,-1.21654159,1.23191571

>  <Name>
ligand

>  <RI>
0

>  <Rbt.Current_Directory>
/home/itssahil/PROJECTS/Mol_Feturizer/Test_systems_manuscript/rnas/4aob

>  <Rbt.Executable>
rbdock ($Id: //depot/dev/client3/rdock/2013.1/src/exe/rbdock.cxx#4 $)

>  <Rbt.Library>
libRbt.so (2013.1, Build901 2013/11/27)

>  <Rbt.Parameter_File>
/export/apps/rDock/src/rDock_2013.1_src/data/scripts/dock_solv.prm

>  <Rbt.Receptor>
prm/pocket_docking_2.prm

>  <SCORE>
-7.89054

>  <SCORE.INTER>
-15.5116

>  <SCORE.INTER.CONST>
1

>  <SCORE.INTER.POLAR>
0

>  <SCORE.INTER.ROT>
7

>  <SCORE.INTER.SOLV>
15.6261

>  <SCORE.INTER.VDW>
-23.8164

>  <SCORE.INTER.norm>
-0.574504

>  <SCORE.INTRA>
7.61587

>  <SCORE.INTRA.DIHEDRAL>
1.57143

>  <SCORE.INTRA.DIHEDRAL.0>
6.31833

>  <SCORE.INTRA.POLAR>
0

>  <SCORE.INTRA.POLAR.0>
0

>  <SCORE.INTRA.REPUL>
0

>  <SCORE.INTRA.REPUL.0>
0

>  <SCORE.INTRA.SOLV>
1.97801

>  <SCORE.INTRA.SOLV.lig_0>
-48.4015

>  <SCORE.INTRA.VDW>
5.84115

>  <SCORE.INTRA.VDW.0>
-2.83256

>  <SCORE.INTRA.norm>
0.282069

>  <SCORE.RESTR>
0.00519855

>  <SCORE.RESTR.CAVITY>
0.00519855

>  <SCORE.RESTR.norm>
0.000192539

>  <SCORE.SYSTEM>
0

>  <SCORE.SYSTEM.CONST>
0

>  <SCORE.SYSTEM.DIHEDRAL>
0

>  <SCORE.SYSTEM.SOLV>
0

>  <SCORE.SYSTEM.norm>
0

>  <SCORE.heavy>
27

>  <SCORE.norm>
-0.292242

>  <RMSD>
2.122

$$$$
ligand
 OpenBabel02271912153D
libRbt.so/2013.1/901 2013/11/27
 27 29  0  0  0  0  0  0  0  0999 V2000
   14.8613    8.3743   26.3057 N   0  0  0  0  0  0  0  0  0  0  0  0
   14.8422    6.8931   26.2401 C   0  0  2  0  0  0  0  0  0  0  0  0
   13.4778    6.4676   25.7134 C   0  0  0  0  0  0  0  0  0  0  0  0
   12.3814    6.4673   26.3657 O   0  0  0  0  0  0  0  0  0  0  0  0
   15.1563    6.3350   27.6299 C   0  0  0  0  0  0  0  0  0  0  0  0
   14.3226    6.9831   28.7272 C   0  0  0  0  0  0  0  0  0  0  0  0
   14.1802    6.2978   30.4203 S   0  0  2  0  0  0  0  0  0  0  0  0
   12.9965    4.9944   30.0874 C   0  0  0  0  0  0  0  0  0  0  0  0
   13.1671    7.6230   31.1509 C   0  0  0  0  0  0  0  0  0  0  0  0
   12.8752    7.3591   32.6025 C   0  0  1  0  0  0  0  0  0  0  0  0
   12.2782    6.0581   32.8211 O   0  0  0  0  0  0  0  0  0  0  0  0
   14.0848    7.4456   33.5050 C   0  0  1  0  0  0  0  0  0  0  0  0
   14.0948    8.6777   34.0831 O   0  0  0  0  0  0  0  0  0  0  0  0
   13.6937    6.4526   34.5743 C   0  0  1  0  0  0  0  0  0  0  0  0
   12.8859    7.1338   35.4280 O   0  0  0  0  0  0  0  0  0  0  0  0
   12.8708    5.3480   33.8750 C   0  0  2  0  0  0  0  0  0  0  0  0
   13.4563    6.0315   24.5611 O   0  0  0  0  0  0  0  0  0  0  0  0
   14.0348    0.9497   31.3305 N   0  0  0  0  0  0  0  0  0  0  0  0
   12.8021    1.5380   31.7720 C   0  0  0  0  0  0  0  0  0  0  0  0
   12.6184    2.7644   32.4577 N   0  0  0  0  0  0  0  0  0  0  0  0
   13.7303    3.3548   32.6547 C   0  0  0  0  0  0  0  0  0  0  0  0
   15.0512    2.8357   32.2348 C   0  0  0  0  0  0  0  0  0  0  0  0
   15.1821    1.6632   31.6008 C   0  0  0  0  0  0  0  0  0  0  0  0
   16.4153    1.3101   31.3015 N   0  0  0  0  0  0  0  0  0  0  0  0
   16.0520    3.6184   32.5606 N   0  0  0  0  0  0  0  0  0  0  0  0
   15.3534    4.6367   33.1827 C   0  0  0  0  0  0  0  0  0  0  0  0
   13.9080    4.4887   33.2423 N   0  0  0  0  0  0  0  0  0  0  0  0
  2  1  1  1  0  0  0
  2  3  1  0  0  0  0
  2  5  1  0  0  0  0
  3  4  1  0  0  0  0
  3 17  1  0  0  0  0
  5  6  1  0  0  0  0
  7  6  1  6  0  0  0
  7  8  1  0  0  0  0
  7  9  1  0  0  0  0
 10  9  1  6  0  0  0
 10 11  1  0  0  0  0
 10 12  1  0  0  0  0
 11 16  1  0  0  0  0
 12 13  1  1  0  0  0
 12 14  1  0  0  0  0
 14 15  1  1  0  0  0
 14 16  1  0  0  0  0
 16 27  1  6  0  0  0
 18 19  2  0  0  0  0
 18 23  1  0  0  0  0
 19 20  1  0  0  0  0
 20 21  2  0  0  0  0
 21 22  1  0  0  0  0
 21 27  1  0  0  0  0
 22 23  2  0  0  0  0
 22 25  1  0  0  0  0
 23 24  1  0  0  0  0
 25 26  2  0  0  0  0
 26 27  1  0  0  0  0
M  END
>  <CHROM.1>
-75.43564297,48.87290731,165.88015567,-78.46929585,-179.30899103,-54.01232217
-81.19782624,13.93261748,5.39003046,30.92051341,1.52195857,1.38299537,-1.25207695

>  <Name>
ligand

>  <RI>
0

>  <Rbt.Current_Directory>
/home/itssahil/PROJECTS/Mol_Feturizer/Test_systems_manuscript/rnas/4aob

>  <Rbt.Executable>
rbdock ($Id: //depot/dev/client3/rdock/2013.1/src/exe/rbdock.cxx#4 $)

>  <Rbt.Library>
libRbt.so (2013.1, Build901 2013/11/27)

>  <Rbt.Parameter_File>
/export/apps/rDock/src/rDock_2013.1_src/data/scripts/dock_solv.prm

>  <Rbt.Receptor>
prm/pocket_docking_4.prm

>  <SCORE>
-12.3166

>  <SCORE.INTER>
-11.3003

>  <SCORE.INTER.CONST>
1

>  <SCORE.INTER.POLAR>
0

>  <SCORE.INTER.ROT>
7

>  <SCORE.INTER.SOLV>
13.9023

>  <SCORE.INTER.VDW>
-20.4343

>  <SCORE.INTER.norm>
-0.418529

>  <SCORE.INTRA>
-1.01629

>  <SCORE.INTRA.DIHEDRAL>
-1.04564

>  <SCORE.INTRA.DIHEDRAL.0>
6.31833

>  <SCORE.INTRA.POLAR>
0

>  <SCORE.INTRA.POLAR.0>
0

>  <SCORE.INTRA.REPUL>
0

>  <SCORE.INTRA.REPUL.0>
0

>  <SCORE.INTRA.SOLV>
0.247433

>  <SCORE.INTRA.SOLV.lig_0>
-48.4015

>  <SCORE.INTRA.VDW>
-0.617185

>  <SCORE.INTRA.VDW.0>
-2.83256

>  <SCORE.INTRA.norm>
-0.0376403

>  <SCORE.RESTR>
0

>  <SCORE.RESTR.CAVITY>
0

>  <SCORE.RESTR.norm>
0

>  <SCORE.SYSTEM>
0

>  <SCORE.SYSTEM.CONST>
0

>  <SCORE.SYSTEM.DIHEDRAL>
0

>  <SCORE.SYSTEM.SOLV>
0

>  <SCORE.SYSTEM.norm>
0

>  <SCORE.heavy>
27

>  <SCORE.norm>
-0.456169

>  <RMSD>
2.132

$$$$
ligand
 OpenBabel02271912153D
libRbt.so/2013.1/901 2013/11/27
 27 29  0  0  0  0  0  0  0  0999 V2000
   13.5111    9.5032   25.9227 N   0  0  0  0  0  0  0  0  0  0  0  0
   13.3386    8.5623   27.0555 C   0  0  2  0  0  0  0  0  0  0  0  0
   13.5873    7.1533   26.5329 C   0  0  0  0  0  0  0  0  0  0  0  0
   12.7269    6.3862   25.9862 O   0  0  0  0  0  0  0  0  0  0  0  0
   11.9388    8.7520   27.6440 C   0  0  0  0  0  0  0  0  0  0  0  0
   11.7002    7.8992   28.8829 C   0  0  0  0  0  0  0  0  0  0  0  0
   12.3959    8.3001   30.5297 S   0  0  2  0  0  0  0  0  0  0  0  0
   14.1220    8.4387   30.0693 C   0  0  0  0  0  0  0  0  0  0  0  0
   12.2800    6.6403   31.2700 C   0  0  0  0  0  0  0  0  0  0  0  0
   12.5349    6.6769   32.7517 C   0  0  1  0  0  0  0  0  0  0  0  0
   12.4166    5.3717   33.3678 O   0  0  0  0  0  0  0  0  0  0  0  0
   13.8910    7.2235   33.1354 C   0  0  1  0  0  0  0  0  0  0  0  0
   13.7396    8.5330   33.4740 O   0  0  0  0  0  0  0  0  0  0  0  0
   14.1381    6.4564   34.4132 C   0  0  1  0  0  0  0  0  0  0  0  0
   13.4788    7.1408   35.3839 O   0  0  0  0  0  0  0  0  0  0  0  0
   13.4769    5.0717   34.2349 C   0  0  2  0  0  0  0  0  0  0  0  0
   14.7204    6.7034   26.7125 O   0  0  0  0  0  0  0  0  0  0  0  0
   14.4947    0.9547   31.2036 N   0  0  0  0  0  0  0  0  0  0  0  0
   13.3028    1.4440   31.8364 C   0  0  0  0  0  0  0  0  0  0  0  0
   13.1558    2.6008   32.6415 N   0  0  0  0  0  0  0  0  0  0  0  0
   14.2592    3.2278   32.7555 C   0  0  0  0  0  0  0  0  0  0  0  0
   15.5386    2.8101   32.1396 C   0  0  0  0  0  0  0  0  0  0  0  0
   15.6374    1.7001   31.3966 C   0  0  0  0  0  0  0  0  0  0  0  0
   16.8379    1.4336   30.9246 N   0  0  0  0  0  0  0  0  0  0  0  0
   16.5399    3.6127   32.4107 N   0  0  0  0  0  0  0  0  0  0  0  0
   15.8827    4.5420   33.1958 C   0  0  0  0  0  0  0  0  0  0  0  0
   14.4623    4.3183   33.4128 N   0  0  0  0  0  0  0  0  0  0  0  0
  2  1  1  6  0  0  0
  2  3  1  0  0  0  0
  2  5  1  0  0  0  0
  3  4  1  0  0  0  0
  3 17  1  0  0  0  0
  5  6  1  0  0  0  0
  7  6  1  6  0  0  0
  7  8  1  0  0  0  0
  7  9  1  0  0  0  0
 10  9  1  6  0  0  0
 10 11  1  0  0  0  0
 10 12  1  0  0  0  0
 11 16  1  0  0  0  0
 12 13  1  1  0  0  0
 12 14  1  0  0  0  0
 14 15  1  1  0  0  0
 14 16  1  0  0  0  0
 16 27  1  6  0  0  0
 18 19  2  0  0  0  0
 18 23  1  0  0  0  0
 19 20  1  0  0  0  0
 20 21  2  0  0  0  0
 21 22  1  0  0  0  0
 21 27  1  0  0  0  0
 22 23  2  0  0  0  0
 22 25  1  0  0  0  0
 23 24  1  0  0  0  0
 25 26  2  0  0  0  0
 26 27  1  0  0  0  0
M  END
>  <CHROM.1>
-86.34959852,-175.75919709,75.95601759,-53.89475147,-168.82007225,178.62860922
-57.20401239,13.75642398,5.82310237,31.03091727,-2.24569040,-1.20433327,1.66042300

>  <Name>
ligand

>  <RI>
0

>  <Rbt.Current_Directory>
/home/itssahil/PROJECTS/Mol_Feturizer/Test_systems_manuscript/rnas/4aob

>  <Rbt.Executable>
rbdock ($Id: //depot/dev/client3/rdock/2013.1/src/exe/rbdock.cxx#4 $)

>  <Rbt.Library>
libRbt.so (2013.1, Build901 2013/11/27)

>  <Rbt.Parameter_File>
/export/apps/rDock/src/rDock_2013.1_src/data/scripts/dock_solv.prm

>  <Rbt.Receptor>
prm/pocket_docking_3.prm

>  <SCORE>
-11.8743

>  <SCORE.INTER>
-12.2796

>  <SCORE.INTER.CONST>
1

>  <SCORE.INTER.POLAR>
0

>  <SCORE.INTER.ROT>
7

>  <SCORE.INTER.SOLV>
14.8464

>  <SCORE.INTER.VDW>
-21.4018

>  <SCORE.INTER.norm>
-0.454799

>  <SCORE.INTRA>
0.405299

>  <SCORE.INTRA.DIHEDRAL>
-0.478314

>  <SCORE.INTRA.DIHEDRAL.0>
6.31833

>  <SCORE.INTRA.POLAR>
0

>  <SCORE.INTRA.POLAR.0>
0

>  <SCORE.INTRA.REPUL>
0

>  <SCORE.INTRA.REPUL.0>
0

>  <SCORE.INTRA.SOLV>
-0.0927444

>  <SCORE.INTRA.SOLV.lig_0>
-48.4015

>  <SCORE.INTRA.VDW>
0.690828

>  <SCORE.INTRA.VDW.0>
-2.83256

>  <SCORE.INTRA.norm>
0.0150111

>  <SCORE.RESTR>
0

>  <SCORE.RESTR.CAVITY>
0

>  <SCORE.RESTR.norm>
0

>  <SCORE.SYSTEM>
0

>  <SCORE.SYSTEM.CONST>
0

>  <SCORE.SYSTEM.DIHEDRAL>
0

>  <SCORE.SYSTEM.SOLV>
0

>  <SCORE.SYSTEM.norm>
0

>  <SCORE.heavy>
27

>  <SCORE.norm>
-0.439788

>  <RMSD>
2.141

$$$$
ligand
 OpenBabel02271912153D
libRbt.so/2013.1/901 2013/11/27
 27 29  0  0  0  0  0  0  0  0999 V2000
   16.1992    5.1369   28.4199 N   0  0  0  0  0  0  0  0  0  0  0  0
   15.4475    3.8956   28.1157 C   0  0  2  0  0  0  0  0  0  0  0  0
   15.1807    3.8680   26.6163 C   0  0  0  0  0  0  0  0  0  0  0  0
   14.9557    4.8773   25.8691 O   0  0  0  0  0  0  0  0  0  0  0  0
   14.1707    3.8745   28.9589 C   0  0  0  0  0  0  0  0  0  0  0  0
   13.8242    5.2400   29.5374 C   0  0  0  0  0  0  0  0  0  0  0  0
   12.1461    5.6901   30.1187 S   0  0  2  0  0  0  0  0  0  0  0  0
   11.4052    6.0807   28.5347 C   0  0  0  0  0  0  0  0  0  0  0  0
   12.5453    7.3221   30.8213 C   0  0  0  0  0  0  0  0  0  0  0  0
   12.8641    7.2294   32.2882 C   0  0  1  0  0  0  0  0  0  0  0  0
   12.0757    6.2208   32.9650 O   0  0  0  0  0  0  0  0  0  0  0  0
   14.3147    6.9306   32.5909 C   0  0  1  0  0  0  0  0  0  0  0  0
   14.9383    8.1058   32.8781 O   0  0  0  0  0  0  0  0  0  0  0  0
   14.1675    6.1729   33.8896 C   0  0  1  0  0  0  0  0  0  0  0  0
   14.0594    7.1214   34.8561 O   0  0  0  0  0  0  0  0  0  0  0  0
   12.8383    5.3912   33.7996 C   0  0  2  0  0  0  0  0  0  0  0  0
   15.1252    2.7512   26.0986 O   0  0  0  0  0  0  0  0  0  0  0  0
   16.5430    2.4138   31.6584 N   0  0  0  0  0  0  0  0  0  0  0  0
   16.5740    3.5533   32.5309 C   0  0  0  0  0  0  0  0  0  0  0  0
   15.4758    4.2782   33.0566 N   0  0  0  0  0  0  0  0  0  0  0  0
   14.3674    3.7851   32.6669 C   0  0  0  0  0  0  0  0  0  0  0  0
   14.2289    2.6125   31.7745 C   0  0  0  0  0  0  0  0  0  0  0  0
   15.2946    1.9639   31.2872 C   0  0  0  0  0  0  0  0  0  0  0  0
   15.0306    0.9500   30.4890 N   0  0  0  0  0  0  0  0  0  0  0  0
   12.9837    2.3004   31.5051 N   0  0  0  0  0  0  0  0  0  0  0  0
   12.3384    3.2793   32.2380 C   0  0  0  0  0  0  0  0  0  0  0  0
   13.1869    4.2054   32.9709 N   0  0  0  0  0  0  0  0  0  0  0  0
  2  1  1  6  0  0  0
  2  3  1  0  0  0  0
  2  5  1  0  0  0  0
  3  4  1  0  0  0  0
  3 17  1  0  0  0  0
  5  6  1  0  0  0  0
  7  6  1  6  0  0  0
  7  8  1  0  0  0  0
  7  9  1  0  0  0  0
 10  9  1  6  0  0  0
 10 11  1  0  0  0  0
 10 12  1  0  0  0  0
 11 16  1  0  0  0  0
 12 13  1  1  0  0  0
 12 14  1  0  0  0  0
 14 15  1  1  0  0  0
 14 16  1  0  0  0  0
 16 27  1  6  0  0  0
 18 19  2  0  0  0  0
 18 23  1  0  0  0  0
 19 20  1  0  0  0  0
 20 21  2  0  0  0  0
 21 22  1  0  0  0  0
 21 27  1  0  0  0  0
 22 23  2  0  0  0  0
 22 25  1  0  0  0  0
 23 24  1  0  0  0  0
 25 26  2  0  0  0  0
 26 27  1  0  0  0  0
M  END
>  <CHROM.1>
-34.17972884,16.42222116,159.80936182,-80.97323299,-92.99420401,-34.94215645
120.43366358,14.04743689,4.75005922,30.90391829,1.14118258,1.04913048,-1.61830383

>  <Name>
ligand

>  <RI>
0

>  <Rbt.Current_Directory>
/home/itssahil/PROJECTS/Mol_Feturizer/Test_systems_manuscript/rnas/4aob

>  <Rbt.Executable>
rbdock ($Id: //depot/dev/client3/rdock/2013.1/src/exe/rbdock.cxx#4 $)

>  <Rbt.Library>
libRbt.so (2013.1, Build901 2013/11/27)

>  <Rbt.Parameter_File>
/export/apps/rDock/src/rDock_2013.1_src/data/scripts/dock_solv.prm

>  <Rbt.Receptor>
prm/pocket_docking_2.prm

>  <SCORE>
-4.69094

>  <SCORE.INTER>
-12.9654

>  <SCORE.INTER.CONST>
1

>  <SCORE.INTER.POLAR>
0

>  <SCORE.INTER.ROT>
7

>  <SCORE.INTER.SOLV>
15.5274

>  <SCORE.INTER.VDW>
-22.0861

>  <SCORE.INTER.norm>
-0.480201

>  <SCORE.INTRA>
7.40897

>  <SCORE.INTRA.DIHEDRAL>
6.84949

>  <SCORE.INTRA.DIHEDRAL.0>
6.31833

>  <SCORE.INTRA.POLAR>
0

>  <SCORE.INTRA.POLAR.0>
0

>  <SCORE.INTRA.REPUL>
0

>  <SCORE.INTRA.REPUL.0>
0

>  <SCORE.INTRA.SOLV>
3.01592

>  <SCORE.INTRA.SOLV.lig_0>
-48.4015

>  <SCORE.INTRA.VDW>
2.47627

>  <SCORE.INTRA.VDW.0>
-2.83256

>  <SCORE.INTRA.norm>
0.274406

>  <SCORE.RESTR>
0.865525

>  <SCORE.RESTR.CAVITY>
0.865525

>  <SCORE.RESTR.norm>
0.0320565

>  <SCORE.SYSTEM>
0

>  <SCORE.SYSTEM.CONST>
0

>  <SCORE.SYSTEM.DIHEDRAL>
0

>  <SCORE.SYSTEM.SOLV>
0

>  <SCORE.SYSTEM.norm>
0

>  <SCORE.heavy>
27

>  <SCORE.norm>
-0.173739

>  <RMSD>
2.146

$$$$
ligand
 OpenBabel02271912153D
libRbt.so/2013.1/901 2013/11/27
 27 29  0  0  0  0  0  0  0  0999 V2000
   14.4091    8.3725   24.9268 N   0  0  0  0  0  0  0  0  0  0  0  0
   14.6884    8.0583   26.3486 C   0  0  2  0  0  0  0  0  0  0  0  0
   13.7503    6.9347   26.7704 C   0  0  0  0  0  0  0  0  0  0  0  0
   12.4751    6.9710   26.7636 O   0  0  0  0  0  0  0  0  0  0  0  0
   14.5175    9.3335   27.1771 C   0  0  0  0  0  0  0  0  0  0  0  0
   14.8091    9.1184   28.6563 C   0  0  0  0  0  0  0  0  0  0  0  0
   13.8078    8.0228   29.7303 S   0  0  2  0  0  0  0  0  0  0  0  0
   12.2782    8.9559   29.7200 C   0  0  0  0  0  0  0  0  0  0  0  0
   14.5682    8.4605   31.3261 C   0  0  0  0  0  0  0  0  0  0  0  0
   13.7080    8.0341   32.4837 C   0  0  1  0  0  0  0  0  0  0  0  0
   12.6824    7.0887   32.0947 O   0  0  0  0  0  0  0  0  0  0  0  0
   14.4722    7.4083   33.6281 C   0  0  1  0  0  0  0  0  0  0  0  0
   14.6770    8.3650   34.5742 O   0  0  0  0  0  0  0  0  0  0  0  0
   13.4235    6.4635   34.1665 C   0  0  1  0  0  0  0  0  0  0  0  0
   12.6343    7.2164   34.9763 O   0  0  0  0  0  0  0  0  0  0  0  0
   12.5925    5.9854   32.9553 C   0  0  2  0  0  0  0  0  0  0  0  0
   14.2899    5.9181   27.2108 O   0  0  0  0  0  0  0  0  0  0  0  0
   13.9238    0.9518   32.7006 N   0  0  0  0  0  0  0  0  0  0  0  0
   12.9206    1.6718   33.4326 C   0  0  0  0  0  0  0  0  0  0  0  0
   12.6524    3.0629   33.4055 N   0  0  0  0  0  0  0  0  0  0  0  0
   13.4334    3.6685   32.6012 C   0  0  0  0  0  0  0  0  0  0  0  0
   14.4934    3.0182   31.7986 C   0  0  0  0  0  0  0  0  0  0  0  0
   14.7237    1.7005   31.8650 C   0  0  0  0  0  0  0  0  0  0  0  0
   15.7094    1.2542   31.1139 N   0  0  0  0  0  0  0  0  0  0  0  0
   15.1756    3.8537   31.0523 N   0  0  0  0  0  0  0  0  0  0  0  0
   14.5352    5.0333   31.3846 C   0  0  0  0  0  0  0  0  0  0  0  0
   13.4453    4.9315   32.3418 N   0  0  0  0  0  0  0  0  0  0  0  0
  2  1  1  6  0  0  0
  2  3  1  0  0  0  0
  2  5  1  0  0  0  0
  3  4  1  0  0  0  0
  3 17  1  0  0  0  0
  5  6  1  0  0  0  0
  7  6  1  6  0  0  0
  7  8  1  0  0  0  0
  7  9  1  0  0  0  0
 10  9  1  6  0  0  0
 10 11  1  0  0  0  0
 10 12  1  0  0  0  0
 11 16  1  0  0  0  0
 12 13  1  1  0  0  0
 12 14  1  0  0  0  0
 14 15  1  1  0  0  0
 14 16  1  0  0  0  0
 16 27  1  6  0  0  0
 18 19  2  0  0  0  0
 18 23  1  0  0  0  0
 19 20  1  0  0  0  0
 20 21  2  0  0  0  0
 21 22  1  0  0  0  0
 21 27  1  0  0  0  0
 22 23  2  0  0  0  0
 22 25  1  0  0  0  0
 23 24  1  0  0  0  0
 25 26  2  0  0  0  0
 26 27  1  0  0  0  0
M  END
>  <CHROM.1>
-60.21257993,-178.94858005,-64.45334952,-66.75847946,163.19118495,15.17861594
-162.87605535,13.85873778,6.10952612,30.85530841,-1.37313227,-1.42819265
2.44759627

>  <Name>
ligand

>  <RI>
0

>  <Rbt.Current_Directory>
/home/itssahil/PROJECTS/Mol_Feturizer/Test_systems_manuscript/rnas/4aob

>  <Rbt.Executable>
rbdock ($Id: //depot/dev/client3/rdock/2013.1/src/exe/rbdock.cxx#4 $)

>  <Rbt.Library>
libRbt.so (2013.1, Build901 2013/11/27)

>  <Rbt.Parameter_File>
/export/apps/rDock/src/rDock_2013.1_src/data/scripts/dock_solv.prm

>  <Rbt.Receptor>
prm/pocket_docking_7.prm

>  <SCORE>
-9.78595

>  <SCORE.INTER>
-9.79282

>  <SCORE.INTER.CONST>
1

>  <SCORE.INTER.POLAR>
0

>  <SCORE.INTER.ROT>
7

>  <SCORE.INTER.SOLV>
12.394

>  <SCORE.INTER.VDW>
-18.9265

>  <SCORE.INTER.norm>
-0.362697

>  <SCORE.INTRA>
0.00686948

>  <SCORE.INTRA.DIHEDRAL>
1.41128

>  <SCORE.INTRA.DIHEDRAL.0>
6.31833

>  <SCORE.INTRA.POLAR>
0

>  <SCORE.INTRA.POLAR.0>
0

>  <SCORE.INTRA.REPUL>
0

>  <SCORE.INTRA.REPUL.0>
0

>  <SCORE.INTRA.SOLV>
-0.536506

>  <SCORE.INTRA.SOLV.lig_0>
-48.4015

>  <SCORE.INTRA.VDW>
-0.430519

>  <SCORE.INTRA.VDW.0>
-2.83256

>  <SCORE.INTRA.norm>
0.000254425

>  <SCORE.RESTR>
0

>  <SCORE.RESTR.CAVITY>
0

>  <SCORE.RESTR.norm>
0

>  <SCORE.SYSTEM>
0

>  <SCORE.SYSTEM.CONST>
0

>  <SCORE.SYSTEM.DIHEDRAL>
0

>  <SCORE.SYSTEM.SOLV>
0

>  <SCORE.SYSTEM.norm>
0

>  <SCORE.heavy>
27

>  <SCORE.norm>
-0.362442

>  <RMSD>
2.183

$$$$
ligand
 OpenBabel02271912153D
libRbt.so/2013.1/901 2013/11/27
 27 29  0  0  0  0  0  0  0  0999 V2000
   13.6335    8.6572   25.2690 N   0  0  0  0  0  0  0  0  0  0  0  0
   13.9132    8.1771   26.6436 C   0  0  2  0  0  0  0  0  0  0  0  0
   12.8666    7.1266   26.9923 C   0  0  0  0  0  0  0  0  0  0  0  0
   13.0713    5.8770   27.1472 O   0  0  0  0  0  0  0  0  0  0  0  0
   13.9083    9.3762   27.5942 C   0  0  0  0  0  0  0  0  0  0  0  0
   14.2928    9.0001   29.0189 C   0  0  0  0  0  0  0  0  0  0  0  0
   13.3569    7.7907   30.0278 S   0  0  2  0  0  0  0  0  0  0  0  0
   11.8596    8.7435   30.2749 C   0  0  0  0  0  0  0  0  0  0  0  0
   14.2646    8.0020   31.5923 C   0  0  0  0  0  0  0  0  0  0  0  0
   13.4628    7.5131   32.7670 C   0  0  1  0  0  0  0  0  0  0  0  0
   12.7023    6.3192   32.4618 O   0  0  0  0  0  0  0  0  0  0  0  0
   14.2863    7.2080   33.9973 C   0  0  1  0  0  0  0  0  0  0  0  0
   14.2160    8.2813   34.8312 O   0  0  0  0  0  0  0  0  0  0  0  0
   13.4530    6.1080   34.6123 C   0  0  1  0  0  0  0  0  0  0  0  0
   12.4702    6.7386   35.3065 O   0  0  0  0  0  0  0  0  0  0  0  0
   12.8198    5.3235   33.4420 C   0  0  2  0  0  0  0  0  0  0  0  0
   11.7049    7.5292   27.0752 O   0  0  0  0  0  0  0  0  0  0  0  0
   14.2668    0.7984   31.2961 N   0  0  0  0  0  0  0  0  0  0  0  0
   12.9917    1.4017   31.5623 C   0  0  0  0  0  0  0  0  0  0  0  0
   12.7309    2.6630   32.1529 N   0  0  0  0  0  0  0  0  0  0  0  0
   13.8130    3.2715   32.4402 C   0  0  0  0  0  0  0  0  0  0  0  0
   15.1732    2.7392   32.2015 C   0  0  0  0  0  0  0  0  0  0  0  0
   15.3757    1.5341   31.6533 C   0  0  0  0  0  0  0  0  0  0  0  0
   16.6351    1.1736   31.5151 N   0  0  0  0  0  0  0  0  0  0  0  0
   16.1302    3.5460   32.5934 N   0  0  0  0  0  0  0  0  0  0  0  0
   15.3651    4.5924   33.0746 C   0  0  0  0  0  0  0  0  0  0  0  0
   13.9223    4.4376   32.9794 N   0  0  0  0  0  0  0  0  0  0  0  0
  2  1  1  6  0  0  0
  2  3  1  0  0  0  0
  2  5  1  0  0  0  0
  3  4  1  0  0  0  0
  3 17  1  0  0  0  0
  5  6  1  0  0  0  0
  7  6  1  6  0  0  0
  7  8  1  0  0  0  0
  7  9  1  0  0  0  0
 10  9  1  6  0  0  0
 10 11  1  0  0  0  0
 10 12  1  0  0  0  0
 11 16  1  0  0  0  0
 12 13  1  1  0  0  0
 12 14  1  0  0  0  0
 14 15  1  1  0  0  0
 14 16  1  0  0  0  0
 16 27  1  6  0  0  0
 18 19  2  0  0  0  0
 18 23  1  0  0  0  0
 19 20  1  0  0  0  0
 20 21  2  0  0  0  0
 21 22  1  0  0  0  0
 21 27  1  0  0  0  0
 22 23  2  0  0  0  0
 22 25  1  0  0  0  0
 23 24  1  0  0  0  0
 25 26  2  0  0  0  0
 26 27  1  0  0  0  0
M  END
>  <CHROM.1>
111.31594207,-175.58336607,-59.94039820,-68.94928901,159.97667778,37.71770414
-103.64759104,13.74131895,5.89254600,31.06237787,-2.40843115,-1.35124629
1.49478387

>  <Name>
ligand

>  <RI>
0

>  <Rbt.Current_Directory>
/home/itssahil/PROJECTS/Mol_Feturizer/Test_systems_manuscript/rnas/4aob

>  <Rbt.Executable>
rbdock ($Id: //depot/dev/client3/rdock/2013.1/src/exe/rbdock.cxx#4 $)

>  <Rbt.Library>
libRbt.so (2013.1, Build901 2013/11/27)

>  <Rbt.Parameter_File>
/export/apps/rDock/src/rDock_2013.1_src/data/scripts/dock_solv.prm

>  <Rbt.Receptor>
prm/pocket_docking_6.prm

>  <SCORE>
-13.2873

>  <SCORE.INTER>
-12.7265

>  <SCORE.INTER.CONST>
1

>  <SCORE.INTER.POLAR>
0

>  <SCORE.INTER.ROT>
7

>  <SCORE.INTER.SOLV>
14.0449

>  <SCORE.INTER.VDW>
-21.4327

>  <SCORE.INTER.norm>
-0.471353

>  <SCORE.INTRA>
-0.560784

>  <SCORE.INTRA.DIHEDRAL>
-1.14806

>  <SCORE.INTRA.DIHEDRAL.0>
6.31833

>  <SCORE.INTRA.POLAR>
0

>  <SCORE.INTRA.POLAR.0>
0

>  <SCORE.INTRA.REPUL>
0

>  <SCORE.INTRA.REPUL.0>
0

>  <SCORE.INTRA.SOLV>
-0.573064

>  <SCORE.INTRA.SOLV.lig_0>
-48.4015

>  <SCORE.INTRA.VDW>
0.29978

>  <SCORE.INTRA.VDW.0>
-2.83256

>  <SCORE.INTRA.norm>
-0.0207698

>  <SCORE.RESTR>
0

>  <SCORE.RESTR.CAVITY>
0

>  <SCORE.RESTR.norm>
0

>  <SCORE.SYSTEM>
0

>  <SCORE.SYSTEM.CONST>
0

>  <SCORE.SYSTEM.DIHEDRAL>
0

>  <SCORE.SYSTEM.SOLV>
0

>  <SCORE.SYSTEM.norm>
0

>  <SCORE.heavy>
27

>  <SCORE.norm>
-0.492123

>  <RMSD>
2.195

$$$$
ligand
 OpenBabel02271912153D
libRbt.so/2013.1/901 2013/11/27
 27 29  0  0  0  0  0  0  0  0999 V2000
   12.5211    9.4915   27.1119 N   0  0  0  0  0  0  0  0  0  0  0  0
   13.5537    8.4476   26.9067 C   0  0  2  0  0  0  0  0  0  0  0  0
   12.9465    7.1075   27.3015 C   0  0  0  0  0  0  0  0  0  0  0  0
   13.5704    6.0020   27.4279 O   0  0  0  0  0  0  0  0  0  0  0  0
   14.7942    8.8151   27.7240 C   0  0  0  0  0  0  0  0  0  0  0  0
   14.4817    9.0485   29.1961 C   0  0  0  0  0  0  0  0  0  0  0  0
   13.6076    7.8270   30.2451 S   0  0  2  0  0  0  0  0  0  0  0  0
   12.0106    8.6351   30.3304 C   0  0  0  0  0  0  0  0  0  0  0  0
   14.3881    8.2473   31.8359 C   0  0  0  0  0  0  0  0  0  0  0  0
   13.5511    7.7922   32.9996 C   0  0  1  0  0  0  0  0  0  0  0  0
   12.7062    6.6638   32.6681 O   0  0  0  0  0  0  0  0  0  0  0  0
   14.3485    7.4007   34.2227 C   0  0  1  0  0  0  0  0  0  0  0  0
   14.3552    8.4577   35.0802 O   0  0  0  0  0  0  0  0  0  0  0  0
   13.4364    6.3510   34.8133 C   0  0  1  0  0  0  0  0  0  0  0  0
   12.5011    7.0359   35.5215 O   0  0  0  0  0  0  0  0  0  0  0  0
   12.7494    5.6407   33.6260 C   0  0  2  0  0  0  0  0  0  0  0  0
   11.7241    7.0939   27.4567 O   0  0  0  0  0  0  0  0  0  0  0  0
   13.8720    1.0055   31.5215 N   0  0  0  0  0  0  0  0  0  0  0  0
   12.6417    1.6826   31.8190 C   0  0  0  0  0  0  0  0  0  0  0  0
   12.4708    2.9667   32.3932 N   0  0  0  0  0  0  0  0  0  0  0  0
   13.5938    3.5197   32.6316 C   0  0  0  0  0  0  0  0  0  0  0  0
   14.9139    2.9092   32.3573 C   0  0  0  0  0  0  0  0  0  0  0  0
   15.0312    1.6851   31.8263 C   0  0  0  0  0  0  0  0  0  0  0  0
   16.2634    1.2535   31.6524 N   0  0  0  0  0  0  0  0  0  0  0  0
   15.9265    3.6689   32.7004 N   0  0  0  0  0  0  0  0  0  0  0  0
   15.2368    4.7642   33.1867 C   0  0  0  0  0  0  0  0  0  0  0  0
   13.7853    4.6875   33.1436 N   0  0  0  0  0  0  0  0  0  0  0  0
  2  1  1  1  0  0  0
  2  3  1  0  0  0  0
  2  5  1  0  0  0  0
  3  4  1  0  0  0  0
  3 17  1  0  0  0  0
  5  6  1  0  0  0  0
  7  6  1  6  0  0  0
  7  8  1  0  0  0  0
  7  9  1  0  0  0  0
 10  9  1  6  0  0  0
 10 11  1  0  0  0  0
 10 12  1  0  0  0  0
 11 16  1  0  0  0  0
 12 13  1  1  0  0  0
 12 14  1  0  0  0  0
 14 15  1  1  0  0  0
 14 16  1  0  0  0  0
 16 27  1  6  0  0  0
 18 19  2  0  0  0  0
 18 23  1  0  0  0  0
 19 20  1  0  0  0  0
 20 21  2  0  0  0  0
 21 22  1  0  0  0  0
 21 27  1  0  0  0  0
 22 23  2  0  0  0  0
 22 25  1  0  0  0  0
 23 24  1  0  0  0  0
 25 26  2  0  0  0  0
 26 27  1  0  0  0  0
M  END
>  <CHROM.1>
-170.33163560,54.34770494,53.95356678,-105.05742785,158.78424208,26.18609301
-106.90721032,13.70272213,6.04135511,31.32800481,-2.62445700,-1.41289282
1.31202611

>  <Name>
ligand

>  <RI>
0

>  <Rbt.Current_Directory>
/home/itssahil/PROJECTS/Mol_Feturizer/Test_systems_manuscript/rnas/4aob

>  <Rbt.Executable>
rbdock ($Id: //depot/dev/client3/rdock/2013.1/src/exe/rbdock.cxx#4 $)

>  <Rbt.Library>
libRbt.so (2013.1, Build901 2013/11/27)

>  <Rbt.Parameter_File>
/export/apps/rDock/src/rDock_2013.1_src/data/scripts/dock_solv.prm

>  <Rbt.Receptor>
prm/pocket_docking_3.prm

>  <SCORE>
-9.48185

>  <SCORE.INTER>
-13.1328

>  <SCORE.INTER.CONST>
1

>  <SCORE.INTER.POLAR>
0

>  <SCORE.INTER.ROT>
7

>  <SCORE.INTER.SOLV>
13.9862

>  <SCORE.INTER.VDW>
-21.6839

>  <SCORE.INTER.norm>
-0.486399

>  <SCORE.INTRA>
3.65092

>  <SCORE.INTRA.DIHEDRAL>
3.72056

>  <SCORE.INTRA.DIHEDRAL.0>
6.31833

>  <SCORE.INTRA.POLAR>
0

>  <SCORE.INTRA.POLAR.0>
0

>  <SCORE.INTRA.REPUL>
0

>  <SCORE.INTRA.REPUL.0>
0

>  <SCORE.INTRA.SOLV>
1.90035

>  <SCORE.INTRA.SOLV.lig_0>
-48.4015

>  <SCORE.INTRA.VDW>
0.840464

>  <SCORE.INTRA.VDW.0>
-2.83256

>  <SCORE.INTRA.norm>
0.135219

>  <SCORE.RESTR>
0

>  <SCORE.RESTR.CAVITY>
0

>  <SCORE.RESTR.norm>
0

>  <SCORE.SYSTEM>
0

>  <SCORE.SYSTEM.CONST>
0

>  <SCORE.SYSTEM.DIHEDRAL>
0

>  <SCORE.SYSTEM.SOLV>
0

>  <SCORE.SYSTEM.norm>
0

>  <SCORE.heavy>
27

>  <SCORE.norm>
-0.35118

>  <RMSD>
2.218

$$$$
ligand
 OpenBabel02271912153D
libRbt.so/2013.1/901 2013/11/27
 27 29  0  0  0  0  0  0  0  0999 V2000
   12.3913    7.5946   26.7689 N   0  0  0  0  0  0  0  0  0  0  0  0
   13.3178    6.8899   27.6873 C   0  0  2  0  0  0  0  0  0  0  0  0
   13.2189    5.3983   27.3947 C   0  0  0  0  0  0  0  0  0  0  0  0
   12.7087    4.5102   28.1554 O   0  0  0  0  0  0  0  0  0  0  0  0
   12.9507    7.2503   29.1285 C   0  0  0  0  0  0  0  0  0  0  0  0
   13.1624    8.7262   29.4387 C   0  0  0  0  0  0  0  0  0  0  0  0
   14.8149    9.4724   29.7007 S   0  0  2  0  0  0  0  0  0  0  0  0
   15.5635    9.0330   28.1332 C   0  0  0  0  0  0  0  0  0  0  0  0
   15.4781    8.2318   30.8572 C   0  0  0  0  0  0  0  0  0  0  0  0
   14.7633    8.2713   32.1799 C   0  0  1  0  0  0  0  0  0  0  0  0
   13.4016    7.7872   32.0897 O   0  0  0  0  0  0  0  0  0  0  0  0
   15.4403    7.4800   33.2756 C   0  0  1  0  0  0  0  0  0  0  0  0
   16.1720    8.3434   34.0316 O   0  0  0  0  0  0  0  0  0  0  0  0
   14.2382    7.0747   34.0960 C   0  0  1  0  0  0  0  0  0  0  0  0
   13.9668    8.1379   34.8969 O   0  0  0  0  0  0  0  0  0  0  0  0
   13.0696    6.8788   33.1050 C   0  0  2  0  0  0  0  0  0  0  0  0
   13.7355    5.0196   26.3420 O   0  0  0  0  0  0  0  0  0  0  0  0
   12.6834    1.7042   33.6038 N   0  0  0  0  0  0  0  0  0  0  0  0
   12.2343    2.8092   34.4024 C   0  0  0  0  0  0  0  0  0  0  0  0
   12.3989    4.1931   34.1464 N   0  0  0  0  0  0  0  0  0  0  0  0
   13.0199    4.3898   33.0512 C   0  0  0  0  0  0  0  0  0  0  0  0
   13.5179    3.3215   32.1560 C   0  0  0  0  0  0  0  0  0  0  0  0
   13.3537    2.0236   32.4431 C   0  0  0  0  0  0  0  0  0  0  0  0
   13.8624    1.1770   31.5717 N   0  0  0  0  0  0  0  0  0  0  0  0
   14.1374    3.7731   31.0918 N   0  0  0  0  0  0  0  0  0  0  0  0
   14.0213    5.1322   31.3184 C   0  0  0  0  0  0  0  0  0  0  0  0
   13.3226    5.5297   32.5302 N   0  0  0  0  0  0  0  0  0  0  0  0
  2  1  1  6  0  0  0
  2  3  1  0  0  0  0
  2  5  1  0  0  0  0
  3  4  1  0  0  0  0
  3 17  1  0  0  0  0
  5  6  1  0  0  0  0
  7  6  1  6  0  0  0
  7  8  1  0  0  0  0
  7  9  1  0  0  0  0
 10  9  1  6  0  0  0
 10 11  1  0  0  0  0
 10 12  1  0  0  0  0
 11 16  1  0  0  0  0
 12 13  1  1  0  0  0
 12 14  1  0  0  0  0
 14 15  1  1  0  0  0
 14 16  1  0  0  0  0
 16 27  1  6  0  0  0
 18 19  2  0  0  0  0
 18 23  1  0  0  0  0
 19 20  1  0  0  0  0
 20 21  2  0  0  0  0
 21 22  1  0  0  0  0
 21 27  1  0  0  0  0
 22 23  2  0  0  0  0
 22 25  1  0  0  0  0
 23 24  1  0  0  0  0
 25 26  2  0  0  0  0
 26 27  1  0  0  0  0
M  END
>  <CHROM.1>
-110.53594394,-64.78353907,-75.10312181,57.71510480,-68.03990946,69.90565749
-171.78198521,13.81016884,6.17139975,31.13360790,1.12598774,-1.27470496,-1.24598834

>  <Name>
ligand

>  <RI>
0

>  <Rbt.Current_Directory>
/home/itssahil/PROJECTS/Mol_Feturizer/Test_systems_manuscript/rnas/4aob

>  <Rbt.Executable>
rbdock ($Id: //depot/dev/client3/rdock/2013.1/src/exe/rbdock.cxx#4 $)

>  <Rbt.Library>
libRbt.so (2013.1, Build901 2013/11/27)

>  <Rbt.Parameter_File>
/export/apps/rDock/src/rDock_2013.1_src/data/scripts/dock_solv.prm

>  <Rbt.Receptor>
prm/pocket_docking_4.prm

>  <SCORE>
-12.2774

>  <SCORE.INTER>
-12.0855

>  <SCORE.INTER.CONST>
1

>  <SCORE.INTER.POLAR>
0

>  <SCORE.INTER.ROT>
7

>  <SCORE.INTER.SOLV>
13.9889

>  <SCORE.INTER.VDW>
-20.9866

>  <SCORE.INTER.norm>
-0.447611

>  <SCORE.INTRA>
-0.191943

>  <SCORE.INTRA.DIHEDRAL>
-1.85984

>  <SCORE.INTRA.DIHEDRAL.0>
6.31833

>  <SCORE.INTRA.POLAR>
0

>  <SCORE.INTRA.POLAR.0>
0

>  <SCORE.INTRA.REPUL>
0

>  <SCORE.INTRA.REPUL.0>
0

>  <SCORE.INTRA.SOLV>
1.15614

>  <SCORE.INTRA.SOLV.lig_0>
-48.4015

>  <SCORE.INTRA.VDW>
0.159907

>  <SCORE.INTRA.VDW.0>
-2.83256

>  <SCORE.INTRA.norm>
-0.00710901

>  <SCORE.RESTR>
0

>  <SCORE.RESTR.CAVITY>
0

>  <SCORE.RESTR.norm>
0

>  <SCORE.SYSTEM>
0

>  <SCORE.SYSTEM.CONST>
0

>  <SCORE.SYSTEM.DIHEDRAL>
0

>  <SCORE.SYSTEM.SOLV>
0

>  <SCORE.SYSTEM.norm>
0

>  <SCORE.heavy>
27

>  <SCORE.norm>
-0.45472

>  <RMSD>
2.230

$$$$
ligand
 OpenBabel02271912153D
libRbt.so/2013.1/901 2013/11/27
 27 29  0  0  0  0  0  0  0  0999 V2000
    9.7498    7.1446   26.3878 N   0  0  0  0  0  0  0  0  0  0  0  0
   10.9802    7.9520   26.2069 C   0  0  2  0  0  0  0  0  0  0  0  0
   12.0778    7.0225   25.7054 C   0  0  0  0  0  0  0  0  0  0  0  0
   12.8235    7.2122   24.6878 O   0  0  0  0  0  0  0  0  0  0  0  0
   11.3218    8.6324   27.5343 C   0  0  0  0  0  0  0  0  0  0  0  0
   11.5353    7.6382   28.6680 C   0  0  0  0  0  0  0  0  0  0  0  0
   12.1248    8.1228   30.3336 S   0  0  2  0  0  0  0  0  0  0  0  0
   13.8082    8.5655   29.9082 C   0  0  0  0  0  0  0  0  0  0  0  0
   12.2855    6.4546   31.0461 C   0  0  0  0  0  0  0  0  0  0  0  0
   12.5165    6.5078   32.5313 C   0  0  1  0  0  0  0  0  0  0  0  0
   12.3974    5.2081   33.1585 O   0  0  0  0  0  0  0  0  0  0  0  0
   13.8626    7.0677   32.9309 C   0  0  1  0  0  0  0  0  0  0  0  0
   13.6969    8.3795   33.2538 O   0  0  0  0  0  0  0  0  0  0  0  0
   14.0945    6.3151   34.2201 C   0  0  1  0  0  0  0  0  0  0  0  0
   13.4151    7.0046   35.1733 O   0  0  0  0  0  0  0  0  0  0  0  0
   13.4458    4.9242   34.0453 C   0  0  2  0  0  0  0  0  0  0  0  0
   12.2096    5.9625   26.3197 O   0  0  0  0  0  0  0  0  0  0  0  0
   14.5355    0.7933   31.0582 N   0  0  0  0  0  0  0  0  0  0  0  0
   13.3300    1.2820   31.6653 C   0  0  0  0  0  0  0  0  0  0  0  0
   13.1636    2.4430   32.4606 N   0  0  0  0  0  0  0  0  0  0  0  0
   14.2625    3.0745   32.5920 C   0  0  0  0  0  0  0  0  0  0  0  0
   15.5549    2.6577   32.0031 C   0  0  0  0  0  0  0  0  0  0  0  0
   15.6717    1.5438   31.2686 C   0  0  0  0  0  0  0  0  0  0  0  0
   16.8819    1.2788   30.8212 N   0  0  0  0  0  0  0  0  0  0  0  0
   16.5481    3.4654   32.2886 N   0  0  0  0  0  0  0  0  0  0  0  0
   15.8728    4.3969   33.0555 C   0  0  0  0  0  0  0  0  0  0  0  0
   14.4493    4.1695   33.2467 N   0  0  0  0  0  0  0  0  0  0  0  0
  2  1  1  1  0  0  0
  2  3  1  0  0  0  0
  2  5  1  0  0  0  0
  3  4  1  0  0  0  0
  3 17  1  0  0  0  0
  5  6  1  0  0  0  0
  7  6  1  6  0  0  0
  7  8  1  0  0  0  0
  7  9  1  0  0  0  0
 10  9  1  6  0  0  0
 10 11  1  0  0  0  0
 10 12  1  0  0  0  0
 11 16  1  0  0  0  0
 12 13  1  1  0  0  0
 12 14  1  0  0  0  0
 14 15  1  1  0  0  0
 14 16  1  0  0  0  0
 16 27  1  6  0  0  0
 18 19  2  0  0  0  0
 18 23  1  0  0  0  0
 19 20  1  0  0  0  0
 20 21  2  0  0  0  0
 21 22  1  0  0  0  0
 21 27  1  0  0  0  0
 22 23  2  0  0  0  0
 22 25  1  0  0  0  0
 23 24  1  0  0  0  0
 25 26  2  0  0  0  0
 26 27  1  0  0  0  0
M  END
>  <CHROM.1>
128.94975510,58.64635762,173.46257551,-69.46872946,-169.23788230,169.12103558
-56.84199237,13.33131259,5.59721423,30.78082598,-2.69190680,-1.11674186,1.12390623

>  <Name>
ligand

>  <RI>
0

>  <Rbt.Current_Directory>
/home/itssahil/PROJECTS/Mol_Feturizer/Test_systems_manuscript/rnas/4aob

>  <Rbt.Executable>
rbdock ($Id: //depot/dev/client3/rdock/2013.1/src/exe/rbdock.cxx#4 $)

>  <Rbt.Library>
libRbt.so (2013.1, Build901 2013/11/27)

>  <Rbt.Parameter_File>
/export/apps/rDock/src/rDock_2013.1_src/data/scripts/dock_solv.prm

>  <Rbt.Receptor>
prm/pocket_docking_5.prm

>  <SCORE>
-12.99

>  <SCORE.INTER>
-13.146

>  <SCORE.INTER.CONST>
1

>  <SCORE.INTER.POLAR>
0

>  <SCORE.INTER.ROT>
7

>  <SCORE.INTER.SOLV>
17.3317

>  <SCORE.INTER.VDW>
-22.8079

>  <SCORE.INTER.norm>
-0.486889

>  <SCORE.INTRA>
0.155986

>  <SCORE.INTRA.DIHEDRAL>
-1.48957

>  <SCORE.INTRA.DIHEDRAL.0>
6.31833

>  <SCORE.INTRA.POLAR>
0

>  <SCORE.INTRA.POLAR.0>
0

>  <SCORE.INTRA.REPUL>
0

>  <SCORE.INTRA.REPUL.0>
0

>  <SCORE.INTRA.SOLV>
0.240182

>  <SCORE.INTRA.SOLV.lig_0>
-48.4015

>  <SCORE.INTRA.VDW>
0.780679

>  <SCORE.INTRA.VDW.0>
-2.83256

>  <SCORE.INTRA.norm>
0.00577724

>  <SCORE.RESTR>
0

>  <SCORE.RESTR.CAVITY>
0

>  <SCORE.RESTR.norm>
0

>  <SCORE.SYSTEM>
0

>  <SCORE.SYSTEM.CONST>
0

>  <SCORE.SYSTEM.DIHEDRAL>
0

>  <SCORE.SYSTEM.SOLV>
0

>  <SCORE.SYSTEM.norm>
0

>  <SCORE.heavy>
27

>  <SCORE.norm>
-0.481112

>  <RMSD>
2.241

$$$$
ligand
 OpenBabel02271912153D
libRbt.so/2013.1/901 2013/11/27
 27 29  0  0  0  0  0  0  0  0999 V2000
   14.5967    8.0374   26.1311 N   0  0  0  0  0  0  0  0  0  0  0  0
   14.3923    6.5779   25.9687 C   0  0  2  0  0  0  0  0  0  0  0  0
   12.9663    6.3587   25.4801 C   0  0  0  0  0  0  0  0  0  0  0  0
   11.9014    6.4914   26.1699 O   0  0  0  0  0  0  0  0  0  0  0  0
   14.6888    5.8882   27.3021 C   0  0  0  0  0  0  0  0  0  0  0  0
   13.8321    6.4197   28.4435 C   0  0  0  0  0  0  0  0  0  0  0  0
   13.9195    5.7699   30.1542 S   0  0  2  0  0  0  0  0  0  0  0  0
   13.2899    4.1200   29.8509 C   0  0  0  0  0  0  0  0  0  0  0  0
   12.4859    6.6580   30.8414 C   0  0  0  0  0  0  0  0  0  0  0  0
   12.4693    6.6017   32.3443 C   0  0  1  0  0  0  0  0  0  0  0  0
   12.2570    5.2605   32.8472 O   0  0  0  0  0  0  0  0  0  0  0  0
   13.7276    7.1236   32.9994 C   0  0  1  0  0  0  0  0  0  0  0  0
   13.5026    8.4092   33.3852 O   0  0  0  0  0  0  0  0  0  0  0  0
   13.7493    6.2779   34.2511 C   0  0  1  0  0  0  0  0  0  0  0  0
   12.9180    6.9000   35.1271 O   0  0  0  0  0  0  0  0  0  0  0  0
   13.1471    4.9070   33.8714 C   0  0  2  0  0  0  0  0  0  0  0  0
   12.8487    5.9613   24.3196 O   0  0  0  0  0  0  0  0  0  0  0  0
   14.8320    0.7353   31.2383 N   0  0  0  0  0  0  0  0  0  0  0  0
   13.5442    1.1412   31.7256 C   0  0  0  0  0  0  0  0  0  0  0  0
   13.2130    2.3243   32.4316 N   0  0  0  0  0  0  0  0  0  0  0  0
   14.2370    3.0637   32.6005 C   0  0  0  0  0  0  0  0  0  0  0  0
   15.6031    2.7386   32.1330 C   0  0  0  0  0  0  0  0  0  0  0  0
   15.8762    1.6009   31.4811 C   0  0  0  0  0  0  0  0  0  0  0  0
   17.1362    1.4270   31.1388 N   0  0  0  0  0  0  0  0  0  0  0  0
   16.4944    3.6517   32.4366 N   0  0  0  0  0  0  0  0  0  0  0  0
   15.6808    4.5570   33.0927 C   0  0  0  0  0  0  0  0  0  0  0  0
   14.2731    4.2068   33.1959 N   0  0  0  0  0  0  0  0  0  0  0  0
  2  1  1  1  0  0  0
  2  3  1  0  0  0  0
  2  5  1  0  0  0  0
  3  4  1  0  0  0  0
  3 17  1  0  0  0  0
  5  6  1  0  0  0  0
  7  6  1  6  0  0  0
  7  8  1  0  0  0  0
  7  9  1  0  0  0  0
 10  9  1  6  0  0  0
 10 11  1  0  0  0  0
 10 12  1  0  0  0  0
 11 16  1  0  0  0  0
 12 13  1  1  0  0  0
 12 14  1  0  0  0  0
 14 15  1  1  0  0  0
 14 16  1  0  0  0  0
 16 27  1  6  0  0  0
 18 19  2  0  0  0  0
 18 23  1  0  0  0  0
 19 20  1  0  0  0  0
 20 21  2  0  0  0  0
 21 22  1  0  0  0  0
 21 27  1  0  0  0  0
 22 23  2  0  0  0  0
 22 25  1  0  0  0  0
 23 24  1  0  0  0  0
 25 26  2  0  0  0  0
 26 27  1  0  0  0  0
M  END
>  <CHROM.1>
-72.70047328,57.24412111,178.42848133,-66.15576638,-166.10729277,-66.23199096
-67.49935951,13.93221164,5.04765280,30.71092518,1.86518463,1.17501857,-1.51780438

>  <Name>
ligand

>  <RI>
0

>  <Rbt.Current_Directory>
/home/itssahil/PROJECTS/Mol_Feturizer/Test_systems_manuscript/rnas/4aob

>  <Rbt.Executable>
rbdock ($Id: //depot/dev/client3/rdock/2013.1/src/exe/rbdock.cxx#4 $)

>  <Rbt.Library>
libRbt.so (2013.1, Build901 2013/11/27)

>  <Rbt.Parameter_File>
/export/apps/rDock/src/rDock_2013.1_src/data/scripts/dock_solv.prm

>  <Rbt.Receptor>
prm/pocket_docking_5.prm

>  <SCORE>
-12.5939

>  <SCORE.INTER>
-11.2778

>  <SCORE.INTER.CONST>
1

>  <SCORE.INTER.POLAR>
0

>  <SCORE.INTER.ROT>
7

>  <SCORE.INTER.SOLV>
15.3958

>  <SCORE.INTER.VDW>
-20.9171

>  <SCORE.INTER.norm>
-0.417697

>  <SCORE.INTRA>
-1.3161

>  <SCORE.INTRA.DIHEDRAL>
-1.52786

>  <SCORE.INTRA.DIHEDRAL.0>
6.31833

>  <SCORE.INTRA.POLAR>
0

>  <SCORE.INTRA.POLAR.0>
0

>  <SCORE.INTRA.REPUL>
0

>  <SCORE.INTRA.REPUL.0>
0

>  <SCORE.INTRA.SOLV>
0.165333

>  <SCORE.INTRA.SOLV.lig_0>
-48.4015

>  <SCORE.INTRA.VDW>
-0.634835

>  <SCORE.INTRA.VDW.0>
-2.83256

>  <SCORE.INTRA.norm>
-0.0487444

>  <SCORE.RESTR>
0

>  <SCORE.RESTR.CAVITY>
0

>  <SCORE.RESTR.norm>
0

>  <SCORE.SYSTEM>
0

>  <SCORE.SYSTEM.CONST>
0

>  <SCORE.SYSTEM.DIHEDRAL>
0

>  <SCORE.SYSTEM.SOLV>
0

>  <SCORE.SYSTEM.norm>
0

>  <SCORE.heavy>
27

>  <SCORE.norm>
-0.466441

>  <RMSD>
2.272

$$$$
ligand
 OpenBabel02271912153D
libRbt.so/2013.1/901 2013/11/27
 27 29  0  0  0  0  0  0  0  0999 V2000
   11.5386    7.5871   25.6829 N   0  0  0  0  0  0  0  0  0  0  0  0
   11.6776    7.4103   27.1484 C   0  0  2  0  0  0  0  0  0  0  0  0
   10.9292    6.1420   27.5378 C   0  0  0  0  0  0  0  0  0  0  0  0
    9.6630    5.9896   27.5674 O   0  0  0  0  0  0  0  0  0  0  0  0
   11.1492    8.6646   27.8477 C   0  0  0  0  0  0  0  0  0  0  0  0
   11.1840    8.5516   29.3659 C   0  0  0  0  0  0  0  0  0  0  0  0
   12.7378    8.4817   30.3343 S   0  0  2  0  0  0  0  0  0  0  0  0
   13.9057    8.4885   28.9754 C   0  0  0  0  0  0  0  0  0  0  0  0
   12.6580    6.7296   30.8244 C   0  0  0  0  0  0  0  0  0  0  0  0
   12.5660    6.5771   32.3178 C   0  0  1  0  0  0  0  0  0  0  0  0
   12.2784    5.2161   32.7202 O   0  0  0  0  0  0  0  0  0  0  0  0
   13.8100    7.0030   33.0635 C   0  0  1  0  0  0  0  0  0  0  0  0
   13.6158    8.2693   33.5232 O   0  0  0  0  0  0  0  0  0  0  0  0
   13.7384    6.0780   34.2559 C   0  0  1  0  0  0  0  0  0  0  0  0
   12.8898    6.6761   35.1320 O   0  0  0  0  0  0  0  0  0  0  0  0
   13.1034    4.7607   33.7585 C   0  0  2  0  0  0  0  0  0  0  0  0
   11.6266    5.1971   27.9111 O   0  0  0  0  0  0  0  0  0  0  0  0
   14.7736    0.6502   31.0218 N   0  0  0  0  0  0  0  0  0  0  0  0
   13.4811    1.0679   31.4860 C   0  0  0  0  0  0  0  0  0  0  0  0
   13.1551    2.2317   32.2257 N   0  0  0  0  0  0  0  0  0  0  0  0
   14.1898    2.9403   32.4521 C   0  0  0  0  0  0  0  0  0  0  0  0
   15.5618    2.6008   32.0128 C   0  0  0  0  0  0  0  0  0  0  0  0
   15.8290    1.4817   31.3272 C   0  0  0  0  0  0  0  0  0  0  0  0
   17.0945    1.2910   31.0156 N   0  0  0  0  0  0  0  0  0  0  0  0
   16.4636    3.4811   32.3763 N   0  0  0  0  0  0  0  0  0  0  0  0
   15.6509    4.3804   33.0417 C   0  0  0  0  0  0  0  0  0  0  0  0
   14.2334    4.0596   33.0906 N   0  0  0  0  0  0  0  0  0  0  0  0
  2  1  1  6  0  0  0
  2  3  1  0  0  0  0
  2  5  1  0  0  0  0
  3  4  1  0  0  0  0
  3 17  1  0  0  0  0
  5  6  1  0  0  0  0
  7  6  1  6  0  0  0
  7  8  1  0  0  0  0
  7  9  1  0  0  0  0
 10  9  1  6  0  0  0
 10 11  1  0  0  0  0
 10 12  1  0  0  0  0
 11 16  1  0  0  0  0
 12 13  1  1  0  0  0
 12 14  1  0  0  0  0
 14 15  1  1  0  0  0
 14 16  1  0  0  0  0
 16 27  1  6  0  0  0
 18 19  2  0  0  0  0
 18 23  1  0  0  0  0
 19 20  1  0  0  0  0
 20 21  2  0  0  0  0
 21 22  1  0  0  0  0
 21 27  1  0  0  0  0
 22 23  2  0  0  0  0
 22 25  1  0  0  0  0
 23 24  1  0  0  0  0
 25 26  2  0  0  0  0
 26 27  1  0  0  0  0
M  END
>  <CHROM.1>
-71.96720419,177.09372154,67.48892677,-3.10371863,-117.47427652,170.36315256
-69.66169103,13.23123236,5.49541982,30.98602182,3.13573353,-1.08839747,0.84953545

>  <Name>
ligand

>  <RI>
0

>  <Rbt.Current_Directory>
/home/itssahil/PROJECTS/Mol_Feturizer/Test_systems_manuscript/rnas/4aob

>  <Rbt.Executable>
rbdock ($Id: //depot/dev/client3/rdock/2013.1/src/exe/rbdock.cxx#4 $)

>  <Rbt.Library>
libRbt.so (2013.1, Build901 2013/11/27)

>  <Rbt.Parameter_File>
/export/apps/rDock/src/rDock_2013.1_src/data/scripts/dock_solv.prm

>  <Rbt.Receptor>
prm/pocket_docking_4.prm

>  <SCORE>
-11.8147

>  <SCORE.INTER>
-16.4105

>  <SCORE.INTER.CONST>
1

>  <SCORE.INTER.POLAR>
0

>  <SCORE.INTER.ROT>
7

>  <SCORE.INTER.SOLV>
16.39

>  <SCORE.INTER.VDW>
-24.6703

>  <SCORE.INTER.norm>
-0.607798

>  <SCORE.INTRA>
4.59579

>  <SCORE.INTRA.DIHEDRAL>
5.69573

>  <SCORE.INTRA.DIHEDRAL.0>
6.31833

>  <SCORE.INTRA.POLAR>
0

>  <SCORE.INTRA.POLAR.0>
0

>  <SCORE.INTRA.REPUL>
0

>  <SCORE.INTRA.REPUL.0>
0

>  <SCORE.INTRA.SOLV>
-0.120079

>  <SCORE.INTRA.SOLV.lig_0>
-48.4015

>  <SCORE.INTRA.VDW>
1.80797

>  <SCORE.INTRA.VDW.0>
-2.83256

>  <SCORE.INTRA.norm>
0.170215

>  <SCORE.RESTR>
0

>  <SCORE.RESTR.CAVITY>
0

>  <SCORE.RESTR.norm>
0

>  <SCORE.SYSTEM>
0

>  <SCORE.SYSTEM.CONST>
0

>  <SCORE.SYSTEM.DIHEDRAL>
0

>  <SCORE.SYSTEM.SOLV>
0

>  <SCORE.SYSTEM.norm>
0

>  <SCORE.heavy>
27

>  <SCORE.norm>
-0.437583

>  <RMSD>
2.327

$$$$
ligand
 OpenBabel02271912153D
libRbt.so/2013.1/901 2013/11/27
 27 29  0  0  0  0  0  0  0  0999 V2000
   12.2548    7.9389   25.9639 N   0  0  0  0  0  0  0  0  0  0  0  0
   11.7521    6.5738   26.2510 C   0  0  2  0  0  0  0  0  0  0  0  0
   10.3985    6.7103   26.9361 C   0  0  0  0  0  0  0  0  0  0  0  0
    9.8802    5.8843   27.7587 O   0  0  0  0  0  0  0  0  0  0  0  0
   12.7895    5.8360   27.1002 C   0  0  0  0  0  0  0  0  0  0  0  0
   13.2365    6.6398   28.3139 C   0  0  0  0  0  0  0  0  0  0  0  0
   12.1162    7.0866   29.6930 S   0  0  2  0  0  0  0  0  0  0  0  0
   11.5752    8.6872   29.0963 C   0  0  0  0  0  0  0  0  0  0  0  0
   13.3847    7.4962   30.9338 C   0  0  0  0  0  0  0  0  0  0  0  0
   12.9095    7.1980   32.3293 C   0  0  1  0  0  0  0  0  0  0  0  0
   12.3279    5.8771   32.4473 O   0  0  0  0  0  0  0  0  0  0  0  0
   13.9845    7.3018   33.3869 C   0  0  1  0  0  0  0  0  0  0  0  0
   13.8802    8.5230   33.9787 O   0  0  0  0  0  0  0  0  0  0  0  0
   13.4840    6.2790   34.3798 C   0  0  1  0  0  0  0  0  0  0  0  0
   12.5493    6.9219   35.1272 O   0  0  0  0  0  0  0  0  0  0  0  0
   12.7955    5.1648   33.5609 C   0  0  2  0  0  0  0  0  0  0  0  0
    9.7264    7.6910   26.6124 O   0  0  0  0  0  0  0  0  0  0  0  0
   14.4284    0.7841   31.2549 N   0  0  0  0  0  0  0  0  0  0  0  0
   13.1295    1.3190   31.5506 C   0  0  0  0  0  0  0  0  0  0  0  0
   12.8166    2.5469   32.1848 N   0  0  0  0  0  0  0  0  0  0  0  0
   13.8723    3.1947   32.4840 C   0  0  0  0  0  0  0  0  0  0  0  0
   15.2533    2.7337   32.2175 C   0  0  0  0  0  0  0  0  0  0  0  0
   15.5057    1.5578   31.6280 C   0  0  0  0  0  0  0  0  0  0  0  0
   16.7789    1.2605   31.4684 N   0  0  0  0  0  0  0  0  0  0  0  0
   16.1759    3.5704   32.6287 N   0  0  0  0  0  0  0  0  0  0  0  0
   15.3682    4.5641   33.1503 C   0  0  0  0  0  0  0  0  0  0  0  0
   13.9332    4.3463   33.0608 N   0  0  0  0  0  0  0  0  0  0  0  0
  2  1  1  1  0  0  0
  2  3  1  0  0  0  0
  2  5  1  0  0  0  0
  3  4  1  0  0  0  0
  3 17  1  0  0  0  0
  5  6  1  0  0  0  0
  7  6  1  6  0  0  0
  7  8  1  0  0  0  0
  7  9  1  0  0  0  0
 10  9  1  6  0  0  0
 10 11  1  0  0  0  0
 10 12  1  0  0  0  0
 11 16  1  0  0  0  0
 12 13  1  1  0  0  0
 12 14  1  0  0  0  0
 14 15  1  1  0  0  0
 14 16  1  0  0  0  0
 16 27  1  6  0  0  0
 18 19  2  0  0  0  0
 18 23  1  0  0  0  0
 19 20  1  0  0  0  0
 20 21  2  0  0  0  0
 21 22  1  0  0  0  0
 21 27  1  0  0  0  0
 22 23  2  0  0  0  0
 22 25  1  0  0  0  0
 23 24  1  0  0  0  0
 25 26  2  0  0  0  0
 26 27  1  0  0  0  0
M  END
>  <CHROM.1>
-152.06151574,50.49692009,64.90604690,-92.36352085,-149.24493587,48.40043439
-84.07249544,13.08387499,5.50038900,30.86252751,-2.86732678,-1.08481113,0.92137884

>  <Name>
ligand

>  <RI>
0

>  <Rbt.Current_Directory>
/home/itssahil/PROJECTS/Mol_Feturizer/Test_systems_manuscript/rnas/4aob

>  <Rbt.Executable>
rbdock ($Id: //depot/dev/client3/rdock/2013.1/src/exe/rbdock.cxx#4 $)

>  <Rbt.Library>
libRbt.so (2013.1, Build901 2013/11/27)

>  <Rbt.Parameter_File>
/export/apps/rDock/src/rDock_2013.1_src/data/scripts/dock_solv.prm

>  <Rbt.Receptor>
prm/pocket_docking_7.prm

>  <SCORE>
-12.9853

>  <SCORE.INTER>
-15.6619

>  <SCORE.INTER.CONST>
1

>  <SCORE.INTER.POLAR>
0

>  <SCORE.INTER.ROT>
7

>  <SCORE.INTER.SOLV>
15.006

>  <SCORE.INTER.VDW>
-23.71

>  <SCORE.INTER.norm>
-0.580071

>  <SCORE.INTRA>
2.67667

>  <SCORE.INTRA.DIHEDRAL>
2.53719

>  <SCORE.INTRA.DIHEDRAL.0>
6.31833

>  <SCORE.INTRA.POLAR>
0

>  <SCORE.INTRA.POLAR.0>
0

>  <SCORE.INTRA.REPUL>
0

>  <SCORE.INTRA.REPUL.0>
0

>  <SCORE.INTRA.SOLV>
1.77137

>  <SCORE.INTRA.SOLV.lig_0>
-48.4015

>  <SCORE.INTRA.VDW>
0.522389

>  <SCORE.INTRA.VDW.0>
-2.83256

>  <SCORE.INTRA.norm>
0.0991359

>  <SCORE.RESTR>
0

>  <SCORE.RESTR.CAVITY>
0

>  <SCORE.RESTR.norm>
0

>  <SCORE.SYSTEM>
0

>  <SCORE.SYSTEM.CONST>
0

>  <SCORE.SYSTEM.DIHEDRAL>
0

>  <SCORE.SYSTEM.SOLV>
0

>  <SCORE.SYSTEM.norm>
0

>  <SCORE.heavy>
27

>  <SCORE.norm>
-0.480935

>  <RMSD>
2.415

$$$$
ligand
 OpenBabel02271912153D
libRbt.so/2013.1/901 2013/11/27
 27 29  0  0  0  0  0  0  0  0999 V2000
   10.2474    6.8603   26.4189 N   0  0  0  0  0  0  0  0  0  0  0  0
   11.5791    7.2287   25.8811 C   0  0  2  0  0  0  0  0  0  0  0  0
   11.5021    7.1633   24.3612 C   0  0  0  0  0  0  0  0  0  0  0  0
   10.7303    6.4150   23.6742 O   0  0  0  0  0  0  0  0  0  0  0  0
   12.6277    6.2862   26.4758 C   0  0  0  0  0  0  0  0  0  0  0  0
   13.1172    6.7386   27.8451 C   0  0  0  0  0  0  0  0  0  0  0  0
   12.0210    6.8932   29.3049 S   0  0  2  0  0  0  0  0  0  0  0  0
   11.2372    8.4509   28.8927 C   0  0  0  0  0  0  0  0  0  0  0  0
   13.2858    7.3587   30.5295 C   0  0  0  0  0  0  0  0  0  0  0  0
   12.7881    7.1723   31.9365 C   0  0  1  0  0  0  0  0  0  0  0  0
   12.2232    5.8571   32.1558 O   0  0  0  0  0  0  0  0  0  0  0  0
   13.8409    7.3823   33.0007 C   0  0  1  0  0  0  0  0  0  0  0  0
   13.7078    8.6474   33.4846 O   0  0  0  0  0  0  0  0  0  0  0  0
   13.3359    6.4395   34.0677 C   0  0  1  0  0  0  0  0  0  0  0  0
   12.3779    7.1285   34.7408 O   0  0  0  0  0  0  0  0  0  0  0  0
   12.6793    5.2492   33.3341 C   0  0  2  0  0  0  0  0  0  0  0  0
   12.3079    7.8666   23.7494 O   0  0  0  0  0  0  0  0  0  0  0  0
   14.4126    0.7638   31.3211 N   0  0  0  0  0  0  0  0  0  0  0  0
   13.1019    1.3100   31.5321 C   0  0  0  0  0  0  0  0  0  0  0  0
   12.7613    2.5669   32.0906 N   0  0  0  0  0  0  0  0  0  0  0  0
   13.8027    3.2307   32.4043 C   0  0  0  0  0  0  0  0  0  0  0  0
   15.1941    2.7600   32.2225 C   0  0  0  0  0  0  0  0  0  0  0  0
   15.4723    1.5571   31.7033 C   0  0  0  0  0  0  0  0  0  0  0  0
   16.7513    1.2548   31.6153 N   0  0  0  0  0  0  0  0  0  0  0  0
   16.0976    3.6177   32.6328 N   0  0  0  0  0  0  0  0  0  0  0  0
   15.2676    4.6342   33.0684 C   0  0  0  0  0  0  0  0  0  0  0  0
   13.8380    4.4094   32.9259 N   0  0  0  0  0  0  0  0  0  0  0  0
  2  1  1  1  0  0  0
  2  3  1  0  0  0  0
  2  5  1  0  0  0  0
  3  4  1  0  0  0  0
  3 17  1  0  0  0  0
  5  6  1  0  0  0  0
  7  6  1  6  0  0  0
  7  8  1  0  0  0  0
  7  9  1  0  0  0  0
 10  9  1  6  0  0  0
 10 11  1  0  0  0  0
 10 12  1  0  0  0  0
 11 16  1  0  0  0  0
 12 13  1  1  0  0  0
 12 14  1  0  0  0  0
 14 15  1  1  0  0  0
 14 16  1  0  0  0  0
 16 27  1  6  0  0  0
 18 19  2  0  0  0  0
 18 23  1  0  0  0  0
 19 20  1  0  0  0  0
 20 21  2  0  0  0  0
 21 22  1  0  0  0  0
 21 27  1  0  0  0  0
 22 23  2  0  0  0  0
 22 25  1  0  0  0  0
 23 24  1  0  0  0  0
 25 26  2  0  0  0  0
 26 27  1  0  0  0  0
M  END
>  <CHROM.1>
-28.26703672,-84.21124645,61.75071519,-77.93899995,-163.08997702,50.86061991
-81.41600672,13.09144015,5.54648629,30.31353271,-2.50185380,-1.14835425,1.11746261

>  <Name>
ligand

>  <RI>
0

>  <Rbt.Current_Directory>
/home/itssahil/PROJECTS/Mol_Feturizer/Test_systems_manuscript/rnas/4aob

>  <Rbt.Executable>
rbdock ($Id: //depot/dev/client3/rdock/2013.1/src/exe/rbdock.cxx#4 $)

>  <Rbt.Library>
libRbt.so (2013.1, Build901 2013/11/27)

>  <Rbt.Parameter_File>
/export/apps/rDock/src/rDock_2013.1_src/data/scripts/dock_solv.prm

>  <Rbt.Receptor>
prm/pocket_docking_8.prm

>  <SCORE>
-11.3763

>  <SCORE.INTER>
-13.2976

>  <SCORE.INTER.CONST>
1

>  <SCORE.INTER.POLAR>
0

>  <SCORE.INTER.ROT>
7

>  <SCORE.INTER.SOLV>
17.0298

>  <SCORE.INTER.VDW>
-22.8083

>  <SCORE.INTER.norm>
-0.492504

>  <SCORE.INTRA>
1.92127

>  <SCORE.INTRA.DIHEDRAL>
1.18972

>  <SCORE.INTRA.DIHEDRAL.0>
6.31833

>  <SCORE.INTRA.POLAR>
0

>  <SCORE.INTRA.POLAR.0>
0

>  <SCORE.INTRA.REPUL>
0

>  <SCORE.INTRA.REPUL.0>
0

>  <SCORE.INTRA.SOLV>
1.88173

>  <SCORE.INTRA.SOLV.lig_0>
-48.4015

>  <SCORE.INTRA.VDW>
0.385544

>  <SCORE.INTRA.VDW.0>
-2.83256

>  <SCORE.INTRA.norm>
0.0711582

>  <SCORE.RESTR>
0

>  <SCORE.RESTR.CAVITY>
0

>  <SCORE.RESTR.norm>
0

>  <SCORE.SYSTEM>
0

>  <SCORE.SYSTEM.CONST>
0

>  <SCORE.SYSTEM.DIHEDRAL>
0

>  <SCORE.SYSTEM.SOLV>
0

>  <SCORE.SYSTEM.norm>
0

>  <SCORE.heavy>
27

>  <SCORE.norm>
-0.421346

>  <RMSD>
2.441

$$$$
ligand
 OpenBabel02271912153D
libRbt.so/2013.1/901 2013/11/27
 27 29  0  0  0  0  0  0  0  0999 V2000
   10.9111    7.5013   28.4169 N   0  0  0  0  0  0  0  0  0  0  0  0
   12.1445    7.6274   27.6038 C   0  0  2  0  0  0  0  0  0  0  0  0
   12.6467    6.2223   27.2980 C   0  0  0  0  0  0  0  0  0  0  0  0
   12.1051    5.1280   27.6680 O   0  0  0  0  0  0  0  0  0  0  0  0
   13.1566    8.4785   28.3738 C   0  0  0  0  0  0  0  0  0  0  0  0
   13.5699    7.8486   29.6973 C   0  0  0  0  0  0  0  0  0  0  0  0
   14.8660    8.5513   30.7848 S   0  0  2  0  0  0  0  0  0  0  0  0
   16.2802    8.3150   29.7102 C   0  0  0  0  0  0  0  0  0  0  0  0
   14.9879    7.1711   31.9664 C   0  0  0  0  0  0  0  0  0  0  0  0
   13.8874    7.2211   32.9903 C   0  0  1  0  0  0  0  0  0  0  0  0
   12.6759    6.5714   32.5354 O   0  0  0  0  0  0  0  0  0  0  0  0
   14.2476    6.5994   34.3203 C   0  0  1  0  0  0  0  0  0  0  0  0
   14.6176    7.5976   35.1683 O   0  0  0  0  0  0  0  0  0  0  0  0
   12.8885    6.1136   34.7665 C   0  0  1  0  0  0  0  0  0  0  0  0
   12.2798    7.1922   35.3247 O   0  0  0  0  0  0  0  0  0  0  0  0
   12.1210    5.7064   33.4893 C   0  0  2  0  0  0  0  0  0  0  0  0
   13.7101    6.1521   26.6795 O   0  0  0  0  0  0  0  0  0  0  0  0
   14.1100    2.4592   29.9293 N   0  0  0  0  0  0  0  0  0  0  0  0
   13.7142    3.8386   29.8954 C   0  0  0  0  0  0  0  0  0  0  0  0
   13.1871    4.6200   30.9534 N   0  0  0  0  0  0  0  0  0  0  0  0
   13.0980    3.9421   32.0287 C   0  0  0  0  0  0  0  0  0  0  0  0
   13.4836    2.5200   32.1681 C   0  0  0  0  0  0  0  0  0  0  0  0
   13.9649    1.8128   31.1375 C   0  0  0  0  0  0  0  0  0  0  0  0
   14.2499    0.5525   31.3930 N   0  0  0  0  0  0  0  0  0  0  0  0
   13.2884    2.0374   33.3719 N   0  0  0  0  0  0  0  0  0  0  0  0
   12.7835    3.1655   33.9920 C   0  0  0  0  0  0  0  0  0  0  0  0
   12.6661    4.3592   33.1698 N   0  0  0  0  0  0  0  0  0  0  0  0
  2  1  1  1  0  0  0
  2  3  1  0  0  0  0
  2  5  1  0  0  0  0
  3  4  1  0  0  0  0
  3 17  1  0  0  0  0
  5  6  1  0  0  0  0
  7  6  1  6  0  0  0
  7  8  1  0  0  0  0
  7  9  1  0  0  0  0
 10  9  1  6  0  0  0
 10 11  1  0  0  0  0
 10 12  1  0  0  0  0
 11 16  1  0  0  0  0
 12 13  1  1  0  0  0
 12 14  1  0  0  0  0
 14 15  1  6  0  0  0
 14 16  1  0  0  0  0
 16 27  1  6  0  0  0
 18 19  2  0  0  0  0
 18 23  1  0  0  0  0
 19 20  1  0  0  0  0
 20 21  2  0  0  0  0
 21 22  1  0  0  0  0
 21 27  1  0  0  0  0
 22 23  2  0  0  0  0
 22 25  1  0  0  0  0
 23 24  1  0  0  0  0
 25 26  2  0  0  0  0
 26 27  1  0  0  0  0
M  END
>  <CHROM.1>
0.23414845,61.96750371,174.85347454,-66.01168099,-80.43875244,85.94817992
-24.62442459,13.46950152,5.74819645,31.25633341,1.65565107,-1.46075455,-0.98547635

>  <Name>
ligand

>  <RI>
0

>  <Rbt.Current_Directory>
/home/itssahil/PROJECTS/Mol_Feturizer/Test_systems_manuscript/rnas/4aob

>  <Rbt.Executable>
rbdock ($Id: //depot/dev/client3/rdock/2013.1/src/exe/rbdock.cxx#4 $)

>  <Rbt.Library>
libRbt.so (2013.1, Build901 2013/11/27)

>  <Rbt.Parameter_File>
/export/apps/rDock/src/rDock_2013.1_src/data/scripts/dock_solv.prm

>  <Rbt.Receptor>
prm/pocket_docking_5.prm

>  <SCORE>
-11.8966

>  <SCORE.INTER>
-11.0996

>  <SCORE.INTER.CONST>
1

>  <SCORE.INTER.POLAR>
0

>  <SCORE.INTER.ROT>
7

>  <SCORE.INTER.SOLV>
19.9671

>  <SCORE.INTER.VDW>
-22.3221

>  <SCORE.INTER.norm>
-0.411095

>  <SCORE.INTRA>
-0.797041

>  <SCORE.INTRA.DIHEDRAL>
-0.769832

>  <SCORE.INTRA.DIHEDRAL.0>
6.31833

>  <SCORE.INTRA.POLAR>
0

>  <SCORE.INTRA.POLAR.0>
0

>  <SCORE.INTRA.REPUL>
0

>  <SCORE.INTRA.REPUL.0>
0

>  <SCORE.INTRA.SOLV>
-0.0623999

>  <SCORE.INTRA.SOLV.lig_0>
-48.4015

>  <SCORE.INTRA.VDW>
-0.380925

>  <SCORE.INTRA.VDW.0>
-2.83256

>  <SCORE.INTRA.norm>
-0.02952

>  <SCORE.RESTR>
0

>  <SCORE.RESTR.CAVITY>
0

>  <SCORE.RESTR.norm>
0

>  <SCORE.SYSTEM>
0

>  <SCORE.SYSTEM.CONST>
0

>  <SCORE.SYSTEM.DIHEDRAL>
0

>  <SCORE.SYSTEM.SOLV>
0

>  <SCORE.SYSTEM.norm>
0

>  <SCORE.heavy>
27

>  <SCORE.norm>
-0.440615

>  <RMSD>
2.493

$$$$
ligand
 OpenBabel02271912153D
libRbt.so/2013.1/901 2013/11/27
 27 29  0  0  0  0  0  0  0  0999 V2000
   10.7343    5.8443   27.4121 N   0  0  0  0  0  0  0  0  0  0  0  0
   11.2591    6.5459   28.6082 C   0  0  2  0  0  0  0  0  0  0  0  0
   11.0639    8.0414   28.3941 C   0  0  0  0  0  0  0  0  0  0  0  0
   11.4975    8.7278   27.4101 O   0  0  0  0  0  0  0  0  0  0  0  0
   12.7232    6.1485   28.8088 C   0  0  0  0  0  0  0  0  0  0  0  0
   13.3021    6.6732   30.1160 C   0  0  0  0  0  0  0  0  0  0  0  0
   13.2848    8.4441   30.5851 S   0  0  2  0  0  0  0  0  0  0  0  0
   14.3895    9.0710   29.3214 C   0  0  0  0  0  0  0  0  0  0  0  0
   14.3422    8.3301   32.0633 C   0  0  0  0  0  0  0  0  0  0  0  0
   13.5581    7.8985   33.2719 C   0  0  1  0  0  0  0  0  0  0  0  0
   12.6387    6.8184   32.9805 O   0  0  0  0  0  0  0  0  0  0  0  0
   14.4100    7.4491   34.4370 C   0  0  1  0  0  0  0  0  0  0  0  0
   14.5234    8.4909   35.3055 O   0  0  0  0  0  0  0  0  0  0  0  0
   13.4853    6.4364   35.0710 C   0  0  1  0  0  0  0  0  0  0  0  0
   12.6317    7.1553   35.8456 O   0  0  0  0  0  0  0  0  0  0  0  0
   12.6906    5.7795   33.9208 C   0  0  2  0  0  0  0  0  0  0  0  0
   10.4759    8.6430   29.2945 O   0  0  0  0  0  0  0  0  0  0  0  0
   13.4444    1.1329   31.6813 N   0  0  0  0  0  0  0  0  0  0  0  0
   12.2708    1.8658   32.0634 C   0  0  0  0  0  0  0  0  0  0  0  0
   12.2010    3.1461   32.6665 N   0  0  0  0  0  0  0  0  0  0  0  0
   13.3633    3.6371   32.8446 C   0  0  0  0  0  0  0  0  0  0  0  0
   14.6313    2.9658   32.4812 C   0  0  0  0  0  0  0  0  0  0  0  0
   14.6533    1.7474   31.9254 C   0  0  0  0  0  0  0  0  0  0  0  0
   15.8490    1.2573   31.6703 N   0  0  0  0  0  0  0  0  0  0  0  0
   15.7005    3.6669   32.7737 N   0  0  0  0  0  0  0  0  0  0  0  0
   15.0986    4.7866   33.3178 C   0  0  0  0  0  0  0  0  0  0  0  0
   13.6451    4.7841   33.3618 N   0  0  0  0  0  0  0  0  0  0  0  0
  2  1  1  6  0  0  0
  2  3  1  0  0  0  0
  2  5  1  0  0  0  0
  3  4  1  0  0  0  0
  3 17  1  0  0  0  0
  5  6  1  0  0  0  0
  7  6  1  6  0  0  0
  7  8  1  0  0  0  0
  7  9  1  0  0  0  0
 10  9  1  6  0  0  0
 10 11  1  0  0  0  0
 10 12  1  0  0  0  0
 11 16  1  0  0  0  0
 12 13  1  1  0  0  0
 12 14  1  0  0  0  0
 14 15  1  1  0  0  0
 14 16  1  0  0  0  0
 16 27  1  6  0  0  0
 18 19  2  0  0  0  0
 18 23  1  0  0  0  0
 19 20  1  0  0  0  0
 20 21  2  0  0  0  0
 21 22  1  0  0  0  0
 21 27  1  0  0  0  0
 22 23  2  0  0  0  0
 22 25  1  0  0  0  0
 23 24  1  0  0  0  0
 25 26  2  0  0  0  0
 26 27  1  0  0  0  0
M  END
>  <CHROM.1>
-55.99111251,-172.47329464,-55.27743783,-66.16402233,-82.58407571,43.18912715
-106.67332510,13.23003235,5.99364283,31.69457861,2.70943590,-1.20289838,0.37443798

>  <Name>
ligand

>  <RI>
0

>  <Rbt.Current_Directory>
/home/itssahil/PROJECTS/Mol_Feturizer/Test_systems_manuscript/rnas/4aob

>  <Rbt.Executable>
rbdock ($Id: //depot/dev/client3/rdock/2013.1/src/exe/rbdock.cxx#4 $)

>  <Rbt.Library>
libRbt.so (2013.1, Build901 2013/11/27)

>  <Rbt.Parameter_File>
/export/apps/rDock/src/rDock_2013.1_src/data/scripts/dock_solv.prm

>  <Rbt.Receptor>
prm/pocket_docking_3.prm

>  <SCORE>
-15.6338

>  <SCORE.INTER>
-13.885

>  <SCORE.INTER.CONST>
1

>  <SCORE.INTER.POLAR>
0

>  <SCORE.INTER.ROT>
7

>  <SCORE.INTER.SOLV>
18.4612

>  <SCORE.INTER.VDW>
-23.6771

>  <SCORE.INTER.norm>
-0.514258

>  <SCORE.INTRA>
-1.74881

>  <SCORE.INTRA.DIHEDRAL>
-1.39958

>  <SCORE.INTRA.DIHEDRAL.0>
6.31833

>  <SCORE.INTRA.POLAR>
0

>  <SCORE.INTRA.POLAR.0>
0

>  <SCORE.INTRA.REPUL>
0

>  <SCORE.INTRA.REPUL.0>
0

>  <SCORE.INTRA.SOLV>
-0.567221

>  <SCORE.INTRA.SOLV.lig_0>
-48.4015

>  <SCORE.INTRA.VDW>
-0.765409

>  <SCORE.INTRA.VDW.0>
-2.83256

>  <SCORE.INTRA.norm>
-0.0647708

>  <SCORE.RESTR>
0

>  <SCORE.RESTR.CAVITY>
0

>  <SCORE.RESTR.norm>
0

>  <SCORE.SYSTEM>
0

>  <SCORE.SYSTEM.CONST>
0

>  <SCORE.SYSTEM.DIHEDRAL>
0

>  <SCORE.SYSTEM.SOLV>
0

>  <SCORE.SYSTEM.norm>
0

>  <SCORE.heavy>
27

>  <SCORE.norm>
-0.579028

>  <RMSD>
2.510

$$$$
ligand
 OpenBabel02271912153D
libRbt.so/2013.1/901 2013/11/27
 27 29  0  0  0  0  0  0  0  0999 V2000
   12.6566    6.9898   26.7575 N   0  0  0  0  0  0  0  0  0  0  0  0
   11.2825    6.8724   27.3018 C   0  0  2  0  0  0  0  0  0  0  0  0
   10.7090    8.2781   27.4262 C   0  0  0  0  0  0  0  0  0  0  0  0
    9.9064    8.6907   28.3279 O   0  0  0  0  0  0  0  0  0  0  0  0
   11.3434    6.1226   28.6343 C   0  0  0  0  0  0  0  0  0  0  0  0
   12.4244    6.6591   29.5632 C   0  0  0  0  0  0  0  0  0  0  0  0
   12.3252    8.2940   30.3840 S   0  0  2  0  0  0  0  0  0  0  0  0
   13.1187    9.2827   29.1178 C   0  0  0  0  0  0  0  0  0  0  0  0
   13.6387    8.0426   31.6200 C   0  0  0  0  0  0  0  0  0  0  0  0
   13.0827    7.5355   32.9222 C   0  0  1  0  0  0  0  0  0  0  0  0
   12.4124    6.2598   32.7804 O   0  0  0  0  0  0  0  0  0  0  0  0
   14.1132    7.3721   34.0160 C   0  0  1  0  0  0  0  0  0  0  0  0
   14.0612    8.4728   34.8149 O   0  0  0  0  0  0  0  0  0  0  0  0
   13.5034    6.2274   34.7907 C   0  0  1  0  0  0  0  0  0  0  0  0
   12.5792    6.7922   35.6108 O   0  0  0  0  0  0  0  0  0  0  0  0
   12.7822    5.3290   33.7617 C   0  0  2  0  0  0  0  0  0  0  0  0
   11.0153    9.0670   26.5305 O   0  0  0  0  0  0  0  0  0  0  0  0
   14.2698    1.0356   31.2065 N   0  0  0  0  0  0  0  0  0  0  0  0
   12.9921    1.5537   31.6061 C   0  0  0  0  0  0  0  0  0  0  0  0
   12.7188    2.7583   32.3004 N   0  0  0  0  0  0  0  0  0  0  0  0
   13.7903    3.4012   32.5500 C   0  0  0  0  0  0  0  0  0  0  0  0
   15.1516    2.9564   32.1766 C   0  0  0  0  0  0  0  0  0  0  0  0
   15.3674    1.8020   31.5325 C   0  0  0  0  0  0  0  0  0  0  0  0
   16.6279    1.5166   31.2783 N   0  0  0  0  0  0  0  0  0  0  0  0
   16.0973    3.7836   32.5530 N   0  0  0  0  0  0  0  0  0  0  0  0
   15.3234    4.7554   33.1603 C   0  0  0  0  0  0  0  0  0  0  0  0
   13.8862    4.5334   33.1596 N   0  0  0  0  0  0  0  0  0  0  0  0
  2  1  1  1  0  0  0
  2  3  1  0  0  0  0
  2  5  1  0  0  0  0
  3  4  1  0  0  0  0
  3 17  1  0  0  0  0
  5  6  1  0  0  0  0
  7  6  1  6  0  0  0
  7  8  1  0  0  0  0
  7  9  1  0  0  0  0
 10  9  1  6  0  0  0
 10 11  1  0  0  0  0
 10 12  1  0  0  0  0
 11 16  1  0  0  0  0
 12 13  1  1  0  0  0
 12 14  1  0  0  0  0
 14 15  1  1  0  0  0
 14 16  1  0  0  0  0
 16 27  1  6  0  0  0
 18 19  2  0  0  0  0
 18 23  1  0  0  0  0
 19 20  1  0  0  0  0
 20 21  2  0  0  0  0
 21 22  1  0  0  0  0
 21 27  1  0  0  0  0
 22 23  2  0  0  0  0
 22 25  1  0  0  0  0
 23 24  1  0  0  0  0
 25 26  2  0  0  0  0
 26 27  1  0  0  0  0
M  END
>  <CHROM.1>
-146.00243681,47.82631846,70.15153098,-89.61293825,-93.42313410,60.75577570
-95.26846473,13.13839753,5.94830588,31.26852617,-3.02427916,-1.13967384,0.92553798

>  <Name>
ligand

>  <RI>
0

>  <Rbt.Current_Directory>
/home/itssahil/PROJECTS/Mol_Feturizer/Test_systems_manuscript/rnas/4aob

>  <Rbt.Executable>
rbdock ($Id: //depot/dev/client3/rdock/2013.1/src/exe/rbdock.cxx#4 $)

>  <Rbt.Library>
libRbt.so (2013.1, Build901 2013/11/27)

>  <Rbt.Parameter_File>
/export/apps/rDock/src/rDock_2013.1_src/data/scripts/dock_solv.prm

>  <Rbt.Receptor>
prm/pocket_docking_4.prm

>  <SCORE>
-15.5183

>  <SCORE.INTER>
-16.9218

>  <SCORE.INTER.CONST>
1

>  <SCORE.INTER.POLAR>
0

>  <SCORE.INTER.ROT>
7

>  <SCORE.INTER.SOLV>
14.6168

>  <SCORE.INTER.VDW>
-24.4201

>  <SCORE.INTER.norm>
-0.626734

>  <SCORE.INTRA>
1.40348

>  <SCORE.INTRA.DIHEDRAL>
0.551554

>  <SCORE.INTRA.DIHEDRAL.0>
6.31833

>  <SCORE.INTRA.POLAR>
0

>  <SCORE.INTRA.POLAR.0>
0

>  <SCORE.INTRA.REPUL>
0

>  <SCORE.INTRA.REPUL.0>
0

>  <SCORE.INTRA.SOLV>
1.77352

>  <SCORE.INTRA.SOLV.lig_0>
-48.4015

>  <SCORE.INTRA.VDW>
0.240946

>  <SCORE.INTRA.VDW.0>
-2.83256

>  <SCORE.INTRA.norm>
0.0519808

>  <SCORE.RESTR>
0

>  <SCORE.RESTR.CAVITY>
0

>  <SCORE.RESTR.norm>
0

>  <SCORE.SYSTEM>
0

>  <SCORE.SYSTEM.CONST>
0

>  <SCORE.SYSTEM.DIHEDRAL>
0

>  <SCORE.SYSTEM.SOLV>
0

>  <SCORE.SYSTEM.norm>
0

>  <SCORE.heavy>
27

>  <SCORE.norm>
-0.574753

>  <RMSD>
2.535

$$$$
ligand
 OpenBabel02271912153D
libRbt.so/2013.1/901 2013/11/27
 27 29  0  0  0  0  0  0  0  0999 V2000
   15.0252    6.8833   27.2297 N   0  0  0  0  0  0  0  0  0  0  0  0
   14.3765    7.4330   28.4443 C   0  0  2  0  0  0  0  0  0  0  0  0
   14.4360    8.9526   28.3571 C   0  0  0  0  0  0  0  0  0  0  0  0
   14.4721    9.6483   27.2884 O   0  0  0  0  0  0  0  0  0  0  0  0
   15.0841    6.8687   29.6782 C   0  0  0  0  0  0  0  0  0  0  0  0
   14.3600    5.6695   30.2755 C   0  0  0  0  0  0  0  0  0  0  0  0
   12.5861    5.6909   30.7333 S   0  0  2  0  0  0  0  0  0  0  0  0
   11.8880    5.9538   29.1042 C   0  0  0  0  0  0  0  0  0  0  0  0
   12.5359    7.3443   31.4950 C   0  0  0  0  0  0  0  0  0  0  0  0
   12.8703    7.2883   32.9602 C   0  0  1  0  0  0  0  0  0  0  0  0
   12.4828    6.0335   33.5705 O   0  0  0  0  0  0  0  0  0  0  0  0
   14.3349    7.4955   33.2715 C   0  0  1  0  0  0  0  0  0  0  0  0
   14.5120    8.7965   33.6297 O   0  0  0  0  0  0  0  0  0  0  0  0
   14.4629    6.6642   34.5266 C   0  0  1  0  0  0  0  0  0  0  0  0
   14.0341    7.4622   35.5389 O   0  0  0  0  0  0  0  0  0  0  0  0
   13.4879    5.4760   34.3737 C   0  0  2  0  0  0  0  0  0  0  0  0
   14.5118    9.5521   29.4311 O   0  0  0  0  0  0  0  0  0  0  0  0
   13.3995    1.1786   31.4242 N   0  0  0  0  0  0  0  0  0  0  0  0
   12.3917    1.8990   32.1495 C   0  0  0  0  0  0  0  0  0  0  0  0
   12.5475    3.0791   32.9183 N   0  0  0  0  0  0  0  0  0  0  0  0
   13.7547    3.4866   32.9000 C   0  0  0  0  0  0  0  0  0  0  0  0
   14.8630    2.8201   32.1803 C   0  0  0  0  0  0  0  0  0  0  0  0
   14.6753    1.6964   31.4760 C   0  0  0  0  0  0  0  0  0  0  0  0
   15.7496    1.1964   30.9009 N   0  0  0  0  0  0  0  0  0  0  0  0
   16.0195    3.4226   32.3211 N   0  0  0  0  0  0  0  0  0  0  0  0
   15.6322    4.4762   33.1286 C   0  0  0  0  0  0  0  0  0  0  0  0
   14.2249    4.5318   33.4907 N   0  0  0  0  0  0  0  0  0  0  0  0
  2  1  1  6  0  0  0
  2  3  1  0  0  0  0
  2  5  1  0  0  0  0
  3  4  1  0  0  0  0
  3 17  1  0  0  0  0
  5  6  1  0  0  0  0
  7  6  1  6  0  0  0
  7  8  1  0  0  0  0
  7  9  1  0  0  0  0
 10  9  1  6  0  0  0
 10 11  1  0  0  0  0
 10 12  1  0  0  0  0
 11 16  1  0  0  0  0
 12 13  1  1  0  0  0
 12 14  1  0  0  0  0
 14 15  1  1  0  0  0
 14 16  1  0  0  0  0
 16 27  1  6  0  0  0
 18 19  2  0  0  0  0
 18 23  1  0  0  0  0
 19 20  1  0  0  0  0
 20 21  2  0  0  0  0
 21 22  1  0  0  0  0
 21 27  1  0  0  0  0
 22 23  2  0  0  0  0
 22 25  1  0  0  0  0
 23 24  1  0  0  0  0
 25 26  2  0  0  0  0
 26 27  1  0  0  0  0
M  END
>  <CHROM.1>
27.82505773,-97.44149541,-53.07509497,63.37042238,-88.48466948,-29.98605180
-61.70719711,13.94711808,5.70340068,31.52904297,-1.28203991,-1.48565024,2.83502991

>  <Name>
ligand

>  <RI>
0

>  <Rbt.Current_Directory>
/home/itssahil/PROJECTS/Mol_Feturizer/Test_systems_manuscript/rnas/4aob

>  <Rbt.Executable>
rbdock ($Id: //depot/dev/client3/rdock/2013.1/src/exe/rbdock.cxx#4 $)

>  <Rbt.Library>
libRbt.so (2013.1, Build901 2013/11/27)

>  <Rbt.Parameter_File>
/export/apps/rDock/src/rDock_2013.1_src/data/scripts/dock_solv.prm

>  <Rbt.Receptor>
prm/pocket_docking_2.prm

>  <SCORE>
-7.79616

>  <SCORE.INTER>
-10.8154

>  <SCORE.INTER.CONST>
1

>  <SCORE.INTER.POLAR>
0

>  <SCORE.INTER.ROT>
7

>  <SCORE.INTER.SOLV>
13.0812

>  <SCORE.INTER.VDW>
-19.8373

>  <SCORE.INTER.norm>
-0.400569

>  <SCORE.INTRA>
2.31727

>  <SCORE.INTRA.DIHEDRAL>
5.07434

>  <SCORE.INTRA.DIHEDRAL.0>
6.31833

>  <SCORE.INTRA.POLAR>
0

>  <SCORE.INTRA.POLAR.0>
0

>  <SCORE.INTRA.REPUL>
0

>  <SCORE.INTRA.REPUL.0>
0

>  <SCORE.INTRA.SOLV>
0.904485

>  <SCORE.INTRA.SOLV.lig_0>
-48.4015

>  <SCORE.INTRA.VDW>
-0.672145

>  <SCORE.INTRA.VDW.0>
-2.83256

>  <SCORE.INTRA.norm>
0.0858247

>  <SCORE.RESTR>
0.701935

>  <SCORE.RESTR.CAVITY>
0.701935

>  <SCORE.RESTR.norm>
0.0259976

>  <SCORE.SYSTEM>
0

>  <SCORE.SYSTEM.CONST>
0

>  <SCORE.SYSTEM.DIHEDRAL>
0

>  <SCORE.SYSTEM.SOLV>
0

>  <SCORE.SYSTEM.norm>
0

>  <SCORE.heavy>
27

>  <SCORE.norm>
-0.288747

>  <RMSD>
2.550

$$$$
ligand
 OpenBabel02271912153D
libRbt.so/2013.1/901 2013/11/27
 27 29  0  0  0  0  0  0  0  0999 V2000
   13.2210    9.8549   26.6376 N   0  0  0  0  0  0  0  0  0  0  0  0
   14.3155    9.3503   27.5012 C   0  0  2  0  0  0  0  0  0  0  0  0
   15.3321    8.6539   26.6057 C   0  0  0  0  0  0  0  0  0  0  0  0
   15.1598    7.5583   25.9752 O   0  0  0  0  0  0  0  0  0  0  0  0
   13.7166    8.4306   28.5675 C   0  0  0  0  0  0  0  0  0  0  0  0
   14.7742    7.8049   29.4670 C   0  0  0  0  0  0  0  0  0  0  0  0
   14.3734    6.8630   30.9865 S   0  0  2  0  0  0  0  0  0  0  0  0
   13.1594    5.7395   30.2978 C   0  0  0  0  0  0  0  0  0  0  0  0
   13.3641    8.1307   31.8175 C   0  0  0  0  0  0  0  0  0  0  0  0
   13.0381    7.7379   33.2322 C   0  0  1  0  0  0  0  0  0  0  0  0
   12.3158    6.4851   33.3081 O   0  0  0  0  0  0  0  0  0  0  0  0
   14.2443    7.6059   34.1338 C   0  0  1  0  0  0  0  0  0  0  0  0
   14.3703    8.7597   34.8445 O   0  0  0  0  0  0  0  0  0  0  0  0
   13.7511    6.5437   35.0883 C   0  0  1  0  0  0  0  0  0  0  0  0
   13.0077    7.2020   36.0154 O   0  0  0  0  0  0  0  0  0  0  0  0
   12.8294    5.6086   34.2746 C   0  0  2  0  0  0  0  0  0  0  0  0
   16.4429    9.1830   26.5375 O   0  0  0  0  0  0  0  0  0  0  0  0
   13.6334    1.2221   31.5752 N   0  0  0  0  0  0  0  0  0  0  0  0
   12.4611    1.8424   32.1243 C   0  0  0  0  0  0  0  0  0  0  0  0
   12.3753    3.0613   32.8419 N   0  0  0  0  0  0  0  0  0  0  0  0
   13.5190    3.6111   32.9574 C   0  0  0  0  0  0  0  0  0  0  0  0
   14.7833    3.0566   32.4239 C   0  0  0  0  0  0  0  0  0  0  0  0
   14.8225    1.8922   31.7631 C   0  0  0  0  0  0  0  0  0  0  0  0
   16.0148    1.5043   31.3594 N   0  0  0  0  0  0  0  0  0  0  0  0
   15.8333    3.7997   32.6799 N   0  0  0  0  0  0  0  0  0  0  0  0
   15.2224    4.8289   33.3725 C   0  0  0  0  0  0  0  0  0  0  0  0
   13.7822    4.7275   33.5465 N   0  0  0  0  0  0  0  0  0  0  0  0
  2  1  1  6  0  0  0
  2  3  1  0  0  0  0
  2  5  1  0  0  0  0
  3  4  1  0  0  0  0
  3 17  1  0  0  0  0
  5  6  1  0  0  0  0
  7  6  1  6  0  0  0
  7  8  1  0  0  0  0
  7  9  1  0  0  0  0
 10  9  1  6  0  0  0
 10 11  1  0  0  0  0
 10 12  1  0  0  0  0
 11 16  1  0  0  0  0
 12 13  1  1  0  0  0
 12 14  1  0  0  0  0
 14 15  1  1  0  0  0
 14 16  1  0  0  0  0
 16 27  1  6  0  0  0
 18 19  2  0  0  0  0
 18 23  1  0  0  0  0
 19 20  1  0  0  0  0
 20 21  2  0  0  0  0
 21 22  1  0  0  0  0
 21 27  1  0  0  0  0
 22 23  2  0  0  0  0
 22 25  1  0  0  0  0
 23 24  1  0  0  0  0
 25 26  2  0  0  0  0
 26 27  1  0  0  0  0
M  END
>  <CHROM.1>
-68.83817017,177.19693324,170.52212321,50.68817436,-171.17028335,-58.97506280
-89.22553790,14.08218044,6.09728274,31.43007452,0.98022816,1.34299831,-0.35334234

>  <Name>
ligand

>  <RI>
0

>  <Rbt.Current_Directory>
/home/itssahil/PROJECTS/Mol_Feturizer/Test_systems_manuscript/rnas/4aob

>  <Rbt.Executable>
rbdock ($Id: //depot/dev/client3/rdock/2013.1/src/exe/rbdock.cxx#4 $)

>  <Rbt.Library>
libRbt.so (2013.1, Build901 2013/11/27)

>  <Rbt.Parameter_File>
/export/apps/rDock/src/rDock_2013.1_src/data/scripts/dock_solv.prm

>  <Rbt.Receptor>
prm/pocket_docking_6.prm

>  <SCORE>
-13.9824

>  <SCORE.INTER>
-12.2323

>  <SCORE.INTER.CONST>
1

>  <SCORE.INTER.POLAR>
0

>  <SCORE.INTER.ROT>
7

>  <SCORE.INTER.SOLV>
14.4462

>  <SCORE.INTER.VDW>
-21.237

>  <SCORE.INTER.norm>
-0.453049

>  <SCORE.INTRA>
-1.75636

>  <SCORE.INTRA.DIHEDRAL>
-1.77553

>  <SCORE.INTRA.DIHEDRAL.0>
6.31833

>  <SCORE.INTRA.POLAR>
0

>  <SCORE.INTRA.POLAR.0>
0

>  <SCORE.INTRA.REPUL>
0

>  <SCORE.INTRA.REPUL.0>
0

>  <SCORE.INTRA.SOLV>
-0.557427

>  <SCORE.INTRA.SOLV.lig_0>
-48.4015

>  <SCORE.INTRA.VDW>
-0.589879

>  <SCORE.INTRA.VDW.0>
-2.83256

>  <SCORE.INTRA.norm>
-0.0650503

>  <SCORE.RESTR>
0.00624565

>  <SCORE.RESTR.CAVITY>
0.00624565

>  <SCORE.RESTR.norm>
0.00023132

>  <SCORE.SYSTEM>
0

>  <SCORE.SYSTEM.CONST>
0

>  <SCORE.SYSTEM.DIHEDRAL>
0

>  <SCORE.SYSTEM.SOLV>
0

>  <SCORE.SYSTEM.norm>
0

>  <SCORE.heavy>
27

>  <SCORE.norm>
-0.517868

>  <RMSD>
2.577

$$$$
ligand
 OpenBabel02271912153D
libRbt.so/2013.1/901 2013/11/27
 27 29  0  0  0  0  0  0  0  0999 V2000
   10.4892    6.6703   26.1917 N   0  0  0  0  0  0  0  0  0  0  0  0
   10.7497    6.9183   27.6300 C   0  0  2  0  0  0  0  0  0  0  0  0
   10.4162    8.3761   27.9194 C   0  0  0  0  0  0  0  0  0  0  0  0
   10.7901    9.3875   27.2376 O   0  0  0  0  0  0  0  0  0  0  0  0
   12.2050    6.5573   27.9358 C   0  0  0  0  0  0  0  0  0  0  0  0
   12.5563    6.7238   29.4083 C   0  0  0  0  0  0  0  0  0  0  0  0
   12.5279    8.3386   30.2731 S   0  0  2  0  0  0  0  0  0  0  0  0
   13.4212    9.3114   29.0621 C   0  0  0  0  0  0  0  0  0  0  0  0
   13.7821    7.9740   31.5421 C   0  0  0  0  0  0  0  0  0  0  0  0
   13.1548    7.4510   32.8050 C   0  0  1  0  0  0  0  0  0  0  0  0
   12.5142    6.1662   32.6158 O   0  0  0  0  0  0  0  0  0  0  0  0
   14.1183    7.2967   33.9595 C   0  0  1  0  0  0  0  0  0  0  0  0
   14.0003    8.3917   34.7591 O   0  0  0  0  0  0  0  0  0  0  0  0
   13.4796    6.1384   34.6895 C   0  0  1  0  0  0  0  0  0  0  0  0
   12.4982    6.6844   35.4537 O   0  0  0  0  0  0  0  0  0  0  0  0
   12.8371    5.2353   33.6135 C   0  0  2  0  0  0  0  0  0  0  0  0
    9.7680    8.5879   28.9458 O   0  0  0  0  0  0  0  0  0  0  0  0
   14.5597    0.9159   31.2576 N   0  0  0  0  0  0  0  0  0  0  0  0
   13.2518    1.4013   31.5956 C   0  0  0  0  0  0  0  0  0  0  0  0
   12.9132    2.6176   32.2389 N   0  0  0  0  0  0  0  0  0  0  0  0
   13.9526    3.3057   32.5029 C   0  0  0  0  0  0  0  0  0  0  0  0
   15.3407    2.8973   32.1915 C   0  0  0  0  0  0  0  0  0  0  0  0
   15.6184    1.7309   31.5947 C   0  0  0  0  0  0  0  0  0  0  0  0
   16.8961    1.4820   31.3935 N   0  0  0  0  0  0  0  0  0  0  0  0
   16.2436    3.7693   32.5717 N   0  0  0  0  0  0  0  0  0  0  0  0
   15.4160    4.7325   33.1189 C   0  0  0  0  0  0  0  0  0  0  0  0
   13.9882    4.4599   33.0767 N   0  0  0  0  0  0  0  0  0  0  0  0
  2  1  1  6  0  0  0
  2  3  1  0  0  0  0
  2  5  1  0  0  0  0
  3  4  1  0  0  0  0
  3 17  1  0  0  0  0
  5  6  1  0  0  0  0
  7  6  1  6  0  0  0
  7  8  1  0  0  0  0
  7  9  1  0  0  0  0
 10  9  1  6  0  0  0
 10 11  1  0  0  0  0
 10 12  1  0  0  0  0
 11 16  1  0  0  0  0
 12 13  1  1  0  0  0
 12 14  1  0  0  0  0
 14 15  1  1  0  0  0
 14 16  1  0  0  0  0
 16 27  1  6  0  0  0
 18 19  2  0  0  0  0
 18 23  1  0  0  0  0
 19 20  1  0  0  0  0
 20 21  2  0  0  0  0
 21 22  1  0  0  0  0
 21 27  1  0  0  0  0
 22 23  2  0  0  0  0
 22 25  1  0  0  0  0
 23 24  1  0  0  0  0
 25 26  2  0  0  0  0
 26 27  1  0  0  0  0
M  END
>  <CHROM.1>
-47.71126783,-177.61386942,-63.76023814,-47.08167837,-92.75069853,65.29901674
-98.19506459,13.15536668,5.92148823,31.25513053,3.13057120,-1.08650998,0.83982849

>  <Name>
ligand

>  <RI>
0

>  <Rbt.Current_Directory>
/home/itssahil/PROJECTS/Mol_Feturizer/Test_systems_manuscript/rnas/4aob

>  <Rbt.Executable>
rbdock ($Id: //depot/dev/client3/rdock/2013.1/src/exe/rbdock.cxx#4 $)

>  <Rbt.Library>
libRbt.so (2013.1, Build901 2013/11/27)

>  <Rbt.Parameter_File>
/export/apps/rDock/src/rDock_2013.1_src/data/scripts/dock_solv.prm

>  <Rbt.Receptor>
prm/pocket_docking_8.prm

>  <SCORE>
-16.3169

>  <SCORE.INTER>
-15.7605

>  <SCORE.INTER.CONST>
1

>  <SCORE.INTER.POLAR>
0

>  <SCORE.INTER.ROT>
7

>  <SCORE.INTER.SOLV>
17.6949

>  <SCORE.INTER.VDW>
-24.672

>  <SCORE.INTER.norm>
-0.583723

>  <SCORE.INTRA>
-0.556418

>  <SCORE.INTRA.DIHEDRAL>
-0.479197

>  <SCORE.INTRA.DIHEDRAL.0>
6.31833

>  <SCORE.INTRA.POLAR>
0

>  <SCORE.INTRA.POLAR.0>
0

>  <SCORE.INTRA.REPUL>
0

>  <SCORE.INTRA.REPUL.0>
0

>  <SCORE.INTRA.SOLV>
-0.667281

>  <SCORE.INTRA.SOLV.lig_0>
-48.4015

>  <SCORE.INTRA.VDW>
0.0168212

>  <SCORE.INTRA.VDW.0>
-2.83256

>  <SCORE.INTRA.norm>
-0.0206081

>  <SCORE.RESTR>
0

>  <SCORE.RESTR.CAVITY>
0

>  <SCORE.RESTR.norm>
0

>  <SCORE.SYSTEM>
0

>  <SCORE.SYSTEM.CONST>
0

>  <SCORE.SYSTEM.DIHEDRAL>
0

>  <SCORE.SYSTEM.SOLV>
0

>  <SCORE.SYSTEM.norm>
0

>  <SCORE.heavy>
27

>  <SCORE.norm>
-0.604331

>  <RMSD>
2.643

$$$$
ligand
 OpenBabel02271912153D
libRbt.so/2013.1/901 2013/11/27
 27 29  0  0  0  0  0  0  0  0999 V2000
   11.1091    9.7011   25.5015 N   0  0  0  0  0  0  0  0  0  0  0  0
   11.5499    8.5817   26.3680 C   0  0  2  0  0  0  0  0  0  0  0  0
   11.7056    7.3465   25.4904 C   0  0  0  0  0  0  0  0  0  0  0  0
   10.9714    7.0265   24.4973 O   0  0  0  0  0  0  0  0  0  0  0  0
   10.5300    8.4002   27.4943 C   0  0  0  0  0  0  0  0  0  0  0  0
   11.0730    7.5751   28.6534 C   0  0  0  0  0  0  0  0  0  0  0  0
   12.0587    8.2899   30.0224 S   0  0  2  0  0  0  0  0  0  0  0  0
   13.6013    8.5391   29.1456 C   0  0  0  0  0  0  0  0  0  0  0  0
   12.3417    6.7574   30.9644 C   0  0  0  0  0  0  0  0  0  0  0  0
   12.8365    7.0467   32.3549 C   0  0  1  0  0  0  0  0  0  0  0  0
   12.6187    5.9400   33.2631 O   0  0  0  0  0  0  0  0  0  0  0  0
   14.3051    7.3965   32.4314 C   0  0  1  0  0  0  0  0  0  0  0  0
   14.4159    8.7522   32.4776 O   0  0  0  0  0  0  0  0  0  0  0  0
   14.6344    6.8732   33.8099 C   0  0  1  0  0  0  0  0  0  0  0  0
   14.2558    7.8520   34.6725 O   0  0  0  0  0  0  0  0  0  0  0  0
   13.7462    5.6300   34.0369 C   0  0  2  0  0  0  0  0  0  0  0  0
   12.5972    6.5613   25.8173 O   0  0  0  0  0  0  0  0  0  0  0  0
   13.4853    1.0977   31.4746 N   0  0  0  0  0  0  0  0  0  0  0  0
   12.4976    1.9576   32.0626 C   0  0  0  0  0  0  0  0  0  0  0  0
   12.7026    3.1882   32.7345 N   0  0  0  0  0  0  0  0  0  0  0  0
   13.9382    3.4981   32.7645 C   0  0  0  0  0  0  0  0  0  0  0  0
   15.0301    2.6846   32.1843 C   0  0  0  0  0  0  0  0  0  0  0  0
   14.7939    1.5184   31.5694 C   0  0  0  0  0  0  0  0  0  0  0  0
   15.8568    0.8860   31.1162 N   0  0  0  0  0  0  0  0  0  0  0  0
   16.2215    3.2067   32.3520 N   0  0  0  0  0  0  0  0  0  0  0  0
   15.8735    4.3571   33.0356 C   0  0  0  0  0  0  0  0  0  0  0  0
   14.4559    4.5542   33.2930 N   0  0  0  0  0  0  0  0  0  0  0  0
  2  1  1  6  0  0  0
  2  3  1  0  0  0  0
  2  5  1  0  0  0  0
  3  4  1  0  0  0  0
  3 17  1  0  0  0  0
  5  6  1  0  0  0  0
  7  6  1  6  0  0  0
  7  8  1  0  0  0  0
  7  9  1  0  0  0  0
 10  9  1  6  0  0  0
 10 11  1  0  0  0  0
 10 12  1  0  0  0  0
 11 16  1  0  0  0  0
 12 13  1  1  0  0  0
 12 14  1  0  0  0  0
 14 15  1  1  0  0  0
 14 16  1  0  0  0  0
 16 27  1  6  0  0  0
 18 19  2  0  0  0  0
 18 23  1  0  0  0  0
 19 20  1  0  0  0  0
 20 21  2  0  0  0  0
 21 22  1  0  0  0  0
 21 27  1  0  0  0  0
 22 23  2  0  0  0  0
 22 25  1  0  0  0  0
 23 24  1  0  0  0  0
 25 26  2  0  0  0  0
 26 27  1  0  0  0  0
M  END
>  <CHROM.1>
-36.26381314,-163.10915686,84.98826736,-74.25613011,-165.36721907,159.26490245
-46.29206541,13.21640557,5.96164399,30.64605921,-3.09407478,1.19830260,-2.56459074

>  <Name>
ligand

>  <RI>
0

>  <Rbt.Current_Directory>
/home/itssahil/PROJECTS/Mol_Feturizer/Test_systems_manuscript/rnas/4aob

>  <Rbt.Executable>
rbdock ($Id: //depot/dev/client3/rdock/2013.1/src/exe/rbdock.cxx#4 $)

>  <Rbt.Library>
libRbt.so (2013.1, Build901 2013/11/27)

>  <Rbt.Parameter_File>
/export/apps/rDock/src/rDock_2013.1_src/data/scripts/dock_solv.prm

>  <Rbt.Receptor>
prm/pocket_docking_6.prm

>  <SCORE>
-13.134

>  <SCORE.INTER>
-13.893

>  <SCORE.INTER.CONST>
1

>  <SCORE.INTER.POLAR>
0

>  <SCORE.INTER.ROT>
7

>  <SCORE.INTER.SOLV>
13.2807

>  <SCORE.INTER.VDW>
-21.9555

>  <SCORE.INTER.norm>
-0.514555

>  <SCORE.INTRA>
0.758985

>  <SCORE.INTRA.DIHEDRAL>
2.7483

>  <SCORE.INTRA.DIHEDRAL.0>
6.31833

>  <SCORE.INTRA.POLAR>
0

>  <SCORE.INTRA.POLAR.0>
0

>  <SCORE.INTRA.REPUL>
0

>  <SCORE.INTRA.REPUL.0>
0

>  <SCORE.INTRA.SOLV>
-0.307371

>  <SCORE.INTRA.SOLV.lig_0>
-48.4015

>  <SCORE.INTRA.VDW>
-0.46148

>  <SCORE.INTRA.VDW.0>
-2.83256

>  <SCORE.INTRA.norm>
0.0281106

>  <SCORE.RESTR>
0

>  <SCORE.RESTR.CAVITY>
0

>  <SCORE.RESTR.norm>
0

>  <SCORE.SYSTEM>
0

>  <SCORE.SYSTEM.CONST>
0

>  <SCORE.SYSTEM.DIHEDRAL>
0

>  <SCORE.SYSTEM.SOLV>
0

>  <SCORE.SYSTEM.norm>
0

>  <SCORE.heavy>
27

>  <SCORE.norm>
-0.486444

>  <RMSD>
2.673

$$$$
ligand
 OpenBabel02271912153D
libRbt.so/2013.1/901 2013/11/27
 27 29  0  0  0  0  0  0  0  0999 V2000
   15.3163    8.3046   26.6999 N   0  0  0  0  0  0  0  0  0  0  0  0
   13.8897    8.7042   26.7571 C   0  0  2  0  0  0  0  0  0  0  0  0
   13.4909    9.2070   25.3756 C   0  0  0  0  0  0  0  0  0  0  0  0
   14.2840    9.5680   24.4438 O   0  0  0  0  0  0  0  0  0  0  0  0
   13.7163    9.7536   27.8573 C   0  0  0  0  0  0  0  0  0  0  0  0
   14.2035    9.2684   29.2161 C   0  0  0  0  0  0  0  0  0  0  0  0
   13.3784    7.9349   30.1635 S   0  0  2  0  0  0  0  0  0  0  0  0
   11.8181    8.7551   30.4850 C   0  0  0  0  0  0  0  0  0  0  0  0
   14.2940    8.1238   31.7262 C   0  0  0  0  0  0  0  0  0  0  0  0
   13.4904    7.6360   32.9002 C   0  0  1  0  0  0  0  0  0  0  0  0
   12.6873    6.4746   32.5790 O   0  0  0  0  0  0  0  0  0  0  0  0
   14.3178    7.2773   34.1133 C   0  0  1  0  0  0  0  0  0  0  0  0
   14.2928    8.3340   34.9708 O   0  0  0  0  0  0  0  0  0  0  0  0
   13.4558    6.1921   34.7150 C   0  0  1  0  0  0  0  0  0  0  0  0
   12.5027    6.8393   35.4348 O   0  0  0  0  0  0  0  0  0  0  0  0
   12.7832    5.4544   33.5362 C   0  0  2  0  0  0  0  0  0  0  0  0
   12.2811    9.3234   25.1723 O   0  0  0  0  0  0  0  0  0  0  0  0
   14.0610    0.8844   31.3783 N   0  0  0  0  0  0  0  0  0  0  0  0
   12.8087    1.5149   31.6861 C   0  0  0  0  0  0  0  0  0  0  0  0
   12.5946    2.7859   32.2748 N   0  0  0  0  0  0  0  0  0  0  0  0
   13.6983    3.3751   32.5166 C   0  0  0  0  0  0  0  0  0  0  0  0
   15.0381    2.8140   32.2325 C   0  0  0  0  0  0  0  0  0  0  0  0
   15.1966    1.6007   31.6878 C   0  0  0  0  0  0  0  0  0  0  0  0
   16.4426    1.2143   31.5063 N   0  0  0  0  0  0  0  0  0  0  0  0
   16.0246    3.6048   32.5816 N   0  0  0  0  0  0  0  0  0  0  0  0
   15.2984    4.6701   33.0815 C   0  0  0  0  0  0  0  0  0  0  0  0
   13.8504    4.5432   33.0410 N   0  0  0  0  0  0  0  0  0  0  0  0
  2  1  1  6  0  0  0
  2  3  1  0  0  0  0
  2  5  1  0  0  0  0
  3  4  1  0  0  0  0
  3 17  1  0  0  0  0
  5  6  1  0  0  0  0
  7  6  1  6  0  0  0
  7  8  1  0  0  0  0
  7  9  1  0  0  0  0
 10  9  1  6  0  0  0
 10 11  1  0  0  0  0
 10 12  1  0  0  0  0
 11 16  1  0  0  0  0
 12 13  1  1  0  0  0
 12 14  1  0  0  0  0
 14 15  1  1  0  0  0
 14 16  1  0  0  0  0
 16 27  1  6  0  0  0
 18 19  2  0  0  0  0
 18 23  1  0  0  0  0
 19 20  1  0  0  0  0
 20 21  2  0  0  0  0
 21 22  1  0  0  0  0
 21 27  1  0  0  0  0
 22 23  2  0  0  0  0
 22 25  1  0  0  0  0
 23 24  1  0  0  0  0
 25 26  2  0  0  0  0
 26 27  1  0  0  0  0
M  END
>  <CHROM.1>
-17.39145845,-56.36601817,-67.99418316,-65.10748184,154.11436649,36.18421748
-106.00887718,13.84282998,6.28066002,30.96738769,-1.85409018,-1.34674426
2.00700249

>  <Name>
ligand

>  <RI>
0

>  <Rbt.Current_Directory>
/home/itssahil/PROJECTS/Mol_Feturizer/Test_systems_manuscript/rnas/4aob

>  <Rbt.Executable>
rbdock ($Id: //depot/dev/client3/rdock/2013.1/src/exe/rbdock.cxx#4 $)

>  <Rbt.Library>
libRbt.so (2013.1, Build901 2013/11/27)

>  <Rbt.Parameter_File>
/export/apps/rDock/src/rDock_2013.1_src/data/scripts/dock_solv.prm

>  <Rbt.Receptor>
prm/pocket_docking_5.prm

>  <SCORE>
-12.4326

>  <SCORE.INTER>
-13.6584

>  <SCORE.INTER.CONST>
1

>  <SCORE.INTER.POLAR>
0

>  <SCORE.INTER.ROT>
7

>  <SCORE.INTER.SOLV>
14.8165

>  <SCORE.INTER.VDW>
-22.3111

>  <SCORE.INTER.norm>
-0.505868

>  <SCORE.INTRA>
1.2258

>  <SCORE.INTRA.DIHEDRAL>
-0.363337

>  <SCORE.INTRA.DIHEDRAL.0>
6.31833

>  <SCORE.INTRA.POLAR>
0

>  <SCORE.INTRA.POLAR.0>
0

>  <SCORE.INTRA.REPUL>
0

>  <SCORE.INTRA.REPUL.0>
0

>  <SCORE.INTRA.SOLV>
0.521159

>  <SCORE.INTRA.SOLV.lig_0>
-48.4015

>  <SCORE.INTRA.VDW>
1.14689

>  <SCORE.INTRA.VDW.0>
-2.83256

>  <SCORE.INTRA.norm>
0.0453999

>  <SCORE.RESTR>
0

>  <SCORE.RESTR.CAVITY>
0

>  <SCORE.RESTR.norm>
0

>  <SCORE.SYSTEM>
0

>  <SCORE.SYSTEM.CONST>
0

>  <SCORE.SYSTEM.DIHEDRAL>
0

>  <SCORE.SYSTEM.SOLV>
0

>  <SCORE.SYSTEM.norm>
0

>  <SCORE.heavy>
27

>  <SCORE.norm>
-0.460468

>  <RMSD>
2.688

$$$$
ligand
 OpenBabel02271912153D
libRbt.so/2013.1/901 2013/11/27
 27 29  0  0  0  0  0  0  0  0999 V2000
    9.5466    8.5927   26.2454 N   0  0  0  0  0  0  0  0  0  0  0  0
   10.6158    7.8632   26.9686 C   0  0  2  0  0  0  0  0  0  0  0  0
   10.0842    6.4776   27.3120 C   0  0  0  0  0  0  0  0  0  0  0  0
   10.7541    5.5116   27.8075 O   0  0  0  0  0  0  0  0  0  0  0  0
   11.0224    8.6781   28.1982 C   0  0  0  0  0  0  0  0  0  0  0  0
   12.3468    8.2218   28.7957 C   0  0  0  0  0  0  0  0  0  0  0  0
   12.7731    8.4198   30.5665 S   0  0  2  0  0  0  0  0  0  0  0  0
   14.5582    8.4504   30.4146 C   0  0  0  0  0  0  0  0  0  0  0  0
   12.4165    6.7187   31.1098 C   0  0  0  0  0  0  0  0  0  0  0  0
   12.4839    6.5909   32.6068 C   0  0  1  0  0  0  0  0  0  0  0  0
   12.2508    5.2353   33.0593 O   0  0  0  0  0  0  0  0  0  0  0  0
   13.7965    7.0367   33.2097 C   0  0  1  0  0  0  0  0  0  0  0  0
   13.6423    8.3094   33.6667 O   0  0  0  0  0  0  0  0  0  0  0  0
   13.8582    6.1316   34.4178 C   0  0  1  0  0  0  0  0  0  0  0  0
   13.1024    6.7395   35.3690 O   0  0  0  0  0  0  0  0  0  0  0  0
   13.1842    4.8023   34.0118 C   0  0  2  0  0  0  0  0  0  0  0  0
    8.9042    6.2665   27.0266 O   0  0  0  0  0  0  0  0  0  0  0  0
   14.5329    0.7548   31.0163 N   0  0  0  0  0  0  0  0  0  0  0  0
   13.2895    1.1895   31.5869 C   0  0  0  0  0  0  0  0  0  0  0  0
   13.0517    2.3329   32.3895 N   0  0  0  0  0  0  0  0  0  0  0  0
   14.1205    3.0039   32.5661 C   0  0  0  0  0  0  0  0  0  0  0  0
   15.4472    2.6441   32.0175 C   0  0  0  0  0  0  0  0  0  0  0  0
   15.6316    1.5450   31.2746 C   0  0  0  0  0  0  0  0  0  0  0  0
   16.8657    1.3320   30.8663 N   0  0  0  0  0  0  0  0  0  0  0  0
   16.3984    3.4851   32.3466 N   0  0  0  0  0  0  0  0  0  0  0  0
   15.6621    4.3803   33.1005 C   0  0  0  0  0  0  0  0  0  0  0  0
   14.2426    4.0967   33.2396 N   0  0  0  0  0  0  0  0  0  0  0  0
  2  1  1  1  0  0  0
  2  3  1  0  0  0  0
  2  5  1  0  0  0  0
  3  4  1  0  0  0  0
  3 17  1  0  0  0  0
  5  6  1  0  0  0  0
  7  6  1  6  0  0  0
  7  8  1  0  0  0  0
  7  9  1  0  0  0  0
 10  9  1  6  0  0  0
 10 11  1  0  0  0  0
 10 12  1  0  0  0  0
 11 16  1  0  0  0  0
 12 13  1  1  0  0  0
 12 14  1  0  0  0  0
 14 15  1  1  0  0  0
 14 16  1  0  0  0  0
 16 27  1  6  0  0  0
 18 19  2  0  0  0  0
 18 23  1  0  0  0  0
 19 20  1  0  0  0  0
 20 21  2  0  0  0  0
 21 22  1  0  0  0  0
 21 27  1  0  0  0  0
 22 23  2  0  0  0  0
 22 25  1  0  0  0  0
 23 24  1  0  0  0  0
 25 26  2  0  0  0  0
 26 27  1  0  0  0  0
M  END
>  <CHROM.1>
172.10878790,-164.52724390,-152.51445041,-154.35663827,-171.79418278,-177.92596394
-65.48969346,13.06039890,5.59195478,31.11312507,2.98063638,-1.00910314,0.59214151

>  <Name>
ligand

>  <RI>
0

>  <Rbt.Current_Directory>
/home/itssahil/PROJECTS/Mol_Feturizer/Test_systems_manuscript/rnas/4aob

>  <Rbt.Executable>
rbdock ($Id: //depot/dev/client3/rdock/2013.1/src/exe/rbdock.cxx#4 $)

>  <Rbt.Library>
libRbt.so (2013.1, Build901 2013/11/27)

>  <Rbt.Parameter_File>
/export/apps/rDock/src/rDock_2013.1_src/data/scripts/dock_solv.prm

>  <Rbt.Receptor>
prm/pocket_docking_5.prm

>  <SCORE>
-12.9952

>  <SCORE.INTER>
-15.3073

>  <SCORE.INTER.CONST>
1

>  <SCORE.INTER.POLAR>
0

>  <SCORE.INTER.ROT>
7

>  <SCORE.INTER.SOLV>
18.5102

>  <SCORE.INTER.VDW>
-24.6416

>  <SCORE.INTER.norm>
-0.566936

>  <SCORE.INTRA>
2.31206

>  <SCORE.INTRA.DIHEDRAL>
3.59385

>  <SCORE.INTRA.DIHEDRAL.0>
6.31833

>  <SCORE.INTRA.POLAR>
0

>  <SCORE.INTRA.POLAR.0>
0

>  <SCORE.INTRA.REPUL>
0

>  <SCORE.INTRA.REPUL.0>
0

>  <SCORE.INTRA.SOLV>
-0.409122

>  <SCORE.INTRA.SOLV.lig_0>
-48.4015

>  <SCORE.INTRA.VDW>
0.719696

>  <SCORE.INTRA.VDW.0>
-2.83256

>  <SCORE.INTRA.norm>
0.0856318

>  <SCORE.RESTR>
0

>  <SCORE.RESTR.CAVITY>
0

>  <SCORE.RESTR.norm>
0

>  <SCORE.SYSTEM>
0

>  <SCORE.SYSTEM.CONST>
0

>  <SCORE.SYSTEM.DIHEDRAL>
0

>  <SCORE.SYSTEM.SOLV>
0

>  <SCORE.SYSTEM.norm>
0

>  <SCORE.heavy>
27

>  <SCORE.norm>
-0.481304

>  <RMSD>
2.716

$$$$
ligand
 OpenBabel02271912153D
libRbt.so/2013.1/901 2013/11/27
 27 29  0  0  0  0  0  0  0  0999 V2000
   13.4335    6.7722   26.3616 N   0  0  0  0  0  0  0  0  0  0  0  0
   12.4724    7.7627   26.9034 C   0  0  2  0  0  0  0  0  0  0  0  0
   11.1382    7.5503   26.1998 C   0  0  0  0  0  0  0  0  0  0  0  0
   10.9666    7.0558   25.0364 O   0  0  0  0  0  0  0  0  0  0  0  0
   13.0468    9.1667   26.7022 C   0  0  0  0  0  0  0  0  0  0  0  0
   14.2665    9.4345   27.5739 C   0  0  0  0  0  0  0  0  0  0  0  0
   14.1953    9.5300   29.4021 S   0  0  2  0  0  0  0  0  0  0  0  0
   15.9059    9.1366   29.7619 C   0  0  0  0  0  0  0  0  0  0  0  0
   13.3196    7.9630   29.7087 C   0  0  0  0  0  0  0  0  0  0  0  0
   12.9735    7.7986   31.1630 C   0  0  1  0  0  0  0  0  0  0  0  0
   12.0245    6.7287   31.3903 O   0  0  0  0  0  0  0  0  0  0  0  0
   14.1620    7.5303   32.0578 C   0  0  1  0  0  0  0  0  0  0  0  0
   14.5349    8.7070   32.6311 O   0  0  0  0  0  0  0  0  0  0  0  0
   13.5057    6.6966   33.1333 C   0  0  1  0  0  0  0  0  0  0  0  0
   12.9377    7.5854   33.9893 O   0  0  0  0  0  0  0  0  0  0  0  0
   12.3917    5.8786   32.4433 C   0  0  2  0  0  0  0  0  0  0  0  0
   10.1407    7.9506   26.8025 O   0  0  0  0  0  0  0  0  0  0  0  0
   13.9064    0.8948   32.6474 N   0  0  0  0  0  0  0  0  0  0  0  0
   13.0716    1.7080   33.4856 C   0  0  0  0  0  0  0  0  0  0  0  0
   12.7258    3.0710   33.3111 N   0  0  0  0  0  0  0  0  0  0  0  0
   13.2523    3.5497   32.2540 C   0  0  0  0  0  0  0  0  0  0  0  0
   14.1210    2.7946   31.3235 C   0  0  0  0  0  0  0  0  0  0  0  0
   14.4354    1.5097   31.5336 C   0  0  0  0  0  0  0  0  0  0  0  0
   15.2330    0.9631   30.6392 N   0  0  0  0  0  0  0  0  0  0  0  0
   14.5528    3.5078   30.3109 N   0  0  0  0  0  0  0  0  0  0  0  0
   13.9460    4.7148   30.6054 C   0  0  0  0  0  0  0  0  0  0  0  0
   13.1287    4.7530   31.8076 N   0  0  0  0  0  0  0  0  0  0  0  0
  2  1  1  6  0  0  0
  2  3  1  0  0  0  0
  2  5  1  0  0  0  0
  3  4  1  0  0  0  0
  3 17  1  0  0  0  0
  5  6  1  0  0  0  0
  7  6  1  6  0  0  0
  7  8  1  0  0  0  0
  7  9  1  0  0  0  0
 10  9  1  6  0  0  0
 10 11  1  0  0  0  0
 10 12  1  0  0  0  0
 11 16  1  0  0  0  0
 12 13  1  1  0  0  0
 12 14  1  0  0  0  0
 14 15  1  1  0  0  0
 14 16  1  0  0  0  0
 16 27  1  6  0  0  0
 18 19  2  0  0  0  0
 18 23  1  0  0  0  0
 19 20  1  0  0  0  0
 20 21  2  0  0  0  0
 21 22  1  0  0  0  0
 21 27  1  0  0  0  0
 22 23  2  0  0  0  0
 22 25  1  0  0  0  0
 23 24  1  0  0  0  0
 25 26  2  0  0  0  0
 26 27  1  0  0  0  0
M  END
>  <CHROM.1>
-26.43483934,-68.71973354,-66.25249258,156.51256482,-174.31255096,166.84340945
-153.94276322,13.34457929,6.22490711,30.25794191,2.07957973,-1.30076035,-0.22000685

>  <Name>
ligand

>  <RI>
0

>  <Rbt.Current_Directory>
/home/itssahil/PROJECTS/Mol_Feturizer/Test_systems_manuscript/rnas/4aob

>  <Rbt.Executable>
rbdock ($Id: //depot/dev/client3/rdock/2013.1/src/exe/rbdock.cxx#4 $)

>  <Rbt.Library>
libRbt.so (2013.1, Build901 2013/11/27)

>  <Rbt.Parameter_File>
/export/apps/rDock/src/rDock_2013.1_src/data/scripts/dock_solv.prm

>  <Rbt.Receptor>
prm/pocket_docking_5.prm

>  <SCORE>
-8.66603

>  <SCORE.INTER>
-9.37947

>  <SCORE.INTER.CONST>
1

>  <SCORE.INTER.POLAR>
0

>  <SCORE.INTER.ROT>
7

>  <SCORE.INTER.SOLV>
13.875

>  <SCORE.INTER.VDW>
-19.1446

>  <SCORE.INTER.norm>
-0.347388

>  <SCORE.INTRA>
0.641816

>  <SCORE.INTRA.DIHEDRAL>
-0.995707

>  <SCORE.INTRA.DIHEDRAL.0>
6.31833

>  <SCORE.INTRA.POLAR>
0

>  <SCORE.INTRA.POLAR.0>
0

>  <SCORE.INTRA.REPUL>
0

>  <SCORE.INTRA.REPUL.0>
0

>  <SCORE.INTRA.SOLV>
1.32843

>  <SCORE.INTRA.SOLV.lig_0>
-48.4015

>  <SCORE.INTRA.VDW>
0.475453

>  <SCORE.INTRA.VDW.0>
-2.83256

>  <SCORE.INTRA.norm>
0.023771

>  <SCORE.RESTR>
0.0716288

>  <SCORE.RESTR.CAVITY>
0.0716288

>  <SCORE.RESTR.norm>
0.00265292

>  <SCORE.SYSTEM>
0

>  <SCORE.SYSTEM.CONST>
0

>  <SCORE.SYSTEM.DIHEDRAL>
0

>  <SCORE.SYSTEM.SOLV>
0

>  <SCORE.SYSTEM.norm>
0

>  <SCORE.heavy>
27

>  <SCORE.norm>
-0.320964

>  <RMSD>
2.741

$$$$
ligand
 OpenBabel02271912153D
libRbt.so/2013.1/901 2013/11/27
 27 29  0  0  0  0  0  0  0  0999 V2000
   17.0239    9.1555   28.0971 N   0  0  0  0  0  0  0  0  0  0  0  0
   16.1507    8.1981   27.3764 C   0  0  2  0  0  0  0  0  0  0  0  0
   15.0359    8.9945   26.7106 C   0  0  0  0  0  0  0  0  0  0  0  0
   14.2960    9.8718   27.2677 O   0  0  0  0  0  0  0  0  0  0  0  0
   15.6387    7.1542   28.3713 C   0  0  0  0  0  0  0  0  0  0  0  0
   14.8291    7.7687   29.5054 C   0  0  0  0  0  0  0  0  0  0  0  0
   14.2998    6.8302   30.9872 S   0  0  2  0  0  0  0  0  0  0  0  0
   12.9748    5.8778   30.2470 C   0  0  0  0  0  0  0  0  0  0  0  0
   13.4309    8.1782   31.8499 C   0  0  0  0  0  0  0  0  0  0  0  0
   13.0778    7.7945   33.2606 C   0  0  1  0  0  0  0  0  0  0  0  0
   12.3197    6.5626   33.3276 O   0  0  0  0  0  0  0  0  0  0  0  0
   14.2692    7.6286   34.1760 C   0  0  1  0  0  0  0  0  0  0  0  0
   14.4194    8.7784   34.8886 O   0  0  0  0  0  0  0  0  0  0  0  0
   13.7354    6.5806   35.1242 C   0  0  1  0  0  0  0  0  0  0  0  0
   13.0002    7.2594   36.0430 O   0  0  0  0  0  0  0  0  0  0  0  0
   12.7973    5.6719   34.2995 C   0  0  2  0  0  0  0  0  0  0  0  0
   14.8009    8.7138   25.5340 O   0  0  0  0  0  0  0  0  0  0  0  0
   13.5065    1.2714   31.5963 N   0  0  0  0  0  0  0  0  0  0  0  0
   12.3458    1.9254   32.1307 C   0  0  0  0  0  0  0  0  0  0  0  0
   12.2868    3.1441   32.8513 N   0  0  0  0  0  0  0  0  0  0  0  0
   13.4449    3.6584   32.9853 C   0  0  0  0  0  0  0  0  0  0  0  0
   14.6993    3.0673   32.4680 C   0  0  0  0  0  0  0  0  0  0  0  0
   14.7127    1.9044   31.8036 C   0  0  0  0  0  0  0  0  0  0  0  0
   15.8983    1.4816   31.4158 N   0  0  0  0  0  0  0  0  0  0  0  0
   15.7676    3.7773   32.7418 N   0  0  0  0  0  0  0  0  0  0  0  0
   15.1783    4.8224   33.4292 C   0  0  0  0  0  0  0  0  0  0  0  0
   13.7333    4.7644   33.5821 N   0  0  0  0  0  0  0  0  0  0  0  0
  2  1  1  1  0  0  0
  2  3  1  0  0  0  0
  2  5  1  0  0  0  0
  3  4  1  0  0  0  0
  3 17  1  0  0  0  0
  5  6  1  0  0  0  0
  7  6  1  6  0  0  0
  7  8  1  0  0  0  0
  7  9  1  0  0  0  0
 10  9  1  6  0  0  0
 10 11  1  0  0  0  0
 10 12  1  0  0  0  0
 11 16  1  0  0  0  0
 12 13  1  1  0  0  0
 12 14  1  0  0  0  0
 14 15  1  1  0  0  0
 14 16  1  0  0  0  0
 16 27  1  6  0  0  0
 18 19  2  0  0  0  0
 18 23  1  0  0  0  0
 19 20  1  0  0  0  0
 20 21  2  0  0  0  0
 21 22  1  0  0  0  0
 21 27  1  0  0  0  0
 22 23  2  0  0  0  0
 22 25  1  0  0  0  0
 23 24  1  0  0  0  0
 25 26  2  0  0  0  0
 26 27  1  0  0  0  0
M  END
>  <CHROM.1>
-49.66860916,60.21575644,-170.25065835,-75.10011676,-169.43836644,-54.48661913
-88.94730756,14.20155669,6.09824285,31.50709186,0.66489774,1.30949272,-0.03688178

>  <Name>
ligand

>  <RI>
0

>  <Rbt.Current_Directory>
/home/itssahil/PROJECTS/Mol_Feturizer/Test_systems_manuscript/rnas/4aob

>  <Rbt.Executable>
rbdock ($Id: //depot/dev/client3/rdock/2013.1/src/exe/rbdock.cxx#4 $)

>  <Rbt.Library>
libRbt.so (2013.1, Build901 2013/11/27)

>  <Rbt.Parameter_File>
/export/apps/rDock/src/rDock_2013.1_src/data/scripts/dock_solv.prm

>  <Rbt.Receptor>
prm/pocket_docking_5.prm

>  <SCORE>
-12.6692

>  <SCORE.INTER>
-11.0959

>  <SCORE.INTER.CONST>
1

>  <SCORE.INTER.POLAR>
0

>  <SCORE.INTER.ROT>
7

>  <SCORE.INTER.SOLV>
15.4391

>  <SCORE.INTER.VDW>
-20.8103

>  <SCORE.INTER.norm>
-0.410959

>  <SCORE.INTRA>
-1.57326

>  <SCORE.INTRA.DIHEDRAL>
-1.47156

>  <SCORE.INTRA.DIHEDRAL.0>
6.31833

>  <SCORE.INTRA.POLAR>
0

>  <SCORE.INTRA.POLAR.0>
0

>  <SCORE.INTRA.REPUL>
0

>  <SCORE.INTRA.REPUL.0>
0

>  <SCORE.INTRA.SOLV>
0.144364

>  <SCORE.INTRA.SOLV.lig_0>
-48.4015

>  <SCORE.INTRA.VDW>
-0.909656

>  <SCORE.INTRA.VDW.0>
-2.83256

>  <SCORE.INTRA.norm>
-0.0582687

>  <SCORE.RESTR>
0

>  <SCORE.RESTR.CAVITY>
0

>  <SCORE.RESTR.norm>
0

>  <SCORE.SYSTEM>
0

>  <SCORE.SYSTEM.CONST>
0

>  <SCORE.SYSTEM.DIHEDRAL>
0

>  <SCORE.SYSTEM.SOLV>
0

>  <SCORE.SYSTEM.norm>
0

>  <SCORE.heavy>
27

>  <SCORE.norm>
-0.469228

>  <RMSD>
2.747

$$$$
ligand
 OpenBabel02271912153D
libRbt.so/2013.1/901 2013/11/27
 27 29  0  0  0  0  0  0  0  0999 V2000
   15.8095    8.0926   27.7537 N   0  0  0  0  0  0  0  0  0  0  0  0
   14.7120    9.0811   27.6239 C   0  0  2  0  0  0  0  0  0  0  0  0
   14.4944    9.7179   28.9904 C   0  0  0  0  0  0  0  0  0  0  0  0
   15.2539    9.6017   30.0089 O   0  0  0  0  0  0  0  0  0  0  0  0
   13.4703    8.3694   27.0823 C   0  0  0  0  0  0  0  0  0  0  0  0
   13.1720    7.0671   27.8132 C   0  0  0  0  0  0  0  0  0  0  0  0
   12.0780    6.9639   29.2792 S   0  0  2  0  0  0  0  0  0  0  0  0
   11.1147    8.4497   29.0048 C   0  0  0  0  0  0  0  0  0  0  0  0
   13.2907    7.4643   30.5422 C   0  0  0  0  0  0  0  0  0  0  0  0
   12.7626    7.2448   31.9332 C   0  0  1  0  0  0  0  0  0  0  0  0
   12.2138    5.9172   32.1156 O   0  0  0  0  0  0  0  0  0  0  0  0
   13.7862    7.4519   33.0261 C   0  0  1  0  0  0  0  0  0  0  0  0
   13.6213    8.7059   33.5289 O   0  0  0  0  0  0  0  0  0  0  0  0
   13.2711    6.4822   34.0638 C   0  0  1  0  0  0  0  0  0  0  0  0
   12.2864    7.1439   34.7256 O   0  0  0  0  0  0  0  0  0  0  0  0
   12.6514    5.2953   33.2936 C   0  0  2  0  0  0  0  0  0  0  0  0
   13.4511   10.3593   29.1268 O   0  0  0  0  0  0  0  0  0  0  0  0
   14.5050    0.8567   31.2841 N   0  0  0  0  0  0  0  0  0  0  0  0
   13.1805    1.3752   31.4780 C   0  0  0  0  0  0  0  0  0  0  0  0
   12.8062    2.6220   32.0377 N   0  0  0  0  0  0  0  0  0  0  0  0
   13.8292    3.3049   32.3706 C   0  0  0  0  0  0  0  0  0  0  0  0
   15.2324    2.8633   32.2075 C   0  0  0  0  0  0  0  0  0  0  0  0
   15.5427    1.6691   31.6864 C   0  0  0  0  0  0  0  0  0  0  0  0
   16.8287    1.3931   31.6163 N   0  0  0  0  0  0  0  0  0  0  0  0
   16.1121    3.7367   32.6359 N   0  0  0  0  0  0  0  0  0  0  0  0
   15.2553    4.7339   33.0641 C   0  0  0  0  0  0  0  0  0  0  0  0
   13.8328    4.4812   32.8988 N   0  0  0  0  0  0  0  0  0  0  0  0
  2  1  1  1  0  0  0
  2  3  1  0  0  0  0
  2  5  1  0  0  0  0
  3  4  1  0  0  0  0
  3 17  1  0  0  0  0
  5  6  1  0  0  0  0
  7  6  1  6  0  0  0
  7  8  1  0  0  0  0
  7  9  1  0  0  0  0
 10  9  1  6  0  0  0
 10 11  1  0  0  0  0
 10 12  1  0  0  0  0
 11 16  1  0  0  0  0
 12 13  1  1  0  0  0
 12 14  1  0  0  0  0
 14 15  1  6  0  0  0
 14 16  1  0  0  0  0
 16 27  1  6  0  0  0
 18 19  2  0  0  0  0
 18 23  1  0  0  0  0
 19 20  1  0  0  0  0
 20 21  2  0  0  0  0
 21 22  1  0  0  0  0
 21 27  1  0  0  0  0
 22 23  2  0  0  0  0
 22 25  1  0  0  0  0
 23 24  1  0  0  0  0
 25 26  2  0  0  0  0
 26 27  1  0  0  0  0
M  END
>  <CHROM.1>
10.92506463,47.35811659,91.12611474,22.95031890,-169.71436296,49.50003169
-82.33108263,13.75299650,6.10434854,31.05625354,-1.96131643,-1.19496813,2.27697580

>  <Name>
ligand

>  <RI>
0

>  <Rbt.Current_Directory>
/home/itssahil/PROJECTS/Mol_Feturizer/Test_systems_manuscript/rnas/4aob

>  <Rbt.Executable>
rbdock ($Id: //depot/dev/client3/rdock/2013.1/src/exe/rbdock.cxx#4 $)

>  <Rbt.Library>
libRbt.so (2013.1, Build901 2013/11/27)

>  <Rbt.Parameter_File>
/export/apps/rDock/src/rDock_2013.1_src/data/scripts/dock_solv.prm

>  <Rbt.Receptor>
prm/pocket_docking_4.prm

>  <SCORE>
-9.88642

>  <SCORE.INTER>
-14.2934

>  <SCORE.INTER.CONST>
1

>  <SCORE.INTER.POLAR>
0

>  <SCORE.INTER.ROT>
7

>  <SCORE.INTER.SOLV>
16.0065

>  <SCORE.INTER.VDW>
-23.1311

>  <SCORE.INTER.norm>
-0.529385

>  <SCORE.INTRA>
4.40699

>  <SCORE.INTRA.DIHEDRAL>
4.12128

>  <SCORE.INTRA.DIHEDRAL.0>
6.31833

>  <SCORE.INTRA.POLAR>
0

>  <SCORE.INTRA.POLAR.0>
0

>  <SCORE.INTRA.REPUL>
0

>  <SCORE.INTRA.REPUL.0>
0

>  <SCORE.INTRA.SOLV>
1.01869

>  <SCORE.INTRA.SOLV.lig_0>
-48.4015

>  <SCORE.INTRA.VDW>
1.837

>  <SCORE.INTRA.VDW.0>
-2.83256

>  <SCORE.INTRA.norm>
0.163222

>  <SCORE.RESTR>
0

>  <SCORE.RESTR.CAVITY>
0

>  <SCORE.RESTR.norm>
0

>  <SCORE.SYSTEM>
0

>  <SCORE.SYSTEM.CONST>
0

>  <SCORE.SYSTEM.DIHEDRAL>
0

>  <SCORE.SYSTEM.SOLV>
0

>  <SCORE.SYSTEM.norm>
0

>  <SCORE.heavy>
27

>  <SCORE.norm>
-0.366164

>  <RMSD>
2.751

$$$$
ligand
 OpenBabel02271912153D
libRbt.so/2013.1/901 2013/11/27
 27 29  0  0  0  0  0  0  0  0999 V2000
   14.6526    7.2551   26.3426 N   0  0  0  0  0  0  0  0  0  0  0  0
   14.1979    7.8427   27.6257 C   0  0  2  0  0  0  0  0  0  0  0  0
   13.9342    9.3246   27.3920 C   0  0  0  0  0  0  0  0  0  0  0  0
   14.4974   10.0649   26.5190 O   0  0  0  0  0  0  0  0  0  0  0  0
   15.2622    7.5775   28.6928 C   0  0  0  0  0  0  0  0  0  0  0  0
   14.8217    8.0111   30.0846 C   0  0  0  0  0  0  0  0  0  0  0  0
   13.8028    6.9634   31.1895 S   0  0  2  0  0  0  0  0  0  0  0  0
   12.5341    6.4860   30.0177 C   0  0  0  0  0  0  0  0  0  0  0  0
   13.0184    8.2932   32.1552 C   0  0  0  0  0  0  0  0  0  0  0  0
   12.9969    7.9708   33.6240 C   0  0  1  0  0  0  0  0  0  0  0  0
   12.3396    6.7118   33.9064 O   0  0  0  0  0  0  0  0  0  0  0  0
   14.3639    7.9075   34.2662 C   0  0  1  0  0  0  0  0  0  0  0  0
   14.5996    9.0995   34.8793 O   0  0  0  0  0  0  0  0  0  0  0  0
   14.1038    6.8895   35.3517 C   0  0  1  0  0  0  0  0  0  0  0  0
   13.5460    7.5835   36.3777 O   0  0  0  0  0  0  0  0  0  0  0  0
   13.0623    5.8969   34.7894 C   0  0  2  0  0  0  0  0  0  0  0  0
   13.1374    9.8593   28.1652 O   0  0  0  0  0  0  0  0  0  0  0  0
   13.3059    1.5551   31.9146 N   0  0  0  0  0  0  0  0  0  0  0  0
   12.2440    2.2118   32.6229 C   0  0  0  0  0  0  0  0  0  0  0  0
   12.3085    3.4130   33.3718 N   0  0  0  0  0  0  0  0  0  0  0  0
   13.4826    3.9077   33.3517 C   0  0  0  0  0  0  0  0  0  0  0  0
   14.6408    3.3123   32.6484 C   0  0  0  0  0  0  0  0  0  0  0  0
   14.5400    2.1661   31.9629 C   0  0  0  0  0  0  0  0  0  0  0  0
   15.6513    1.7366   31.4013 N   0  0  0  0  0  0  0  0  0  0  0  0
   15.7492    4.0004   32.7838 N   0  0  0  0  0  0  0  0  0  0  0  0
   15.2812    5.0362   33.5712 C   0  0  0  0  0  0  0  0  0  0  0  0
   13.8716    4.9945   33.9262 N   0  0  0  0  0  0  0  0  0  0  0  0
  2  1  1  6  0  0  0
  2  3  1  0  0  0  0
  2  5  1  0  0  0  0
  3  4  1  0  0  0  0
  3 17  1  0  0  0  0
  5  6  1  0  0  0  0
  7  6  1  6  0  0  0
  7  8  1  0  0  0  0
  7  9  1  0  0  0  0
 10  9  1  6  0  0  0
 10 11  1  0  0  0  0
 10 12  1  0  0  0  0
 11 16  1  0  0  0  0
 12 13  1  1  0  0  0
 12 14  1  0  0  0  0
 14 15  1  1  0  0  0
 14 16  1  0  0  0  0
 16 27  1  6  0  0  0
 18 19  2  0  0  0  0
 18 23  1  0  0  0  0
 19 20  1  0  0  0  0
 20 21  2  0  0  0  0
 21 22  1  0  0  0  0
 21 27  1  0  0  0  0
 22 23  2  0  0  0  0
 22 25  1  0  0  0  0
 23 24  1  0  0  0  0
 25 26  2  0  0  0  0
 26 27  1  0  0  0  0
M  END
>  <CHROM.1>
-27.64271783,-173.79427336,84.07327401,-48.05859105,-136.46766494,-56.27992191
-81.89056748,13.90638207,6.29506129,31.76246403,-1.09938798,-1.46045170,2.66487098

>  <Name>
ligand

>  <RI>
0

>  <Rbt.Current_Directory>
/home/itssahil/PROJECTS/Mol_Feturizer/Test_systems_manuscript/rnas/4aob

>  <Rbt.Executable>
rbdock ($Id: //depot/dev/client3/rdock/2013.1/src/exe/rbdock.cxx#4 $)

>  <Rbt.Library>
libRbt.so (2013.1, Build901 2013/11/27)

>  <Rbt.Parameter_File>
/export/apps/rDock/src/rDock_2013.1_src/data/scripts/dock_solv.prm

>  <Rbt.Receptor>
prm/pocket_docking_3.prm

>  <SCORE>
-10.5476

>  <SCORE.INTER>
-11.6175

>  <SCORE.INTER.CONST>
1

>  <SCORE.INTER.POLAR>
0

>  <SCORE.INTER.ROT>
7

>  <SCORE.INTER.SOLV>
12.0303

>  <SCORE.INTER.VDW>
-20.0218

>  <SCORE.INTER.norm>
-0.430278

>  <SCORE.INTRA>
1.06833

>  <SCORE.INTRA.DIHEDRAL>
4.01718

>  <SCORE.INTRA.DIHEDRAL.0>
6.31833

>  <SCORE.INTRA.POLAR>
0

>  <SCORE.INTRA.POLAR.0>
0

>  <SCORE.INTRA.REPUL>
0

>  <SCORE.INTRA.REPUL.0>
0

>  <SCORE.INTRA.SOLV>
-0.137838

>  <SCORE.INTRA.SOLV.lig_0>
-48.4015

>  <SCORE.INTRA.VDW>
-0.871342

>  <SCORE.INTRA.VDW.0>
-2.83256

>  <SCORE.INTRA.norm>
0.0395677

>  <SCORE.RESTR>
0.00161626

>  <SCORE.RESTR.CAVITY>
0.00161626

>  <SCORE.RESTR.norm>
5.98616e-05

>  <SCORE.SYSTEM>
0

>  <SCORE.SYSTEM.CONST>
0

>  <SCORE.SYSTEM.DIHEDRAL>
0

>  <SCORE.SYSTEM.SOLV>
0

>  <SCORE.SYSTEM.norm>
0

>  <SCORE.heavy>
27

>  <SCORE.norm>
-0.390651

>  <RMSD>
2.754

$$$$
ligand
 OpenBabel02271912153D
libRbt.so/2013.1/901 2013/11/27
 27 29  0  0  0  0  0  0  0  0999 V2000
   13.4087    7.4407   26.0301 N   0  0  0  0  0  0  0  0  0  0  0  0
   12.6351    8.2994   26.9587 C   0  0  2  0  0  0  0  0  0  0  0  0
   13.3958    9.6084   27.1259 C   0  0  0  0  0  0  0  0  0  0  0  0
   14.5260    9.8980   26.6098 O   0  0  0  0  0  0  0  0  0  0  0  0
   12.4325    7.5440   28.2740 C   0  0  0  0  0  0  0  0  0  0  0  0
   13.7455    7.2060   28.9675 C   0  0  0  0  0  0  0  0  0  0  0  0
   13.8394    6.5030   30.6567 S   0  0  2  0  0  0  0  0  0  0  0  0
   12.6303    5.1933   30.4738 C   0  0  0  0  0  0  0  0  0  0  0  0
   12.9262    7.8126   31.5326 C   0  0  0  0  0  0  0  0  0  0  0  0
   12.8916    7.5652   33.0157 C   0  0  1  0  0  0  0  0  0  0  0  0
   12.2773    6.2980   33.3529 O   0  0  0  0  0  0  0  0  0  0  0  0
   14.2488    7.5874   33.6809 C   0  0  1  0  0  0  0  0  0  0  0  0
   14.4290    8.8174   34.2350 O   0  0  0  0  0  0  0  0  0  0  0  0
   14.0085    6.6170   34.8137 C   0  0  1  0  0  0  0  0  0  0  0  0
   13.4075    7.3407   35.7938 O   0  0  0  0  0  0  0  0  0  0  0  0
   13.0148    5.5577   34.2878 C   0  0  2  0  0  0  0  0  0  0  0  0
   12.8837   10.4375   27.8801 O   0  0  0  0  0  0  0  0  0  0  0  0
   13.4269    1.1667   31.5086 N   0  0  0  0  0  0  0  0  0  0  0  0
   12.3265    1.8307   32.1480 C   0  0  0  0  0  0  0  0  0  0  0  0
   12.3467    3.0453   32.8775 N   0  0  0  0  0  0  0  0  0  0  0  0
   13.5183    3.5453   32.9103 C   0  0  0  0  0  0  0  0  0  0  0  0
   14.7143    2.9431   32.2800 C   0  0  0  0  0  0  0  0  0  0  0  0
   14.6543    1.7844   31.6109 C   0  0  0  0  0  0  0  0  0  0  0  0
   15.7955    1.3504   31.1165 N   0  0  0  0  0  0  0  0  0  0  0  0
   15.8113    3.6389   32.4612 N   0  0  0  0  0  0  0  0  0  0  0  0
   15.2983    4.6863   33.2040 C   0  0  0  0  0  0  0  0  0  0  0  0
   13.8721    4.6441   33.4849 N   0  0  0  0  0  0  0  0  0  0  0  0
  2  1  1  6  0  0  0
  2  3  1  0  0  0  0
  2  5  1  0  0  0  0
  3  4  1  0  0  0  0
  3 17  1  0  0  0  0
  5  6  1  0  0  0  0
  7  6  1  6  0  0  0
  7  8  1  0  0  0  0
  7  9  1  0  0  0  0
 10  9  1  6  0  0  0
 10 11  1  0  0  0  0
 10 12  1  0  0  0  0
 11 16  1  0  0  0  0
 12 13  1  1  0  0  0
 12 14  1  0  0  0  0
 14 15  1  1  0  0  0
 14 16  1  0  0  0  0
 16 27  1  6  0  0  0
 18 19  2  0  0  0  0
 18 23  1  0  0  0  0
 19 20  1  0  0  0  0
 20 21  2  0  0  0  0
 21 22  1  0  0  0  0
 21 27  1  0  0  0  0
 22 23  2  0  0  0  0
 22 25  1  0  0  0  0
 23 24  1  0  0  0  0
 25 26  2  0  0  0  0
 26 27  1  0  0  0  0
M  END
>  <CHROM.1>
-2.85038223,61.42924741,171.77488859,48.30410512,-176.64994100,-58.75995080
-78.45468345,13.64261839,6.00120812,31.33002855,-2.45834605,-1.47154430,1.44925918

>  <Name>
ligand

>  <RI>
0

>  <Rbt.Current_Directory>
/home/itssahil/PROJECTS/Mol_Feturizer/Test_systems_manuscript/rnas/4aob

>  <Rbt.Executable>
rbdock ($Id: //depot/dev/client3/rdock/2013.1/src/exe/rbdock.cxx#4 $)

>  <Rbt.Library>
libRbt.so (2013.1, Build901 2013/11/27)

>  <Rbt.Parameter_File>
/export/apps/rDock/src/rDock_2013.1_src/data/scripts/dock_solv.prm

>  <Rbt.Receptor>
prm/pocket_docking_6.prm

>  <SCORE>
-13.1455

>  <SCORE.INTER>
-12.0867

>  <SCORE.INTER.CONST>
1

>  <SCORE.INTER.POLAR>
0

>  <SCORE.INTER.ROT>
7

>  <SCORE.INTER.SOLV>
11.6646

>  <SCORE.INTER.VDW>
-20.2126

>  <SCORE.INTER.norm>
-0.447654

>  <SCORE.INTRA>
-1.08687

>  <SCORE.INTRA.DIHEDRAL>
-2.35002

>  <SCORE.INTRA.DIHEDRAL.0>
6.31833

>  <SCORE.INTRA.POLAR>
0

>  <SCORE.INTRA.POLAR.0>
0

>  <SCORE.INTRA.REPUL>
0

>  <SCORE.INTRA.REPUL.0>
0

>  <SCORE.INTRA.SOLV>
0.161529

>  <SCORE.INTRA.SOLV.lig_0>
-48.4015

>  <SCORE.INTRA.VDW>
0.00737247

>  <SCORE.INTRA.VDW.0>
-2.83256

>  <SCORE.INTRA.norm>
-0.0402545

>  <SCORE.RESTR>
0.0279959

>  <SCORE.RESTR.CAVITY>
0.0279959

>  <SCORE.RESTR.norm>
0.00103688

>  <SCORE.SYSTEM>
0

>  <SCORE.SYSTEM.CONST>
0

>  <SCORE.SYSTEM.DIHEDRAL>
0

>  <SCORE.SYSTEM.SOLV>
0

>  <SCORE.SYSTEM.norm>
0

>  <SCORE.heavy>
27

>  <SCORE.norm>
-0.486872

>  <RMSD>
2.764

$$$$
ligand
 OpenBabel02271912153D
libRbt.so/2013.1/901 2013/11/27
 27 29  0  0  0  0  0  0  0  0999 V2000
   14.6809    8.5476   26.7030 N   0  0  0  0  0  0  0  0  0  0  0  0
   14.1156    9.2679   27.8691 C   0  0  2  0  0  0  0  0  0  0  0  0
   15.1815    9.3027   28.9567 C   0  0  0  0  0  0  0  0  0  0  0  0
   14.9780    9.2931   30.2161 O   0  0  0  0  0  0  0  0  0  0  0  0
   12.8280    8.5650   28.3048 C   0  0  0  0  0  0  0  0  0  0  0  0
   13.0330    7.0827   28.5878 C   0  0  0  0  0  0  0  0  0  0  0  0
   13.7108    6.4440   30.1656 S   0  0  2  0  0  0  0  0  0  0  0  0
   13.3729    4.7014   29.9210 C   0  0  0  0  0  0  0  0  0  0  0  0
   12.3668    6.9929   31.2650 C   0  0  0  0  0  0  0  0  0  0  0  0
   12.8167    7.0569   32.6986 C   0  0  1  0  0  0  0  0  0  0  0  0
   12.6014    5.8108   33.4042 O   0  0  0  0  0  0  0  0  0  0  0  0
   14.2739    7.4176   32.8768 C   0  0  1  0  0  0  0  0  0  0  0  0
   14.3505    8.7487   33.1499 O   0  0  0  0  0  0  0  0  0  0  0  0
   14.5784    6.6793   34.1593 C   0  0  1  0  0  0  0  0  0  0  0  0
   14.1531    7.4938   35.1599 O   0  0  0  0  0  0  0  0  0  0  0  0
   13.7148    5.3986   34.1503 C   0  0  2  0  0  0  0  0  0  0  0  0
   16.3461    9.4059   28.5676 O   0  0  0  0  0  0  0  0  0  0  0  0
   13.7657    1.0182   31.3246 N   0  0  0  0  0  0  0  0  0  0  0  0
   12.7475    1.6972   32.0748 C   0  0  0  0  0  0  0  0  0  0  0  0
   12.8629    2.9068   32.8038 N   0  0  0  0  0  0  0  0  0  0  0  0
   14.0406    3.3862   32.7202 C   0  0  0  0  0  0  0  0  0  0  0  0
   15.1559    2.7674   31.9695 C   0  0  0  0  0  0  0  0  0  0  0  0
   15.0080    1.6140   31.3049 C   0  0  0  0  0  0  0  0  0  0  0  0
   16.0854    1.1634   30.6957 N   0  0  0  0  0  0  0  0  0  0  0  0
   16.2778    3.4430   32.0418 N   0  0  0  0  0  0  0  0  0  0  0  0
   15.8612    4.4945   32.8373 C   0  0  0  0  0  0  0  0  0  0  0  0
   14.4702    4.4752   33.2608 N   0  0  0  0  0  0  0  0  0  0  0  0
  2  1  1  6  0  0  0
  2  3  1  0  0  0  0
  2  5  1  0  0  0  0
  3  4  1  0  0  0  0
  3 17  1  0  0  0  0
  5  6  1  0  0  0  0
  7  6  1  6  0  0  0
  7  8  1  0  0  0  0
  7  9  1  0  0  0  0
 10  9  1  6  0  0  0
 10 11  1  0  0  0  0
 10 12  1  0  0  0  0
 11 16  1  0  0  0  0
 12 13  1  1  0  0  0
 12 14  1  0  0  0  0
 14 15  1  1  0  0  0
 14 16  1  0  0  0  0
 16 27  1  6  0  0  0
 18 19  2  0  0  0  0
 18 23  1  0  0  0  0
 19 20  1  0  0  0  0
 20 21  2  0  0  0  0
 21 22  1  0  0  0  0
 21 27  1  0  0  0  0
 22 23  2  0  0  0  0
 22 25  1  0  0  0  0
 23 24  1  0  0  0  0
 25 26  2  0  0  0  0
 26 27  1  0  0  0  0
M  END
>  <CHROM.1>
-148.29333737,54.87997597,81.16490608,169.61110291,-159.91397488,-90.24324990
-58.44592454,14.17097509,5.87774492,31.31513029,-1.48305785,-1.45637044,2.72144061

>  <Name>
ligand

>  <RI>
0

>  <Rbt.Current_Directory>
/home/itssahil/PROJECTS/Mol_Feturizer/Test_systems_manuscript/rnas/4aob

>  <Rbt.Executable>
rbdock ($Id: //depot/dev/client3/rdock/2013.1/src/exe/rbdock.cxx#4 $)

>  <Rbt.Library>
libRbt.so (2013.1, Build901 2013/11/27)

>  <Rbt.Parameter_File>
/export/apps/rDock/src/rDock_2013.1_src/data/scripts/dock_solv.prm

>  <Rbt.Receptor>
prm/pocket_docking_3.prm

>  <SCORE>
-10.232

>  <SCORE.INTER>
-11.3116

>  <SCORE.INTER.CONST>
1

>  <SCORE.INTER.POLAR>
0

>  <SCORE.INTER.ROT>
7

>  <SCORE.INTER.SOLV>
12.8261

>  <SCORE.INTER.VDW>
-20.0831

>  <SCORE.INTER.norm>
-0.418948

>  <SCORE.INTRA>
1.07647

>  <SCORE.INTRA.DIHEDRAL>
3.05488

>  <SCORE.INTRA.DIHEDRAL.0>
6.31833

>  <SCORE.INTRA.POLAR>
0

>  <SCORE.INTRA.POLAR.0>
0

>  <SCORE.INTRA.REPUL>
0

>  <SCORE.INTRA.REPUL.0>
0

>  <SCORE.INTRA.SOLV>
1.0407

>  <SCORE.INTRA.SOLV.lig_0>
-48.4015

>  <SCORE.INTRA.VDW>
-0.971323

>  <SCORE.INTRA.VDW.0>
-2.83256

>  <SCORE.INTRA.norm>
0.0398692

>  <SCORE.RESTR>
0.00310594

>  <SCORE.RESTR.CAVITY>
0.00310594

>  <SCORE.RESTR.norm>
0.000115035

>  <SCORE.SYSTEM>
0

>  <SCORE.SYSTEM.CONST>
0

>  <SCORE.SYSTEM.DIHEDRAL>
0

>  <SCORE.SYSTEM.SOLV>
0

>  <SCORE.SYSTEM.norm>
0

>  <SCORE.heavy>
27

>  <SCORE.norm>
-0.378964

>  <RMSD>
2.784

$$$$
ligand
 OpenBabel02271912153D
libRbt.so/2013.1/901 2013/11/27
 27 29  0  0  0  0  0  0  0  0999 V2000
   14.6744    8.4697   26.5822 N   0  0  0  0  0  0  0  0  0  0  0  0
   14.3938    7.9603   27.9461 C   0  0  2  0  0  0  0  0  0  0  0  0
   14.6010    9.1094   28.9243 C   0  0  0  0  0  0  0  0  0  0  0  0
   13.6914    9.8523   29.4226 O   0  0  0  0  0  0  0  0  0  0  0  0
   15.3027    6.7601   28.2198 C   0  0  0  0  0  0  0  0  0  0  0  0
   15.0155    6.0973   29.5604 C   0  0  0  0  0  0  0  0  0  0  0  0
   13.4010    5.3419   29.9840 S   0  0  2  0  0  0  0  0  0  0  0  0
   12.7606    5.1207   28.3252 C   0  0  0  0  0  0  0  0  0  0  0  0
   12.5592    6.8454   30.5734 C   0  0  0  0  0  0  0  0  0  0  0  0
   12.8431    7.1038   32.0276 C   0  0  1  0  0  0  0  0  0  0  0  0
   12.4670    5.9900   32.8731 O   0  0  0  0  0  0  0  0  0  0  0  0
   14.2900    7.4184   32.3316 C   0  0  1  0  0  0  0  0  0  0  0  0
   14.4207    8.7704   32.4173 O   0  0  0  0  0  0  0  0  0  0  0  0
   14.3953    6.8686   33.7349 C   0  0  1  0  0  0  0  0  0  0  0  0
   13.9106    7.8438   34.5469 O   0  0  0  0  0  0  0  0  0  0  0  0
   13.4573    5.6432   33.8033 C   0  0  2  0  0  0  0  0  0  0  0  0
   15.7710    9.3703   29.2101 O   0  0  0  0  0  0  0  0  0  0  0  0
   13.5197    0.9738   31.4866 N   0  0  0  0  0  0  0  0  0  0  0  0
   12.4676    1.8193   31.9753 C   0  0  0  0  0  0  0  0  0  0  0  0
   12.5858    3.0918   32.5873 N   0  0  0  0  0  0  0  0  0  0  0  0
   13.8042    3.4571   32.6625 C   0  0  0  0  0  0  0  0  0  0  0  0
   14.9579    2.6628   32.1842 C   0  0  0  0  0  0  0  0  0  0  0  0
   14.8030    1.4562   31.6238 C   0  0  0  0  0  0  0  0  0  0  0  0
   15.9135    0.8482   31.2606 N   0  0  0  0  0  0  0  0  0  0  0  0
   16.1162    3.2453   32.3826 N   0  0  0  0  0  0  0  0  0  0  0  0
   15.6853    4.4140   32.9829 C   0  0  0  0  0  0  0  0  0  0  0  0
   14.2492    4.5617   33.1570 N   0  0  0  0  0  0  0  0  0  0  0  0
  2  1  1  6  0  0  0
  2  3  1  0  0  0  0
  2  5  1  0  0  0  0
  3  4  1  0  0  0  0
  3 17  1  0  0  0  0
  5  6  1  0  0  0  0
  7  6  1  6  0  0  0
  7  8  1  0  0  0  0
  7  9  1  0  0  0  0
 10  9  1  6  0  0  0
 10 11  1  0  0  0  0
 10 12  1  0  0  0  0
 11 16  1  0  0  0  0
 12 13  1  1  0  0  0
 12 14  1  0  0  0  0
 14 15  1  1  0  0  0
 14 16  1  0  0  0  0
 16 27  1  6  0  0  0
 18 19  2  0  0  0  0
 18 23  1  0  0  0  0
 19 20  1  0  0  0  0
 20 21  2  0  0  0  0
 21 22  1  0  0  0  0
 21 27  1  0  0  0  0
 22 23  2  0  0  0  0
 22 25  1  0  0  0  0
 23 24  1  0  0  0  0
 25 26  2  0  0  0  0
 26 27  1  0  0  0  0
M  END
>  <CHROM.1>
98.46078295,-175.61742897,61.21186643,19.79386434,-85.90546672,-57.07433704
-54.23244723,14.10568917,5.69072264,31.13653319,-1.33378316,-1.45275805,2.91018752

>  <Name>
ligand

>  <RI>
0

>  <Rbt.Current_Directory>
/home/itssahil/PROJECTS/Mol_Feturizer/Test_systems_manuscript/rnas/4aob

>  <Rbt.Executable>
rbdock ($Id: //depot/dev/client3/rdock/2013.1/src/exe/rbdock.cxx#4 $)

>  <Rbt.Library>
libRbt.so (2013.1, Build901 2013/11/27)

>  <Rbt.Parameter_File>
/export/apps/rDock/src/rDock_2013.1_src/data/scripts/dock_solv.prm

>  <Rbt.Receptor>
prm/pocket_docking_3.prm

>  <SCORE>
-11.1525

>  <SCORE.INTER>
-10.032

>  <SCORE.INTER.CONST>
1

>  <SCORE.INTER.POLAR>
0

>  <SCORE.INTER.ROT>
7

>  <SCORE.INTER.SOLV>
12.9984

>  <SCORE.INTER.VDW>
-19.2874

>  <SCORE.INTER.norm>
-0.371554

>  <SCORE.INTRA>
-1.12056

>  <SCORE.INTRA.DIHEDRAL>
0.0523978

>  <SCORE.INTRA.DIHEDRAL.0>
6.31833

>  <SCORE.INTRA.POLAR>
0

>  <SCORE.INTRA.POLAR.0>
0

>  <SCORE.INTRA.REPUL>
0

>  <SCORE.INTRA.REPUL.0>
0

>  <SCORE.INTRA.SOLV>
0.324891

>  <SCORE.INTRA.SOLV.lig_0>
-48.4015

>  <SCORE.INTRA.VDW>
-1.30921

>  <SCORE.INTRA.VDW.0>
-2.83256

>  <SCORE.INTRA.norm>
-0.0415024

>  <SCORE.RESTR>
0

>  <SCORE.RESTR.CAVITY>
0

>  <SCORE.RESTR.norm>
0

>  <SCORE.SYSTEM>
0

>  <SCORE.SYSTEM.CONST>
0

>  <SCORE.SYSTEM.DIHEDRAL>
0

>  <SCORE.SYSTEM.SOLV>
0

>  <SCORE.SYSTEM.norm>
0

>  <SCORE.heavy>
27

>  <SCORE.norm>
-0.413057

>  <RMSD>
2.794

$$$$
ligand
 OpenBabel02271912153D
libRbt.so/2013.1/901 2013/11/27
 27 29  0  0  0  0  0  0  0  0999 V2000
   12.4731    9.1917   26.9446 N   0  0  0  0  0  0  0  0  0  0  0  0
   12.8088    8.2727   28.0586 C   0  0  2  0  0  0  0  0  0  0  0  0
   11.5460    8.0592   28.8832 C   0  0  0  0  0  0  0  0  0  0  0  0
   11.1977    8.7186   29.9183 O   0  0  0  0  0  0  0  0  0  0  0  0
   13.9629    8.8753   28.8627 C   0  0  0  0  0  0  0  0  0  0  0  0
   14.8520    7.8165   29.5012 C   0  0  0  0  0  0  0  0  0  0  0  0
   14.3749    6.8697   30.9954 S   0  0  2  0  0  0  0  0  0  0  0  0
   13.1208    5.8200   30.2633 C   0  0  0  0  0  0  0  0  0  0  0  0
   13.4130    8.1715   31.8298 C   0  0  0  0  0  0  0  0  0  0  0  0
   13.0634    7.7826   33.2399 C   0  0  1  0  0  0  0  0  0  0  0  0
   12.3146    6.5449   33.3050 O   0  0  0  0  0  0  0  0  0  0  0  0
   14.2566    7.6239   34.1544 C   0  0  1  0  0  0  0  0  0  0  0  0
   14.3986    8.7734   34.8691 O   0  0  0  0  0  0  0  0  0  0  0  0
   13.7311    6.5702   35.1010 C   0  0  1  0  0  0  0  0  0  0  0  0
   12.9913    7.2418   36.0214 O   0  0  0  0  0  0  0  0  0  0  0  0
   12.7993    5.6560   34.2751 C   0  0  2  0  0  0  0  0  0  0  0  0
   10.8285    7.1190   28.5374 O   0  0  0  0  0  0  0  0  0  0  0  0
   13.5509    1.2365   31.6147 N   0  0  0  0  0  0  0  0  0  0  0  0
   12.3860    1.8761   32.1574 C   0  0  0  0  0  0  0  0  0  0  0  0
   12.3148    3.1021   32.8643 N   0  0  0  0  0  0  0  0  0  0  0  0
   13.4651    3.6387   32.9760 C   0  0  0  0  0  0  0  0  0  0  0  0
   14.7228    3.0640   32.4483 C   0  0  0  0  0  0  0  0  0  0  0  0
   14.7481    1.8936   31.7977 C   0  0  0  0  0  0  0  0  0  0  0  0
   15.9358    1.4874   31.3984 N   0  0  0  0  0  0  0  0  0  0  0  0
   15.7818    3.7963   32.6987 N   0  0  0  0  0  0  0  0  0  0  0  0
   15.1831    4.8389   33.3818 C   0  0  0  0  0  0  0  0  0  0  0  0
   13.7417    4.7569   33.5555 N   0  0  0  0  0  0  0  0  0  0  0  0
  2  1  1  6  0  0  0
  2  3  1  0  0  0  0
  2  5  1  0  0  0  0
  3  4  1  0  0  0  0
  3 17  1  0  0  0  0
  5  6  1  0  0  0  0
  7  6  1  6  0  0  0
  7  8  1  0  0  0  0
  7  9  1  0  0  0  0
 10  9  1  6  0  0  0
 10 11  1  0  0  0  0
 10 12  1  0  0  0  0
 11 16  1  0  0  0  0
 12 13  1  1  0  0  0
 12 14  1  0  0  0  0
 14 15  1  1  0  0  0
 14 16  1  0  0  0  0
 16 27  1  6  0  0  0
 18 19  2  0  0  0  0
 18 23  1  0  0  0  0
 19 20  1  0  0  0  0
 20 21  2  0  0  0  0
 21 22  1  0  0  0  0
 21 27  1  0  0  0  0
 22 23  2  0  0  0  0
 22 25  1  0  0  0  0
 23 24  1  0  0  0  0
 25 26  2  0  0  0  0
 26 27  1  0  0  0  0
M  END
>  <CHROM.1>
-93.44664185,-149.68204918,-76.20589341,71.95270976,-170.03063015,-57.76540598
-90.20446359,13.48756707,6.01769488,31.79583596,3.13017574,-1.33769056,0.89374440

>  <Name>
ligand

>  <RI>
0

>  <Rbt.Current_Directory>
/home/itssahil/PROJECTS/Mol_Feturizer/Test_systems_manuscript/rnas/4aob

>  <Rbt.Executable>
rbdock ($Id: //depot/dev/client3/rdock/2013.1/src/exe/rbdock.cxx#4 $)

>  <Rbt.Library>
libRbt.so (2013.1, Build901 2013/11/27)

>  <Rbt.Parameter_File>
/export/apps/rDock/src/rDock_2013.1_src/data/scripts/dock_solv.prm

>  <Rbt.Receptor>
prm/pocket_docking_3.prm

>  <SCORE>
-13.5471

>  <SCORE.INTER>
-13.8792

>  <SCORE.INTER.CONST>
1

>  <SCORE.INTER.POLAR>
0

>  <SCORE.INTER.ROT>
7

>  <SCORE.INTER.SOLV>
12.2342

>  <SCORE.INTER.VDW>
-21.5975

>  <SCORE.INTER.norm>
-0.514044

>  <SCORE.INTRA>
0.332119

>  <SCORE.INTRA.DIHEDRAL>
3.01135

>  <SCORE.INTRA.DIHEDRAL.0>
6.31833

>  <SCORE.INTRA.POLAR>
0

>  <SCORE.INTRA.POLAR.0>
0

>  <SCORE.INTRA.REPUL>
0

>  <SCORE.INTRA.REPUL.0>
0

>  <SCORE.INTRA.SOLV>
-0.379632

>  <SCORE.INTRA.SOLV.lig_0>
-48.4015

>  <SCORE.INTRA.VDW>
-0.98374

>  <SCORE.INTRA.VDW.0>
-2.83256

>  <SCORE.INTRA.norm>
0.0123007

>  <SCORE.RESTR>
0

>  <SCORE.RESTR.CAVITY>
0

>  <SCORE.RESTR.norm>
0

>  <SCORE.SYSTEM>
0

>  <SCORE.SYSTEM.CONST>
0

>  <SCORE.SYSTEM.DIHEDRAL>
0

>  <SCORE.SYSTEM.SOLV>
0

>  <SCORE.SYSTEM.norm>
0

>  <SCORE.heavy>
27

>  <SCORE.norm>
-0.501744

>  <RMSD>
2.823

$$$$
ligand
 OpenBabel02271912153D
libRbt.so/2013.1/901 2013/11/27
 27 29  0  0  0  0  0  0  0  0999 V2000
   12.1596    9.3826   26.6597 N   0  0  0  0  0  0  0  0  0  0  0  0
   12.1443    7.9684   27.1050 C   0  0  2  0  0  0  0  0  0  0  0  0
   10.7623    7.6741   27.6740 C   0  0  0  0  0  0  0  0  0  0  0  0
   10.0434    8.4698   28.3650 O   0  0  0  0  0  0  0  0  0  0  0  0
   13.2733    7.7587   28.1164 C   0  0  0  0  0  0  0  0  0  0  0  0
   13.4290    6.3018   28.5317 C   0  0  0  0  0  0  0  0  0  0  0  0
   13.7647    5.7771   30.2546 S   0  0  2  0  0  0  0  0  0  0  0  0
   13.2440    4.0675   30.1246 C   0  0  0  0  0  0  0  0  0  0  0  0
   12.3499    6.5982   31.0550 C   0  0  0  0  0  0  0  0  0  0  0  0
   12.4448    6.5262   32.5542 C   0  0  1  0  0  0  0  0  0  0  0  0
   12.2876    5.1771   33.0563 O   0  0  0  0  0  0  0  0  0  0  0  0
   13.7411    7.0586   33.1209 C   0  0  1  0  0  0  0  0  0  0  0  0
   13.5284    8.3370   33.5367 O   0  0  0  0  0  0  0  0  0  0  0  0
   13.8660    6.2004   34.3580 C   0  0  1  0  0  0  0  0  0  0  0  0
   13.0934    6.8019   35.2997 O   0  0  0  0  0  0  0  0  0  0  0  0
   13.2553    4.8253   34.0081 C   0  0  2  0  0  0  0  0  0  0  0  0
   10.3337    6.5339   27.4875 O   0  0  0  0  0  0  0  0  0  0  0  0
   14.8265    0.6623   31.2923 N   0  0  0  0  0  0  0  0  0  0  0  0
   13.5755    1.0378   31.8879 C   0  0  0  0  0  0  0  0  0  0  0  0
   13.2722    2.2221   32.6043 N   0  0  0  0  0  0  0  0  0  0  0  0
   14.2837    2.9943   32.6701 C   0  0  0  0  0  0  0  0  0  0  0  0
   15.6119    2.7022   32.0860 C   0  0  0  0  0  0  0  0  0  0  0  0
   15.8608    1.5625   31.4280 C   0  0  0  0  0  0  0  0  0  0  0  0
   17.0898    1.4203   30.9762 N   0  0  0  0  0  0  0  0  0  0  0  0
   16.4980    3.6464   32.2954 N   0  0  0  0  0  0  0  0  0  0  0  0
   15.7187    4.5378   33.0094 C   0  0  0  0  0  0  0  0  0  0  0  0
   14.3375    4.1478   33.2438 N   0  0  0  0  0  0  0  0  0  0  0  0
  2  1  1  1  0  0  0
  2  3  1  0  0  0  0
  2  5  1  0  0  0  0
  3  4  1  0  0  0  0
  3 17  1  0  0  0  0
  5  6  1  0  0  0  0
  7  6  1  6  0  0  0
  7  8  1  0  0  0  0
  7  9  1  0  0  0  0
 10  9  1  6  0  0  0
 10 11  1  0  0  0  0
 10 12  1  0  0  0  0
 11 16  1  0  0  0  0
 12 13  1  1  0  0  0
 12 14  1  0  0  0  0
 14 15  1  1  0  0  0
 14 16  1  0  0  0  0
 16 27  1  6  0  0  0
 18 19  2  0  0  0  0
 18 23  1  0  0  0  0
 19 20  1  0  0  0  0
 20 21  2  0  0  0  0
 21 22  1  0  0  0  0
 21 27  1  0  0  0  0
 22 23  2  0  0  0  0
 22 25  1  0  0  0  0
 23 24  1  0  0  0  0
 25 26  2  0  0  0  0
 26 27  1  0  0  0  0
M  END
>  <CHROM.1>
-37.54355393,-174.31900923,-139.22553007,160.76135554,-171.55011602,-67.81598842
-69.51375623,13.46073112,5.30927459,31.15546543,-2.78699676,-1.08063909,1.24488231

>  <Name>
ligand

>  <RI>
0

>  <Rbt.Current_Directory>
/home/itssahil/PROJECTS/Mol_Feturizer/Test_systems_manuscript/rnas/4aob

>  <Rbt.Executable>
rbdock ($Id: //depot/dev/client3/rdock/2013.1/src/exe/rbdock.cxx#4 $)

>  <Rbt.Library>
libRbt.so (2013.1, Build901 2013/11/27)

>  <Rbt.Parameter_File>
/export/apps/rDock/src/rDock_2013.1_src/data/scripts/dock_solv.prm

>  <Rbt.Receptor>
prm/pocket_docking_5.prm

>  <SCORE>
-11.0491

>  <SCORE.INTER>
-11.3082

>  <SCORE.INTER.CONST>
1

>  <SCORE.INTER.POLAR>
0

>  <SCORE.INTER.ROT>
7

>  <SCORE.INTER.SOLV>
15.1344

>  <SCORE.INTER.VDW>
-20.8503

>  <SCORE.INTER.norm>
-0.418822

>  <SCORE.INTRA>
0.259039

>  <SCORE.INTRA.DIHEDRAL>
2.58973

>  <SCORE.INTRA.DIHEDRAL.0>
6.31833

>  <SCORE.INTRA.POLAR>
0

>  <SCORE.INTRA.POLAR.0>
0

>  <SCORE.INTRA.REPUL>
0

>  <SCORE.INTRA.REPUL.0>
0

>  <SCORE.INTRA.SOLV>
-0.469998

>  <SCORE.INTRA.SOLV.lig_0>
-48.4015

>  <SCORE.INTRA.VDW>
-0.800825

>  <SCORE.INTRA.VDW.0>
-2.83256

>  <SCORE.INTRA.norm>
0.00959404

>  <SCORE.RESTR>
0

>  <SCORE.RESTR.CAVITY>
0

>  <SCORE.RESTR.norm>
0

>  <SCORE.SYSTEM>
0

>  <SCORE.SYSTEM.CONST>
0

>  <SCORE.SYSTEM.DIHEDRAL>
0

>  <SCORE.SYSTEM.SOLV>
0

>  <SCORE.SYSTEM.norm>
0

>  <SCORE.heavy>
27

>  <SCORE.norm>
-0.409228

>  <RMSD>
2.844

$$$$
ligand
 OpenBabel02271912153D
libRbt.so/2013.1/901 2013/11/27
 27 29  0  0  0  0  0  0  0  0999 V2000
   13.0444   10.3255   28.9099 N   0  0  0  0  0  0  0  0  0  0  0  0
   13.7248    9.0392   29.1944 C   0  0  2  0  0  0  0  0  0  0  0  0
   15.2227    9.2565   29.0230 C   0  0  0  0  0  0  0  0  0  0  0  0
   16.1023    9.2250   29.9465 O   0  0  0  0  0  0  0  0  0  0  0  0
   13.1576    7.9660   28.2625 C   0  0  0  0  0  0  0  0  0  0  0  0
   13.7490    6.5871   28.5234 C   0  0  0  0  0  0  0  0  0  0  0  0
   13.8878    5.8518   30.1957 S   0  0  2  0  0  0  0  0  0  0  0  0
   13.3747    4.1808   29.8016 C   0  0  0  0  0  0  0  0  0  0  0  0
   12.3977    6.5976   30.9303 C   0  0  0  0  0  0  0  0  0  0  0  0
   12.4287    6.5296   32.4324 C   0  0  1  0  0  0  0  0  0  0  0  0
   12.2376    5.1837   32.9313 O   0  0  0  0  0  0  0  0  0  0  0  0
   13.7051    7.0516   33.0517 C   0  0  1  0  0  0  0  0  0  0  0  0
   13.4873    8.3333   33.4545 O   0  0  0  0  0  0  0  0  0  0  0  0
   13.7695    6.1963   34.2954 C   0  0  1  0  0  0  0  0  0  0  0  0
   12.9638    6.8082   35.2020 O   0  0  0  0  0  0  0  0  0  0  0  0
   13.1609    4.8259   33.9241 C   0  0  2  0  0  0  0  0  0  0  0  0
   15.5995    9.5443   27.8857 O   0  0  0  0  0  0  0  0  0  0  0  0
   14.7755    0.6862   31.1981 N   0  0  0  0  0  0  0  0  0  0  0  0
   13.5020    1.0838   31.7278 C   0  0  0  0  0  0  0  0  0  0  0  0
   13.1894    2.2586   32.4558 N   0  0  0  0  0  0  0  0  0  0  0  0
   14.2164    2.9987   32.6019 C   0  0  0  0  0  0  0  0  0  0  0  0
   15.5686    2.6819   32.0904 C   0  0  0  0  0  0  0  0  0  0  0  0
   15.8246    1.5518   31.4187 C   0  0  0  0  0  0  0  0  0  0  0  0
   17.0742    1.3846   31.0373 N   0  0  0  0  0  0  0  0  0  0  0  0
   16.4666    3.5940   32.3770 N   0  0  0  0  0  0  0  0  0  0  0  0
   15.6709    4.4904   33.0665 C   0  0  0  0  0  0  0  0  0  0  0  0
   14.2678    4.1357   33.2080 N   0  0  0  0  0  0  0  0  0  0  0  0
  2  1  1  6  0  0  0
  2  3  1  0  0  0  0
  2  5  1  0  0  0  0
  3  4  1  0  0  0  0
  3 17  1  0  0  0  0
  5  6  1  0  0  0  0
  7  6  1  6  0  0  0
  7  8  1  0  0  0  0
  7  9  1  0  0  0  0
 10  9  1  6  0  0  0
 10 11  1  0  0  0  0
 10 12  1  0  0  0  0
 11 16  1  0  0  0  0
 12 13  1  1  0  0  0
 12 14  1  0  0  0  0
 14 15  1  1  0  0  0
 14 16  1  0  0  0  0
 16 27  1  6  0  0  0
 18 19  2  0  0  0  0
 18 23  1  0  0  0  0
 19 20  1  0  0  0  0
 20 21  2  0  0  0  0
 21 22  1  0  0  0  0
 21 27  1  0  0  0  0
 22 23  2  0  0  0  0
 22 25  1  0  0  0  0
 23 24  1  0  0  0  0
 25 26  2  0  0  0  0
 26 27  1  0  0  0  0
M  END
>  <CHROM.1>
112.65597108,-177.28032315,48.08058148,137.82154162,-162.75841190,-71.35183884
-67.29250178,14.13639003,5.60785730,31.37766549,-1.76258535,-1.14242793,2.55345539

>  <Name>
ligand

>  <RI>
0

>  <Rbt.Current_Directory>
/home/itssahil/PROJECTS/Mol_Feturizer/Test_systems_manuscript/rnas/4aob

>  <Rbt.Executable>
rbdock ($Id: //depot/dev/client3/rdock/2013.1/src/exe/rbdock.cxx#4 $)

>  <Rbt.Library>
libRbt.so (2013.1, Build901 2013/11/27)

>  <Rbt.Parameter_File>
/export/apps/rDock/src/rDock_2013.1_src/data/scripts/dock_solv.prm

>  <Rbt.Receptor>
prm/pocket_docking_3.prm

>  <SCORE>
-10.432

>  <SCORE.INTER>
-10.5123

>  <SCORE.INTER.CONST>
1

>  <SCORE.INTER.POLAR>
0

>  <SCORE.INTER.ROT>
7

>  <SCORE.INTER.SOLV>
20.2659

>  <SCORE.INTER.VDW>
-22.0302

>  <SCORE.INTER.norm>
-0.389344

>  <SCORE.INTRA>
0.0779798

>  <SCORE.INTRA.DIHEDRAL>
2.32634

>  <SCORE.INTRA.DIHEDRAL.0>
6.31833

>  <SCORE.INTRA.POLAR>
0

>  <SCORE.INTRA.POLAR.0>
0

>  <SCORE.INTRA.REPUL>
0

>  <SCORE.INTRA.REPUL.0>
0

>  <SCORE.INTRA.SOLV>
-0.0292501

>  <SCORE.INTRA.SOLV.lig_0>
-48.4015

>  <SCORE.INTRA.VDW>
-1.07056

>  <SCORE.INTRA.VDW.0>
-2.83256

>  <SCORE.INTRA.norm>
0.00288814

>  <SCORE.RESTR>
0.00227429

>  <SCORE.RESTR.CAVITY>
0.00227429

>  <SCORE.RESTR.norm>
8.42329e-05

>  <SCORE.SYSTEM>
0

>  <SCORE.SYSTEM.CONST>
0

>  <SCORE.SYSTEM.DIHEDRAL>
0

>  <SCORE.SYSTEM.SOLV>
0

>  <SCORE.SYSTEM.norm>
0

>  <SCORE.heavy>
27

>  <SCORE.norm>
-0.386372

>  <RMSD>
2.868

$$$$
ligand
 OpenBabel02271912153D
libRbt.so/2013.1/901 2013/11/27
 27 29  0  0  0  0  0  0  0  0999 V2000
   12.7284    8.4126   26.6101 N   0  0  0  0  0  0  0  0  0  0  0  0
   11.7230    7.6828   27.4193 C   0  0  2  0  0  0  0  0  0  0  0  0
   11.3954    8.5374   28.6369 C   0  0  0  0  0  0  0  0  0  0  0  0
   12.2236    9.2183   29.3283 O   0  0  0  0  0  0  0  0  0  0  0  0
   12.2862    6.3061   27.7790 C   0  0  0  0  0  0  0  0  0  0  0  0
   13.5990    6.3889   28.5462 C   0  0  0  0  0  0  0  0  0  0  0  0
   13.8081    5.7584   30.2537 S   0  0  2  0  0  0  0  0  0  0  0  0
   13.2043    4.0901   30.0034 C   0  0  0  0  0  0  0  0  0  0  0  0
   12.3966    6.6164   31.0204 C   0  0  0  0  0  0  0  0  0  0  0  0
   12.4327    6.5090   32.5201 C   0  0  1  0  0  0  0  0  0  0  0  0
   12.2486    5.1496   32.9839 O   0  0  0  0  0  0  0  0  0  0  0  0
   13.7091    7.0195   33.1488 C   0  0  1  0  0  0  0  0  0  0  0  0
   13.4876    8.2893   33.5859 O   0  0  0  0  0  0  0  0  0  0  0  0
   13.7809    6.1321   34.3693 C   0  0  1  0  0  0  0  0  0  0  0  0
   12.9758    6.7166   35.2943 O   0  0  0  0  0  0  0  0  0  0  0  0
   13.1765    4.7695   33.9639 C   0  0  2  0  0  0  0  0  0  0  0  0
   10.2218    8.5152   29.0118 O   0  0  0  0  0  0  0  0  0  0  0  0
   14.8213    0.6715   31.1934 N   0  0  0  0  0  0  0  0  0  0  0  0
   13.5497    1.0432   31.7462 C   0  0  0  0  0  0  0  0  0  0  0  0
   13.2278    2.2091   32.4843 N   0  0  0  0  0  0  0  0  0  0  0  0
   14.2432    2.9676   32.6164 C   0  0  0  0  0  0  0  0  0  0  0  0
   15.5922    2.6780   32.0809 C   0  0  0  0  0  0  0  0  0  0  0  0
   15.8577    1.5555   31.4001 C   0  0  0  0  0  0  0  0  0  0  0  0
   17.1036    1.4131   30.9969 N   0  0  0  0  0  0  0  0  0  0  0  0
   16.4779    3.6055   32.3562 N   0  0  0  0  0  0  0  0  0  0  0  0
   15.6775    4.4841   33.0629 C   0  0  0  0  0  0  0  0  0  0  0  0
   14.2838    4.1028   33.2264 N   0  0  0  0  0  0  0  0  0  0  0  0
  2  1  1  6  0  0  0
  2  3  1  0  0  0  0
  2  5  1  0  0  0  0
  3  4  1  0  0  0  0
  3 17  1  0  0  0  0
  5  6  1  0  0  0  0
  7  6  1  6  0  0  0
  7  8  1  0  0  0  0
  7  9  1  0  0  0  0
 10  9  1  6  0  0  0
 10 11  1  0  0  0  0
 10 12  1  0  0  0  0
 11 16  1  0  0  0  0
 12 13  1  1  0  0  0
 12 14  1  0  0  0  0
 14 15  1  1  0  0  0
 14 16  1  0  0  0  0
 16 27  1  6  0  0  0
 18 19  2  0  0  0  0
 18 23  1  0  0  0  0
 19 20  1  0  0  0  0
 20 21  2  0  0  0  0
 21 22  1  0  0  0  0
 21 27  1  0  0  0  0
 22 23  2  0  0  0  0
 22 25  1  0  0  0  0
 23 24  1  0  0  0  0
 25 26  2  0  0  0  0
 26 27  1  0  0  0  0
M  END
>  <CHROM.1>
-39.84098441,58.15289977,117.69692653,53.19654138,-169.27179686,-65.97025495
-69.00295228,13.52272363,5.33498081,31.26473815,-2.77554568,-1.10423180,1.39901331

>  <Name>
ligand

>  <RI>
0

>  <Rbt.Current_Directory>
/home/itssahil/PROJECTS/Mol_Feturizer/Test_systems_manuscript/rnas/4aob

>  <Rbt.Executable>
rbdock ($Id: //depot/dev/client3/rdock/2013.1/src/exe/rbdock.cxx#4 $)

>  <Rbt.Library>
libRbt.so (2013.1, Build901 2013/11/27)

>  <Rbt.Parameter_File>
/export/apps/rDock/src/rDock_2013.1_src/data/scripts/dock_solv.prm

>  <Rbt.Receptor>
prm/pocket_docking_4.prm

>  <SCORE>
-11.1523

>  <SCORE.INTER>
-12.1508

>  <SCORE.INTER.CONST>
1

>  <SCORE.INTER.POLAR>
0

>  <SCORE.INTER.ROT>
7

>  <SCORE.INTER.SOLV>
14.8413

>  <SCORE.INTER.VDW>
-21.3143

>  <SCORE.INTER.norm>
-0.450031

>  <SCORE.INTRA>
0.99854

>  <SCORE.INTRA.DIHEDRAL>
3.44572

>  <SCORE.INTRA.DIHEDRAL.0>
6.31833

>  <SCORE.INTRA.POLAR>
0

>  <SCORE.INTRA.POLAR.0>
0

>  <SCORE.INTRA.REPUL>
0

>  <SCORE.INTRA.REPUL.0>
0

>  <SCORE.INTRA.SOLV>
0.210062

>  <SCORE.INTRA.SOLV.lig_0>
-48.4015

>  <SCORE.INTRA.VDW>
-0.829352

>  <SCORE.INTRA.VDW.0>
-2.83256

>  <SCORE.INTRA.norm>
0.036983

>  <SCORE.RESTR>
0

>  <SCORE.RESTR.CAVITY>
0

>  <SCORE.RESTR.norm>
0

>  <SCORE.SYSTEM>
0

>  <SCORE.SYSTEM.CONST>
0

>  <SCORE.SYSTEM.DIHEDRAL>
0

>  <SCORE.SYSTEM.SOLV>
0

>  <SCORE.SYSTEM.norm>
0

>  <SCORE.heavy>
27

>  <SCORE.norm>
-0.413048

>  <RMSD>
2.884

$$$$
ligand
 OpenBabel02271912153D
libRbt.so/2013.1/901 2013/11/27
 27 29  0  0  0  0  0  0  0  0999 V2000
   15.1085    9.1391   30.3792 N   0  0  0  0  0  0  0  0  0  0  0  0
   15.1249    9.2433   28.9003 C   0  0  2  0  0  0  0  0  0  0  0  0
   13.7480    9.7153   28.4512 C   0  0  0  0  0  0  0  0  0  0  0  0
   12.6930    9.7604   29.1670 O   0  0  0  0  0  0  0  0  0  0  0  0
   15.5205    7.8856   28.3158 C   0  0  0  0  0  0  0  0  0  0  0  0
   14.4935    6.7986   28.6034 C   0  0  0  0  0  0  0  0  0  0  0  0
   14.2338    6.0742   30.2661 S   0  0  2  0  0  0  0  0  0  0  0  0
   13.2458    4.6560   29.7936 C   0  0  0  0  0  0  0  0  0  0  0  0
   13.0049    7.2698   30.8796 C   0  0  0  0  0  0  0  0  0  0  0  0
   12.6949    7.0466   32.3343 C   0  0  1  0  0  0  0  0  0  0  0  0
   12.2192    5.7051   32.6010 O   0  0  0  0  0  0  0  0  0  0  0  0
   13.8619    7.2927   33.2630 C   0  0  1  0  0  0  0  0  0  0  0  0
   13.7354    8.5455   33.7796 O   0  0  0  0  0  0  0  0  0  0  0  0
   13.5352    6.3171   34.3693 C   0  0  1  0  0  0  0  0  0  0  0  0
   12.6395    6.9553   35.1668 O   0  0  0  0  0  0  0  0  0  0  0  0
   12.8445    5.1061   33.7039 C   0  0  2  0  0  0  0  0  0  0  0  0
   13.6458   10.0287   27.2639 O   0  0  0  0  0  0  0  0  0  0  0  0
   14.4784    0.8082   31.2478 N   0  0  0  0  0  0  0  0  0  0  0  0
   13.1812    1.3073   31.6066 C   0  0  0  0  0  0  0  0  0  0  0  0
   12.8674    2.5156   32.2770 N   0  0  0  0  0  0  0  0  0  0  0  0
   13.9198    3.1819   32.5456 C   0  0  0  0  0  0  0  0  0  0  0  0
   15.2986    2.7580   32.2141 C   0  0  0  0  0  0  0  0  0  0  0  0
   15.5527    1.5995   31.5919 C   0  0  0  0  0  0  0  0  0  0  0  0
   16.8245    1.3346   31.3747 N   0  0  0  0  0  0  0  0  0  0  0  0
   16.2185    3.6079   32.6038 N   0  0  0  0  0  0  0  0  0  0  0  0
   15.4109    4.5728   33.1772 C   0  0  0  0  0  0  0  0  0  0  0  0
   13.9786    4.3236   33.1419 N   0  0  0  0  0  0  0  0  0  0  0  0
  2  1  1  1  0  0  0
  2  3  1  0  0  0  0
  2  5  1  0  0  0  0
  3  4  1  0  0  0  0
  3 17  1  0  0  0  0
  5  6  1  0  0  0  0
  7  6  1  6  0  0  0
  7  8  1  0  0  0  0
  7  9  1  0  0  0  0
 10  9  1  6  0  0  0
 10 11  1  0  0  0  0
 10 12  1  0  0  0  0
 11 16  1  0  0  0  0
 12 13  1  1  0  0  0
 12 14  1  0  0  0  0
 14 15  1  1  0  0  0
 14 16  1  0  0  0  0
 16 27  1  6  0  0  0
 18 19  2  0  0  0  0
 18 23  1  0  0  0  0
 19 20  1  0  0  0  0
 20 21  2  0  0  0  0
 21 22  1  0  0  0  0
 21 27  1  0  0  0  0
 22 23  2  0  0  0  0
 22 25  1  0  0  0  0
 23 24  1  0  0  0  0
 25 26  2  0  0  0  0
 26 27  1  0  0  0  0
M  END
>  <CHROM.1>
-12.73014208,64.90242104,-71.46910087,-166.63923548,-172.88722809,-57.19565227
-77.36342565,14.04664517,5.80609809,31.37155491,1.80472360,1.19506179,-0.65897523

>  <Name>
ligand

>  <RI>
0

>  <Rbt.Current_Directory>
/home/itssahil/PROJECTS/Mol_Feturizer/Test_systems_manuscript/rnas/4aob

>  <Rbt.Executable>
rbdock ($Id: //depot/dev/client3/rdock/2013.1/src/exe/rbdock.cxx#4 $)

>  <Rbt.Library>
libRbt.so (2013.1, Build901 2013/11/27)

>  <Rbt.Parameter_File>
/export/apps/rDock/src/rDock_2013.1_src/data/scripts/dock_solv.prm

>  <Rbt.Receptor>
prm/pocket_docking_4.prm

>  <SCORE>
-11.711

>  <SCORE.INTER>
-11.8031

>  <SCORE.INTER.CONST>
1

>  <SCORE.INTER.POLAR>
0

>  <SCORE.INTER.ROT>
7

>  <SCORE.INTER.SOLV>
17.729

>  <SCORE.INTER.VDW>
-22.045

>  <SCORE.INTER.norm>
-0.437151

>  <SCORE.INTRA>
0.0920377

>  <SCORE.INTRA.DIHEDRAL>
-0.65468

>  <SCORE.INTRA.DIHEDRAL.0>
6.31833

>  <SCORE.INTRA.POLAR>
0

>  <SCORE.INTRA.POLAR.0>
0

>  <SCORE.INTRA.REPUL>
0

>  <SCORE.INTRA.REPUL.0>
0

>  <SCORE.INTRA.SOLV>
3.96147

>  <SCORE.INTRA.SOLV.lig_0>
-48.4015

>  <SCORE.INTRA.VDW>
-1.56136

>  <SCORE.INTRA.VDW.0>
-2.83256

>  <SCORE.INTRA.norm>
0.00340881

>  <SCORE.RESTR>
0

>  <SCORE.RESTR.CAVITY>
0

>  <SCORE.RESTR.norm>
0

>  <SCORE.SYSTEM>
0

>  <SCORE.SYSTEM.CONST>
0

>  <SCORE.SYSTEM.DIHEDRAL>
0

>  <SCORE.SYSTEM.SOLV>
0

>  <SCORE.SYSTEM.norm>
0

>  <SCORE.heavy>
27

>  <SCORE.norm>
-0.433742

>  <RMSD>
2.920

$$$$
ligand
 OpenBabel02271912153D
libRbt.so/2013.1/901 2013/11/27
 27 29  0  0  0  0  0  0  0  0999 V2000
   13.7772    6.0759   27.2548 N   0  0  0  0  0  0  0  0  0  0  0  0
   14.3234    5.4989   28.5066 C   0  0  2  0  0  0  0  0  0  0  0  0
   13.2190    4.6806   29.1631 C   0  0  0  0  0  0  0  0  0  0  0  0
   13.2301    3.4214   29.3677 O   0  0  0  0  0  0  0  0  0  0  0  0
   14.8399    6.6376   29.3889 C   0  0  0  0  0  0  0  0  0  0  0  0
   16.0432    7.3503   28.7862 C   0  0  0  0  0  0  0  0  0  0  0  0
   17.0940    8.5207   29.7257 S   0  0  2  0  0  0  0  0  0  0  0  0
   18.3921    8.7545   28.5129 C   0  0  0  0  0  0  0  0  0  0  0  0
   17.8141    7.3329   30.9034 C   0  0  0  0  0  0  0  0  0  0  0  0
   17.2122    7.4794   32.2738 C   0  0  1  0  0  0  0  0  0  0  0  0
   15.7829    7.2470   32.2801 O   0  0  0  0  0  0  0  0  0  0  0  0
   17.8116    6.5638   33.3166 C   0  0  1  0  0  0  0  0  0  0  0  0
   18.7369    7.2716   34.0204 O   0  0  0  0  0  0  0  0  0  0  0  0
   16.6168    6.3668   34.2199 C   0  0  1  0  0  0  0  0  0  0  0  0
   16.5964    7.4493   35.0405 O   0  0  0  0  0  0  0  0  0  0  0  0
   15.3657    6.3971   33.3144 C   0  0  2  0  0  0  0  0  0  0  0  0
   12.1991    5.2998   29.4712 O   0  0  0  0  0  0  0  0  0  0  0  0
   13.0446    1.7377   33.0358 N   0  0  0  0  0  0  0  0  0  0  0  0
   12.7391    2.9524   33.7372 C   0  0  0  0  0  0  0  0  0  0  0  0
   13.4593    4.1726   33.7208 N   0  0  0  0  0  0  0  0  0  0  0  0
   14.4779    4.0979   32.9589 C   0  0  0  0  0  0  0  0  0  0  0  0
   14.8748    2.8969   32.1905 C   0  0  0  0  0  0  0  0  0  0  0  0
   14.1732    1.7573   32.2456 C   0  0  0  0  0  0  0  0  0  0  0  0
   14.6473    0.7592   31.5287 N   0  0  0  0  0  0  0  0  0  0  0  0
   15.9690    3.0607   31.4860 N   0  0  0  0  0  0  0  0  0  0  0  0
   16.2558    4.3740   31.8101 C   0  0  0  0  0  0  0  0  0  0  0  0
   15.3327    5.0333   32.7200 N   0  0  0  0  0  0  0  0  0  0  0  0
  2  1  1  6  0  0  0
  2  3  1  0  0  0  0
  2  5  1  0  0  0  0
  3  4  1  0  0  0  0
  3 17  1  0  0  0  0
  5  6  1  0  0  0  0
  7  6  1  6  0  0  0
  7  8  1  0  0  0  0
  7  9  1  0  0  0  0
 10  9  1  6  0  0  0
 10 11  1  0  0  0  0
 10 12  1  0  0  0  0
 11 16  1  0  0  0  0
 12 13  1  1  0  0  0
 12 14  1  0  0  0  0
 14 15  1  1  0  0  0
 14 16  1  0  0  0  0
 16 27  1  6  0  0  0
 18 19  2  0  0  0  0
 18 23  1  0  0  0  0
 19 20  1  0  0  0  0
 20 21  2  0  0  0  0
 21 22  1  0  0  0  0
 21 27  1  0  0  0  0
 22 23  2  0  0  0  0
 22 25  1  0  0  0  0
 23 24  1  0  0  0  0
 25 26  2  0  0  0  0
 26 27  1  0  0  0  0
M  END
>  <CHROM.1>
116.43790847,-66.40128999,-167.42303876,172.02636237,-105.61474353,60.44117518
-142.90045344,15.44354636,5.52467050,31.41436810,0.51144945,-0.85504983,-1.11789788

>  <Name>
ligand

>  <RI>
0

>  <Rbt.Current_Directory>
/home/itssahil/PROJECTS/Mol_Feturizer/Test_systems_manuscript/rnas/4aob

>  <Rbt.Executable>
rbdock ($Id: //depot/dev/client3/rdock/2013.1/src/exe/rbdock.cxx#4 $)

>  <Rbt.Library>
libRbt.so (2013.1, Build901 2013/11/27)

>  <Rbt.Parameter_File>
/export/apps/rDock/src/rDock_2013.1_src/data/scripts/dock_solv.prm

>  <Rbt.Receptor>
prm/pocket_docking_6.prm

>  <SCORE>
-10.0978

>  <SCORE.INTER>
-8.29773

>  <SCORE.INTER.CONST>
1

>  <SCORE.INTER.POLAR>
0

>  <SCORE.INTER.ROT>
7

>  <SCORE.INTER.SOLV>
13.8042

>  <SCORE.INTER.VDW>
-18.3999

>  <SCORE.INTER.norm>
-0.307323

>  <SCORE.INTRA>
-1.80005

>  <SCORE.INTRA.DIHEDRAL>
0.212797

>  <SCORE.INTRA.DIHEDRAL.0>
6.31833

>  <SCORE.INTRA.POLAR>
0

>  <SCORE.INTRA.POLAR.0>
0

>  <SCORE.INTRA.REPUL>
0

>  <SCORE.INTRA.REPUL.0>
0

>  <SCORE.INTRA.SOLV>
0.292163

>  <SCORE.INTRA.SOLV.lig_0>
-48.4015

>  <SCORE.INTRA.VDW>
-2.05253

>  <SCORE.INTRA.VDW.0>
-2.83256

>  <SCORE.INTRA.norm>
-0.0666684

>  <SCORE.RESTR>
0

>  <SCORE.RESTR.CAVITY>
0

>  <SCORE.RESTR.norm>
0

>  <SCORE.SYSTEM>
0

>  <SCORE.SYSTEM.CONST>
0

>  <SCORE.SYSTEM.DIHEDRAL>
0

>  <SCORE.SYSTEM.SOLV>
0

>  <SCORE.SYSTEM.norm>
0

>  <SCORE.heavy>
27

>  <SCORE.norm>
-0.373992

>  <RMSD>
2.928

$$$$
ligand
 OpenBabel02271912153D
libRbt.so/2013.1/901 2013/11/27
 27 29  0  0  0  0  0  0  0  0999 V2000
   14.0527    4.9176   28.6119 N   0  0  0  0  0  0  0  0  0  0  0  0
   13.9344    6.1251   29.4642 C   0  0  2  0  0  0  0  0  0  0  0  0
   12.6165    6.0329   30.2224 C   0  0  0  0  0  0  0  0  0  0  0  0
   11.4623    5.8433   29.7131 O   0  0  0  0  0  0  0  0  0  0  0  0
   14.0368    7.3666   28.5755 C   0  0  0  0  0  0  0  0  0  0  0  0
   14.4049    8.6212   29.3564 C   0  0  0  0  0  0  0  0  0  0  0  0
   16.1321    9.0979   29.7387 S   0  0  2  0  0  0  0  0  0  0  0  0
   16.8448    8.8662   28.1112 C   0  0  0  0  0  0  0  0  0  0  0  0
   16.6214    7.5936   30.6409 C   0  0  0  0  0  0  0  0  0  0  0  0
   16.3560    7.7226   32.1157 C   0  0  1  0  0  0  0  0  0  0  0  0
   15.0034    7.3471   32.4712 O   0  0  0  0  0  0  0  0  0  0  0  0
   17.2829    6.9065   32.9874 C   0  0  1  0  0  0  0  0  0  0  0  0
   18.2703    7.7266   33.4399 O   0  0  0  0  0  0  0  0  0  0  0  0
   16.3691    6.6190   34.1556 C   0  0  1  0  0  0  0  0  0  0  0  0
   16.4329    7.7198   34.9491 O   0  0  0  0  0  0  0  0  0  0  0  0
   14.9405    6.4933   33.5817 C   0  0  2  0  0  0  0  0  0  0  0  0
   12.6802    6.2164   31.4392 O   0  0  0  0  0  0  0  0  0  0  0  0
   12.6601    1.8071   33.4640 N   0  0  0  0  0  0  0  0  0  0  0  0
   12.3560    3.0362   34.1403 C   0  0  0  0  0  0  0  0  0  0  0  0
   13.0638    4.2622   34.0797 N   0  0  0  0  0  0  0  0  0  0  0  0
   14.0687    4.1777   33.3008 C   0  0  0  0  0  0  0  0  0  0  0  0
   14.4629    2.9614   32.5553 C   0  0  0  0  0  0  0  0  0  0  0  0
   13.7735    1.8172   32.6523 C   0  0  0  0  0  0  0  0  0  0  0  0
   14.2438    0.8057   31.9519 N   0  0  0  0  0  0  0  0  0  0  0  0
   15.5421    3.1175   31.8264 N   0  0  0  0  0  0  0  0  0  0  0  0
   15.8220    4.4412   32.1120 C   0  0  0  0  0  0  0  0  0  0  0  0
   14.9098    5.1147   33.0224 N   0  0  0  0  0  0  0  0  0  0  0  0
  2  1  1  6  0  0  0
  2  3  1  0  0  0  0
  2  5  1  0  0  0  0
  3  4  1  0  0  0  0
  3 17  1  0  0  0  0
  5  6  1  0  0  0  0
  7  6  1  6  0  0  0
  7  8  1  0  0  0  0
  7  9  1  0  0  0  0
 10  9  1  6  0  0  0
 10 11  1  0  0  0  0
 10 12  1  0  0  0  0
 11 16  1  0  0  0  0
 12 13  1  1  0  0  0
 12 14  1  0  0  0  0
 14 15  1  1  0  0  0
 14 16  1  0  0  0  0
 16 27  1  6  0  0  0
 18 19  2  0  0  0  0
 18 23  1  0  0  0  0
 19 20  1  0  0  0  0
 20 21  2  0  0  0  0
 21 22  1  0  0  0  0
 21 27  1  0  0  0  0
 22 23  2  0  0  0  0
 22 25  1  0  0  0  0
 23 24  1  0  0  0  0
 25 26  2  0  0  0  0
 26 27  1  0  0  0  0
M  END
>  <CHROM.1>
-53.14442876,-160.28133325,85.57358426,47.36657349,-90.52757640,86.25540017
-128.81872979,14.83797071,5.90361856,31.68309383,1.00036260,-0.81361715,-0.89008958

>  <Name>
ligand

>  <RI>
0

>  <Rbt.Current_Directory>
/home/itssahil/PROJECTS/Mol_Feturizer/Test_systems_manuscript/rnas/4aob

>  <Rbt.Executable>
rbdock ($Id: //depot/dev/client3/rdock/2013.1/src/exe/rbdock.cxx#4 $)

>  <Rbt.Library>
libRbt.so (2013.1, Build901 2013/11/27)

>  <Rbt.Parameter_File>
/export/apps/rDock/src/rDock_2013.1_src/data/scripts/dock_solv.prm

>  <Rbt.Receptor>
prm/pocket_docking_7.prm

>  <SCORE>
-10.3878

>  <SCORE.INTER>
-9.9863

>  <SCORE.INTER.CONST>
1

>  <SCORE.INTER.POLAR>
0

>  <SCORE.INTER.ROT>
7

>  <SCORE.INTER.SOLV>
14.2498

>  <SCORE.INTER.VDW>
-19.6742

>  <SCORE.INTER.norm>
-0.369863

>  <SCORE.INTRA>
-0.401509

>  <SCORE.INTRA.DIHEDRAL>
3.61616

>  <SCORE.INTRA.DIHEDRAL.0>
6.31833

>  <SCORE.INTRA.POLAR>
0

>  <SCORE.INTRA.POLAR.0>
0

>  <SCORE.INTRA.REPUL>
0

>  <SCORE.INTRA.REPUL.0>
0

>  <SCORE.INTRA.SOLV>
-0.0561121

>  <SCORE.INTRA.SOLV.lig_0>
-48.4015

>  <SCORE.INTRA.VDW>
-2.18153

>  <SCORE.INTRA.VDW.0>
-2.83256

>  <SCORE.INTRA.norm>
-0.0148707

>  <SCORE.RESTR>
0

>  <SCORE.RESTR.CAVITY>
0

>  <SCORE.RESTR.norm>
0

>  <SCORE.SYSTEM>
0

>  <SCORE.SYSTEM.CONST>
0

>  <SCORE.SYSTEM.DIHEDRAL>
0

>  <SCORE.SYSTEM.SOLV>
0

>  <SCORE.SYSTEM.norm>
0

>  <SCORE.heavy>
27

>  <SCORE.norm>
-0.384734

>  <RMSD>
2.933

$$$$
ligand
 OpenBabel02271912153D
libRbt.so/2013.1/901 2013/11/27
 27 29  0  0  0  0  0  0  0  0999 V2000
   14.0640    8.6050   25.5209 N   0  0  0  0  0  0  0  0  0  0  0  0
   13.6637    8.8153   26.9330 C   0  0  2  0  0  0  0  0  0  0  0  0
   12.6685    9.9680   26.9684 C   0  0  0  0  0  0  0  0  0  0  0  0
   12.2313   10.5584   28.0114 O   0  0  0  0  0  0  0  0  0  0  0  0
   14.9201    9.0737   27.7673 C   0  0  0  0  0  0  0  0  0  0  0  0
   14.6323    9.1375   29.2614 C   0  0  0  0  0  0  0  0  0  0  0  0
   13.7324    7.8253   30.1696 S   0  0  2  0  0  0  0  0  0  0  0  0
   12.1428    8.6388   30.3186 C   0  0  0  0  0  0  0  0  0  0  0  0
   14.4968    8.0717   31.8040 C   0  0  0  0  0  0  0  0  0  0  0  0
   13.6184    7.5529   32.9090 C   0  0  1  0  0  0  0  0  0  0  0  0
   12.8265    6.4118   32.4993 O   0  0  0  0  0  0  0  0  0  0  0  0
   14.3665    7.1442   34.1573 C   0  0  1  0  0  0  0  0  0  0  0  0
   14.2981    8.1713   35.0477 O   0  0  0  0  0  0  0  0  0  0  0  0
   13.4599    6.0485   34.6672 C   0  0  1  0  0  0  0  0  0  0  0  0
   12.4700    6.6810   35.3494 O   0  0  0  0  0  0  0  0  0  0  0  0
   12.8547    5.3586   33.4247 C   0  0  2  0  0  0  0  0  0  0  0  0
   12.2077   10.3165   25.8800 O   0  0  0  0  0  0  0  0  0  0  0  0
   14.2251    0.8148   31.2683 N   0  0  0  0  0  0  0  0  0  0  0  0
   12.9605    1.4417   31.5301 C   0  0  0  0  0  0  0  0  0  0  0  0
   12.7210    2.7055   32.1244 N   0  0  0  0  0  0  0  0  0  0  0  0
   13.8132    3.2917   32.4199 C   0  0  0  0  0  0  0  0  0  0  0  0
   15.1641    2.7340   32.1864 C   0  0  0  0  0  0  0  0  0  0  0  0
   15.3461    1.5273   31.6344 C   0  0  0  0  0  0  0  0  0  0  0  0
   16.5990    1.1430   31.5014 N   0  0  0  0  0  0  0  0  0  0  0  0
   16.1345    3.5205   32.5866 N   0  0  0  0  0  0  0  0  0  0  0  0
   15.3873    4.5797   33.0679 C   0  0  0  0  0  0  0  0  0  0  0  0
   13.9423    4.4534   32.9643 N   0  0  0  0  0  0  0  0  0  0  0  0
  2  1  1  6  0  0  0
  2  3  1  0  0  0  0
  2  5  1  0  0  0  0
  3  4  1  0  0  0  0
  3 17  1  0  0  0  0
  5  6  1  0  0  0  0
  7  6  1  6  0  0  0
  7  8  1  0  0  0  0
  7  9  1  0  0  0  0
 10  9  1  6  0  0  0
 10 11  1  0  0  0  0
 10 12  1  0  0  0  0
 11 16  1  0  0  0  0
 12 13  1  1  0  0  0
 12 14  1  0  0  0  0
 14 15  1  1  0  0  0
 14 16  1  0  0  0  0
 16 27  1  6  0  0  0
 18 19  2  0  0  0  0
 18 23  1  0  0  0  0
 19 20  1  0  0  0  0
 20 21  2  0  0  0  0
 21 22  1  0  0  0  0
 21 27  1  0  0  0  0
 22 23  2  0  0  0  0
 22 25  1  0  0  0  0
 23 24  1  0  0  0  0
 25 26  2  0  0  0  0
 26 27  1  0  0  0  0
M  END
>  <CHROM.1>
-170.19842287,-173.13953945,52.75912458,-102.93744342,156.78739309,31.67809858
-107.77468883,13.84113505,6.29792118,31.11995436,-2.22338461,-1.33437589
1.81152136

>  <Name>
ligand

>  <RI>
0

>  <Rbt.Current_Directory>
/home/itssahil/PROJECTS/Mol_Feturizer/Test_systems_manuscript/rnas/4aob

>  <Rbt.Executable>
rbdock ($Id: //depot/dev/client3/rdock/2013.1/src/exe/rbdock.cxx#4 $)

>  <Rbt.Library>
libRbt.so (2013.1, Build901 2013/11/27)

>  <Rbt.Parameter_File>
/export/apps/rDock/src/rDock_2013.1_src/data/scripts/dock_solv.prm

>  <Rbt.Receptor>
prm/pocket_docking_5.prm

>  <SCORE>
-12.5956

>  <SCORE.INTER>
-14.9041

>  <SCORE.INTER.CONST>
1

>  <SCORE.INTER.POLAR>
0

>  <SCORE.INTER.ROT>
7

>  <SCORE.INTER.SOLV>
14.337

>  <SCORE.INTER.VDW>
-22.9818

>  <SCORE.INTER.norm>
-0.552005

>  <SCORE.INTRA>
2.30851

>  <SCORE.INTRA.DIHEDRAL>
2.98882

>  <SCORE.INTRA.DIHEDRAL.0>
6.31833

>  <SCORE.INTRA.POLAR>
0

>  <SCORE.INTRA.POLAR.0>
0

>  <SCORE.INTRA.REPUL>
0

>  <SCORE.INTRA.REPUL.0>
0

>  <SCORE.INTRA.SOLV>
-0.562441

>  <SCORE.INTRA.SOLV.lig_0>
-48.4015

>  <SCORE.INTRA.VDW>
1.09532

>  <SCORE.INTRA.VDW.0>
-2.83256

>  <SCORE.INTRA.norm>
0.0855004

>  <SCORE.RESTR>
0

>  <SCORE.RESTR.CAVITY>
0

>  <SCORE.RESTR.norm>
0

>  <SCORE.SYSTEM>
0

>  <SCORE.SYSTEM.CONST>
0

>  <SCORE.SYSTEM.DIHEDRAL>
0

>  <SCORE.SYSTEM.SOLV>
0

>  <SCORE.SYSTEM.norm>
0

>  <SCORE.heavy>
27

>  <SCORE.norm>
-0.466505

>  <RMSD>
2.937

$$$$
ligand
 OpenBabel02271912153D
libRbt.so/2013.1/901 2013/11/27
 27 29  0  0  0  0  0  0  0  0999 V2000
   15.0864    9.0354   30.4029 N   0  0  0  0  0  0  0  0  0  0  0  0
   14.9574    9.2127   28.9365 C   0  0  2  0  0  0  0  0  0  0  0  0
   13.5536    9.7309   28.6516 C   0  0  0  0  0  0  0  0  0  0  0  0
   12.5781    9.7638   29.4730 O   0  0  0  0  0  0  0  0  0  0  0  0
   15.2618    7.8790   28.2509 C   0  0  0  0  0  0  0  0  0  0  0  0
   14.2533    6.7930   28.6010 C   0  0  0  0  0  0  0  0  0  0  0  0
   14.1111    6.0523   30.2706 S   0  0  2  0  0  0  0  0  0  0  0  0
   13.2263    4.5576   29.8306 C   0  0  0  0  0  0  0  0  0  0  0  0
   12.8106    7.1445   30.9279 C   0  0  0  0  0  0  0  0  0  0  0  0
   12.6303    6.9599   32.4095 C   0  0  1  0  0  0  0  0  0  0  0  0
   12.2607    5.6041   32.7591 O   0  0  0  0  0  0  0  0  0  0  0  0
   13.8494    7.3097   33.2320 C   0  0  1  0  0  0  0  0  0  0  0  0
   13.6870    8.5720   33.7145 O   0  0  0  0  0  0  0  0  0  0  0  0
   13.6714    6.3601   34.3935 C   0  0  1  0  0  0  0  0  0  0  0  0
   12.8036    6.9750   35.2387 O   0  0  0  0  0  0  0  0  0  0  0  0
   13.0064    5.0859   33.8275 C   0  0  2  0  0  0  0  0  0  0  0  0
   13.3389   10.0995   27.4956 O   0  0  0  0  0  0  0  0  0  0  0  0
   14.6755    0.8605   31.2712 N   0  0  0  0  0  0  0  0  0  0  0  0
   13.3807    1.3068   31.7011 C   0  0  0  0  0  0  0  0  0  0  0  0
   13.0556    2.5006   32.3918 N   0  0  0  0  0  0  0  0  0  0  0  0
   14.0936    3.2080   32.6059 C   0  0  0  0  0  0  0  0  0  0  0  0
   15.4683    2.8400   32.1992 C   0  0  0  0  0  0  0  0  0  0  0  0
   15.7344    1.6935   31.5600 C   0  0  0  0  0  0  0  0  0  0  0  0
   17.0023    1.4800   31.2738 N   0  0  0  0  0  0  0  0  0  0  0  0
   16.3732    3.7253   32.5421 N   0  0  0  0  0  0  0  0  0  0  0  0
   15.5599    4.6563   33.1616 C   0  0  0  0  0  0  0  0  0  0  0  0
   14.1389    4.3502   33.2024 N   0  0  0  0  0  0  0  0  0  0  0  0
  2  1  1  1  0  0  0
  2  3  1  0  0  0  0
  2  5  1  0  0  0  0
  3  4  1  0  0  0  0
  3 17  1  0  0  0  0
  5  6  1  0  0  0  0
  7  6  1  6  0  0  0
  7  8  1  0  0  0  0
  7  9  1  0  0  0  0
 10  9  1  6  0  0  0
 10 11  1  0  0  0  0
 10 12  1  0  0  0  0
 11 16  1  0  0  0  0
 12 13  1  1  0  0  0
 12 14  1  0  0  0  0
 14 15  1  1  0  0  0
 14 16  1  0  0  0  0
 16 27  1  6  0  0  0
 18 19  2  0  0  0  0
 18 23  1  0  0  0  0
 19 20  1  0  0  0  0
 20 21  2  0  0  0  0
 21 22  1  0  0  0  0
 21 27  1  0  0  0  0
 22 23  2  0  0  0  0
 22 25  1  0  0  0  0
 23 24  1  0  0  0  0
 25 26  2  0  0  0  0
 26 27  1  0  0  0  0
M  END
>  <CHROM.1>
-12.43898570,64.24873751,-68.39449875,-161.23096223,-169.30692297,-59.72492116
-74.43848129,14.05344703,5.81103104,31.42023165,-1.95630114,-1.19422731,2.35865521

>  <Name>
ligand

>  <RI>
0

>  <Rbt.Current_Directory>
/home/itssahil/PROJECTS/Mol_Feturizer/Test_systems_manuscript/rnas/4aob

>  <Rbt.Executable>
rbdock ($Id: //depot/dev/client3/rdock/2013.1/src/exe/rbdock.cxx#4 $)

>  <Rbt.Library>
libRbt.so (2013.1, Build901 2013/11/27)

>  <Rbt.Parameter_File>
/export/apps/rDock/src/rDock_2013.1_src/data/scripts/dock_solv.prm

>  <Rbt.Receptor>
prm/pocket_docking_3.prm

>  <SCORE>
-11.8693

>  <SCORE.INTER>
-11.857

>  <SCORE.INTER.CONST>
1

>  <SCORE.INTER.POLAR>
0

>  <SCORE.INTER.ROT>
7

>  <SCORE.INTER.SOLV>
17.3186

>  <SCORE.INTER.VDW>
-21.9442

>  <SCORE.INTER.norm>
-0.439147

>  <SCORE.INTRA>
-0.0123041

>  <SCORE.INTRA.DIHEDRAL>
-0.0213008

>  <SCORE.INTRA.DIHEDRAL.0>
6.31833

>  <SCORE.INTRA.POLAR>
0

>  <SCORE.INTRA.POLAR.0>
0

>  <SCORE.INTRA.REPUL>
0

>  <SCORE.INTRA.REPUL.0>
0

>  <SCORE.INTRA.SOLV>
3.99469

>  <SCORE.INTRA.SOLV.lig_0>
-48.4015

>  <SCORE.INTRA.VDW>
-1.999

>  <SCORE.INTRA.VDW.0>
-2.83256

>  <SCORE.INTRA.norm>
-0.000455707

>  <SCORE.RESTR>
0

>  <SCORE.RESTR.CAVITY>
0

>  <SCORE.RESTR.norm>
0

>  <SCORE.SYSTEM>
0

>  <SCORE.SYSTEM.CONST>
0

>  <SCORE.SYSTEM.DIHEDRAL>
0

>  <SCORE.SYSTEM.SOLV>
0

>  <SCORE.SYSTEM.norm>
0

>  <SCORE.heavy>
27

>  <SCORE.norm>
-0.439602

>  <RMSD>
2.941

$$$$
ligand
 OpenBabel02271912153D
libRbt.so/2013.1/901 2013/11/27
 27 29  0  0  0  0  0  0  0  0999 V2000
   18.2488    7.9750   30.9334 N   0  0  0  0  0  0  0  0  0  0  0  0
   17.2119    7.6469   29.9257 C   0  0  2  0  0  0  0  0  0  0  0  0
   16.7317    8.9542   29.3087 C   0  0  0  0  0  0  0  0  0  0  0  0
   15.8324    9.7274   29.7788 O   0  0  0  0  0  0  0  0  0  0  0  0
   16.0959    6.8532   30.6084 C   0  0  0  0  0  0  0  0  0  0  0  0
   15.0129    6.4042   29.6365 C   0  0  0  0  0  0  0  0  0  0  0  0
   13.4879    5.5348   30.1609 S   0  0  2  0  0  0  0  0  0  0  0  0
   12.7395    5.3025   28.5495 C   0  0  0  0  0  0  0  0  0  0  0  0
   12.5968    6.9671   30.8468 C   0  0  0  0  0  0  0  0  0  0  0  0
   12.6016    6.9527   32.3507 C   0  0  1  0  0  0  0  0  0  0  0  0
   12.2343    5.6619   32.8946 O   0  0  0  0  0  0  0  0  0  0  0  0
   13.9270    7.3309   32.9713 C   0  0  1  0  0  0  0  0  0  0  0  0
   13.8703    8.6442   33.3241 O   0  0  0  0  0  0  0  0  0  0  0  0
   13.8673    6.5220   34.2460 C   0  0  1  0  0  0  0  0  0  0  0  0
   13.1360    7.2654   35.1167 O   0  0  0  0  0  0  0  0  0  0  0  0
   13.0928    5.2273   33.9145 C   0  0  2  0  0  0  0  0  0  0  0  0
   17.2301    9.2531   28.2221 O   0  0  0  0  0  0  0  0  0  0  0  0
   14.1668    0.8959   31.2199 N   0  0  0  0  0  0  0  0  0  0  0  0
   12.9476    1.4857   31.6957 C   0  0  0  0  0  0  0  0  0  0  0  0
   12.7887    2.6924   32.4214 N   0  0  0  0  0  0  0  0  0  0  0  0
   13.9106    3.2623   32.6218 C   0  0  0  0  0  0  0  0  0  0  0  0
   15.2191    2.7400   32.1687 C   0  0  0  0  0  0  0  0  0  0  0  0
   15.3266    1.5861   31.4971 C   0  0  0  0  0  0  0  0  0  0  0  0
   16.5512    1.2270   31.1708 N   0  0  0  0  0  0  0  0  0  0  0  0
   16.2341    3.4995   32.5053 N   0  0  0  0  0  0  0  0  0  0  0  0
   15.5568    4.5067   33.1678 C   0  0  0  0  0  0  0  0  0  0  0  0
   14.1105    4.3751   33.2418 N   0  0  0  0  0  0  0  0  0  0  0  0
  2  1  1  1  0  0  0
  2  3  1  0  0  0  0
  2  5  1  0  0  0  0
  3  4  1  0  0  0  0
  3 17  1  0  0  0  0
  5  6  1  0  0  0  0
  7  6  1  6  0  0  0
  7  8  1  0  0  0  0
  7  9  1  0  0  0  0
 10  9  1  6  0  0  0
 10 11  1  0  0  0  0
 10 12  1  0  0  0  0
 11 16  1  0  0  0  0
 12 13  1  1  0  0  0
 12 14  1  0  0  0  0
 14 15  1  1  0  0  0
 14 16  1  0  0  0  0
 16 27  1  6  0  0  0
 18 19  2  0  0  0  0
 18 23  1  0  0  0  0
 19 20  1  0  0  0  0
 20 21  2  0  0  0  0
 21 22  1  0  0  0  0
 21 27  1  0  0  0  0
 22 23  2  0  0  0  0
 22 25  1  0  0  0  0
 23 24  1  0  0  0  0
 25 26  2  0  0  0  0
 26 27  1  0  0  0  0
M  END
>  <CHROM.1>
-84.54089933,-176.99859017,-175.71201080,-178.86399571,-104.85509595,-47.84763246
-63.75210327,14.55421900,5.60553867,31.56057162,-1.10297701,-0.85900830,-3.11699155

>  <Name>
ligand

>  <RI>
0

>  <Rbt.Current_Directory>
/home/itssahil/PROJECTS/Mol_Feturizer/Test_systems_manuscript/rnas/4aob

>  <Rbt.Executable>
rbdock ($Id: //depot/dev/client3/rdock/2013.1/src/exe/rbdock.cxx#4 $)

>  <Rbt.Library>
libRbt.so (2013.1, Build901 2013/11/27)

>  <Rbt.Parameter_File>
/export/apps/rDock/src/rDock_2013.1_src/data/scripts/dock_solv.prm

>  <Rbt.Receptor>
prm/pocket_docking_8.prm

>  <SCORE>
-13.776

>  <SCORE.INTER>
-11.3455

>  <SCORE.INTER.CONST>
1

>  <SCORE.INTER.POLAR>
0

>  <SCORE.INTER.ROT>
7

>  <SCORE.INTER.SOLV>
15.013

>  <SCORE.INTER.VDW>
-20.8347

>  <SCORE.INTER.norm>
-0.420205

>  <SCORE.INTRA>
-2.43044

>  <SCORE.INTRA.DIHEDRAL>
0.450312

>  <SCORE.INTRA.DIHEDRAL.0>
6.31833

>  <SCORE.INTRA.POLAR>
0

>  <SCORE.INTRA.POLAR.0>
0

>  <SCORE.INTRA.REPUL>
0

>  <SCORE.INTRA.REPUL.0>
0

>  <SCORE.INTRA.SOLV>
-0.413181

>  <SCORE.INTRA.SOLV.lig_0>
-48.4015

>  <SCORE.INTRA.VDW>
-2.449

>  <SCORE.INTRA.VDW.0>
-2.83256

>  <SCORE.INTRA.norm>
-0.0900162

>  <SCORE.RESTR>
0

>  <SCORE.RESTR.CAVITY>
0

>  <SCORE.RESTR.norm>
0

>  <SCORE.SYSTEM>
0

>  <SCORE.SYSTEM.CONST>
0

>  <SCORE.SYSTEM.DIHEDRAL>
0

>  <SCORE.SYSTEM.SOLV>
0

>  <SCORE.SYSTEM.norm>
0

>  <SCORE.heavy>
27

>  <SCORE.norm>
-0.510222

>  <RMSD>
2.979

$$$$
ligand
 OpenBabel02271912153D
libRbt.so/2013.1/901 2013/11/27
 27 29  0  0  0  0  0  0  0  0999 V2000
   13.7127    8.5702   25.3676 N   0  0  0  0  0  0  0  0  0  0  0  0
   13.3915    8.9090   26.7749 C   0  0  2  0  0  0  0  0  0  0  0  0
   12.5935   10.2065   26.7713 C   0  0  0  0  0  0  0  0  0  0  0  0
   11.5471   10.4531   27.4580 O   0  0  0  0  0  0  0  0  0  0  0  0
   14.6965    9.0023   27.5686 C   0  0  0  0  0  0  0  0  0  0  0  0
   14.4664    9.1032   29.0706 C   0  0  0  0  0  0  0  0  0  0  0  0
   13.5566    7.8397   30.0363 S   0  0  2  0  0  0  0  0  0  0  0  0
   12.0122    8.7221   30.2519 C   0  0  0  0  0  0  0  0  0  0  0  0
   14.4092    8.0687   31.6291 C   0  0  0  0  0  0  0  0  0  0  0  0
   13.5707    7.5837   32.7796 C   0  0  1  0  0  0  0  0  0  0  0  0
   12.7903    6.4114   32.4424 O   0  0  0  0  0  0  0  0  0  0  0  0
   14.3597    7.2444   34.0235 C   0  0  1  0  0  0  0  0  0  0  0  0
   14.2952    8.3086   34.8695 O   0  0  0  0  0  0  0  0  0  0  0  0
   13.4883    6.1563   34.6058 C   0  0  1  0  0  0  0  0  0  0  0  0
   12.5049    6.8005   35.2866 O   0  0  0  0  0  0  0  0  0  0  0  0
   12.8635    5.4011   33.4119 C   0  0  2  0  0  0  0  0  0  0  0  0
   12.9758   11.0728   25.9826 O   0  0  0  0  0  0  0  0  0  0  0  0
   14.2574    0.8336   31.3215 N   0  0  0  0  0  0  0  0  0  0  0  0
   12.9895    1.4560   31.5779 C   0  0  0  0  0  0  0  0  0  0  0  0
   12.7434    2.7273   32.1533 N   0  0  0  0  0  0  0  0  0  0  0  0
   13.8326    3.3252   32.4361 C   0  0  0  0  0  0  0  0  0  0  0  0
   15.1865    2.7730   32.2066 C   0  0  0  0  0  0  0  0  0  0  0  0
   15.3748    1.5592   31.6728 C   0  0  0  0  0  0  0  0  0  0  0  0
   16.6297    1.1812   31.5416 N   0  0  0  0  0  0  0  0  0  0  0  0
   16.1528    3.5721   32.5914 N   0  0  0  0  0  0  0  0  0  0  0  0
   15.4001    4.6336   33.0588 C   0  0  0  0  0  0  0  0  0  0  0  0
   13.9557    4.4961   32.9620 N   0  0  0  0  0  0  0  0  0  0  0  0
  2  1  1  6  0  0  0
  2  3  1  0  0  0  0
  2  5  1  0  0  0  0
  3  4  1  0  0  0  0
  3 17  1  0  0  0  0
  5  6  1  0  0  0  0
  7  6  1  6  0  0  0
  7  8  1  0  0  0  0
  7  9  1  0  0  0  0
 10  9  1  6  0  0  0
 10 11  1  0  0  0  0
 10 12  1  0  0  0  0
 11 16  1  0  0  0  0
 12 13  1  1  0  0  0
 12 14  1  0  0  0  0
 14 15  1  1  0  0  0
 14 16  1  0  0  0  0
 16 27  1  6  0  0  0
 18 19  2  0  0  0  0
 18 23  1  0  0  0  0
 19 20  1  0  0  0  0
 20 21  2  0  0  0  0
 21 22  1  0  0  0  0
 21 27  1  0  0  0  0
 22 23  2  0  0  0  0
 22 25  1  0  0  0  0
 23 24  1  0  0  0  0
 25 26  2  0  0  0  0
 26 27  1  0  0  0  0
M  END
>  <CHROM.1>
135.99298955,-169.88532208,58.33538942,-103.88217751,157.46515605,35.56958084
-105.53093574,13.79087205,6.36572663,31.03536081,-2.24827045,-1.31950737
1.78354376

>  <Name>
ligand

>  <RI>
0

>  <Rbt.Current_Directory>
/home/itssahil/PROJECTS/Mol_Feturizer/Test_systems_manuscript/rnas/4aob

>  <Rbt.Executable>
rbdock ($Id: //depot/dev/client3/rdock/2013.1/src/exe/rbdock.cxx#4 $)

>  <Rbt.Library>
libRbt.so (2013.1, Build901 2013/11/27)

>  <Rbt.Parameter_File>
/export/apps/rDock/src/rDock_2013.1_src/data/scripts/dock_solv.prm

>  <Rbt.Receptor>
prm/pocket_docking_6.prm

>  <SCORE>
-13.5235

>  <SCORE.INTER>
-14.9728

>  <SCORE.INTER.CONST>
1

>  <SCORE.INTER.POLAR>
0

>  <SCORE.INTER.ROT>
7

>  <SCORE.INTER.SOLV>
14.3087

>  <SCORE.INTER.VDW>
-23.0181

>  <SCORE.INTER.norm>
-0.554549

>  <SCORE.INTRA>
1.4493

>  <SCORE.INTRA.DIHEDRAL>
2.72112

>  <SCORE.INTRA.DIHEDRAL.0>
6.31833

>  <SCORE.INTRA.POLAR>
0

>  <SCORE.INTRA.POLAR.0>
0

>  <SCORE.INTRA.REPUL>
0

>  <SCORE.INTRA.REPUL.0>
0

>  <SCORE.INTRA.SOLV>
-0.595814

>  <SCORE.INTRA.SOLV.lig_0>
-48.4015

>  <SCORE.INTRA.VDW>
0.386642

>  <SCORE.INTRA.VDW.0>
-2.83256

>  <SCORE.INTRA.norm>
0.0536776

>  <SCORE.RESTR>
0

>  <SCORE.RESTR.CAVITY>
0

>  <SCORE.RESTR.norm>
0

>  <SCORE.SYSTEM>
0

>  <SCORE.SYSTEM.CONST>
0

>  <SCORE.SYSTEM.DIHEDRAL>
0

>  <SCORE.SYSTEM.SOLV>
0

>  <SCORE.SYSTEM.norm>
0

>  <SCORE.heavy>
27

>  <SCORE.norm>
-0.500871

>  <RMSD>
2.981

$$$$
ligand
 OpenBabel02271912153D
libRbt.so/2013.1/901 2013/11/27
 27 29  0  0  0  0  0  0  0  0999 V2000
   11.6501    8.4592   26.2623 N   0  0  0  0  0  0  0  0  0  0  0  0
   12.1634    7.0682   26.2629 C   0  0  2  0  0  0  0  0  0  0  0  0
   12.1547    6.5677   24.8242 C   0  0  0  0  0  0  0  0  0  0  0  0
   11.1826    6.6461   24.0018 O   0  0  0  0  0  0  0  0  0  0  0  0
   11.2990    6.2252   27.2030 C   0  0  0  0  0  0  0  0  0  0  0  0
   11.3892    6.6809   28.6533 C   0  0  0  0  0  0  0  0  0  0  0  0
   12.9634    6.7590   29.5874 S   0  0  2  0  0  0  0  0  0  0  0  0
   13.2607    5.0012   29.7669 C   0  0  0  0  0  0  0  0  0  0  0  0
   12.2807    7.2473   31.2035 C   0  0  0  0  0  0  0  0  0  0  0  0
   13.3697    7.5070   32.2079 C   0  0  1  0  0  0  0  0  0  0  0  0
   13.1919    6.7480   33.4282 O   0  0  0  0  0  0  0  0  0  0  0  0
   14.7634    7.2098   31.7037 C   0  0  1  0  0  0  0  0  0  0  0  0
   15.3264    8.3811   31.2994 O   0  0  0  0  0  0  0  0  0  0  0  0
   15.4373    6.8119   32.9960 C   0  0  1  0  0  0  0  0  0  0  0  0
   15.7965    7.9771   33.5950 O   0  0  0  0  0  0  0  0  0  0  0  0
   14.3646    6.1113   33.8589 C   0  0  2  0  0  0  0  0  0  0  0  0
   13.1730    5.9833   24.4501 O   0  0  0  0  0  0  0  0  0  0  0  0
   16.9006    2.0455   31.8064 N   0  0  0  0  0  0  0  0  0  0  0  0
   17.3282    3.3028   32.3512 C   0  0  0  0  0  0  0  0  0  0  0  0
   16.5243    4.3355   32.8945 N   0  0  0  0  0  0  0  0  0  0  0  0
   15.2893    4.0227   32.8672 C   0  0  0  0  0  0  0  0  0  0  0  0
   14.7487    2.7527   32.3330 C   0  0  0  0  0  0  0  0  0  0  0  0
   15.5434    1.8076   31.8142 C   0  0  0  0  0  0  0  0  0  0  0  0
   14.9315    0.7349   31.3561 N   0  0  0  0  0  0  0  0  0  0  0  0
   13.4418    2.6662   32.4033 N   0  0  0  0  0  0  0  0  0  0  0  0
   13.1626    3.8865   32.9906 C   0  0  0  0  0  0  0  0  0  0  0  0
   14.3031    4.7373   33.2907 N   0  0  0  0  0  0  0  0  0  0  0  0
  2  1  1  6  0  0  0
  2  3  1  0  0  0  0
  2  5  1  0  0  0  0
  3  4  1  0  0  0  0
  3 17  1  0  0  0  0
  5  6  1  0  0  0  0
  7  6  1  6  0  0  0
  7  8  1  0  0  0  0
  7  9  1  0  0  0  0
 10  9  1  6  0  0  0
 10 11  1  0  0  0  0
 10 12  1  0  0  0  0
 11 16  1  0  0  0  0
 12 13  1  1  0  0  0
 12 14  1  0  0  0  0
 14 15  1  1  0  0  0
 14 16  1  0  0  0  0
 16 27  1  6  0  0  0
 18 19  2  0  0  0  0
 18 23  1  0  0  0  0
 19 20  1  0  0  0  0
 20 21  2  0  0  0  0
 21 22  1  0  0  0  0
 21 27  1  0  0  0  0
 22 23  2  0  0  0  0
 22 25  1  0  0  0  0
 23 24  1  0  0  0  0
 25 26  2  0  0  0  0
 26 27  1  0  0  0  0
M  END
>  <CHROM.1>
-48.98496530,-63.89710007,-58.03185814,-70.79659869,-175.53107108,-126.62879721
145.04659296,13.84719307,5.60583360,30.46216521,2.89083970,1.13160115,-2.50078493

>  <Name>
ligand

>  <RI>
0

>  <Rbt.Current_Directory>
/home/itssahil/PROJECTS/Mol_Feturizer/Test_systems_manuscript/rnas/4aob

>  <Rbt.Executable>
rbdock ($Id: //depot/dev/client3/rdock/2013.1/src/exe/rbdock.cxx#4 $)

>  <Rbt.Library>
libRbt.so (2013.1, Build901 2013/11/27)

>  <Rbt.Parameter_File>
/export/apps/rDock/src/rDock_2013.1_src/data/scripts/dock_solv.prm

>  <Rbt.Receptor>
prm/pocket_docking_6.prm

>  <SCORE>
-7.02556

>  <SCORE.INTER>
-10.4608

>  <SCORE.INTER.CONST>
1

>  <SCORE.INTER.POLAR>
0

>  <SCORE.INTER.ROT>
7

>  <SCORE.INTER.SOLV>
12.948

>  <SCORE.INTER.VDW>
-19.5565

>  <SCORE.INTER.norm>
-0.387437

>  <SCORE.INTRA>
3.43524

>  <SCORE.INTRA.DIHEDRAL>
2.57344

>  <SCORE.INTRA.DIHEDRAL.0>
6.31833

>  <SCORE.INTRA.POLAR>
0

>  <SCORE.INTRA.POLAR.0>
0

>  <SCORE.INTRA.REPUL>
0

>  <SCORE.INTRA.REPUL.0>
0

>  <SCORE.INTRA.SOLV>
0.696407

>  <SCORE.INTRA.SOLV.lig_0>
-48.4015

>  <SCORE.INTRA.VDW>
1.80031

>  <SCORE.INTRA.VDW.0>
-2.83256

>  <SCORE.INTRA.norm>
0.127231

>  <SCORE.RESTR>
0

>  <SCORE.RESTR.CAVITY>
0

>  <SCORE.RESTR.norm>
0

>  <SCORE.SYSTEM>
0

>  <SCORE.SYSTEM.CONST>
0

>  <SCORE.SYSTEM.DIHEDRAL>
0

>  <SCORE.SYSTEM.SOLV>
0

>  <SCORE.SYSTEM.norm>
0

>  <SCORE.heavy>
27

>  <SCORE.norm>
-0.260206

>  <RMSD>
3.002

$$$$
ligand
 OpenBabel02271912153D
libRbt.so/2013.1/901 2013/11/27
 27 29  0  0  0  0  0  0  0  0999 V2000
    9.9244    9.3516   27.0237 N   0  0  0  0  0  0  0  0  0  0  0  0
   11.0589    8.5117   27.4773 C   0  0  2  0  0  0  0  0  0  0  0  0
   12.2546    8.8232   26.5864 C   0  0  0  0  0  0  0  0  0  0  0  0
   13.4552    9.0169   26.9718 O   0  0  0  0  0  0  0  0  0  0  0  0
   10.6336    7.0425   27.4289 C   0  0  0  0  0  0  0  0  0  0  0  0
   11.8078    6.0842   27.5774 C   0  0  0  0  0  0  0  0  0  0  0  0
   13.1314    6.3004   28.8256 S   0  0  2  0  0  0  0  0  0  0  0  0
   14.1797    4.9269   28.3511 C   0  0  0  0  0  0  0  0  0  0  0  0
   12.2257    5.6702   30.2743 C   0  0  0  0  0  0  0  0  0  0  0  0
   12.6276    6.3886   31.5329 C   0  0  1  0  0  0  0  0  0  0  0  0
   12.6275    5.5204   32.6919 O   0  0  0  0  0  0  0  0  0  0  0  0
   13.9914    7.0376   31.4692 C   0  0  1  0  0  0  0  0  0  0  0  0
   13.8200    8.3559   31.1776 O   0  0  0  0  0  0  0  0  0  0  0  0
   14.3988    6.9496   32.9214 C   0  0  1  0  0  0  0  0  0  0  0  0
   13.8129    8.0132   33.5305 O   0  0  0  0  0  0  0  0  0  0  0  0
   13.7818    5.6473   33.4777 C   0  0  2  0  0  0  0  0  0  0  0  0
   12.0132    8.9520   25.3849 O   0  0  0  0  0  0  0  0  0  0  0  0
   14.4095    0.8465   31.5454 N   0  0  0  0  0  0  0  0  0  0  0  0
   13.2560    1.6392   31.8645 C   0  0  0  0  0  0  0  0  0  0  0  0
   13.2211    2.9567   32.3849 N   0  0  0  0  0  0  0  0  0  0  0  0
   14.3967    3.4207   32.5476 C   0  0  0  0  0  0  0  0  0  0  0  0
   15.6462    2.6876   32.2447 C   0  0  0  0  0  0  0  0  0  0  0  0
   15.6349    1.4364   31.7670 C   0  0  0  0  0  0  0  0  0  0  0  0
   16.8168    0.8932   31.5597 N   0  0  0  0  0  0  0  0  0  0  0  0
   16.7343    3.3714   32.5072 N   0  0  0  0  0  0  0  0  0  0  0  0
   16.1630    4.5419   32.9714 C   0  0  0  0  0  0  0  0  0  0  0  0
   14.7098    4.5886   32.9956 N   0  0  0  0  0  0  0  0  0  0  0  0
  2  1  1  6  0  0  0
  2  3  1  0  0  0  0
  2  5  1  0  0  0  0
  3  4  1  0  0  0  0
  3 17  1  0  0  0  0
  5  6  1  0  0  0  0
  7  6  1  6  0  0  0
  7  8  1  0  0  0  0
  7  9  1  0  0  0  0
 10  9  1  6  0  0  0
 10 11  1  0  0  0  0
 10 12  1  0  0  0  0
 11 16  1  0  0  0  0
 12 13  1  1  0  0  0
 12 14  1  0  0  0  0
 14 15  1  1  0  0  0
 14 16  1  0  0  0  0
 16 27  1  6  0  0  0
 18 19  2  0  0  0  0
 18 23  1  0  0  0  0
 19 20  1  0  0  0  0
 20 21  2  0  0  0  0
 21 22  1  0  0  0  0
 21 27  1  0  0  0  0
 22 23  2  0  0  0  0
 22 25  1  0  0  0  0
 23 24  1  0  0  0  0
 25 26  2  0  0  0  0
 26 27  1  0  0  0  0
M  END
>  <CHROM.1>
135.32600561,167.32611617,44.67255818,-176.29631093,-146.47744299,-144.96688116
-33.63173966,13.52719337,5.65136751,30.42309901,-3.11015282,1.15743714,-2.36842378

>  <Name>
ligand

>  <RI>
0

>  <Rbt.Current_Directory>
/home/itssahil/PROJECTS/Mol_Feturizer/Test_systems_manuscript/rnas/4aob

>  <Rbt.Executable>
rbdock ($Id: //depot/dev/client3/rdock/2013.1/src/exe/rbdock.cxx#4 $)

>  <Rbt.Library>
libRbt.so (2013.1, Build901 2013/11/27)

>  <Rbt.Parameter_File>
/export/apps/rDock/src/rDock_2013.1_src/data/scripts/dock_solv.prm

>  <Rbt.Receptor>
prm/pocket_docking_4.prm

>  <SCORE>
-5.55736

>  <SCORE.INTER>
-8.57942

>  <SCORE.INTER.CONST>
1

>  <SCORE.INTER.POLAR>
0

>  <SCORE.INTER.ROT>
7

>  <SCORE.INTER.SOLV>
18.4987

>  <SCORE.INTER.VDW>
-20.1525

>  <SCORE.INTER.norm>
-0.317756

>  <SCORE.INTRA>
3.00699

>  <SCORE.INTRA.DIHEDRAL>
5.34858

>  <SCORE.INTRA.DIHEDRAL.0>
6.31833

>  <SCORE.INTRA.POLAR>
0

>  <SCORE.INTRA.POLAR.0>
0

>  <SCORE.INTRA.REPUL>
0

>  <SCORE.INTRA.REPUL.0>
0

>  <SCORE.INTRA.SOLV>
-0.359

>  <SCORE.INTRA.SOLV.lig_0>
-48.4015

>  <SCORE.INTRA.VDW>
0.5122

>  <SCORE.INTRA.VDW.0>
-2.83256

>  <SCORE.INTRA.norm>
0.11137

>  <SCORE.RESTR>
0.0150677

>  <SCORE.RESTR.CAVITY>
0.0150677

>  <SCORE.RESTR.norm>
0.000558062

>  <SCORE.SYSTEM>
0

>  <SCORE.SYSTEM.CONST>
0

>  <SCORE.SYSTEM.DIHEDRAL>
0

>  <SCORE.SYSTEM.SOLV>
0

>  <SCORE.SYSTEM.norm>
0

>  <SCORE.heavy>
27

>  <SCORE.norm>
-0.205828

>  <RMSD>
3.007

$$$$
ligand
 OpenBabel02271912153D
libRbt.so/2013.1/901 2013/11/27
 27 29  0  0  0  0  0  0  0  0999 V2000
   11.9751    8.2612   25.9458 N   0  0  0  0  0  0  0  0  0  0  0  0
   11.3767    9.3148   26.8003 C   0  0  2  0  0  0  0  0  0  0  0  0
   12.5125   10.1611   27.3605 C   0  0  0  0  0  0  0  0  0  0  0  0
   12.5335   10.7434   28.4954 O   0  0  0  0  0  0  0  0  0  0  0  0
   10.5277    8.6463   27.8837 C   0  0  0  0  0  0  0  0  0  0  0  0
   11.3344    7.7021   28.7652 C   0  0  0  0  0  0  0  0  0  0  0  0
   12.3241    8.2649   30.2006 S   0  0  2  0  0  0  0  0  0  0  0  0
   13.9423    8.2668   29.4313 C   0  0  0  0  0  0  0  0  0  0  0  0
   12.3024    6.7132   31.1535 C   0  0  0  0  0  0  0  0  0  0  0  0
   12.7797    6.9240   32.5641 C   0  0  1  0  0  0  0  0  0  0  0  0
   12.6123    5.7455   33.3888 O   0  0  0  0  0  0  0  0  0  0  0  0
   14.2300    7.3358   32.6740 C   0  0  1  0  0  0  0  0  0  0  0  0
   14.2766    8.6883   32.8185 O   0  0  0  0  0  0  0  0  0  0  0  0
   14.5804    6.7302   34.0130 C   0  0  1  0  0  0  0  0  0  0  0  0
   14.1541    7.6252   34.9418 O   0  0  0  0  0  0  0  0  0  0  0  0
   13.7513    5.4335   34.1447 C   0  0  2  0  0  0  0  0  0  0  0  0
   13.4747   10.3371   26.6110 O   0  0  0  0  0  0  0  0  0  0  0  0
   13.7327    1.0287   31.3569 N   0  0  0  0  0  0  0  0  0  0  0  0
   12.7046    1.7867   32.0120 C   0  0  0  0  0  0  0  0  0  0  0  0
   12.8429    2.9933   32.7420 N   0  0  0  0  0  0  0  0  0  0  0  0
   14.0547    3.3870   32.7588 C   0  0  0  0  0  0  0  0  0  0  0  0
   15.1836    2.6821   32.1114 C   0  0  0  0  0  0  0  0  0  0  0  0
   15.0114    1.5346   31.4423 C   0  0  0  0  0  0  0  0  0  0  0  0
   16.1025    1.0019   30.9317 N   0  0  0  0  0  0  0  0  0  0  0  0
   16.3405    3.2773   32.2776 N   0  0  0  0  0  0  0  0  0  0  0  0
   15.9330    4.3647   33.0283 C   0  0  0  0  0  0  0  0  0  0  0  0
   14.5128    4.4489   33.3292 N   0  0  0  0  0  0  0  0  0  0  0  0
  2  1  1  6  0  0  0
  2  3  1  0  0  0  0
  2  5  1  0  0  0  0
  3  4  1  0  0  0  0
  3 17  1  0  0  0  0
  5  6  1  0  0  0  0
  7  6  1  6  0  0  0
  7  8  1  0  0  0  0
  7  9  1  0  0  0  0
 10  9  1  6  0  0  0
 10 11  1  0  0  0  0
 10 12  1  0  0  0  0
 11 16  1  0  0  0  0
 12 13  1  1  0  0  0
 12 14  1  0  0  0  0
 14 15  1  1  0  0  0
 14 16  1  0  0  0  0
 16 27  1  6  0  0  0
 18 19  2  0  0  0  0
 18 23  1  0  0  0  0
 19 20  1  0  0  0  0
 20 21  2  0  0  0  0
 21 22  1  0  0  0  0
 21 27  1  0  0  0  0
 22 23  2  0  0  0  0
 22 25  1  0  0  0  0
 23 24  1  0  0  0  0
 25 26  2  0  0  0  0
 26 27  1  0  0  0  0
M  END
>  <CHROM.1>
-147.84720437,59.35162073,83.17609112,-100.17091038,-167.05249792,172.66262633
-48.73499201,13.44542172,6.27549150,31.01633051,2.87202763,-1.26737063,0.64737274

>  <Name>
ligand

>  <RI>
0

>  <Rbt.Current_Directory>
/home/itssahil/PROJECTS/Mol_Feturizer/Test_systems_manuscript/rnas/4aob

>  <Rbt.Executable>
rbdock ($Id: //depot/dev/client3/rdock/2013.1/src/exe/rbdock.cxx#4 $)

>  <Rbt.Library>
libRbt.so (2013.1, Build901 2013/11/27)

>  <Rbt.Parameter_File>
/export/apps/rDock/src/rDock_2013.1_src/data/scripts/dock_solv.prm

>  <Rbt.Receptor>
prm/pocket_docking_6.prm

>  <SCORE>
-13.1219

>  <SCORE.INTER>
-15.3374

>  <SCORE.INTER.CONST>
1

>  <SCORE.INTER.POLAR>
0

>  <SCORE.INTER.ROT>
7

>  <SCORE.INTER.SOLV>
13.8544

>  <SCORE.INTER.VDW>
-23.1098

>  <SCORE.INTER.norm>
-0.568054

>  <SCORE.INTRA>
2.21554

>  <SCORE.INTRA.DIHEDRAL>
2.4456

>  <SCORE.INTRA.DIHEDRAL.0>
6.31833

>  <SCORE.INTRA.POLAR>
0

>  <SCORE.INTRA.POLAR.0>
0

>  <SCORE.INTRA.REPUL>
0

>  <SCORE.INTRA.REPUL.0>
0

>  <SCORE.INTRA.SOLV>
1.13705

>  <SCORE.INTRA.SOLV.lig_0>
-48.4015

>  <SCORE.INTRA.VDW>
0.424217

>  <SCORE.INTRA.VDW.0>
-2.83256

>  <SCORE.INTRA.norm>
0.0820572

>  <SCORE.RESTR>
0

>  <SCORE.RESTR.CAVITY>
0

>  <SCORE.RESTR.norm>
0

>  <SCORE.SYSTEM>
0

>  <SCORE.SYSTEM.CONST>
0

>  <SCORE.SYSTEM.DIHEDRAL>
0

>  <SCORE.SYSTEM.SOLV>
0

>  <SCORE.SYSTEM.norm>
0

>  <SCORE.heavy>
27

>  <SCORE.norm>
-0.485996

>  <RMSD>
3.009

$$$$
ligand
 OpenBabel02271912153D
libRbt.so/2013.1/901 2013/11/27
 27 29  0  0  0  0  0  0  0  0999 V2000
   10.0885    7.0236   26.0157 N   0  0  0  0  0  0  0  0  0  0  0  0
   10.1960    8.0347   27.0949 C   0  0  2  0  0  0  0  0  0  0  0  0
   10.5434    9.3700   26.4493 C   0  0  0  0  0  0  0  0  0  0  0  0
   11.6185    9.6504   25.8225 O   0  0  0  0  0  0  0  0  0  0  0  0
   11.2397    7.5624   28.1094 C   0  0  0  0  0  0  0  0  0  0  0  0
   11.4494    8.5557   29.2446 C   0  0  0  0  0  0  0  0  0  0  0  0
   12.8010    8.4094   30.4727 S   0  0  2  0  0  0  0  0  0  0  0  0
   14.1859    8.2986   29.3412 C   0  0  0  0  0  0  0  0  0  0  0  0
   12.5122    6.6815   30.9700 C   0  0  0  0  0  0  0  0  0  0  0  0
   12.4892    6.5334   32.4665 C   0  0  1  0  0  0  0  0  0  0  0  0
   12.2438    5.1692   32.8856 O   0  0  0  0  0  0  0  0  0  0  0  0
   13.7573    6.9842   33.1548 C   0  0  1  0  0  0  0  0  0  0  0  0
   13.5612    8.2487   33.6185 O   0  0  0  0  0  0  0  0  0  0  0  0
   13.7549    6.0629   34.3522 C   0  0  1  0  0  0  0  0  0  0  0  0
   12.9355    6.6495   35.2632 O   0  0  0  0  0  0  0  0  0  0  0  0
   13.1220    4.7326   33.8878 C   0  0  2  0  0  0  0  0  0  0  0  0
    9.7203   10.2740   26.6033 O   0  0  0  0  0  0  0  0  0  0  0  0
   14.7201    0.6857   31.0166 N   0  0  0  0  0  0  0  0  0  0  0  0
   13.4408    1.0902   31.5267 C   0  0  0  0  0  0  0  0  0  0  0  0
   13.1342    2.2371   32.3003 N   0  0  0  0  0  0  0  0  0  0  0  0
   14.1736    2.9432   32.5119 C   0  0  0  0  0  0  0  0  0  0  0  0
   15.5330    2.6166   32.0261 C   0  0  0  0  0  0  0  0  0  0  0  0
   15.7824    1.5131   31.3092 C   0  0  0  0  0  0  0  0  0  0  0  0
   17.0387    1.3323   30.9573 N   0  0  0  0  0  0  0  0  0  0  0  0
   16.4433    3.4912   32.3823 N   0  0  0  0  0  0  0  0  0  0  0  0
   15.6485    4.3741   33.0899 C   0  0  0  0  0  0  0  0  0  0  0  0
   14.2335    4.0488   33.1727 N   0  0  0  0  0  0  0  0  0  0  0  0
  2  1  1  6  0  0  0
  2  3  1  0  0  0  0
  2  5  1  0  0  0  0
  3  4  1  0  0  0  0
  3 17  1  0  0  0  0
  5  6  1  0  0  0  0
  7  6  1  6  0  0  0
  7  8  1  0  0  0  0
  7  9  1  0  0  0  0
 10  9  1  6  0  0  0
 10 11  1  0  0  0  0
 10 12  1  0  0  0  0
 11 16  1  0  0  0  0
 12 13  1  1  0  0  0
 12 14  1  0  0  0  0
 14 15  1  1  0  0  0
 14 16  1  0  0  0  0
 16 27  1  6  0  0  0
 18 19  2  0  0  0  0
 18 23  1  0  0  0  0
 19 20  1  0  0  0  0
 20 21  2  0  0  0  0
 21 22  1  0  0  0  0
 21 27  1  0  0  0  0
 22 23  2  0  0  0  0
 22 25  1  0  0  0  0
 23 24  1  0  0  0  0
 25 26  2  0  0  0  0
 26 27  1  0  0  0  0
M  END
>  <CHROM.1>
-64.67101083,178.54469064,-170.38312568,53.78714635,-131.62296081,179.26613119
-67.75246176,13.12900019,5.89661137,30.91289016,-2.98834961,-1.11532521,1.02555798

>  <Name>
ligand

>  <RI>
0

>  <Rbt.Current_Directory>
/home/itssahil/PROJECTS/Mol_Feturizer/Test_systems_manuscript/rnas/4aob

>  <Rbt.Executable>
rbdock ($Id: //depot/dev/client3/rdock/2013.1/src/exe/rbdock.cxx#4 $)

>  <Rbt.Library>
libRbt.so (2013.1, Build901 2013/11/27)

>  <Rbt.Parameter_File>
/export/apps/rDock/src/rDock_2013.1_src/data/scripts/dock_solv.prm

>  <Rbt.Receptor>
prm/pocket_docking_6.prm

>  <SCORE>
-13.815

>  <SCORE.INTER>
-15.0278

>  <SCORE.INTER.CONST>
1

>  <SCORE.INTER.POLAR>
0

>  <SCORE.INTER.ROT>
7

>  <SCORE.INTER.SOLV>
18.1585

>  <SCORE.INTER.VDW>
-24.338

>  <SCORE.INTER.norm>
-0.556584

>  <SCORE.INTRA>
1.21277

>  <SCORE.INTRA.DIHEDRAL>
1.41749

>  <SCORE.INTRA.DIHEDRAL.0>
6.31833

>  <SCORE.INTRA.POLAR>
0

>  <SCORE.INTRA.POLAR.0>
0

>  <SCORE.INTRA.REPUL>
0

>  <SCORE.INTRA.REPUL.0>
0

>  <SCORE.INTRA.SOLV>
-0.651419

>  <SCORE.INTRA.SOLV.lig_0>
-48.4015

>  <SCORE.INTRA.VDW>
0.829736

>  <SCORE.INTRA.VDW.0>
-2.83256

>  <SCORE.INTRA.norm>
0.0449175

>  <SCORE.RESTR>
0

>  <SCORE.RESTR.CAVITY>
0

>  <SCORE.RESTR.norm>
0

>  <SCORE.SYSTEM>
0

>  <SCORE.SYSTEM.CONST>
0

>  <SCORE.SYSTEM.DIHEDRAL>
0

>  <SCORE.SYSTEM.SOLV>
0

>  <SCORE.SYSTEM.norm>
0

>  <SCORE.heavy>
27

>  <SCORE.norm>
-0.511667

>  <RMSD>
3.018

$$$$
ligand
 OpenBabel02271912153D
libRbt.so/2013.1/901 2013/11/27
 27 29  0  0  0  0  0  0  0  0999 V2000
   13.4544   10.2950   25.5394 N   0  0  0  0  0  0  0  0  0  0  0  0
   14.2942    9.5735   26.5256 C   0  0  2  0  0  0  0  0  0  0  0  0
   14.7518    8.2704   25.8831 C   0  0  0  0  0  0  0  0  0  0  0  0
   14.0698    7.1972   25.7804 O   0  0  0  0  0  0  0  0  0  0  0  0
   13.4814    9.3656   27.8053 C   0  0  0  0  0  0  0  0  0  0  0  0
   14.2636    8.6332   28.8874 C   0  0  0  0  0  0  0  0  0  0  0  0
   15.7542    9.3271   29.6956 S   0  0  2  0  0  0  0  0  0  0  0  0
   16.9577    8.9384   28.4262 C   0  0  0  0  0  0  0  0  0  0  0  0
   16.0046    8.0215   30.9402 C   0  0  0  0  0  0  0  0  0  0  0  0
   15.0534    8.1698   32.0958 C   0  0  1  0  0  0  0  0  0  0  0  0
   13.6983    7.7934   31.7512 O   0  0  0  0  0  0  0  0  0  0  0  0
   15.4345    7.3699   33.3205 C   0  0  1  0  0  0  0  0  0  0  0  0
   16.0778    8.2005   34.1858 O   0  0  0  0  0  0  0  0  0  0  0  0
   14.0659    7.0947   33.8981 C   0  0  1  0  0  0  0  0  0  0  0  0
   13.7375    8.2066   34.6060 O   0  0  0  0  0  0  0  0  0  0  0  0
   13.0989    6.9548   32.7017 C   0  0  2  0  0  0  0  0  0  0  0  0
   15.9150    8.2484   25.4771 O   0  0  0  0  0  0  0  0  0  0  0  0
   12.7482    1.8286   33.5816 N   0  0  0  0  0  0  0  0  0  0  0  0
   12.3175    2.9872   34.3115 C   0  0  0  0  0  0  0  0  0  0  0  0
   12.4691    4.3495   33.9521 N   0  0  0  0  0  0  0  0  0  0  0  0
   13.0578    4.4682   32.8283 C   0  0  0  0  0  0  0  0  0  0  0  0
   13.5345    3.3394   31.9982 C   0  0  0  0  0  0  0  0  0  0  0  0
   13.3839    2.0652   32.3823 C   0  0  0  0  0  0  0  0  0  0  0  0
   13.8710    1.1591   31.5597 N   0  0  0  0  0  0  0  0  0  0  0  0
   14.1216    3.7146   30.8869 N   0  0  0  0  0  0  0  0  0  0  0  0
   14.0065    5.0862   31.0186 C   0  0  0  0  0  0  0  0  0  0  0  0
   13.3409    5.5684   32.2183 N   0  0  0  0  0  0  0  0  0  0  0  0
  2  1  1  6  0  0  0
  2  3  1  0  0  0  0
  2  5  1  0  0  0  0
  3  4  1  0  0  0  0
  3 17  1  0  0  0  0
  5  6  1  0  0  0  0
  7  6  1  6  0  0  0
  7  8  1  0  0  0  0
  7  9  1  0  0  0  0
 10  9  1  6  0  0  0
 10 11  1  0  0  0  0
 10 12  1  0  0  0  0
 11 16  1  0  0  0  0
 12 13  1  1  0  0  0
 12 14  1  0  0  0  0
 14 15  1  1  0  0  0
 14 16  1  0  0  0  0
 16 27  1  6  0  0  0
 18 19  2  0  0  0  0
 18 23  1  0  0  0  0
 19 20  1  0  0  0  0
 20 21  2  0  0  0  0
 21 22  1  0  0  0  0
 21 27  1  0  0  0  0
 22 23  2  0  0  0  0
 22 25  1  0  0  0  0
 23 24  1  0  0  0  0
 25 26  2  0  0  0  0
 26 27  1  0  0  0  0
M  END
>  <CHROM.1>
-80.35794100,-179.78804435,64.88075227,-80.42162570,-78.06499490,73.36817506
174.19887393,14.29512474,6.74853542,30.72476306,0.89926190,-1.26698821,-1.53559178

>  <Name>
ligand

>  <RI>
0

>  <Rbt.Current_Directory>
/home/itssahil/PROJECTS/Mol_Feturizer/Test_systems_manuscript/rnas/4aob

>  <Rbt.Executable>
rbdock ($Id: //depot/dev/client3/rdock/2013.1/src/exe/rbdock.cxx#4 $)

>  <Rbt.Library>
libRbt.so (2013.1, Build901 2013/11/27)

>  <Rbt.Parameter_File>
/export/apps/rDock/src/rDock_2013.1_src/data/scripts/dock_solv.prm

>  <Rbt.Receptor>
prm/pocket_docking_8.prm

>  <SCORE>
-13.1013

>  <SCORE.INTER>
-11.3879

>  <SCORE.INTER.CONST>
1

>  <SCORE.INTER.POLAR>
0

>  <SCORE.INTER.ROT>
7

>  <SCORE.INTER.SOLV>
17.8071

>  <SCORE.INTER.VDW>
-21.7943

>  <SCORE.INTER.norm>
-0.421773

>  <SCORE.INTRA>
-1.71339

>  <SCORE.INTRA.DIHEDRAL>
-1.67054

>  <SCORE.INTRA.DIHEDRAL.0>
6.31833

>  <SCORE.INTRA.POLAR>
0

>  <SCORE.INTRA.POLAR.0>
0

>  <SCORE.INTRA.REPUL>
0

>  <SCORE.INTRA.REPUL.0>
0

>  <SCORE.INTRA.SOLV>
-0.649184

>  <SCORE.INTRA.SOLV.lig_0>
-48.4015

>  <SCORE.INTRA.VDW>
-0.553528

>  <SCORE.INTRA.VDW.0>
-2.83256

>  <SCORE.INTRA.norm>
-0.0634589

>  <SCORE.RESTR>
0

>  <SCORE.RESTR.CAVITY>
0

>  <SCORE.RESTR.norm>
0

>  <SCORE.SYSTEM>
0

>  <SCORE.SYSTEM.CONST>
0

>  <SCORE.SYSTEM.DIHEDRAL>
0

>  <SCORE.SYSTEM.SOLV>
0

>  <SCORE.SYSTEM.norm>
0

>  <SCORE.heavy>
27

>  <SCORE.norm>
-0.485232

>  <RMSD>
3.038

$$$$
ligand
 OpenBabel02271912153D
libRbt.so/2013.1/901 2013/11/27
 27 29  0  0  0  0  0  0  0  0999 V2000
   10.2562    6.9744   25.9272 N   0  0  0  0  0  0  0  0  0  0  0  0
   10.1174    7.8665   27.1033 C   0  0  2  0  0  0  0  0  0  0  0  0
   10.1636    9.3051   26.6049 C   0  0  0  0  0  0  0  0  0  0  0  0
   11.0231   10.1907   26.9283 O   0  0  0  0  0  0  0  0  0  0  0  0
   11.2262    7.5363   28.1049 C   0  0  0  0  0  0  0  0  0  0  0  0
   11.2298    8.4694   29.3084 C   0  0  0  0  0  0  0  0  0  0  0  0
   12.5608    8.4826   30.5674 S   0  0  2  0  0  0  0  0  0  0  0  0
   13.9729    8.5867   29.4692 C   0  0  0  0  0  0  0  0  0  0  0  0
   12.5007    6.7211   31.0252 C   0  0  0  0  0  0  0  0  0  0  0  0
   12.4655    6.5388   32.5177 C   0  0  1  0  0  0  0  0  0  0  0  0
   12.2194    5.1649   32.9035 O   0  0  0  0  0  0  0  0  0  0  0  0
   13.7270    6.9760   33.2267 C   0  0  1  0  0  0  0  0  0  0  0  0
   13.5245    8.2292   33.7175 O   0  0  0  0  0  0  0  0  0  0  0  0
   13.7165    6.0276   34.4027 C   0  0  1  0  0  0  0  0  0  0  0  0
   12.8884    6.5917   35.3200 O   0  0  0  0  0  0  0  0  0  0  0  0
   13.0901    4.7070   33.9028 C   0  0  2  0  0  0  0  0  0  0  0  0
    9.2433    9.6481   25.8607 O   0  0  0  0  0  0  0  0  0  0  0  0
   14.7408    0.6844   31.0272 N   0  0  0  0  0  0  0  0  0  0  0  0
   13.4578    1.0671   31.5450 C   0  0  0  0  0  0  0  0  0  0  0  0
   13.1360    2.2097   32.3188 N   0  0  0  0  0  0  0  0  0  0  0  0
   14.1642    2.9343   32.5227 C   0  0  0  0  0  0  0  0  0  0  0  0
   15.5259    2.6309   32.0287 C   0  0  0  0  0  0  0  0  0  0  0  0
   15.7901    1.5308   31.3118 C   0  0  0  0  0  0  0  0  0  0  0  0
   17.0472    1.3716   30.9521 N   0  0  0  0  0  0  0  0  0  0  0  0
   16.4230    3.5218   32.3777 N   0  0  0  0  0  0  0  0  0  0  0  0
   15.6173    4.3917   33.0892 C   0  0  0  0  0  0  0  0  0  0  0  0
   14.2089    4.0418   33.1815 N   0  0  0  0  0  0  0  0  0  0  0  0
  2  1  1  6  0  0  0
  2  3  1  0  0  0  0
  2  5  1  0  0  0  0
  3  4  1  0  0  0  0
  3 17  1  0  0  0  0
  5  6  1  0  0  0  0
  7  6  1  6  0  0  0
  7  8  1  0  0  0  0
  7  9  1  0  0  0  0
 10  9  1  6  0  0  0
 10 11  1  0  0  0  0
 10 12  1  0  0  0  0
 11 16  1  0  0  0  0
 12 13  1  1  0  0  0
 12 14  1  0  0  0  0
 14 15  1  1  0  0  0
 14 16  1  0  0  0  0
 16 27  1  6  0  0  0
 18 19  2  0  0  0  0
 18 23  1  0  0  0  0
 19 20  1  0  0  0  0
 20 21  2  0  0  0  0
 21 22  1  0  0  0  0
 21 27  1  0  0  0  0
 22 23  2  0  0  0  0
 22 25  1  0  0  0  0
 23 24  1  0  0  0  0
 25 26  2  0  0  0  0
 26 27  1  0  0  0  0
M  END
>  <CHROM.1>
-119.22923764,175.89949614,-171.49825067,50.06585506,-131.65916916,171.46506552
-69.61534688,13.03026319,5.89452077,30.96194176,-3.06382125,-1.08822759,0.94601723

>  <Name>
ligand

>  <RI>
0

>  <Rbt.Current_Directory>
/home/itssahil/PROJECTS/Mol_Feturizer/Test_systems_manuscript/rnas/4aob

>  <Rbt.Executable>
rbdock ($Id: //depot/dev/client3/rdock/2013.1/src/exe/rbdock.cxx#4 $)

>  <Rbt.Library>
libRbt.so (2013.1, Build901 2013/11/27)

>  <Rbt.Parameter_File>
/export/apps/rDock/src/rDock_2013.1_src/data/scripts/dock_solv.prm

>  <Rbt.Receptor>
prm/pocket_docking_8.prm

>  <SCORE>
-14.0579

>  <SCORE.INTER>
-15.9201

>  <SCORE.INTER.CONST>
1

>  <SCORE.INTER.POLAR>
0

>  <SCORE.INTER.ROT>
7

>  <SCORE.INTER.SOLV>
18.3464

>  <SCORE.INTER.VDW>
-24.9955

>  <SCORE.INTER.norm>
-0.589632

>  <SCORE.INTRA>
1.86212

>  <SCORE.INTRA.DIHEDRAL>
1.68474

>  <SCORE.INTRA.DIHEDRAL.0>
6.31833

>  <SCORE.INTRA.POLAR>
0

>  <SCORE.INTRA.POLAR.0>
0

>  <SCORE.INTRA.REPUL>
0

>  <SCORE.INTRA.REPUL.0>
0

>  <SCORE.INTRA.SOLV>
-0.640633

>  <SCORE.INTRA.SOLV.lig_0>
-48.4015

>  <SCORE.INTRA.VDW>
1.34007

>  <SCORE.INTRA.VDW.0>
-2.83256

>  <SCORE.INTRA.norm>
0.0689675

>  <SCORE.RESTR>
0

>  <SCORE.RESTR.CAVITY>
0

>  <SCORE.RESTR.norm>
0

>  <SCORE.SYSTEM>
0

>  <SCORE.SYSTEM.CONST>
0

>  <SCORE.SYSTEM.DIHEDRAL>
0

>  <SCORE.SYSTEM.SOLV>
0

>  <SCORE.SYSTEM.norm>
0

>  <SCORE.heavy>
27

>  <SCORE.norm>
-0.520664

>  <RMSD>
3.071

$$$$
ligand
 OpenBabel02271912153D
libRbt.so/2013.1/901 2013/11/27
 27 29  0  0  0  0  0  0  0  0999 V2000
   15.7936    9.7692   26.8787 N   0  0  0  0  0  0  0  0  0  0  0  0
   14.6160    8.9935   27.3370 C   0  0  2  0  0  0  0  0  0  0  0  0
   13.3977    9.9042   27.2554 C   0  0  0  0  0  0  0  0  0  0  0  0
   12.7885   10.2595   26.1923 O   0  0  0  0  0  0  0  0  0  0  0  0
   14.8895    8.4723   28.7495 C   0  0  0  0  0  0  0  0  0  0  0  0
   13.9082    7.3896   29.1781 C   0  0  0  0  0  0  0  0  0  0  0  0
   13.9011    6.6431   30.8512 S   0  0  2  0  0  0  0  0  0  0  0  0
   12.5758    5.4604   30.6158 C   0  0  0  0  0  0  0  0  0  0  0  0
   13.1007    8.0147   31.7425 C   0  0  0  0  0  0  0  0  0  0  0  0
   12.9457    7.7068   33.2065 C   0  0  1  0  0  0  0  0  0  0  0  0
   12.2765    6.4442   33.4404 O   0  0  0  0  0  0  0  0  0  0  0  0
   14.2476    7.6638   33.9734 C   0  0  1  0  0  0  0  0  0  0  0  0
   14.4145    8.8642   34.5927 O   0  0  0  0  0  0  0  0  0  0  0  0
   13.8971    6.6541   35.0412 C   0  0  1  0  0  0  0  0  0  0  0  0
   13.2400    7.3527   36.0033 O   0  0  0  0  0  0  0  0  0  0  0  0
   12.9214    5.6455   34.3955 C   0  0  2  0  0  0  0  0  0  0  0  0
   13.0077   10.3804   28.3229 O   0  0  0  0  0  0  0  0  0  0  0  0
   13.4740    1.2695   31.6170 N   0  0  0  0  0  0  0  0  0  0  0  0
   12.3451    1.9212   32.2181 C   0  0  0  0  0  0  0  0  0  0  0  0
   12.3277    3.1330   32.9524 N   0  0  0  0  0  0  0  0  0  0  0  0
   13.4928    3.6432   33.0299 C   0  0  0  0  0  0  0  0  0  0  0  0
   14.7164    3.0541   32.4415 C   0  0  0  0  0  0  0  0  0  0  0  0
   14.6913    1.8976   31.7663 C   0  0  0  0  0  0  0  0  0  0  0  0
   15.8535    1.4757   31.3123 N   0  0  0  0  0  0  0  0  0  0  0  0
   15.7998    3.7588   32.6652 N   0  0  0  0  0  0  0  0  0  0  0  0
   15.2506    4.7987   33.3926 C   0  0  0  0  0  0  0  0  0  0  0  0
   13.8156    4.7427   33.6211 N   0  0  0  0  0  0  0  0  0  0  0  0
  2  1  1  1  0  0  0
  2  3  1  0  0  0  0
  2  5  1  0  0  0  0
  3  4  1  0  0  0  0
  3 17  1  0  0  0  0
  5  6  1  0  0  0  0
  7  6  1  6  0  0  0
  7  8  1  0  0  0  0
  7  9  1  0  0  0  0
 10  9  1  6  0  0  0
 10 11  1  0  0  0  0
 10 12  1  0  0  0  0
 11 16  1  0  0  0  0
 12 13  1  1  0  0  0
 12 14  1  0  0  0  0
 14 15  1  1  0  0  0
 14 16  1  0  0  0  0
 16 27  1  6  0  0  0
 18 19  2  0  0  0  0
 18 23  1  0  0  0  0
 19 20  1  0  0  0  0
 20 21  2  0  0  0  0
 21 22  1  0  0  0  0
 21 27  1  0  0  0  0
 22 23  2  0  0  0  0
 22 25  1  0  0  0  0
 23 24  1  0  0  0  0
 25 26  2  0  0  0  0
 26 27  1  0  0  0  0
M  END
>  <CHROM.1>
74.45310331,-165.76926721,-175.84719120,-178.16531351,-179.75604664,-53.12352247
-82.23078559,13.81916874,6.25364008,31.53308429,-1.55555501,-1.42749477,2.41328613

>  <Name>
ligand

>  <RI>
0

>  <Rbt.Current_Directory>
/home/itssahil/PROJECTS/Mol_Feturizer/Test_systems_manuscript/rnas/4aob

>  <Rbt.Executable>
rbdock ($Id: //depot/dev/client3/rdock/2013.1/src/exe/rbdock.cxx#4 $)

>  <Rbt.Library>
libRbt.so (2013.1, Build901 2013/11/27)

>  <Rbt.Parameter_File>
/export/apps/rDock/src/rDock_2013.1_src/data/scripts/dock_solv.prm

>  <Rbt.Receptor>
prm/pocket_docking_7.prm

>  <SCORE>
-13.1327

>  <SCORE.INTER>
-11.8269

>  <SCORE.INTER.CONST>
1

>  <SCORE.INTER.POLAR>
0

>  <SCORE.INTER.ROT>
7

>  <SCORE.INTER.SOLV>
16.9202

>  <SCORE.INTER.VDW>
-21.7913

>  <SCORE.INTER.norm>
-0.438032

>  <SCORE.INTRA>
-1.30582

>  <SCORE.INTRA.DIHEDRAL>
-1.67024

>  <SCORE.INTRA.DIHEDRAL.0>
6.31833

>  <SCORE.INTRA.POLAR>
0

>  <SCORE.INTRA.POLAR.0>
0

>  <SCORE.INTRA.REPUL>
0

>  <SCORE.INTRA.REPUL.0>
0

>  <SCORE.INTRA.SOLV>
-0.506637

>  <SCORE.INTRA.SOLV.lig_0>
-48.4015

>  <SCORE.INTRA.VDW>
-0.217381

>  <SCORE.INTRA.VDW.0>
-2.83256

>  <SCORE.INTRA.norm>
-0.0483637

>  <SCORE.RESTR>
0

>  <SCORE.RESTR.CAVITY>
0

>  <SCORE.RESTR.norm>
0

>  <SCORE.SYSTEM>
0

>  <SCORE.SYSTEM.CONST>
0

>  <SCORE.SYSTEM.DIHEDRAL>
0

>  <SCORE.SYSTEM.SOLV>
0

>  <SCORE.SYSTEM.norm>
0

>  <SCORE.heavy>
27

>  <SCORE.norm>
-0.486395

>  <RMSD>
3.080

$$$$
ligand
 OpenBabel02271912153D
libRbt.so/2013.1/901 2013/11/27
 27 29  0  0  0  0  0  0  0  0999 V2000
   12.0758   10.0878   26.9036 N   0  0  0  0  0  0  0  0  0  0  0  0
   12.4980    9.9957   28.3219 C   0  0  2  0  0  0  0  0  0  0  0  0
   13.9555    9.5537   28.3464 C   0  0  0  0  0  0  0  0  0  0  0  0
   14.8418    9.9155   29.1896 O   0  0  0  0  0  0  0  0  0  0  0  0
   11.5603    9.0324   29.0529 C   0  0  0  0  0  0  0  0  0  0  0  0
   11.5381    7.6439   28.4277 C   0  0  0  0  0  0  0  0  0  0  0  0
   12.8862    6.4221   28.6423 S   0  0  2  0  0  0  0  0  0  0  0  0
   12.4473    5.2974   27.3182 C   0  0  0  0  0  0  0  0  0  0  0  0
   12.2514    5.5967   30.1363 C   0  0  0  0  0  0  0  0  0  0  0  0
   12.6764    6.3150   31.3874 C   0  0  1  0  0  0  0  0  0  0  0  0
   12.6160    5.4688   32.5610 O   0  0  0  0  0  0  0  0  0  0  0  0
   14.0736    6.8890   31.3299 C   0  0  1  0  0  0  0  0  0  0  0  0
   13.9766    8.2092   31.0136 O   0  0  0  0  0  0  0  0  0  0  0  0
   14.4585    6.8053   32.7885 C   0  0  1  0  0  0  0  0  0  0  0  0
   13.9233    7.9093   33.3718 O   0  0  0  0  0  0  0  0  0  0  0  0
   13.7662    5.5478   33.3591 C   0  0  2  0  0  0  0  0  0  0  0  0
   14.3120    8.8188   27.4237 O   0  0  0  0  0  0  0  0  0  0  0  0
   14.1565    0.7174   31.4384 N   0  0  0  0  0  0  0  0  0  0  0  0
   13.0450    1.5813   31.7191 C   0  0  0  0  0  0  0  0  0  0  0  0
   13.0752    2.8983   32.2411 N   0  0  0  0  0  0  0  0  0  0  0  0
   14.2713    3.2870   32.4457 C   0  0  0  0  0  0  0  0  0  0  0  0
   15.4819    2.4765   32.1847 C   0  0  0  0  0  0  0  0  0  0  0  0
   15.4082    1.2286   31.7039 C   0  0  0  0  0  0  0  0  0  0  0  0
   16.5599    0.6119   31.5365 N   0  0  0  0  0  0  0  0  0  0  0  0
   16.6011    3.0901   32.4865 N   0  0  0  0  0  0  0  0  0  0  0  0
   16.0891    4.2943   32.9334 C   0  0  0  0  0  0  0  0  0  0  0  0
   14.6417    4.4327   32.9071 N   0  0  0  0  0  0  0  0  0  0  0  0
  2  1  1  6  0  0  0
  2  3  1  0  0  0  0
  2  5  1  0  0  0  0
  3  4  1  0  0  0  0
  3 17  1  0  0  0  0
  5  6  1  0  0  0  0
  7  6  1  6  0  0  0
  7  8  1  0  0  0  0
  7  9  1  0  0  0  0
 10  9  1  6  0  0  0
 10 11  1  0  0  0  0
 10 12  1  0  0  0  0
 11 16  1  0  0  0  0
 12 13  1  1  0  0  0
 12 14  1  0  0  0  0
 14 15  1  1  0  0  0
 14 16  1  0  0  0  0
 16 27  1  6  0  0  0
 18 19  2  0  0  0  0
 18 23  1  0  0  0  0
 19 20  1  0  0  0  0
 20 21  2  0  0  0  0
 21 22  1  0  0  0  0
 21 27  1  0  0  0  0
 22 23  2  0  0  0  0
 22 25  1  0  0  0  0
 23 24  1  0  0  0  0
 25 26  2  0  0  0  0
 26 27  1  0  0  0  0
M  END
>  <CHROM.1>
145.41622474,57.85401454,75.91177630,-164.46729611,-85.93780653,-159.26805624
-31.85794003,13.75434416,5.84344481,30.64188165,2.31600101,-1.18907578,0.18358824

>  <Name>
ligand

>  <RI>
0

>  <Rbt.Current_Directory>
/home/itssahil/PROJECTS/Mol_Feturizer/Test_systems_manuscript/rnas/4aob

>  <Rbt.Executable>
rbdock ($Id: //depot/dev/client3/rdock/2013.1/src/exe/rbdock.cxx#4 $)

>  <Rbt.Library>
libRbt.so (2013.1, Build901 2013/11/27)

>  <Rbt.Parameter_File>
/export/apps/rDock/src/rDock_2013.1_src/data/scripts/dock_solv.prm

>  <Rbt.Receptor>
prm/pocket_docking_2.prm

>  <SCORE>
-7.64282

>  <SCORE.INTER>
-9.74092

>  <SCORE.INTER.CONST>
1

>  <SCORE.INTER.POLAR>
0

>  <SCORE.INTER.ROT>
7

>  <SCORE.INTER.SOLV>
16.3496

>  <SCORE.INTER.VDW>
-20.2105

>  <SCORE.INTER.norm>
-0.360775

>  <SCORE.INTRA>
0.87005

>  <SCORE.INTRA.DIHEDRAL>
1.2748

>  <SCORE.INTRA.DIHEDRAL.0>
6.31833

>  <SCORE.INTRA.POLAR>
0

>  <SCORE.INTRA.POLAR.0>
0

>  <SCORE.INTRA.REPUL>
0

>  <SCORE.INTRA.REPUL.0>
0

>  <SCORE.INTRA.SOLV>
1.2654

>  <SCORE.INTRA.SOLV.lig_0>
-48.4015

>  <SCORE.INTRA.VDW>
-0.400053

>  <SCORE.INTRA.VDW.0>
-2.83256

>  <SCORE.INTRA.norm>
0.0322241

>  <SCORE.RESTR>
1.22804

>  <SCORE.RESTR.CAVITY>
1.22804

>  <SCORE.RESTR.norm>
0.0454831

>  <SCORE.SYSTEM>
0

>  <SCORE.SYSTEM.CONST>
0

>  <SCORE.SYSTEM.DIHEDRAL>
0

>  <SCORE.SYSTEM.SOLV>
0

>  <SCORE.SYSTEM.norm>
0

>  <SCORE.heavy>
27

>  <SCORE.norm>
-0.283067

>  <RMSD>
3.083

$$$$
ligand
 OpenBabel02271912153D
libRbt.so/2013.1/901 2013/11/27
 27 29  0  0  0  0  0  0  0  0999 V2000
   15.7037    4.5475   27.7811 N   0  0  0  0  0  0  0  0  0  0  0  0
   14.2869    4.9844   27.7703 C   0  0  2  0  0  0  0  0  0  0  0  0
   13.9491    5.4354   26.3551 C   0  0  0  0  0  0  0  0  0  0  0  0
   12.8325    5.9072   25.9576 O   0  0  0  0  0  0  0  0  0  0  0  0
   14.1035    6.0854   28.8172 C   0  0  0  0  0  0  0  0  0  0  0  0
   12.6404    6.3387   29.1556 C   0  0  0  0  0  0  0  0  0  0  0  0
   12.0781    7.7221   30.2169 S   0  0  2  0  0  0  0  0  0  0  0  0
   12.7920    9.0813   29.2929 C   0  0  0  0  0  0  0  0  0  0  0  0
   13.2429    7.4800   31.5955 C   0  0  0  0  0  0  0  0  0  0  0  0
   13.0009    6.1739   32.3008 C   0  0  1  0  0  0  0  0  0  0  0  0
   13.7629    5.0840   31.7277 O   0  0  0  0  0  0  0  0  0  0  0  0
   13.3130    6.1993   33.7796 C   0  0  1  0  0  0  0  0  0  0  0  0
   12.1469    6.3890   34.4555 O   0  0  0  0  0  0  0  0  0  0  0  0
   13.7247    4.7614   33.9920 C   0  0  1  0  0  0  0  0  0  0  0  0
   12.5666    4.0687   34.1485 O   0  0  0  0  0  0  0  0  0  0  0  0
   14.4158    4.3003   32.6898 C   0  0  2  0  0  0  0  0  0  0  0  0
   14.8320    5.2710   25.5114 O   0  0  0  0  0  0  0  0  0  0  0  0
   19.0178    5.2565   30.4354 N   0  0  0  0  0  0  0  0  0  0  0  0
   17.7861    4.6900   29.9635 C   0  0  0  0  0  0  0  0  0  0  0  0
   16.5850    4.4899   30.6882 N   0  0  0  0  0  0  0  0  0  0  0  0
   16.6963    4.9001   31.8895 C   0  0  0  0  0  0  0  0  0  0  0  0
   17.9176    5.5022   32.4694 C   0  0  0  0  0  0  0  0  0  0  0  0
   19.0380    5.6601   31.7527 C   0  0  0  0  0  0  0  0  0  0  0  0
   20.0577    6.1906   32.3959 N   0  0  0  0  0  0  0  0  0  0  0  0
   17.7915    5.8357   33.7317 N   0  0  0  0  0  0  0  0  0  0  0  0
   16.4816    5.4460   33.9420 C   0  0  0  0  0  0  0  0  0  0  0  0
   15.7865    4.8686   32.8027 N   0  0  0  0  0  0  0  0  0  0  0  0
  2  1  1  6  0  0  0
  2  3  1  0  0  0  0
  2  5  1  0  0  0  0
  3  4  1  0  0  0  0
  3 17  1  0  0  0  0
  5  6  1  0  0  0  0
  7  6  1  6  0  0  0
  7  8  1  0  0  0  0
  7  9  1  0  0  0  0
 10  9  1  6  0  0  0
 10 11  1  0  0  0  0
 10 12  1  0  0  0  0
 11 16  1  0  0  0  0
 12 13  1  1  0  0  0
 12 14  1  0  0  0  0
 14 15  1  6  0  0  0
 14 16  1  0  0  0  0
 16 27  1  1  0  0  0
 18 19  2  0  0  0  0
 18 23  1  0  0  0  0
 19 20  1  0  0  0  0
 20 21  2  0  0  0  0
 21 22  1  0  0  0  0
 21 27  1  0  0  0  0
 22 23  2  0  0  0  0
 22 25  1  0  0  0  0
 23 24  1  0  0  0  0
 25 26  2  0  0  0  0
 26 27  1  0  0  0  0
M  END
>  <CHROM.1>
-178.33796577,-164.40488771,-172.43468269,56.61075337,-65.15069352,89.74392075
-64.26640463,14.82434398,5.76769854,30.87730629,-2.09551971,-0.23492879,1.59727275

>  <Name>
ligand

>  <RI>
0

>  <Rbt.Current_Directory>
/home/itssahil/PROJECTS/Mol_Feturizer/Test_systems_manuscript/rnas/4aob

>  <Rbt.Executable>
rbdock ($Id: //depot/dev/client3/rdock/2013.1/src/exe/rbdock.cxx#4 $)

>  <Rbt.Library>
libRbt.so (2013.1, Build901 2013/11/27)

>  <Rbt.Parameter_File>
/export/apps/rDock/src/rDock_2013.1_src/data/scripts/dock_solv.prm

>  <Rbt.Receptor>
prm/pocket_docking_6.prm

>  <SCORE>
-9.83628

>  <SCORE.INTER>
-10.6654

>  <SCORE.INTER.CONST>
1

>  <SCORE.INTER.POLAR>
0

>  <SCORE.INTER.ROT>
7

>  <SCORE.INTER.SOLV>
10.9443

>  <SCORE.INTER.VDW>
-19.0251

>  <SCORE.INTER.norm>
-0.395016

>  <SCORE.INTRA>
0.829138

>  <SCORE.INTRA.DIHEDRAL>
0.611201

>  <SCORE.INTRA.DIHEDRAL.0>
6.31833

>  <SCORE.INTRA.POLAR>
0

>  <SCORE.INTRA.POLAR.0>
0

>  <SCORE.INTRA.REPUL>
0

>  <SCORE.INTRA.REPUL.0>
0

>  <SCORE.INTRA.SOLV>
0.616161

>  <SCORE.INTRA.SOLV.lig_0>
-48.4015

>  <SCORE.INTRA.VDW>
0.215457

>  <SCORE.INTRA.VDW.0>
-2.83256

>  <SCORE.INTRA.norm>
0.0307088

>  <SCORE.RESTR>
0

>  <SCORE.RESTR.CAVITY>
0

>  <SCORE.RESTR.norm>
0

>  <SCORE.SYSTEM>
0

>  <SCORE.SYSTEM.CONST>
0

>  <SCORE.SYSTEM.DIHEDRAL>
0

>  <SCORE.SYSTEM.SOLV>
0

>  <SCORE.SYSTEM.norm>
0

>  <SCORE.heavy>
27

>  <SCORE.norm>
-0.364307

>  <RMSD>
3.115

$$$$
ligand
 OpenBabel02271912153D
libRbt.so/2013.1/901 2013/11/27
 27 29  0  0  0  0  0  0  0  0999 V2000
   12.2117   10.3727   26.3377 N   0  0  0  0  0  0  0  0  0  0  0  0
   11.8729    9.2576   27.2544 C   0  0  2  0  0  0  0  0  0  0  0  0
   10.3546    9.1576   27.3252 C   0  0  0  0  0  0  0  0  0  0  0  0
    9.6797    8.4765   28.1667 O   0  0  0  0  0  0  0  0  0  0  0  0
   12.5269    9.5212   28.6125 C   0  0  0  0  0  0  0  0  0  0  0  0
   14.0482    9.4976   28.5482 C   0  0  0  0  0  0  0  0  0  0  0  0
   15.1112    9.1431   29.9977 S   0  0  2  0  0  0  0  0  0  0  0  0
   16.6808    8.9765   29.1497 C   0  0  0  0  0  0  0  0  0  0  0  0
   14.5917    7.4213   30.2839 C   0  0  0  0  0  0  0  0  0  0  0  0
   13.8372    7.2793   31.5772 C   0  0  1  0  0  0  0  0  0  0  0  0
   13.0514    6.0641   31.6309 O   0  0  0  0  0  0  0  0  0  0  0  0
   14.7107    7.2936   32.8108 C   0  0  1  0  0  0  0  0  0  0  0  0
   14.6885    8.5511   33.3311 O   0  0  0  0  0  0  0  0  0  0  0  0
   13.8936    6.4148   33.7287 C   0  0  1  0  0  0  0  0  0  0  0  0
   12.9490    7.2283   34.2685 O   0  0  0  0  0  0  0  0  0  0  0  0
   13.2013    5.3619   32.8353 C   0  0  2  0  0  0  0  0  0  0  0  0
    9.7330    9.7535   26.4437 O   0  0  0  0  0  0  0  0  0  0  0  0
   14.5015    0.5466   31.3196 N   0  0  0  0  0  0  0  0  0  0  0  0
   13.2561    1.2571   31.3893 C   0  0  0  0  0  0  0  0  0  0  0  0
   13.0358    2.5892   31.8192 N   0  0  0  0  0  0  0  0  0  0  0  0
   14.1281    3.1532   32.1547 C   0  0  0  0  0  0  0  0  0  0  0  0
   15.4608    2.5105   32.1139 C   0  0  0  0  0  0  0  0  0  0  0  0
   15.6233    1.2426   31.7142 C   0  0  0  0  0  0  0  0  0  0  0  0
   16.8591    0.7878   31.7449 N   0  0  0  0  0  0  0  0  0  0  0  0
   16.4338    3.2907   32.5197 N   0  0  0  0  0  0  0  0  0  0  0  0
   15.7074    4.4308   32.8106 C   0  0  0  0  0  0  0  0  0  0  0  0
   14.2730    4.3611   32.5818 N   0  0  0  0  0  0  0  0  0  0  0  0
  2  1  1  6  0  0  0
  2  3  1  0  0  0  0
  2  5  1  0  0  0  0
  3  4  1  0  0  0  0
  3 17  1  0  0  0  0
  5  6  1  0  0  0  0
  7  6  1  6  0  0  0
  7  8  1  0  0  0  0
  7  9  1  0  0  0  0
 10  9  1  6  0  0  0
 10 11  1  0  0  0  0
 10 12  1  0  0  0  0
 11 16  1  0  0  0  0
 12 13  1  1  0  0  0
 12 14  1  0  0  0  0
 14 15  1  6  0  0  0
 14 16  1  0  0  0  0
 16 27  1  6  0  0  0
 18 19  2  0  0  0  0
 18 23  1  0  0  0  0
 19 20  1  0  0  0  0
 20 21  2  0  0  0  0
 21 22  1  0  0  0  0
 21 27  1  0  0  0  0
 22 23  2  0  0  0  0
 22 25  1  0  0  0  0
 23 24  1  0  0  0  0
 25 26  2  0  0  0  0
 26 27  1  0  0  0  0
M  END
>  <CHROM.1>
-167.62970347,-65.14277634,-156.06657842,169.88351523,-112.70695235,161.19756757
-90.80385583,13.81127791,6.33333139,30.76420505,2.08865209,-0.82853740,-0.15629657

>  <Name>
ligand

>  <RI>
0

>  <Rbt.Current_Directory>
/home/itssahil/PROJECTS/Mol_Feturizer/Test_systems_manuscript/rnas/4aob

>  <Rbt.Executable>
rbdock ($Id: //depot/dev/client3/rdock/2013.1/src/exe/rbdock.cxx#4 $)

>  <Rbt.Library>
libRbt.so (2013.1, Build901 2013/11/27)

>  <Rbt.Parameter_File>
/export/apps/rDock/src/rDock_2013.1_src/data/scripts/dock_solv.prm

>  <Rbt.Receptor>
prm/pocket_docking_7.prm

>  <SCORE>
-10.8406

>  <SCORE.INTER>
-13.4694

>  <SCORE.INTER.CONST>
1

>  <SCORE.INTER.POLAR>
0

>  <SCORE.INTER.ROT>
7

>  <SCORE.INTER.SOLV>
18.1666

>  <SCORE.INTER.VDW>
-23.3018

>  <SCORE.INTER.norm>
-0.498867

>  <SCORE.INTRA>
2.62883

>  <SCORE.INTRA.DIHEDRAL>
3.50186

>  <SCORE.INTRA.DIHEDRAL.0>
6.31833

>  <SCORE.INTRA.POLAR>
0

>  <SCORE.INTRA.POLAR.0>
0

>  <SCORE.INTRA.REPUL>
0

>  <SCORE.INTRA.REPUL.0>
0

>  <SCORE.INTRA.SOLV>
0.0139874

>  <SCORE.INTRA.SOLV.lig_0>
-48.4015

>  <SCORE.INTRA.VDW>
0.870908

>  <SCORE.INTRA.VDW.0>
-2.83256

>  <SCORE.INTRA.norm>
0.0973641

>  <SCORE.RESTR>
0

>  <SCORE.RESTR.CAVITY>
0

>  <SCORE.RESTR.norm>
0

>  <SCORE.SYSTEM>
0

>  <SCORE.SYSTEM.CONST>
0

>  <SCORE.SYSTEM.DIHEDRAL>
0

>  <SCORE.SYSTEM.SOLV>
0

>  <SCORE.SYSTEM.norm>
0

>  <SCORE.heavy>
27

>  <SCORE.norm>
-0.401503

>  <RMSD>
3.256

$$$$
ligand
 OpenBabel02271912153D
libRbt.so/2013.1/901 2013/11/27
 27 29  0  0  0  0  0  0  0  0999 V2000
   10.7119    9.0045   27.0631 N   0  0  0  0  0  0  0  0  0  0  0  0
   11.5308    8.9827   28.2989 C   0  0  2  0  0  0  0  0  0  0  0  0
   12.6492   10.0038   28.1348 C   0  0  0  0  0  0  0  0  0  0  0  0
   13.4489   10.0975   27.1452 O   0  0  0  0  0  0  0  0  0  0  0  0
   12.0399    7.5577   28.5267 C   0  0  0  0  0  0  0  0  0  0  0  0
   12.6776    7.3721   29.8971 C   0  0  0  0  0  0  0  0  0  0  0  0
   14.0807    8.3846   30.4995 S   0  0  2  0  0  0  0  0  0  0  0  0
   15.2455    8.0473   29.1804 C   0  0  0  0  0  0  0  0  0  0  0  0
   14.6287    7.2902   31.8479 C   0  0  0  0  0  0  0  0  0  0  0  0
   13.6601    7.3028   32.9983 C   0  0  1  0  0  0  0  0  0  0  0  0
   12.4245    6.6129   32.6914 O   0  0  0  0  0  0  0  0  0  0  0  0
   14.2001    6.6931   34.2718 C   0  0  1  0  0  0  0  0  0  0  0  0
   14.6371    7.7029   35.0729 O   0  0  0  0  0  0  0  0  0  0  0  0
   12.9224    6.1617   34.8780 C   0  0  1  0  0  0  0  0  0  0  0  0
   12.3506    7.2191   35.5109 O   0  0  0  0  0  0  0  0  0  0  0  0
   12.0190    5.7294   33.7020 C   0  0  2  0  0  0  0  0  0  0  0  0
   12.8217   10.7720   29.0826 O   0  0  0  0  0  0  0  0  0  0  0  0
   13.7288    2.5752   29.9201 N   0  0  0  0  0  0  0  0  0  0  0  0
   13.2943    3.9432   29.9435 C   0  0  0  0  0  0  0  0  0  0  0  0
   12.8548    4.6988   31.0587 N   0  0  0  0  0  0  0  0  0  0  0  0
   12.8924    4.0081   32.1288 C   0  0  0  0  0  0  0  0  0  0  0  0
   13.3284    2.5961   32.2108 C   0  0  0  0  0  0  0  0  0  0  0  0
   13.7231    1.9131   31.1284 C   0  0  0  0  0  0  0  0  0  0  0  0
   14.0664    0.6588   31.3381 N   0  0  0  0  0  0  0  0  0  0  0  0
   13.2681    2.0962   33.4219 N   0  0  0  0  0  0  0  0  0  0  0  0
   12.7974    3.2034   34.1036 C   0  0  0  0  0  0  0  0  0  0  0  0
   12.5658    4.4013   33.3125 N   0  0  0  0  0  0  0  0  0  0  0  0
  2  1  1  6  0  0  0
  2  3  1  0  0  0  0
  2  5  1  0  0  0  0
  3  4  1  0  0  0  0
  3 17  1  0  0  0  0
  5  6  1  0  0  0  0
  7  6  1  6  0  0  0
  7  8  1  0  0  0  0
  7  9  1  0  0  0  0
 10  9  1  6  0  0  0
 10 11  1  0  0  0  0
 10 12  1  0  0  0  0
 11 16  1  0  0  0  0
 12 13  1  1  0  0  0
 12 14  1  0  0  0  0
 14 15  1  6  0  0  0
 14 16  1  0  0  0  0
 16 27  1  6  0  0  0
 18 19  2  0  0  0  0
 18 23  1  0  0  0  0
 19 20  1  0  0  0  0
 20 21  2  0  0  0  0
 21 22  1  0  0  0  0
 21 27  1  0  0  0  0
 22 23  2  0  0  0  0
 22 25  1  0  0  0  0
 23 24  1  0  0  0  0
 25 26  2  0  0  0  0
 26 27  1  0  0  0  0
M  END
>  <CHROM.1>
-50.96619197,-169.56726183,-56.67981055,-56.93478259,-71.69123295,71.80002391
-23.23035627,13.18560082,6.32838737,31.33533015,2.48209765,-1.48678378,0.24850507

>  <Name>
ligand

>  <RI>
0

>  <Rbt.Current_Directory>
/home/itssahil/PROJECTS/Mol_Feturizer/Test_systems_manuscript/rnas/4aob

>  <Rbt.Executable>
rbdock ($Id: //depot/dev/client3/rdock/2013.1/src/exe/rbdock.cxx#4 $)

>  <Rbt.Library>
libRbt.so (2013.1, Build901 2013/11/27)

>  <Rbt.Parameter_File>
/export/apps/rDock/src/rDock_2013.1_src/data/scripts/dock_solv.prm

>  <Rbt.Receptor>
prm/pocket_docking_6.prm

>  <SCORE>
-15.5813

>  <SCORE.INTER>
-13.5449

>  <SCORE.INTER.CONST>
1

>  <SCORE.INTER.POLAR>
0

>  <SCORE.INTER.ROT>
7

>  <SCORE.INTER.SOLV>
20.1211

>  <SCORE.INTER.VDW>
-24.0036

>  <SCORE.INTER.norm>
-0.501662

>  <SCORE.INTRA>
-2.03641

>  <SCORE.INTRA.DIHEDRAL>
-2.07773

>  <SCORE.INTRA.DIHEDRAL.0>
6.31833

>  <SCORE.INTRA.POLAR>
0

>  <SCORE.INTRA.POLAR.0>
0

>  <SCORE.INTRA.REPUL>
0

>  <SCORE.INTRA.REPUL.0>
0

>  <SCORE.INTRA.SOLV>
-0.56272

>  <SCORE.INTRA.SOLV.lig_0>
-48.4015

>  <SCORE.INTRA.VDW>
-0.716181

>  <SCORE.INTRA.VDW.0>
-2.83256

>  <SCORE.INTRA.norm>
-0.0754224

>  <SCORE.RESTR>
0

>  <SCORE.RESTR.CAVITY>
0

>  <SCORE.RESTR.norm>
0

>  <SCORE.SYSTEM>
0

>  <SCORE.SYSTEM.CONST>
0

>  <SCORE.SYSTEM.DIHEDRAL>
0

>  <SCORE.SYSTEM.SOLV>
0

>  <SCORE.SYSTEM.norm>
0

>  <SCORE.heavy>
27

>  <SCORE.norm>
-0.577084

>  <RMSD>
3.349

$$$$
ligand
 OpenBabel02271912153D
libRbt.so/2013.1/901 2013/11/27
 27 29  0  0  0  0  0  0  0  0999 V2000
   11.7590    8.2798   25.8508 N   0  0  0  0  0  0  0  0  0  0  0  0
   10.9537    9.1925   26.6973 C   0  0  2  0  0  0  0  0  0  0  0  0
   10.6091   10.4194   25.8628 C   0  0  0  0  0  0  0  0  0  0  0  0
    9.4466   10.7605   25.4632 O   0  0  0  0  0  0  0  0  0  0  0  0
   11.7510    9.5235   27.9608 C   0  0  0  0  0  0  0  0  0  0  0  0
   11.8274    8.3534   28.9325 C   0  0  0  0  0  0  0  0  0  0  0  0
   12.6568    8.4521   30.5631 S   0  0  2  0  0  0  0  0  0  0  0  0
   14.3576    8.4959   30.0010 C   0  0  0  0  0  0  0  0  0  0  0  0
   12.4184    6.7221   31.0792 C   0  0  0  0  0  0  0  0  0  0  0  0
   12.4690    6.5797   32.5756 C   0  0  1  0  0  0  0  0  0  0  0  0
   12.2336    5.2192   33.0120 O   0  0  0  0  0  0  0  0  0  0  0  0
   13.7736    7.0222   33.1979 C   0  0  1  0  0  0  0  0  0  0  0  0
   13.6114    8.2900   33.6656 O   0  0  0  0  0  0  0  0  0  0  0  0
   13.8234    6.1054   34.3977 C   0  0  1  0  0  0  0  0  0  0  0  0
   13.0554    6.7022   35.3461 O   0  0  0  0  0  0  0  0  0  0  0  0
   13.1571    4.7787   33.9709 C   0  0  2  0  0  0  0  0  0  0  0  0
   11.5628   11.1099   25.4994 O   0  0  0  0  0  0  0  0  0  0  0  0
   14.5601    0.7398   30.9886 N   0  0  0  0  0  0  0  0  0  0  0  0
   13.3101    1.1624   31.5539 C   0  0  0  0  0  0  0  0  0  0  0  0
   13.0571    2.3047   32.3532 N   0  0  0  0  0  0  0  0  0  0  0  0
   14.1179    2.9876   32.5323 C   0  0  0  0  0  0  0  0  0  0  0  0
   15.4504    2.6410   31.9892 C   0  0  0  0  0  0  0  0  0  0  0  0
   15.6493    1.5425   31.2493 C   0  0  0  0  0  0  0  0  0  0  0  0
   16.8871    1.3419   30.8459 N   0  0  0  0  0  0  0  0  0  0  0  0
   16.3912    3.4929   32.3200 N   0  0  0  0  0  0  0  0  0  0  0  0
   15.6426    4.3817   33.0694 C   0  0  0  0  0  0  0  0  0  0  0  0
   14.2258    4.0830   33.2040 N   0  0  0  0  0  0  0  0  0  0  0  0
  2  1  1  6  0  0  0
  2  3  1  0  0  0  0
  2  5  1  0  0  0  0
  3  4  1  0  0  0  0
  3 17  1  0  0  0  0
  5  6  1  0  0  0  0
  7  6  1  6  0  0  0
  7  8  1  0  0  0  0
  7  9  1  0  0  0  0
 10  9  1  6  0  0  0
 10 11  1  0  0  0  0
 10 12  1  0  0  0  0
 11 16  1  0  0  0  0
 12 13  1  1  0  0  0
 12 14  1  0  0  0  0
 14 15  1  1  0  0  0
 14 16  1  0  0  0  0
 16 27  1  6  0  0  0
 18 19  2  0  0  0  0
 18 23  1  0  0  0  0
 19 20  1  0  0  0  0
 20 21  2  0  0  0  0
 21 22  1  0  0  0  0
 21 27  1  0  0  0  0
 22 23  2  0  0  0  0
 22 25  1  0  0  0  0
 23 24  1  0  0  0  0
 25 26  2  0  0  0  0
 26 27  1  0  0  0  0
M  END
>  <CHROM.1>
112.98442103,-72.65850573,-177.61906058,-72.03883847,-156.38624287,177.90905407
-66.44690284,13.20732586,6.19123289,30.84940909,-2.78924947,-1.17653462,1.24607287

>  <Name>
ligand

>  <RI>
0

>  <Rbt.Current_Directory>
/home/itssahil/PROJECTS/Mol_Feturizer/Test_systems_manuscript/rnas/4aob

>  <Rbt.Executable>
rbdock ($Id: //depot/dev/client3/rdock/2013.1/src/exe/rbdock.cxx#4 $)

>  <Rbt.Library>
libRbt.so (2013.1, Build901 2013/11/27)

>  <Rbt.Parameter_File>
/export/apps/rDock/src/rDock_2013.1_src/data/scripts/dock_solv.prm

>  <Rbt.Receptor>
prm/pocket_docking_6.prm

>  <SCORE>
-15.7879

>  <SCORE.INTER>
-16.382

>  <SCORE.INTER.CONST>
1

>  <SCORE.INTER.POLAR>
0

>  <SCORE.INTER.ROT>
7

>  <SCORE.INTER.SOLV>
15.3878

>  <SCORE.INTER.VDW>
-24.3172

>  <SCORE.INTER.norm>
-0.606739

>  <SCORE.INTRA>
0.594043

>  <SCORE.INTRA.DIHEDRAL>
-0.035845

>  <SCORE.INTRA.DIHEDRAL.0>
6.31833

>  <SCORE.INTRA.POLAR>
0

>  <SCORE.INTRA.POLAR.0>
0

>  <SCORE.INTRA.REPUL>
0

>  <SCORE.INTRA.REPUL.0>
0

>  <SCORE.INTRA.SOLV>
0.0730159

>  <SCORE.INTRA.SOLV.lig_0>
-48.4015

>  <SCORE.INTRA.VDW>
0.575458

>  <SCORE.INTRA.VDW.0>
-2.83256

>  <SCORE.INTRA.norm>
0.0220016

>  <SCORE.RESTR>
0

>  <SCORE.RESTR.CAVITY>
0

>  <SCORE.RESTR.norm>
0

>  <SCORE.SYSTEM>
0

>  <SCORE.SYSTEM.CONST>
0

>  <SCORE.SYSTEM.DIHEDRAL>
0

>  <SCORE.SYSTEM.SOLV>
0

>  <SCORE.SYSTEM.norm>
0

>  <SCORE.heavy>
27

>  <SCORE.norm>
-0.584737

>  <RMSD>
3.355

$$$$
ligand
 OpenBabel02271912153D
libRbt.so/2013.1/901 2013/11/27
 27 29  0  0  0  0  0  0  0  0999 V2000
   11.6176    5.6386   27.2776 N   0  0  0  0  0  0  0  0  0  0  0  0
   11.6688    6.7033   28.3082 C   0  0  2  0  0  0  0  0  0  0  0  0
   10.4555    7.6026   28.1097 C   0  0  0  0  0  0  0  0  0  0  0  0
   10.2228    8.7030   28.7118 O   0  0  0  0  0  0  0  0  0  0  0  0
   13.0008    7.4461   28.1825 C   0  0  0  0  0  0  0  0  0  0  0  0
   14.2034    6.5445   28.4274 C   0  0  0  0  0  0  0  0  0  0  0  0
   14.7657    6.0492   30.0992 S   0  0  2  0  0  0  0  0  0  0  0  0
   13.1733    5.6409   30.8119 C   0  0  0  0  0  0  0  0  0  0  0  0
   15.1180    7.7107   30.7560 C   0  0  0  0  0  0  0  0  0  0  0  0
   15.8241    7.6426   32.0822 C   0  0  1  0  0  0  0  0  0  0  0  0
   15.0199    7.0110   33.1074 O   0  0  0  0  0  0  0  0  0  0  0  0
   17.1456    6.9096   32.0454 C   0  0  1  0  0  0  0  0  0  0  0  0
   18.1401    7.8337   31.9488 O   0  0  0  0  0  0  0  0  0  0  0  0
   17.1845    6.3553   33.4503 C   0  0  1  0  0  0  0  0  0  0  0  0
   17.6543    7.3647   34.2287 O   0  0  0  0  0  0  0  0  0  0  0  0
   15.7233    6.0503   33.8480 C   0  0  2  0  0  0  0  0  0  0  0  0
    9.5974    7.1865   27.3294 O   0  0  0  0  0  0  0  0  0  0  0  0
   12.4665    2.0438   33.1298 N   0  0  0  0  0  0  0  0  0  0  0  0
   12.3740    3.2709   33.8689 C   0  0  0  0  0  0  0  0  0  0  0  0
   13.3441    4.2980   33.9772 N   0  0  0  0  0  0  0  0  0  0  0  0
   14.3863    4.0230   33.2975 C   0  0  0  0  0  0  0  0  0  0  0  0
   14.5767    2.7909   32.4998 C   0  0  0  0  0  0  0  0  0  0  0  0
   13.6388    1.8369   32.4360 C   0  0  0  0  0  0  0  0  0  0  0  0
   13.9442    0.7833   31.7068 N   0  0  0  0  0  0  0  0  0  0  0  0
   15.7396    2.7292   31.8963 N   0  0  0  0  0  0  0  0  0  0  0  0
   16.2783    3.9325   32.3133 C   0  0  0  0  0  0  0  0  0  0  0  0
   15.4445    4.7502   33.1798 N   0  0  0  0  0  0  0  0  0  0  0  0
  2  1  1  6  0  0  0
  2  3  1  0  0  0  0
  2  5  1  0  0  0  0
  3  4  1  0  0  0  0
  3 17  1  0  0  0  0
  5  6  1  0  0  0  0
  7  6  1  6  0  0  0
  7  8  1  0  0  0  0
  7  9  1  0  0  0  0
 10  9  1  6  0  0  0
 10 11  1  0  0  0  0
 10 12  1  0  0  0  0
 11 16  1  0  0  0  0
 12 13  1  1  0  0  0
 12 14  1  0  0  0  0
 14 15  1  1  0  0  0
 14 16  1  0  0  0  0
 16 27  1  6  0  0  0
 18 19  2  0  0  0  0
 18 23  1  0  0  0  0
 19 20  1  0  0  0  0
 20 21  2  0  0  0  0
 21 22  1  0  0  0  0
 21 27  1  0  0  0  0
 22 23  2  0  0  0  0
 22 25  1  0  0  0  0
 23 24  1  0  0  0  0
 25 26  2  0  0  0  0
 26 27  1  0  0  0  0
M  END
>  <CHROM.1>
-172.34018909,-61.96322664,-78.66496567,44.77468809,-170.83982231,-62.92442882
-79.54945190,14.19802591,5.62595653,31.27374757,2.46385379,-0.61235366,-0.53342187

>  <Name>
ligand

>  <RI>
0

>  <Rbt.Current_Directory>
/home/itssahil/PROJECTS/Mol_Feturizer/Test_systems_manuscript/rnas/4aob

>  <Rbt.Executable>
rbdock ($Id: //depot/dev/client3/rdock/2013.1/src/exe/rbdock.cxx#4 $)

>  <Rbt.Library>
libRbt.so (2013.1, Build901 2013/11/27)

>  <Rbt.Parameter_File>
/export/apps/rDock/src/rDock_2013.1_src/data/scripts/dock_solv.prm

>  <Rbt.Receptor>
prm/pocket_docking_7.prm

>  <SCORE>
-7.67377

>  <SCORE.INTER>
-8.04365

>  <SCORE.INTER.CONST>
1

>  <SCORE.INTER.POLAR>
0

>  <SCORE.INTER.ROT>
7

>  <SCORE.INTER.SOLV>
17.4374

>  <SCORE.INTER.VDW>
-19.4416

>  <SCORE.INTER.norm>
-0.297913

>  <SCORE.INTRA>
0.369888

>  <SCORE.INTRA.DIHEDRAL>
-0.795988

>  <SCORE.INTRA.DIHEDRAL.0>
6.31833

>  <SCORE.INTRA.POLAR>
0

>  <SCORE.INTRA.POLAR.0>
0

>  <SCORE.INTRA.REPUL>
0

>  <SCORE.INTRA.REPUL.0>
0

>  <SCORE.INTRA.SOLV>
1.21946

>  <SCORE.INTRA.SOLV.lig_0>
-48.4015

>  <SCORE.INTRA.VDW>
0.158153

>  <SCORE.INTRA.VDW.0>
-2.83256

>  <SCORE.INTRA.norm>
0.0136995

>  <SCORE.RESTR>
0

>  <SCORE.RESTR.CAVITY>
0

>  <SCORE.RESTR.norm>
0

>  <SCORE.SYSTEM>
0

>  <SCORE.SYSTEM.CONST>
0

>  <SCORE.SYSTEM.DIHEDRAL>
0

>  <SCORE.SYSTEM.SOLV>
0

>  <SCORE.SYSTEM.norm>
0

>  <SCORE.heavy>
27

>  <SCORE.norm>
-0.284214

>  <RMSD>
3.375

$$$$
ligand
 OpenBabel02271912153D
libRbt.so/2013.1/901 2013/11/27
 27 29  0  0  0  0  0  0  0  0999 V2000
   11.3344    8.1004   26.8083 N   0  0  0  0  0  0  0  0  0  0  0  0
   12.3512    7.5081   27.7103 C   0  0  2  0  0  0  0  0  0  0  0  0
   12.0389    7.9662   29.1290 C   0  0  0  0  0  0  0  0  0  0  0  0
   11.9275    9.1731   29.5271 O   0  0  0  0  0  0  0  0  0  0  0  0
   13.7412    7.9302   27.2293 C   0  0  0  0  0  0  0  0  0  0  0  0
   14.8609    7.3546   28.0861 C   0  0  0  0  0  0  0  0  0  0  0  0
   15.0649    7.7383   29.8659 S   0  0  2  0  0  0  0  0  0  0  0  0
   15.6350    9.4303   29.7157 C   0  0  0  0  0  0  0  0  0  0  0  0
   16.5936    6.7935   30.1603 C   0  0  0  0  0  0  0  0  0  0  0  0
   16.9559    6.7692   31.6197 C   0  0  1  0  0  0  0  0  0  0  0  0
   15.9147    6.1871   32.4406 O   0  0  0  0  0  0  0  0  0  0  0  0
   18.2318    6.0205   31.9305 C   0  0  1  0  0  0  0  0  0  0  0  0
   19.2388    6.9289   32.0459 O   0  0  0  0  0  0  0  0  0  0  0  0
   17.9180    5.5209   33.3214 C   0  0  1  0  0  0  0  0  0  0  0  0
   18.2059    6.5545   34.1547 O   0  0  0  0  0  0  0  0  0  0  0  0
   16.3982    5.2481   33.3630 C   0  0  2  0  0  0  0  0  0  0  0  0
   11.9418    7.0751   29.9746 O   0  0  0  0  0  0  0  0  0  0  0  0
   13.2862    1.3730   31.7901 N   0  0  0  0  0  0  0  0  0  0  0  0
   13.0430    2.6448   32.4098 C   0  0  0  0  0  0  0  0  0  0  0  0
   13.9928    3.6270   32.7851 N   0  0  0  0  0  0  0  0  0  0  0  0
   15.1773    3.2607   32.4909 C   0  0  0  0  0  0  0  0  0  0  0  0
   15.5315    1.9757   31.8478 C   0  0  0  0  0  0  0  0  0  0  0  0
   14.6027    1.0673   31.5220 C   0  0  0  0  0  0  0  0  0  0  0  0
   15.0555   -0.0415   30.9738 N   0  0  0  0  0  0  0  0  0  0  0  0
   16.8198    1.8206   31.6562 N   0  0  0  0  0  0  0  0  0  0  0  0
   17.2747    3.0181   32.1767 C   0  0  0  0  0  0  0  0  0  0  0  0
   16.2631    3.9262   32.6931 N   0  0  0  0  0  0  0  0  0  0  0  0
  2  1  1  6  0  0  0
  2  3  1  0  0  0  0
  2  5  1  0  0  0  0
  3  4  1  0  0  0  0
  3 17  1  0  0  0  0
  5  6  1  0  0  0  0
  7  6  1  6  0  0  0
  7  8  1  0  0  0  0
  7  9  1  0  0  0  0
 10  9  1  6  0  0  0
 10 11  1  0  0  0  0
 10 12  1  0  0  0  0
 11 16  1  0  0  0  0
 12 13  1  1  0  0  0
 12 14  1  0  0  0  0
 14 15  1  1  0  0  0
 14 16  1  0  0  0  0
 16 27  1  6  0  0  0
 18 19  2  0  0  0  0
 18 23  1  0  0  0  0
 19 20  1  0  0  0  0
 20 21  2  0  0  0  0
 21 22  1  0  0  0  0
 21 27  1  0  0  0  0
 22 23  2  0  0  0  0
 22 25  1  0  0  0  0
 23 24  1  0  0  0  0
 25 26  2  0  0  0  0
 26 27  1  0  0  0  0
M  END
>  <CHROM.1>
-55.92994016,-179.28956515,-62.24429695,-72.13011460,-173.13923319,58.85169987
-74.11613759,15.16848348,5.58828526,30.94943668,2.08889184,-0.54942973,-0.34565353

>  <Name>
ligand

>  <RI>
0

>  <Rbt.Current_Directory>
/home/itssahil/PROJECTS/Mol_Feturizer/Test_systems_manuscript/rnas/4aob

>  <Rbt.Executable>
rbdock ($Id: //depot/dev/client3/rdock/2013.1/src/exe/rbdock.cxx#4 $)

>  <Rbt.Library>
libRbt.so (2013.1, Build901 2013/11/27)

>  <Rbt.Parameter_File>
/export/apps/rDock/src/rDock_2013.1_src/data/scripts/dock_solv.prm

>  <Rbt.Receptor>
prm/pocket_docking_6.prm

>  <SCORE>
-10.2082

>  <SCORE.INTER>
-8.43844

>  <SCORE.INTER.CONST>
1

>  <SCORE.INTER.POLAR>
0

>  <SCORE.INTER.ROT>
7

>  <SCORE.INTER.SOLV>
16.249

>  <SCORE.INTER.VDW>
-19.3086

>  <SCORE.INTER.norm>
-0.312535

>  <SCORE.INTRA>
-1.76971

>  <SCORE.INTRA.DIHEDRAL>
-2.35334

>  <SCORE.INTRA.DIHEDRAL.0>
6.31833

>  <SCORE.INTRA.POLAR>
0

>  <SCORE.INTRA.POLAR.0>
0

>  <SCORE.INTRA.REPUL>
0

>  <SCORE.INTRA.REPUL.0>
0

>  <SCORE.INTRA.SOLV>
-0.696902

>  <SCORE.INTRA.SOLV.lig_0>
-48.4015

>  <SCORE.INTRA.VDW>
-0.244592

>  <SCORE.INTRA.VDW.0>
-2.83256

>  <SCORE.INTRA.norm>
-0.0655449

>  <SCORE.RESTR>
0

>  <SCORE.RESTR.CAVITY>
0

>  <SCORE.RESTR.norm>
0

>  <SCORE.SYSTEM>
0

>  <SCORE.SYSTEM.CONST>
0

>  <SCORE.SYSTEM.DIHEDRAL>
0

>  <SCORE.SYSTEM.SOLV>
0

>  <SCORE.SYSTEM.norm>
0

>  <SCORE.heavy>
27

>  <SCORE.norm>
-0.37808

>  <RMSD>
3.479

$$$$
ligand
 OpenBabel02271912153D
libRbt.so/2013.1/901 2013/11/27
 27 29  0  0  0  0  0  0  0  0999 V2000
   11.3696    8.2947   23.6252 N   0  0  0  0  0  0  0  0  0  0  0  0
   12.3440    8.5844   24.7046 C   0  0  2  0  0  0  0  0  0  0  0  0
   13.5415    9.2848   24.0757 C   0  0  0  0  0  0  0  0  0  0  0  0
   14.3395   10.0906   24.6600 O   0  0  0  0  0  0  0  0  0  0  0  0
   12.7076    7.2728   25.4041 C   0  0  0  0  0  0  0  0  0  0  0  0
   11.5675    6.7201   26.2491 C   0  0  0  0  0  0  0  0  0  0  0  0
   11.1575    7.3486   27.9204 S   0  0  2  0  0  0  0  0  0  0  0  0
   10.9324    9.0788   27.5128 C   0  0  0  0  0  0  0  0  0  0  0  0
   12.8310    7.2893   28.6363 C   0  0  0  0  0  0  0  0  0  0  0  0
   12.8263    7.6884   30.0863 C   0  0  1  0  0  0  0  0  0  0  0  0
   11.8821    6.9201   30.8705 O   0  0  0  0  0  0  0  0  0  0  0  0
   14.1693    7.5643   30.7690 C   0  0  1  0  0  0  0  0  0  0  0  0
   14.7518    8.7943   30.7849 O   0  0  0  0  0  0  0  0  0  0  0  0
   13.7258    7.2608   32.1810 C   0  0  1  0  0  0  0  0  0  0  0  0
   13.4420    8.4650   32.7419 O   0  0  0  0  0  0  0  0  0  0  0  0
   12.4239    6.4369   32.0702 C   0  0  2  0  0  0  0  0  0  0  0  0
   13.7107    9.0873   22.8712 O   0  0  0  0  0  0  0  0  0  0  0  0
   12.9365    1.4773   33.5914 N   0  0  0  0  0  0  0  0  0  0  0  0
   12.3032    2.6274   34.1717 C   0  0  0  0  0  0  0  0  0  0  0  0
   12.2266    3.9397   33.6426 N   0  0  0  0  0  0  0  0  0  0  0  0
   12.8046    4.0156   32.5095 C   0  0  0  0  0  0  0  0  0  0  0  0
   13.4796    2.8899   31.8257 C   0  0  0  0  0  0  0  0  0  0  0  0
   13.5419    1.6669   32.3683 C   0  0  0  0  0  0  0  0  0  0  0  0
   14.1893    0.7616   31.6638 N   0  0  0  0  0  0  0  0  0  0  0  0
   14.0121    3.2177   30.6727 N   0  0  0  0  0  0  0  0  0  0  0  0
   13.6632    4.5550   30.6311 C   0  0  0  0  0  0  0  0  0  0  0  0
   12.9061    5.0628   31.7641 N   0  0  0  0  0  0  0  0  0  0  0  0
  2  1  1  6  0  0  0
  2  3  1  0  0  0  0
  2  5  1  0  0  0  0
  3  4  1  0  0  0  0
  3 17  1  0  0  0  0
  5  6  1  0  0  0  0
  7  6  1  6  0  0  0
  7  8  1  0  0  0  0
  7  9  1  0  0  0  0
 10  9  1  6  0  0  0
 10 11  1  0  0  0  0
 10 12  1  0  0  0  0
 11 16  1  0  0  0  0
 12 13  1  1  0  0  0
 12 14  1  0  0  0  0
 14 15  1  1  0  0  0
 14 16  1  0  0  0  0
 16 27  1  6  0  0  0
 18 19  2  0  0  0  0
 18 23  1  0  0  0  0
 19 20  1  0  0  0  0
 20 21  2  0  0  0  0
 21 22  1  0  0  0  0
 21 27  1  0  0  0  0
 22 23  2  0  0  0  0
 22 25  1  0  0  0  0
 23 24  1  0  0  0  0
 25 26  2  0  0  0  0
 26 27  1  0  0  0  0
M  END
>  <CHROM.1>
153.57519484,-71.06987620,-79.33862537,55.65707662,-176.78640722,53.57963679
-139.38185603,12.87358925,6.33349724,29.39709543,2.26490631,-1.49227237,-0.27027798

>  <Name>
ligand

>  <RI>
0

>  <Rbt.Current_Directory>
/home/itssahil/PROJECTS/Mol_Feturizer/Test_systems_manuscript/rnas/4aob

>  <Rbt.Executable>
rbdock ($Id: //depot/dev/client3/rdock/2013.1/src/exe/rbdock.cxx#4 $)

>  <Rbt.Library>
libRbt.so (2013.1, Build901 2013/11/27)

>  <Rbt.Parameter_File>
/export/apps/rDock/src/rDock_2013.1_src/data/scripts/dock_solv.prm

>  <Rbt.Receptor>
prm/pocket_docking_7.prm

>  <SCORE>
-9.5775

>  <SCORE.INTER>
-10.2767

>  <SCORE.INTER.CONST>
1

>  <SCORE.INTER.POLAR>
0

>  <SCORE.INTER.ROT>
7

>  <SCORE.INTER.SOLV>
15.4438

>  <SCORE.INTER.VDW>
-20.2657

>  <SCORE.INTER.norm>
-0.380618

>  <SCORE.INTRA>
0.699189

>  <SCORE.INTRA.DIHEDRAL>
-0.7677

>  <SCORE.INTRA.DIHEDRAL.0>
6.31833

>  <SCORE.INTRA.POLAR>
0

>  <SCORE.INTRA.POLAR.0>
0

>  <SCORE.INTRA.REPUL>
0

>  <SCORE.INTRA.REPUL.0>
0

>  <SCORE.INTRA.SOLV>
0.662589

>  <SCORE.INTRA.SOLV.lig_0>
-48.4015

>  <SCORE.INTRA.VDW>
0.751744

>  <SCORE.INTRA.VDW.0>
-2.83256

>  <SCORE.INTRA.norm>
0.0258959

>  <SCORE.RESTR>
0

>  <SCORE.RESTR.CAVITY>
0

>  <SCORE.RESTR.norm>
0

>  <SCORE.SYSTEM>
0

>  <SCORE.SYSTEM.CONST>
0

>  <SCORE.SYSTEM.DIHEDRAL>
0

>  <SCORE.SYSTEM.SOLV>
0

>  <SCORE.SYSTEM.norm>
0

>  <SCORE.heavy>
27

>  <SCORE.norm>
-0.354722

>  <RMSD>
3.577

$$$$
ligand
 OpenBabel02271912153D
libRbt.so/2013.1/901 2013/11/27
 27 29  0  0  0  0  0  0  0  0999 V2000
   12.1912    6.2743   28.4285 N   0  0  0  0  0  0  0  0  0  0  0  0
   12.7172    7.4784   29.1154 C   0  0  2  0  0  0  0  0  0  0  0  0
   11.5268    8.2927   29.6055 C   0  0  0  0  0  0  0  0  0  0  0  0
   10.4698    8.5612   28.9435 O   0  0  0  0  0  0  0  0  0  0  0  0
   13.6173    8.2452   28.1441 C   0  0  0  0  0  0  0  0  0  0  0  0
   14.3149    9.4304   28.7982 C   0  0  0  0  0  0  0  0  0  0  0  0
   15.7490    9.2571   29.9252 S   0  0  2  0  0  0  0  0  0  0  0  0
   16.8260    8.3099   28.8513 C   0  0  0  0  0  0  0  0  0  0  0  0
   15.0474    8.0040   31.0450 C   0  0  0  0  0  0  0  0  0  0  0  0
   15.9498    7.7456   32.2201 C   0  0  1  0  0  0  0  0  0  0  0  0
   15.2665    7.0786   33.3087 O   0  0  0  0  0  0  0  0  0  0  0  0
   17.1720    6.9178   31.8945 C   0  0  1  0  0  0  0  0  0  0  0  0
   18.2210    7.7652   31.7103 O   0  0  0  0  0  0  0  0  0  0  0  0
   17.3857    6.2221   33.2184 C   0  0  1  0  0  0  0  0  0  0  0  0
   18.0696    7.1066   33.9900 O   0  0  0  0  0  0  0  0  0  0  0  0
   15.9863    5.9948   33.8317 C   0  0  2  0  0  0  0  0  0  0  0  0
   11.6331    8.7791   30.7327 O   0  0  0  0  0  0  0  0  0  0  0  0
   12.2025    2.4629   33.2126 N   0  0  0  0  0  0  0  0  0  0  0  0
   12.3407    3.6265   34.0417 C   0  0  0  0  0  0  0  0  0  0  0  0
   13.4361    4.5228   34.1098 N   0  0  0  0  0  0  0  0  0  0  0  0
   14.3587    4.1876   33.2973 C   0  0  0  0  0  0  0  0  0  0  0  0
   14.3104    3.0127   32.3985 C   0  0  0  0  0  0  0  0  0  0  0  0
   13.2605    2.1813   32.3760 C   0  0  0  0  0  0  0  0  0  0  0  0
   13.3550    1.1642   31.5444 N   0  0  0  0  0  0  0  0  0  0  0  0
   15.3866    2.8684   31.6628 N   0  0  0  0  0  0  0  0  0  0  0  0
   16.1107    3.9628   32.0986 C   0  0  0  0  0  0  0  0  0  0  0  0
   15.4803    4.7957   33.1103 N   0  0  0  0  0  0  0  0  0  0  0  0
  2  1  1  6  0  0  0
  2  3  1  0  0  0  0
  2  5  1  0  0  0  0
  3  4  1  0  0  0  0
  3 17  1  0  0  0  0
  5  6  1  0  0  0  0
  7  6  1  6  0  0  0
  7  8  1  0  0  0  0
  7  9  1  0  0  0  0
 10  9  1  6  0  0  0
 10 11  1  0  0  0  0
 10 12  1  0  0  0  0
 11 16  1  0  0  0  0
 12 13  1  1  0  0  0
 12 14  1  0  0  0  0
 14 15  1  1  0  0  0
 14 16  1  0  0  0  0
 16 27  1  6  0  0  0
 18 19  2  0  0  0  0
 18 23  1  0  0  0  0
 19 20  1  0  0  0  0
 20 21  2  0  0  0  0
 21 22  1  0  0  0  0
 21 27  1  0  0  0  0
 22 23  2  0  0  0  0
 22 25  1  0  0  0  0
 23 24  1  0  0  0  0
 25 26  2  0  0  0  0
 26 27  1  0  0  0  0
M  END
>  <CHROM.1>
-44.70515490,-174.48013944,75.73408025,54.74098806,-173.33918181,162.70180343
-75.66696495,14.61059618,6.32904669,31.43425424,1.62092544,-0.42550789,-0.57361135

>  <Name>
ligand

>  <RI>
0

>  <Rbt.Current_Directory>
/home/itssahil/PROJECTS/Mol_Feturizer/Test_systems_manuscript/rnas/4aob

>  <Rbt.Executable>
rbdock ($Id: //depot/dev/client3/rdock/2013.1/src/exe/rbdock.cxx#4 $)

>  <Rbt.Library>
libRbt.so (2013.1, Build901 2013/11/27)

>  <Rbt.Parameter_File>
/export/apps/rDock/src/rDock_2013.1_src/data/scripts/dock_solv.prm

>  <Rbt.Receptor>
prm/pocket_docking_5.prm

>  <SCORE>
-12.8239

>  <SCORE.INTER>
-13.0793

>  <SCORE.INTER.CONST>
1

>  <SCORE.INTER.POLAR>
0

>  <SCORE.INTER.ROT>
7

>  <SCORE.INTER.SOLV>
15.8737

>  <SCORE.INTER.VDW>
-22.2774

>  <SCORE.INTER.norm>
-0.484418

>  <SCORE.INTRA>
0.255425

>  <SCORE.INTRA.DIHEDRAL>
-0.479247

>  <SCORE.INTRA.DIHEDRAL.0>
6.31833

>  <SCORE.INTRA.POLAR>
0

>  <SCORE.INTRA.POLAR.0>
0

>  <SCORE.INTRA.REPUL>
0

>  <SCORE.INTRA.REPUL.0>
0

>  <SCORE.INTRA.SOLV>
-0.111434

>  <SCORE.INTRA.SOLV.lig_0>
-48.4015

>  <SCORE.INTRA.VDW>
0.550766

>  <SCORE.INTRA.VDW.0>
-2.83256

>  <SCORE.INTRA.norm>
0.00946019

>  <SCORE.RESTR>
0

>  <SCORE.RESTR.CAVITY>
0

>  <SCORE.RESTR.norm>
0

>  <SCORE.SYSTEM>
0

>  <SCORE.SYSTEM.CONST>
0

>  <SCORE.SYSTEM.DIHEDRAL>
0

>  <SCORE.SYSTEM.SOLV>
0

>  <SCORE.SYSTEM.norm>
0

>  <SCORE.heavy>
27

>  <SCORE.norm>
-0.474958

>  <RMSD>
3.579

$$$$
ligand
 OpenBabel02271912153D
libRbt.so/2013.1/901 2013/11/27
 27 29  0  0  0  0  0  0  0  0999 V2000
   13.1693    7.1141   28.0889 N   0  0  0  0  0  0  0  0  0  0  0  0
   13.1425    8.4562   28.7185 C   0  0  2  0  0  0  0  0  0  0  0  0
   11.6990    8.9428   28.7169 C   0  0  0  0  0  0  0  0  0  0  0  0
   10.8036    8.6580   29.5798 O   0  0  0  0  0  0  0  0  0  0  0  0
   14.0937    9.3781   27.9524 C   0  0  0  0  0  0  0  0  0  0  0  0
   15.5581    9.0119   28.1535 C   0  0  0  0  0  0  0  0  0  0  0  0
   16.4287    9.1888   29.7557 S   0  0  2  0  0  0  0  0  0  0  0  0
   18.0294    8.5483   29.2677 C   0  0  0  0  0  0  0  0  0  0  0  0
   15.6530    7.7904   30.6269 C   0  0  0  0  0  0  0  0  0  0  0  0
   16.0941    7.7206   32.0631 C   0  0  1  0  0  0  0  0  0  0  0  0
   15.0770    7.1626   32.9297 O   0  0  0  0  0  0  0  0  0  0  0  0
   17.3537    6.9156   32.2875 C   0  0  1  0  0  0  0  0  0  0  0  0
   18.4016    7.7808   32.3636 O   0  0  0  0  0  0  0  0  0  0  0  0
   17.0972    6.3992   33.6839 C   0  0  1  0  0  0  0  0  0  0  0  0
   17.4724    7.4025   34.5194 O   0  0  0  0  0  0  0  0  0  0  0  0
   15.5722    6.1857   33.8054 C   0  0  2  0  0  0  0  0  0  0  0  0
   11.3634    9.6328   27.7527 O   0  0  0  0  0  0  0  0  0  0  0  0
   12.5563    1.9851   33.1471 N   0  0  0  0  0  0  0  0  0  0  0  0
   12.4203    3.1865   33.9208 C   0  0  0  0  0  0  0  0  0  0  0  0
   13.3243    4.2742   34.0072 N   0  0  0  0  0  0  0  0  0  0  0  0
   14.3464    4.0853   33.2701 C   0  0  0  0  0  0  0  0  0  0  0  0
   14.5774    2.8869   32.4329 C   0  0  0  0  0  0  0  0  0  0  0  0
   13.7029    1.8732   32.3912 C   0  0  0  0  0  0  0  0  0  0  0  0
   14.0401    0.8591   31.6213 N   0  0  0  0  0  0  0  0  0  0  0  0
   15.7096    2.9173   31.7715 N   0  0  0  0  0  0  0  0  0  0  0  0
   16.1878    4.1447   32.1919 C   0  0  0  0  0  0  0  0  0  0  0  0
   15.3467    4.8849   33.1189 N   0  0  0  0  0  0  0  0  0  0  0  0
  2  1  1  6  0  0  0
  2  3  1  0  0  0  0
  2  5  1  0  0  0  0
  3  4  1  0  0  0  0
  3 17  1  0  0  0  0
  5  6  1  0  0  0  0
  7  6  1  6  0  0  0
  7  8  1  0  0  0  0
  7  9  1  0  0  0  0
 10  9  1  6  0  0  0
 10 11  1  0  0  0  0
 10 12  1  0  0  0  0
 11 16  1  0  0  0  0
 12 13  1  1  0  0  0
 12 14  1  0  0  0  0
 14 15  1  1  0  0  0
 14 16  1  0  0  0  0
 16 27  1  6  0  0  0
 18 19  2  0  0  0  0
 18 23  1  0  0  0  0
 19 20  1  0  0  0  0
 20 21  2  0  0  0  0
 21 22  1  0  0  0  0
 21 27  1  0  0  0  0
 22 23  2  0  0  0  0
 22 25  1  0  0  0  0
 23 24  1  0  0  0  0
 25 26  2  0  0  0  0
 26 27  1  0  0  0  0
M  END
>  <CHROM.1>
83.74052753,-69.66883693,-67.35745127,178.43511545,-175.59115835,149.55600367
-95.18488691,14.88244086,6.44340513,31.29871480,1.61736763,-0.46361772,-0.61695428

>  <Name>
ligand

>  <RI>
0

>  <Rbt.Current_Directory>
/home/itssahil/PROJECTS/Mol_Feturizer/Test_systems_manuscript/rnas/4aob

>  <Rbt.Executable>
rbdock ($Id: //depot/dev/client3/rdock/2013.1/src/exe/rbdock.cxx#4 $)

>  <Rbt.Library>
libRbt.so (2013.1, Build901 2013/11/27)

>  <Rbt.Parameter_File>
/export/apps/rDock/src/rDock_2013.1_src/data/scripts/dock_solv.prm

>  <Rbt.Receptor>
prm/pocket_docking_6.prm

>  <SCORE>
-11.6415

>  <SCORE.INTER>
-13.4977

>  <SCORE.INTER.CONST>
1

>  <SCORE.INTER.POLAR>
0

>  <SCORE.INTER.ROT>
7

>  <SCORE.INTER.SOLV>
14.3008

>  <SCORE.INTER.VDW>
-22.0321

>  <SCORE.INTER.norm>
-0.499914

>  <SCORE.INTRA>
1.8562

>  <SCORE.INTRA.DIHEDRAL>
0.694646

>  <SCORE.INTRA.DIHEDRAL.0>
6.31833

>  <SCORE.INTRA.POLAR>
0

>  <SCORE.INTRA.POLAR.0>
0

>  <SCORE.INTRA.REPUL>
0

>  <SCORE.INTRA.REPUL.0>
0

>  <SCORE.INTRA.SOLV>
1.21553

>  <SCORE.INTRA.SOLV.lig_0>
-48.4015

>  <SCORE.INTRA.VDW>
0.901117

>  <SCORE.INTRA.VDW.0>
-2.83256

>  <SCORE.INTRA.norm>
0.0687483

>  <SCORE.RESTR>
0

>  <SCORE.RESTR.CAVITY>
0

>  <SCORE.RESTR.norm>
0

>  <SCORE.SYSTEM>
0

>  <SCORE.SYSTEM.CONST>
0

>  <SCORE.SYSTEM.DIHEDRAL>
0

>  <SCORE.SYSTEM.SOLV>
0

>  <SCORE.SYSTEM.norm>
0

>  <SCORE.heavy>
27

>  <SCORE.norm>
-0.431166

>  <RMSD>
3.597

$$$$
ligand
 OpenBabel02271912153D
libRbt.so/2013.1/901 2013/11/27
 27 29  0  0  0  0  0  0  0  0999 V2000
   13.4748    8.1740   29.9355 N   0  0  0  0  0  0  0  0  0  0  0  0
   14.3719    9.0748   29.1726 C   0  0  2  0  0  0  0  0  0  0  0  0
   13.5025    9.9547   28.2836 C   0  0  0  0  0  0  0  0  0  0  0  0
   13.5070    9.9804   27.0081 O   0  0  0  0  0  0  0  0  0  0  0  0
   15.3735    8.2236   28.3889 C   0  0  0  0  0  0  0  0  0  0  0  0
   16.3412    7.4714   29.2927 C   0  0  0  0  0  0  0  0  0  0  0  0
   17.6630    8.2945   30.2580 S   0  0  2  0  0  0  0  0  0  0  0  0
   19.0800    7.7197   29.3240 C   0  0  0  0  0  0  0  0  0  0  0  0
   17.6365    7.2028   31.7153 C   0  0  0  0  0  0  0  0  0  0  0  0
   16.5290    7.5728   32.6631 C   0  0  1  0  0  0  0  0  0  0  0  0
   15.2157    7.3874   32.0819 O   0  0  0  0  0  0  0  0  0  0  0  0
   16.5455    6.8078   33.9668 C   0  0  1  0  0  0  0  0  0  0  0  0
   17.1486    7.5856   34.9069 O   0  0  0  0  0  0  0  0  0  0  0  0
   15.0686    6.7859   34.2841 C   0  0  1  0  0  0  0  0  0  0  0  0
   14.8039    7.9801   34.8751 O   0  0  0  0  0  0  0  0  0  0  0  0
   14.3248    6.7167   32.9320 C   0  0  2  0  0  0  0  0  0  0  0  0
   12.7682   10.7533   28.8679 O   0  0  0  0  0  0  0  0  0  0  0  0
   12.6709    1.8257   33.6514 N   0  0  0  0  0  0  0  0  0  0  0  0
   12.2757    3.0921   34.1996 C   0  0  0  0  0  0  0  0  0  0  0  0
   12.8095    4.3722   33.9089 N   0  0  0  0  0  0  0  0  0  0  0  0
   13.7381    4.2991   33.0394 C   0  0  0  0  0  0  0  0  0  0  0  0
   14.2140    3.0462   32.4114 C   0  0  0  0  0  0  0  0  0  0  0  0
   13.6913    1.8538   32.7258 C   0  0  0  0  0  0  0  0  0  0  0  0
   14.2200    0.8175   32.1083 N   0  0  0  0  0  0  0  0  0  0  0  0
   15.1895    3.2253   31.5532 N   0  0  0  0  0  0  0  0  0  0  0  0
   15.3213    4.5991   31.6393 C   0  0  0  0  0  0  0  0  0  0  0  0
   14.4201    5.2803   32.5550 N   0  0  0  0  0  0  0  0  0  0  0  0
  2  1  1  6  0  0  0
  2  3  1  0  0  0  0
  2  5  1  0  0  0  0
  3  4  1  0  0  0  0
  3 17  1  0  0  0  0
  5  6  1  0  0  0  0
  7  6  1  6  0  0  0
  7  8  1  0  0  0  0
  7  9  1  0  0  0  0
 10  9  1  6  0  0  0
 10 11  1  0  0  0  0
 10 12  1  0  0  0  0
 11 16  1  0  0  0  0
 12 13  1  1  0  0  0
 12 14  1  0  0  0  0
 14 15  1  6  0  0  0
 14 16  1  0  0  0  0
 16 27  1  6  0  0  0
 18 19  2  0  0  0  0
 18 23  1  0  0  0  0
 19 20  1  0  0  0  0
 20 21  2  0  0  0  0
 21 22  1  0  0  0  0
 21 27  1  0  0  0  0
 22 23  2  0  0  0  0
 22 25  1  0  0  0  0
 23 24  1  0  0  0  0
 25 26  2  0  0  0  0
 26 27  1  0  0  0  0
M  END
>  <CHROM.1>
-116.94804278,-66.70148678,-70.28606518,-108.95366333,-81.20424797,64.32839206
-177.10107802,15.04758091,6.50047659,31.59528823,1.33579100,-0.60377911,-0.75541390

>  <Name>
ligand

>  <RI>
0

>  <Rbt.Current_Directory>
/home/itssahil/PROJECTS/Mol_Feturizer/Test_systems_manuscript/rnas/4aob

>  <Rbt.Executable>
rbdock ($Id: //depot/dev/client3/rdock/2013.1/src/exe/rbdock.cxx#4 $)

>  <Rbt.Library>
libRbt.so (2013.1, Build901 2013/11/27)

>  <Rbt.Parameter_File>
/export/apps/rDock/src/rDock_2013.1_src/data/scripts/dock_solv.prm

>  <Rbt.Receptor>
prm/pocket_docking_8.prm

>  <SCORE>
-8.90421

>  <SCORE.INTER>
-9.85942

>  <SCORE.INTER.CONST>
1

>  <SCORE.INTER.POLAR>
0

>  <SCORE.INTER.ROT>
7

>  <SCORE.INTER.SOLV>
15.2813

>  <SCORE.INTER.VDW>
-19.9334

>  <SCORE.INTER.norm>
-0.365164

>  <SCORE.INTRA>
0.955212

>  <SCORE.INTRA.DIHEDRAL>
1.31213

>  <SCORE.INTRA.DIHEDRAL.0>
6.31833

>  <SCORE.INTRA.POLAR>
0

>  <SCORE.INTRA.POLAR.0>
0

>  <SCORE.INTRA.REPUL>
0

>  <SCORE.INTRA.REPUL.0>
0

>  <SCORE.INTRA.SOLV>
2.5222

>  <SCORE.INTRA.SOLV.lig_0>
-48.4015

>  <SCORE.INTRA.VDW>
-0.961957

>  <SCORE.INTRA.VDW.0>
-2.83256

>  <SCORE.INTRA.norm>
0.0353782

>  <SCORE.RESTR>
0

>  <SCORE.RESTR.CAVITY>
0

>  <SCORE.RESTR.norm>
0

>  <SCORE.SYSTEM>
0

>  <SCORE.SYSTEM.CONST>
0

>  <SCORE.SYSTEM.DIHEDRAL>
0

>  <SCORE.SYSTEM.SOLV>
0

>  <SCORE.SYSTEM.norm>
0

>  <SCORE.heavy>
27

>  <SCORE.norm>
-0.329785

>  <RMSD>
3.634

$$$$
ligand
 OpenBabel02271912153D
libRbt.so/2013.1/901 2013/11/27
 27 29  0  0  0  0  0  0  0  0999 V2000
   13.5532    7.2857   28.5279 N   0  0  0  0  0  0  0  0  0  0  0  0
   13.6647    8.7260   28.8617 C   0  0  2  0  0  0  0  0  0  0  0  0
   12.2721    9.3357   28.7661 C   0  0  0  0  0  0  0  0  0  0  0  0
   11.9267   10.3226   28.0352 O   0  0  0  0  0  0  0  0  0  0  0  0
   14.6763    9.3739   27.9137 C   0  0  0  0  0  0  0  0  0  0  0  0
   16.0942    8.8598   28.1244 C   0  0  0  0  0  0  0  0  0  0  0  0
   16.9709    8.9556   29.7303 S   0  0  2  0  0  0  0  0  0  0  0  0
   18.5372    8.2451   29.2278 C   0  0  0  0  0  0  0  0  0  0  0  0
   16.1236    7.5795   30.5696 C   0  0  0  0  0  0  0  0  0  0  0  0
   16.5352    7.4746   32.0124 C   0  0  1  0  0  0  0  0  0  0  0  0
   15.6100    6.6843   32.7976 O   0  0  0  0  0  0  0  0  0  0  0  0
   17.9099    6.8829   32.2248 C   0  0  1  0  0  0  0  0  0  0  0  0
   18.7889    7.9066   32.4027 O   0  0  0  0  0  0  0  0  0  0  0  0
   17.7134    6.2228   33.5694 C   0  0  1  0  0  0  0  0  0  0  0  0
   17.8877    7.2074   34.4890 O   0  0  0  0  0  0  0  0  0  0  0  0
   16.2463    5.7417   33.6179 C   0  0  2  0  0  0  0  0  0  0  0  0
   11.4197    8.8538   29.5142 O   0  0  0  0  0  0  0  0  0  0  0  0
   13.7381    1.4441   32.0639 N   0  0  0  0  0  0  0  0  0  0  0  0
   13.3523    2.5834   32.8474 C   0  0  0  0  0  0  0  0  0  0  0  0
   14.1405    3.7081   33.1964 N   0  0  0  0  0  0  0  0  0  0  0  0
   15.3132    3.6210   32.7055 C   0  0  0  0  0  0  0  0  0  0  0  0
   15.8054    2.4937   31.8825 C   0  0  0  0  0  0  0  0  0  0  0  0
   15.0310    1.4414   31.5876 C   0  0  0  0  0  0  0  0  0  0  0  0
   15.5993    0.4988   30.8640 N   0  0  0  0  0  0  0  0  0  0  0  0
   17.0537    2.6257   31.5020 N   0  0  0  0  0  0  0  0  0  0  0  0
   17.3431    3.8457   32.0848 C   0  0  0  0  0  0  0  0  0  0  0  0
   16.2674    4.4790   32.8308 N   0  0  0  0  0  0  0  0  0  0  0  0
  2  1  1  6  0  0  0
  2  3  1  0  0  0  0
  2  5  1  0  0  0  0
  3  4  1  0  0  0  0
  3 17  1  0  0  0  0
  5  6  1  0  0  0  0
  7  6  1  6  0  0  0
  7  8  1  0  0  0  0
  7  9  1  0  0  0  0
 10  9  1  6  0  0  0
 10 11  1  0  0  0  0
 10 12  1  0  0  0  0
 11 16  1  0  0  0  0
 12 13  1  1  0  0  0
 12 14  1  0  0  0  0
 14 15  1  1  0  0  0
 14 16  1  0  0  0  0
 16 27  1  6  0  0  0
 18 19  2  0  0  0  0
 18 23  1  0  0  0  0
 19 20  1  0  0  0  0
 20 21  2  0  0  0  0
 21 22  1  0  0  0  0
 21 27  1  0  0  0  0
 22 23  2  0  0  0  0
 22 25  1  0  0  0  0
 23 24  1  0  0  0  0
 25 26  2  0  0  0  0
 26 27  1  0  0  0  0
M  END
>  <CHROM.1>
-123.29152349,-66.28957121,-57.24759324,-178.15239646,-174.26932746,162.38769553
-81.96133112,15.61333220,6.26539143,31.09211288,1.77796234,-0.48795942,-0.41787843

>  <Name>
ligand

>  <RI>
0

>  <Rbt.Current_Directory>
/home/itssahil/PROJECTS/Mol_Feturizer/Test_systems_manuscript/rnas/4aob

>  <Rbt.Executable>
rbdock ($Id: //depot/dev/client3/rdock/2013.1/src/exe/rbdock.cxx#4 $)

>  <Rbt.Library>
libRbt.so (2013.1, Build901 2013/11/27)

>  <Rbt.Parameter_File>
/export/apps/rDock/src/rDock_2013.1_src/data/scripts/dock_solv.prm

>  <Rbt.Receptor>
prm/pocket_docking_7.prm

>  <SCORE>
-11.3999

>  <SCORE.INTER>
-12.2369

>  <SCORE.INTER.CONST>
1

>  <SCORE.INTER.POLAR>
0

>  <SCORE.INTER.ROT>
7

>  <SCORE.INTER.SOLV>
14.3194

>  <SCORE.INTER.VDW>
-21.1977

>  <SCORE.INTER.norm>
-0.453219

>  <SCORE.INTRA>
0.836965

>  <SCORE.INTRA.DIHEDRAL>
-0.996111

>  <SCORE.INTRA.DIHEDRAL.0>
6.31833

>  <SCORE.INTRA.POLAR>
0

>  <SCORE.INTRA.POLAR.0>
0

>  <SCORE.INTRA.REPUL>
0

>  <SCORE.INTRA.REPUL.0>
0

>  <SCORE.INTRA.SOLV>
1.6835

>  <SCORE.INTRA.SOLV.lig_0>
-48.4015

>  <SCORE.INTRA.VDW>
0.49327

>  <SCORE.INTRA.VDW.0>
-2.83256

>  <SCORE.INTRA.norm>
0.0309987

>  <SCORE.RESTR>
0

>  <SCORE.RESTR.CAVITY>
0

>  <SCORE.RESTR.norm>
0

>  <SCORE.SYSTEM>
0

>  <SCORE.SYSTEM.CONST>
0

>  <SCORE.SYSTEM.DIHEDRAL>
0

>  <SCORE.SYSTEM.SOLV>
0

>  <SCORE.SYSTEM.norm>
0

>  <SCORE.heavy>
27

>  <SCORE.norm>
-0.42222

>  <RMSD>
3.697

$$$$
ligand
 OpenBabel02271912153D
libRbt.so/2013.1/901 2013/11/27
 27 29  0  0  0  0  0  0  0  0999 V2000
   13.2712    6.1072   23.2422 N   0  0  0  0  0  0  0  0  0  0  0  0
   12.2002    7.1309   23.1830 C   0  0  2  0  0  0  0  0  0  0  0  0
   12.8595    8.4812   22.9336 C   0  0  0  0  0  0  0  0  0  0  0  0
   12.5015    9.3502   22.0710 O   0  0  0  0  0  0  0  0  0  0  0  0
   11.3979    7.0794   24.4850 C   0  0  0  0  0  0  0  0  0  0  0  0
   12.2761    7.2014   25.7232 C   0  0  0  0  0  0  0  0  0  0  0  0
   11.6055    7.3816   27.4186 S   0  0  2  0  0  0  0  0  0  0  0  0
   11.2159    9.1299   27.3725 C   0  0  0  0  0  0  0  0  0  0  0  0
   13.1818    7.3158   28.3281 C   0  0  0  0  0  0  0  0  0  0  0  0
   13.0065    7.7146   29.7677 C   0  0  1  0  0  0  0  0  0  0  0  0
   11.9598    6.9630   30.4283 O   0  0  0  0  0  0  0  0  0  0  0  0
   14.2532    7.5665   30.6095 C   0  0  1  0  0  0  0  0  0  0  0  0
   14.8509    8.7859   30.6996 O   0  0  0  0  0  0  0  0  0  0  0  0
   13.6347    7.2705   31.9557 C   0  0  1  0  0  0  0  0  0  0  0  0
   13.3055    8.4795   32.4806 O   0  0  0  0  0  0  0  0  0  0  0  0
   12.3419    6.4699   31.6841 C   0  0  2  0  0  0  0  0  0  0  0  0
   13.8687    8.7199   23.5992 O   0  0  0  0  0  0  0  0  0  0  0  0
   13.0576    1.6299   33.4832 N   0  0  0  0  0  0  0  0  0  0  0  0
   12.4372    2.8040   34.0283 C   0  0  0  0  0  0  0  0  0  0  0  0
   12.2987    4.0774   33.4224 N   0  0  0  0  0  0  0  0  0  0  0  0
   12.8023    4.0895   32.2519 C   0  0  0  0  0  0  0  0  0  0  0  0
   13.4573    2.9337   31.5995 C   0  0  0  0  0  0  0  0  0  0  0  0
   13.5804    1.7501   32.2140 C   0  0  0  0  0  0  0  0  0  0  0  0
   14.2017    0.8124   31.5286 N   0  0  0  0  0  0  0  0  0  0  0  0
   13.9088    3.1951   30.3961 N   0  0  0  0  0  0  0  0  0  0  0  0
   13.5288    4.5205   30.2916 C   0  0  0  0  0  0  0  0  0  0  0  0
   12.8337    5.0875   31.4361 N   0  0  0  0  0  0  0  0  0  0  0  0
  2  1  1  1  0  0  0
  2  3  1  0  0  0  0
  2  5  1  0  0  0  0
  3  4  1  0  0  0  0
  3 17  1  0  0  0  0
  5  6  1  0  0  0  0
  7  6  1  6  0  0  0
  7  8  1  0  0  0  0
  7  9  1  0  0  0  0
 10  9  1  6  0  0  0
 10 11  1  0  0  0  0
 10 12  1  0  0  0  0
 11 16  1  0  0  0  0
 12 13  1  1  0  0  0
 12 14  1  0  0  0  0
 14 15  1  6  0  0  0
 14 16  1  0  0  0  0
 16 27  1  6  0  0  0
 18 19  2  0  0  0  0
 18 23  1  0  0  0  0
 19 20  1  0  0  0  0
 20 21  2  0  0  0  0
 21 22  1  0  0  0  0
 21 27  1  0  0  0  0
 22 23  2  0  0  0  0
 22 25  1  0  0  0  0
 23 24  1  0  0  0  0
 25 26  2  0  0  0  0
 26 27  1  0  0  0  0
M  END
>  <CHROM.1>
132.56797052,53.60580431,172.22612514,-79.42652415,168.57692984,52.74762465
-150.92835977,12.89207201,6.17963724,28.97010972,-3.04373969,-1.49940743
0.58448078

>  <Name>
ligand

>  <RI>
0

>  <Rbt.Current_Directory>
/home/itssahil/PROJECTS/Mol_Feturizer/Test_systems_manuscript/rnas/4aob

>  <Rbt.Executable>
rbdock ($Id: //depot/dev/client3/rdock/2013.1/src/exe/rbdock.cxx#4 $)

>  <Rbt.Library>
libRbt.so (2013.1, Build901 2013/11/27)

>  <Rbt.Parameter_File>
/export/apps/rDock/src/rDock_2013.1_src/data/scripts/dock_solv.prm

>  <Rbt.Receptor>
prm/pocket_docking_7.prm

>  <SCORE>
-9.53228

>  <SCORE.INTER>
-8.86966

>  <SCORE.INTER.CONST>
1

>  <SCORE.INTER.POLAR>
0

>  <SCORE.INTER.ROT>
7

>  <SCORE.INTER.SOLV>
19.0963

>  <SCORE.INTER.VDW>
-20.5452

>  <SCORE.INTER.norm>
-0.328506

>  <SCORE.INTRA>
-0.662618

>  <SCORE.INTRA.DIHEDRAL>
-2.20873

>  <SCORE.INTRA.DIHEDRAL.0>
6.31833

>  <SCORE.INTRA.POLAR>
0

>  <SCORE.INTRA.POLAR.0>
0

>  <SCORE.INTRA.REPUL>
0

>  <SCORE.INTRA.REPUL.0>
0

>  <SCORE.INTRA.SOLV>
0.00778064

>  <SCORE.INTRA.SOLV.lig_0>
-48.4015

>  <SCORE.INTRA.VDW>
0.437857

>  <SCORE.INTRA.VDW.0>
-2.83256

>  <SCORE.INTRA.norm>
-0.0245414

>  <SCORE.RESTR>
0

>  <SCORE.RESTR.CAVITY>
0

>  <SCORE.RESTR.norm>
0

>  <SCORE.SYSTEM>
0

>  <SCORE.SYSTEM.CONST>
0

>  <SCORE.SYSTEM.DIHEDRAL>
0

>  <SCORE.SYSTEM.SOLV>
0

>  <SCORE.SYSTEM.norm>
0

>  <SCORE.heavy>
27

>  <SCORE.norm>
-0.353048

>  <RMSD>
3.700

$$$$
ligand
 OpenBabel02271912153D
libRbt.so/2013.1/901 2013/11/27
 27 29  0  0  0  0  0  0  0  0999 V2000
   13.8359    6.7189   23.9320 N   0  0  0  0  0  0  0  0  0  0  0  0
   13.6604    8.1790   23.7431 C   0  0  2  0  0  0  0  0  0  0  0  0
   14.3545    8.5676   22.4441 C   0  0  0  0  0  0  0  0  0  0  0  0
   15.6061    8.5021   22.2061 O   0  0  0  0  0  0  0  0  0  0  0  0
   14.2192    8.9044   24.9692 C   0  0  0  0  0  0  0  0  0  0  0  0
   13.5126    8.5105   26.2594 C   0  0  0  0  0  0  0  0  0  0  0  0
   14.0304    9.1067   27.9126 S   0  0  2  0  0  0  0  0  0  0  0  0
   15.6462    8.3359   27.9859 C   0  0  0  0  0  0  0  0  0  0  0  0
   12.9841    8.0099   28.9220 C   0  0  0  0  0  0  0  0  0  0  0  0
   13.1472    8.2885   30.3909 C   0  0  1  0  0  0  0  0  0  0  0  0
   12.1438    7.6244   31.1966 O   0  0  0  0  0  0  0  0  0  0  0  0
   14.4942    7.8941   30.9521 C   0  0  1  0  0  0  0  0  0  0  0  0
   15.2749    9.0078   31.0023 O   0  0  0  0  0  0  0  0  0  0  0  0
   14.1049    7.5560   32.3722 C   0  0  1  0  0  0  0  0  0  0  0  0
   14.0673    8.7422   33.0333 O   0  0  0  0  0  0  0  0  0  0  0  0
   12.6785    6.9662   32.3133 C   0  0  2  0  0  0  0  0  0  0  0  0
   13.6308    9.0412   21.5664 O   0  0  0  0  0  0  0  0  0  0  0  0
   12.7233    1.9002   33.5415 N   0  0  0  0  0  0  0  0  0  0  0  0
   12.3681    3.0882   34.2647 C   0  0  0  0  0  0  0  0  0  0  0  0
   12.3925    4.4282   33.8049 N   0  0  0  0  0  0  0  0  0  0  0  0
   12.7765    4.4936   32.5916 C   0  0  0  0  0  0  0  0  0  0  0  0
   13.1587    3.3303   31.7602 C   0  0  0  0  0  0  0  0  0  0  0  0
   13.1353    2.0797   32.2390 C   0  0  0  0  0  0  0  0  0  0  0  0
   13.5186    1.1394   31.4000 N   0  0  0  0  0  0  0  0  0  0  0  0
   13.5312    3.6521   30.5444 N   0  0  0  0  0  0  0  0  0  0  0  0
   13.3756    5.0244   30.6127 C   0  0  0  0  0  0  0  0  0  0  0  0
   12.9004    5.5605   31.8782 N   0  0  0  0  0  0  0  0  0  0  0  0
  2  1  1  1  0  0  0
  2  3  1  0  0  0  0
  2  5  1  0  0  0  0
  3  4  1  0  0  0  0
  3 17  1  0  0  0  0
  5  6  1  0  0  0  0
  7  6  1  6  0  0  0
  7  8  1  0  0  0  0
  7  9  1  0  0  0  0
 10  9  1  6  0  0  0
 10 11  1  0  0  0  0
 10 12  1  0  0  0  0
 11 16  1  0  0  0  0
 12 13  1  1  0  0  0
 12 14  1  0  0  0  0
 14 15  1  1  0  0  0
 14 16  1  0  0  0  0
 16 27  1  6  0  0  0
 18 19  2  0  0  0  0
 18 23  1  0  0  0  0
 19 20  1  0  0  0  0
 20 21  2  0  0  0  0
 21 22  1  0  0  0  0
 21 27  1  0  0  0  0
 22 23  2  0  0  0  0
 22 25  1  0  0  0  0
 23 24  1  0  0  0  0
 25 26  2  0  0  0  0
 26 27  1  0  0  0  0
M  END
>  <CHROM.1>
-64.97561490,-60.34269007,175.25997792,-64.47709383,-178.11913212,168.52049581
-145.30513996,13.65395069,6.69576940,29.24221801,0.67091711,-1.40855447,-1.99920696

>  <Name>
ligand

>  <RI>
0

>  <Rbt.Current_Directory>
/home/itssahil/PROJECTS/Mol_Feturizer/Test_systems_manuscript/rnas/4aob

>  <Rbt.Executable>
rbdock ($Id: //depot/dev/client3/rdock/2013.1/src/exe/rbdock.cxx#4 $)

>  <Rbt.Library>
libRbt.so (2013.1, Build901 2013/11/27)

>  <Rbt.Parameter_File>
/export/apps/rDock/src/rDock_2013.1_src/data/scripts/dock_solv.prm

>  <Rbt.Receptor>
prm/pocket_docking_8.prm

>  <SCORE>
-10.1236

>  <SCORE.INTER>
-9.52721

>  <SCORE.INTER.CONST>
1

>  <SCORE.INTER.POLAR>
0

>  <SCORE.INTER.ROT>
7

>  <SCORE.INTER.SOLV>
18.6283

>  <SCORE.INTER.VDW>
-20.8276

>  <SCORE.INTER.norm>
-0.35286

>  <SCORE.INTRA>
-0.596437

>  <SCORE.INTRA.DIHEDRAL>
-2.34357

>  <SCORE.INTRA.DIHEDRAL.0>
6.31833

>  <SCORE.INTRA.POLAR>
0

>  <SCORE.INTRA.POLAR.0>
0

>  <SCORE.INTRA.REPUL>
0

>  <SCORE.INTRA.REPUL.0>
0

>  <SCORE.INTRA.SOLV>
0.213228

>  <SCORE.INTRA.SOLV.lig_0>
-48.4015

>  <SCORE.INTRA.VDW>
0.468733

>  <SCORE.INTRA.VDW.0>
-2.83256

>  <SCORE.INTRA.norm>
-0.0220902

>  <SCORE.RESTR>
0

>  <SCORE.RESTR.CAVITY>
0

>  <SCORE.RESTR.norm>
0

>  <SCORE.SYSTEM>
0

>  <SCORE.SYSTEM.CONST>
0

>  <SCORE.SYSTEM.DIHEDRAL>
0

>  <SCORE.SYSTEM.SOLV>
0

>  <SCORE.SYSTEM.norm>
0

>  <SCORE.heavy>
27

>  <SCORE.norm>
-0.37495

>  <RMSD>
3.700

$$$$
ligand
 OpenBabel02271912153D
libRbt.so/2013.1/901 2013/11/27
 27 29  0  0  0  0  0  0  0  0999 V2000
   12.9191    9.9545   26.1202 N   0  0  0  0  0  0  0  0  0  0  0  0
   12.3635    9.1506   27.2353 C   0  0  2  0  0  0  0  0  0  0  0  0
   10.8679    9.4294   27.3106 C   0  0  0  0  0  0  0  0  0  0  0  0
   10.2534   10.4110   26.7755 O   0  0  0  0  0  0  0  0  0  0  0  0
   13.1123    9.5089   28.5208 C   0  0  0  0  0  0  0  0  0  0  0  0
   14.5905    9.1474   28.4617 C   0  0  0  0  0  0  0  0  0  0  0  0
   15.7249    9.3135   29.8908 S   0  0  2  0  0  0  0  0  0  0  0  0
   17.2248    8.7090   29.1191 C   0  0  0  0  0  0  0  0  0  0  0  0
   15.1333    7.8879   30.8572 C   0  0  0  0  0  0  0  0  0  0  0  0
   15.8858    7.7471   32.1517 C   0  0  1  0  0  0  0  0  0  0  0  0
   15.0987    7.1063   33.1845 O   0  0  0  0  0  0  0  0  0  0  0  0
   17.1780    6.9710   32.0378 C   0  0  1  0  0  0  0  0  0  0  0  0
   18.2006    7.8634   31.9353 O   0  0  0  0  0  0  0  0  0  0  0  0
   17.2498    6.3647   33.4197 C   0  0  1  0  0  0  0  0  0  0  0  0
   17.7843    7.3282   34.2144 O   0  0  0  0  0  0  0  0  0  0  0  0
   15.7947    6.0956   33.8629 C   0  0  2  0  0  0  0  0  0  0  0  0
   10.2089    8.6538   28.0053 O   0  0  0  0  0  0  0  0  0  0  0  0
   12.3889    2.2125   33.1581 N   0  0  0  0  0  0  0  0  0  0  0  0
   12.3696    3.4115   33.9471 C   0  0  0  0  0  0  0  0  0  0  0  0
   13.3739    4.4063   34.0453 N   0  0  0  0  0  0  0  0  0  0  0  0
   14.3725    4.1295   33.3038 C   0  0  0  0  0  0  0  0  0  0  0  0
   14.4867    2.9251   32.4512 C   0  0  0  0  0  0  0  0  0  0  0  0
   13.5189    2.0007   32.3986 C   0  0  0  0  0  0  0  0  0  0  0  0
   13.7566    0.9688   31.6153 N   0  0  0  0  0  0  0  0  0  0  0  0
   15.6160    2.8551   31.7878 N   0  0  0  0  0  0  0  0  0  0  0  0
   16.2101    4.0256   32.2226 C   0  0  0  0  0  0  0  0  0  0  0  0
   15.4448    4.8312   33.1606 N   0  0  0  0  0  0  0  0  0  0  0  0
  2  1  1  6  0  0  0
  2  3  1  0  0  0  0
  2  5  1  0  0  0  0
  3  4  1  0  0  0  0
  3 17  1  0  0  0  0
  5  6  1  0  0  0  0
  7  6  1  6  0  0  0
  7  8  1  0  0  0  0
  7  9  1  0  0  0  0
 10  9  1  6  0  0  0
 10 11  1  0  0  0  0
 10 12  1  0  0  0  0
 11 16  1  0  0  0  0
 12 13  1  1  0  0  0
 12 14  1  0  0  0  0
 14 15  1  1  0  0  0
 14 16  1  0  0  0  0
 16 27  1  6  0  0  0
 18 19  2  0  0  0  0
 18 23  1  0  0  0  0
 19 20  1  0  0  0  0
 20 21  2  0  0  0  0
 21 22  1  0  0  0  0
 21 27  1  0  0  0  0
 22 23  2  0  0  0  0
 22 25  1  0  0  0  0
 23 24  1  0  0  0  0
 25 26  2  0  0  0  0
 26 27  1  0  0  0  0
M  END
>  <CHROM.1>
-16.87660947,-63.57815937,-174.46485115,179.28646188,-179.51423170,152.31147313
-80.33328765,14.55691983,6.66368110,31.05123052,1.89966335,-0.49362659,-0.59966166

>  <Name>
ligand

>  <RI>
0

>  <Rbt.Current_Directory>
/home/itssahil/PROJECTS/Mol_Feturizer/Test_systems_manuscript/rnas/4aob

>  <Rbt.Executable>
rbdock ($Id: //depot/dev/client3/rdock/2013.1/src/exe/rbdock.cxx#4 $)

>  <Rbt.Library>
libRbt.so (2013.1, Build901 2013/11/27)

>  <Rbt.Parameter_File>
/export/apps/rDock/src/rDock_2013.1_src/data/scripts/dock_solv.prm

>  <Rbt.Receptor>
prm/pocket_docking_8.prm

>  <SCORE>
-13.1521

>  <SCORE.INTER>
-13.8133

>  <SCORE.INTER.CONST>
1

>  <SCORE.INTER.POLAR>
0

>  <SCORE.INTER.ROT>
7

>  <SCORE.INTER.SOLV>
16.6892

>  <SCORE.INTER.VDW>
-23.0386

>  <SCORE.INTER.norm>
-0.511603

>  <SCORE.INTRA>
0.661213

>  <SCORE.INTRA.DIHEDRAL>
-0.297246

>  <SCORE.INTRA.DIHEDRAL.0>
6.31833

>  <SCORE.INTRA.POLAR>
0

>  <SCORE.INTRA.POLAR.0>
0

>  <SCORE.INTRA.REPUL>
0

>  <SCORE.INTRA.REPUL.0>
0

>  <SCORE.INTRA.SOLV>
0.12998

>  <SCORE.INTRA.SOLV.lig_0>
-48.4015

>  <SCORE.INTRA.VDW>
0.744846

>  <SCORE.INTRA.VDW.0>
-2.83256

>  <SCORE.INTRA.norm>
0.0244894

>  <SCORE.RESTR>
0

>  <SCORE.RESTR.CAVITY>
0

>  <SCORE.RESTR.norm>
0

>  <SCORE.SYSTEM>
0

>  <SCORE.SYSTEM.CONST>
0

>  <SCORE.SYSTEM.DIHEDRAL>
0

>  <SCORE.SYSTEM.SOLV>
0

>  <SCORE.SYSTEM.norm>
0

>  <SCORE.heavy>
27

>  <SCORE.norm>
-0.487113

>  <RMSD>
3.893

$$$$
ligand
 OpenBabel02271912153D
libRbt.so/2013.1/901 2013/11/27
 27 29  0  0  0  0  0  0  0  0999 V2000
   12.4997    8.7797   27.0490 N   0  0  0  0  0  0  0  0  0  0  0  0
   12.5407    7.9612   28.2846 C   0  0  2  0  0  0  0  0  0  0  0  0
   11.1800    7.2966   28.4487 C   0  0  0  0  0  0  0  0  0  0  0  0
   10.9597    6.0477   28.5871 O   0  0  0  0  0  0  0  0  0  0  0  0
   12.9198    8.8641   29.4605 C   0  0  0  0  0  0  0  0  0  0  0  0
   14.2711    9.5406   29.2720 C   0  0  0  0  0  0  0  0  0  0  0  0
   15.8694    8.6954   29.5680 S   0  0  2  0  0  0  0  0  0  0  0  0
   15.6888    7.3532   28.3947 C   0  0  0  0  0  0  0  0  0  0  0  0
   15.4625    7.9263   31.1677 C   0  0  0  0  0  0  0  0  0  0  0  0
   16.6915    7.4001   31.8566 C   0  0  1  0  0  0  0  0  0  0  0  0
   16.4079    6.8822   33.1788 O   0  0  0  0  0  0  0  0  0  0  0  0
   17.4075    6.3053   31.0992 C   0  0  1  0  0  0  0  0  0  0  0  0
   18.4446    6.8679   30.4207 O   0  0  0  0  0  0  0  0  0  0  0  0
   17.9968    5.5237   32.2500 C   0  0  1  0  0  0  0  0  0  0  0  0
   19.1410    6.1744   32.5859 O   0  0  0  0  0  0  0  0  0  0  0  0
   16.9938    5.6312   33.4198 C   0  0  2  0  0  0  0  0  0  0  0  0
   10.2029    8.0446   28.3840 O   0  0  0  0  0  0  0  0  0  0  0  0
   12.0245    4.1017   33.7961 N   0  0  0  0  0  0  0  0  0  0  0  0
   12.7363    5.2643   34.2459 C   0  0  0  0  0  0  0  0  0  0  0  0
   14.1088    5.5686   34.0682 N   0  0  0  0  0  0  0  0  0  0  0  0
   14.7038    4.6532   33.4110 C   0  0  0  0  0  0  0  0  0  0  0  0
   14.0601    3.4224   32.9000 C   0  0  0  0  0  0  0  0  0  0  0  0
   12.7612    3.1662   33.1029 C   0  0  0  0  0  0  0  0  0  0  0  0
   12.3203    2.0260   32.6123 N   0  0  0  0  0  0  0  0  0  0  0  0
   14.8828    2.6240   32.2627 N   0  0  0  0  0  0  0  0  0  0  0  0
   16.0472    3.3620   32.3697 C   0  0  0  0  0  0  0  0  0  0  0  0
   15.9486    4.6294   33.0757 N   0  0  0  0  0  0  0  0  0  0  0  0
  2  1  1  6  0  0  0
  2  3  1  0  0  0  0
  2  5  1  0  0  0  0
  3  4  1  0  0  0  0
  3 17  1  0  0  0  0
  5  6  1  0  0  0  0
  7  6  1  6  0  0  0
  7  8  1  0  0  0  0
  7  9  1  0  0  0  0
 10  9  1  6  0  0  0
 10 11  1  0  0  0  0
 10 12  1  0  0  0  0
 11 16  1  0  0  0  0
 12 13  1  6  0  0  0
 12 14  1  0  0  0  0
 14 15  1  1  0  0  0
 14 16  1  0  0  0  0
 16 27  1  6  0  0  0
 18 19  2  0  0  0  0
 18 23  1  0  0  0  0
 19 20  1  0  0  0  0
 20 21  2  0  0  0  0
 21 22  1  0  0  0  0
 21 27  1  0  0  0  0
 22 23  2  0  0  0  0
 22 25  1  0  0  0  0
 23 24  1  0  0  0  0
 25 26  2  0  0  0  0
 26 27  1  0  0  0  0
M  END
>  <CHROM.1>
125.45348787,-59.12058377,-79.20415767,59.07562996,-166.77197577,175.26882446
-45.54176721,14.68448319,6.26295194,31.16595955,-2.07147433,0.25639505,2.37826943

>  <Name>
ligand

>  <RI>
0

>  <Rbt.Current_Directory>
/home/itssahil/PROJECTS/Mol_Feturizer/Test_systems_manuscript/rnas/4aob

>  <Rbt.Executable>
rbdock ($Id: //depot/dev/client3/rdock/2013.1/src/exe/rbdock.cxx#4 $)

>  <Rbt.Library>
libRbt.so (2013.1, Build901 2013/11/27)

>  <Rbt.Parameter_File>
/export/apps/rDock/src/rDock_2013.1_src/data/scripts/dock_solv.prm

>  <Rbt.Receptor>
prm/pocket_docking_8.prm

>  <SCORE>
-10.5661

>  <SCORE.INTER>
-11.8453

>  <SCORE.INTER.CONST>
1

>  <SCORE.INTER.POLAR>
0

>  <SCORE.INTER.ROT>
7

>  <SCORE.INTER.SOLV>
11.7099

>  <SCORE.INTER.VDW>
-20.0668

>  <SCORE.INTER.norm>
-0.438714

>  <SCORE.INTRA>
1.27919

>  <SCORE.INTRA.DIHEDRAL>
-0.427017

>  <SCORE.INTRA.DIHEDRAL.0>
6.31833

>  <SCORE.INTRA.POLAR>
0

>  <SCORE.INTRA.POLAR.0>
0

>  <SCORE.INTRA.REPUL>
0

>  <SCORE.INTRA.REPUL.0>
0

>  <SCORE.INTRA.SOLV>
1.37439

>  <SCORE.INTRA.SOLV.lig_0>
-48.4015

>  <SCORE.INTRA.VDW>
0.805508

>  <SCORE.INTRA.VDW.0>
-2.83256

>  <SCORE.INTRA.norm>
0.0473775

>  <SCORE.RESTR>
0

>  <SCORE.RESTR.CAVITY>
0

>  <SCORE.RESTR.norm>
0

>  <SCORE.SYSTEM>
0

>  <SCORE.SYSTEM.CONST>
0

>  <SCORE.SYSTEM.DIHEDRAL>
0

>  <SCORE.SYSTEM.SOLV>
0

>  <SCORE.SYSTEM.norm>
0

>  <SCORE.heavy>
27

>  <SCORE.norm>
-0.391336

>  <RMSD>
4.061

$$$$
ligand
 OpenBabel02271912153D
libRbt.so/2013.1/901 2013/11/27
 27 29  0  0  0  0  0  0  0  0999 V2000
   11.4383    9.3202   27.9778 N   0  0  0  0  0  0  0  0  0  0  0  0
   12.8431    9.0865   27.5652 C   0  0  2  0  0  0  0  0  0  0  0  0
   12.9550    7.6440   27.0886 C   0  0  0  0  0  0  0  0  0  0  0  0
   13.6780    7.2187   26.1275 O   0  0  0  0  0  0  0  0  0  0  0  0
   13.7625    9.4077   28.7456 C   0  0  0  0  0  0  0  0  0  0  0  0
   15.2367    9.2230   28.4112 C   0  0  0  0  0  0  0  0  0  0  0  0
   16.5659    9.2539   29.6718 S   0  0  2  0  0  0  0  0  0  0  0  0
   17.9397    8.7652   28.6304 C   0  0  0  0  0  0  0  0  0  0  0  0
   16.1247    7.7207   30.5498 C   0  0  0  0  0  0  0  0  0  0  0  0
   17.1537    7.3616   31.5862 C   0  0  1  0  0  0  0  0  0  0  0  0
   16.5688    7.1191   32.8886 O   0  0  0  0  0  0  0  0  0  0  0  0
   17.9831    6.1453   31.2428 C   0  0  1  0  0  0  0  0  0  0  0  0
   19.1620    6.5722   30.7133 O   0  0  0  0  0  0  0  0  0  0  0  0
   18.2784    5.6215   32.6287 C   0  0  1  0  0  0  0  0  0  0  0  0
   19.3409    6.3419   33.0731 O   0  0  0  0  0  0  0  0  0  0  0  0
   17.0461    5.9510   33.5000 C   0  0  2  0  0  0  0  0  0  0  0  0
   12.2290    6.8290   27.6606 O   0  0  0  0  0  0  0  0  0  0  0  0
   12.1938    4.0799   33.8592 N   0  0  0  0  0  0  0  0  0  0  0  0
   12.8262    5.2802   34.3281 C   0  0  0  0  0  0  0  0  0  0  0  0
   14.1742    5.6804   34.1531 N   0  0  0  0  0  0  0  0  0  0  0  0
   14.8280    4.8195   33.4785 C   0  0  0  0  0  0  0  0  0  0  0  0
   14.2680    3.5568   32.9470 C   0  0  0  0  0  0  0  0  0  0  0  0
   12.9902    3.2091   33.1480 C   0  0  0  0  0  0  0  0  0  0  0  0
   12.6265    2.0504   32.6381 N   0  0  0  0  0  0  0  0  0  0  0  0
   15.1411    2.8277   32.2939 N   0  0  0  0  0  0  0  0  0  0  0  0
   16.2529    3.6413   32.4117 C   0  0  0  0  0  0  0  0  0  0  0  0
   16.0704    4.8865   33.1403 N   0  0  0  0  0  0  0  0  0  0  0  0
  2  1  1  1  0  0  0
  2  3  1  0  0  0  0
  2  5  1  0  0  0  0
  3  4  1  0  0  0  0
  3 17  1  0  0  0  0
  5  6  1  0  0  0  0
  7  6  1  6  0  0  0
  7  8  1  0  0  0  0
  7  9  1  0  0  0  0
 10  9  1  6  0  0  0
 10 11  1  0  0  0  0
 10 12  1  0  0  0  0
 11 16  1  0  0  0  0
 12 13  1  1  0  0  0
 12 14  1  0  0  0  0
 14 15  1  1  0  0  0
 14 16  1  0  0  0  0
 16 27  1  6  0  0  0
 18 19  2  0  0  0  0
 18 23  1  0  0  0  0
 19 20  1  0  0  0  0
 20 21  2  0  0  0  0
 21 22  1  0  0  0  0
 21 27  1  0  0  0  0
 22 23  2  0  0  0  0
 22 25  1  0  0  0  0
 23 24  1  0  0  0  0
 25 26  2  0  0  0  0
 26 27  1  0  0  0  0
M  END
>  <CHROM.1>
143.69648208,-178.90686991,-169.48070924,172.81605760,173.31838851,128.23113099
-64.32640328,15.28753833,6.48176982,30.99131780,1.72235825,-0.30546638,-0.84908940

>  <Name>
ligand

>  <RI>
0

>  <Rbt.Current_Directory>
/home/itssahil/PROJECTS/Mol_Feturizer/Test_systems_manuscript/rnas/4aob

>  <Rbt.Executable>
rbdock ($Id: //depot/dev/client3/rdock/2013.1/src/exe/rbdock.cxx#4 $)

>  <Rbt.Library>
libRbt.so (2013.1, Build901 2013/11/27)

>  <Rbt.Parameter_File>
/export/apps/rDock/src/rDock_2013.1_src/data/scripts/dock_solv.prm

>  <Rbt.Receptor>
prm/pocket_docking_6.prm

>  <SCORE>
-10.0037

>  <SCORE.INTER>
-11.3641

>  <SCORE.INTER.CONST>
1

>  <SCORE.INTER.POLAR>
0

>  <SCORE.INTER.ROT>
7

>  <SCORE.INTER.SOLV>
13.4125

>  <SCORE.INTER.VDW>
-20.3135

>  <SCORE.INTER.norm>
-0.420892

>  <SCORE.INTRA>
1.36034

>  <SCORE.INTRA.DIHEDRAL>
2.3837

>  <SCORE.INTRA.DIHEDRAL.0>
6.31833

>  <SCORE.INTRA.POLAR>
0

>  <SCORE.INTRA.POLAR.0>
0

>  <SCORE.INTRA.REPUL>
0

>  <SCORE.INTRA.REPUL.0>
0

>  <SCORE.INTRA.SOLV>
-0.552997

>  <SCORE.INTRA.SOLV.lig_0>
-48.4015

>  <SCORE.INTRA.VDW>
0.44499

>  <SCORE.INTRA.VDW.0>
-2.83256

>  <SCORE.INTRA.norm>
0.0503831

>  <SCORE.RESTR>
0

>  <SCORE.RESTR.CAVITY>
0

>  <SCORE.RESTR.norm>
0

>  <SCORE.SYSTEM>
0

>  <SCORE.SYSTEM.CONST>
0

>  <SCORE.SYSTEM.DIHEDRAL>
0

>  <SCORE.SYSTEM.SOLV>
0

>  <SCORE.SYSTEM.norm>
0

>  <SCORE.heavy>
27

>  <SCORE.norm>
-0.370508

>  <RMSD>
4.068

$$$$
ligand
 OpenBabel02271912153D
libRbt.so/2013.1/901 2013/11/27
 27 29  0  0  0  0  0  0  0  0999 V2000
   13.3388   10.2065   29.0849 N   0  0  0  0  0  0  0  0  0  0  0  0
   13.8162    8.8208   29.3092 C   0  0  2  0  0  0  0  0  0  0  0  0
   15.1965    8.9012   29.9485 C   0  0  0  0  0  0  0  0  0  0  0  0
   16.1957    9.5625   29.5106 O   0  0  0  0  0  0  0  0  0  0  0  0
   13.8099    8.0758   27.9726 C   0  0  0  0  0  0  0  0  0  0  0  0
   14.0278    6.5771   28.1325 C   0  0  0  0  0  0  0  0  0  0  0  0
   12.8392    5.4727   28.9833 S   0  0  2  0  0  0  0  0  0  0  0  0
   11.3173    6.1548   28.3282 C   0  0  0  0  0  0  0  0  0  0  0  0
   12.9558    6.2013   30.6482 C   0  0  0  0  0  0  0  0  0  0  0  0
   12.8478    5.1516   31.7198 C   0  0  1  0  0  0  0  0  0  0  0  0
   13.9007    4.1611   31.6349 O   0  0  0  0  0  0  0  0  0  0  0  0
   12.8700    5.6980   33.1290 C   0  0  1  0  0  0  0  0  0  0  0  0
   11.5849    5.7911   33.5677 O   0  0  0  0  0  0  0  0  0  0  0  0
   13.5085    4.5381   33.8568 C   0  0  1  0  0  0  0  0  0  0  0  0
   12.4996    3.6635   34.1070 O   0  0  0  0  0  0  0  0  0  0  0  0
   14.5050    3.8895   32.8707 C   0  0  2  0  0  0  0  0  0  0  0  0
   15.3657    8.2115   30.9555 O   0  0  0  0  0  0  0  0  0  0  0  0
   18.9685    5.4992   30.7119 N   0  0  0  0  0  0  0  0  0  0  0  0
   17.9499    4.5752   30.3006 C   0  0  0  0  0  0  0  0  0  0  0  0
   16.7604    4.2272   30.9874 N   0  0  0  0  0  0  0  0  0  0  0  0
   16.6571    4.8653   32.0855 C   0  0  0  0  0  0  0  0  0  0  0  0
   17.6470    5.8407   32.5948 C   0  0  0  0  0  0  0  0  0  0  0  0
   18.7672    6.1304   31.9201 C   0  0  0  0  0  0  0  0  0  0  0  0
   19.5718    7.0003   32.4953 N   0  0  0  0  0  0  0  0  0  0  0  0
   17.3253    6.3595   33.7557 N   0  0  0  0  0  0  0  0  0  0  0  0
   16.1238    5.7101   33.9719 C   0  0  0  0  0  0  0  0  0  0  0  0
   15.6930    4.7830   32.9377 N   0  0  0  0  0  0  0  0  0  0  0  0
  2  1  1  6  0  0  0
  2  3  1  0  0  0  0
  2  5  1  0  0  0  0
  3  4  1  0  0  0  0
  3 17  1  0  0  0  0
  5  6  1  0  0  0  0
  7  6  1  6  0  0  0
  7  8  1  0  0  0  0
  7  9  1  0  0  0  0
 10  9  1  6  0  0  0
 10 11  1  0  0  0  0
 10 12  1  0  0  0  0
 11 16  1  0  0  0  0
 12 13  1  1  0  0  0
 12 14  1  0  0  0  0
 14 15  1  6  0  0  0
 14 16  1  0  0  0  0
 16 27  1  6  0  0  0
 18 19  2  0  0  0  0
 18 23  1  0  0  0  0
 19 20  1  0  0  0  0
 20 21  2  0  0  0  0
 21 22  1  0  0  0  0
 21 27  1  0  0  0  0
 22 23  2  0  0  0  0
 22 25  1  0  0  0  0
 23 24  1  0  0  0  0
 25 26  2  0  0  0  0
 26 27  1  0  0  0  0
M  END
>  <CHROM.1>
-52.60312548,-169.06032601,65.30766102,41.57567137,-144.14294699,60.60496930
-55.47149095,14.85550944,6.13390881,31.18992231,-2.44986255,0.17987005,2.28011308

>  <Name>
ligand

>  <RI>
0

>  <Rbt.Current_Directory>
/home/itssahil/PROJECTS/Mol_Feturizer/Test_systems_manuscript/rnas/4aob

>  <Rbt.Executable>
rbdock ($Id: //depot/dev/client3/rdock/2013.1/src/exe/rbdock.cxx#4 $)

>  <Rbt.Library>
libRbt.so (2013.1, Build901 2013/11/27)

>  <Rbt.Parameter_File>
/export/apps/rDock/src/rDock_2013.1_src/data/scripts/dock_solv.prm

>  <Rbt.Receptor>
prm/pocket_docking_5.prm

>  <SCORE>
-7.09708

>  <SCORE.INTER>
-7.21272

>  <SCORE.INTER.CONST>
1

>  <SCORE.INTER.POLAR>
0

>  <SCORE.INTER.ROT>
7

>  <SCORE.INTER.SOLV>
12.6773

>  <SCORE.INTER.VDW>
-17.3009

>  <SCORE.INTER.norm>
-0.267138

>  <SCORE.INTRA>
0.11564

>  <SCORE.INTRA.DIHEDRAL>
1.27533

>  <SCORE.INTRA.DIHEDRAL.0>
6.31833

>  <SCORE.INTRA.POLAR>
0

>  <SCORE.INTRA.POLAR.0>
0

>  <SCORE.INTRA.REPUL>
0

>  <SCORE.INTRA.REPUL.0>
0

>  <SCORE.INTRA.SOLV>
-0.266914

>  <SCORE.INTRA.SOLV.lig_0>
-48.4015

>  <SCORE.INTRA.VDW>
-0.388567

>  <SCORE.INTRA.VDW.0>
-2.83256

>  <SCORE.INTRA.norm>
0.00428295

>  <SCORE.RESTR>
0

>  <SCORE.RESTR.CAVITY>
0

>  <SCORE.RESTR.norm>
0

>  <SCORE.SYSTEM>
0

>  <SCORE.SYSTEM.CONST>
0

>  <SCORE.SYSTEM.DIHEDRAL>
0

>  <SCORE.SYSTEM.SOLV>
0

>  <SCORE.SYSTEM.norm>
0

>  <SCORE.heavy>
27

>  <SCORE.norm>
-0.262855

>  <RMSD>
4.135

$$$$
ligand
 OpenBabel02271912153D
libRbt.so/2013.1/901 2013/11/27
 27 29  0  0  0  0  0  0  0  0999 V2000
   12.2074    9.8143   26.9806 N   0  0  0  0  0  0  0  0  0  0  0  0
   12.1557    8.4935   27.6522 C   0  0  2  0  0  0  0  0  0  0  0  0
   11.0369    8.5394   28.6849 C   0  0  0  0  0  0  0  0  0  0  0  0
    9.7872    8.4332   28.4517 O   0  0  0  0  0  0  0  0  0  0  0  0
   13.5286    8.1960   28.2590 C   0  0  0  0  0  0  0  0  0  0  0  0
   14.0912    9.3710   29.0476 C   0  0  0  0  0  0  0  0  0  0  0  0
   15.6993    9.3171   29.9239 S   0  0  2  0  0  0  0  0  0  0  0  0
   16.7072    8.6487   28.6018 C   0  0  0  0  0  0  0  0  0  0  0  0
   15.3674    7.8739   30.9839 C   0  0  0  0  0  0  0  0  0  0  0  0
   16.5891    7.4657   31.7602 C   0  0  1  0  0  0  0  0  0  0  0  0
   16.2708    7.0115   33.0978 O   0  0  0  0  0  0  0  0  0  0  0  0
   17.4041    6.3732   31.1066 C   0  0  1  0  0  0  0  0  0  0  0  0
   18.4392    6.9563   30.4426 O   0  0  0  0  0  0  0  0  0  0  0  0
   17.9799    5.6992   32.3300 C   0  0  1  0  0  0  0  0  0  0  0  0
   19.0664    6.4373   32.6767 O   0  0  0  0  0  0  0  0  0  0  0  0
   16.9154    5.8152   33.4434 C   0  0  2  0  0  0  0  0  0  0  0  0
   11.3841    8.7559   29.8472 O   0  0  0  0  0  0  0  0  0  0  0  0
   12.0628    3.9459   33.8065 N   0  0  0  0  0  0  0  0  0  0  0  0
   12.6845    5.1676   34.2325 C   0  0  0  0  0  0  0  0  0  0  0  0
   14.0341    5.5641   34.0617 N   0  0  0  0  0  0  0  0  0  0  0  0
   14.7008    4.6766   33.4360 C   0  0  0  0  0  0  0  0  0  0  0  0
   14.1527    3.3901   32.9513 C   0  0  0  0  0  0  0  0  0  0  0  0
   12.8728    3.0474   33.1468 C   0  0  0  0  0  0  0  0  0  0  0  0
   12.5202    1.8663   32.6823 N   0  0  0  0  0  0  0  0  0  0  0  0
   15.0380    2.6360   32.3448 N   0  0  0  0  0  0  0  0  0  0  0  0
   16.1457    3.4576   32.4446 C   0  0  0  0  0  0  0  0  0  0  0  0
   15.9484    4.7328   33.1151 N   0  0  0  0  0  0  0  0  0  0  0  0
  2  1  1  1  0  0  0
  2  3  1  0  0  0  0
  2  5  1  0  0  0  0
  3  4  1  0  0  0  0
  3 17  1  0  0  0  0
  5  6  1  0  0  0  0
  7  6  1  6  0  0  0
  7  8  1  0  0  0  0
  7  9  1  0  0  0  0
 10  9  1  6  0  0  0
 10 11  1  0  0  0  0
 10 12  1  0  0  0  0
 11 16  1  0  0  0  0
 12 13  1  6  0  0  0
 12 14  1  0  0  0  0
 14 15  1  1  0  0  0
 14 16  1  0  0  0  0
 16 27  1  6  0  0  0
 18 19  2  0  0  0  0
 18 23  1  0  0  0  0
 19 20  1  0  0  0  0
 20 21  2  0  0  0  0
 21 22  1  0  0  0  0
 21 27  1  0  0  0  0
 22 23  2  0  0  0  0
 22 25  1  0  0  0  0
 23 24  1  0  0  0  0
 25 26  2  0  0  0  0
 26 27  1  0  0  0  0
M  END
>  <CHROM.1>
78.26506310,47.49266237,178.66636558,48.66811963,174.10996897,142.93405920
-48.48675080,14.69780511,6.57680286,31.19786116,1.95661232,-0.18462708,-0.70742303

>  <Name>
ligand

>  <RI>
0

>  <Rbt.Current_Directory>
/home/itssahil/PROJECTS/Mol_Feturizer/Test_systems_manuscript/rnas/4aob

>  <Rbt.Executable>
rbdock ($Id: //depot/dev/client3/rdock/2013.1/src/exe/rbdock.cxx#4 $)

>  <Rbt.Library>
libRbt.so (2013.1, Build901 2013/11/27)

>  <Rbt.Parameter_File>
/export/apps/rDock/src/rDock_2013.1_src/data/scripts/dock_solv.prm

>  <Rbt.Receptor>
prm/pocket_docking_5.prm

>  <SCORE>
-10.0273

>  <SCORE.INTER>
-12.8954

>  <SCORE.INTER.CONST>
1

>  <SCORE.INTER.POLAR>
0

>  <SCORE.INTER.ROT>
7

>  <SCORE.INTER.SOLV>
13.887

>  <SCORE.INTER.VDW>
-21.4926

>  <SCORE.INTER.norm>
-0.477607

>  <SCORE.INTRA>
2.86806

>  <SCORE.INTRA.DIHEDRAL>
0.912508

>  <SCORE.INTRA.DIHEDRAL.0>
6.31833

>  <SCORE.INTRA.POLAR>
0

>  <SCORE.INTRA.POLAR.0>
0

>  <SCORE.INTRA.REPUL>
0

>  <SCORE.INTRA.REPUL.0>
0

>  <SCORE.INTRA.SOLV>
0.284322

>  <SCORE.INTRA.SOLV.lig_0>
-48.4015

>  <SCORE.INTRA.VDW>
2.26964

>  <SCORE.INTRA.VDW.0>
-2.83256

>  <SCORE.INTRA.norm>
0.106224

>  <SCORE.RESTR>
0

>  <SCORE.RESTR.CAVITY>
0

>  <SCORE.RESTR.norm>
0

>  <SCORE.SYSTEM>
0

>  <SCORE.SYSTEM.CONST>
0

>  <SCORE.SYSTEM.DIHEDRAL>
0

>  <SCORE.SYSTEM.SOLV>
0

>  <SCORE.SYSTEM.norm>
0

>  <SCORE.heavy>
27

>  <SCORE.norm>
-0.371383

>  <RMSD>
4.257

$$$$
ligand
 OpenBabel02271912153D
libRbt.so/2013.1/901 2013/11/27
 27 29  0  0  0  0  0  0  0  0999 V2000
   12.2461    6.5657   29.1059 N   0  0  0  0  0  0  0  0  0  0  0  0
   13.1847    7.5773   29.6480 C   0  0  2  0  0  0  0  0  0  0  0  0
   12.5757    8.1407   30.9255 C   0  0  0  0  0  0  0  0  0  0  0  0
   13.0575    8.0388   32.1023 O   0  0  0  0  0  0  0  0  0  0  0  0
   13.4353    8.6403   28.5761 C   0  0  0  0  0  0  0  0  0  0  0  0
   14.6147    9.5449   28.9080 C   0  0  0  0  0  0  0  0  0  0  0  0
   16.3314    9.1977   28.3706 S   0  0  2  0  0  0  0  0  0  0  0  0
   15.9944    8.7156   26.6781 C   0  0  0  0  0  0  0  0  0  0  0  0
   16.5562    7.6101   29.2338 C   0  0  0  0  0  0  0  0  0  0  0  0
   17.0588    7.8101   30.6371 C   0  0  1  0  0  0  0  0  0  0  0  0
   15.9894    8.0721   31.5777 O   0  0  0  0  0  0  0  0  0  0  0  0
   17.8514    6.6454   31.1849 C   0  0  1  0  0  0  0  0  0  0  0  0
   19.1748    6.9258   31.0352 O   0  0  0  0  0  0  0  0  0  0  0  0
   17.5309    6.7706   32.6560 C   0  0  1  0  0  0  0  0  0  0  0  0
   18.3881    7.7077   33.1384 O   0  0  0  0  0  0  0  0  0  0  0  0
   16.0871    7.3114   32.7515 C   0  0  2  0  0  0  0  0  0  0  0  0
   11.4839    8.6988   30.8022 O   0  0  0  0  0  0  0  0  0  0  0  0
   12.2591    4.1828   34.4047 N   0  0  0  0  0  0  0  0  0  0  0  0
   12.8191    5.4064   34.9043 C   0  0  0  0  0  0  0  0  0  0  0  0
   13.8703    6.1754   34.3461 N   0  0  0  0  0  0  0  0  0  0  0  0
   14.3038    5.6521   33.2682 C   0  0  0  0  0  0  0  0  0  0  0  0
   13.7914    4.3995   32.6688 C   0  0  0  0  0  0  0  0  0  0  0  0
   12.8048    3.6945   33.2375 C   0  0  0  0  0  0  0  0  0  0  0  0
   12.4581    2.5890   32.6109 N   0  0  0  0  0  0  0  0  0  0  0  0
   14.4062    4.0558   31.5624 N   0  0  0  0  0  0  0  0  0  0  0  0
   15.3046    5.1023   31.4647 C   0  0  0  0  0  0  0  0  0  0  0  0
   15.2473    6.1058   32.5156 N   0  0  0  0  0  0  0  0  0  0  0  0
  2  1  1  6  0  0  0
  2  3  1  0  0  0  0
  2  5  1  0  0  0  0
  3  4  1  0  0  0  0
  3 17  1  0  0  0  0
  5  6  1  0  0  0  0
  7  6  1  1  0  0  0
  7  8  1  0  0  0  0
  7  9  1  0  0  0  0
 10  9  1  6  0  0  0
 10 11  1  0  0  0  0
 10 12  1  0  0  0  0
 11 16  1  0  0  0  0
 12 13  1  1  0  0  0
 12 14  1  0  0  0  0
 14 15  1  6  0  0  0
 14 16  1  0  0  0  0
 16 27  1  6  0  0  0
 18 19  2  0  0  0  0
 18 23  1  0  0  0  0
 19 20  1  0  0  0  0
 20 21  2  0  0  0  0
 21 22  1  0  0  0  0
 21 27  1  0  0  0  0
 22 23  2  0  0  0  0
 22 25  1  0  0  0  0
 23 24  1  0  0  0  0
 25 26  2  0  0  0  0
 26 27  1  0  0  0  0
M  END
>  <CHROM.1>
116.36505650,-167.00431046,91.10693813,43.95047219,-87.64404022,84.52999735
-127.48478114,14.88437218,6.90039289,31.23305165,1.09020296,-0.13857252,-0.91472757

>  <Name>
ligand

>  <RI>
0

>  <Rbt.Current_Directory>
/home/itssahil/PROJECTS/Mol_Feturizer/Test_systems_manuscript/rnas/4aob

>  <Rbt.Executable>
rbdock ($Id: //depot/dev/client3/rdock/2013.1/src/exe/rbdock.cxx#4 $)

>  <Rbt.Library>
libRbt.so (2013.1, Build901 2013/11/27)

>  <Rbt.Parameter_File>
/export/apps/rDock/src/rDock_2013.1_src/data/scripts/dock_solv.prm

>  <Rbt.Receptor>
prm/pocket_docking_6.prm

>  <SCORE>
-7.37683

>  <SCORE.INTER>
-7.03879

>  <SCORE.INTER.CONST>
1

>  <SCORE.INTER.POLAR>
0

>  <SCORE.INTER.ROT>
7

>  <SCORE.INTER.SOLV>
11.4132

>  <SCORE.INTER.VDW>
-16.7636

>  <SCORE.INTER.norm>
-0.260696

>  <SCORE.INTRA>
-0.338043

>  <SCORE.INTRA.DIHEDRAL>
3.31605

>  <SCORE.INTRA.DIHEDRAL.0>
6.31833

>  <SCORE.INTRA.POLAR>
0

>  <SCORE.INTRA.POLAR.0>
0

>  <SCORE.INTRA.REPUL>
0

>  <SCORE.INTRA.REPUL.0>
0

>  <SCORE.INTRA.SOLV>
-0.229688

>  <SCORE.INTRA.SOLV.lig_0>
-48.4015

>  <SCORE.INTRA.VDW>
-1.88122

>  <SCORE.INTRA.VDW.0>
-2.83256

>  <SCORE.INTRA.norm>
-0.0125201

>  <SCORE.RESTR>
0

>  <SCORE.RESTR.CAVITY>
0

>  <SCORE.RESTR.norm>
0

>  <SCORE.SYSTEM>
0

>  <SCORE.SYSTEM.CONST>
0

>  <SCORE.SYSTEM.DIHEDRAL>
0

>  <SCORE.SYSTEM.SOLV>
0

>  <SCORE.SYSTEM.norm>
0

>  <SCORE.heavy>
27

>  <SCORE.norm>
-0.273216

>  <RMSD>
4.262

$$$$
ligand
 OpenBabel02271912153D
libRbt.so/2013.1/901 2013/11/27
 27 29  0  0  0  0  0  0  0  0999 V2000
   14.1102    6.1462   25.0473 N   0  0  0  0  0  0  0  0  0  0  0  0
   14.6498    6.4061   26.4037 C   0  0  2  0  0  0  0  0  0  0  0  0
   15.5102    7.6609   26.3302 C   0  0  0  0  0  0  0  0  0  0  0  0
   16.0783    8.1289   25.2882 O   0  0  0  0  0  0  0  0  0  0  0  0
   15.4201    5.1697   26.8721 C   0  0  0  0  0  0  0  0  0  0  0  0
   14.5239    3.9525   27.0572 C   0  0  0  0  0  0  0  0  0  0  0  0
   13.3021    3.7995   28.4139 S   0  0  2  0  0  0  0  0  0  0  0  0
   12.4120    5.3325   28.1524 C   0  0  0  0  0  0  0  0  0  0  0  0
   14.4132    4.1791   29.8059 C   0  0  0  0  0  0  0  0  0  0  0  0
   13.6493    4.3645   31.0882 C   0  0  1  0  0  0  0  0  0  0  0  0
   14.2283    3.6260   32.1910 O   0  0  0  0  0  0  0  0  0  0  0  0
   13.5286    5.8030   31.5368 C   0  0  1  0  0  0  0  0  0  0  0  0
   12.3119    6.2689   31.1433 O   0  0  0  0  0  0  0  0  0  0  0  0
   13.4723    5.6134   33.0346 C   0  0  1  0  0  0  0  0  0  0  0  0
   12.1776    5.3141   33.3168 O   0  0  0  0  0  0  0  0  0  0  0  0
   14.3554    4.3887   33.3607 C   0  0  2  0  0  0  0  0  0  0  0  0
   15.7139    8.2388   27.3993 O   0  0  0  0  0  0  0  0  0  0  0  0
   17.6386    8.2102   34.6992 N   0  0  0  0  0  0  0  0  0  0  0  0
   16.2536    7.9560   34.9777 C   0  0  0  0  0  0  0  0  0  0  0  0
   15.4671    6.8561   34.5537 N   0  0  0  0  0  0  0  0  0  0  0  0
   16.1530    6.0388   33.8572 C   0  0  0  0  0  0  0  0  0  0  0  0
   17.5842    6.2067   33.5196 C   0  0  0  0  0  0  0  0  0  0  0  0
   18.2880    7.2702   33.9289 C   0  0  0  0  0  0  0  0  0  0  0  0
   19.5465    7.3058   33.5418 N   0  0  0  0  0  0  0  0  0  0  0  0
   18.0677    5.2375   32.7798 N   0  0  0  0  0  0  0  0  0  0  0  0
   16.9343    4.4546   32.6586 C   0  0  0  0  0  0  0  0  0  0  0  0
   15.7381    4.9379   33.3294 N   0  0  0  0  0  0  0  0  0  0  0  0
  2  1  1  6  0  0  0
  2  3  1  0  0  0  0
  2  5  1  0  0  0  0
  3  4  1  0  0  0  0
  3 17  1  0  0  0  0
  5  6  1  0  0  0  0
  7  6  1  6  0  0  0
  7  8  1  0  0  0  0
  7  9  1  0  0  0  0
 10  9  1  6  0  0  0
 10 11  1  0  0  0  0
 10 12  1  0  0  0  0
 11 16  1  0  0  0  0
 12 13  1  6  0  0  0
 12 14  1  0  0  0  0
 14 15  1  6  0  0  0
 14 16  1  0  0  0  0
 16 27  1  6  0  0  0
 18 19  2  0  0  0  0
 18 23  1  0  0  0  0
 19 20  1  0  0  0  0
 20 21  2  0  0  0  0
 21 22  1  0  0  0  0
 21 27  1  0  0  0  0
 22 23  2  0  0  0  0
 22 25  1  0  0  0  0
 23 24  1  0  0  0  0
 25 26  2  0  0  0  0
 26 27  1  0  0  0  0
M  END
>  <CHROM.1>
-23.63298332,-65.11521714,-70.75492771,53.39544181,170.35477813,132.37198951
151.36778045,15.08464832,5.78218927,30.69771552,-1.91894203,0.59659276,1.70719000

>  <Name>
ligand

>  <RI>
0

>  <Rbt.Current_Directory>
/home/itssahil/PROJECTS/Mol_Feturizer/Test_systems_manuscript/rnas/4aob

>  <Rbt.Executable>
rbdock ($Id: //depot/dev/client3/rdock/2013.1/src/exe/rbdock.cxx#4 $)

>  <Rbt.Library>
libRbt.so (2013.1, Build901 2013/11/27)

>  <Rbt.Parameter_File>
/export/apps/rDock/src/rDock_2013.1_src/data/scripts/dock_solv.prm

>  <Rbt.Receptor>
prm/pocket_docking_8.prm

>  <SCORE>
-9.58554

>  <SCORE.INTER>
-12.806

>  <SCORE.INTER.CONST>
1

>  <SCORE.INTER.POLAR>
0

>  <SCORE.INTER.ROT>
7

>  <SCORE.INTER.SOLV>
11.43

>  <SCORE.INTER.VDW>
-20.614

>  <SCORE.INTER.norm>
-0.474297

>  <SCORE.INTRA>
3.22049

>  <SCORE.INTRA.DIHEDRAL>
2.05843

>  <SCORE.INTRA.DIHEDRAL.0>
6.31833

>  <SCORE.INTRA.POLAR>
0

>  <SCORE.INTRA.POLAR.0>
0

>  <SCORE.INTRA.REPUL>
0

>  <SCORE.INTRA.REPUL.0>
0

>  <SCORE.INTRA.SOLV>
1.31078

>  <SCORE.INTRA.SOLV.lig_0>
-48.4015

>  <SCORE.INTRA.VDW>
1.53589

>  <SCORE.INTRA.VDW.0>
-2.83256

>  <SCORE.INTRA.norm>
0.119277

>  <SCORE.RESTR>
0

>  <SCORE.RESTR.CAVITY>
0

>  <SCORE.RESTR.norm>
0

>  <SCORE.SYSTEM>
0

>  <SCORE.SYSTEM.CONST>
0

>  <SCORE.SYSTEM.DIHEDRAL>
0

>  <SCORE.SYSTEM.SOLV>
0

>  <SCORE.SYSTEM.norm>
0

>  <SCORE.heavy>
27

>  <SCORE.norm>
-0.35502

>  <RMSD>
4.398

$$$$
ligand
 OpenBabel02271912153D
libRbt.so/2013.1/901 2013/11/27
 27 29  0  0  0  0  0  0  0  0999 V2000
   12.9734    7.0200   30.1785 N   0  0  0  0  0  0  0  0  0  0  0  0
   12.7605    6.8264   28.7241 C   0  0  2  0  0  0  0  0  0  0  0  0
   12.5470    5.3384   28.4784 C   0  0  0  0  0  0  0  0  0  0  0  0
   13.0746    4.3799   29.1343 O   0  0  0  0  0  0  0  0  0  0  0  0
   13.9629    7.3987   27.9703 C   0  0  0  0  0  0  0  0  0  0  0  0
   15.2560    6.6524   28.2707 C   0  0  0  0  0  0  0  0  0  0  0  0
   16.0870    6.6961   29.9029 S   0  0  2  0  0  0  0  0  0  0  0  0
   16.6502    8.3969   29.8760 C   0  0  0  0  0  0  0  0  0  0  0  0
   17.5745    5.7431   29.4609 C   0  0  0  0  0  0  0  0  0  0  0  0
   17.4251    4.2892   29.8154 C   0  0  1  0  0  0  0  0  0  0  0  0
   17.8129    4.0082   31.1820 O   0  0  0  0  0  0  0  0  0  0  0  0
   16.0259    3.7463   29.6344 C   0  0  1  0  0  0  0  0  0  0  0  0
   15.9712    3.1077   28.4338 O   0  0  0  0  0  0  0  0  0  0  0  0
   16.0092    2.6835   30.7080 C   0  0  1  0  0  0  0  0  0  0  0  0
   16.6080    1.5964   30.1555 O   0  0  0  0  0  0  0  0  0  0  0  0
   16.8866    3.2081   31.8660 C   0  0  2  0  0  0  0  0  0  0  0  0
   11.8368    5.0472   27.5144 O   0  0  0  0  0  0  0  0  0  0  0  0
   12.2898    4.0935   34.1596 N   0  0  0  0  0  0  0  0  0  0  0  0
   12.8947    2.9289   33.5778 C   0  0  0  0  0  0  0  0  0  0  0  0
   14.1767    2.8172   32.9846 N   0  0  0  0  0  0  0  0  0  0  0  0
   14.8032    3.9261   33.0255 C   0  0  0  0  0  0  0  0  0  0  0  0
   14.2709    5.1788   33.6067 C   0  0  0  0  0  0  0  0  0  0  0  0
   13.0463    5.2451   34.1452 C   0  0  0  0  0  0  0  0  0  0  0  0
   12.6890    6.4252   34.6085 N   0  0  0  0  0  0  0  0  0  0  0  0
   15.0988    6.1924   33.5202 N   0  0  0  0  0  0  0  0  0  0  0  0
   16.1584    5.5695   32.8868 C   0  0  0  0  0  0  0  0  0  0  0  0
   15.9905    4.1581   32.5794 N   0  0  0  0  0  0  0  0  0  0  0  0
  2  1  1  1  0  0  0
  2  3  1  0  0  0  0
  2  5  1  0  0  0  0
  3  4  1  0  0  0  0
  3 17  1  0  0  0  0
  5  6  1  0  0  0  0
  7  6  1  6  0  0  0
  7  8  1  0  0  0  0
  7  9  1  0  0  0  0
 10  9  1  1  0  0  0
 10 11  1  0  0  0  0
 10 12  1  0  0  0  0
 11 16  1  0  0  0  0
 12 13  1  6  0  0  0
 12 14  1  0  0  0  0
 14 15  1  6  0  0  0
 14 16  1  0  0  0  0
 16 27  1  1  0  0  0
 18 19  2  0  0  0  0
 18 23  1  0  0  0  0
 19 20  1  0  0  0  0
 20 21  2  0  0  0  0
 21 22  1  0  0  0  0
 21 27  1  0  0  0  0
 22 23  2  0  0  0  0
 22 25  1  0  0  0  0
 23 24  1  0  0  0  0
 25 26  2  0  0  0  0
 26 27  1  0  0  0  0
M  END
>  <CHROM.1>
-32.40896432,64.50232335,-68.22076372,-69.84504693,-95.59389051,-86.68736718
159.41072953,14.93014291,4.98912645,30.84165102,1.40077315,0.52408217,-1.15575978

>  <Name>
ligand

>  <RI>
0

>  <Rbt.Current_Directory>
/home/itssahil/PROJECTS/Mol_Feturizer/Test_systems_manuscript/rnas/4aob

>  <Rbt.Executable>
rbdock ($Id: //depot/dev/client3/rdock/2013.1/src/exe/rbdock.cxx#4 $)

>  <Rbt.Library>
libRbt.so (2013.1, Build901 2013/11/27)

>  <Rbt.Parameter_File>
/export/apps/rDock/src/rDock_2013.1_src/data/scripts/dock_solv.prm

>  <Rbt.Receptor>
prm/pocket_docking_5.prm

>  <SCORE>
-8.19774

>  <SCORE.INTER>
-8.54512

>  <SCORE.INTER.CONST>
1

>  <SCORE.INTER.POLAR>
0

>  <SCORE.INTER.ROT>
7

>  <SCORE.INTER.SOLV>
12.5216

>  <SCORE.INTER.VDW>
-18.1373

>  <SCORE.INTER.norm>
-0.316486

>  <SCORE.INTRA>
0.347377

>  <SCORE.INTRA.DIHEDRAL>
0.995966

>  <SCORE.INTRA.DIHEDRAL.0>
6.31833

>  <SCORE.INTRA.POLAR>
0

>  <SCORE.INTRA.POLAR.0>
0

>  <SCORE.INTRA.REPUL>
0

>  <SCORE.INTRA.REPUL.0>
0

>  <SCORE.INTRA.SOLV>
2.08785

>  <SCORE.INTRA.SOLV.lig_0>
-48.4015

>  <SCORE.INTRA.VDW>
-1.19453

>  <SCORE.INTRA.VDW.0>
-2.83256

>  <SCORE.INTRA.norm>
0.0128658

>  <SCORE.RESTR>
0

>  <SCORE.RESTR.CAVITY>
0

>  <SCORE.RESTR.norm>
0

>  <SCORE.SYSTEM>
0

>  <SCORE.SYSTEM.CONST>
0

>  <SCORE.SYSTEM.DIHEDRAL>
0

>  <SCORE.SYSTEM.SOLV>
0

>  <SCORE.SYSTEM.norm>
0

>  <SCORE.heavy>
27

>  <SCORE.norm>
-0.30362

>  <RMSD>
4.411

$$$$
ligand
 OpenBabel02271912153D
libRbt.so/2013.1/901 2013/11/27
 27 29  0  0  0  0  0  0  0  0999 V2000
   11.7077    7.8341   27.4484 N   0  0  0  0  0  0  0  0  0  0  0  0
   12.8144    6.8598   27.6043 C   0  0  2  0  0  0  0  0  0  0  0  0
   12.1980    5.4757   27.7609 C   0  0  0  0  0  0  0  0  0  0  0  0
   12.8300    4.3812   27.9340 O   0  0  0  0  0  0  0  0  0  0  0  0
   13.6743    7.2789   28.7987 C   0  0  0  0  0  0  0  0  0  0  0  0
   14.9639    6.4761   28.9066 C   0  0  0  0  0  0  0  0  0  0  0  0
   16.2003    6.7319   30.2341 S   0  0  2  0  0  0  0  0  0  0  0  0
   16.6840    8.4105   29.8356 C   0  0  0  0  0  0  0  0  0  0  0  0
   17.5430    5.7196   29.5351 C   0  0  0  0  0  0  0  0  0  0  0  0
   17.4523    4.2895   29.9917 C   0  0  1  0  0  0  0  0  0  0  0  0
   17.8759    4.1176   31.3657 O   0  0  0  0  0  0  0  0  0  0  0  0
   16.0702    3.6878   29.8786 C   0  0  1  0  0  0  0  0  0  0  0  0
   16.0154    2.9659   28.7261 O   0  0  0  0  0  0  0  0  0  0  0  0
   16.1119    2.7021   31.0227 C   0  0  1  0  0  0  0  0  0  0  0  0
   16.7383    1.6004   30.5335 O   0  0  0  0  0  0  0  0  0  0  0  0
   16.9919    3.3356   32.1229 C   0  0  2  0  0  0  0  0  0  0  0  0
   10.9720    5.4157   27.6524 O   0  0  0  0  0  0  0  0  0  0  0  0
   12.2611    4.3396   34.0686 N   0  0  0  0  0  0  0  0  0  0  0  0
   12.8684    3.1672   33.5054 C   0  0  0  0  0  0  0  0  0  0  0  0
   14.1889    3.0211   33.0127 N   0  0  0  0  0  0  0  0  0  0  0  0
   14.8495    4.1042   33.1328 C   0  0  0  0  0  0  0  0  0  0  0  0
   14.3177    5.3620   33.7035 C   0  0  0  0  0  0  0  0  0  0  0  0
   13.0571    5.4617   34.1451 C   0  0  0  0  0  0  0  0  0  0  0  0
   12.7065    6.6431   34.6101 N   0  0  0  0  0  0  0  0  0  0  0  0
   15.1857    6.3452   33.7100 N   0  0  0  0  0  0  0  0  0  0  0  0
   16.2696    5.6978   33.1459 C   0  0  0  0  0  0  0  0  0  0  0  0
   16.0762    4.3016   32.7883 N   0  0  0  0  0  0  0  0  0  0  0  0
  2  1  1  1  0  0  0
  2  3  1  0  0  0  0
  2  5  1  0  0  0  0
  3  4  1  0  0  0  0
  3 17  1  0  0  0  0
  5  6  1  0  0  0  0
  7  6  1  6  0  0  0
  7  8  1  0  0  0  0
  7  9  1  0  0  0  0
 10  9  1  1  0  0  0
 10 11  1  0  0  0  0
 10 12  1  0  0  0  0
 11 16  1  0  0  0  0
 12 13  1  6  0  0  0
 12 14  1  0  0  0  0
 14 15  1  6  0  0  0
 14 16  1  0  0  0  0
 16 27  1  1  0  0  0
 18 19  2  0  0  0  0
 18 23  1  0  0  0  0
 19 20  1  0  0  0  0
 20 21  2  0  0  0  0
 21 22  1  0  0  0  0
 21 27  1  0  0  0  0
 22 23  2  0  0  0  0
 22 25  1  0  0  0  0
 23 24  1  0  0  0  0
 25 26  2  0  0  0  0
 26 27  1  0  0  0  0
M  END
>  <CHROM.1>
-179.10811700,-170.63345088,-179.61213388,-63.82298736,-89.65262079,-74.92198647
150.51435253,14.85002690,5.09625078,30.81388650,2.01099761,0.39706552,-1.33127359

>  <Name>
ligand

>  <RI>
0

>  <Rbt.Current_Directory>
/home/itssahil/PROJECTS/Mol_Feturizer/Test_systems_manuscript/rnas/4aob

>  <Rbt.Executable>
rbdock ($Id: //depot/dev/client3/rdock/2013.1/src/exe/rbdock.cxx#4 $)

>  <Rbt.Library>
libRbt.so (2013.1, Build901 2013/11/27)

>  <Rbt.Parameter_File>
/export/apps/rDock/src/rDock_2013.1_src/data/scripts/dock_solv.prm

>  <Rbt.Receptor>
prm/pocket_docking_4.prm

>  <SCORE>
-9.74307

>  <SCORE.INTER>
-9.43462

>  <SCORE.INTER.CONST>
1

>  <SCORE.INTER.POLAR>
0

>  <SCORE.INTER.ROT>
7

>  <SCORE.INTER.SOLV>
11.4704

>  <SCORE.INTER.VDW>
-18.3799

>  <SCORE.INTER.norm>
-0.349431

>  <SCORE.INTRA>
-0.30845

>  <SCORE.INTRA.DIHEDRAL>
-0.876659

>  <SCORE.INTRA.DIHEDRAL.0>
6.31833

>  <SCORE.INTRA.POLAR>
0

>  <SCORE.INTRA.POLAR.0>
0

>  <SCORE.INTRA.REPUL>
0

>  <SCORE.INTRA.REPUL.0>
0

>  <SCORE.INTRA.SOLV>
-0.313545

>  <SCORE.INTRA.SOLV.lig_0>
-48.4015

>  <SCORE.INTRA.VDW>
0.286652

>  <SCORE.INTRA.VDW.0>
-2.83256

>  <SCORE.INTRA.norm>
-0.0114241

>  <SCORE.RESTR>
0

>  <SCORE.RESTR.CAVITY>
0

>  <SCORE.RESTR.norm>
0

>  <SCORE.SYSTEM>
0

>  <SCORE.SYSTEM.CONST>
0

>  <SCORE.SYSTEM.DIHEDRAL>
0

>  <SCORE.SYSTEM.SOLV>
0

>  <SCORE.SYSTEM.norm>
0

>  <SCORE.heavy>
27

>  <SCORE.norm>
-0.360855

>  <RMSD>
4.461

$$$$
ligand
 OpenBabel02271912153D
libRbt.so/2013.1/901 2013/11/27
 27 29  0  0  0  0  0  0  0  0999 V2000
   14.8572    7.9417   22.0857 N   0  0  0  0  0  0  0  0  0  0  0  0
   14.3114    6.5818   21.8601 C   0  0  2  0  0  0  0  0  0  0  0  0
   13.9052    6.4798   20.3956 C   0  0  0  0  0  0  0  0  0  0  0  0
   14.4729    5.7697   19.5006 O   0  0  0  0  0  0  0  0  0  0  0  0
   13.1494    6.3511   22.8287 C   0  0  0  0  0  0  0  0  0  0  0  0
   13.5798    6.4055   24.2885 C   0  0  0  0  0  0  0  0  0  0  0  0
   12.3964    6.4040   25.6871 S   0  0  2  0  0  0  0  0  0  0  0  0
   11.7196    8.0491   25.4726 C   0  0  0  0  0  0  0  0  0  0  0  0
   13.5970    6.6057   27.0415 C   0  0  0  0  0  0  0  0  0  0  0  0
   12.9170    6.9648   28.3340 C   0  0  1  0  0  0  0  0  0  0  0  0
   11.9657    5.9592   28.7590 O   0  0  0  0  0  0  0  0  0  0  0  0
   13.8628    7.1930   29.4909 C   0  0  1  0  0  0  0  0  0  0  0  0
   14.0610    8.5335   29.6181 O   0  0  0  0  0  0  0  0  0  0  0  0
   12.9875    6.7586   30.6431 C   0  0  1  0  0  0  0  0  0  0  0  0
   12.2112    7.8337   30.9381 O   0  0  0  0  0  0  0  0  0  0  0  0
   12.0896    5.6186   30.1135 C   0  0  2  0  0  0  0  0  0  0  0  0
   12.9702    7.2011   20.0435 O   0  0  0  0  0  0  0  0  0  0  0  0
   13.7405    1.3804   32.6605 N   0  0  0  0  0  0  0  0  0  0  0  0
   12.7250    2.3594   32.9272 C   0  0  0  0  0  0  0  0  0  0  0  0
   12.3639    3.4780   32.1359 N   0  0  0  0  0  0  0  0  0  0  0  0
   13.0664    3.5394   31.0746 C   0  0  0  0  0  0  0  0  0  0  0  0
   14.1307    2.5791   30.7063 C   0  0  0  0  0  0  0  0  0  0  0  0
   14.4509    1.5420   31.4910 C   0  0  0  0  0  0  0  0  0  0  0  0
   15.4298    0.7763   31.0547 N   0  0  0  0  0  0  0  0  0  0  0  0
   14.7220    2.8594   29.5696 N   0  0  0  0  0  0  0  0  0  0  0  0
   14.0198    3.9984   29.2207 C   0  0  0  0  0  0  0  0  0  0  0  0
   12.9826    4.4287   30.1446 N   0  0  0  0  0  0  0  0  0  0  0  0
  2  1  1  6  0  0  0
  2  3  1  0  0  0  0
  2  5  1  0  0  0  0
  3  4  1  0  0  0  0
  3 17  1  0  0  0  0
  5  6  1  0  0  0  0
  7  6  1  6  0  0  0
  7  8  1  0  0  0  0
  7  9  1  0  0  0  0
 10  9  1  6  0  0  0
 10 11  1  0  0  0  0
 10 12  1  0  0  0  0
 11 16  1  0  0  0  0
 12 13  1  1  0  0  0
 12 14  1  0  0  0  0
 14 15  1  6  0  0  0
 14 16  1  0  0  0  0
 16 27  1  6  0  0  0
 18 19  2  0  0  0  0
 18 23  1  0  0  0  0
 19 20  1  0  0  0  0
 20 21  2  0  0  0  0
 21 22  1  0  0  0  0
 21 27  1  0  0  0  0
 22 23  2  0  0  0  0
 22 25  1  0  0  0  0
 23 24  1  0  0  0  0
 25 26  2  0  0  0  0
 26 27  1  0  0  0  0
M  END
>  <CHROM.1>
110.78665095,-62.21374799,171.11709963,-70.77378813,166.65776479,59.75570180
-157.41613615,13.36661208,5.46207485,27.50397018,1.52821832,1.22773501,-1.18792243

>  <Name>
ligand

>  <RI>
0

>  <Rbt.Current_Directory>
/home/itssahil/PROJECTS/Mol_Feturizer/Test_systems_manuscript/rnas/4aob

>  <Rbt.Executable>
rbdock ($Id: //depot/dev/client3/rdock/2013.1/src/exe/rbdock.cxx#4 $)

>  <Rbt.Library>
libRbt.so (2013.1, Build901 2013/11/27)

>  <Rbt.Parameter_File>
/export/apps/rDock/src/rDock_2013.1_src/data/scripts/dock_solv.prm

>  <Rbt.Receptor>
prm/pocket_docking_8.prm

>  <SCORE>
-10.6749

>  <SCORE.INTER>
-9.55722

>  <SCORE.INTER.CONST>
1

>  <SCORE.INTER.POLAR>
0

>  <SCORE.INTER.ROT>
7

>  <SCORE.INTER.SOLV>
16.4471

>  <SCORE.INTER.VDW>
-20.1205

>  <SCORE.INTER.norm>
-0.353971

>  <SCORE.INTRA>
-1.11768

>  <SCORE.INTRA.DIHEDRAL>
-2.96195

>  <SCORE.INTRA.DIHEDRAL.0>
6.31833

>  <SCORE.INTRA.POLAR>
0

>  <SCORE.INTRA.POLAR.0>
0

>  <SCORE.INTRA.REPUL>
0

>  <SCORE.INTRA.REPUL.0>
0

>  <SCORE.INTRA.SOLV>
0.0407278

>  <SCORE.INTRA.SOLV.lig_0>
-48.4015

>  <SCORE.INTRA.VDW>
0.342931

>  <SCORE.INTRA.VDW.0>
-2.83256

>  <SCORE.INTRA.norm>
-0.0413955

>  <SCORE.RESTR>
0

>  <SCORE.RESTR.CAVITY>
0

>  <SCORE.RESTR.norm>
0

>  <SCORE.SYSTEM>
0

>  <SCORE.SYSTEM.CONST>
0

>  <SCORE.SYSTEM.DIHEDRAL>
0

>  <SCORE.SYSTEM.SOLV>
0

>  <SCORE.SYSTEM.norm>
0

>  <SCORE.heavy>
27

>  <SCORE.norm>
-0.395366

>  <RMSD>
4.481

$$$$
ligand
 OpenBabel02271912153D
libRbt.so/2013.1/901 2013/11/27
 27 29  0  0  0  0  0  0  0  0999 V2000
   10.1197    9.4921   26.6662 N   0  0  0  0  0  0  0  0  0  0  0  0
   11.0108    8.3142   26.7959 C   0  0  2  0  0  0  0  0  0  0  0  0
   10.5523    7.2697   25.7864 C   0  0  0  0  0  0  0  0  0  0  0  0
   11.2694    6.7249   24.8828 O   0  0  0  0  0  0  0  0  0  0  0  0
   10.9647    7.8194   28.2432 C   0  0  0  0  0  0  0  0  0  0  0  0
   11.9214    6.6629   28.5010 C   0  0  0  0  0  0  0  0  0  0  0  0
   12.0045    5.7619   30.0941 S   0  0  2  0  0  0  0  0  0  0  0  0
   12.8559    7.0040   31.0650 C   0  0  0  0  0  0  0  0  0  0  0  0
   13.3205    4.5821   29.6551 C   0  0  0  0  0  0  0  0  0  0  0  0
   13.3815    3.4355   30.6264 C   0  0  1  0  0  0  0  0  0  0  0  0
   14.4969    2.5486   30.3690 O   0  0  0  0  0  0  0  0  0  0  0  0
   13.4772    3.8538   32.0759 C   0  0  1  0  0  0  0  0  0  0  0  0
   12.2291    3.7990   32.6159 O   0  0  0  0  0  0  0  0  0  0  0  0
   14.2603    2.6913   32.6398 C   0  0  1  0  0  0  0  0  0  0  0  0
   13.3454    1.7162   32.8797 O   0  0  0  0  0  0  0  0  0  0  0  0
   15.2194    2.2193   31.5247 C   0  0  2  0  0  0  0  0  0  0  0  0
    9.3569    6.9728   25.8224 O   0  0  0  0  0  0  0  0  0  0  0  0
   18.8811    4.9373   28.9989 N   0  0  0  0  0  0  0  0  0  0  0  0
   17.8392    4.0482   28.5692 C   0  0  0  0  0  0  0  0  0  0  0  0
   16.8882    3.3688   29.3702 N   0  0  0  0  0  0  0  0  0  0  0  0
   17.0412    3.6460   30.6045 C   0  0  0  0  0  0  0  0  0  0  0  0
   18.0782    4.5519   31.1471 C   0  0  0  0  0  0  0  0  0  0  0  0
   18.9684    5.1637   30.3552 C   0  0  0  0  0  0  0  0  0  0  0  0
   19.8492    5.9269   30.9688 N   0  0  0  0  0  0  0  0  0  0  0  0
   18.0428    4.6699   32.4529 N   0  0  0  0  0  0  0  0  0  0  0  0
   16.9735    3.8380   32.7294 C   0  0  0  0  0  0  0  0  0  0  0  0
   16.3369    3.1999   31.5882 N   0  0  0  0  0  0  0  0  0  0  0  0
  2  1  1  1  0  0  0
  2  3  1  0  0  0  0
  2  5  1  0  0  0  0
  3  4  1  0  0  0  0
  3 17  1  0  0  0  0
  5  6  1  0  0  0  0
  7  6  1  6  0  0  0
  7  8  1  0  0  0  0
  7  9  1  0  0  0  0
 10  9  1  6  0  0  0
 10 11  1  0  0  0  0
 10 12  1  0  0  0  0
 11 16  1  0  0  0  0
 12 13  1  1  0  0  0
 12 14  1  0  0  0  0
 14 15  1  6  0  0  0
 14 16  1  0  0  0  0
 16 27  1  6  0  0  0
 18 19  2  0  0  0  0
 18 23  1  0  0  0  0
 19 20  1  0  0  0  0
 20 21  2  0  0  0  0
 21 22  1  0  0  0  0
 21 27  1  0  0  0  0
 22 23  2  0  0  0  0
 22 25  1  0  0  0  0
 23 24  1  0  0  0  0
 25 26  2  0  0  0  0
 26 27  1  0  0  0  0
M  END
>  <CHROM.1>
124.45900292,-176.21963247,-174.92948425,-74.58740444,-164.29777668,-174.74469983
-39.63686672,14.16798872,5.01507194,29.87767272,-2.42040666,-0.01972235,2.24166414

>  <Name>
ligand

>  <RI>
0

>  <Rbt.Current_Directory>
/home/itssahil/PROJECTS/Mol_Feturizer/Test_systems_manuscript/rnas/4aob

>  <Rbt.Executable>
rbdock ($Id: //depot/dev/client3/rdock/2013.1/src/exe/rbdock.cxx#4 $)

>  <Rbt.Library>
libRbt.so (2013.1, Build901 2013/11/27)

>  <Rbt.Parameter_File>
/export/apps/rDock/src/rDock_2013.1_src/data/scripts/dock_solv.prm

>  <Rbt.Receptor>
prm/pocket_docking_6.prm

>  <SCORE>
-13.2405

>  <SCORE.INTER>
-12.8178

>  <SCORE.INTER.CONST>
1

>  <SCORE.INTER.POLAR>
0

>  <SCORE.INTER.ROT>
7

>  <SCORE.INTER.SOLV>
13.4442

>  <SCORE.INTER.VDW>
-21.2933

>  <SCORE.INTER.norm>
-0.474734

>  <SCORE.INTRA>
-0.42271

>  <SCORE.INTRA.DIHEDRAL>
-1.27744

>  <SCORE.INTRA.DIHEDRAL.0>
6.31833

>  <SCORE.INTRA.POLAR>
0

>  <SCORE.INTRA.POLAR.0>
0

>  <SCORE.INTRA.REPUL>
0

>  <SCORE.INTRA.REPUL.0>
0

>  <SCORE.INTRA.SOLV>
-0.45939

>  <SCORE.INTRA.SOLV.lig_0>
-48.4015

>  <SCORE.INTRA.VDW>
0.445706

>  <SCORE.INTRA.VDW.0>
-2.83256

>  <SCORE.INTRA.norm>
-0.0156559

>  <SCORE.RESTR>
0

>  <SCORE.RESTR.CAVITY>
0

>  <SCORE.RESTR.norm>
0

>  <SCORE.SYSTEM>
0

>  <SCORE.SYSTEM.CONST>
0

>  <SCORE.SYSTEM.DIHEDRAL>
0

>  <SCORE.SYSTEM.SOLV>
0

>  <SCORE.SYSTEM.norm>
0

>  <SCORE.heavy>
27

>  <SCORE.norm>
-0.49039

>  <RMSD>
4.555

$$$$
ligand
 OpenBabel02271912153D
libRbt.so/2013.1/901 2013/11/27
 27 29  0  0  0  0  0  0  0  0999 V2000
   14.3266    9.5889   29.3209 N   0  0  0  0  0  0  0  0  0  0  0  0
   14.2842    8.1264   29.5609 C   0  0  2  0  0  0  0  0  0  0  0  0
   15.7204    7.6237   29.6303 C   0  0  0  0  0  0  0  0  0  0  0  0
   16.4255    7.4910   30.6852 O   0  0  0  0  0  0  0  0  0  0  0  0
   13.4651    7.4687   28.4482 C   0  0  0  0  0  0  0  0  0  0  0  0
   13.2177    5.9867   28.6962 C   0  0  0  0  0  0  0  0  0  0  0  0
   14.5229    4.7098   28.5461 S   0  0  2  0  0  0  0  0  0  0  0  0
   14.7613    4.7718   26.7713 C   0  0  0  0  0  0  0  0  0  0  0  0
   13.4754    3.2400   28.7885 C   0  0  0  0  0  0  0  0  0  0  0  0
   13.6145    2.6855   30.1796 C   0  0  1  0  0  0  0  0  0  0  0  0
   14.8034    1.8740   30.3375 O   0  0  0  0  0  0  0  0  0  0  0  0
   13.6508    3.7357   31.2662 C   0  0  1  0  0  0  0  0  0  0  0  0
   12.4025    3.8375   31.7990 O   0  0  0  0  0  0  0  0  0  0  0  0
   14.5176    3.0362   32.2870 C   0  0  1  0  0  0  0  0  0  0  0  0
   13.6824    2.2139   32.9738 O   0  0  0  0  0  0  0  0  0  0  0  0
   15.5311    2.1794   31.4965 C   0  0  2  0  0  0  0  0  0  0  0  0
   16.2587    7.3777   28.5495 O   0  0  0  0  0  0  0  0  0  0  0  0
   18.9067    5.9203   32.8326 N   0  0  0  0  0  0  0  0  0  0  0  0
   18.0350    5.0628   33.5845 C   0  0  0  0  0  0  0  0  0  0  0  0
   17.1587    4.0638   33.0926 N   0  0  0  0  0  0  0  0  0  0  0  0
   17.2243    3.9758   31.8231 C   0  0  0  0  0  0  0  0  0  0  0  0
   18.0923    4.8077   30.9599 C   0  0  0  0  0  0  0  0  0  0  0  0
   18.8962    5.7524   31.4650 C   0  0  0  0  0  0  0  0  0  0  0  0
   19.6005    6.4337   30.5848 N   0  0  0  0  0  0  0  0  0  0  0  0
   17.9755    4.5392   29.6814 N   0  0  0  0  0  0  0  0  0  0  0  0
   17.0335    3.5290   29.7445 C   0  0  0  0  0  0  0  0  0  0  0  0
   16.5626    3.1639   31.0710 N   0  0  0  0  0  0  0  0  0  0  0  0
  2  1  1  6  0  0  0
  2  3  1  0  0  0  0
  2  5  1  0  0  0  0
  3  4  1  0  0  0  0
  3 17  1  0  0  0  0
  5  6  1  0  0  0  0
  7  6  1  6  0  0  0
  7  8  1  0  0  0  0
  7  9  1  0  0  0  0
 10  9  1  6  0  0  0
 10 11  1  0  0  0  0
 10 12  1  0  0  0  0
 11 16  1  0  0  0  0
 12 13  1  1  0  0  0
 12 14  1  0  0  0  0
 14 15  1  1  0  0  0
 14 16  1  0  0  0  0
 16 27  1  6  0  0  0
 18 19  2  0  0  0  0
 18 23  1  0  0  0  0
 19 20  1  0  0  0  0
 20 21  2  0  0  0  0
 21 22  1  0  0  0  0
 21 27  1  0  0  0  0
 22 23  2  0  0  0  0
 22 25  1  0  0  0  0
 23 24  1  0  0  0  0
 25 26  2  0  0  0  0
 26 27  1  0  0  0  0
M  END
>  <CHROM.1>
92.93299620,-172.94828586,-72.27141690,-68.70514376,-102.22711801,-80.18507413
160.67164020,15.58861979,4.91946224,30.40590943,-1.96139413,0.48170048,2.59215777

>  <Name>
ligand

>  <RI>
0

>  <Rbt.Current_Directory>
/home/itssahil/PROJECTS/Mol_Feturizer/Test_systems_manuscript/rnas/4aob

>  <Rbt.Executable>
rbdock ($Id: //depot/dev/client3/rdock/2013.1/src/exe/rbdock.cxx#4 $)

>  <Rbt.Library>
libRbt.so (2013.1, Build901 2013/11/27)

>  <Rbt.Parameter_File>
/export/apps/rDock/src/rDock_2013.1_src/data/scripts/dock_solv.prm

>  <Rbt.Receptor>
prm/pocket_docking_8.prm

>  <SCORE>
-10.4488

>  <SCORE.INTER>
-9.38876

>  <SCORE.INTER.CONST>
1

>  <SCORE.INTER.POLAR>
0

>  <SCORE.INTER.ROT>
7

>  <SCORE.INTER.SOLV>
10.671

>  <SCORE.INTER.VDW>
-18.0828

>  <SCORE.INTER.norm>
-0.347732

>  <SCORE.INTRA>
-1.06003

>  <SCORE.INTRA.DIHEDRAL>
1.28693

>  <SCORE.INTRA.DIHEDRAL.0>
6.31833

>  <SCORE.INTRA.POLAR>
0

>  <SCORE.INTRA.POLAR.0>
0

>  <SCORE.INTRA.REPUL>
0

>  <SCORE.INTRA.REPUL.0>
0

>  <SCORE.INTRA.SOLV>
0.235871

>  <SCORE.INTRA.SOLV.lig_0>
-48.4015

>  <SCORE.INTRA.VDW>
-1.82143

>  <SCORE.INTRA.VDW.0>
-2.83256

>  <SCORE.INTRA.norm>
-0.0392604

>  <SCORE.RESTR>
0

>  <SCORE.RESTR.CAVITY>
0

>  <SCORE.RESTR.norm>
0

>  <SCORE.SYSTEM>
0

>  <SCORE.SYSTEM.CONST>
0

>  <SCORE.SYSTEM.DIHEDRAL>
0

>  <SCORE.SYSTEM.SOLV>
0

>  <SCORE.SYSTEM.norm>
0

>  <SCORE.heavy>
27

>  <SCORE.norm>
-0.386992

>  <RMSD>
4.576

$$$$
ligand
 OpenBabel02271912153D
libRbt.so/2013.1/901 2013/11/27
 27 29  0  0  0  0  0  0  0  0999 V2000
   11.1966    8.7665   28.6878 N   0  0  0  0  0  0  0  0  0  0  0  0
   12.1533    7.6477   28.5109 C   0  0  2  0  0  0  0  0  0  0  0  0
   11.3795    6.3445   28.6628 C   0  0  0  0  0  0  0  0  0  0  0  0
   10.6172    5.8111   27.7900 O   0  0  0  0  0  0  0  0  0  0  0  0
   13.2852    7.8026   29.5291 C   0  0  0  0  0  0  0  0  0  0  0  0
   14.4174    6.8088   29.3069 C   0  0  0  0  0  0  0  0  0  0  0  0
   15.9548    6.7957   30.3033 S   0  0  2  0  0  0  0  0  0  0  0  0
   16.5205    8.4593   29.9524 C   0  0  0  0  0  0  0  0  0  0  0  0
   16.9669    5.7559   29.2029 C   0  0  0  0  0  0  0  0  0  0  0  0
   16.8751    4.3022   29.5773 C   0  0  1  0  0  0  0  0  0  0  0  0
   17.4685    4.0229   30.8683 O   0  0  0  0  0  0  0  0  0  0  0  0
   15.4653    3.7580   29.6138 C   0  0  1  0  0  0  0  0  0  0  0  0
   15.2275    3.1181   28.4363 O   0  0  0  0  0  0  0  0  0  0  0  0
   15.6147    2.6962   30.6781 C   0  0  1  0  0  0  0  0  0  0  0  0
   16.1226    1.6090   30.0411 O   0  0  0  0  0  0  0  0  0  0  0  0
   16.6590    3.2227   31.6872 C   0  0  2  0  0  0  0  0  0  0  0  0
   11.4643    5.7915   29.7607 O   0  0  0  0  0  0  0  0  0  0  0  0
   12.2610    4.2706   34.2823 N   0  0  0  0  0  0  0  0  0  0  0  0
   12.7346    3.1199   33.5666 C   0  0  0  0  0  0  0  0  0  0  0  0
   13.9752    2.9573   32.9014 N   0  0  0  0  0  0  0  0  0  0  0  0
   14.6989    4.0003   33.0117 C   0  0  0  0  0  0  0  0  0  0  0  0
   14.3053    5.2324   33.7311 C   0  0  0  0  0  0  0  0  0  0  0  0
   13.1156    5.3502   34.3348 C   0  0  0  0  0  0  0  0  0  0  0  0
   12.8847    6.5066   34.9215 N   0  0  0  0  0  0  0  0  0  0  0  0
   15.2157    6.1760   33.6957 N   0  0  0  0  0  0  0  0  0  0  0  0
   16.1877    5.5289   32.9551 C   0  0  0  0  0  0  0  0  0  0  0  0
   15.8821    4.1726   32.5289 N   0  0  0  0  0  0  0  0  0  0  0  0
  2  1  1  1  0  0  0
  2  3  1  0  0  0  0
  2  5  1  0  0  0  0
  3  4  1  0  0  0  0
  3 17  1  0  0  0  0
  5  6  1  0  0  0  0
  7  6  1  6  0  0  0
  7  8  1  0  0  0  0
  7  9  1  0  0  0  0
 10  9  1  1  0  0  0
 10 11  1  0  0  0  0
 10 12  1  0  0  0  0
 11 16  1  0  0  0  0
 12 13  1  6  0  0  0
 12 14  1  0  0  0  0
 14 15  1  6  0  0  0
 14 16  1  0  0  0  0
 16 27  1  1  0  0  0
 18 19  2  0  0  0  0
 18 23  1  0  0  0  0
 19 20  1  0  0  0  0
 20 21  2  0  0  0  0
 21 22  1  0  0  0  0
 21 27  1  0  0  0  0
 22 23  2  0  0  0  0
 22 25  1  0  0  0  0
 23 24  1  0  0  0  0
 25 26  2  0  0  0  0
 26 27  1  0  0  0  0
M  END
>  <CHROM.1>
77.19623598,-172.26845538,176.71110816,-58.95363259,-92.42666829,-66.55192584
149.79184420,14.47480306,5.25979669,30.93859249,2.27186541,0.53132181,-1.19474104

>  <Name>
ligand

>  <RI>
0

>  <Rbt.Current_Directory>
/home/itssahil/PROJECTS/Mol_Feturizer/Test_systems_manuscript/rnas/4aob

>  <Rbt.Executable>
rbdock ($Id: //depot/dev/client3/rdock/2013.1/src/exe/rbdock.cxx#4 $)

>  <Rbt.Library>
libRbt.so (2013.1, Build901 2013/11/27)

>  <Rbt.Parameter_File>
/export/apps/rDock/src/rDock_2013.1_src/data/scripts/dock_solv.prm

>  <Rbt.Receptor>
prm/pocket_docking_3.prm

>  <SCORE>
-7.98177

>  <SCORE.INTER>
-8.02747

>  <SCORE.INTER.CONST>
1

>  <SCORE.INTER.POLAR>
0

>  <SCORE.INTER.ROT>
7

>  <SCORE.INTER.SOLV>
15.3189

>  <SCORE.INTER.VDW>
-18.7246

>  <SCORE.INTER.norm>
-0.297314

>  <SCORE.INTRA>
0.0427805

>  <SCORE.INTRA.DIHEDRAL>
-1.19266

>  <SCORE.INTRA.DIHEDRAL.0>
6.31833

>  <SCORE.INTRA.POLAR>
0

>  <SCORE.INTRA.POLAR.0>
0

>  <SCORE.INTRA.REPUL>
0

>  <SCORE.INTRA.REPUL.0>
0

>  <SCORE.INTRA.SOLV>
-0.424772

>  <SCORE.INTRA.SOLV.lig_0>
-48.4015

>  <SCORE.INTRA.VDW>
0.851496

>  <SCORE.INTRA.VDW.0>
-2.83256

>  <SCORE.INTRA.norm>
0.00158446

>  <SCORE.RESTR>
0.00291415

>  <SCORE.RESTR.CAVITY>
0.00291415

>  <SCORE.RESTR.norm>
0.000107931

>  <SCORE.SYSTEM>
0

>  <SCORE.SYSTEM.CONST>
0

>  <SCORE.SYSTEM.DIHEDRAL>
0

>  <SCORE.SYSTEM.SOLV>
0

>  <SCORE.SYSTEM.norm>
0

>  <SCORE.heavy>
27

>  <SCORE.norm>
-0.295621

>  <RMSD>
4.605

$$$$
ligand
 OpenBabel02271912153D
libRbt.so/2013.1/901 2013/11/27
 27 29  0  0  0  0  0  0  0  0999 V2000
   12.3221    5.4418   28.4856 N   0  0  0  0  0  0  0  0  0  0  0  0
   12.1237    6.4497   29.5548 C   0  0  2  0  0  0  0  0  0  0  0  0
   11.8870    7.7978   28.8863 C   0  0  0  0  0  0  0  0  0  0  0  0
   12.5028    8.2553   27.8669 O   0  0  0  0  0  0  0  0  0  0  0  0
   13.3454    6.4364   30.4762 C   0  0  0  0  0  0  0  0  0  0  0  0
   14.6567    6.5947   29.7182 C   0  0  0  0  0  0  0  0  0  0  0  0
   16.2674    6.8807   30.5429 S   0  0  2  0  0  0  0  0  0  0  0  0
   16.5922    8.5361   29.9389 C   0  0  0  0  0  0  0  0  0  0  0  0
   17.2958    5.8233   29.4749 C   0  0  0  0  0  0  0  0  0  0  0  0
   17.2957    4.3951   29.9462 C   0  0  1  0  0  0  0  0  0  0  0  0
   17.8315    4.2520   31.2839 O   0  0  0  0  0  0  0  0  0  0  0  0
   15.9330    3.7408   29.9455 C   0  0  1  0  0  0  0  0  0  0  0  0
   15.8161    3.0066   28.8055 O   0  0  0  0  0  0  0  0  0  0  0  0
   16.1016    2.7681   31.0891 C   0  0  1  0  0  0  0  0  0  0  0  0
   16.7296    1.6862   30.5593 O   0  0  0  0  0  0  0  0  0  0  0  0
   17.0399    3.4444   32.1129 C   0  0  2  0  0  0  0  0  0  0  0  0
   11.0558    8.5294   29.4267 O   0  0  0  0  0  0  0  0  0  0  0  0
   12.3238    4.4138   34.1114 N   0  0  0  0  0  0  0  0  0  0  0  0
   12.9079    3.2705   33.4691 C   0  0  0  0  0  0  0  0  0  0  0  0
   14.2270    3.1302   32.9709 N   0  0  0  0  0  0  0  0  0  0  0  0
   14.9104    4.1874   33.1684 C   0  0  0  0  0  0  0  0  0  0  0  0
   14.4038    5.4136   33.8244 C   0  0  0  0  0  0  0  0  0  0  0  0
   13.1438    5.5099   34.2685 C   0  0  0  0  0  0  0  0  0  0  0  0
   12.8170    6.6633   34.8142 N   0  0  0  0  0  0  0  0  0  0  0  0
   15.2930    6.3746   33.9021 N   0  0  0  0  0  0  0  0  0  0  0  0
   16.3648    5.7446   33.2970 C   0  0  0  0  0  0  0  0  0  0  0  0
   16.1427    4.3814   32.8420 N   0  0  0  0  0  0  0  0  0  0  0  0
  2  1  1  6  0  0  0
  2  3  1  0  0  0  0
  2  5  1  0  0  0  0
  3  4  1  0  0  0  0
  3 17  1  0  0  0  0
  5  6  1  0  0  0  0
  7  6  1  6  0  0  0
  7  8  1  0  0  0  0
  7  9  1  0  0  0  0
 10  9  1  1  0  0  0
 10 11  1  0  0  0  0
 10 12  1  0  0  0  0
 11 16  1  0  0  0  0
 12 13  1  6  0  0  0
 12 14  1  0  0  0  0
 14 15  1  6  0  0  0
 14 16  1  0  0  0  0
 16 27  1  1  0  0  0
 18 19  2  0  0  0  0
 18 23  1  0  0  0  0
 19 20  1  0  0  0  0
 20 21  2  0  0  0  0
 21 22  1  0  0  0  0
 21 27  1  0  0  0  0
 22 23  2  0  0  0  0
 22 25  1  0  0  0  0
 23 24  1  0  0  0  0
 25 26  2  0  0  0  0
 26 27  1  0  0  0  0
M  END
>  <CHROM.1>
-41.01406801,52.80951194,170.10247642,-114.04463384,-86.30784524,-61.00504669
143.18873880,14.80598819,5.39262627,31.16923464,-2.37496366,-0.58186797,2.02709532

>  <Name>
ligand

>  <RI>
0

>  <Rbt.Current_Directory>
/home/itssahil/PROJECTS/Mol_Feturizer/Test_systems_manuscript/rnas/4aob

>  <Rbt.Executable>
rbdock ($Id: //depot/dev/client3/rdock/2013.1/src/exe/rbdock.cxx#4 $)

>  <Rbt.Library>
libRbt.so (2013.1, Build901 2013/11/27)

>  <Rbt.Parameter_File>
/export/apps/rDock/src/rDock_2013.1_src/data/scripts/dock_solv.prm

>  <Rbt.Receptor>
prm/pocket_docking_5.prm

>  <SCORE>
-8.03824

>  <SCORE.INTER>
-8.77101

>  <SCORE.INTER.CONST>
1

>  <SCORE.INTER.POLAR>
0

>  <SCORE.INTER.ROT>
7

>  <SCORE.INTER.SOLV>
13.8218

>  <SCORE.INTER.VDW>
-18.7213

>  <SCORE.INTER.norm>
-0.324852

>  <SCORE.INTRA>
0.732769

>  <SCORE.INTRA.DIHEDRAL>
2.0692

>  <SCORE.INTRA.DIHEDRAL.0>
6.31833

>  <SCORE.INTRA.POLAR>
0

>  <SCORE.INTRA.POLAR.0>
0

>  <SCORE.INTRA.REPUL>
0

>  <SCORE.INTRA.REPUL.0>
0

>  <SCORE.INTRA.SOLV>
1.00092

>  <SCORE.INTRA.SOLV.lig_0>
-48.4015

>  <SCORE.INTRA.VDW>
-0.802289

>  <SCORE.INTRA.VDW.0>
-2.83256

>  <SCORE.INTRA.norm>
0.0271396

>  <SCORE.RESTR>
0

>  <SCORE.RESTR.CAVITY>
0

>  <SCORE.RESTR.norm>
0

>  <SCORE.SYSTEM>
0

>  <SCORE.SYSTEM.CONST>
0

>  <SCORE.SYSTEM.DIHEDRAL>
0

>  <SCORE.SYSTEM.SOLV>
0

>  <SCORE.SYSTEM.norm>
0

>  <SCORE.heavy>
27

>  <SCORE.norm>
-0.297713

>  <RMSD>
4.631

$$$$
ligand
 OpenBabel02271912153D
libRbt.so/2013.1/901 2013/11/27
 27 29  0  0  0  0  0  0  0  0999 V2000
   13.1527    6.8022   23.4913 N   0  0  0  0  0  0  0  0  0  0  0  0
   12.6664    7.8022   24.4720 C   0  0  2  0  0  0  0  0  0  0  0  0
   13.8674    8.6078   24.9506 C   0  0  0  0  0  0  0  0  0  0  0  0
   13.8788    9.8505   25.2386 O   0  0  0  0  0  0  0  0  0  0  0  0
   11.9388    7.0700   25.6017 C   0  0  0  0  0  0  0  0  0  0  0  0
   12.8238    6.0535   26.3107 C   0  0  0  0  0  0  0  0  0  0  0  0
   12.2985    5.1298   27.8032 S   0  0  2  0  0  0  0  0  0  0  0  0
   12.3061    6.4833   28.9774 C   0  0  0  0  0  0  0  0  0  0  0  0
   13.8654    4.2632   28.1353 C   0  0  0  0  0  0  0  0  0  0  0  0
   13.7743    3.4105   29.3708 C   0  0  1  0  0  0  0  0  0  0  0  0
   14.8769    2.4787   29.4848 O   0  0  0  0  0  0  0  0  0  0  0  0
   13.7238    4.1930   30.6632 C   0  0  1  0  0  0  0  0  0  0  0  0
   12.4222    4.2909   31.0486 O   0  0  0  0  0  0  0  0  0  0  0  0
   14.3946    3.2128   31.5969 C   0  0  1  0  0  0  0  0  0  0  0  0
   13.4223    2.3415   31.9723 O   0  0  0  0  0  0  0  0  0  0  0  0
   15.4533    2.4581   30.7628 C   0  0  2  0  0  0  0  0  0  0  0  0
   14.9374    7.9991   25.0072 O   0  0  0  0  0  0  0  0  0  0  0  0
   18.8033    5.5340   33.3106 N   0  0  0  0  0  0  0  0  0  0  0  0
   17.7794    4.6228   33.7372 C   0  0  0  0  0  0  0  0  0  0  0  0
   16.9299    3.8266   32.9295 N   0  0  0  0  0  0  0  0  0  0  0  0
   17.1807    3.9927   31.6912 C   0  0  0  0  0  0  0  0  0  0  0  0
   18.2162    4.9018   31.1511 C   0  0  0  0  0  0  0  0  0  0  0  0
   18.9890    5.6488   31.9502 C   0  0  0  0  0  0  0  0  0  0  0  0
   19.8566    6.4292   31.3392 N   0  0  0  0  0  0  0  0  0  0  0  0
   18.2776    4.9100   29.8409 N   0  0  0  0  0  0  0  0  0  0  0  0
   17.2791    3.9960   29.5589 C   0  0  0  0  0  0  0  0  0  0  0  0
   16.5932    3.4127   30.7008 N   0  0  0  0  0  0  0  0  0  0  0  0
  2  1  1  6  0  0  0
  2  3  1  0  0  0  0
  2  5  1  0  0  0  0
  3  4  1  0  0  0  0
  3 17  1  0  0  0  0
  5  6  1  0  0  0  0
  7  6  1  6  0  0  0
  7  8  1  0  0  0  0
  7  9  1  0  0  0  0
 10  9  1  6  0  0  0
 10 11  1  0  0  0  0
 10 12  1  0  0  0  0
 11 16  1  0  0  0  0
 12 13  1  1  0  0  0
 12 14  1  0  0  0  0
 14 15  1  6  0  0  0
 14 16  1  0  0  0  0
 16 27  1  6  0  0  0
 18 19  2  0  0  0  0
 18 23  1  0  0  0  0
 19 20  1  0  0  0  0
 20 21  2  0  0  0  0
 21 22  1  0  0  0  0
 21 27  1  0  0  0  0
 22 23  2  0  0  0  0
 22 25  1  0  0  0  0
 23 24  1  0  0  0  0
 25 26  2  0  0  0  0
 26 27  1  0  0  0  0
M  END
>  <CHROM.1>
144.23824630,58.42884212,174.06017480,-70.18522923,178.53679757,166.37592424
159.63357907,14.95323296,5.19034440,29.17234177,-2.14552110,0.40680654,2.27055496

>  <Name>
ligand

>  <RI>
0

>  <Rbt.Current_Directory>
/home/itssahil/PROJECTS/Mol_Feturizer/Test_systems_manuscript/rnas/4aob

>  <Rbt.Executable>
rbdock ($Id: //depot/dev/client3/rdock/2013.1/src/exe/rbdock.cxx#4 $)

>  <Rbt.Library>
libRbt.so (2013.1, Build901 2013/11/27)

>  <Rbt.Parameter_File>
/export/apps/rDock/src/rDock_2013.1_src/data/scripts/dock_solv.prm

>  <Rbt.Receptor>
prm/pocket_docking_7.prm

>  <SCORE>
-11.0557

>  <SCORE.INTER>
-11.36

>  <SCORE.INTER.CONST>
1

>  <SCORE.INTER.POLAR>
0

>  <SCORE.INTER.ROT>
7

>  <SCORE.INTER.SOLV>
8.55344

>  <SCORE.INTER.VDW>
-18.6912

>  <SCORE.INTER.norm>
-0.420741

>  <SCORE.INTRA>
0.304349

>  <SCORE.INTRA.DIHEDRAL>
-1.99786

>  <SCORE.INTRA.DIHEDRAL.0>
6.31833

>  <SCORE.INTRA.POLAR>
0

>  <SCORE.INTRA.POLAR.0>
0

>  <SCORE.INTRA.REPUL>
0

>  <SCORE.INTRA.REPUL.0>
0

>  <SCORE.INTRA.SOLV>
0.269488

>  <SCORE.INTRA.SOLV.lig_0>
-48.4015

>  <SCORE.INTRA.VDW>
1.16853

>  <SCORE.INTRA.VDW.0>
-2.83256

>  <SCORE.INTRA.norm>
0.0112722

>  <SCORE.RESTR>
0

>  <SCORE.RESTR.CAVITY>
0

>  <SCORE.RESTR.norm>
0

>  <SCORE.SYSTEM>
0

>  <SCORE.SYSTEM.CONST>
0

>  <SCORE.SYSTEM.DIHEDRAL>
0

>  <SCORE.SYSTEM.SOLV>
0

>  <SCORE.SYSTEM.norm>
0

>  <SCORE.heavy>
27

>  <SCORE.norm>
-0.409469

>  <RMSD>
4.637

$$$$
ligand
 OpenBabel02271912153D
libRbt.so/2013.1/901 2013/11/27
 27 29  0  0  0  0  0  0  0  0999 V2000
   16.4368    3.2284   28.8763 N   0  0  0  0  0  0  0  0  0  0  0  0
   15.7636    3.2050   30.1971 C   0  0  2  0  0  0  0  0  0  0  0  0
   16.2961    2.0055   30.9703 C   0  0  0  0  0  0  0  0  0  0  0  0
   17.0067    2.0427   32.0292 O   0  0  0  0  0  0  0  0  0  0  0  0
   14.2499    3.1608   29.9771 C   0  0  0  0  0  0  0  0  0  0  0  0
   13.4630    3.2375   31.2787 C   0  0  0  0  0  0  0  0  0  0  0  0
   13.3265    4.7633   32.2836 S   0  0  2  0  0  0  0  0  0  0  0  0
   12.9309    5.9182   30.9720 C   0  0  0  0  0  0  0  0  0  0  0  0
   15.1024    5.0383   32.5781 C   0  0  0  0  0  0  0  0  0  0  0  0
   15.3321    6.0179   33.6960 C   0  0  1  0  0  0  0  0  0  0  0  0
   16.6251    5.8485   34.3256 O   0  0  0  0  0  0  0  0  0  0  0  0
   15.2308    7.4681   33.2816 C   0  0  1  0  0  0  0  0  0  0  0  0
   13.9860    7.9147   33.6033 O   0  0  0  0  0  0  0  0  0  0  0  0
   16.1977    8.0948   34.2589 C   0  0  1  0  0  0  0  0  0  0  0  0
   15.4936    8.2719   35.4071 O   0  0  0  0  0  0  0  0  0  0  0  0
   17.3139    7.0563   34.5071 C   0  0  2  0  0  0  0  0  0  0  0  0
   16.0557    0.8995   30.4829 O   0  0  0  0  0  0  0  0  0  0  0  0
   19.3921    4.8781   30.2514 N   0  0  0  0  0  0  0  0  0  0  0  0
   18.4482    4.4231   31.2325 C   0  0  0  0  0  0  0  0  0  0  0  0
   17.9508    5.1289   32.3561 N   0  0  0  0  0  0  0  0  0  0  0  0
   18.4437    6.3022   32.4201 C   0  0  0  0  0  0  0  0  0  0  0  0
   19.4167    6.8660   31.4579 C   0  0  0  0  0  0  0  0  0  0  0  0
   19.8731    6.1587   30.4160 C   0  0  0  0  0  0  0  0  0  0  0  0
   20.7504    6.7727   29.6490 N   0  0  0  0  0  0  0  0  0  0  0  0
   19.7873    8.0918   31.7414 N   0  0  0  0  0  0  0  0  0  0  0  0
   19.0373    8.2993   32.8844 C   0  0  0  0  0  0  0  0  0  0  0  0
   18.1920    7.1967   33.3140 N   0  0  0  0  0  0  0  0  0  0  0  0
  2  1  1  6  0  0  0
  2  3  1  0  0  0  0
  2  5  1  0  0  0  0
  3  4  1  0  0  0  0
  3 17  1  0  0  0  0
  5  6  1  0  0  0  0
  7  6  1  6  0  0  0
  7  8  1  0  0  0  0
  7  9  1  0  0  0  0
 10  9  1  6  0  0  0
 10 11  1  0  0  0  0
 10 12  1  0  0  0  0
 11 16  1  0  0  0  0
 12 13  1  1  0  0  0
 12 14  1  0  0  0  0
 14 15  1  1  0  0  0
 14 16  1  0  0  0  0
 16 27  1  6  0  0  0
 18 19  2  0  0  0  0
 18 23  1  0  0  0  0
 19 20  1  0  0  0  0
 20 21  2  0  0  0  0
 21 22  1  0  0  0  0
 21 27  1  0  0  0  0
 22 23  2  0  0  0  0
 22 25  1  0  0  0  0
 23 24  1  0  0  0  0
 25 26  2  0  0  0  0
 26 27  1  0  0  0  0
M  END
>  <CHROM.1>
113.41643212,-175.78110063,71.72836485,47.08013962,-164.38043593,155.64576994
-10.76357836,16.50614032,5.42994571,32.05457114,-2.19206888,0.29135262,0.62871319

>  <Name>
ligand

>  <RI>
0

>  <Rbt.Current_Directory>
/home/itssahil/PROJECTS/Mol_Feturizer/Test_systems_manuscript/rnas/4aob

>  <Rbt.Executable>
rbdock ($Id: //depot/dev/client3/rdock/2013.1/src/exe/rbdock.cxx#4 $)

>  <Rbt.Library>
libRbt.so (2013.1, Build901 2013/11/27)

>  <Rbt.Parameter_File>
/export/apps/rDock/src/rDock_2013.1_src/data/scripts/dock_solv.prm

>  <Rbt.Receptor>
prm/pocket_docking_7.prm

>  <SCORE>
-7.22962

>  <SCORE.INTER>
-7.97983

>  <SCORE.INTER.CONST>
1

>  <SCORE.INTER.POLAR>
0

>  <SCORE.INTER.ROT>
7

>  <SCORE.INTER.SOLV>
11.79

>  <SCORE.INTER.VDW>
-17.5165

>  <SCORE.INTER.norm>
-0.295549

>  <SCORE.INTRA>
0.750206

>  <SCORE.INTRA.DIHEDRAL>
0.835821

>  <SCORE.INTRA.DIHEDRAL.0>
6.31833

>  <SCORE.INTRA.POLAR>
0

>  <SCORE.INTRA.POLAR.0>
0

>  <SCORE.INTRA.REPUL>
0

>  <SCORE.INTRA.REPUL.0>
0

>  <SCORE.INTRA.SOLV>
0.533999

>  <SCORE.INTRA.SOLV.lig_0>
-48.4015

>  <SCORE.INTRA.VDW>
0.0652965

>  <SCORE.INTRA.VDW.0>
-2.83256

>  <SCORE.INTRA.norm>
0.0277854

>  <SCORE.RESTR>
0

>  <SCORE.RESTR.CAVITY>
0

>  <SCORE.RESTR.norm>
0

>  <SCORE.SYSTEM>
0

>  <SCORE.SYSTEM.CONST>
0

>  <SCORE.SYSTEM.DIHEDRAL>
0

>  <SCORE.SYSTEM.SOLV>
0

>  <SCORE.SYSTEM.norm>
0

>  <SCORE.heavy>
27

>  <SCORE.norm>
-0.267764

>  <RMSD>
4.641

$$$$
ligand
 OpenBabel02271912153D
libRbt.so/2013.1/901 2013/11/27
 27 29  0  0  0  0  0  0  0  0999 V2000
    9.7945    9.4774   26.3804 N   0  0  0  0  0  0  0  0  0  0  0  0
   10.6644    8.2790   26.4538 C   0  0  2  0  0  0  0  0  0  0  0  0
   10.1495    7.2667   25.4387 C   0  0  0  0  0  0  0  0  0  0  0  0
   10.8164    6.7468   24.4834 O   0  0  0  0  0  0  0  0  0  0  0  0
   10.6575    7.7533   27.8908 C   0  0  0  0  0  0  0  0  0  0  0  0
   11.6399    6.6094   28.1043 C   0  0  0  0  0  0  0  0  0  0  0  0
   11.9710    5.8600   29.7430 S   0  0  2  0  0  0  0  0  0  0  0  0
   12.9644    7.1744   30.4475 C   0  0  0  0  0  0  0  0  0  0  0  0
   13.2016    4.6246   29.2181 C   0  0  0  0  0  0  0  0  0  0  0  0
   13.4011    3.5636   30.2652 C   0  0  1  0  0  0  0  0  0  0  0  0
   14.4570    2.6346   29.9201 O   0  0  0  0  0  0  0  0  0  0  0  0
   13.7202    4.1013   31.6414 C   0  0  1  0  0  0  0  0  0  0  0  0
   12.5688    4.1190   32.3669 O   0  0  0  0  0  0  0  0  0  0  0  0
   14.5709    2.9747   32.1794 C   0  0  1  0  0  0  0  0  0  0  0  0
   13.6957    2.0430   32.6391 O   0  0  0  0  0  0  0  0  0  0  0  0
   15.3448    2.3895   30.9774 C   0  0  2  0  0  0  0  0  0  0  0  0
    8.9561    6.9727   25.5275 O   0  0  0  0  0  0  0  0  0  0  0  0
   18.8415    5.6081   33.1195 N   0  0  0  0  0  0  0  0  0  0  0  0
   17.8619    4.7111   33.6639 C   0  0  0  0  0  0  0  0  0  0  0  0
   16.9635    3.8710   32.9605 N   0  0  0  0  0  0  0  0  0  0  0  0
   17.1198    3.9792   31.7005 C   0  0  0  0  0  0  0  0  0  0  0  0
   18.1026    4.8687   31.0421 C   0  0  0  0  0  0  0  0  0  0  0  0
   18.9245    5.6588   31.7450 C   0  0  0  0  0  0  0  0  0  0  0  0
   19.7360    6.4151   31.0347 N   0  0  0  0  0  0  0  0  0  0  0  0
   18.0666    4.8144   29.7321 N   0  0  0  0  0  0  0  0  0  0  0  0
   17.0597    3.8808   29.5690 C   0  0  0  0  0  0  0  0  0  0  0  0
   16.4667    3.3481   30.7853 N   0  0  0  0  0  0  0  0  0  0  0  0
  2  1  1  1  0  0  0
  2  3  1  0  0  0  0
  2  5  1  0  0  0  0
  3  4  1  0  0  0  0
  3 17  1  0  0  0  0
  5  6  1  0  0  0  0
  7  6  1  6  0  0  0
  7  8  1  0  0  0  0
  7  9  1  0  0  0  0
 10  9  1  6  0  0  0
 10 11  1  0  0  0  0
 10 12  1  0  0  0  0
 11 16  1  0  0  0  0
 12 13  1  1  0  0  0
 12 14  1  0  0  0  0
 14 15  1  6  0  0  0
 14 16  1  0  0  0  0
 16 27  1  6  0  0  0
 18 19  2  0  0  0  0
 18 23  1  0  0  0  0
 19 20  1  0  0  0  0
 20 21  2  0  0  0  0
 21 22  1  0  0  0  0
 21 27  1  0  0  0  0
 22 23  2  0  0  0  0
 22 25  1  0  0  0  0
 23 24  1  0  0  0  0
 25 26  2  0  0  0  0
 26 27  1  0  0  0  0
M  END
>  <CHROM.1>
123.01110948,-173.85453792,174.64581929,-74.44118088,-163.60084946,-175.04562663
142.50911205,14.13122420,5.21076023,29.90839132,-2.45246419,0.25431767,2.39215000

>  <Name>
ligand

>  <RI>
0

>  <Rbt.Current_Directory>
/home/itssahil/PROJECTS/Mol_Feturizer/Test_systems_manuscript/rnas/4aob

>  <Rbt.Executable>
rbdock ($Id: //depot/dev/client3/rdock/2013.1/src/exe/rbdock.cxx#4 $)

>  <Rbt.Library>
libRbt.so (2013.1, Build901 2013/11/27)

>  <Rbt.Parameter_File>
/export/apps/rDock/src/rDock_2013.1_src/data/scripts/dock_solv.prm

>  <Rbt.Receptor>
prm/pocket_docking_6.prm

>  <SCORE>
-11.3576

>  <SCORE.INTER>
-12.16

>  <SCORE.INTER.CONST>
1

>  <SCORE.INTER.POLAR>
0

>  <SCORE.INTER.ROT>
7

>  <SCORE.INTER.SOLV>
10.8453

>  <SCORE.INTER.VDW>
-19.9884

>  <SCORE.INTER.norm>
-0.450371

>  <SCORE.INTRA>
0.802442

>  <SCORE.INTRA.DIHEDRAL>
-0.918923

>  <SCORE.INTRA.DIHEDRAL.0>
6.31833

>  <SCORE.INTRA.POLAR>
0

>  <SCORE.INTRA.POLAR.0>
0

>  <SCORE.INTRA.REPUL>
0

>  <SCORE.INTRA.REPUL.0>
0

>  <SCORE.INTRA.SOLV>
-0.469906

>  <SCORE.INTRA.SOLV.lig_0>
-48.4015

>  <SCORE.INTRA.VDW>
1.49686

>  <SCORE.INTRA.VDW.0>
-2.83256

>  <SCORE.INTRA.norm>
0.0297201

>  <SCORE.RESTR>
0

>  <SCORE.RESTR.CAVITY>
0

>  <SCORE.RESTR.norm>
0

>  <SCORE.SYSTEM>
0

>  <SCORE.SYSTEM.CONST>
0

>  <SCORE.SYSTEM.DIHEDRAL>
0

>  <SCORE.SYSTEM.SOLV>
0

>  <SCORE.SYSTEM.norm>
0

>  <SCORE.heavy>
27

>  <SCORE.norm>
-0.420651

>  <RMSD>
4.646

$$$$
ligand
 OpenBabel02271912153D
libRbt.so/2013.1/901 2013/11/27
 27 29  0  0  0  0  0  0  0  0999 V2000
   15.4965    5.3653   32.6837 N   0  0  0  0  0  0  0  0  0  0  0  0
   14.7488    6.3528   33.4986 C   0  0  2  0  0  0  0  0  0  0  0  0
   13.2768    5.9621   33.4691 C   0  0  0  0  0  0  0  0  0  0  0  0
   12.6467    5.4609   32.4796 O   0  0  0  0  0  0  0  0  0  0  0  0
   15.0154    7.7529   32.9416 C   0  0  0  0  0  0  0  0  0  0  0  0
   14.5990    7.8961   31.4838 C   0  0  0  0  0  0  0  0  0  0  0  0
   15.5282    7.1470   30.0938 S   0  0  2  0  0  0  0  0  0  0  0  0
   17.0599    8.0605   30.2668 C   0  0  0  0  0  0  0  0  0  0  0  0
   14.6742    7.9938   28.7263 C   0  0  0  0  0  0  0  0  0  0  0  0
   13.6204    7.1181   28.1060 C   0  0  1  0  0  0  0  0  0  0  0  0
   14.1788    6.1282   27.2087 O   0  0  0  0  0  0  0  0  0  0  0  0
   12.7645    6.3736   29.1051 C   0  0  1  0  0  0  0  0  0  0  0  0
   11.6054    7.0677   29.2704 O   0  0  0  0  0  0  0  0  0  0  0  0
   12.4344    5.1349   28.3057 C   0  0  1  0  0  0  0  0  0  0  0  0
   11.3846    5.4790   27.5151 O   0  0  0  0  0  0  0  0  0  0  0  0
   13.6616    4.8412   27.4147 C   0  0  2  0  0  0  0  0  0  0  0  0
   12.6319    6.2115   34.4891 O   0  0  0  0  0  0  0  0  0  0  0  0
   14.3930    1.7443   31.5438 N   0  0  0  0  0  0  0  0  0  0  0  0
   13.2273    2.1643   30.8189 C   0  0  0  0  0  0  0  0  0  0  0  0
   13.1642    3.0167   29.6887 N   0  0  0  0  0  0  0  0  0  0  0  0
   14.3263    3.4006   29.3340 C   0  0  0  0  0  0  0  0  0  0  0  0
   15.5870    3.0206   30.0097 C   0  0  0  0  0  0  0  0  0  0  0  0
   15.6010    2.2231   31.0856 C   0  0  0  0  0  0  0  0  0  0  0  0
   16.7885    1.9803   31.6014 N   0  0  0  0  0  0  0  0  0  0  0  0
   16.6561    3.5521   29.4665 N   0  0  0  0  0  0  0  0  0  0  0  0
   16.0621    4.2641   28.4408 C   0  0  0  0  0  0  0  0  0  0  0  0
   14.6140    4.1734   28.3427 N   0  0  0  0  0  0  0  0  0  0  0  0
  2  1  1  6  0  0  0
  2  3  1  0  0  0  0
  2  5  1  0  0  0  0
  3  4  1  0  0  0  0
  3 17  1  0  0  0  0
  5  6  1  0  0  0  0
  7  6  1  1  0  0  0
  7  8  1  0  0  0  0
  7  9  1  0  0  0  0
 10  9  1  1  0  0  0
 10 11  1  0  0  0  0
 10 12  1  0  0  0  0
 11 16  1  0  0  0  0
 12 13  1  6  0  0  0
 12 14  1  0  0  0  0
 14 15  1  6  0  0  0
 14 16  1  0  0  0  0
 16 27  1  1  0  0  0
 18 19  2  0  0  0  0
 18 23  1  0  0  0  0
 19 20  1  0  0  0  0
 20 21  2  0  0  0  0
 21 22  1  0  0  0  0
 21 27  1  0  0  0  0
 22 23  2  0  0  0  0
 22 25  1  0  0  0  0
 23 24  1  0  0  0  0
 25 26  2  0  0  0  0
 26 27  1  0  0  0  0
M  END
>  <CHROM.1>
-35.98038102,58.98169262,-73.25689726,-64.03534497,-98.96593777,-78.29304218
139.52822728,14.30437321,5.34401040,30.26816781,-0.76909766,1.28515462,-2.37179111

>  <Name>
ligand

>  <RI>
0

>  <Rbt.Current_Directory>
/home/itssahil/PROJECTS/Mol_Feturizer/Test_systems_manuscript/rnas/4aob

>  <Rbt.Executable>
rbdock ($Id: //depot/dev/client3/rdock/2013.1/src/exe/rbdock.cxx#4 $)

>  <Rbt.Library>
libRbt.so (2013.1, Build901 2013/11/27)

>  <Rbt.Parameter_File>
/export/apps/rDock/src/rDock_2013.1_src/data/scripts/dock_solv.prm

>  <Rbt.Receptor>
prm/pocket_docking_4.prm

>  <SCORE>
-5.27738

>  <SCORE.INTER>
-6.50869

>  <SCORE.INTER.CONST>
1

>  <SCORE.INTER.POLAR>
0

>  <SCORE.INTER.ROT>
7

>  <SCORE.INTER.SOLV>
11.5386

>  <SCORE.INTER.VDW>
-16.452

>  <SCORE.INTER.norm>
-0.241063

>  <SCORE.INTRA>
1.23131

>  <SCORE.INTRA.DIHEDRAL>
0.641402

>  <SCORE.INTRA.DIHEDRAL.0>
6.31833

>  <SCORE.INTRA.POLAR>
0

>  <SCORE.INTRA.POLAR.0>
0

>  <SCORE.INTRA.REPUL>
0

>  <SCORE.INTRA.REPUL.0>
0

>  <SCORE.INTRA.SOLV>
3.54256

>  <SCORE.INTRA.SOLV.lig_0>
-48.4015

>  <SCORE.INTRA.VDW>
-0.860669

>  <SCORE.INTRA.VDW.0>
-2.83256

>  <SCORE.INTRA.norm>
0.0456041

>  <SCORE.RESTR>
0

>  <SCORE.RESTR.CAVITY>
0

>  <SCORE.RESTR.norm>
0

>  <SCORE.SYSTEM>
0

>  <SCORE.SYSTEM.CONST>
0

>  <SCORE.SYSTEM.DIHEDRAL>
0

>  <SCORE.SYSTEM.SOLV>
0

>  <SCORE.SYSTEM.norm>
0

>  <SCORE.heavy>
27

>  <SCORE.norm>
-0.195458

>  <RMSD>
4.658

$$$$
ligand
 OpenBabel02271912153D
libRbt.so/2013.1/901 2013/11/27
 27 29  0  0  0  0  0  0  0  0999 V2000
   10.1528    8.8659   26.8884 N   0  0  0  0  0  0  0  0  0  0  0  0
   10.8431    7.8609   27.7321 C   0  0  2  0  0  0  0  0  0  0  0  0
   11.5256    8.6016   28.8748 C   0  0  0  0  0  0  0  0  0  0  0  0
   11.4814    8.2906   30.1113 O   0  0  0  0  0  0  0  0  0  0  0  0
   11.8164    7.0686   26.8566 C   0  0  0  0  0  0  0  0  0  0  0  0
   12.1253    5.6879   27.4199 C   0  0  0  0  0  0  0  0  0  0  0  0
   12.6372    5.4007   29.1555 S   0  0  2  0  0  0  0  0  0  0  0  0
   14.0628    6.4852   29.2015 C   0  0  0  0  0  0  0  0  0  0  0  0
   13.3630    3.7445   28.9400 C   0  0  0  0  0  0  0  0  0  0  0  0
   13.5151    3.0322   30.2559 C   0  0  1  0  0  0  0  0  0  0  0  0
   14.6436    2.1248   30.2687 O   0  0  0  0  0  0  0  0  0  0  0  0
   13.6760    3.9516   31.4449 C   0  0  1  0  0  0  0  0  0  0  0  0
   12.4618    4.0841   32.0454 O   0  0  0  0  0  0  0  0  0  0  0  0
   14.5269    3.0838   32.3423 C   0  0  1  0  0  0  0  0  0  0  0  0
   13.6594    2.2535   32.9775 O   0  0  0  0  0  0  0  0  0  0  0  0
   15.4388    2.2480   31.4170 C   0  0  2  0  0  0  0  0  0  0  0  0
   12.1298    9.6303   28.5663 O   0  0  0  0  0  0  0  0  0  0  0  0
   18.9631    5.7660   32.9591 N   0  0  0  0  0  0  0  0  0  0  0  0
   18.0360    4.9242   33.6610 C   0  0  0  0  0  0  0  0  0  0  0  0
   17.1227    3.9886   33.1147 N   0  0  0  0  0  0  0  0  0  0  0  0
   17.2096    3.9458   31.8441 C   0  0  0  0  0  0  0  0  0  0  0  0
   18.1340    4.7664   31.0300 C   0  0  0  0  0  0  0  0  0  0  0  0
   18.9721    5.6508   31.5861 C   0  0  0  0  0  0  0  0  0  0  0  0
   19.7260    6.3297   30.7461 N   0  0  0  0  0  0  0  0  0  0  0  0
   18.0303    4.5526   29.7401 N   0  0  0  0  0  0  0  0  0  0  0  0
   17.0396    3.5879   29.7466 C   0  0  0  0  0  0  0  0  0  0  0  0
   16.5249    3.1963   31.0491 N   0  0  0  0  0  0  0  0  0  0  0  0
  2  1  1  6  0  0  0
  2  3  1  0  0  0  0
  2  5  1  0  0  0  0
  3  4  1  0  0  0  0
  3 17  1  0  0  0  0
  5  6  1  0  0  0  0
  7  6  1  6  0  0  0
  7  8  1  0  0  0  0
  7  9  1  0  0  0  0
 10  9  1  6  0  0  0
 10 11  1  0  0  0  0
 10 12  1  0  0  0  0
 11 16  1  0  0  0  0
 12 13  1  1  0  0  0
 12 14  1  0  0  0  0
 14 15  1  6  0  0  0
 14 16  1  0  0  0  0
 16 27  1  6  0  0  0
 18 19  2  0  0  0  0
 18 23  1  0  0  0  0
 19 20  1  0  0  0  0
 20 21  2  0  0  0  0
 21 22  1  0  0  0  0
 21 27  1  0  0  0  0
 22 23  2  0  0  0  0
 22 25  1  0  0  0  0
 23 24  1  0  0  0  0
 25 26  2  0  0  0  0
 26 27  1  0  0  0  0
M  END
>  <CHROM.1>
132.63032838,-155.58754750,-49.97686715,-56.06008178,-162.74180366,-149.29833220
155.04333989,14.53781502,5.18215712,30.29412008,-2.49133144,0.30043337,2.69607140

>  <Name>
ligand

>  <RI>
0

>  <Rbt.Current_Directory>
/home/itssahil/PROJECTS/Mol_Feturizer/Test_systems_manuscript/rnas/4aob

>  <Rbt.Executable>
rbdock ($Id: //depot/dev/client3/rdock/2013.1/src/exe/rbdock.cxx#4 $)

>  <Rbt.Library>
libRbt.so (2013.1, Build901 2013/11/27)

>  <Rbt.Parameter_File>
/export/apps/rDock/src/rDock_2013.1_src/data/scripts/dock_solv.prm

>  <Rbt.Receptor>
prm/pocket_docking_7.prm

>  <SCORE>
-10.3033

>  <SCORE.INTER>
-12.8799

>  <SCORE.INTER.CONST>
1

>  <SCORE.INTER.POLAR>
0

>  <SCORE.INTER.ROT>
7

>  <SCORE.INTER.SOLV>
10.3733

>  <SCORE.INTER.VDW>
-20.311

>  <SCORE.INTER.norm>
-0.477034

>  <SCORE.INTRA>
2.57664

>  <SCORE.INTRA.DIHEDRAL>
4.283

>  <SCORE.INTRA.DIHEDRAL.0>
6.31833

>  <SCORE.INTRA.POLAR>
0

>  <SCORE.INTRA.POLAR.0>
0

>  <SCORE.INTRA.REPUL>
0

>  <SCORE.INTRA.REPUL.0>
0

>  <SCORE.INTRA.SOLV>
-0.336887

>  <SCORE.INTRA.SOLV.lig_0>
-48.4015

>  <SCORE.INTRA.VDW>
0.60358

>  <SCORE.INTRA.VDW.0>
-2.83256

>  <SCORE.INTRA.norm>
0.095431

>  <SCORE.RESTR>
0

>  <SCORE.RESTR.CAVITY>
0

>  <SCORE.RESTR.norm>
0

>  <SCORE.SYSTEM>
0

>  <SCORE.SYSTEM.CONST>
0

>  <SCORE.SYSTEM.DIHEDRAL>
0

>  <SCORE.SYSTEM.SOLV>
0

>  <SCORE.SYSTEM.norm>
0

>  <SCORE.heavy>
27

>  <SCORE.norm>
-0.381603

>  <RMSD>
4.661

$$$$
ligand
 OpenBabel02271912153D
libRbt.so/2013.1/901 2013/11/27
 27 29  0  0  0  0  0  0  0  0999 V2000
   15.3337    7.3750   26.7611 N   0  0  0  0  0  0  0  0  0  0  0  0
   14.9867    6.3801   25.7180 C   0  0  2  0  0  0  0  0  0  0  0  0
   13.5561    6.6529   25.2716 C   0  0  0  0  0  0  0  0  0  0  0  0
   12.8022    7.5966   25.6822 O   0  0  0  0  0  0  0  0  0  0  0  0
   15.1849    4.9756   26.2923 C   0  0  0  0  0  0  0  0  0  0  0  0
   14.6710    4.8450   27.7199 C   0  0  0  0  0  0  0  0  0  0  0  0
   12.9989    4.2214   28.1343 S   0  0  2  0  0  0  0  0  0  0  0  0
   12.0664    5.7210   27.8307 C   0  0  0  0  0  0  0  0  0  0  0  0
   13.1784    4.1856   29.9461 C   0  0  0  0  0  0  0  0  0  0  0  0
   13.5871    2.8230   30.4343 C   0  0  1  0  0  0  0  0  0  0  0  0
   14.8332    2.3743   29.8490 O   0  0  0  0  0  0  0  0  0  0  0  0
   13.7436    2.7218   31.9344 C   0  0  1  0  0  0  0  0  0  0  0  0
   12.6009    2.1867   32.4445 O   0  0  0  0  0  0  0  0  0  0  0  0
   14.8135    1.6587   32.0216 C   0  0  1  0  0  0  0  0  0  0  0  0
   14.1603    0.4727   31.9114 O   0  0  0  0  0  0  0  0  0  0  0  0
   15.7280    1.8468   30.7910 C   0  0  2  0  0  0  0  0  0  0  0  0
   13.0749    5.8426   24.4776 O   0  0  0  0  0  0  0  0  0  0  0  0
   18.9351    5.6818   29.3136 N   0  0  0  0  0  0  0  0  0  0  0  0
   18.1381    4.7292   28.5939 C   0  0  0  0  0  0  0  0  0  0  0  0
   17.2880    3.7270   29.1239 N   0  0  0  0  0  0  0  0  0  0  0  0
   17.2813    3.7530   30.3979 C   0  0  0  0  0  0  0  0  0  0  0  0
   18.0611    4.6964   31.2301 C   0  0  0  0  0  0  0  0  0  0  0  0
   18.8651    5.6204   30.6883 C   0  0  0  0  0  0  0  0  0  0  0  0
   19.5165    6.3825   31.5425 N   0  0  0  0  0  0  0  0  0  0  0  0
   17.8980    4.5193   32.5195 N   0  0  0  0  0  0  0  0  0  0  0  0
   17.0061    3.4629   32.4947 C   0  0  0  0  0  0  0  0  0  0  0  0
   16.6089    2.9808   31.1816 N   0  0  0  0  0  0  0  0  0  0  0  0
  2  1  1  1  0  0  0
  2  3  1  0  0  0  0
  2  5  1  0  0  0  0
  3  4  1  0  0  0  0
  3 17  1  0  0  0  0
  5  6  1  0  0  0  0
  7  6  1  6  0  0  0
  7  8  1  0  0  0  0
  7  9  1  0  0  0  0
 10  9  1  1  0  0  0
 10 11  1  0  0  0  0
 10 12  1  0  0  0  0
 11 16  1  0  0  0  0
 12 13  1  1  0  0  0
 12 14  1  0  0  0  0
 14 15  1  6  0  0  0
 14 16  1  0  0  0  0
 16 27  1  1  0  0  0
 18 19  2  0  0  0  0
 18 23  1  0  0  0  0
 19 20  1  0  0  0  0
 20 21  2  0  0  0  0
 21 22  1  0  0  0  0
 21 27  1  0  0  0  0
 22 23  2  0  0  0  0
 22 25  1  0  0  0  0
 23 24  1  0  0  0  0
 25 26  2  0  0  0  0
 26 27  1  0  0  0  0
M  END
>  <CHROM.1>
2.31701739,42.15291177,94.95982080,-80.35648136,-95.09041842,58.23827484
-52.87969601,15.22825153,4.33197291,29.32030877,-2.00257294,0.35735022,2.22982450

>  <Name>
ligand

>  <RI>
0

>  <Rbt.Current_Directory>
/home/itssahil/PROJECTS/Mol_Feturizer/Test_systems_manuscript/rnas/4aob

>  <Rbt.Executable>
rbdock ($Id: //depot/dev/client3/rdock/2013.1/src/exe/rbdock.cxx#4 $)

>  <Rbt.Library>
libRbt.so (2013.1, Build901 2013/11/27)

>  <Rbt.Parameter_File>
/export/apps/rDock/src/rDock_2013.1_src/data/scripts/dock_solv.prm

>  <Rbt.Receptor>
prm/pocket_docking_6.prm

>  <SCORE>
-13.2966

>  <SCORE.INTER>
-15.5711

>  <SCORE.INTER.CONST>
1

>  <SCORE.INTER.POLAR>
0

>  <SCORE.INTER.ROT>
7

>  <SCORE.INTER.SOLV>
11.7649

>  <SCORE.INTER.VDW>
-22.5691

>  <SCORE.INTER.norm>
-0.576708

>  <SCORE.INTRA>
2.2745

>  <SCORE.INTRA.DIHEDRAL>
3.57452

>  <SCORE.INTRA.DIHEDRAL.0>
6.31833

>  <SCORE.INTRA.POLAR>
0

>  <SCORE.INTRA.POLAR.0>
0

>  <SCORE.INTRA.REPUL>
0

>  <SCORE.INTRA.REPUL.0>
0

>  <SCORE.INTRA.SOLV>
1.17972

>  <SCORE.INTRA.SOLV.lig_0>
-48.4015

>  <SCORE.INTRA.VDW>
-0.102621

>  <SCORE.INTRA.VDW.0>
-2.83256

>  <SCORE.INTRA.norm>
0.0842406

>  <SCORE.RESTR>
0

>  <SCORE.RESTR.CAVITY>
0

>  <SCORE.RESTR.norm>
0

>  <SCORE.SYSTEM>
0

>  <SCORE.SYSTEM.CONST>
0

>  <SCORE.SYSTEM.DIHEDRAL>
0

>  <SCORE.SYSTEM.SOLV>
0

>  <SCORE.SYSTEM.norm>
0

>  <SCORE.heavy>
27

>  <SCORE.norm>
-0.492467

>  <RMSD>
4.699

$$$$
ligand
 OpenBabel02271912153D
libRbt.so/2013.1/901 2013/11/27
 27 29  0  0  0  0  0  0  0  0999 V2000
   11.8107    8.0421   25.6671 N   0  0  0  0  0  0  0  0  0  0  0  0
   10.6703    7.1395   25.9555 C   0  0  2  0  0  0  0  0  0  0  0  0
    9.4082    7.7941   25.4089 C   0  0  0  0  0  0  0  0  0  0  0  0
    8.4700    7.2121   24.7697 O   0  0  0  0  0  0  0  0  0  0  0  0
   10.6155    6.8824   27.4630 C   0  0  0  0  0  0  0  0  0  0  0  0
   11.7917    6.0540   27.9624 C   0  0  0  0  0  0  0  0  0  0  0  0
   12.0793    5.6799   29.7327 S   0  0  2  0  0  0  0  0  0  0  0  0
   12.8526    7.2227   30.2146 C   0  0  0  0  0  0  0  0  0  0  0  0
   13.4842    4.5389   29.5306 C   0  0  0  0  0  0  0  0  0  0  0  0
   13.5179    3.5048   30.6221 C   0  0  1  0  0  0  0  0  0  0  0  0
   14.6369    2.5951   30.4906 O   0  0  0  0  0  0  0  0  0  0  0  0
   13.5786    4.0783   32.0194 C   0  0  1  0  0  0  0  0  0  0  0  0
   12.3173    4.0826   32.5308 O   0  0  0  0  0  0  0  0  0  0  0  0
   14.3443    2.9840   32.7257 C   0  0  1  0  0  0  0  0  0  0  0  0
   13.4210    2.0408   33.0473 O   0  0  0  0  0  0  0  0  0  0  0  0
   15.3296    2.3936   31.6930 C   0  0  2  0  0  0  0  0  0  0  0  0
    9.3254    9.0145   25.5580 O   0  0  0  0  0  0  0  0  0  0  0  0
   18.9267    4.9722   28.9387 N   0  0  0  0  0  0  0  0  0  0  0  0
   17.8749    4.0627   28.5820 C   0  0  0  0  0  0  0  0  0  0  0  0
   16.9442    3.4270   29.4407 N   0  0  0  0  0  0  0  0  0  0  0  0
   17.1274    3.7685   30.6546 C   0  0  0  0  0  0  0  0  0  0  0  0
   18.1770    4.7008   31.1233 C   0  0  0  0  0  0  0  0  0  0  0  0
   19.0472    5.2695   30.2787 C   0  0  0  0  0  0  0  0  0  0  0  0
   19.9425    6.0632   30.8296 N   0  0  0  0  0  0  0  0  0  0  0  0
   18.1737    4.8872   32.4216 N   0  0  0  0  0  0  0  0  0  0  0  0
   17.1119    4.0718   32.7675 C   0  0  0  0  0  0  0  0  0  0  0  0
   16.4478    3.3752   31.6774 N   0  0  0  0  0  0  0  0  0  0  0  0
  2  1  1  1  0  0  0
  2  3  1  0  0  0  0
  2  5  1  0  0  0  0
  3  4  1  0  0  0  0
  3 17  1  0  0  0  0
  5  6  1  0  0  0  0
  7  6  1  6  0  0  0
  7  8  1  0  0  0  0
  7  9  1  0  0  0  0
 10  9  1  6  0  0  0
 10 11  1  0  0  0  0
 10 12  1  0  0  0  0
 11 16  1  0  0  0  0
 12 13  1  1  0  0  0
 12 14  1  0  0  0  0
 14 15  1  6  0  0  0
 14 16  1  0  0  0  0
 16 27  1  6  0  0  0
 18 19  2  0  0  0  0
 18 23  1  0  0  0  0
 19 20  1  0  0  0  0
 20 21  2  0  0  0  0
 21 22  1  0  0  0  0
 21 27  1  0  0  0  0
 22 23  2  0  0  0  0
 22 25  1  0  0  0  0
 23 24  1  0  0  0  0
 25 26  2  0  0  0  0
 26 27  1  0  0  0  0
M  END
>  <CHROM.1>
137.41880474,-68.25807957,175.39050125,-80.93129587,-149.48109600,-179.32340228
-35.32990046,14.11676460,5.08200957,29.68471891,-2.42906248,0.02606696,2.20466219

>  <Name>
ligand

>  <RI>
0

>  <Rbt.Current_Directory>
/home/itssahil/PROJECTS/Mol_Feturizer/Test_systems_manuscript/rnas/4aob

>  <Rbt.Executable>
rbdock ($Id: //depot/dev/client3/rdock/2013.1/src/exe/rbdock.cxx#4 $)

>  <Rbt.Library>
libRbt.so (2013.1, Build901 2013/11/27)

>  <Rbt.Parameter_File>
/export/apps/rDock/src/rDock_2013.1_src/data/scripts/dock_solv.prm

>  <Rbt.Receptor>
prm/pocket_docking_8.prm

>  <SCORE>
-13.1474

>  <SCORE.INTER>
-13.9643

>  <SCORE.INTER.CONST>
1

>  <SCORE.INTER.POLAR>
0

>  <SCORE.INTER.ROT>
7

>  <SCORE.INTER.SOLV>
8.56295

>  <SCORE.INTER.VDW>
-20.4305

>  <SCORE.INTER.norm>
-0.517197

>  <SCORE.INTRA>
0.815645

>  <SCORE.INTRA.DIHEDRAL>
0.8459

>  <SCORE.INTRA.DIHEDRAL.0>
6.31833

>  <SCORE.INTRA.POLAR>
0

>  <SCORE.INTRA.POLAR.0>
0

>  <SCORE.INTRA.REPUL>
0

>  <SCORE.INTRA.REPUL.0>
0

>  <SCORE.INTRA.SOLV>
0.185332

>  <SCORE.INTRA.SOLV.lig_0>
-48.4015

>  <SCORE.INTRA.VDW>
0.300029

>  <SCORE.INTRA.VDW.0>
-2.83256

>  <SCORE.INTRA.norm>
0.0302091

>  <SCORE.RESTR>
0.00123271

>  <SCORE.RESTR.CAVITY>
0.00123271

>  <SCORE.RESTR.norm>
4.5656e-05

>  <SCORE.SYSTEM>
0

>  <SCORE.SYSTEM.CONST>
0

>  <SCORE.SYSTEM.DIHEDRAL>
0

>  <SCORE.SYSTEM.SOLV>
0

>  <SCORE.SYSTEM.norm>
0

>  <SCORE.heavy>
27

>  <SCORE.norm>
-0.486942

>  <RMSD>
4.707

$$$$
ligand
 OpenBabel02271912153D
libRbt.so/2013.1/901 2013/11/27
 27 29  0  0  0  0  0  0  0  0999 V2000
   11.8628    7.3895   25.9442 N   0  0  0  0  0  0  0  0  0  0  0  0
   10.5822    7.1473   26.6511 C   0  0  2  0  0  0  0  0  0  0  0  0
   10.0623    8.4906   27.1467 C   0  0  0  0  0  0  0  0  0  0  0  0
   10.0567    9.5870   26.4945 O   0  0  0  0  0  0  0  0  0  0  0  0
   10.8243    6.1387   27.7761 C   0  0  0  0  0  0  0  0  0  0  0  0
   11.8340    6.6332   28.8033 C   0  0  0  0  0  0  0  0  0  0  0  0
   12.2120    5.7361   30.3553 S   0  0  2  0  0  0  0  0  0  0  0  0
   13.3944    6.8871   31.0538 C   0  0  0  0  0  0  0  0  0  0  0  0
   13.2564    4.4232   29.6468 C   0  0  0  0  0  0  0  0  0  0  0  0
   13.4151    3.2693   30.5983 C   0  0  1  0  0  0  0  0  0  0  0  0
   14.5873    2.4694   30.3102 O   0  0  0  0  0  0  0  0  0  0  0  0
   13.5030    3.6711   32.0529 C   0  0  1  0  0  0  0  0  0  0  0  0
   12.2707    3.5180   32.6099 O   0  0  0  0  0  0  0  0  0  0  0  0
   14.3766    2.5599   32.5862 C   0  0  1  0  0  0  0  0  0  0  0  0
   13.5382    1.5175   32.8233 O   0  0  0  0  0  0  0  0  0  0  0  0
   15.3497    2.1756   31.4497 C   0  0  2  0  0  0  0  0  0  0  0  0
    9.6623    8.5176   28.3119 O   0  0  0  0  0  0  0  0  0  0  0  0
   18.9143    5.0412   28.9483 N   0  0  0  0  0  0  0  0  0  0  0  0
   17.9530    4.0657   28.5182 C   0  0  0  0  0  0  0  0  0  0  0  0
   17.0197    3.3534   29.3116 N   0  0  0  0  0  0  0  0  0  0  0  0
   17.1048    3.6886   30.5381 C   0  0  0  0  0  0  0  0  0  0  0  0
   18.0556    4.6850   31.0800 C   0  0  0  0  0  0  0  0  0  0  0  0
   18.9325    5.3260   30.2963 C   0  0  0  0  0  0  0  0  0  0  0  0
   19.7345    6.1721   30.9094 N   0  0  0  0  0  0  0  0  0  0  0  0
   17.9610    4.8512   32.3776 N   0  0  0  0  0  0  0  0  0  0  0  0
   16.9407    3.9583   32.6492 C   0  0  0  0  0  0  0  0  0  0  0  0
   16.3945    3.2334   31.5131 N   0  0  0  0  0  0  0  0  0  0  0  0
  2  1  1  1  0  0  0
  2  3  1  0  0  0  0
  2  5  1  0  0  0  0
  3  4  1  0  0  0  0
  3 17  1  0  0  0  0
  5  6  1  0  0  0  0
  7  6  1  6  0  0  0
  7  8  1  0  0  0  0
  7  9  1  0  0  0  0
 10  9  1  6  0  0  0
 10 11  1  0  0  0  0
 10 12  1  0  0  0  0
 11 16  1  0  0  0  0
 12 13  1  1  0  0  0
 12 14  1  0  0  0  0
 14 15  1  6  0  0  0
 14 16  1  0  0  0  0
 16 27  1  6  0  0  0
 18 19  2  0  0  0  0
 18 23  1  0  0  0  0
 19 20  1  0  0  0  0
 20 21  2  0  0  0  0
 21 22  1  0  0  0  0
 21 27  1  0  0  0  0
 22 23  2  0  0  0  0
 22 25  1  0  0  0  0
 23 24  1  0  0  0  0
 25 26  2  0  0  0  0
 26 27  1  0  0  0  0
M  END
>  <CHROM.1>
42.88277738,60.61459252,173.57400450,-178.29557568,-163.18972868,-158.46192370
-44.07168604,14.21835152,5.03904006,30.03932833,-2.46443156,-0.02211991,2.37536266

>  <Name>
ligand

>  <RI>
0

>  <Rbt.Current_Directory>
/home/itssahil/PROJECTS/Mol_Feturizer/Test_systems_manuscript/rnas/4aob

>  <Rbt.Executable>
rbdock ($Id: //depot/dev/client3/rdock/2013.1/src/exe/rbdock.cxx#4 $)

>  <Rbt.Library>
libRbt.so (2013.1, Build901 2013/11/27)

>  <Rbt.Parameter_File>
/export/apps/rDock/src/rDock_2013.1_src/data/scripts/dock_solv.prm

>  <Rbt.Receptor>
prm/pocket_docking_8.prm

>  <SCORE>
-13.7879

>  <SCORE.INTER>
-16.1586

>  <SCORE.INTER.CONST>
1

>  <SCORE.INTER.POLAR>
0

>  <SCORE.INTER.ROT>
7

>  <SCORE.INTER.SOLV>
9.86653

>  <SCORE.INTER.VDW>
-22.3279

>  <SCORE.INTER.norm>
-0.598468

>  <SCORE.INTRA>
2.36713

>  <SCORE.INTRA.DIHEDRAL>
0.389164

>  <SCORE.INTRA.DIHEDRAL.0>
6.31833

>  <SCORE.INTRA.POLAR>
0

>  <SCORE.INTRA.POLAR.0>
0

>  <SCORE.INTRA.REPUL>
0

>  <SCORE.INTRA.REPUL.0>
0

>  <SCORE.INTRA.SOLV>
0.203156

>  <SCORE.INTRA.SOLV.lig_0>
-48.4015

>  <SCORE.INTRA.VDW>
2.07097

>  <SCORE.INTRA.VDW.0>
-2.83256

>  <SCORE.INTRA.norm>
0.0876714

>  <SCORE.RESTR>
0.00357259

>  <SCORE.RESTR.CAVITY>
0.00357259

>  <SCORE.RESTR.norm>
0.000132318

>  <SCORE.SYSTEM>
0

>  <SCORE.SYSTEM.CONST>
0

>  <SCORE.SYSTEM.DIHEDRAL>
0

>  <SCORE.SYSTEM.SOLV>
0

>  <SCORE.SYSTEM.norm>
0

>  <SCORE.heavy>
27

>  <SCORE.norm>
-0.510664

>  <RMSD>
4.719

$$$$
ligand
 OpenBabel02271912153D
libRbt.so/2013.1/901 2013/11/27
 27 29  0  0  0  0  0  0  0  0999 V2000
   15.7576    8.0922   26.6833 N   0  0  0  0  0  0  0  0  0  0  0  0
   15.3038    6.7161   26.3690 C   0  0  2  0  0  0  0  0  0  0  0  0
   13.9896    6.8216   25.6062 C   0  0  0  0  0  0  0  0  0  0  0  0
   13.5549    6.0018   24.7307 O   0  0  0  0  0  0  0  0  0  0  0  0
   15.1850    5.9269   27.6746 C   0  0  0  0  0  0  0  0  0  0  0  0
   14.6442    4.5189   27.4647 C   0  0  0  0  0  0  0  0  0  0  0  0
   12.9941    3.9774   28.0483 S   0  0  2  0  0  0  0  0  0  0  0  0
   12.0753    5.4741   27.6930 C   0  0  0  0  0  0  0  0  0  0  0  0
   13.3073    4.0796   29.8393 C   0  0  0  0  0  0  0  0  0  0  0  0
   13.7038    2.7450   30.4081 C   0  0  1  0  0  0  0  0  0  0  0  0
   14.9693    2.2729   29.8860 O   0  0  0  0  0  0  0  0  0  0  0  0
   13.8127    2.7199   31.9156 C   0  0  1  0  0  0  0  0  0  0  0  0
   12.6557    2.2061   32.4155 O   0  0  0  0  0  0  0  0  0  0  0  0
   14.8822    1.6671   32.0901 C   0  0  1  0  0  0  0  0  0  0  0  0
   14.2361    0.4743   32.0190 O   0  0  0  0  0  0  0  0  0  0  0  0
   15.8350    1.7972   30.8812 C   0  0  2  0  0  0  0  0  0  0  0  0
   13.3176    7.8308   25.8263 O   0  0  0  0  0  0  0  0  0  0  0  0
   18.8987    5.7061   29.2974 N   0  0  0  0  0  0  0  0  0  0  0  0
   18.1027    4.7329   28.6047 C   0  0  0  0  0  0  0  0  0  0  0  0
   17.2947    3.7113   29.1629 N   0  0  0  0  0  0  0  0  0  0  0  0
   17.3279    3.7399   30.4364 C   0  0  0  0  0  0  0  0  0  0  0  0
   18.1104    4.7038   31.2421 C   0  0  0  0  0  0  0  0  0  0  0  0
   18.8740    5.6460   30.6737 C   0  0  0  0  0  0  0  0  0  0  0  0
   19.5334    6.4256   31.5057 N   0  0  0  0  0  0  0  0  0  0  0  0
   17.9929    4.5254   32.5362 N   0  0  0  0  0  0  0  0  0  0  0  0
   17.1267    3.4476   32.5413 C   0  0  0  0  0  0  0  0  0  0  0  0
   16.6998    2.9531   31.2421 N   0  0  0  0  0  0  0  0  0  0  0  0
  2  1  1  1  0  0  0
  2  3  1  0  0  0  0
  2  5  1  0  0  0  0
  3  4  1  0  0  0  0
  3 17  1  0  0  0  0
  5  6  1  0  0  0  0
  7  6  1  6  0  0  0
  7  8  1  0  0  0  0
  7  9  1  0  0  0  0
 10  9  1  6  0  0  0
 10 11  1  0  0  0  0
 10 12  1  0  0  0  0
 11 16  1  0  0  0  0
 12 13  1  1  0  0  0
 12 14  1  0  0  0  0
 14 15  1  6  0  0  0
 14 16  1  0  0  0  0
 16 27  1  1  0  0  0
 18 19  2  0  0  0  0
 18 23  1  0  0  0  0
 19 20  1  0  0  0  0
 20 21  2  0  0  0  0
 21 22  1  0  0  0  0
 21 27  1  0  0  0  0
 22 23  2  0  0  0  0
 22 25  1  0  0  0  0
 23 24  1  0  0  0  0
 25 26  2  0  0  0  0
 26 27  1  0  0  0  0
M  END
>  <CHROM.1>
150.14113118,176.61300517,-111.44211158,38.51894752,-95.80624719,64.96239699
-48.13711066,15.34683149,4.37334184,29.40376191,-1.90955992,0.38753292,2.28470019

>  <Name>
ligand

>  <RI>
0

>  <Rbt.Current_Directory>
/home/itssahil/PROJECTS/Mol_Feturizer/Test_systems_manuscript/rnas/4aob

>  <Rbt.Executable>
rbdock ($Id: //depot/dev/client3/rdock/2013.1/src/exe/rbdock.cxx#4 $)

>  <Rbt.Library>
libRbt.so (2013.1, Build901 2013/11/27)

>  <Rbt.Parameter_File>
/export/apps/rDock/src/rDock_2013.1_src/data/scripts/dock_solv.prm

>  <Rbt.Receptor>
prm/pocket_docking_6.prm

>  <SCORE>
-12.4315

>  <SCORE.INTER>
-14.1291

>  <SCORE.INTER.CONST>
1

>  <SCORE.INTER.POLAR>
0

>  <SCORE.INTER.ROT>
7

>  <SCORE.INTER.SOLV>
11.662

>  <SCORE.INTER.VDW>
-21.5734

>  <SCORE.INTER.norm>
-0.523301

>  <SCORE.INTRA>
1.69765

>  <SCORE.INTRA.DIHEDRAL>
4.51602

>  <SCORE.INTRA.DIHEDRAL.0>
6.31833

>  <SCORE.INTRA.POLAR>
0

>  <SCORE.INTRA.POLAR.0>
0

>  <SCORE.INTRA.REPUL>
0

>  <SCORE.INTRA.REPUL.0>
0

>  <SCORE.INTRA.SOLV>
-0.515383

>  <SCORE.INTRA.SOLV.lig_0>
-48.4015

>  <SCORE.INTRA.VDW>
-0.302666

>  <SCORE.INTRA.VDW.0>
-2.83256

>  <SCORE.INTRA.norm>
0.062876

>  <SCORE.RESTR>
0

>  <SCORE.RESTR.CAVITY>
0

>  <SCORE.RESTR.norm>
0

>  <SCORE.SYSTEM>
0

>  <SCORE.SYSTEM.CONST>
0

>  <SCORE.SYSTEM.DIHEDRAL>
0

>  <SCORE.SYSTEM.SOLV>
0

>  <SCORE.SYSTEM.norm>
0

>  <SCORE.heavy>
27

>  <SCORE.norm>
-0.460425

>  <RMSD>
4.731

$$$$
ligand
 OpenBabel02271912153D
libRbt.so/2013.1/901 2013/11/27
 27 29  0  0  0  0  0  0  0  0999 V2000
   13.0265    8.0795   27.5284 N   0  0  0  0  0  0  0  0  0  0  0  0
   13.3518    6.6778   27.1711 C   0  0  2  0  0  0  0  0  0  0  0  0
   12.1045    5.8355   27.4062 C   0  0  0  0  0  0  0  0  0  0  0  0
   12.0738    4.5935   27.6956 O   0  0  0  0  0  0  0  0  0  0  0  0
   14.5544    6.2246   28.0018 C   0  0  0  0  0  0  0  0  0  0  0  0
   14.2865    6.2713   29.5002 C   0  0  0  0  0  0  0  0  0  0  0  0
   15.5324    5.8057   30.7601 S   0  0  2  0  0  0  0  0  0  0  0  0
   16.8916    6.8232   30.1875 C   0  0  0  0  0  0  0  0  0  0  0  0
   15.9372    4.1485   30.1229 C   0  0  0  0  0  0  0  0  0  0  0  0
   15.0001    3.1041   30.6641 C   0  0  1  0  0  0  0  0  0  0  0  0
   15.2260    2.8294   32.0678 O   0  0  0  0  0  0  0  0  0  0  0  0
   13.5353    3.4453   30.5125 C   0  0  1  0  0  0  0  0  0  0  0  0
   13.0636    2.8064   29.4073 O   0  0  0  0  0  0  0  0  0  0  0  0
   12.9675    2.7331   31.7178 C   0  0  1  0  0  0  0  0  0  0  0  0
   12.8064    1.4395   31.3358 O   0  0  0  0  0  0  0  0  0  0  0  0
   14.0447    2.8020   32.8228 C   0  0  2  0  0  0  0  0  0  0  0  0
   11.0268    6.4103   27.2431 O   0  0  0  0  0  0  0  0  0  0  0  0
   16.3184    7.1680   34.5386 N   0  0  0  0  0  0  0  0  0  0  0  0
   16.8227    5.9493   33.9720 C   0  0  0  0  0  0  0  0  0  0  0  0
   16.0850    4.8228   33.5308 N   0  0  0  0  0  0  0  0  0  0  0  0
   14.8326    5.0029   33.6810 C   0  0  0  0  0  0  0  0  0  0  0  0
   14.2139    6.2218   34.2485 C   0  0  0  0  0  0  0  0  0  0  0  0
   14.9496    7.2596   34.6676 C   0  0  0  0  0  0  0  0  0  0  0  0
   14.2743    8.2728   35.1698 N   0  0  0  0  0  0  0  0  0  0  0  0
   12.9050    6.1666   34.3125 N   0  0  0  0  0  0  0  0  0  0  0  0
   12.7021    4.9084   33.7762 C   0  0  0  0  0  0  0  0  0  0  0  0
   13.8921    4.1762   33.3730 N   0  0  0  0  0  0  0  0  0  0  0  0
  2  1  1  1  0  0  0
  2  3  1  0  0  0  0
  2  5  1  0  0  0  0
  3  4  1  0  0  0  0
  3 17  1  0  0  0  0
  5  6  1  0  0  0  0
  7  6  1  6  0  0  0
  7  8  1  0  0  0  0
  7  9  1  0  0  0  0
 10  9  1  1  0  0  0
 10 11  1  0  0  0  0
 10 12  1  0  0  0  0
 11 16  1  0  0  0  0
 12 13  1  6  0  0  0
 12 14  1  0  0  0  0
 14 15  1  6  0  0  0
 14 16  1  0  0  0  0
 16 27  1  6  0  0  0
 18 19  2  0  0  0  0
 18 23  1  0  0  0  0
 19 20  1  0  0  0  0
 20 21  2  0  0  0  0
 21 22  1  0  0  0  0
 21 27  1  0  0  0  0
 22 23  2  0  0  0  0
 22 25  1  0  0  0  0
 23 24  1  0  0  0  0
 25 26  2  0  0  0  0
 26 27  1  0  0  0  0
M  END
>  <CHROM.1>
-152.35791799,60.56720098,-179.41145136,51.53351168,-86.76975660,-71.48220508
-30.56393434,14.20223643,5.17474894,31.19666674,-2.54353360,1.16042727,2.46540917

>  <Name>
ligand

>  <RI>
0

>  <Rbt.Current_Directory>
/home/itssahil/PROJECTS/Mol_Feturizer/Test_systems_manuscript/rnas/4aob

>  <Rbt.Executable>
rbdock ($Id: //depot/dev/client3/rdock/2013.1/src/exe/rbdock.cxx#4 $)

>  <Rbt.Library>
libRbt.so (2013.1, Build901 2013/11/27)

>  <Rbt.Parameter_File>
/export/apps/rDock/src/rDock_2013.1_src/data/scripts/dock_solv.prm

>  <Rbt.Receptor>
prm/pocket_docking_4.prm

>  <SCORE>
-9.52398

>  <SCORE.INTER>
-8.16194

>  <SCORE.INTER.CONST>
1

>  <SCORE.INTER.POLAR>
0

>  <SCORE.INTER.ROT>
7

>  <SCORE.INTER.SOLV>
11.3825

>  <SCORE.INTER.VDW>
-17.5021

>  <SCORE.INTER.norm>
-0.302294

>  <SCORE.INTRA>
-1.36204

>  <SCORE.INTRA.DIHEDRAL>
-2.1455

>  <SCORE.INTRA.DIHEDRAL.0>
6.31833

>  <SCORE.INTRA.POLAR>
0

>  <SCORE.INTRA.POLAR.0>
0

>  <SCORE.INTRA.REPUL>
0

>  <SCORE.INTRA.REPUL.0>
0

>  <SCORE.INTRA.SOLV>
0.638824

>  <SCORE.INTRA.SOLV.lig_0>
-48.4015

>  <SCORE.INTRA.VDW>
-0.608701

>  <SCORE.INTRA.VDW.0>
-2.83256

>  <SCORE.INTRA.norm>
-0.0504459

>  <SCORE.RESTR>
0

>  <SCORE.RESTR.CAVITY>
0

>  <SCORE.RESTR.norm>
0

>  <SCORE.SYSTEM>
0

>  <SCORE.SYSTEM.CONST>
0

>  <SCORE.SYSTEM.DIHEDRAL>
0

>  <SCORE.SYSTEM.SOLV>
0

>  <SCORE.SYSTEM.norm>
0

>  <SCORE.heavy>
27

>  <SCORE.norm>
-0.35274

>  <RMSD>
4.735

$$$$
ligand
 OpenBabel02271912153D
libRbt.so/2013.1/901 2013/11/27
 27 29  0  0  0  0  0  0  0  0999 V2000
   14.2602    8.2380   26.2731 N   0  0  0  0  0  0  0  0  0  0  0  0
   13.9919    7.8864   27.6883 C   0  0  2  0  0  0  0  0  0  0  0  0
   14.2830    9.1171   28.5373 C   0  0  0  0  0  0  0  0  0  0  0  0
   13.4510    9.7402   29.2769 O   0  0  0  0  0  0  0  0  0  0  0  0
   14.8468    6.6744   28.0648 C   0  0  0  0  0  0  0  0  0  0  0  0
   14.3416    5.3805   27.4404 C   0  0  0  0  0  0  0  0  0  0  0  0
   12.8373    4.5065   28.0145 S   0  0  2  0  0  0  0  0  0  0  0  0
   11.6440    5.8169   27.7505 C   0  0  0  0  0  0  0  0  0  0  0  0
   13.1649    4.5770   29.8044 C   0  0  0  0  0  0  0  0  0  0  0  0
   13.3947    3.2061   30.3787 C   0  0  1  0  0  0  0  0  0  0  0  0
   14.5840    2.5736   29.8470 O   0  0  0  0  0  0  0  0  0  0  0  0
   13.5162    3.1760   31.8852 C   0  0  1  0  0  0  0  0  0  0  0  0
   12.3088    2.8167   32.4005 O   0  0  0  0  0  0  0  0  0  0  0  0
   14.4449    1.9967   32.0563 C   0  0  1  0  0  0  0  0  0  0  0  0
   13.6514    0.8954   32.0003 O   0  0  0  0  0  0  0  0  0  0  0  0
   15.3930    1.9974   30.8368 C   0  0  2  0  0  0  0  0  0  0  0  0
   15.4228    9.5768   28.4481 O   0  0  0  0  0  0  0  0  0  0  0  0
   18.9883    5.3986   29.1996 N   0  0  0  0  0  0  0  0  0  0  0  0
   18.0781    4.5208   28.5203 C   0  0  0  0  0  0  0  0  0  0  0  0
   17.1289    3.6376   29.0921 N   0  0  0  0  0  0  0  0  0  0  0  0
   17.1448    3.7030   30.3646 C   0  0  0  0  0  0  0  0  0  0  0  0
   18.0386    4.5771   31.1569 C   0  0  0  0  0  0  0  0  0  0  0  0
   18.9331    5.3874   30.5763 C   0  0  0  0  0  0  0  0  0  0  0  0
   19.6793    6.0966   31.3980 N   0  0  0  0  0  0  0  0  0  0  0  0
   17.8765    4.4588   32.4531 N   0  0  0  0  0  0  0  0  0  0  0  0
   16.8711    3.5098   32.4727 C   0  0  0  0  0  0  0  0  0  0  0  0
   16.4019    3.0359   31.1805 N   0  0  0  0  0  0  0  0  0  0  0  0
  2  1  1  6  0  0  0
  2  3  1  0  0  0  0
  2  5  1  0  0  0  0
  3  4  1  0  0  0  0
  3 17  1  0  0  0  0
  5  6  1  0  0  0  0
  7  6  1  6  0  0  0
  7  8  1  0  0  0  0
  7  9  1  0  0  0  0
 10  9  1  6  0  0  0
 10 11  1  0  0  0  0
 10 12  1  0  0  0  0
 11 16  1  0  0  0  0
 12 13  1  1  0  0  0
 12 14  1  0  0  0  0
 14 15  1  6  0  0  0
 14 16  1  0  0  0  0
 16 27  1  1  0  0  0
 18 19  2  0  0  0  0
 18 23  1  0  0  0  0
 19 20  1  0  0  0  0
 20 21  2  0  0  0  0
 21 22  1  0  0  0  0
 21 27  1  0  0  0  0
 22 23  2  0  0  0  0
 22 25  1  0  0  0  0
 23 24  1  0  0  0  0
 25 26  2  0  0  0  0
 26 27  1  0  0  0  0
M  END
>  <CHROM.1>
119.21641475,-73.07381964,-73.70637555,59.16274115,-114.16862765,64.41677180
-50.40615252,15.15226450,4.90572209,29.79312263,-1.82456001,0.24191102,2.59628489

>  <Name>
ligand

>  <RI>
0

>  <Rbt.Current_Directory>
/home/itssahil/PROJECTS/Mol_Feturizer/Test_systems_manuscript/rnas/4aob

>  <Rbt.Executable>
rbdock ($Id: //depot/dev/client3/rdock/2013.1/src/exe/rbdock.cxx#4 $)

>  <Rbt.Library>
libRbt.so (2013.1, Build901 2013/11/27)

>  <Rbt.Parameter_File>
/export/apps/rDock/src/rDock_2013.1_src/data/scripts/dock_solv.prm

>  <Rbt.Receptor>
prm/pocket_docking_7.prm

>  <SCORE>
-13.4458

>  <SCORE.INTER>
-14.7735

>  <SCORE.INTER.CONST>
1

>  <SCORE.INTER.POLAR>
0

>  <SCORE.INTER.ROT>
7

>  <SCORE.INTER.SOLV>
9.43879

>  <SCORE.INTER.VDW>
-21.262

>  <SCORE.INTER.norm>
-0.547168

>  <SCORE.INTRA>
1.32772

>  <SCORE.INTRA.DIHEDRAL>
1.86154

>  <SCORE.INTRA.DIHEDRAL.0>
6.31833

>  <SCORE.INTRA.POLAR>
0

>  <SCORE.INTRA.POLAR.0>
0

>  <SCORE.INTRA.REPUL>
0

>  <SCORE.INTRA.REPUL.0>
0

>  <SCORE.INTRA.SOLV>
0.808541

>  <SCORE.INTRA.SOLV.lig_0>
-48.4015

>  <SCORE.INTRA.VDW>
-0.00732208

>  <SCORE.INTRA.VDW.0>
-2.83256

>  <SCORE.INTRA.norm>
0.0491748

>  <SCORE.RESTR>
0

>  <SCORE.RESTR.CAVITY>
0

>  <SCORE.RESTR.norm>
0

>  <SCORE.SYSTEM>
0

>  <SCORE.SYSTEM.CONST>
0

>  <SCORE.SYSTEM.DIHEDRAL>
0

>  <SCORE.SYSTEM.SOLV>
0

>  <SCORE.SYSTEM.norm>
0

>  <SCORE.heavy>
27

>  <SCORE.norm>
-0.497993

>  <RMSD>
4.754

$$$$
ligand
 OpenBabel02271912153D
libRbt.so/2013.1/901 2013/11/27
 27 29  0  0  0  0  0  0  0  0999 V2000
   13.2077    9.0653   26.7171 N   0  0  0  0  0  0  0  0  0  0  0  0
   11.7700    8.7058   26.7627 C   0  0  2  0  0  0  0  0  0  0  0  0
   10.9651    9.9664   26.4744 C   0  0  0  0  0  0  0  0  0  0  0  0
    9.7258   10.1453   26.7187 O   0  0  0  0  0  0  0  0  0  0  0  0
   11.4604    8.0881   28.1281 C   0  0  0  0  0  0  0  0  0  0  0  0
   12.1872    6.7695   28.3566 C   0  0  0  0  0  0  0  0  0  0  0  0
   12.0594    5.8062   29.9097 S   0  0  2  0  0  0  0  0  0  0  0  0
   12.8052    6.9917   31.0272 C   0  0  0  0  0  0  0  0  0  0  0  0
   13.4000    4.6167   29.5868 C   0  0  0  0  0  0  0  0  0  0  0  0
   13.4507    3.5423   30.6380 C   0  0  1  0  0  0  0  0  0  0  0  0
   14.5662    2.6375   30.4536 O   0  0  0  0  0  0  0  0  0  0  0  0
   13.5356    4.0628   32.0546 C   0  0  1  0  0  0  0  0  0  0  0  0
   12.2831    4.0487   32.5869 O   0  0  0  0  0  0  0  0  0  0  0  0
   14.3117    2.9424   32.7064 C   0  0  1  0  0  0  0  0  0  0  0  0
   13.3928    1.9883   33.0078 O   0  0  0  0  0  0  0  0  0  0  0  0
   15.2788    2.3905   31.6357 C   0  0  2  0  0  0  0  0  0  0  0  0
   11.5698   10.8728   25.8988 O   0  0  0  0  0  0  0  0  0  0  0  0
   18.9050    4.9855   28.9356 N   0  0  0  0  0  0  0  0  0  0  0  0
   17.8563    4.0793   28.5620 C   0  0  0  0  0  0  0  0  0  0  0  0
   16.9166    3.4384   29.4070 N   0  0  0  0  0  0  0  0  0  0  0  0
   17.0879    3.7712   30.6250 C   0  0  0  0  0  0  0  0  0  0  0  0
   18.1334    4.6995   31.1106 C   0  0  0  0  0  0  0  0  0  0  0  0
   19.0124    5.2733   30.2788 C   0  0  0  0  0  0  0  0  0  0  0  0
   19.9027    6.0625   30.8441 N   0  0  0  0  0  0  0  0  0  0  0  0
   18.1173    4.8768   32.4101 N   0  0  0  0  0  0  0  0  0  0  0  0
   17.0515    4.0599   32.7398 C   0  0  0  0  0  0  0  0  0  0  0  0
   16.3978    3.3714   31.6382 N   0  0  0  0  0  0  0  0  0  0  0  0
  2  1  1  1  0  0  0
  2  3  1  0  0  0  0
  2  5  1  0  0  0  0
  3  4  1  0  0  0  0
  3 17  1  0  0  0  0
  5  6  1  0  0  0  0
  7  6  1  6  0  0  0
  7  8  1  0  0  0  0
  7  9  1  0  0  0  0
 10  9  1  6  0  0  0
 10 11  1  0  0  0  0
 10 12  1  0  0  0  0
 11 16  1  0  0  0  0
 12 13  1  1  0  0  0
 12 14  1  0  0  0  0
 14 15  1  6  0  0  0
 14 16  1  0  0  0  0
 16 27  1  6  0  0  0
 18 19  2  0  0  0  0
 18 23  1  0  0  0  0
 19 20  1  0  0  0  0
 20 21  2  0  0  0  0
 21 22  1  0  0  0  0
 21 27  1  0  0  0  0
 22 23  2  0  0  0  0
 22 25  1  0  0  0  0
 23 24  1  0  0  0  0
 25 26  2  0  0  0  0
 26 27  1  0  0  0  0
M  END
>  <CHROM.1>
-162.84677000,-64.74235953,178.34256548,-63.85369911,-172.96566420,-176.00153488
-37.65973058,14.40802429,5.50558716,29.95479177,-2.25057590,-0.06871991,2.42259700

>  <Name>
ligand

>  <RI>
0

>  <Rbt.Current_Directory>
/home/itssahil/PROJECTS/Mol_Feturizer/Test_systems_manuscript/rnas/4aob

>  <Rbt.Executable>
rbdock ($Id: //depot/dev/client3/rdock/2013.1/src/exe/rbdock.cxx#4 $)

>  <Rbt.Library>
libRbt.so (2013.1, Build901 2013/11/27)

>  <Rbt.Parameter_File>
/export/apps/rDock/src/rDock_2013.1_src/data/scripts/dock_solv.prm

>  <Rbt.Receptor>
prm/pocket_docking_8.prm

>  <SCORE>
-13.6906

>  <SCORE.INTER>
-13.7293

>  <SCORE.INTER.CONST>
1

>  <SCORE.INTER.POLAR>
0

>  <SCORE.INTER.ROT>
7

>  <SCORE.INTER.SOLV>
8.77522

>  <SCORE.INTER.VDW>
-20.3446

>  <SCORE.INTER.norm>
-0.508491

>  <SCORE.INTRA>
0.0324317

>  <SCORE.INTRA.DIHEDRAL>
-2.47575

>  <SCORE.INTRA.DIHEDRAL.0>
6.31833

>  <SCORE.INTRA.POLAR>
0

>  <SCORE.INTRA.POLAR.0>
0

>  <SCORE.INTRA.REPUL>
0

>  <SCORE.INTRA.REPUL.0>
0

>  <SCORE.INTRA.SOLV>
0.254824

>  <SCORE.INTRA.SOLV.lig_0>
-48.4015

>  <SCORE.INTRA.VDW>
1.14289

>  <SCORE.INTRA.VDW.0>
-2.83256

>  <SCORE.INTRA.norm>
0.00120117

>  <SCORE.RESTR>
0.00620733

>  <SCORE.RESTR.CAVITY>
0.00620733

>  <SCORE.RESTR.norm>
0.000229901

>  <SCORE.SYSTEM>
0

>  <SCORE.SYSTEM.CONST>
0

>  <SCORE.SYSTEM.DIHEDRAL>
0

>  <SCORE.SYSTEM.SOLV>
0

>  <SCORE.SYSTEM.norm>
0

>  <SCORE.heavy>
27

>  <SCORE.norm>
-0.50706

>  <RMSD>
4.766

$$$$
ligand
 OpenBabel02271912153D
libRbt.so/2013.1/901 2013/11/27
 27 29  0  0  0  0  0  0  0  0999 V2000
   11.0295    7.1028   28.6863 N   0  0  0  0  0  0  0  0  0  0  0  0
   11.5216    8.2583   29.4743 C   0  0  2  0  0  0  0  0  0  0  0  0
   11.9109    9.3582   28.4951 C   0  0  0  0  0  0  0  0  0  0  0  0
   12.9032   10.1524   28.6048 O   0  0  0  0  0  0  0  0  0  0  0  0
   12.6824    7.7936   30.3565 C   0  0  0  0  0  0  0  0  0  0  0  0
   13.6855    6.9299   29.6035 C   0  0  0  0  0  0  0  0  0  0  0  0
   15.4349    6.7423   30.1141 S   0  0  2  0  0  0  0  0  0  0  0  0
   16.0926    8.2425   29.3879 C   0  0  0  0  0  0  0  0  0  0  0  0
   15.9123    5.4450   28.9286 C   0  0  0  0  0  0  0  0  0  0  0  0
   15.6906    4.0696   29.4953 C   0  0  1  0  0  0  0  0  0  0  0  0
   16.5793    3.7745   30.5999 O   0  0  0  0  0  0  0  0  0  0  0  0
   14.2824    3.8187   29.9840 C   0  0  1  0  0  0  0  0  0  0  0  0
   13.6072    3.1534   29.0073 O   0  0  0  0  0  0  0  0  0  0  0  0
   14.5552    2.8296   31.0929 C   0  0  1  0  0  0  0  0  0  0  0  0
   14.6646    1.6197   30.4849 O   0  0  0  0  0  0  0  0  0  0  0  0
   15.9216    3.2124   31.7033 C   0  0  2  0  0  0  0  0  0  0  0  0
   11.1529    9.5209   27.5373 O   0  0  0  0  0  0  0  0  0  0  0  0
   12.4995    5.5079   34.8963 N   0  0  0  0  0  0  0  0  0  0  0  0
   12.5044    4.2598   34.1872 C   0  0  0  0  0  0  0  0  0  0  0  0
   13.5181    3.7407   33.3441 N   0  0  0  0  0  0  0  0  0  0  0  0
   14.5116    4.5355   33.2725 C   0  0  0  0  0  0  0  0  0  0  0  0
   14.6056    5.8388   33.9675 C   0  0  0  0  0  0  0  0  0  0  0  0
   13.6170    6.2996   34.7447 C   0  0  0  0  0  0  0  0  0  0  0  0
   13.8210    7.4821   35.2877 N   0  0  0  0  0  0  0  0  0  0  0  0
   15.7229    6.4830   33.7288 N   0  0  0  0  0  0  0  0  0  0  0  0
   16.3350    5.5751   32.8843 C   0  0  0  0  0  0  0  0  0  0  0  0
   15.5955    4.3564   32.5974 N   0  0  0  0  0  0  0  0  0  0  0  0
  2  1  1  6  0  0  0
  2  3  1  0  0  0  0
  2  5  1  0  0  0  0
  3  4  1  0  0  0  0
  3 17  1  0  0  0  0
  5  6  1  0  0  0  0
  7  6  1  6  0  0  0
  7  8  1  0  0  0  0
  7  9  1  0  0  0  0
 10  9  1  1  0  0  0
 10 11  1  0  0  0  0
 10 12  1  0  0  0  0
 11 16  1  0  0  0  0
 12 13  1  6  0  0  0
 12 14  1  0  0  0  0
 14 15  1  6  0  0  0
 14 16  1  0  0  0  0
 16 27  1  1  0  0  0
 18 19  2  0  0  0  0
 18 23  1  0  0  0  0
 19 20  1  0  0  0  0
 20 21  2  0  0  0  0
 21 22  1  0  0  0  0
 21 27  1  0  0  0  0
 22 23  2  0  0  0  0
 22 25  1  0  0  0  0
 23 24  1  0  0  0  0
 25 26  2  0  0  0  0
 26 27  1  0  0  0  0
M  END
>  <CHROM.1>
-142.43641031,45.63613797,155.94327257,-81.92636869,-90.36384837,-67.29859403
140.14188628,14.14853306,5.84009357,31.05512838,-2.38947965,-1.06851889,1.66780470

>  <Name>
ligand

>  <RI>
0

>  <Rbt.Current_Directory>
/home/itssahil/PROJECTS/Mol_Feturizer/Test_systems_manuscript/rnas/4aob

>  <Rbt.Executable>
rbdock ($Id: //depot/dev/client3/rdock/2013.1/src/exe/rbdock.cxx#4 $)

>  <Rbt.Library>
libRbt.so (2013.1, Build901 2013/11/27)

>  <Rbt.Parameter_File>
/export/apps/rDock/src/rDock_2013.1_src/data/scripts/dock_solv.prm

>  <Rbt.Receptor>
prm/pocket_docking_3.prm

>  <SCORE>
-7.03666

>  <SCORE.INTER>
-8.42224

>  <SCORE.INTER.CONST>
1

>  <SCORE.INTER.POLAR>
0

>  <SCORE.INTER.ROT>
7

>  <SCORE.INTER.SOLV>
13.6862

>  <SCORE.INTER.VDW>
-18.4436

>  <SCORE.INTER.norm>
-0.311935

>  <SCORE.INTRA>
1.38559

>  <SCORE.INTRA.DIHEDRAL>
1.45327

>  <SCORE.INTRA.DIHEDRAL.0>
6.31833

>  <SCORE.INTRA.POLAR>
0

>  <SCORE.INTRA.POLAR.0>
0

>  <SCORE.INTRA.REPUL>
0

>  <SCORE.INTRA.REPUL.0>
0

>  <SCORE.INTRA.SOLV>
0.447522

>  <SCORE.INTRA.SOLV.lig_0>
-48.4015

>  <SCORE.INTRA.VDW>
0.435188

>  <SCORE.INTRA.VDW.0>
-2.83256

>  <SCORE.INTRA.norm>
0.051318

>  <SCORE.RESTR>
0

>  <SCORE.RESTR.CAVITY>
0

>  <SCORE.RESTR.norm>
0

>  <SCORE.SYSTEM>
0

>  <SCORE.SYSTEM.CONST>
0

>  <SCORE.SYSTEM.DIHEDRAL>
0

>  <SCORE.SYSTEM.SOLV>
0

>  <SCORE.SYSTEM.norm>
0

>  <SCORE.heavy>
27

>  <SCORE.norm>
-0.260617

>  <RMSD>
4.789

$$$$
ligand
 OpenBabel02271912153D
libRbt.so/2013.1/901 2013/11/27
 27 29  0  0  0  0  0  0  0  0999 V2000
   12.9646    5.9811   26.9006 N   0  0  0  0  0  0  0  0  0  0  0  0
   13.9265    5.0766   27.5751 C   0  0  2  0  0  0  0  0  0  0  0  0
   14.7303    4.3627   26.4960 C   0  0  0  0  0  0  0  0  0  0  0  0
   15.1554    3.1607   26.5397 O   0  0  0  0  0  0  0  0  0  0  0  0
   13.1495    4.1213   28.4836 C   0  0  0  0  0  0  0  0  0  0  0  0
   14.0331    3.4521   29.5279 C   0  0  0  0  0  0  0  0  0  0  0  0
   15.4325    4.2986   30.3535 S   0  0  2  0  0  0  0  0  0  0  0  0
   16.7542    3.7581   29.2710 C   0  0  0  0  0  0  0  0  0  0  0  0
   15.5829    3.2000   31.7981 C   0  0  0  0  0  0  0  0  0  0  0  0
   14.6496    3.6100   32.9038 C   0  0  1  0  0  0  0  0  0  0  0  0
   14.7299    5.0247   33.2022 O   0  0  0  0  0  0  0  0  0  0  0  0
   13.1948    3.2985   32.6362 C   0  0  1  0  0  0  0  0  0  0  0  0
   12.8871    2.1343   33.2705 O   0  0  0  0  0  0  0  0  0  0  0  0
   12.5343    4.4168   33.4080 C   0  0  1  0  0  0  0  0  0  0  0  0
   12.4890    3.9936   34.6981 O   0  0  0  0  0  0  0  0  0  0  0  0
   13.4741    5.6389   33.3110 C   0  0  2  0  0  0  0  0  0  0  0  0
   15.0397    5.0421   25.5156 O   0  0  0  0  0  0  0  0  0  0  0  0
   14.5380    9.2111   29.6665 N   0  0  0  0  0  0  0  0  0  0  0  0
   15.1112    8.9059   30.9467 C   0  0  0  0  0  0  0  0  0  0  0  0
   14.7282    7.8851   31.8518 N   0  0  0  0  0  0  0  0  0  0  0  0
   13.7603    7.1971   31.3898 C   0  0  0  0  0  0  0  0  0  0  0  0
   13.1053    7.4272   30.0827 C   0  0  0  0  0  0  0  0  0  0  0  0
   13.4892    8.4139   29.2624 C   0  0  0  0  0  0  0  0  0  0  0  0
   12.8092    8.5205   28.1394 N   0  0  0  0  0  0  0  0  0  0  0  0
   12.1227    6.5951   29.8328 N   0  0  0  0  0  0  0  0  0  0  0  0
   12.1665    5.8353   30.9872 C   0  0  0  0  0  0  0  0  0  0  0  0
   13.1847    6.1947   31.9613 N   0  0  0  0  0  0  0  0  0  0  0  0
  2  1  1  6  0  0  0
  2  3  1  0  0  0  0
  2  5  1  0  0  0  0
  3  4  1  0  0  0  0
  3 17  1  0  0  0  0
  5  6  1  0  0  0  0
  7  6  1  6  0  0  0
  7  8  1  0  0  0  0
  7  9  1  0  0  0  0
 10  9  1  6  0  0  0
 10 11  1  0  0  0  0
 10 12  1  0  0  0  0
 11 16  1  0  0  0  0
 12 13  1  1  0  0  0
 12 14  1  0  0  0  0
 14 15  1  1  0  0  0
 14 16  1  0  0  0  0
 16 27  1  6  0  0  0
 18 19  2  0  0  0  0
 18 23  1  0  0  0  0
 19 20  1  0  0  0  0
 20 21  2  0  0  0  0
 21 22  1  0  0  0  0
 21 27  1  0  0  0  0
 22 23  2  0  0  0  0
 22 25  1  0  0  0  0
 23 24  1  0  0  0  0
 25 26  2  0  0  0  0
 26 27  1  0  0  0  0
M  END
>  <CHROM.1>
-144.64097470,-162.35134493,36.28739151,-94.36780429,-85.70915385,-49.11442931
-70.52814385,14.00807816,5.30247376,30.36949031,1.06308090,1.30101423,-0.84148243

>  <Name>
ligand

>  <RI>
0

>  <Rbt.Current_Directory>
/home/itssahil/PROJECTS/Mol_Feturizer/Test_systems_manuscript/rnas/4aob

>  <Rbt.Executable>
rbdock ($Id: //depot/dev/client3/rdock/2013.1/src/exe/rbdock.cxx#4 $)

>  <Rbt.Library>
libRbt.so (2013.1, Build901 2013/11/27)

>  <Rbt.Parameter_File>
/export/apps/rDock/src/rDock_2013.1_src/data/scripts/dock_solv.prm

>  <Rbt.Receptor>
prm/pocket_docking_2.prm

>  <SCORE>
-9.41654

>  <SCORE.INTER>
-11.4914

>  <SCORE.INTER.CONST>
1

>  <SCORE.INTER.POLAR>
0

>  <SCORE.INTER.ROT>
7

>  <SCORE.INTER.SOLV>
8.95095

>  <SCORE.INTER.VDW>
-18.9112

>  <SCORE.INTER.norm>
-0.425607

>  <SCORE.INTRA>
0.763914

>  <SCORE.INTRA.DIHEDRAL>
2.77385

>  <SCORE.INTRA.DIHEDRAL.0>
6.31833

>  <SCORE.INTRA.POLAR>
0

>  <SCORE.INTRA.POLAR.0>
0

>  <SCORE.INTRA.REPUL>
0

>  <SCORE.INTRA.REPUL.0>
0

>  <SCORE.INTRA.SOLV>
4.74541

>  <SCORE.INTRA.SOLV.lig_0>
-48.4015

>  <SCORE.INTRA.VDW>
-2.99571

>  <SCORE.INTRA.VDW.0>
-2.83256

>  <SCORE.INTRA.norm>
0.0282931

>  <SCORE.RESTR>
1.31092

>  <SCORE.RESTR.CAVITY>
1.31092

>  <SCORE.RESTR.norm>
0.0485527

>  <SCORE.SYSTEM>
0

>  <SCORE.SYSTEM.CONST>
0

>  <SCORE.SYSTEM.DIHEDRAL>
0

>  <SCORE.SYSTEM.SOLV>
0

>  <SCORE.SYSTEM.norm>
0

>  <SCORE.heavy>
27

>  <SCORE.norm>
-0.348761

>  <RMSD>
4.796

$$$$
ligand
 OpenBabel02271912153D
libRbt.so/2013.1/901 2013/11/27
 27 29  0  0  0  0  0  0  0  0999 V2000
   15.3159    8.0850   27.0938 N   0  0  0  0  0  0  0  0  0  0  0  0
   15.1065    6.6583   26.7485 C   0  0  2  0  0  0  0  0  0  0  0  0
   13.7895    6.5508   25.9908 C   0  0  0  0  0  0  0  0  0  0  0  0
   13.0794    5.5000   25.8532 O   0  0  0  0  0  0  0  0  0  0  0  0
   15.1344    5.8313   28.0357 C   0  0  0  0  0  0  0  0  0  0  0  0
   16.4952    5.8510   28.7192 C   0  0  0  0  0  0  0  0  0  0  0  0
   16.8764    4.8873   30.2299 S   0  0  2  0  0  0  0  0  0  0  0  0
   18.6552    5.1027   30.2483 C   0  0  0  0  0  0  0  0  0  0  0  0
   16.6521    3.2189   29.5353 C   0  0  0  0  0  0  0  0  0  0  0  0
   15.4709    2.5189   30.1489 C   0  0  1  0  0  0  0  0  0  0  0  0
   15.7094    2.1277   31.5226 O   0  0  0  0  0  0  0  0  0  0  0  0
   14.1942    3.3283   30.1370 C   0  0  1  0  0  0  0  0  0  0  0  0
   13.4473    2.9258   29.0728 O   0  0  0  0  0  0  0  0  0  0  0  0
   13.5253    2.7931   31.3814 C   0  0  1  0  0  0  0  0  0  0  0  0
   12.9140    1.6410   31.0013 O   0  0  0  0  0  0  0  0  0  0  0  0
   14.6528    2.4589   32.3829 C   0  0  2  0  0  0  0  0  0  0  0  0
   13.4141    7.5728   25.4137 O   0  0  0  0  0  0  0  0  0  0  0  0
   13.0656    6.9005   34.6026 N   0  0  0  0  0  0  0  0  0  0  0  0
   12.3866    5.7038   34.1935 C   0  0  0  0  0  0  0  0  0  0  0  0
   12.9452    4.5448   33.5998 N   0  0  0  0  0  0  0  0  0  0  0  0
   14.2065    4.6595   33.4593 C   0  0  0  0  0  0  0  0  0  0  0  0
   14.9982    5.8464   33.8530 C   0  0  0  0  0  0  0  0  0  0  0  0
   14.4280    6.9286   34.3986 C   0  0  0  0  0  0  0  0  0  0  0  0
   15.2444    7.9222   34.6835 N   0  0  0  0  0  0  0  0  0  0  0  0
   16.2796    5.7326   33.5973 N   0  0  0  0  0  0  0  0  0  0  0  0
   16.2916    4.4646   33.0460 C   0  0  0  0  0  0  0  0  0  0  0  0
   15.0099    3.7831   32.9603 N   0  0  0  0  0  0  0  0  0  0  0  0
  2  1  1  1  0  0  0
  2  3  1  0  0  0  0
  2  5  1  0  0  0  0
  3  4  1  0  0  0  0
  3 17  1  0  0  0  0
  5  6  1  0  0  0  0
  7  6  1  6  0  0  0
  7  8  1  0  0  0  0
  7  9  1  0  0  0  0
 10  9  1  1  0  0  0
 10 11  1  0  0  0  0
 10 12  1  0  0  0  0
 11 16  1  0  0  0  0
 12 13  1  6  0  0  0
 12 14  1  0  0  0  0
 14 15  1  6  0  0  0
 14 16  1  0  0  0  0
 16 27  1  6  0  0  0
 18 19  2  0  0  0  0
 18 23  1  0  0  0  0
 19 20  1  0  0  0  0
 20 21  2  0  0  0  0
 21 22  1  0  0  0  0
 21 27  1  0  0  0  0
 22 23  2  0  0  0  0
 22 25  1  0  0  0  0
 23 24  1  0  0  0  0
 25 26  2  0  0  0  0
 26 27  1  0  0  0  0
M  END
>  <CHROM.1>
-158.85181348,-65.10801402,-176.61876977,168.63794316,-113.40447443,-71.28936310
156.92942567,14.88390398,4.91297113,30.68236006,-1.28075381,1.52930666,1.43836477

>  <Name>
ligand

>  <RI>
0

>  <Rbt.Current_Directory>
/home/itssahil/PROJECTS/Mol_Feturizer/Test_systems_manuscript/rnas/4aob

>  <Rbt.Executable>
rbdock ($Id: //depot/dev/client3/rdock/2013.1/src/exe/rbdock.cxx#4 $)

>  <Rbt.Library>
libRbt.so (2013.1, Build901 2013/11/27)

>  <Rbt.Parameter_File>
/export/apps/rDock/src/rDock_2013.1_src/data/scripts/dock_solv.prm

>  <Rbt.Receptor>
prm/pocket_docking_4.prm

>  <SCORE>
-8.56837

>  <SCORE.INTER>
-9.2075

>  <SCORE.INTER.CONST>
1

>  <SCORE.INTER.POLAR>
0

>  <SCORE.INTER.ROT>
7

>  <SCORE.INTER.SOLV>
12.9801

>  <SCORE.INTER.VDW>
-18.7317

>  <SCORE.INTER.norm>
-0.341019

>  <SCORE.INTRA>
0.625358

>  <SCORE.INTRA.DIHEDRAL>
0.954444

>  <SCORE.INTRA.DIHEDRAL.0>
6.31833

>  <SCORE.INTRA.POLAR>
0

>  <SCORE.INTRA.POLAR.0>
0

>  <SCORE.INTRA.REPUL>
0

>  <SCORE.INTRA.REPUL.0>
0

>  <SCORE.INTRA.SOLV>
0.366632

>  <SCORE.INTRA.SOLV.lig_0>
-48.4015

>  <SCORE.INTRA.VDW>
-0.0351799

>  <SCORE.INTRA.VDW.0>
-2.83256

>  <SCORE.INTRA.norm>
0.0231614

>  <SCORE.RESTR>
0.0137777

>  <SCORE.RESTR.CAVITY>
0.0137777

>  <SCORE.RESTR.norm>
0.000510286

>  <SCORE.SYSTEM>
0

>  <SCORE.SYSTEM.CONST>
0

>  <SCORE.SYSTEM.DIHEDRAL>
0

>  <SCORE.SYSTEM.SOLV>
0

>  <SCORE.SYSTEM.norm>
0

>  <SCORE.heavy>
27

>  <SCORE.norm>
-0.317347

>  <RMSD>
4.804

$$$$
ligand
 OpenBabel02271912153D
libRbt.so/2013.1/901 2013/11/27
 27 29  0  0  0  0  0  0  0  0999 V2000
   13.9317    7.4849   32.0646 N   0  0  0  0  0  0  0  0  0  0  0  0
   14.1571    8.1340   30.7507 C   0  0  2  0  0  0  0  0  0  0  0  0
   12.8022    8.5695   30.2076 C   0  0  0  0  0  0  0  0  0  0  0  0
   12.5442    8.9164   29.0074 O   0  0  0  0  0  0  0  0  0  0  0  0
   14.8892    7.1504   29.8352 C   0  0  0  0  0  0  0  0  0  0  0  0
   14.1353    5.8394   29.6562 C   0  0  0  0  0  0  0  0  0  0  0  0
   14.7303    4.4741   28.5891 S   0  0  2  0  0  0  0  0  0  0  0  0
   14.2803    5.1587   26.9955 C   0  0  0  0  0  0  0  0  0  0  0  0
   13.4010    3.2783   28.9347 C   0  0  0  0  0  0  0  0  0  0  0  0
   13.6279    2.5606   30.2368 C   0  0  1  0  0  0  0  0  0  0  0  0
   14.9110    1.8912   30.2855 O   0  0  0  0  0  0  0  0  0  0  0  0
   13.5480    3.4486   31.4575 C   0  0  1  0  0  0  0  0  0  0  0  0
   12.3044    3.3188   31.9952 O   0  0  0  0  0  0  0  0  0  0  0  0
   14.5097    2.7306   32.3753 C   0  0  1  0  0  0  0  0  0  0  0  0
   13.7935    1.7237   32.9398 O   0  0  0  0  0  0  0  0  0  0  0  0
   15.6111    2.1242   31.4779 C   0  0  2  0  0  0  0  0  0  0  0  0
   11.8887    8.6419   31.0314 O   0  0  0  0  0  0  0  0  0  0  0  0
   18.0178    6.4013   33.2352 N   0  0  0  0  0  0  0  0  0  0  0  0
   17.2051    5.3979   33.8622 C   0  0  0  0  0  0  0  0  0  0  0  0
   16.6080    4.2609   33.2634 N   0  0  0  0  0  0  0  0  0  0  0  0
   16.8864    4.1926   32.0218 C   0  0  0  0  0  0  0  0  0  0  0  0
   17.7175    5.1707   31.2849 C   0  0  0  0  0  0  0  0  0  0  0  0
   18.2519    6.2413   31.8868 C   0  0  0  0  0  0  0  0  0  0  0  0
   18.9533    7.0421   31.1111 N   0  0  0  0  0  0  0  0  0  0  0  0
   17.8521    4.8923   30.0103 N   0  0  0  0  0  0  0  0  0  0  0  0
   17.1062    3.7296   29.9496 C   0  0  0  0  0  0  0  0  0  0  0  0
   16.5054    3.2794   31.1951 N   0  0  0  0  0  0  0  0  0  0  0  0
  2  1  1  1  0  0  0
  2  3  1  0  0  0  0
  2  5  1  0  0  0  0
  3  4  1  0  0  0  0
  3 17  1  0  0  0  0
  5  6  1  0  0  0  0
  7  6  1  1  0  0  0
  7  8  1  0  0  0  0
  7  9  1  0  0  0  0
 10  9  1  6  0  0  0
 10 11  1  0  0  0  0
 10 12  1  0  0  0  0
 11 16  1  0  0  0  0
 12 13  1  1  0  0  0
 12 14  1  0  0  0  0
 14 15  1  6  0  0  0
 14 16  1  0  0  0  0
 16 27  1  6  0  0  0
 18 19  2  0  0  0  0
 18 23  1  0  0  0  0
 19 20  1  0  0  0  0
 20 21  2  0  0  0  0
 21 22  1  0  0  0  0
 21 27  1  0  0  0  0
 22 23  2  0  0  0  0
 22 25  1  0  0  0  0
 23 24  1  0  0  0  0
 25 26  2  0  0  0  0
 26 27  1  0  0  0  0
M  END
>  <CHROM.1>
-165.04361924,57.25192907,178.51956898,-77.16970428,-80.50753737,-56.21064805
147.74700577,15.08017525,5.00967302,30.81129803,-2.18046548,0.47882665,3.03136652

>  <Name>
ligand

>  <RI>
0

>  <Rbt.Current_Directory>
/home/itssahil/PROJECTS/Mol_Feturizer/Test_systems_manuscript/rnas/4aob

>  <Rbt.Executable>
rbdock ($Id: //depot/dev/client3/rdock/2013.1/src/exe/rbdock.cxx#4 $)

>  <Rbt.Library>
libRbt.so (2013.1, Build901 2013/11/27)

>  <Rbt.Parameter_File>
/export/apps/rDock/src/rDock_2013.1_src/data/scripts/dock_solv.prm

>  <Rbt.Receptor>
prm/pocket_docking_5.prm

>  <SCORE>
-10.2176

>  <SCORE.INTER>
-9.66819

>  <SCORE.INTER.CONST>
1

>  <SCORE.INTER.POLAR>
0

>  <SCORE.INTER.ROT>
7

>  <SCORE.INTER.SOLV>
7.77412

>  <SCORE.INTER.VDW>
-17.3035

>  <SCORE.INTER.norm>
-0.358081

>  <SCORE.INTRA>
-0.549436

>  <SCORE.INTRA.DIHEDRAL>
-2.46675

>  <SCORE.INTRA.DIHEDRAL.0>
6.31833

>  <SCORE.INTRA.POLAR>
0

>  <SCORE.INTRA.POLAR.0>
0

>  <SCORE.INTRA.REPUL>
0

>  <SCORE.INTRA.REPUL.0>
0

>  <SCORE.INTRA.SOLV>
1.2024

>  <SCORE.INTRA.SOLV.lig_0>
-48.4015

>  <SCORE.INTRA.VDW>
0.0827401

>  <SCORE.INTRA.VDW.0>
-2.83256

>  <SCORE.INTRA.norm>
-0.0203495

>  <SCORE.RESTR>
0

>  <SCORE.RESTR.CAVITY>
0

>  <SCORE.RESTR.norm>
0

>  <SCORE.SYSTEM>
0

>  <SCORE.SYSTEM.CONST>
0

>  <SCORE.SYSTEM.DIHEDRAL>
0

>  <SCORE.SYSTEM.SOLV>
0

>  <SCORE.SYSTEM.norm>
0

>  <SCORE.heavy>
27

>  <SCORE.norm>
-0.37843

>  <RMSD>
4.811

$$$$
ligand
 OpenBabel02271912153D
libRbt.so/2013.1/901 2013/11/27
 27 29  0  0  0  0  0  0  0  0999 V2000
   12.6333    7.8696   24.9645 N   0  0  0  0  0  0  0  0  0  0  0  0
   13.8007    6.9629   24.8479 C   0  0  2  0  0  0  0  0  0  0  0  0
   14.0112    6.6622   23.3695 C   0  0  0  0  0  0  0  0  0  0  0  0
   13.6515    5.6043   22.7539 O   0  0  0  0  0  0  0  0  0  0  0  0
   13.5381    5.7121   25.6893 C   0  0  0  0  0  0  0  0  0  0  0  0
   13.2690    6.0329   27.1535 C   0  0  0  0  0  0  0  0  0  0  0  0
   12.7770    4.7701   28.3863 S   0  0  2  0  0  0  0  0  0  0  0  0
   12.5516    5.8453   29.8019 C   0  0  0  0  0  0  0  0  0  0  0  0
   14.4169    4.0290   28.6654 C   0  0  0  0  0  0  0  0  0  0  0  0
   14.3523    2.9021   29.6593 C   0  0  1  0  0  0  0  0  0  0  0  0
   15.6249    2.2302   29.8203 O   0  0  0  0  0  0  0  0  0  0  0  0
   13.8956    3.3165   31.0395 C   0  0  1  0  0  0  0  0  0  0  0  0
   12.5684    3.0355   31.1488 O   0  0  0  0  0  0  0  0  0  0  0  0
   14.6381    2.3064   31.8826 C   0  0  1  0  0  0  0  0  0  0  0  0
   13.8762    1.1819   31.8613 O   0  0  0  0  0  0  0  0  0  0  0  0
   15.9749    2.0234   31.1622 C   0  0  2  0  0  0  0  0  0  0  0  0
   14.6403    7.5079   22.7312 O   0  0  0  0  0  0  0  0  0  0  0  0
   19.1849    5.8382   29.6397 N   0  0  0  0  0  0  0  0  0  0  0  0
   18.4290    4.8433   28.9331 C   0  0  0  0  0  0  0  0  0  0  0  0
   17.5726    3.8525   29.4742 N   0  0  0  0  0  0  0  0  0  0  0  0
   17.5165    3.9338   30.7446 C   0  0  0  0  0  0  0  0  0  0  0  0
   18.2510    4.9241   31.5634 C   0  0  0  0  0  0  0  0  0  0  0  0
   19.0629    5.8357   31.0122 C   0  0  0  0  0  0  0  0  0  0  0  0
   19.6707    6.6440   31.8561 N   0  0  0  0  0  0  0  0  0  0  0  0
   18.0409    4.8009   32.8522 N   0  0  0  0  0  0  0  0  0  0  0  0
   17.1648    3.7311   32.8403 C   0  0  0  0  0  0  0  0  0  0  0  0
   16.8249    3.1864   31.5356 N   0  0  0  0  0  0  0  0  0  0  0  0
  2  1  1  6  0  0  0
  2  3  1  0  0  0  0
  2  5  1  0  0  0  0
  3  4  1  0  0  0  0
  3 17  1  0  0  0  0
  5  6  1  0  0  0  0
  7  6  1  6  0  0  0
  7  8  1  0  0  0  0
  7  9  1  0  0  0  0
 10  9  1  6  0  0  0
 10 11  1  0  0  0  0
 10 12  1  0  0  0  0
 11 16  1  0  0  0  0
 12 13  1  6  0  0  0
 12 14  1  0  0  0  0
 14 15  1  6  0  0  0
 14 16  1  0  0  0  0
 16 27  1  1  0  0  0
 18 19  2  0  0  0  0
 18 23  1  0  0  0  0
 19 20  1  0  0  0  0
 20 21  2  0  0  0  0
 21 22  1  0  0  0  0
 21 27  1  0  0  0  0
 22 23  2  0  0  0  0
 22 25  1  0  0  0  0
 23 24  1  0  0  0  0
 25 26  2  0  0  0  0
 26 27  1  0  0  0  0
M  END
>  <CHROM.1>
-100.64791532,-57.59443697,174.49507400,-176.95910737,-179.39635653,175.53554985
-23.99390095,15.26321955,4.64525355,28.99312601,-2.02008498,0.36377887,2.11230820

>  <Name>
ligand

>  <RI>
0

>  <Rbt.Current_Directory>
/home/itssahil/PROJECTS/Mol_Feturizer/Test_systems_manuscript/rnas/4aob

>  <Rbt.Executable>
rbdock ($Id: //depot/dev/client3/rdock/2013.1/src/exe/rbdock.cxx#4 $)

>  <Rbt.Library>
libRbt.so (2013.1, Build901 2013/11/27)

>  <Rbt.Parameter_File>
/export/apps/rDock/src/rDock_2013.1_src/data/scripts/dock_solv.prm

>  <Rbt.Receptor>
prm/pocket_docking_7.prm

>  <SCORE>
-13.1129

>  <SCORE.INTER>
-13.1566

>  <SCORE.INTER.CONST>
1

>  <SCORE.INTER.POLAR>
0

>  <SCORE.INTER.ROT>
7

>  <SCORE.INTER.SOLV>
8.70094

>  <SCORE.INTER.VDW>
-19.938

>  <SCORE.INTER.norm>
-0.48728

>  <SCORE.INTRA>
0.0436588

>  <SCORE.INTRA.DIHEDRAL>
-2.37533

>  <SCORE.INTRA.DIHEDRAL.0>
6.31833

>  <SCORE.INTRA.POLAR>
0

>  <SCORE.INTRA.POLAR.0>
0

>  <SCORE.INTRA.REPUL>
0

>  <SCORE.INTRA.REPUL.0>
0

>  <SCORE.INTRA.SOLV>
0.284468

>  <SCORE.INTRA.SOLV.lig_0>
-48.4015

>  <SCORE.INTRA.VDW>
1.08909

>  <SCORE.INTRA.VDW.0>
-2.83256

>  <SCORE.INTRA.norm>
0.00161699

>  <SCORE.RESTR>
0

>  <SCORE.RESTR.CAVITY>
0

>  <SCORE.RESTR.norm>
0

>  <SCORE.SYSTEM>
0

>  <SCORE.SYSTEM.CONST>
0

>  <SCORE.SYSTEM.DIHEDRAL>
0

>  <SCORE.SYSTEM.SOLV>
0

>  <SCORE.SYSTEM.norm>
0

>  <SCORE.heavy>
27

>  <SCORE.norm>
-0.485663

>  <RMSD>
4.839

$$$$
ligand
 OpenBabel02271912153D
libRbt.so/2013.1/901 2013/11/27
 27 29  0  0  0  0  0  0  0  0999 V2000
   12.6693    3.0075   30.8845 N   0  0  0  0  0  0  0  0  0  0  0  0
   13.9410    2.8949   31.6384 C   0  0  2  0  0  0  0  0  0  0  0  0
   14.6403    1.6199   31.1848 C   0  0  0  0  0  0  0  0  0  0  0  0
   14.1487    0.4428   31.1949 O   0  0  0  0  0  0  0  0  0  0  0  0
   13.6284    2.9146   33.1362 C   0  0  0  0  0  0  0  0  0  0  0  0
   13.0334    4.2387   33.5964 C   0  0  0  0  0  0  0  0  0  0  0  0
   13.7292    5.8693   33.1342 S   0  0  2  0  0  0  0  0  0  0  0  0
   12.9181    6.8733   34.3770 C   0  0  0  0  0  0  0  0  0  0  0  0
   12.7378    6.1572   31.6341 C   0  0  0  0  0  0  0  0  0  0  0  0
   13.0883    7.4668   30.9828 C   0  0  1  0  0  0  0  0  0  0  0  0
   14.4671    7.5166   30.5431 O   0  0  0  0  0  0  0  0  0  0  0  0
   12.2319    7.8145   29.7866 C   0  0  1  0  0  0  0  0  0  0  0  0
   11.2569    8.6704   30.1980 O   0  0  0  0  0  0  0  0  0  0  0  0
   13.2196    8.6184   28.9738 C   0  0  1  0  0  0  0  0  0  0  0  0
   13.1811    9.8745   29.4899 O   0  0  0  0  0  0  0  0  0  0  0  0
   14.6136    8.0075   29.2378 C   0  0  2  0  0  0  0  0  0  0  0  0
   15.8131    1.7455   30.8280 O   0  0  0  0  0  0  0  0  0  0  0  0
   16.6322    3.3126   28.2092 N   0  0  0  0  0  0  0  0  0  0  0  0
   16.8185    4.2551   29.2758 C   0  0  0  0  0  0  0  0  0  0  0  0
   16.1913    5.5144   29.4451 N   0  0  0  0  0  0  0  0  0  0  0  0
   15.3719    5.7536   28.4990 C   0  0  0  0  0  0  0  0  0  0  0  0
   15.1050    4.8471   27.3599 C   0  0  0  0  0  0  0  0  0  0  0  0
   15.7313    3.6703   27.2300 C   0  0  0  0  0  0  0  0  0  0  0  0
   15.4157    2.9704   26.1597 N   0  0  0  0  0  0  0  0  0  0  0  0
   14.2282    5.3189   26.5062 N   0  0  0  0  0  0  0  0  0  0  0  0
   13.9394    6.5252   27.1173 C   0  0  0  0  0  0  0  0  0  0  0  0
   14.6388    6.8053   28.3611 N   0  0  0  0  0  0  0  0  0  0  0  0
  2  1  1  6  0  0  0
  2  3  1  0  0  0  0
  2  5  1  0  0  0  0
  3  4  1  0  0  0  0
  3 17  1  0  0  0  0
  5  6  1  0  0  0  0
  7  6  1  1  0  0  0
  7  8  1  0  0  0  0
  7  9  1  0  0  0  0
 10  9  1  6  0  0  0
 10 11  1  0  0  0  0
 10 12  1  0  0  0  0
 11 16  1  0  0  0  0
 12 13  1  1  0  0  0
 12 14  1  0  0  0  0
 14 15  1  1  0  0  0
 14 16  1  0  0  0  0
 16 27  1  6  0  0  0
 18 19  2  0  0  0  0
 18 23  1  0  0  0  0
 19 20  1  0  0  0  0
 20 21  2  0  0  0  0
 21 22  1  0  0  0  0
 21 27  1  0  0  0  0
 22 23  2  0  0  0  0
 22 25  1  0  0  0  0
 23 24  1  0  0  0  0
 25 26  2  0  0  0  0
 26 27  1  0  0  0  0
M  END
>  <CHROM.1>
-55.16729362,-64.79557509,-47.00344171,-163.09855386,-179.66583841,61.96591020
-50.51270278,14.14057272,5.33031777,30.17810312,0.73458623,-1.11743610,2.41047727

>  <Name>
ligand

>  <RI>
0

>  <Rbt.Current_Directory>
/home/itssahil/PROJECTS/Mol_Feturizer/Test_systems_manuscript/rnas/4aob

>  <Rbt.Executable>
rbdock ($Id: //depot/dev/client3/rdock/2013.1/src/exe/rbdock.cxx#4 $)

>  <Rbt.Library>
libRbt.so (2013.1, Build901 2013/11/27)

>  <Rbt.Parameter_File>
/export/apps/rDock/src/rDock_2013.1_src/data/scripts/dock_solv.prm

>  <Rbt.Receptor>
prm/pocket_docking_3.prm

>  <SCORE>
-9.47412

>  <SCORE.INTER>
-8.55723

>  <SCORE.INTER.CONST>
1

>  <SCORE.INTER.POLAR>
0

>  <SCORE.INTER.ROT>
7

>  <SCORE.INTER.SOLV>
21.328

>  <SCORE.INTER.VDW>
-21.0808

>  <SCORE.INTER.norm>
-0.316935

>  <SCORE.INTRA>
-0.916884

>  <SCORE.INTRA.DIHEDRAL>
-0.748057

>  <SCORE.INTRA.DIHEDRAL.0>
6.31833

>  <SCORE.INTRA.POLAR>
0

>  <SCORE.INTRA.POLAR.0>
0

>  <SCORE.INTRA.REPUL>
0

>  <SCORE.INTRA.REPUL.0>
0

>  <SCORE.INTRA.SOLV>
1.65676

>  <SCORE.INTRA.SOLV.lig_0>
-48.4015

>  <SCORE.INTRA.VDW>
-1.37124

>  <SCORE.INTRA.VDW.0>
-2.83256

>  <SCORE.INTRA.norm>
-0.0339587

>  <SCORE.RESTR>
0

>  <SCORE.RESTR.CAVITY>
0

>  <SCORE.RESTR.norm>
0

>  <SCORE.SYSTEM>
0

>  <SCORE.SYSTEM.CONST>
0

>  <SCORE.SYSTEM.DIHEDRAL>
0

>  <SCORE.SYSTEM.SOLV>
0

>  <SCORE.SYSTEM.norm>
0

>  <SCORE.heavy>
27

>  <SCORE.norm>
-0.350893

>  <RMSD>
4.856

$$$$
ligand
 OpenBabel02271912153D
libRbt.so/2013.1/901 2013/11/27
 27 29  0  0  0  0  0  0  0  0999 V2000
   15.2845    4.9858   27.3344 N   0  0  0  0  0  0  0  0  0  0  0  0
   13.8838    4.6709   26.9641 C   0  0  2  0  0  0  0  0  0  0  0  0
   13.4790    5.6074   25.8330 C   0  0  0  0  0  0  0  0  0  0  0  0
   12.3671    6.2228   25.7215 O   0  0  0  0  0  0  0  0  0  0  0  0
   13.0034    4.8073   28.2082 C   0  0  0  0  0  0  0  0  0  0  0  0
   12.9343    6.2375   28.7270 C   0  0  0  0  0  0  0  0  0  0  0  0
   12.4772    6.6620   30.4496 S   0  0  2  0  0  0  0  0  0  0  0  0
   12.4355    8.4460   30.2881 C   0  0  0  0  0  0  0  0  0  0  0  0
   14.0894    6.3382   31.2319 C   0  0  0  0  0  0  0  0  0  0  0  0
   14.0609    6.6445   32.7041 C   0  0  1  0  0  0  0  0  0  0  0  0
   15.0623    5.9054   33.4443 O   0  0  0  0  0  0  0  0  0  0  0  0
   14.2556    8.1057   33.0384 C   0  0  1  0  0  0  0  0  0  0  0  0
   13.0299    8.6597   33.2467 O   0  0  0  0  0  0  0  0  0  0  0  0
   14.9274    7.9857   34.3863 C   0  0  1  0  0  0  0  0  0  0  0  0
   13.9210    7.8137   35.2824 O   0  0  0  0  0  0  0  0  0  0  0  0
   15.7871    6.7031   34.3414 C   0  0  2  0  0  0  0  0  0  0  0  0
   14.2932    5.7295   24.9161 O   0  0  0  0  0  0  0  0  0  0  0  0
   20.2969    9.3176   34.3563 N   0  0  0  0  0  0  0  0  0  0  0  0
   19.3101    9.0459   35.3627 C   0  0  0  0  0  0  0  0  0  0  0  0
   18.1116    8.3016   35.2294 N   0  0  0  0  0  0  0  0  0  0  0  0
   17.9793    7.8466   34.0465 C   0  0  0  0  0  0  0  0  0  0  0  0
   18.9402    8.0654   32.9423 C   0  0  0  0  0  0  0  0  0  0  0  0
   20.0555    8.7886   33.1072 C   0  0  0  0  0  0  0  0  0  0  0  0
   20.8133    8.9217   32.0381 N   0  0  0  0  0  0  0  0  0  0  0  0
   18.5793    7.5062   31.8121 N   0  0  0  0  0  0  0  0  0  0  0  0
   17.3884    6.9285   32.2123 C   0  0  0  0  0  0  0  0  0  0  0  0
   17.0066    7.1267   33.6014 N   0  0  0  0  0  0  0  0  0  0  0  0
  2  1  1  1  0  0  0
  2  3  1  0  0  0  0
  2  5  1  0  0  0  0
  3  4  1  0  0  0  0
  3 17  1  0  0  0  0
  5  6  1  0  0  0  0
  7  6  1  6  0  0  0
  7  8  1  0  0  0  0
  7  9  1  0  0  0  0
 10  9  1  6  0  0  0
 10 11  1  0  0  0  0
 10 12  1  0  0  0  0
 11 16  1  0  0  0  0
 12 13  1  1  0  0  0
 12 14  1  0  0  0  0
 14 15  1  1  0  0  0
 14 16  1  0  0  0  0
 16 27  1  6  0  0  0
 18 19  2  0  0  0  0
 18 23  1  0  0  0  0
 19 20  1  0  0  0  0
 20 21  2  0  0  0  0
 21 22  1  0  0  0  0
 21 27  1  0  0  0  0
 22 23  2  0  0  0  0
 22 25  1  0  0  0  0
 23 24  1  0  0  0  0
 25 26  2  0  0  0  0
 26 27  1  0  0  0  0
M  END
>  <CHROM.1>
-137.08482743,65.21478233,-158.34485558,-174.36951074,178.20178323,155.51279898
-178.15201646,15.43518704,7.12187433,31.40164684,-2.18341569,0.13021704,1.31323033

>  <Name>
ligand

>  <RI>
0

>  <Rbt.Current_Directory>
/home/itssahil/PROJECTS/Mol_Feturizer/Test_systems_manuscript/rnas/4aob

>  <Rbt.Executable>
rbdock ($Id: //depot/dev/client3/rdock/2013.1/src/exe/rbdock.cxx#4 $)

>  <Rbt.Library>
libRbt.so (2013.1, Build901 2013/11/27)

>  <Rbt.Parameter_File>
/export/apps/rDock/src/rDock_2013.1_src/data/scripts/dock_solv.prm

>  <Rbt.Receptor>
prm/pocket_docking_8.prm

>  <SCORE>
-8.38136

>  <SCORE.INTER>
-9.72745

>  <SCORE.INTER.CONST>
1

>  <SCORE.INTER.POLAR>
0

>  <SCORE.INTER.ROT>
7

>  <SCORE.INTER.SOLV>
7.69667

>  <SCORE.INTER.VDW>
-17.3172

>  <SCORE.INTER.norm>
-0.360276

>  <SCORE.INTRA>
1.34608

>  <SCORE.INTRA.DIHEDRAL>
0.943997

>  <SCORE.INTRA.DIHEDRAL.0>
6.31833

>  <SCORE.INTRA.POLAR>
0

>  <SCORE.INTRA.POLAR.0>
0

>  <SCORE.INTRA.REPUL>
0

>  <SCORE.INTRA.REPUL.0>
0

>  <SCORE.INTRA.SOLV>
0.498461

>  <SCORE.INTRA.SOLV.lig_0>
-48.4015

>  <SCORE.INTRA.VDW>
0.624856

>  <SCORE.INTRA.VDW.0>
-2.83256

>  <SCORE.INTRA.norm>
0.049855

>  <SCORE.RESTR>
0

>  <SCORE.RESTR.CAVITY>
0

>  <SCORE.RESTR.norm>
0

>  <SCORE.SYSTEM>
0

>  <SCORE.SYSTEM.CONST>
0

>  <SCORE.SYSTEM.DIHEDRAL>
0

>  <SCORE.SYSTEM.SOLV>
0

>  <SCORE.SYSTEM.norm>
0

>  <SCORE.heavy>
27

>  <SCORE.norm>
-0.310421

>  <RMSD>
4.856

$$$$
ligand
 OpenBabel02271912153D
libRbt.so/2013.1/901 2013/11/27
 27 29  0  0  0  0  0  0  0  0999 V2000
   12.5995    7.8682   26.0985 N   0  0  0  0  0  0  0  0  0  0  0  0
   11.1828    7.7377   26.5159 C   0  0  2  0  0  0  0  0  0  0  0  0
   10.7230    9.0942   27.0343 C   0  0  0  0  0  0  0  0  0  0  0  0
    9.6603    9.7132   26.6953 O   0  0  0  0  0  0  0  0  0  0  0  0
   11.0778    6.6230   27.5589 C   0  0  0  0  0  0  0  0  0  0  0  0
   11.9073    6.9022   28.8051 C   0  0  0  0  0  0  0  0  0  0  0  0
   12.0846    5.7091   30.1840 S   0  0  2  0  0  0  0  0  0  0  0  0
   13.0064    6.7425   31.3211 C   0  0  0  0  0  0  0  0  0  0  0  0
   13.3601    4.6430   29.4407 C   0  0  0  0  0  0  0  0  0  0  0  0
   13.4652    3.3249   30.1572 C   0  0  1  0  0  0  0  0  0  0  0  0
   14.6485    2.5804   29.7795 O   0  0  0  0  0  0  0  0  0  0  0  0
   13.4779    3.4366   31.6646 C   0  0  1  0  0  0  0  0  0  0  0  0
   12.2176    3.1948   32.1181 O   0  0  0  0  0  0  0  0  0  0  0  0
   14.3189    2.2318   32.0162 C   0  0  1  0  0  0  0  0  0  0  0  0
   13.4661    1.1744   32.0038 O   0  0  0  0  0  0  0  0  0  0  0  0
   15.3491    2.0618   30.8778 C   0  0  2  0  0  0  0  0  0  0  0  0
   11.4896    9.6616   27.8146 O   0  0  0  0  0  0  0  0  0  0  0  0
   19.0877    5.2679   29.1694 N   0  0  0  0  0  0  0  0  0  0  0  0
   18.1529    4.4012   28.5094 C   0  0  0  0  0  0  0  0  0  0  0  0
   17.1649    3.5745   29.0995 N   0  0  0  0  0  0  0  0  0  0  0  0
   17.1689    3.6836   30.3690 C   0  0  0  0  0  0  0  0  0  0  0  0
   18.0859    4.5510   31.1419 C   0  0  0  0  0  0  0  0  0  0  0  0
   19.0166    5.3068   30.5449 C   0  0  0  0  0  0  0  0  0  0  0  0
   19.7797    6.0162   31.3509 N   0  0  0  0  0  0  0  0  0  0  0  0
   17.9050    4.4843   32.4392 N   0  0  0  0  0  0  0  0  0  0  0  0
   16.8645    3.5745   32.4790 C   0  0  0  0  0  0  0  0  0  0  0  0
   16.3924    3.0735   31.1981 N   0  0  0  0  0  0  0  0  0  0  0  0
  2  1  1  1  0  0  0
  2  3  1  0  0  0  0
  2  5  1  0  0  0  0
  3  4  1  0  0  0  0
  3 17  1  0  0  0  0
  5  6  1  0  0  0  0
  7  6  1  6  0  0  0
  7  8  1  0  0  0  0
  7  9  1  0  0  0  0
 10  9  1  6  0  0  0
 10 11  1  0  0  0  0
 10 12  1  0  0  0  0
 11 16  1  0  0  0  0
 12 13  1  1  0  0  0
 12 14  1  0  0  0  0
 14 15  1  6  0  0  0
 14 16  1  0  0  0  0
 16 27  1  1  0  0  0
 18 19  2  0  0  0  0
 18 23  1  0  0  0  0
 19 20  1  0  0  0  0
 20 21  2  0  0  0  0
 21 22  1  0  0  0  0
 21 27  1  0  0  0  0
 22 23  2  0  0  0  0
 22 25  1  0  0  0  0
 23 24  1  0  0  0  0
 25 26  2  0  0  0  0
 26 27  1  0  0  0  0
M  END
>  <CHROM.1>
130.42897719,60.45001329,-175.61102863,-174.30498973,-163.79024772,-167.59087293
-45.27509208,14.35038214,5.11547803,29.87050648,-2.38831490,0.03530514,2.51550194

>  <Name>
ligand

>  <RI>
0

>  <Rbt.Current_Directory>
/home/itssahil/PROJECTS/Mol_Feturizer/Test_systems_manuscript/rnas/4aob

>  <Rbt.Executable>
rbdock ($Id: //depot/dev/client3/rdock/2013.1/src/exe/rbdock.cxx#4 $)

>  <Rbt.Library>
libRbt.so (2013.1, Build901 2013/11/27)

>  <Rbt.Parameter_File>
/export/apps/rDock/src/rDock_2013.1_src/data/scripts/dock_solv.prm

>  <Rbt.Receptor>
prm/pocket_docking_6.prm

>  <SCORE>
-13.9709

>  <SCORE.INTER>
-14.7316

>  <SCORE.INTER.CONST>
1

>  <SCORE.INTER.POLAR>
0

>  <SCORE.INTER.ROT>
7

>  <SCORE.INTER.SOLV>
9.88962

>  <SCORE.INTER.VDW>
-21.3843

>  <SCORE.INTER.norm>
-0.545615

>  <SCORE.INTRA>
0.760708

>  <SCORE.INTRA.DIHEDRAL>
-0.479561

>  <SCORE.INTRA.DIHEDRAL.0>
6.31833

>  <SCORE.INTRA.POLAR>
0

>  <SCORE.INTRA.POLAR.0>
0

>  <SCORE.INTRA.REPUL>
0

>  <SCORE.INTRA.REPUL.0>
0

>  <SCORE.INTRA.SOLV>
0.2458

>  <SCORE.INTRA.SOLV.lig_0>
-48.4015

>  <SCORE.INTRA.VDW>
0.877588

>  <SCORE.INTRA.VDW.0>
-2.83256

>  <SCORE.INTRA.norm>
0.0281744

>  <SCORE.RESTR>
0

>  <SCORE.RESTR.CAVITY>
0

>  <SCORE.RESTR.norm>
0

>  <SCORE.SYSTEM>
0

>  <SCORE.SYSTEM.CONST>
0

>  <SCORE.SYSTEM.DIHEDRAL>
0

>  <SCORE.SYSTEM.SOLV>
0

>  <SCORE.SYSTEM.norm>
0

>  <SCORE.heavy>
27

>  <SCORE.norm>
-0.51744

>  <RMSD>
4.873

$$$$
ligand
 OpenBabel02271912153D
libRbt.so/2013.1/901 2013/11/27
 27 29  0  0  0  0  0  0  0  0999 V2000
   11.4544    9.0094   28.9376 N   0  0  0  0  0  0  0  0  0  0  0  0
   11.5596    7.5583   29.2236 C   0  0  2  0  0  0  0  0  0  0  0  0
   12.3526    7.3941   30.5138 C   0  0  0  0  0  0  0  0  0  0  0  0
   12.0878    6.5889   31.4673 O   0  0  0  0  0  0  0  0  0  0  0  0
   12.2067    6.8657   28.0223 C   0  0  0  0  0  0  0  0  0  0  0  0
   12.5657    5.4126   28.3031 C   0  0  0  0  0  0  0  0  0  0  0  0
   13.7630    4.9032   29.5929 S   0  0  2  0  0  0  0  0  0  0  0  0
   15.1925    5.8141   29.0119 C   0  0  0  0  0  0  0  0  0  0  0  0
   14.0670    3.2059   29.0071 C   0  0  0  0  0  0  0  0  0  0  0  0
   14.5771    2.3228   30.1124 C   0  0  1  0  0  0  0  0  0  0  0  0
   15.8393    2.7828   30.6529 O   0  0  0  0  0  0  0  0  0  0  0  0
   13.6266    2.1753   31.2785 C   0  0  1  0  0  0  0  0  0  0  0  0
   12.9437    1.0082   31.1236 O   0  0  0  0  0  0  0  0  0  0  0  0
   14.6127    1.9709   32.4047 C   0  0  1  0  0  0  0  0  0  0  0  0
   14.9346    0.6515   32.3738 O   0  0  0  0  0  0  0  0  0  0  0  0
   15.8656    2.8039   32.0546 C   0  0  2  0  0  0  0  0  0  0  0  0
   13.3078    8.1585   30.6610 O   0  0  0  0  0  0  0  0  0  0  0  0
   12.6136    5.9437   34.6511 N   0  0  0  0  0  0  0  0  0  0  0  0
   12.7315    4.5172   34.5417 C   0  0  0  0  0  0  0  0  0  0  0  0
   13.6820    3.7761   33.7966 N   0  0  0  0  0  0  0  0  0  0  0  0
   14.4974    4.5462   33.1918 C   0  0  0  0  0  0  0  0  0  0  0  0
   14.4639    6.0249   33.2447 C   0  0  0  0  0  0  0  0  0  0  0  0
   13.5382    6.6873   33.9505 C   0  0  0  0  0  0  0  0  0  0  0  0
   13.6101    8.0013   33.8958 N   0  0  0  0  0  0  0  0  0  0  0  0
   15.4012    6.5984   32.5285 N   0  0  0  0  0  0  0  0  0  0  0  0
   16.0293    5.4724   32.0291 C   0  0  0  0  0  0  0  0  0  0  0  0
   15.4815    4.1892   32.4391 N   0  0  0  0  0  0  0  0  0  0  0  0
  2  1  1  6  0  0  0
  2  3  1  0  0  0  0
  2  5  1  0  0  0  0
  3  4  1  0  0  0  0
  3 17  1  0  0  0  0
  5  6  1  0  0  0  0
  7  6  1  6  0  0  0
  7  8  1  0  0  0  0
  7  9  1  0  0  0  0
 10  9  1  6  0  0  0
 10 11  1  0  0  0  0
 10 12  1  0  0  0  0
 11 16  1  0  0  0  0
 12 13  1  6  0  0  0
 12 14  1  0  0  0  0
 14 15  1  6  0  0  0
 14 16  1  0  0  0  0
 16 27  1  6  0  0  0
 18 19  2  0  0  0  0
 18 23  1  0  0  0  0
 19 20  1  0  0  0  0
 20 21  2  0  0  0  0
 21 22  1  0  0  0  0
 21 27  1  0  0  0  0
 22 23  2  0  0  0  0
 22 25  1  0  0  0  0
 23 24  1  0  0  0  0
 25 26  2  0  0  0  0
 26 27  1  0  0  0  0
M  END
>  <CHROM.1>
137.55866663,170.69967062,-61.90753294,-57.80360686,-157.44589250,-61.37126770
122.46023795,13.80964750,4.94283317,31.30790786,3.04068197,-1.21102086,1.11793007

>  <Name>
ligand

>  <RI>
0

>  <Rbt.Current_Directory>
/home/itssahil/PROJECTS/Mol_Feturizer/Test_systems_manuscript/rnas/4aob

>  <Rbt.Executable>
rbdock ($Id: //depot/dev/client3/rdock/2013.1/src/exe/rbdock.cxx#4 $)

>  <Rbt.Library>
libRbt.so (2013.1, Build901 2013/11/27)

>  <Rbt.Parameter_File>
/export/apps/rDock/src/rDock_2013.1_src/data/scripts/dock_solv.prm

>  <Rbt.Receptor>
prm/pocket_docking_2.prm

>  <SCORE>
-6.07118

>  <SCORE.INTER>
-7.96041

>  <SCORE.INTER.CONST>
1

>  <SCORE.INTER.POLAR>
0

>  <SCORE.INTER.ROT>
7

>  <SCORE.INTER.SOLV>
15.66

>  <SCORE.INTER.VDW>
-18.7936

>  <SCORE.INTER.norm>
-0.29483

>  <SCORE.INTRA>
1.58144

>  <SCORE.INTRA.DIHEDRAL>
-0.107153

>  <SCORE.INTRA.DIHEDRAL.0>
6.31833

>  <SCORE.INTRA.POLAR>
0

>  <SCORE.INTRA.POLAR.0>
0

>  <SCORE.INTRA.REPUL>
0

>  <SCORE.INTRA.REPUL.0>
0

>  <SCORE.INTRA.SOLV>
1.37035

>  <SCORE.INTRA.SOLV.lig_0>
-48.4015

>  <SCORE.INTRA.VDW>
0.949844

>  <SCORE.INTRA.VDW.0>
-2.83256

>  <SCORE.INTRA.norm>
0.058572

>  <SCORE.RESTR>
0.307792

>  <SCORE.RESTR.CAVITY>
0.307792

>  <SCORE.RESTR.norm>
0.0113997

>  <SCORE.SYSTEM>
0

>  <SCORE.SYSTEM.CONST>
0

>  <SCORE.SYSTEM.DIHEDRAL>
0

>  <SCORE.SYSTEM.SOLV>
0

>  <SCORE.SYSTEM.norm>
0

>  <SCORE.heavy>
27

>  <SCORE.norm>
-0.224858

>  <RMSD>
4.878

$$$$
ligand
 OpenBabel02271912153D
libRbt.so/2013.1/901 2013/11/27
 27 29  0  0  0  0  0  0  0  0999 V2000
   12.5745    9.4751   25.0958 N   0  0  0  0  0  0  0  0  0  0  0  0
   12.9986   10.2711   26.2726 C   0  0  2  0  0  0  0  0  0  0  0  0
   14.3128    9.6906   26.7786 C   0  0  0  0  0  0  0  0  0  0  0  0
   14.7236    9.6883   27.9864 O   0  0  0  0  0  0  0  0  0  0  0  0
   11.8803   10.2398   27.3167 C   0  0  0  0  0  0  0  0  0  0  0  0
   11.4419    8.8244   27.6680 C   0  0  0  0  0  0  0  0  0  0  0  0
   12.5026    7.6390   28.5771 S   0  0  2  0  0  0  0  0  0  0  0  0
   11.3506    6.2708   28.6851 C   0  0  0  0  0  0  0  0  0  0  0  0
   12.4054    8.4143   30.2219 C   0  0  0  0  0  0  0  0  0  0  0  0
   12.9004    7.4890   31.2993 C   0  0  1  0  0  0  0  0  0  0  0  0
   13.7443    6.4332   30.7797 O   0  0  0  0  0  0  0  0  0  0  0  0
   13.6799    8.1753   32.3977 C   0  0  1  0  0  0  0  0  0  0  0  0
   12.8370    8.3907   33.4444 O   0  0  0  0  0  0  0  0  0  0  0  0
   14.6166    7.0601   32.7994 C   0  0  1  0  0  0  0  0  0  0  0  0
   13.9086    6.2786   33.6558 O   0  0  0  0  0  0  0  0  0  0  0  0
   14.9231    6.2542   31.5177 C   0  0  2  0  0  0  0  0  0  0  0  0
   15.0665    9.2316   25.9186 O   0  0  0  0  0  0  0  0  0  0  0  0
   19.8174    6.6793   29.7740 N   0  0  0  0  0  0  0  0  0  0  0  0
   19.0806    5.6172   30.3983 C   0  0  0  0  0  0  0  0  0  0  0  0
   17.7289    5.6272   30.8235 N   0  0  0  0  0  0  0  0  0  0  0  0
   17.1740    6.7466   30.5732 C   0  0  0  0  0  0  0  0  0  0  0  0
   17.8436    7.8991   29.9299 C   0  0  0  0  0  0  0  0  0  0  0  0
   19.1289    7.8527   29.5560 C   0  0  0  0  0  0  0  0  0  0  0  0
   19.6061    8.9540   29.0135 N   0  0  0  0  0  0  0  0  0  0  0  0
   17.0675    8.9471   29.7890 N   0  0  0  0  0  0  0  0  0  0  0  0
   15.9033    8.4461   30.3416 C   0  0  0  0  0  0  0  0  0  0  0  0
   15.9536    7.0763   30.8273 N   0  0  0  0  0  0  0  0  0  0  0  0
  2  1  1  6  0  0  0
  2  3  1  0  0  0  0
  2  5  1  0  0  0  0
  3  4  1  0  0  0  0
  3 17  1  0  0  0  0
  5  6  1  0  0  0  0
  7  6  1  6  0  0  0
  7  8  1  0  0  0  0
  7  9  1  0  0  0  0
 10  9  1  6  0  0  0
 10 11  1  0  0  0  0
 10 12  1  0  0  0  0
 11 16  1  0  0  0  0
 12 13  1  1  0  0  0
 12 14  1  0  0  0  0
 14 15  1  1  0  0  0
 14 16  1  0  0  0  0
 16 27  1  6  0  0  0
 18 19  2  0  0  0  0
 18 23  1  0  0  0  0
 19 20  1  0  0  0  0
 20 21  2  0  0  0  0
 21 22  1  0  0  0  0
 21 27  1  0  0  0  0
 22 23  2  0  0  0  0
 22 25  1  0  0  0  0
 23 24  1  0  0  0  0
 25 26  2  0  0  0  0
 26 27  1  0  0  0  0
M  END
>  <CHROM.1>
-149.59376224,53.23785733,68.39891386,177.70010443,165.66381557,20.12050185
-137.20315718,14.80259401,7.90632989,29.63403000,-2.50829995,-0.08373410
1.99396321

>  <Name>
ligand

>  <RI>
0

>  <Rbt.Current_Directory>
/home/itssahil/PROJECTS/Mol_Feturizer/Test_systems_manuscript/rnas/4aob

>  <Rbt.Executable>
rbdock ($Id: //depot/dev/client3/rdock/2013.1/src/exe/rbdock.cxx#4 $)

>  <Rbt.Library>
libRbt.so (2013.1, Build901 2013/11/27)

>  <Rbt.Parameter_File>
/export/apps/rDock/src/rDock_2013.1_src/data/scripts/dock_solv.prm

>  <Rbt.Receptor>
prm/pocket_docking_6.prm

>  <SCORE>
-5.86476

>  <SCORE.INTER>
-6.62039

>  <SCORE.INTER.CONST>
1

>  <SCORE.INTER.POLAR>
0

>  <SCORE.INTER.ROT>
7

>  <SCORE.INTER.SOLV>
7.3894

>  <SCORE.INTER.VDW>
-15.1434

>  <SCORE.INTER.norm>
-0.2452

>  <SCORE.INTRA>
0.706082

>  <SCORE.INTRA.DIHEDRAL>
1.13064

>  <SCORE.INTRA.DIHEDRAL.0>
6.31833

>  <SCORE.INTRA.POLAR>
0

>  <SCORE.INTRA.POLAR.0>
0

>  <SCORE.INTRA.REPUL>
0

>  <SCORE.INTRA.REPUL.0>
0

>  <SCORE.INTRA.SOLV>
0.71702

>  <SCORE.INTRA.SOLV.lig_0>
-48.4015

>  <SCORE.INTRA.VDW>
-0.217747

>  <SCORE.INTRA.VDW.0>
-2.83256

>  <SCORE.INTRA.norm>
0.0261512

>  <SCORE.RESTR>
0.0495533

>  <SCORE.RESTR.CAVITY>
0.0495533

>  <SCORE.RESTR.norm>
0.00183531

>  <SCORE.SYSTEM>
0

>  <SCORE.SYSTEM.CONST>
0

>  <SCORE.SYSTEM.DIHEDRAL>
0

>  <SCORE.SYSTEM.SOLV>
0

>  <SCORE.SYSTEM.norm>
0

>  <SCORE.heavy>
27

>  <SCORE.norm>
-0.217213

>  <RMSD>
4.878

$$$$
ligand
 OpenBabel02271912153D
libRbt.so/2013.1/901 2013/11/27
 27 29  0  0  0  0  0  0  0  0999 V2000
   12.7732    9.3966   26.8732 N   0  0  0  0  0  0  0  0  0  0  0  0
   11.4629    8.7084   26.7847 C   0  0  2  0  0  0  0  0  0  0  0  0
   10.4137    9.7496   26.4168 C   0  0  0  0  0  0  0  0  0  0  0  0
   10.5024   11.0095   26.5967 O   0  0  0  0  0  0  0  0  0  0  0  0
   11.1827    8.0104   28.1174 C   0  0  0  0  0  0  0  0  0  0  0  0
   12.1209    6.8395   28.3777 C   0  0  0  0  0  0  0  0  0  0  0  0
   12.0578    5.8181   29.8973 S   0  0  2  0  0  0  0  0  0  0  0  0
   12.8124    6.9777   31.0360 C   0  0  0  0  0  0  0  0  0  0  0  0
   13.4116    4.6693   29.4928 C   0  0  0  0  0  0  0  0  0  0  0  0
   13.4324    3.4893   30.4251 C   0  0  1  0  0  0  0  0  0  0  0  0
   14.5616    2.6144   30.1880 O   0  0  0  0  0  0  0  0  0  0  0  0
   13.4603    3.8565   31.8912 C   0  0  1  0  0  0  0  0  0  0  0  0
   12.1890    3.7802   32.3713 O   0  0  0  0  0  0  0  0  0  0  0  0
   14.2211    2.6766   32.4492 C   0  0  1  0  0  0  0  0  0  0  0  0
   13.2998    1.6917   32.6127 O   0  0  0  0  0  0  0  0  0  0  0  0
   15.2319    2.2462   31.3633 C   0  0  2  0  0  0  0  0  0  0  0  0
    9.3596    9.3124   25.9519 O   0  0  0  0  0  0  0  0  0  0  0  0
   18.9885    5.0665   29.1031 N   0  0  0  0  0  0  0  0  0  0  0  0
   17.9697    4.1920   28.5954 C   0  0  0  0  0  0  0  0  0  0  0  0
   16.9876    3.4804   29.3282 N   0  0  0  0  0  0  0  0  0  0  0  0
   17.0860    3.7109   30.5776 C   0  0  0  0  0  0  0  0  0  0  0  0
   18.0950    4.5980   31.1985 C   0  0  0  0  0  0  0  0  0  0  0  0
   19.0162    5.2415   30.4696 C   0  0  0  0  0  0  0  0  0  0  0  0
   19.8666    5.9830   31.1492 N   0  0  0  0  0  0  0  0  0  0  0  0
   18.0028    4.6664   32.5050 N   0  0  0  0  0  0  0  0  0  0  0  0
   16.9258    3.8221   32.7033 C   0  0  0  0  0  0  0  0  0  0  0  0
   16.3417    3.2262   31.5123 N   0  0  0  0  0  0  0  0  0  0  0  0
  2  1  1  1  0  0  0
  2  3  1  0  0  0  0
  2  5  1  0  0  0  0
  3  4  1  0  0  0  0
  3 17  1  0  0  0  0
  5  6  1  0  0  0  0
  7  6  1  6  0  0  0
  7  8  1  0  0  0  0
  7  9  1  0  0  0  0
 10  9  1  6  0  0  0
 10 11  1  0  0  0  0
 10 12  1  0  0  0  0
 11 16  1  0  0  0  0
 12 13  1  1  0  0  0
 12 14  1  0  0  0  0
 14 15  1  6  0  0  0
 14 16  1  0  0  0  0
 16 27  1  1  0  0  0
 18 19  2  0  0  0  0
 18 23  1  0  0  0  0
 19 20  1  0  0  0  0
 20 21  2  0  0  0  0
 21 22  1  0  0  0  0
 21 27  1  0  0  0  0
 22 23  2  0  0  0  0
 22 25  1  0  0  0  0
 23 24  1  0  0  0  0
 25 26  2  0  0  0  0
 26 27  1  0  0  0  0
M  END
>  <CHROM.1>
-22.21786216,-68.35051082,179.04153368,-75.06377189,-167.55471177,-175.56195222
-39.42667357,14.27573629,5.41695762,29.90674861,-2.30719066,-0.00928444,2.47172652

>  <Name>
ligand

>  <RI>
0

>  <Rbt.Current_Directory>
/home/itssahil/PROJECTS/Mol_Feturizer/Test_systems_manuscript/rnas/4aob

>  <Rbt.Executable>
rbdock ($Id: //depot/dev/client3/rdock/2013.1/src/exe/rbdock.cxx#4 $)

>  <Rbt.Library>
libRbt.so (2013.1, Build901 2013/11/27)

>  <Rbt.Parameter_File>
/export/apps/rDock/src/rDock_2013.1_src/data/scripts/dock_solv.prm

>  <Rbt.Receptor>
prm/pocket_docking_6.prm

>  <SCORE>
-14.6739

>  <SCORE.INTER>
-14.3449

>  <SCORE.INTER.CONST>
1

>  <SCORE.INTER.POLAR>
0

>  <SCORE.INTER.ROT>
7

>  <SCORE.INTER.SOLV>
10.1352

>  <SCORE.INTER.VDW>
-21.2083

>  <SCORE.INTER.norm>
-0.531291

>  <SCORE.INTRA>
-0.329022

>  <SCORE.INTRA.DIHEDRAL>
-1.64214

>  <SCORE.INTRA.DIHEDRAL.0>
6.31833

>  <SCORE.INTRA.POLAR>
0

>  <SCORE.INTRA.POLAR.0>
0

>  <SCORE.INTRA.REPUL>
0

>  <SCORE.INTRA.REPUL.0>
0

>  <SCORE.INTRA.SOLV>
0.142938

>  <SCORE.INTRA.SOLV.lig_0>
-48.4015

>  <SCORE.INTRA.VDW>
0.420579

>  <SCORE.INTRA.VDW.0>
-2.83256

>  <SCORE.INTRA.norm>
-0.012186

>  <SCORE.RESTR>
0

>  <SCORE.RESTR.CAVITY>
0

>  <SCORE.RESTR.norm>
0

>  <SCORE.SYSTEM>
0

>  <SCORE.SYSTEM.CONST>
0

>  <SCORE.SYSTEM.DIHEDRAL>
0

>  <SCORE.SYSTEM.SOLV>
0

>  <SCORE.SYSTEM.norm>
0

>  <SCORE.heavy>
27

>  <SCORE.norm>
-0.543477

>  <RMSD>
4.879

$$$$
ligand
 OpenBabel02271912153D
libRbt.so/2013.1/901 2013/11/27
 27 29  0  0  0  0  0  0  0  0999 V2000
   11.1422    6.3918   26.6783 N   0  0  0  0  0  0  0  0  0  0  0  0
   12.2178    7.0526   25.9007 C   0  0  2  0  0  0  0  0  0  0  0  0
   11.5613    7.8457   24.7781 C   0  0  0  0  0  0  0  0  0  0  0  0
   10.5354    7.4967   24.1049 O   0  0  0  0  0  0  0  0  0  0  0  0
   13.1902    5.9830   25.3987 C   0  0  0  0  0  0  0  0  0  0  0  0
   14.0080    5.3572   26.5206 C   0  0  0  0  0  0  0  0  0  0  0  0
   13.2680    4.3712   27.8759 S   0  0  2  0  0  0  0  0  0  0  0  0
   12.8777    5.7083   29.0031 C   0  0  0  0  0  0  0  0  0  0  0  0
   14.8057    3.6708   28.5550 C   0  0  0  0  0  0  0  0  0  0  0  0
   14.5354    2.8003   29.7513 C   0  0  1  0  0  0  0  0  0  0  0  0
   15.7172    2.0963   30.2039 O   0  0  0  0  0  0  0  0  0  0  0  0
   13.9799    3.5414   30.9460 C   0  0  1  0  0  0  0  0  0  0  0  0
   12.6282    3.3824   30.9522 O   0  0  0  0  0  0  0  0  0  0  0  0
   14.5353    2.6962   32.0684 C   0  0  1  0  0  0  0  0  0  0  0  0
   13.6789    1.6494   32.1959 O   0  0  0  0  0  0  0  0  0  0  0  0
   15.9070    2.1700   31.5912 C   0  0  2  0  0  0  0  0  0  0  0  0
   12.1191    8.8985   24.4637 O   0  0  0  0  0  0  0  0  0  0  0  0
   19.1443    5.7060   29.5440 N   0  0  0  0  0  0  0  0  0  0  0  0
   18.3118    4.6839   28.9758 C   0  0  0  0  0  0  0  0  0  0  0  0
   17.4576    3.7791   29.6537 N   0  0  0  0  0  0  0  0  0  0  0  0
   17.4841    3.9736   30.9128 C   0  0  0  0  0  0  0  0  0  0  0  0
   18.3021    5.0018   31.5941 C   0  0  0  0  0  0  0  0  0  0  0  0
   19.1086    5.8286   30.9159 C   0  0  0  0  0  0  0  0  0  0  0  0
   19.7956    6.6829   31.6461 N   0  0  0  0  0  0  0  0  0  0  0  0
   18.1691    5.0004   32.8990 N   0  0  0  0  0  0  0  0  0  0  0  0
   17.2578    3.9695   33.0353 C   0  0  0  0  0  0  0  0  0  0  0  0
   16.8182    3.3264   31.8074 N   0  0  0  0  0  0  0  0  0  0  0  0
  2  1  1  6  0  0  0
  2  3  1  0  0  0  0
  2  5  1  0  0  0  0
  3  4  1  0  0  0  0
  3 17  1  0  0  0  0
  5  6  1  0  0  0  0
  7  6  1  6  0  0  0
  7  8  1  0  0  0  0
  7  9  1  0  0  0  0
 10  9  1  6  0  0  0
 10 11  1  0  0  0  0
 10 12  1  0  0  0  0
 11 16  1  0  0  0  0
 12 13  1  6  0  0  0
 12 14  1  0  0  0  0
 14 15  1  6  0  0  0
 14 16  1  0  0  0  0
 16 27  1  6  0  0  0
 18 19  2  0  0  0  0
 18 23  1  0  0  0  0
 19 20  1  0  0  0  0
 20 21  2  0  0  0  0
 21 22  1  0  0  0  0
 21 27  1  0  0  0  0
 22 23  2  0  0  0  0
 22 25  1  0  0  0  0
 23 24  1  0  0  0  0
 25 26  2  0  0  0  0
 26 27  1  0  0  0  0
M  END
>  <CHROM.1>
-37.27280331,-69.60728319,64.18310850,-86.97931832,178.67929130,172.55813437
-11.25655921,14.93727088,4.76264418,29.20882313,2.30997322,-0.36575983,-0.80727120

>  <Name>
ligand

>  <RI>
0

>  <Rbt.Current_Directory>
/home/itssahil/PROJECTS/Mol_Feturizer/Test_systems_manuscript/rnas/4aob

>  <Rbt.Executable>
rbdock ($Id: //depot/dev/client3/rdock/2013.1/src/exe/rbdock.cxx#4 $)

>  <Rbt.Library>
libRbt.so (2013.1, Build901 2013/11/27)

>  <Rbt.Parameter_File>
/export/apps/rDock/src/rDock_2013.1_src/data/scripts/dock_solv.prm

>  <Rbt.Receptor>
prm/pocket_docking_8.prm

>  <SCORE>
-10.4895

>  <SCORE.INTER>
-12.3456

>  <SCORE.INTER.CONST>
1

>  <SCORE.INTER.POLAR>
0

>  <SCORE.INTER.ROT>
7

>  <SCORE.INTER.SOLV>
9.52093

>  <SCORE.INTER.VDW>
-19.6707

>  <SCORE.INTER.norm>
-0.457245

>  <SCORE.INTRA>
1.85611

>  <SCORE.INTRA.DIHEDRAL>
-1.47412

>  <SCORE.INTRA.DIHEDRAL.0>
6.31833

>  <SCORE.INTRA.POLAR>
0

>  <SCORE.INTRA.POLAR.0>
0

>  <SCORE.INTRA.REPUL>
0

>  <SCORE.INTRA.REPUL.0>
0

>  <SCORE.INTRA.SOLV>
2.61266

>  <SCORE.INTRA.SOLV.lig_0>
-48.4015

>  <SCORE.INTRA.VDW>
1.28685

>  <SCORE.INTRA.VDW.0>
-2.83256

>  <SCORE.INTRA.norm>
0.0687449

>  <SCORE.RESTR>
0

>  <SCORE.RESTR.CAVITY>
0

>  <SCORE.RESTR.norm>
0

>  <SCORE.SYSTEM>
0

>  <SCORE.SYSTEM.CONST>
0

>  <SCORE.SYSTEM.DIHEDRAL>
0

>  <SCORE.SYSTEM.SOLV>
0

>  <SCORE.SYSTEM.norm>
0

>  <SCORE.heavy>
27

>  <SCORE.norm>
-0.3885

>  <RMSD>
4.897

$$$$
ligand
 OpenBabel02271912153D
libRbt.so/2013.1/901 2013/11/27
 27 29  0  0  0  0  0  0  0  0999 V2000
   14.1193    3.6642   27.4107 N   0  0  0  0  0  0  0  0  0  0  0  0
   14.7656    4.1322   28.6603 C   0  0  2  0  0  0  0  0  0  0  0  0
   14.3886    5.5944   28.8606 C   0  0  0  0  0  0  0  0  0  0  0  0
   15.0236    6.6073   28.4153 O   0  0  0  0  0  0  0  0  0  0  0  0
   16.2748    3.9053   28.5485 C   0  0  0  0  0  0  0  0  0  0  0  0
   16.9793    3.9543   29.8977 C   0  0  0  0  0  0  0  0  0  0  0  0
   16.4853    5.0870   31.2503 S   0  0  2  0  0  0  0  0  0  0  0  0
   18.0941    5.3339   31.9996 C   0  0  0  0  0  0  0  0  0  0  0  0
   15.6885    3.8610   32.3358 C   0  0  0  0  0  0  0  0  0  0  0  0
   14.6361    4.4931   33.2046 C   0  0  1  0  0  0  0  0  0  0  0  0
   15.0659    5.7563   33.7671 O   0  0  0  0  0  0  0  0  0  0  0  0
   13.3220    4.7483   32.5025 C   0  0  1  0  0  0  0  0  0  0  0  0
   12.4741    3.7279   32.8063 O   0  0  0  0  0  0  0  0  0  0  0  0
   12.8456    5.9664   33.2587 C   0  0  1  0  0  0  0  0  0  0  0  0
   12.2615    5.4898   34.3888 O   0  0  0  0  0  0  0  0  0  0  0  0
   14.1064    6.7714   33.6438 C   0  0  2  0  0  0  0  0  0  0  0  0
   13.4033    5.8052   29.5700 O   0  0  0  0  0  0  0  0  0  0  0  0
   12.4747    9.1271   29.2892 N   0  0  0  0  0  0  0  0  0  0  0  0
   11.7940    8.5376   30.4071 C   0  0  0  0  0  0  0  0  0  0  0  0
   12.3646    7.9270   31.5514 N   0  0  0  0  0  0  0  0  0  0  0  0
   13.6376    7.9589   31.5059 C   0  0  0  0  0  0  0  0  0  0  0  0
   14.4315    8.5467   30.4037 C   0  0  0  0  0  0  0  0  0  0  0  0
   13.8516    9.1019   29.3315 C   0  0  0  0  0  0  0  0  0  0  0  0
   14.6742    9.5695   28.4151 N   0  0  0  0  0  0  0  0  0  0  0  0
   15.7277    8.4485   30.5783 N   0  0  0  0  0  0  0  0  0  0  0  0
   15.7460    7.8010   31.7999 C   0  0  0  0  0  0  0  0  0  0  0  0
   14.4529    7.4964   32.3913 N   0  0  0  0  0  0  0  0  0  0  0  0
  2  1  1  6  0  0  0
  2  3  1  0  0  0  0
  2  5  1  0  0  0  0
  3  4  1  0  0  0  0
  3 17  1  0  0  0  0
  5  6  1  0  0  0  0
  7  6  1  6  0  0  0
  7  8  1  0  0  0  0
  7  9  1  0  0  0  0
 10  9  1  6  0  0  0
 10 11  1  0  0  0  0
 10 12  1  0  0  0  0
 11 16  1  0  0  0  0
 12 13  1  1  0  0  0
 12 14  1  0  0  0  0
 14 15  1  1  0  0  0
 14 16  1  0  0  0  0
 16 27  1  6  0  0  0
 18 19  2  0  0  0  0
 18 23  1  0  0  0  0
 19 20  1  0  0  0  0
 20 21  2  0  0  0  0
 21 22  1  0  0  0  0
 21 27  1  0  0  0  0
 22 23  2  0  0  0  0
 22 25  1  0  0  0  0
 23 24  1  0  0  0  0
 25 26  2  0  0  0  0
 26 27  1  0  0  0  0
M  END
>  <CHROM.1>
-89.39956853,-162.80649352,-35.93466719,-148.85765465,-153.36716909,-43.16191326
140.38849985,14.51647795,6.15916133,31.00832629,-2.00002452,-0.92885258,2.11770210

>  <Name>
ligand

>  <RI>
0

>  <Rbt.Current_Directory>
/home/itssahil/PROJECTS/Mol_Feturizer/Test_systems_manuscript/rnas/4aob

>  <Rbt.Executable>
rbdock ($Id: //depot/dev/client3/rdock/2013.1/src/exe/rbdock.cxx#4 $)

>  <Rbt.Library>
libRbt.so (2013.1, Build901 2013/11/27)

>  <Rbt.Parameter_File>
/export/apps/rDock/src/rDock_2013.1_src/data/scripts/dock_solv.prm

>  <Rbt.Receptor>
prm/pocket_docking_4.prm

>  <SCORE>
-4.9838

>  <SCORE.INTER>
-6.09642

>  <SCORE.INTER.CONST>
1

>  <SCORE.INTER.POLAR>
0

>  <SCORE.INTER.ROT>
7

>  <SCORE.INTER.SOLV>
14.4838

>  <SCORE.INTER.VDW>
-17.1589

>  <SCORE.INTER.norm>
-0.225793

>  <SCORE.INTRA>
1.11262

>  <SCORE.INTRA.DIHEDRAL>
6.94879

>  <SCORE.INTRA.DIHEDRAL.0>
6.31833

>  <SCORE.INTRA.POLAR>
0

>  <SCORE.INTRA.POLAR.0>
0

>  <SCORE.INTRA.REPUL>
0

>  <SCORE.INTRA.REPUL.0>
0

>  <SCORE.INTRA.SOLV>
0.592478

>  <SCORE.INTRA.SOLV.lig_0>
-48.4015

>  <SCORE.INTRA.VDW>
-2.65802

>  <SCORE.INTRA.VDW.0>
-2.83256

>  <SCORE.INTRA.norm>
0.0412081

>  <SCORE.RESTR>
0

>  <SCORE.RESTR.CAVITY>
0

>  <SCORE.RESTR.norm>
0

>  <SCORE.SYSTEM>
0

>  <SCORE.SYSTEM.CONST>
0

>  <SCORE.SYSTEM.DIHEDRAL>
0

>  <SCORE.SYSTEM.SOLV>
0

>  <SCORE.SYSTEM.norm>
0

>  <SCORE.heavy>
27

>  <SCORE.norm>
-0.184585

>  <RMSD>
4.922

$$$$
ligand
 OpenBabel02271912153D
libRbt.so/2013.1/901 2013/11/27
 27 29  0  0  0  0  0  0  0  0999 V2000
   16.9612    4.7744   28.8029 N   0  0  0  0  0  0  0  0  0  0  0  0
   16.5194    3.3966   28.4791 C   0  0  2  0  0  0  0  0  0  0  0  0
   15.2914    3.4994   27.5838 C   0  0  0  0  0  0  0  0  0  0  0  0
   14.0972    3.1785   27.8977 O   0  0  0  0  0  0  0  0  0  0  0  0
   16.2558    2.6447   29.7855 C   0  0  0  0  0  0  0  0  0  0  0  0
   15.2277    3.3399   30.6681 C   0  0  0  0  0  0  0  0  0  0  0  0
   14.5966    2.6248   32.2324 S   0  0  2  0  0  0  0  0  0  0  0  0
   13.6644    1.2557   31.5490 C   0  0  0  0  0  0  0  0  0  0  0  0
   13.3229    3.8755   32.5926 C   0  0  0  0  0  0  0  0  0  0  0  0
   13.9030    5.0658   33.3057 C   0  0  1  0  0  0  0  0  0  0  0  0
   14.7751    5.8506   32.4570 O   0  0  0  0  0  0  0  0  0  0  0  0
   12.8712    6.0137   33.8731 C   0  0  1  0  0  0  0  0  0  0  0  0
   12.7145    5.7278   35.1945 O   0  0  0  0  0  0  0  0  0  0  0  0
   13.6274    7.3185   33.7839 C   0  0  1  0  0  0  0  0  0  0  0  0
   14.4163    7.3601   34.8891 O   0  0  0  0  0  0  0  0  0  0  0  0
   14.5228    7.2281   32.5285 C   0  0  2  0  0  0  0  0  0  0  0  0
   15.4955    3.8788   26.4294 O   0  0  0  0  0  0  0  0  0  0  0  0
   13.3920    6.7757   27.4598 N   0  0  0  0  0  0  0  0  0  0  0  0
   14.4530    6.2695   28.2835 C   0  0  0  0  0  0  0  0  0  0  0  0
   14.6436    6.4615   29.6745 N   0  0  0  0  0  0  0  0  0  0  0  0
   13.7103    7.1698   30.1754 C   0  0  0  0  0  0  0  0  0  0  0  0
   12.5725    7.7327   29.4144 C   0  0  0  0  0  0  0  0  0  0  0  0
   12.4376    7.5392   28.0960 C   0  0  0  0  0  0  0  0  0  0  0  0
   11.3906    8.1120   27.5386 N   0  0  0  0  0  0  0  0  0  0  0  0
   11.7460    8.4384   30.1488 N   0  0  0  0  0  0  0  0  0  0  0  0
   12.3663    8.3116   31.3781 C   0  0  0  0  0  0  0  0  0  0  0  0
   13.5854    7.5195   31.4102 N   0  0  0  0  0  0  0  0  0  0  0  0
  2  1  1  1  0  0  0
  2  3  1  0  0  0  0
  2  5  1  0  0  0  0
  3  4  1  0  0  0  0
  3 17  1  0  0  0  0
  5  6  1  0  0  0  0
  7  6  1  6  0  0  0
  7  8  1  0  0  0  0
  7  9  1  0  0  0  0
 10  9  1  6  0  0  0
 10 11  1  0  0  0  0
 10 12  1  0  0  0  0
 11 16  1  0  0  0  0
 12 13  1  1  0  0  0
 12 14  1  0  0  0  0
 14 15  1  1  0  0  0
 14 16  1  0  0  0  0
 16 27  1  6  0  0  0
 18 19  2  0  0  0  0
 18 23  1  0  0  0  0
 19 20  1  0  0  0  0
 20 21  2  0  0  0  0
 21 22  1  0  0  0  0
 21 27  1  0  0  0  0
 22 23  2  0  0  0  0
 22 25  1  0  0  0  0
 23 24  1  0  0  0  0
 25 26  2  0  0  0  0
 26 27  1  0  0  0  0
M  END
>  <CHROM.1>
-111.22574478,57.12740834,174.94310401,-68.55521001,-84.44850551,69.13934711
-49.83048083,14.06713212,5.40825209,30.69902539,-0.94592121,-1.11793667,1.74223250

>  <Name>
ligand

>  <RI>
0

>  <Rbt.Current_Directory>
/home/itssahil/PROJECTS/Mol_Feturizer/Test_systems_manuscript/rnas/4aob

>  <Rbt.Executable>
rbdock ($Id: //depot/dev/client3/rdock/2013.1/src/exe/rbdock.cxx#4 $)

>  <Rbt.Library>
libRbt.so (2013.1, Build901 2013/11/27)

>  <Rbt.Parameter_File>
/export/apps/rDock/src/rDock_2013.1_src/data/scripts/dock_solv.prm

>  <Rbt.Receptor>
prm/pocket_docking_3.prm

>  <SCORE>
-13.1925

>  <SCORE.INTER>
-11.7571

>  <SCORE.INTER.CONST>
1

>  <SCORE.INTER.POLAR>
0

>  <SCORE.INTER.ROT>
7

>  <SCORE.INTER.SOLV>
9.96606

>  <SCORE.INTER.VDW>
-19.4268

>  <SCORE.INTER.norm>
-0.435448

>  <SCORE.INTRA>
-1.43629

>  <SCORE.INTRA.DIHEDRAL>
-2.16444

>  <SCORE.INTRA.DIHEDRAL.0>
6.31833

>  <SCORE.INTRA.POLAR>
0

>  <SCORE.INTRA.POLAR.0>
0

>  <SCORE.INTRA.REPUL>
0

>  <SCORE.INTRA.REPUL.0>
0

>  <SCORE.INTRA.SOLV>
1.16412

>  <SCORE.INTRA.SOLV.lig_0>
-48.4015

>  <SCORE.INTRA.VDW>
-0.936126

>  <SCORE.INTRA.VDW.0>
-2.83256

>  <SCORE.INTRA.norm>
-0.0531958

>  <SCORE.RESTR>
0.000911414

>  <SCORE.RESTR.CAVITY>
0.000911414

>  <SCORE.RESTR.norm>
3.37561e-05

>  <SCORE.SYSTEM>
0

>  <SCORE.SYSTEM.CONST>
0

>  <SCORE.SYSTEM.DIHEDRAL>
0

>  <SCORE.SYSTEM.SOLV>
0

>  <SCORE.SYSTEM.norm>
0

>  <SCORE.heavy>
27

>  <SCORE.norm>
-0.48861

>  <RMSD>
4.923

$$$$
ligand
 OpenBabel02271912153D
libRbt.so/2013.1/901 2013/11/27
 27 29  0  0  0  0  0  0  0  0999 V2000
   16.2289    2.6708   31.9179 N   0  0  0  0  0  0  0  0  0  0  0  0
   14.9085    2.8719   31.2741 C   0  0  2  0  0  0  0  0  0  0  0  0
   14.1840    1.5320   31.2685 C   0  0  0  0  0  0  0  0  0  0  0  0
   12.9220    1.3540   31.3246 O   0  0  0  0  0  0  0  0  0  0  0  0
   15.1267    3.4487   29.8736 C   0  0  0  0  0  0  0  0  0  0  0  0
   13.8381    3.5409   29.0673 C   0  0  0  0  0  0  0  0  0  0  0  0
   13.7660    4.1938   27.3570 S   0  0  2  0  0  0  0  0  0  0  0  0
   15.2325    3.4004   26.7009 C   0  0  0  0  0  0  0  0  0  0  0  0
   14.3163    5.8942   27.7063 C   0  0  0  0  0  0  0  0  0  0  0  0
   13.1501    6.8232   27.9029 C   0  0  1  0  0  0  0  0  0  0  0  0
   12.2847    6.4063   28.9865 O   0  0  0  0  0  0  0  0  0  0  0  0
   13.5384    8.2583   28.1768 C   0  0  1  0  0  0  0  0  0  0  0  0
   13.4544    8.9504   27.0079 O   0  0  0  0  0  0  0  0  0  0  0  0
   12.3752    8.6915   29.0381 C   0  0  1  0  0  0  0  0  0  0  0  0
   11.3823    9.0226   28.1721 O   0  0  0  0  0  0  0  0  0  0  0  0
   11.9409    7.4534   29.8534 C   0  0  2  0  0  0  0  0  0  0  0  0
   14.9019    0.5305   31.2649 O   0  0  0  0  0  0  0  0  0  0  0  0
   13.9320    4.8352   33.8975 N   0  0  0  0  0  0  0  0  0  0  0  0
   12.9210    4.5300   32.9252 C   0  0  0  0  0  0  0  0  0  0  0  0
   12.4714    5.3392   31.8524 N   0  0  0  0  0  0  0  0  0  0  0  0
   13.1005    6.4466   31.8136 C   0  0  0  0  0  0  0  0  0  0  0  0
   14.1603    6.8527   32.7637 C   0  0  0  0  0  0  0  0  0  0  0  0
   14.5458    6.0626   33.7741 C   0  0  0  0  0  0  0  0  0  0  0  0
   15.4844    6.5535   34.5571 N   0  0  0  0  0  0  0  0  0  0  0  0
   14.6515    8.0453   32.5258 N   0  0  0  0  0  0  0  0  0  0  0  0
   13.8994    8.3858   31.4165 C   0  0  0  0  0  0  0  0  0  0  0  0
   12.9356    7.3978   30.9588 N   0  0  0  0  0  0  0  0  0  0  0  0
  2  1  1  6  0  0  0
  2  3  1  0  0  0  0
  2  5  1  0  0  0  0
  3  4  1  0  0  0  0
  3 17  1  0  0  0  0
  5  6  1  0  0  0  0
  7  6  1  1  0  0  0
  7  8  1  0  0  0  0
  7  9  1  0  0  0  0
 10  9  1  1  0  0  0
 10 11  1  0  0  0  0
 10 12  1  0  0  0  0
 11 16  1  0  0  0  0
 12 13  1  6  0  0  0
 12 14  1  0  0  0  0
 14 15  1  6  0  0  0
 14 16  1  0  0  0  0
 16 27  1  1  0  0  0
 18 19  2  0  0  0  0
 18 23  1  0  0  0  0
 19 20  1  0  0  0  0
 20 21  2  0  0  0  0
 21 22  1  0  0  0  0
 21 27  1  0  0  0  0
 22 23  2  0  0  0  0
 22 25  1  0  0  0  0
 23 24  1  0  0  0  0
 25 26  2  0  0  0  0
 26 27  1  0  0  0  0
M  END
>  <CHROM.1>
149.65666159,173.32979498,179.79424127,42.51875953,-94.76872182,58.65733571
-64.15463825,13.75537113,5.44231329,30.27046707,-0.09250173,1.30600191,-2.01325152

>  <Name>
ligand

>  <RI>
0

>  <Rbt.Current_Directory>
/home/itssahil/PROJECTS/Mol_Feturizer/Test_systems_manuscript/rnas/4aob

>  <Rbt.Executable>
rbdock ($Id: //depot/dev/client3/rdock/2013.1/src/exe/rbdock.cxx#4 $)

>  <Rbt.Library>
libRbt.so (2013.1, Build901 2013/11/27)

>  <Rbt.Parameter_File>
/export/apps/rDock/src/rDock_2013.1_src/data/scripts/dock_solv.prm

>  <Rbt.Receptor>
prm/pocket_docking_2.prm

>  <SCORE>
-8.43702

>  <SCORE.INTER>
-8.206

>  <SCORE.INTER.CONST>
1

>  <SCORE.INTER.POLAR>
0

>  <SCORE.INTER.ROT>
7

>  <SCORE.INTER.SOLV>
14.1627

>  <SCORE.INTER.VDW>
-18.4582

>  <SCORE.INTER.norm>
-0.303926

>  <SCORE.INTRA>
-1.30766

>  <SCORE.INTRA.DIHEDRAL>
-0.980491

>  <SCORE.INTRA.DIHEDRAL.0>
6.31833

>  <SCORE.INTRA.POLAR>
0

>  <SCORE.INTRA.POLAR.0>
0

>  <SCORE.INTRA.REPUL>
0

>  <SCORE.INTRA.REPUL.0>
0

>  <SCORE.INTRA.SOLV>
-0.384262

>  <SCORE.INTRA.SOLV.lig_0>
-48.4015

>  <SCORE.INTRA.VDW>
-0.625284

>  <SCORE.INTRA.VDW.0>
-2.83256

>  <SCORE.INTRA.norm>
-0.0484319

>  <SCORE.RESTR>
1.07664

>  <SCORE.RESTR.CAVITY>
1.07664

>  <SCORE.RESTR.norm>
0.0398757

>  <SCORE.SYSTEM>
0

>  <SCORE.SYSTEM.CONST>
0

>  <SCORE.SYSTEM.DIHEDRAL>
0

>  <SCORE.SYSTEM.SOLV>
0

>  <SCORE.SYSTEM.norm>
0

>  <SCORE.heavy>
27

>  <SCORE.norm>
-0.312482

>  <RMSD>
4.925

$$$$
ligand
 OpenBabel02271912153D
libRbt.so/2013.1/901 2013/11/27
 27 29  0  0  0  0  0  0  0  0999 V2000
   15.4763    3.2811   32.3711 N   0  0  0  0  0  0  0  0  0  0  0  0
   14.8516    2.9530   31.0671 C   0  0  2  0  0  0  0  0  0  0  0  0
   13.9993    1.7053   31.2595 C   0  0  0  0  0  0  0  0  0  0  0  0
   14.4197    0.5017   31.3067 O   0  0  0  0  0  0  0  0  0  0  0  0
   15.9562    2.7772   30.0228 C   0  0  0  0  0  0  0  0  0  0  0  0
   15.4762    3.0573   28.6049 C   0  0  0  0  0  0  0  0  0  0  0  0
   15.0787    4.7369   27.9905 S   0  0  2  0  0  0  0  0  0  0  0  0
   16.5099    5.6058   28.6287 C   0  0  0  0  0  0  0  0  0  0  0  0
   13.7623    5.1427   29.1816 C   0  0  0  0  0  0  0  0  0  0  0  0
   13.1163    6.4630   28.8629 C   0  0  1  0  0  0  0  0  0  0  0  0
   11.8872    6.6718   29.5996 O   0  0  0  0  0  0  0  0  0  0  0  0
   13.9959    7.6642   29.1245 C   0  0  1  0  0  0  0  0  0  0  0  0
   14.5590    8.0420   27.9445 O   0  0  0  0  0  0  0  0  0  0  0  0
   12.9469    8.6950   29.4704 C   0  0  1  0  0  0  0  0  0  0  0  0
   12.4905    9.1655   28.2805 O   0  0  0  0  0  0  0  0  0  0  0  0
   11.8039    7.9424   30.1868 C   0  0  2  0  0  0  0  0  0  0  0  0
   12.7820    1.8873   31.3185 O   0  0  0  0  0  0  0  0  0  0  0  0
   13.0359    4.7215   34.0961 N   0  0  0  0  0  0  0  0  0  0  0  0
   12.5869    4.5122   32.7488 C   0  0  0  0  0  0  0  0  0  0  0  0
   12.2904    5.4903   31.7673 N   0  0  0  0  0  0  0  0  0  0  0  0
   12.4835    6.6676   32.2150 C   0  0  0  0  0  0  0  0  0  0  0  0
   12.9490    6.9880   33.5829 C   0  0  0  0  0  0  0  0  0  0  0  0
   13.2043    6.0323   34.4859 C   0  0  0  0  0  0  0  0  0  0  0  0
   13.5927    6.4553   35.6713 N   0  0  0  0  0  0  0  0  0  0  0  0
   13.0611    8.2745   33.8128 N   0  0  0  0  0  0  0  0  0  0  0  0
   12.6695    8.7626   32.5798 C   0  0  0  0  0  0  0  0  0  0  0  0
   12.3139    7.7738   31.5745 N   0  0  0  0  0  0  0  0  0  0  0  0
  2  1  1  1  0  0  0
  2  3  1  0  0  0  0
  2  5  1  0  0  0  0
  3  4  1  0  0  0  0
  3 17  1  0  0  0  0
  5  6  1  0  0  0  0
  7  6  1  1  0  0  0
  7  8  1  0  0  0  0
  7  9  1  0  0  0  0
 10  9  1  1  0  0  0
 10 11  1  0  0  0  0
 10 12  1  0  0  0  0
 11 16  1  0  0  0  0
 12 13  1  6  0  0  0
 12 14  1  0  0  0  0
 14 15  1  6  0  0  0
 14 16  1  0  0  0  0
 16 27  1  1  0  0  0
 18 19  2  0  0  0  0
 18 23  1  0  0  0  0
 19 20  1  0  0  0  0
 20 21  2  0  0  0  0
 21 22  1  0  0  0  0
 21 27  1  0  0  0  0
 22 23  2  0  0  0  0
 22 25  1  0  0  0  0
 23 24  1  0  0  0  0
 25 26  2  0  0  0  0
 26 27  1  0  0  0  0
M  END
>  <CHROM.1>
-79.17132813,-154.26539817,71.42522806,45.63506696,-174.85839766,167.17554030
-15.44660518,13.69252629,5.55866009,30.80830265,0.56944632,-1.16136985,2.27059576

>  <Name>
ligand

>  <RI>
0

>  <Rbt.Current_Directory>
/home/itssahil/PROJECTS/Mol_Feturizer/Test_systems_manuscript/rnas/4aob

>  <Rbt.Executable>
rbdock ($Id: //depot/dev/client3/rdock/2013.1/src/exe/rbdock.cxx#4 $)

>  <Rbt.Library>
libRbt.so (2013.1, Build901 2013/11/27)

>  <Rbt.Parameter_File>
/export/apps/rDock/src/rDock_2013.1_src/data/scripts/dock_solv.prm

>  <Rbt.Receptor>
prm/pocket_docking_2.prm

>  <SCORE>
0.244262

>  <SCORE.INTER>
-1.65146

>  <SCORE.INTER.CONST>
1

>  <SCORE.INTER.POLAR>
0

>  <SCORE.INTER.ROT>
7

>  <SCORE.INTER.SOLV>
16.2502

>  <SCORE.INTER.VDW>
-14.7844

>  <SCORE.INTER.norm>
-0.0611652

>  <SCORE.INTRA>
0.829454

>  <SCORE.INTRA.DIHEDRAL>
0.90649

>  <SCORE.INTRA.DIHEDRAL.0>
6.31833

>  <SCORE.INTRA.POLAR>
0

>  <SCORE.INTRA.POLAR.0>
0

>  <SCORE.INTRA.REPUL>
0

>  <SCORE.INTRA.REPUL.0>
0

>  <SCORE.INTRA.SOLV>
1.28076

>  <SCORE.INTRA.SOLV.lig_0>
-48.4015

>  <SCORE.INTRA.VDW>
-0.264172

>  <SCORE.INTRA.VDW.0>
-2.83256

>  <SCORE.INTRA.norm>
0.0307205

>  <SCORE.RESTR>
1.06627

>  <SCORE.RESTR.CAVITY>
1.06627

>  <SCORE.RESTR.norm>
0.0394915

>  <SCORE.SYSTEM>
0

>  <SCORE.SYSTEM.CONST>
0

>  <SCORE.SYSTEM.DIHEDRAL>
0

>  <SCORE.SYSTEM.SOLV>
0

>  <SCORE.SYSTEM.norm>
0

>  <SCORE.heavy>
27

>  <SCORE.norm>
0.00904676

>  <RMSD>
4.954

$$$$
ligand
 OpenBabel02271912153D
libRbt.so/2013.1/901 2013/11/27
 27 29  0  0  0  0  0  0  0  0999 V2000
   13.7029    8.6245   24.2490 N   0  0  0  0  0  0  0  0  0  0  0  0
   13.9534    7.2027   23.9112 C   0  0  2  0  0  0  0  0  0  0  0  0
   13.8385    7.0558   22.3994 C   0  0  0  0  0  0  0  0  0  0  0  0
   13.1009    6.2236   21.7740 O   0  0  0  0  0  0  0  0  0  0  0  0
   12.9594    6.3313   24.6821 C   0  0  0  0  0  0  0  0  0  0  0  0
   13.2177    6.3300   26.1829 C   0  0  0  0  0  0  0  0  0  0  0  0
   12.1705    5.4251   27.3833 S   0  0  2  0  0  0  0  0  0  0  0  0
   10.8376    6.6134   27.5314 C   0  0  0  0  0  0  0  0  0  0  0  0
   13.1751    5.7172   28.8739 C   0  0  0  0  0  0  0  0  0  0  0  0
   14.5090    5.0282   28.7853 C   0  0  1  0  0  0  0  0  0  0  0  0
   15.2680    5.1277   30.0144 O   0  0  0  0  0  0  0  0  0  0  0  0
   14.4276    3.5597   28.4358 C   0  0  1  0  0  0  0  0  0  0  0  0
   14.6544    3.4288   27.1002 O   0  0  0  0  0  0  0  0  0  0  0  0
   15.6550    3.0451   29.1509 C   0  0  1  0  0  0  0  0  0  0  0  0
   16.6955    3.2876   28.3119 O   0  0  0  0  0  0  0  0  0  0  0  0
   15.8217    3.9059   30.4226 C   0  0  2  0  0  0  0  0  0  0  0  0
   14.5766    7.7800   21.7293 O   0  0  0  0  0  0  0  0  0  0  0  0
   12.5625    4.6153   34.4288 N   0  0  0  0  0  0  0  0  0  0  0  0
   13.3861    5.5023   33.6572 C   0  0  0  0  0  0  0  0  0  0  0  0
   14.2341    5.1786   32.5691 N   0  0  0  0  0  0  0  0  0  0  0  0
   14.1908    3.9329   32.3042 C   0  0  0  0  0  0  0  0  0  0  0  0
   13.3721    2.9394   33.0344 C   0  0  0  0  0  0  0  0  0  0  0  0
   12.5941    3.2858   34.0682 C   0  0  0  0  0  0  0  0  0  0  0  0
   11.9337    2.3008   34.6414 N   0  0  0  0  0  0  0  0  0  0  0  0
   13.5044    1.7149   32.5834 N   0  0  0  0  0  0  0  0  0  0  0  0
   14.4064    1.9436   31.5606 C   0  0  0  0  0  0  0  0  0  0  0  0
   14.8365    3.3198   31.3716 N   0  0  0  0  0  0  0  0  0  0  0  0
  2  1  1  6  0  0  0
  2  3  1  0  0  0  0
  2  5  1  0  0  0  0
  3  4  1  0  0  0  0
  3 17  1  0  0  0  0
  5  6  1  0  0  0  0
  7  6  1  6  0  0  0
  7  8  1  0  0  0  0
  7  9  1  0  0  0  0
 10  9  1  1  0  0  0
 10 11  1  0  0  0  0
 10 12  1  0  0  0  0
 11 16  1  0  0  0  0
 12 13  1  6  0  0  0
 12 14  1  0  0  0  0
 14 15  1  6  0  0  0
 14 16  1  0  0  0  0
 16 27  1  1  0  0  0
 18 19  2  0  0  0  0
 18 23  1  0  0  0  0
 19 20  1  0  0  0  0
 20 21  2  0  0  0  0
 21 22  1  0  0  0  0
 21 27  1  0  0  0  0
 22 23  2  0  0  0  0
 22 25  1  0  0  0  0
 23 24  1  0  0  0  0
 25 26  2  0  0  0  0
 26 27  1  0  0  0  0
M  END
>  <CHROM.1>
-126.69752666,-68.54247896,178.08459118,-81.03957613,-66.20643382,-173.88536971
-42.71197558,13.77069113,4.86121621,28.71708403,1.57163744,0.62629866,-1.21457504

>  <Name>
ligand

>  <RI>
0

>  <Rbt.Current_Directory>
/home/itssahil/PROJECTS/Mol_Feturizer/Test_systems_manuscript/rnas/4aob

>  <Rbt.Executable>
rbdock ($Id: //depot/dev/client3/rdock/2013.1/src/exe/rbdock.cxx#4 $)

>  <Rbt.Library>
libRbt.so (2013.1, Build901 2013/11/27)

>  <Rbt.Parameter_File>
/export/apps/rDock/src/rDock_2013.1_src/data/scripts/dock_solv.prm

>  <Rbt.Receptor>
prm/pocket_docking_8.prm

>  <SCORE>
-10.5209

>  <SCORE.INTER>
-10.0611

>  <SCORE.INTER.CONST>
1

>  <SCORE.INTER.POLAR>
0

>  <SCORE.INTER.ROT>
7

>  <SCORE.INTER.SOLV>
19.7887

>  <SCORE.INTER.VDW>
-21.5703

>  <SCORE.INTER.norm>
-0.372632

>  <SCORE.INTRA>
-0.459814

>  <SCORE.INTRA.DIHEDRAL>
-2.31849

>  <SCORE.INTRA.DIHEDRAL.0>
6.31833

>  <SCORE.INTRA.POLAR>
0

>  <SCORE.INTRA.POLAR.0>
0

>  <SCORE.INTRA.REPUL>
0

>  <SCORE.INTRA.REPUL.0>
0

>  <SCORE.INTRA.SOLV>
0.23868

>  <SCORE.INTRA.SOLV.lig_0>
-48.4015

>  <SCORE.INTRA.VDW>
0.580092

>  <SCORE.INTRA.VDW.0>
-2.83256

>  <SCORE.INTRA.norm>
-0.0170301

>  <SCORE.RESTR>
0

>  <SCORE.RESTR.CAVITY>
0

>  <SCORE.RESTR.norm>
0

>  <SCORE.SYSTEM>
0

>  <SCORE.SYSTEM.CONST>
0

>  <SCORE.SYSTEM.DIHEDRAL>
0

>  <SCORE.SYSTEM.SOLV>
0

>  <SCORE.SYSTEM.norm>
0

>  <SCORE.heavy>
27

>  <SCORE.norm>
-0.389662

>  <RMSD>
4.966

$$$$
ligand
 OpenBabel02271912153D
libRbt.so/2013.1/901 2013/11/27
 27 29  0  0  0  0  0  0  0  0999 V2000
   15.0874    7.1351   34.2700 N   0  0  0  0  0  0  0  0  0  0  0  0
   13.6689    7.5663   34.2486 C   0  0  2  0  0  0  0  0  0  0  0  0
   12.8052    6.3406   34.5169 C   0  0  0  0  0  0  0  0  0  0  0  0
   11.9915    5.7948   33.6999 O   0  0  0  0  0  0  0  0  0  0  0  0
   13.3768    8.2302   32.9012 C   0  0  0  0  0  0  0  0  0  0  0  0
   13.9466    7.4499   31.7241 C   0  0  0  0  0  0  0  0  0  0  0  0
   14.2492    8.1921   30.0767 S   0  0  2  0  0  0  0  0  0  0  0  0
   12.5996    8.8109   29.7501 C   0  0  0  0  0  0  0  0  0  0  0  0
   14.3300    6.6509   29.1099 C   0  0  0  0  0  0  0  0  0  0  0  0
   15.7076    6.0485   29.1443 C   0  0  1  0  0  0  0  0  0  0  0  0
   16.3379    6.1780   30.4415 O   0  0  0  0  0  0  0  0  0  0  0  0
   15.7540    4.5830   28.7766 C   0  0  1  0  0  0  0  0  0  0  0  0
   16.1151    4.4857   27.4680 O   0  0  0  0  0  0  0  0  0  0  0  0
   16.9379    4.1363   29.6021 C   0  0  1  0  0  0  0  0  0  0  0  0
   18.0361    4.4557   28.8690 O   0  0  0  0  0  0  0  0  0  0  0  0
   16.9271    4.9876   30.8910 C   0  0  2  0  0  0  0  0  0  0  0  0
   12.8683    5.8751   35.6561 O   0  0  0  0  0  0  0  0  0  0  0  0
   14.1090    0.7263   31.9271 N   0  0  0  0  0  0  0  0  0  0  0  0
   15.1536    1.0141   30.9856 C   0  0  0  0  0  0  0  0  0  0  0  0
   15.8558    2.2321   30.8086 N   0  0  0  0  0  0  0  0  0  0  0  0
   15.4568    3.1193   31.6316 C   0  0  0  0  0  0  0  0  0  0  0  0
   14.3934    2.9209   32.6418 C   0  0  0  0  0  0  0  0  0  0  0  0
   13.7437    1.7563   32.7662 C   0  0  0  0  0  0  0  0  0  0  0  0
   12.8066    1.7209   33.6912 N   0  0  0  0  0  0  0  0  0  0  0  0
   14.1508    3.9867   33.3667 N   0  0  0  0  0  0  0  0  0  0  0  0
   15.0719    4.8559   32.8117 C   0  0  0  0  0  0  0  0  0  0  0  0
   15.8954    4.3274   31.7361 N   0  0  0  0  0  0  0  0  0  0  0  0
  2  1  1  6  0  0  0
  2  3  1  0  0  0  0
  2  5  1  0  0  0  0
  3  4  1  0  0  0  0
  3 17  1  0  0  0  0
  5  6  1  0  0  0  0
  7  6  1  1  0  0  0
  7  8  1  0  0  0  0
  7  9  1  0  0  0  0
 10  9  1  1  0  0  0
 10 11  1  0  0  0  0
 10 12  1  0  0  0  0
 11 16  1  0  0  0  0
 12 13  1  6  0  0  0
 12 14  1  0  0  0  0
 14 15  1  6  0  0  0
 14 16  1  0  0  0  0
 16 27  1  1  0  0  0
 18 19  2  0  0  0  0
 18 23  1  0  0  0  0
 19 20  1  0  0  0  0
 20 21  2  0  0  0  0
 21 22  1  0  0  0  0
 21 27  1  0  0  0  0
 22 23  2  0  0  0  0
 22 25  1  0  0  0  0
 23 24  1  0  0  0  0
 25 26  2  0  0  0  0
 26 27  1  0  0  0  0
M  END
>  <CHROM.1>
-114.15325866,44.74427265,-159.87735072,-55.83193064,-84.78478754,38.43567842
127.28271956,14.69415657,5.16145670,31.51041339,-2.82075364,-1.01649660,2.77683328

>  <Name>
ligand

>  <RI>
0

>  <Rbt.Current_Directory>
/home/itssahil/PROJECTS/Mol_Feturizer/Test_systems_manuscript/rnas/4aob

>  <Rbt.Executable>
rbdock ($Id: //depot/dev/client3/rdock/2013.1/src/exe/rbdock.cxx#4 $)

>  <Rbt.Library>
libRbt.so (2013.1, Build901 2013/11/27)

>  <Rbt.Parameter_File>
/export/apps/rDock/src/rDock_2013.1_src/data/scripts/dock_solv.prm

>  <Rbt.Receptor>
prm/pocket_docking_4.prm

>  <SCORE>
-4.72611

>  <SCORE.INTER>
-9.30388

>  <SCORE.INTER.CONST>
1

>  <SCORE.INTER.POLAR>
0

>  <SCORE.INTER.ROT>
7

>  <SCORE.INTER.SOLV>
19.3061

>  <SCORE.INTER.VDW>
-20.9046

>  <SCORE.INTER.norm>
-0.344588

>  <SCORE.INTRA>
4.57777

>  <SCORE.INTRA.DIHEDRAL>
1.73305

>  <SCORE.INTRA.DIHEDRAL.0>
6.31833

>  <SCORE.INTRA.POLAR>
0

>  <SCORE.INTRA.POLAR.0>
0

>  <SCORE.INTRA.REPUL>
0

>  <SCORE.INTRA.REPUL.0>
0

>  <SCORE.INTRA.SOLV>
1.727

>  <SCORE.INTRA.SOLV.lig_0>
-48.4015

>  <SCORE.INTRA.VDW>
2.84774

>  <SCORE.INTRA.VDW.0>
-2.83256

>  <SCORE.INTRA.norm>
0.169547

>  <SCORE.RESTR>
0

>  <SCORE.RESTR.CAVITY>
0

>  <SCORE.RESTR.norm>
0

>  <SCORE.SYSTEM>
0

>  <SCORE.SYSTEM.CONST>
0

>  <SCORE.SYSTEM.DIHEDRAL>
0

>  <SCORE.SYSTEM.SOLV>
0

>  <SCORE.SYSTEM.norm>
0

>  <SCORE.heavy>
27

>  <SCORE.norm>
-0.175041

>  <RMSD>
4.975

$$$$
ligand
 OpenBabel02271912153D
libRbt.so/2013.1/901 2013/11/27
 27 29  0  0  0  0  0  0  0  0999 V2000
   15.8169    3.1233   27.2981 N   0  0  0  0  0  0  0  0  0  0  0  0
   16.4214    4.4380   27.6212 C   0  0  2  0  0  0  0  0  0  0  0  0
   17.5810    4.1950   28.5786 C   0  0  0  0  0  0  0  0  0  0  0  0
   17.5900    4.4328   29.8319 O   0  0  0  0  0  0  0  0  0  0  0  0
   15.3373    5.3489   28.2013 C   0  0  0  0  0  0  0  0  0  0  0  0
   15.8279    6.7708   28.4393 C   0  0  0  0  0  0  0  0  0  0  0  0
   15.0976    7.8908   29.6918 S   0  0  2  0  0  0  0  0  0  0  0  0
   16.1930    9.2922   29.4752 C   0  0  0  0  0  0  0  0  0  0  0  0
   15.7425    7.0669   31.1823 C   0  0  0  0  0  0  0  0  0  0  0  0
   14.6793    6.9185   32.2356 C   0  0  1  0  0  0  0  0  0  0  0  0
   15.1571    6.2232   33.4126 O   0  0  0  0  0  0  0  0  0  0  0  0
   14.0855    8.2261   32.7075 C   0  0  1  0  0  0  0  0  0  0  0  0
   12.9160    8.4255   32.0404 O   0  0  0  0  0  0  0  0  0  0  0  0
   13.7326    7.8627   34.1308 C   0  0  1  0  0  0  0  0  0  0  0  0
   12.5324    7.2304   34.0599 O   0  0  0  0  0  0  0  0  0  0  0  0
   14.8037    6.8588   34.6115 C   0  0  2  0  0  0  0  0  0  0  0  0
   18.6234    3.7799   28.0691 O   0  0  0  0  0  0  0  0  0  0  0  0
   19.8959    7.8598   34.1190 N   0  0  0  0  0  0  0  0  0  0  0  0
   19.0213    6.8818   33.5368 C   0  0  0  0  0  0  0  0  0  0  0  0
   17.6300    6.7195   33.7512 N   0  0  0  0  0  0  0  0  0  0  0  0
   17.1821    7.5946   34.5618 C   0  0  0  0  0  0  0  0  0  0  0  0
   17.9983    8.6456   35.2098 C   0  0  0  0  0  0  0  0  0  0  0  0
   19.3151    8.7550   34.9907 C   0  0  0  0  0  0  0  0  0  0  0  0
   19.9248    9.7214   35.6459 N   0  0  0  0  0  0  0  0  0  0  0  0
   17.3132    9.4224   36.0145 N   0  0  0  0  0  0  0  0  0  0  0  0
   16.0595    8.8588   35.8650 C   0  0  0  0  0  0  0  0  0  0  0  0
   15.9624    7.7254   34.9591 N   0  0  0  0  0  0  0  0  0  0  0  0
  2  1  1  1  0  0  0
  2  3  1  0  0  0  0
  2  5  1  0  0  0  0
  3  4  1  0  0  0  0
  3 17  1  0  0  0  0
  5  6  1  0  0  0  0
  7  6  1  6  0  0  0
  7  8  1  0  0  0  0
  7  9  1  0  0  0  0
 10  9  1  6  0  0  0
 10 11  1  0  0  0  0
 10 12  1  0  0  0  0
 11 16  1  0  0  0  0
 12 13  1  6  0  0  0
 12 14  1  0  0  0  0
 14 15  1  6  0  0  0
 14 16  1  0  0  0  0
 16 27  1  6  0  0  0
 18 19  2  0  0  0  0
 18 23  1  0  0  0  0
 19 20  1  0  0  0  0
 20 21  2  0  0  0  0
 21 22  1  0  0  0  0
 21 27  1  0  0  0  0
 22 23  2  0  0  0  0
 22 25  1  0  0  0  0
 23 24  1  0  0  0  0
 25 26  2  0  0  0  0
 26 27  1  0  0  0  0
M  END
>  <CHROM.1>
-105.18827471,-174.35636168,-154.07219489,177.08467075,-134.75108559,177.95882822
-22.24702871,16.27592464,7.05435890,32.03868243,-1.66549222,-0.15873352,1.08487118

>  <Name>
ligand

>  <RI>
0

>  <Rbt.Current_Directory>
/home/itssahil/PROJECTS/Mol_Feturizer/Test_systems_manuscript/rnas/4aob

>  <Rbt.Executable>
rbdock ($Id: //depot/dev/client3/rdock/2013.1/src/exe/rbdock.cxx#4 $)

>  <Rbt.Library>
libRbt.so (2013.1, Build901 2013/11/27)

>  <Rbt.Parameter_File>
/export/apps/rDock/src/rDock_2013.1_src/data/scripts/dock_solv.prm

>  <Rbt.Receptor>
prm/pocket_docking_8.prm

>  <SCORE>
-8.27685

>  <SCORE.INTER>
-9.59612

>  <SCORE.INTER.CONST>
1

>  <SCORE.INTER.POLAR>
0

>  <SCORE.INTER.ROT>
7

>  <SCORE.INTER.SOLV>
14.0597

>  <SCORE.INTER.VDW>
-19.3506

>  <SCORE.INTER.norm>
-0.355412

>  <SCORE.INTRA>
1.31927

>  <SCORE.INTRA.DIHEDRAL>
3.31757

>  <SCORE.INTRA.DIHEDRAL.0>
6.31833

>  <SCORE.INTRA.POLAR>
0

>  <SCORE.INTRA.POLAR.0>
0

>  <SCORE.INTRA.REPUL>
0

>  <SCORE.INTRA.REPUL.0>
0

>  <SCORE.INTRA.SOLV>
-0.570494

>  <SCORE.INTRA.SOLV.lig_0>
-48.4015

>  <SCORE.INTRA.VDW>
-0.0542634

>  <SCORE.INTRA.VDW.0>
-2.83256

>  <SCORE.INTRA.norm>
0.048862

>  <SCORE.RESTR>
0

>  <SCORE.RESTR.CAVITY>
0

>  <SCORE.RESTR.norm>
0

>  <SCORE.SYSTEM>
0

>  <SCORE.SYSTEM.CONST>
0

>  <SCORE.SYSTEM.DIHEDRAL>
0

>  <SCORE.SYSTEM.SOLV>
0

>  <SCORE.SYSTEM.norm>
0

>  <SCORE.heavy>
27

>  <SCORE.norm>
-0.30655

>  <RMSD>
4.992

$$$$
ligand
 OpenBabel02271912153D
libRbt.so/2013.1/901 2013/11/27
 27 29  0  0  0  0  0  0  0  0999 V2000
   15.2764    6.1579   27.4570 N   0  0  0  0  0  0  0  0  0  0  0  0
   14.5332    5.1073   26.7207 C   0  0  2  0  0  0  0  0  0  0  0  0
   13.6302    5.7987   25.7074 C   0  0  0  0  0  0  0  0  0  0  0  0
   12.4894    6.3195   25.9419 O   0  0  0  0  0  0  0  0  0  0  0  0
   13.7665    4.2486   27.7290 C   0  0  0  0  0  0  0  0  0  0  0  0
   14.6823    3.3718   28.5726 C   0  0  0  0  0  0  0  0  0  0  0  0
   15.9534    4.0441   29.7079 S   0  0  2  0  0  0  0  0  0  0  0  0
   17.3182    4.1561   28.5523 C   0  0  0  0  0  0  0  0  0  0  0  0
   16.3015    2.5180   30.6385 C   0  0  0  0  0  0  0  0  0  0  0  0
   15.3056    2.3062   31.7454 C   0  0  1  0  0  0  0  0  0  0  0  0
   15.2071    3.4486   32.6297 O   0  0  0  0  0  0  0  0  0  0  0  0
   13.9048    1.9957   31.2696 C   0  0  1  0  0  0  0  0  0  0  0  0
   13.7306    0.6467   31.3165 O   0  0  0  0  0  0  0  0  0  0  0  0
   13.0989    2.5908   32.4005 C   0  0  1  0  0  0  0  0  0  0  0  0
   13.0829    1.6447   33.3752 O   0  0  0  0  0  0  0  0  0  0  0  0
   13.8839    3.8216   32.9055 C   0  0  2  0  0  0  0  0  0  0  0  0
   14.0285    5.7985   24.5413 O   0  0  0  0  0  0  0  0  0  0  0  0
   14.8199    8.5949   31.0309 N   0  0  0  0  0  0  0  0  0  0  0  0
   15.4311    7.8006   32.0585 C   0  0  0  0  0  0  0  0  0  0  0  0
   15.0808    6.4912   32.4719 N   0  0  0  0  0  0  0  0  0  0  0  0
   14.1050    6.0369   31.7899 C   0  0  0  0  0  0  0  0  0  0  0  0
   13.4118    6.7724   30.7087 C   0  0  0  0  0  0  0  0  0  0  0  0
   13.7656    8.0159   30.3587 C   0  0  0  0  0  0  0  0  0  0  0  0
   13.0534    8.5626   29.3950 N   0  0  0  0  0  0  0  0  0  0  0  0
   12.4282    6.0993   30.1611 N   0  0  0  0  0  0  0  0  0  0  0  0
   12.5098    4.9329   30.8992 C   0  0  0  0  0  0  0  0  0  0  0  0
   13.5526    4.8781   31.9112 N   0  0  0  0  0  0  0  0  0  0  0  0
  2  1  1  1  0  0  0
  2  3  1  0  0  0  0
  2  5  1  0  0  0  0
  3  4  1  0  0  0  0
  3 17  1  0  0  0  0
  5  6  1  0  0  0  0
  7  6  1  6  0  0  0
  7  8  1  0  0  0  0
  7  9  1  0  0  0  0
 10  9  1  6  0  0  0
 10 11  1  0  0  0  0
 10 12  1  0  0  0  0
 11 16  1  0  0  0  0
 12 13  1  1  0  0  0
 12 14  1  0  0  0  0
 14 15  1  1  0  0  0
 14 16  1  0  0  0  0
 16 27  1  6  0  0  0
 18 19  2  0  0  0  0
 18 23  1  0  0  0  0
 19 20  1  0  0  0  0
 20 21  2  0  0  0  0
 21 22  1  0  0  0  0
 21 27  1  0  0  0  0
 22 23  2  0  0  0  0
 22 25  1  0  0  0  0
 23 24  1  0  0  0  0
 25 26  2  0  0  0  0
 26 27  1  0  0  0  0
M  END
>  <CHROM.1>
-81.46862427,-70.40056481,62.35066403,-88.71351759,-83.31447527,-54.15496777
-63.20925664,14.32366783,4.79032688,30.02239510,-1.89776954,-1.42954281,1.84196409

>  <Name>
ligand

>  <RI>
0

>  <Rbt.Current_Directory>
/home/itssahil/PROJECTS/Mol_Feturizer/Test_systems_manuscript/rnas/4aob

>  <Rbt.Executable>
rbdock ($Id: //depot/dev/client3/rdock/2013.1/src/exe/rbdock.cxx#4 $)

>  <Rbt.Library>
libRbt.so (2013.1, Build901 2013/11/27)

>  <Rbt.Parameter_File>
/export/apps/rDock/src/rDock_2013.1_src/data/scripts/dock_solv.prm

>  <Rbt.Receptor>
prm/pocket_docking_4.prm

>  <SCORE>
-13.2317

>  <SCORE.INTER>
-12.0287

>  <SCORE.INTER.CONST>
1

>  <SCORE.INTER.POLAR>
0

>  <SCORE.INTER.ROT>
7

>  <SCORE.INTER.SOLV>
11.05

>  <SCORE.INTER.VDW>
-19.9691

>  <SCORE.INTER.norm>
-0.445506

>  <SCORE.INTRA>
-1.20308

>  <SCORE.INTRA.DIHEDRAL>
-0.744351

>  <SCORE.INTRA.DIHEDRAL.0>
6.31833

>  <SCORE.INTRA.POLAR>
0

>  <SCORE.INTRA.POLAR.0>
0

>  <SCORE.INTRA.REPUL>
0

>  <SCORE.INTRA.REPUL.0>
0

>  <SCORE.INTRA.SOLV>
3.73851

>  <SCORE.INTRA.SOLV.lig_0>
-48.4015

>  <SCORE.INTRA.VDW>
-2.70016

>  <SCORE.INTRA.VDW.0>
-2.83256

>  <SCORE.INTRA.norm>
-0.0445587

>  <SCORE.RESTR>
0

>  <SCORE.RESTR.CAVITY>
0

>  <SCORE.RESTR.norm>
0

>  <SCORE.SYSTEM>
0

>  <SCORE.SYSTEM.CONST>
0

>  <SCORE.SYSTEM.DIHEDRAL>
0

>  <SCORE.SYSTEM.SOLV>
0

>  <SCORE.SYSTEM.norm>
0

>  <SCORE.heavy>
27

>  <SCORE.norm>
-0.490064

>  <RMSD>
5.025

$$$$
ligand
 OpenBabel02271912153D
libRbt.so/2013.1/901 2013/11/27
 27 29  0  0  0  0  0  0  0  0999 V2000
   14.7508    5.7438   26.7311 N   0  0  0  0  0  0  0  0  0  0  0  0
   14.2752    4.3400   26.7704 C   0  0  2  0  0  0  0  0  0  0  0  0
   13.2328    4.2320   27.8759 C   0  0  0  0  0  0  0  0  0  0  0  0
   13.1542    3.3100   28.7541 O   0  0  0  0  0  0  0  0  0  0  0  0
   15.4787    3.4184   26.9801 C   0  0  0  0  0  0  0  0  0  0  0  0
   16.4512    3.9482   28.0254 C   0  0  0  0  0  0  0  0  0  0  0  0
   15.9879    4.2419   29.7734 S   0  0  2  0  0  0  0  0  0  0  0  0
   17.5126    4.9966   30.3358 C   0  0  0  0  0  0  0  0  0  0  0  0
   16.1137    2.5245   30.3659 C   0  0  0  0  0  0  0  0  0  0  0  0
   15.2478    2.2916   31.5734 C   0  0  1  0  0  0  0  0  0  0  0  0
   15.3074    3.3868   32.5189 O   0  0  0  0  0  0  0  0  0  0  0  0
   13.7877    2.0630   31.2560 C   0  0  1  0  0  0  0  0  0  0  0  0
   13.5590    0.7213   31.2565 O   0  0  0  0  0  0  0  0  0  0  0  0
   13.1501    2.6263   32.5045 C   0  0  1  0  0  0  0  0  0  0  0  0
   13.2070    1.6295   33.4257 O   0  0  0  0  0  0  0  0  0  0  0  0
   14.0448    3.7958   32.9713 C   0  0  2  0  0  0  0  0  0  0  0  0
   12.3542    5.0960   27.8753 O   0  0  0  0  0  0  0  0  0  0  0  0
   14.9674    8.6246   31.2376 N   0  0  0  0  0  0  0  0  0  0  0  0
   15.6595    7.7517   32.1429 C   0  0  0  0  0  0  0  0  0  0  0  0
   15.3018    6.4364   32.5297 N   0  0  0  0  0  0  0  0  0  0  0  0
   14.2323    6.0586   31.9490 C   0  0  0  0  0  0  0  0  0  0  0  0
   13.4497    6.8790   30.9976 C   0  0  0  0  0  0  0  0  0  0  0  0
   13.8156    8.1251   30.6699 C   0  0  0  0  0  0  0  0  0  0  0  0
   13.0196    8.7514   29.8278 N   0  0  0  0  0  0  0  0  0  0  0  0
   12.3786    6.2760   30.5401 N   0  0  0  0  0  0  0  0  0  0  0  0
   12.4942    5.0685   31.2038 C   0  0  0  0  0  0  0  0  0  0  0  0
   13.6462    4.9174   32.0783 N   0  0  0  0  0  0  0  0  0  0  0  0
  2  1  1  1  0  0  0
  2  3  1  0  0  0  0
  2  5  1  0  0  0  0
  3  4  1  0  0  0  0
  3 17  1  0  0  0  0
  5  6  1  0  0  0  0
  7  6  1  6  0  0  0
  7  8  1  0  0  0  0
  7  9  1  0  0  0  0
 10  9  1  6  0  0  0
 10 11  1  0  0  0  0
 10 12  1  0  0  0  0
 11 16  1  0  0  0  0
 12 13  1  1  0  0  0
 12 14  1  0  0  0  0
 14 15  1  1  0  0  0
 14 16  1  0  0  0  0
 16 27  1  6  0  0  0
 18 19  2  0  0  0  0
 18 23  1  0  0  0  0
 19 20  1  0  0  0  0
 20 21  2  0  0  0  0
 21 22  1  0  0  0  0
 21 27  1  0  0  0  0
 22 23  2  0  0  0  0
 22 25  1  0  0  0  0
 23 24  1  0  0  0  0
 25 26  2  0  0  0  0
 26 27  1  0  0  0  0
M  END
>  <CHROM.1>
-134.87182829,42.82739735,60.70456429,-174.35957861,-155.04552994,-41.94563976
-63.22762551,14.40141607,4.61485743,30.40880846,-1.61778194,-1.44673851,2.72089413

>  <Name>
ligand

>  <RI>
0

>  <Rbt.Current_Directory>
/home/itssahil/PROJECTS/Mol_Feturizer/Test_systems_manuscript/rnas/4aob

>  <Rbt.Executable>
rbdock ($Id: //depot/dev/client3/rdock/2013.1/src/exe/rbdock.cxx#4 $)

>  <Rbt.Library>
libRbt.so (2013.1, Build901 2013/11/27)

>  <Rbt.Parameter_File>
/export/apps/rDock/src/rDock_2013.1_src/data/scripts/dock_solv.prm

>  <Rbt.Receptor>
prm/pocket_docking_4.prm

>  <SCORE>
-13.5594

>  <SCORE.INTER>
-11.9839

>  <SCORE.INTER.CONST>
1

>  <SCORE.INTER.POLAR>
0

>  <SCORE.INTER.ROT>
7

>  <SCORE.INTER.SOLV>
13.4395

>  <SCORE.INTER.VDW>
-20.7358

>  <SCORE.INTER.norm>
-0.443848

>  <SCORE.INTRA>
-1.57554

>  <SCORE.INTRA.DIHEDRAL>
2.00654

>  <SCORE.INTRA.DIHEDRAL.0>
6.31833

>  <SCORE.INTRA.POLAR>
0

>  <SCORE.INTRA.POLAR.0>
0

>  <SCORE.INTRA.REPUL>
0

>  <SCORE.INTRA.REPUL.0>
0

>  <SCORE.INTRA.SOLV>
1.3351

>  <SCORE.INTRA.SOLV.lig_0>
-48.4015

>  <SCORE.INTRA.VDW>
-3.24636

>  <SCORE.INTRA.VDW.0>
-2.83256

>  <SCORE.INTRA.norm>
-0.0583535

>  <SCORE.RESTR>
0

>  <SCORE.RESTR.CAVITY>
0

>  <SCORE.RESTR.norm>
0

>  <SCORE.SYSTEM>
0

>  <SCORE.SYSTEM.CONST>
0

>  <SCORE.SYSTEM.DIHEDRAL>
0

>  <SCORE.SYSTEM.SOLV>
0

>  <SCORE.SYSTEM.norm>
0

>  <SCORE.heavy>
27

>  <SCORE.norm>
-0.502201

>  <RMSD>
5.027

$$$$
ligand
 OpenBabel02271912153D
libRbt.so/2013.1/901 2013/11/27
 27 29  0  0  0  0  0  0  0  0999 V2000
   15.2811    6.1830   27.4780 N   0  0  0  0  0  0  0  0  0  0  0  0
   14.5477    5.1323   26.7321 C   0  0  2  0  0  0  0  0  0  0  0  0
   13.6677    5.8229   25.6983 C   0  0  0  0  0  0  0  0  0  0  0  0
   12.5243    6.3484   25.9078 O   0  0  0  0  0  0  0  0  0  0  0  0
   13.7577    4.2816   27.7291 C   0  0  0  0  0  0  0  0  0  0  0  0
   14.6517    3.3909   28.5816 C   0  0  0  0  0  0  0  0  0  0  0  0
   15.9462    4.0425   29.7024 S   0  0  2  0  0  0  0  0  0  0  0  0
   17.2979    4.1384   28.5301 C   0  0  0  0  0  0  0  0  0  0  0  0
   16.2846    2.5093   30.6249 C   0  0  0  0  0  0  0  0  0  0  0  0
   15.2855    2.2964   31.7287 C   0  0  1  0  0  0  0  0  0  0  0  0
   15.1881    3.4360   32.6169 O   0  0  0  0  0  0  0  0  0  0  0  0
   13.8849    1.9916   31.2485 C   0  0  1  0  0  0  0  0  0  0  0  0
   13.7068    0.6429   31.2902 O   0  0  0  0  0  0  0  0  0  0  0  0
   13.0781    2.5849   32.3796 C   0  0  1  0  0  0  0  0  0  0  0  0
   13.0570    1.6354   33.3509 O   0  0  0  0  0  0  0  0  0  0  0  0
   13.8653    3.8117   32.8909 C   0  0  2  0  0  0  0  0  0  0  0  0
   14.0894    5.8169   24.5404 O   0  0  0  0  0  0  0  0  0  0  0  0
   14.7691    8.6162   31.0812 N   0  0  0  0  0  0  0  0  0  0  0  0
   15.3702    7.8211   32.1142 C   0  0  0  0  0  0  0  0  0  0  0  0
   15.0309    6.5028   32.5078 N   0  0  0  0  0  0  0  0  0  0  0  0
   14.0767    6.0406   31.8009 C   0  0  0  0  0  0  0  0  0  0  0  0
   13.3957    6.7762   30.7121 C   0  0  0  0  0  0  0  0  0  0  0  0
   13.7381    8.0280   30.3813 C   0  0  0  0  0  0  0  0  0  0  0  0
   13.0384    8.5734   29.4077 N   0  0  0  0  0  0  0  0  0  0  0  0
   12.4342    6.0938   30.1373 N   0  0  0  0  0  0  0  0  0  0  0  0
   12.5176    4.9217   30.8661 C   0  0  0  0  0  0  0  0  0  0  0  0
   13.5394    4.8726   31.8996 N   0  0  0  0  0  0  0  0  0  0  0  0
  2  1  1  1  0  0  0
  2  3  1  0  0  0  0
  2  5  1  0  0  0  0
  3  4  1  0  0  0  0
  3 17  1  0  0  0  0
  5  6  1  0  0  0  0
  7  6  1  6  0  0  0
  7  8  1  0  0  0  0
  7  9  1  0  0  0  0
 10  9  1  6  0  0  0
 10 11  1  0  0  0  0
 10 12  1  0  0  0  0
 11 16  1  0  0  0  0
 12 13  1  1  0  0  0
 12 14  1  0  0  0  0
 14 15  1  1  0  0  0
 14 16  1  0  0  0  0
 16 27  1  6  0  0  0
 18 19  2  0  0  0  0
 18 23  1  0  0  0  0
 19 20  1  0  0  0  0
 20 21  2  0  0  0  0
 21 22  1  0  0  0  0
 21 27  1  0  0  0  0
 22 23  2  0  0  0  0
 22 25  1  0  0  0  0
 23 24  1  0  0  0  0
 25 26  2  0  0  0  0
 26 27  1  0  0  0  0
M  END
>  <CHROM.1>
-81.54897666,-71.17211590,60.77302849,-87.35825376,-82.32862569,-53.97063421
-64.73476948,14.31229634,4.79551554,30.01941469,-1.83898543,-1.42421467,1.90401194

>  <Name>
ligand

>  <RI>
0

>  <Rbt.Current_Directory>
/home/itssahil/PROJECTS/Mol_Feturizer/Test_systems_manuscript/rnas/4aob

>  <Rbt.Executable>
rbdock ($Id: //depot/dev/client3/rdock/2013.1/src/exe/rbdock.cxx#4 $)

>  <Rbt.Library>
libRbt.so (2013.1, Build901 2013/11/27)

>  <Rbt.Parameter_File>
/export/apps/rDock/src/rDock_2013.1_src/data/scripts/dock_solv.prm

>  <Rbt.Receptor>
prm/pocket_docking_7.prm

>  <SCORE>
-13.2466

>  <SCORE.INTER>
-12.1152

>  <SCORE.INTER.CONST>
1

>  <SCORE.INTER.POLAR>
0

>  <SCORE.INTER.ROT>
7

>  <SCORE.INTER.SOLV>
11.0944

>  <SCORE.INTER.VDW>
-20.0416

>  <SCORE.INTER.norm>
-0.44871

>  <SCORE.INTRA>
-1.13144

>  <SCORE.INTRA.DIHEDRAL>
-0.892536

>  <SCORE.INTRA.DIHEDRAL.0>
6.31833

>  <SCORE.INTRA.POLAR>
0

>  <SCORE.INTRA.POLAR.0>
0

>  <SCORE.INTRA.REPUL>
0

>  <SCORE.INTRA.REPUL.0>
0

>  <SCORE.INTRA.SOLV>
3.77395

>  <SCORE.INTRA.SOLV.lig_0>
-48.4015

>  <SCORE.INTRA.VDW>
-2.57214

>  <SCORE.INTRA.VDW.0>
-2.83256

>  <SCORE.INTRA.norm>
-0.0419051

>  <SCORE.RESTR>
0

>  <SCORE.RESTR.CAVITY>
0

>  <SCORE.RESTR.norm>
0

>  <SCORE.SYSTEM>
0

>  <SCORE.SYSTEM.CONST>
0

>  <SCORE.SYSTEM.DIHEDRAL>
0

>  <SCORE.SYSTEM.SOLV>
0

>  <SCORE.SYSTEM.norm>
0

>  <SCORE.heavy>
27

>  <SCORE.norm>
-0.490615

>  <RMSD>
5.030

$$$$
ligand
 OpenBabel02271912153D
libRbt.so/2013.1/901 2013/11/27
 27 29  0  0  0  0  0  0  0  0999 V2000
   12.7358    4.7232   27.3916 N   0  0  0  0  0  0  0  0  0  0  0  0
   14.1182    4.7385   27.9273 C   0  0  2  0  0  0  0  0  0  0  0  0
   15.0565    4.3059   26.8081 C   0  0  0  0  0  0  0  0  0  0  0  0
   15.2390    3.1137   26.3921 O   0  0  0  0  0  0  0  0  0  0  0  0
   14.1800    3.8280   29.1557 C   0  0  0  0  0  0  0  0  0  0  0  0
   15.4832    3.9716   29.9304 C   0  0  0  0  0  0  0  0  0  0  0  0
   15.8309    3.0746   31.4896 S   0  0  2  0  0  0  0  0  0  0  0  0
   15.9321    1.4117   30.8299 C   0  0  0  0  0  0  0  0  0  0  0  0
   14.1600    3.1510   32.2097 C   0  0  0  0  0  0  0  0  0  0  0  0
   14.0621    4.2158   33.2674 C   0  0  1  0  0  0  0  0  0  0  0  0
   14.8199    5.4031   32.9316 O   0  0  0  0  0  0  0  0  0  0  0  0
   12.6503    4.6649   33.5678 C   0  0  1  0  0  0  0  0  0  0  0  0
   12.2223    4.0033   34.6775 O   0  0  0  0  0  0  0  0  0  0  0  0
   12.9047    6.0983   33.9715 C   0  0  1  0  0  0  0  0  0  0  0  0
   13.2721    6.0504   35.2785 O   0  0  0  0  0  0  0  0  0  0  0  0
   14.1019    6.5913   33.1290 C   0  0  2  0  0  0  0  0  0  0  0  0
   15.7398    5.1977   26.3020 O   0  0  0  0  0  0  0  0  0  0  0  0
   14.2308    9.4248   28.7554 N   0  0  0  0  0  0  0  0  0  0  0  0
   15.0980    9.3287   29.8952 C   0  0  0  0  0  0  0  0  0  0  0  0
   14.9517    8.4979   31.0338 N   0  0  0  0  0  0  0  0  0  0  0  0
   13.9055    7.7756   30.9474 C   0  0  0  0  0  0  0  0  0  0  0  0
   12.9529    7.7962   29.8148 C   0  0  0  0  0  0  0  0  0  0  0  0
   13.1209    8.6084   28.7631 C   0  0  0  0  0  0  0  0  0  0  0  0
   12.1893    8.5407   27.8345 N   0  0  0  0  0  0  0  0  0  0  0  0
   11.9447    6.9699   29.9602 N   0  0  0  0  0  0  0  0  0  0  0  0
   12.2709    6.4240   31.1880 C   0  0  0  0  0  0  0  0  0  0  0  0
   13.4916    6.9113   31.8101 N   0  0  0  0  0  0  0  0  0  0  0  0
  2  1  1  6  0  0  0
  2  3  1  0  0  0  0
  2  5  1  0  0  0  0
  3  4  1  0  0  0  0
  3 17  1  0  0  0  0
  5  6  1  0  0  0  0
  7  6  1  6  0  0  0
  7  8  1  0  0  0  0
  7  9  1  0  0  0  0
 10  9  1  6  0  0  0
 10 11  1  0  0  0  0
 10 12  1  0  0  0  0
 11 16  1  0  0  0  0
 12 13  1  1  0  0  0
 12 14  1  0  0  0  0
 14 15  1  1  0  0  0
 14 16  1  0  0  0  0
 16 27  1  6  0  0  0
 18 19  2  0  0  0  0
 18 23  1  0  0  0  0
 19 20  1  0  0  0  0
 20 21  2  0  0  0  0
 21 22  1  0  0  0  0
 21 27  1  0  0  0  0
 22 23  2  0  0  0  0
 22 25  1  0  0  0  0
 23 24  1  0  0  0  0
 25 26  2  0  0  0  0
 26 27  1  0  0  0  0
M  END
>  <CHROM.1>
-76.76726215,-169.40294643,177.14093160,67.96771498,-101.74386499,37.83776266
-101.08281416,14.06219123,5.53006701,30.63043241,-1.21750902,-1.20767049
2.04367333

>  <Name>
ligand

>  <RI>
0

>  <Rbt.Current_Directory>
/home/itssahil/PROJECTS/Mol_Feturizer/Test_systems_manuscript/rnas/4aob

>  <Rbt.Executable>
rbdock ($Id: //depot/dev/client3/rdock/2013.1/src/exe/rbdock.cxx#4 $)

>  <Rbt.Library>
libRbt.so (2013.1, Build901 2013/11/27)

>  <Rbt.Parameter_File>
/export/apps/rDock/src/rDock_2013.1_src/data/scripts/dock_solv.prm

>  <Rbt.Receptor>
prm/pocket_docking_3.prm

>  <SCORE>
-12.4612

>  <SCORE.INTER>
-13.1545

>  <SCORE.INTER.CONST>
1

>  <SCORE.INTER.POLAR>
0

>  <SCORE.INTER.ROT>
7

>  <SCORE.INTER.SOLV>
12.497

>  <SCORE.INTER.VDW>
-21.202

>  <SCORE.INTER.norm>
-0.487205

>  <SCORE.INTRA>
0.693375

>  <SCORE.INTRA.DIHEDRAL>
2.08962

>  <SCORE.INTRA.DIHEDRAL.0>
6.31833

>  <SCORE.INTRA.POLAR>
0

>  <SCORE.INTRA.POLAR.0>
0

>  <SCORE.INTRA.REPUL>
0

>  <SCORE.INTRA.REPUL.0>
0

>  <SCORE.INTRA.SOLV>
0.90905

>  <SCORE.INTRA.SOLV.lig_0>
-48.4015

>  <SCORE.INTRA.VDW>
-0.805962

>  <SCORE.INTRA.VDW.0>
-2.83256

>  <SCORE.INTRA.norm>
0.0256806

>  <SCORE.RESTR>
0

>  <SCORE.RESTR.CAVITY>
0

>  <SCORE.RESTR.norm>
0

>  <SCORE.SYSTEM>
0

>  <SCORE.SYSTEM.CONST>
0

>  <SCORE.SYSTEM.DIHEDRAL>
0

>  <SCORE.SYSTEM.SOLV>
0

>  <SCORE.SYSTEM.norm>
0

>  <SCORE.heavy>
27

>  <SCORE.norm>
-0.461524

>  <RMSD>
5.035

$$$$
ligand
 OpenBabel02271912153D
libRbt.so/2013.1/901 2013/11/27
 27 29  0  0  0  0  0  0  0  0999 V2000
   13.6658    6.4317   25.0368 N   0  0  0  0  0  0  0  0  0  0  0  0
   14.0922    6.1147   26.4210 C   0  0  2  0  0  0  0  0  0  0  0  0
   12.9808    5.3058   27.0773 C   0  0  0  0  0  0  0  0  0  0  0  0
   11.7679    5.6710   27.2295 O   0  0  0  0  0  0  0  0  0  0  0  0
   14.4024    7.4227   27.1521 C   0  0  0  0  0  0  0  0  0  0  0  0
   14.9425    7.1979   28.5581 C   0  0  0  0  0  0  0  0  0  0  0  0
   15.4594    8.5613   29.6674 S   0  0  2  0  0  0  0  0  0  0  0  0
   16.9909    9.0093   28.8524 C   0  0  0  0  0  0  0  0  0  0  0  0
   16.0038    7.5513   31.0816 C   0  0  0  0  0  0  0  0  0  0  0  0
   14.8344    7.0051   31.8535 C   0  0  1  0  0  0  0  0  0  0  0  0
   15.2435    6.1787   32.9701 O   0  0  0  0  0  0  0  0  0  0  0  0
   13.9060    8.0627   32.4055 C   0  0  1  0  0  0  0  0  0  0  0  0
   12.8503    8.1853   31.5552 O   0  0  0  0  0  0  0  0  0  0  0  0
   13.4035    7.3589   33.6443 C   0  0  1  0  0  0  0  0  0  0  0  0
   12.3942    6.5532   33.2231 O   0  0  0  0  0  0  0  0  0  0  0  0
   14.5665    6.4826   34.1598 C   0  0  2  0  0  0  0  0  0  0  0  0
   13.3130    4.2181   27.5517 O   0  0  0  0  0  0  0  0  0  0  0  0
   19.3560    8.3700   34.9800 N   0  0  0  0  0  0  0  0  0  0  0  0
   18.8241    7.3827   34.0841 C   0  0  0  0  0  0  0  0  0  0  0  0
   17.4779    6.9606   33.9524 N   0  0  0  0  0  0  0  0  0  0  0  0
   16.7150    7.5923   34.7542 C   0  0  0  0  0  0  0  0  0  0  0  0
   17.1634    8.6292   35.7104 C   0  0  0  0  0  0  0  0  0  0  0  0
   18.4495    8.9886   35.8132 C   0  0  0  0  0  0  0  0  0  0  0  0
   18.7151    9.9086   36.7177 N   0  0  0  0  0  0  0  0  0  0  0  0
   16.1934    9.1279   36.4389 N   0  0  0  0  0  0  0  0  0  0  0  0
   15.1302    8.4038   35.9317 C   0  0  0  0  0  0  0  0  0  0  0  0
   15.4395    7.4499   34.8786 N   0  0  0  0  0  0  0  0  0  0  0  0
  2  1  1  6  0  0  0
  2  3  1  0  0  0  0
  2  5  1  0  0  0  0
  3  4  1  0  0  0  0
  3 17  1  0  0  0  0
  5  6  1  0  0  0  0
  7  6  1  6  0  0  0
  7  8  1  0  0  0  0
  7  9  1  0  0  0  0
 10  9  1  1  0  0  0
 10 11  1  0  0  0  0
 10 12  1  0  0  0  0
 11 16  1  0  0  0  0
 12 13  1  6  0  0  0
 12 14  1  0  0  0  0
 14 15  1  6  0  0  0
 14 16  1  0  0  0  0
 16 27  1  1  0  0  0
 18 19  2  0  0  0  0
 18 23  1  0  0  0  0
 19 20  1  0  0  0  0
 20 21  2  0  0  0  0
 21 22  1  0  0  0  0
 21 27  1  0  0  0  0
 22 23  2  0  0  0  0
 22 25  1  0  0  0  0
 23 24  1  0  0  0  0
 25 26  2  0  0  0  0
 26 27  1  0  0  0  0
M  END
>  <CHROM.1>
-58.13626136,-176.06696645,177.94354499,-73.31917000,-75.47170422,178.98715530
-24.55953057,15.27464590,7.43321572,31.70842348,-2.00618312,0.39681473,1.50114476

>  <Name>
ligand

>  <RI>
0

>  <Rbt.Current_Directory>
/home/itssahil/PROJECTS/Mol_Feturizer/Test_systems_manuscript/rnas/4aob

>  <Rbt.Executable>
rbdock ($Id: //depot/dev/client3/rdock/2013.1/src/exe/rbdock.cxx#4 $)

>  <Rbt.Library>
libRbt.so (2013.1, Build901 2013/11/27)

>  <Rbt.Parameter_File>
/export/apps/rDock/src/rDock_2013.1_src/data/scripts/dock_solv.prm

>  <Rbt.Receptor>
prm/pocket_docking_7.prm

>  <SCORE>
-11.6453

>  <SCORE.INTER>
-10.1232

>  <SCORE.INTER.CONST>
1

>  <SCORE.INTER.POLAR>
0

>  <SCORE.INTER.ROT>
7

>  <SCORE.INTER.SOLV>
12.103

>  <SCORE.INTER.VDW>
-19.0498

>  <SCORE.INTER.norm>
-0.374935

>  <SCORE.INTRA>
-1.5221

>  <SCORE.INTRA.DIHEDRAL>
-3.03002

>  <SCORE.INTRA.DIHEDRAL.0>
6.31833

>  <SCORE.INTRA.POLAR>
0

>  <SCORE.INTRA.POLAR.0>
0

>  <SCORE.INTRA.REPUL>
0

>  <SCORE.INTRA.REPUL.0>
0

>  <SCORE.INTRA.SOLV>
-0.544939

>  <SCORE.INTRA.SOLV.lig_0>
-48.4015

>  <SCORE.INTRA.VDW>
0.26538

>  <SCORE.INTRA.VDW.0>
-2.83256

>  <SCORE.INTRA.norm>
-0.0563741

>  <SCORE.RESTR>
0

>  <SCORE.RESTR.CAVITY>
0

>  <SCORE.RESTR.norm>
0

>  <SCORE.SYSTEM>
0

>  <SCORE.SYSTEM.CONST>
0

>  <SCORE.SYSTEM.DIHEDRAL>
0

>  <SCORE.SYSTEM.SOLV>
0

>  <SCORE.SYSTEM.norm>
0

>  <SCORE.heavy>
27

>  <SCORE.norm>
-0.431309

>  <RMSD>
5.054

$$$$
ligand
 OpenBabel02271912153D
libRbt.so/2013.1/901 2013/11/27
 27 29  0  0  0  0  0  0  0  0999 V2000
   13.5027    9.3933   28.3758 N   0  0  0  0  0  0  0  0  0  0  0  0
   12.8936    8.1929   28.9975 C   0  0  2  0  0  0  0  0  0  0  0  0
   11.6976    8.6513   29.8220 C   0  0  0  0  0  0  0  0  0  0  0  0
   11.7195    9.0340   31.0388 O   0  0  0  0  0  0  0  0  0  0  0  0
   13.9602    7.4728   29.8255 C   0  0  0  0  0  0  0  0  0  0  0  0
   14.6220    6.3298   29.0674 C   0  0  0  0  0  0  0  0  0  0  0  0
   13.7463    4.7881   28.6060 S   0  0  2  0  0  0  0  0  0  0  0  0
   12.5527    5.4842   27.4653 C   0  0  0  0  0  0  0  0  0  0  0  0
   12.7935    4.5629   30.1415 C   0  0  0  0  0  0  0  0  0  0  0  0
   13.2815    3.3760   30.9258 C   0  0  1  0  0  0  0  0  0  0  0  0
   14.7170    3.3885   31.1160 O   0  0  0  0  0  0  0  0  0  0  0  0
   12.6572    3.2372   32.2954 C   0  0  1  0  0  0  0  0  0  0  0  0
   11.6436    2.3330   32.2094 O   0  0  0  0  0  0  0  0  0  0  0  0
   13.7897    2.5706   33.0406 C   0  0  1  0  0  0  0  0  0  0  0  0
   13.6880    1.2470   32.7524 O   0  0  0  0  0  0  0  0  0  0  0  0
   15.1018    3.1186   32.4371 C   0  0  2  0  0  0  0  0  0  0  0  0
   10.6012    8.5885   29.2632 O   0  0  0  0  0  0  0  0  0  0  0  0
   18.2785    6.9232   34.0520 N   0  0  0  0  0  0  0  0  0  0  0  0
   18.4919    5.6936   33.3427 C   0  0  0  0  0  0  0  0  0  0  0  0
   17.5249    4.7350   32.9504 N   0  0  0  0  0  0  0  0  0  0  0  0
   16.3524    5.0921   33.2987 C   0  0  0  0  0  0  0  0  0  0  0  0
   16.0276    6.3394   34.0261 C   0  0  0  0  0  0  0  0  0  0  0  0
   16.9750    7.2129   34.3916 C   0  0  0  0  0  0  0  0  0  0  0  0
   16.5520    8.2719   35.0508 N   0  0  0  0  0  0  0  0  0  0  0  0
   14.7493    6.4808   34.2836 N   0  0  0  0  0  0  0  0  0  0  0  0
   14.2697    5.3184   33.7086 C   0  0  0  0  0  0  0  0  0  0  0  0
   15.2553    4.4487   33.0865 N   0  0  0  0  0  0  0  0  0  0  0  0
  2  1  1  1  0  0  0
  2  3  1  0  0  0  0
  2  5  1  0  0  0  0
  3  4  1  0  0  0  0
  3 17  1  0  0  0  0
  5  6  1  0  0  0  0
  7  6  1  1  0  0  0
  7  8  1  0  0  0  0
  7  9  1  0  0  0  0
 10  9  1  1  0  0  0
 10 11  1  0  0  0  0
 10 12  1  0  0  0  0
 11 16  1  0  0  0  0
 12 13  1  6  0  0  0
 12 14  1  0  0  0  0
 14 15  1  6  0  0  0
 14 16  1  0  0  0  0
 16 27  1  1  0  0  0
 18 19  2  0  0  0  0
 18 23  1  0  0  0  0
 19 20  1  0  0  0  0
 20 21  2  0  0  0  0
 21 22  1  0  0  0  0
 21 27  1  0  0  0  0
 22 23  2  0  0  0  0
 22 25  1  0  0  0  0
 23 24  1  0  0  0  0
 25 26  2  0  0  0  0
 26 27  1  0  0  0  0
M  END
>  <CHROM.1>
-87.65829003,-96.31060443,-68.23017242,65.11749773,-110.70949040,50.19948252
-99.80056390,14.23992857,5.57865729,31.48195329,-2.62147319,0.81513585,2.90344195

>  <Name>
ligand

>  <RI>
0

>  <Rbt.Current_Directory>
/home/itssahil/PROJECTS/Mol_Feturizer/Test_systems_manuscript/rnas/4aob

>  <Rbt.Executable>
rbdock ($Id: //depot/dev/client3/rdock/2013.1/src/exe/rbdock.cxx#4 $)

>  <Rbt.Library>
libRbt.so (2013.1, Build901 2013/11/27)

>  <Rbt.Parameter_File>
/export/apps/rDock/src/rDock_2013.1_src/data/scripts/dock_solv.prm

>  <Rbt.Receptor>
prm/pocket_docking_5.prm

>  <SCORE>
-8.18649

>  <SCORE.INTER>
-11.2422

>  <SCORE.INTER.CONST>
1

>  <SCORE.INTER.POLAR>
0

>  <SCORE.INTER.ROT>
7

>  <SCORE.INTER.SOLV>
14.6714

>  <SCORE.INTER.VDW>
-20.6519

>  <SCORE.INTER.norm>
-0.416378

>  <SCORE.INTRA>
3.05573

>  <SCORE.INTRA.DIHEDRAL>
5.25082

>  <SCORE.INTRA.DIHEDRAL.0>
6.31833

>  <SCORE.INTRA.POLAR>
0

>  <SCORE.INTRA.POLAR.0>
0

>  <SCORE.INTRA.REPUL>
0

>  <SCORE.INTRA.REPUL.0>
0

>  <SCORE.INTRA.SOLV>
0.213985

>  <SCORE.INTRA.SOLV.lig_0>
-48.4015

>  <SCORE.INTRA.VDW>
0.323326

>  <SCORE.INTRA.VDW.0>
-2.83256

>  <SCORE.INTRA.norm>
0.113175

>  <SCORE.RESTR>
0

>  <SCORE.RESTR.CAVITY>
0

>  <SCORE.RESTR.norm>
0

>  <SCORE.SYSTEM>
0

>  <SCORE.SYSTEM.CONST>
0

>  <SCORE.SYSTEM.DIHEDRAL>
0

>  <SCORE.SYSTEM.SOLV>
0

>  <SCORE.SYSTEM.norm>
0

>  <SCORE.heavy>
27

>  <SCORE.norm>
-0.303203

>  <RMSD>
5.067

$$$$
ligand
 OpenBabel02271912153D
libRbt.so/2013.1/901 2013/11/27
 27 29  0  0  0  0  0  0  0  0999 V2000
   16.7031    2.4522   29.3793 N   0  0  0  0  0  0  0  0  0  0  0  0
   15.9475    2.9962   30.5332 C   0  0  2  0  0  0  0  0  0  0  0  0
   16.7063    2.6290   31.8019 C   0  0  0  0  0  0  0  0  0  0  0  0
   17.0859    3.4338   32.7161 O   0  0  0  0  0  0  0  0  0  0  0  0
   14.5232    2.4379   30.4959 C   0  0  0  0  0  0  0  0  0  0  0  0
   13.5590    3.2245   31.3739 C   0  0  0  0  0  0  0  0  0  0  0  0
   13.7742    3.4169   33.1831 S   0  0  2  0  0  0  0  0  0  0  0  0
   12.2729    2.6017   33.7237 C   0  0  0  0  0  0  0  0  0  0  0  0
   13.3697    5.1883   33.3043 C   0  0  0  0  0  0  0  0  0  0  0  0
   14.5258    5.9836   33.8454 C   0  0  1  0  0  0  0  0  0  0  0  0
   15.7021    5.8950   33.0055 O   0  0  0  0  0  0  0  0  0  0  0  0
   14.2323    7.4538   34.0383 C   0  0  1  0  0  0  0  0  0  0  0  0
   13.9224    7.6557   35.3481 O   0  0  0  0  0  0  0  0  0  0  0  0
   15.6080    8.0347   33.8091 C   0  0  1  0  0  0  0  0  0  0  0  0
   16.2600    7.9090   34.9942 O   0  0  0  0  0  0  0  0  0  0  0  0
   16.2984    7.1394   32.7564 C   0  0  2  0  0  0  0  0  0  0  0  0
   17.0258    1.4444   31.9157 O   0  0  0  0  0  0  0  0  0  0  0  0
   15.6856    6.3773   27.6361 N   0  0  0  0  0  0  0  0  0  0  0  0
   16.3154    5.6179   28.6787 C   0  0  0  0  0  0  0  0  0  0  0  0
   16.4063    5.9375   30.0562 N   0  0  0  0  0  0  0  0  0  0  0  0
   15.8233    7.0409   30.3140 C   0  0  0  0  0  0  0  0  0  0  0  0
   15.1423    7.8931   29.3139 C   0  0  0  0  0  0  0  0  0  0  0  0
   15.0920    7.5608   28.0174 C   0  0  0  0  0  0  0  0  0  0  0  0
   14.4725    8.4175   27.2316 N   0  0  0  0  0  0  0  0  0  0  0  0
   14.6262    8.9878   29.8195 N   0  0  0  0  0  0  0  0  0  0  0  0
   14.9806    8.8173   31.1451 C   0  0  0  0  0  0  0  0  0  0  0  0
   15.7197    7.6072   31.4678 N   0  0  0  0  0  0  0  0  0  0  0  0
  2  1  1  6  0  0  0
  2  3  1  0  0  0  0
  2  5  1  0  0  0  0
  3  4  1  0  0  0  0
  3 17  1  0  0  0  0
  5  6  1  0  0  0  0
  7  6  1  6  0  0  0
  7  8  1  0  0  0  0
  7  9  1  0  0  0  0
 10  9  1  6  0  0  0
 10 11  1  0  0  0  0
 10 12  1  0  0  0  0
 11 16  1  0  0  0  0
 12 13  1  1  0  0  0
 12 14  1  0  0  0  0
 14 15  1  1  0  0  0
 14 16  1  0  0  0  0
 16 27  1  6  0  0  0
 18 19  2  0  0  0  0
 18 23  1  0  0  0  0
 19 20  1  0  0  0  0
 20 21  2  0  0  0  0
 21 22  1  0  0  0  0
 21 27  1  0  0  0  0
 22 23  2  0  0  0  0
 22 25  1  0  0  0  0
 23 24  1  0  0  0  0
 25 26  2  0  0  0  0
 26 27  1  0  0  0  0
M  END
>  <CHROM.1>
126.51072812,-163.32256033,-60.10504541,-117.86528616,-119.19357508,60.77156586
-62.11530050,15.17990956,5.54872647,31.64665874,-1.92733393,1.36168479,-0.20027189

>  <Name>
ligand

>  <RI>
0

>  <Rbt.Current_Directory>
/home/itssahil/PROJECTS/Mol_Feturizer/Test_systems_manuscript/rnas/4aob

>  <Rbt.Executable>
rbdock ($Id: //depot/dev/client3/rdock/2013.1/src/exe/rbdock.cxx#4 $)

>  <Rbt.Library>
libRbt.so (2013.1, Build901 2013/11/27)

>  <Rbt.Parameter_File>
/export/apps/rDock/src/rDock_2013.1_src/data/scripts/dock_solv.prm

>  <Rbt.Receptor>
prm/pocket_docking_5.prm

>  <SCORE>
-10.1067

>  <SCORE.INTER>
-10.9788

>  <SCORE.INTER.CONST>
1

>  <SCORE.INTER.POLAR>
0

>  <SCORE.INTER.ROT>
7

>  <SCORE.INTER.SOLV>
10.462

>  <SCORE.INTER.VDW>
-19.0732

>  <SCORE.INTER.norm>
-0.406621

>  <SCORE.INTRA>
0.872095

>  <SCORE.INTRA.DIHEDRAL>
6.00723

>  <SCORE.INTRA.DIHEDRAL.0>
6.31833

>  <SCORE.INTRA.POLAR>
0

>  <SCORE.INTRA.POLAR.0>
0

>  <SCORE.INTRA.REPUL>
0

>  <SCORE.INTRA.REPUL.0>
0

>  <SCORE.INTRA.SOLV>
0.305567

>  <SCORE.INTRA.SOLV.lig_0>
-48.4015

>  <SCORE.INTRA.VDW>
-2.28431

>  <SCORE.INTRA.VDW.0>
-2.83256

>  <SCORE.INTRA.norm>
0.0322998

>  <SCORE.RESTR>
0

>  <SCORE.RESTR.CAVITY>
0

>  <SCORE.RESTR.norm>
0

>  <SCORE.SYSTEM>
0

>  <SCORE.SYSTEM.CONST>
0

>  <SCORE.SYSTEM.DIHEDRAL>
0

>  <SCORE.SYSTEM.SOLV>
0

>  <SCORE.SYSTEM.norm>
0

>  <SCORE.heavy>
27

>  <SCORE.norm>
-0.374321

>  <RMSD>
5.071

$$$$
ligand
 OpenBabel02271912153D
libRbt.so/2013.1/901 2013/11/27
 27 29  0  0  0  0  0  0  0  0999 V2000
   15.1687    7.5953   26.4913 N   0  0  0  0  0  0  0  0  0  0  0  0
   14.8204    6.2417   26.9861 C   0  0  2  0  0  0  0  0  0  0  0  0
   14.7790    5.3036   25.7867 C   0  0  0  0  0  0  0  0  0  0  0  0
   14.3902    5.5990   24.6081 O   0  0  0  0  0  0  0  0  0  0  0  0
   13.4911    6.3204   27.7400 C   0  0  0  0  0  0  0  0  0  0  0  0
   13.1606    5.0350   28.4869 C   0  0  0  0  0  0  0  0  0  0  0  0
   14.1519    4.4050   29.8930 S   0  0  2  0  0  0  0  0  0  0  0  0
   15.0327    5.9110   30.3012 C   0  0  0  0  0  0  0  0  0  0  0  0
   15.3674    3.4402   28.9401 C   0  0  0  0  0  0  0  0  0  0  0  0
   16.2757    2.6504   29.8419 C   0  0  1  0  0  0  0  0  0  0  0  0
   17.1976    3.4918   30.5761 O   0  0  0  0  0  0  0  0  0  0  0  0
   15.5525    1.7975   30.8591 C   0  0  1  0  0  0  0  0  0  0  0  0
   15.4883    0.5263   30.3772 O   0  0  0  0  0  0  0  0  0  0  0  0
   16.5649    1.8006   31.9805 C   0  0  1  0  0  0  0  0  0  0  0  0
   17.4644    0.8331   31.6637 O   0  0  0  0  0  0  0  0  0  0  0  0
   17.2681    3.1754   31.9403 C   0  0  2  0  0  0  0  0  0  0  0  0
   15.1031    4.1348   26.0045 O   0  0  0  0  0  0  0  0  0  0  0  0
   16.4193    7.5956   34.5701 N   0  0  0  0  0  0  0  0  0  0  0  0
   17.5858    7.0119   33.9710 C   0  0  0  0  0  0  0  0  0  0  0  0
   17.6825    5.7872   33.2647 N   0  0  0  0  0  0  0  0  0  0  0  0
   16.5508    5.2062   33.1902 C   0  0  0  0  0  0  0  0  0  0  0  0
   15.2916    5.7266   33.7681 C   0  0  0  0  0  0  0  0  0  0  0  0
   15.2468    6.8832   34.4420 C   0  0  0  0  0  0  0  0  0  0  0  0
   14.0670    7.2200   34.9210 N   0  0  0  0  0  0  0  0  0  0  0  0
   14.2586    4.9427   33.5708 N   0  0  0  0  0  0  0  0  0  0  0  0
   14.8731    3.9285   32.8597 C   0  0  0  0  0  0  0  0  0  0  0  0
   16.2973    4.0829   32.6100 N   0  0  0  0  0  0  0  0  0  0  0  0
  2  1  1  6  0  0  0
  2  3  1  0  0  0  0
  2  5  1  0  0  0  0
  3  4  1  0  0  0  0
  3 17  1  0  0  0  0
  5  6  1  0  0  0  0
  7  6  1  6  0  0  0
  7  8  1  0  0  0  0
  7  9  1  0  0  0  0
 10  9  1  1  0  0  0
 10 11  1  0  0  0  0
 10 12  1  0  0  0  0
 11 16  1  0  0  0  0
 12 13  1  6  0  0  0
 12 14  1  0  0  0  0
 14 15  1  6  0  0  0
 14 16  1  0  0  0  0
 16 27  1  1  0  0  0
 18 19  2  0  0  0  0
 18 23  1  0  0  0  0
 19 20  1  0  0  0  0
 20 21  2  0  0  0  0
 21 22  1  0  0  0  0
 21 27  1  0  0  0  0
 22 23  2  0  0  0  0
 22 25  1  0  0  0  0
 23 24  1  0  0  0  0
 25 26  2  0  0  0  0
 26 27  1  0  0  0  0
M  END
>  <CHROM.1>
-34.78826228,-170.33757696,65.30066356,17.51621200,-173.90498223,-70.33650799
-96.67094437,15.47046448,4.62481341,30.59013759,2.23905743,1.23153427,-2.22893268

>  <Name>
ligand

>  <RI>
0

>  <Rbt.Current_Directory>
/home/itssahil/PROJECTS/Mol_Feturizer/Test_systems_manuscript/rnas/4aob

>  <Rbt.Executable>
rbdock ($Id: //depot/dev/client3/rdock/2013.1/src/exe/rbdock.cxx#4 $)

>  <Rbt.Library>
libRbt.so (2013.1, Build901 2013/11/27)

>  <Rbt.Parameter_File>
/export/apps/rDock/src/rDock_2013.1_src/data/scripts/dock_solv.prm

>  <Rbt.Receptor>
prm/pocket_docking_5.prm

>  <SCORE>
-8.67551

>  <SCORE.INTER>
-9.4832

>  <SCORE.INTER.CONST>
1

>  <SCORE.INTER.POLAR>
0

>  <SCORE.INTER.ROT>
7

>  <SCORE.INTER.SOLV>
13.9171

>  <SCORE.INTER.VDW>
-19.2278

>  <SCORE.INTER.norm>
-0.351229

>  <SCORE.INTRA>
0.80769

>  <SCORE.INTRA.DIHEDRAL>
1.11646

>  <SCORE.INTRA.DIHEDRAL.0>
6.31833

>  <SCORE.INTRA.POLAR>
0

>  <SCORE.INTRA.POLAR.0>
0

>  <SCORE.INTRA.REPUL>
0

>  <SCORE.INTRA.REPUL.0>
0

>  <SCORE.INTRA.SOLV>
0.0399403

>  <SCORE.INTRA.SOLV.lig_0>
-48.4015

>  <SCORE.INTRA.VDW>
0.229492

>  <SCORE.INTRA.VDW.0>
-2.83256

>  <SCORE.INTRA.norm>
0.0299144

>  <SCORE.RESTR>
0

>  <SCORE.RESTR.CAVITY>
0

>  <SCORE.RESTR.norm>
0

>  <SCORE.SYSTEM>
0

>  <SCORE.SYSTEM.CONST>
0

>  <SCORE.SYSTEM.DIHEDRAL>
0

>  <SCORE.SYSTEM.SOLV>
0

>  <SCORE.SYSTEM.norm>
0

>  <SCORE.heavy>
27

>  <SCORE.norm>
-0.321315

>  <RMSD>
5.071

$$$$
ligand
 OpenBabel02271912153D
libRbt.so/2013.1/901 2013/11/27
 27 29  0  0  0  0  0  0  0  0999 V2000
   14.3210    6.8226   24.2025 N   0  0  0  0  0  0  0  0  0  0  0  0
   14.1960    6.5337   25.6514 C   0  0  2  0  0  0  0  0  0  0  0  0
   14.8656    7.6705   26.4126 C   0  0  0  0  0  0  0  0  0  0  0  0
   14.4191    8.2460   27.4600 O   0  0  0  0  0  0  0  0  0  0  0  0
   14.8181    5.1649   25.9356 C   0  0  0  0  0  0  0  0  0  0  0  0
   14.6224    4.7169   27.3779 C   0  0  0  0  0  0  0  0  0  0  0  0
   13.0057    4.1836   28.0552 S   0  0  2  0  0  0  0  0  0  0  0  0
   12.1577    5.7614   28.0089 C   0  0  0  0  0  0  0  0  0  0  0  0
   13.5005    4.0120   29.7993 C   0  0  0  0  0  0  0  0  0  0  0  0
   14.1421    2.6776   30.0632 C   0  0  1  0  0  0  0  0  0  0  0  0
   15.5035    2.6098   29.5744 O   0  0  0  0  0  0  0  0  0  0  0  0
   14.1779    2.2831   31.5220 C   0  0  1  0  0  0  0  0  0  0  0  0
   13.1326    1.4446   31.7600 O   0  0  0  0  0  0  0  0  0  0  0  0
   15.4362    1.4473   31.5434 C   0  0  1  0  0  0  0  0  0  0  0  0
   15.0623    0.2126   31.1176 O   0  0  0  0  0  0  0  0  0  0  0  0
   16.3992    2.0677   30.5071 C   0  0  2  0  0  0  0  0  0  0  0  0
   15.9121    8.1026   25.9263 O   0  0  0  0  0  0  0  0  0  0  0  0
   19.1736    6.4756   30.2896 N   0  0  0  0  0  0  0  0  0  0  0  0
   18.7135    5.5487   29.2947 C   0  0  0  0  0  0  0  0  0  0  0  0
   17.9466    4.3729   29.4878 N   0  0  0  0  0  0  0  0  0  0  0  0
   17.6669    4.2005   30.7189 C   0  0  0  0  0  0  0  0  0  0  0  0
   18.0881    5.0987   31.8173 C   0  0  0  0  0  0  0  0  0  0  0  0
   18.8260    6.1937   31.5927 C   0  0  0  0  0  0  0  0  0  0  0  0
   19.1486    6.8941   32.6606 N   0  0  0  0  0  0  0  0  0  0  0  0
   17.6878    4.7043   33.0024 N   0  0  0  0  0  0  0  0  0  0  0  0
   17.0065    3.5557   32.6437 C   0  0  0  0  0  0  0  0  0  0  0  0
   16.9799    3.2341   31.2258 N   0  0  0  0  0  0  0  0  0  0  0  0
  2  1  1  6  0  0  0
  2  3  1  0  0  0  0
  2  5  1  0  0  0  0
  3  4  1  0  0  0  0
  3 17  1  0  0  0  0
  5  6  1  0  0  0  0
  7  6  1  6  0  0  0
  7  8  1  0  0  0  0
  7  9  1  0  0  0  0
 10  9  1  1  0  0  0
 10 11  1  0  0  0  0
 10 12  1  0  0  0  0
 11 16  1  0  0  0  0
 12 13  1  6  0  0  0
 12 14  1  0  0  0  0
 14 15  1  6  0  0  0
 14 16  1  0  0  0  0
 16 27  1  1  0  0  0
 18 19  2  0  0  0  0
 18 23  1  0  0  0  0
 19 20  1  0  0  0  0
 20 21  2  0  0  0  0
 21 22  1  0  0  0  0
 21 27  1  0  0  0  0
 22 23  2  0  0  0  0
 22 25  1  0  0  0  0
 23 24  1  0  0  0  0
 25 26  2  0  0  0  0
 26 27  1  0  0  0  0
M  END
>  <CHROM.1>
137.20090591,-174.56244201,71.68437289,-68.25368486,-83.42272141,76.23976838
-60.90638702,15.60544177,4.56925239,29.42924385,-1.99574187,0.58627911,2.37486819

>  <Name>
ligand

>  <RI>
0

>  <Rbt.Current_Directory>
/home/itssahil/PROJECTS/Mol_Feturizer/Test_systems_manuscript/rnas/4aob

>  <Rbt.Executable>
rbdock ($Id: //depot/dev/client3/rdock/2013.1/src/exe/rbdock.cxx#4 $)

>  <Rbt.Library>
libRbt.so (2013.1, Build901 2013/11/27)

>  <Rbt.Parameter_File>
/export/apps/rDock/src/rDock_2013.1_src/data/scripts/dock_solv.prm

>  <Rbt.Receptor>
prm/pocket_docking_8.prm

>  <SCORE>
-15.1736

>  <SCORE.INTER>
-14.4196

>  <SCORE.INTER.CONST>
1

>  <SCORE.INTER.POLAR>
0

>  <SCORE.INTER.ROT>
7

>  <SCORE.INTER.SOLV>
13.3086

>  <SCORE.INTER.VDW>
-22.3159

>  <SCORE.INTER.norm>
-0.534059

>  <SCORE.INTRA>
-0.753999

>  <SCORE.INTRA.DIHEDRAL>
-1.06276

>  <SCORE.INTRA.DIHEDRAL.0>
6.31833

>  <SCORE.INTRA.POLAR>
0

>  <SCORE.INTRA.POLAR.0>
0

>  <SCORE.INTRA.REPUL>
0

>  <SCORE.INTRA.REPUL.0>
0

>  <SCORE.INTRA.SOLV>
-0.415114

>  <SCORE.INTRA.SOLV.lig_0>
-48.4015

>  <SCORE.INTRA.VDW>
-0.0150622

>  <SCORE.INTRA.VDW.0>
-2.83256

>  <SCORE.INTRA.norm>
-0.0279259

>  <SCORE.RESTR>
0

>  <SCORE.RESTR.CAVITY>
0

>  <SCORE.RESTR.norm>
0

>  <SCORE.SYSTEM>
0

>  <SCORE.SYSTEM.CONST>
0

>  <SCORE.SYSTEM.DIHEDRAL>
0

>  <SCORE.SYSTEM.SOLV>
0

>  <SCORE.SYSTEM.norm>
0

>  <SCORE.heavy>
27

>  <SCORE.norm>
-0.561984

>  <RMSD>
5.072

$$$$
ligand
 OpenBabel02271912153D
libRbt.so/2013.1/901 2013/11/27
 27 29  0  0  0  0  0  0  0  0999 V2000
   15.4186    4.9629   26.7577 N   0  0  0  0  0  0  0  0  0  0  0  0
   14.9995    3.8454   27.6374 C   0  0  2  0  0  0  0  0  0  0  0  0
   13.5305    4.0509   27.9838 C   0  0  0  0  0  0  0  0  0  0  0  0
   12.8758    5.1416   27.8874 O   0  0  0  0  0  0  0  0  0  0  0  0
   15.9132    3.8161   28.8646 C   0  0  0  0  0  0  0  0  0  0  0  0
   15.6714    2.6009   29.7500 C   0  0  0  0  0  0  0  0  0  0  0  0
   15.3823    2.7130   31.5557 S   0  0  2  0  0  0  0  0  0  0  0  0
   14.6345    1.1050   31.8118 C   0  0  0  0  0  0  0  0  0  0  0  0
   13.9591    3.8486   31.5193 C   0  0  0  0  0  0  0  0  0  0  0  0
   13.8905    4.6890   32.7646 C   0  0  1  0  0  0  0  0  0  0  0  0
   14.7008    5.8856   32.6722 O   0  0  0  0  0  0  0  0  0  0  0  0
   12.4943    5.1306   33.1399 C   0  0  1  0  0  0  0  0  0  0  0  0
   12.0246    4.2836   34.0960 O   0  0  0  0  0  0  0  0  0  0  0  0
   12.8016    6.4452   33.8181 C   0  0  1  0  0  0  0  0  0  0  0  0
   13.1490    6.1267   35.0923 O   0  0  0  0  0  0  0  0  0  0  0  0
   14.0294    7.0417   33.0950 C   0  0  2  0  0  0  0  0  0  0  0  0
   12.9452    3.0736   28.4537 O   0  0  0  0  0  0  0  0  0  0  0  0
   14.4488    7.9097   27.9720 N   0  0  0  0  0  0  0  0  0  0  0  0
   15.2395    7.1724   28.9163 C   0  0  0  0  0  0  0  0  0  0  0  0
   15.0076    7.0047   30.3041 N   0  0  0  0  0  0  0  0  0  0  0  0
   13.9439    7.6031   30.6705 C   0  0  0  0  0  0  0  0  0  0  0  0
   13.0594    8.3827   29.7759 C   0  0  0  0  0  0  0  0  0  0  0  0
   13.3234    8.5287   28.4709 C   0  0  0  0  0  0  0  0  0  0  0  0
   12.4658    9.2637   27.7933 N   0  0  0  0  0  0  0  0  0  0  0  0
   12.0296    8.9162   30.3884 N   0  0  0  0  0  0  0  0  0  0  0  0
   12.2669    8.4629   31.6730 C   0  0  0  0  0  0  0  0  0  0  0  0
   13.4506    7.6395   31.8613 N   0  0  0  0  0  0  0  0  0  0  0  0
  2  1  1  6  0  0  0
  2  3  1  0  0  0  0
  2  5  1  0  0  0  0
  3  4  1  0  0  0  0
  3 17  1  0  0  0  0
  5  6  1  0  0  0  0
  7  6  1  6  0  0  0
  7  8  1  0  0  0  0
  7  9  1  0  0  0  0
 10  9  1  6  0  0  0
 10 11  1  0  0  0  0
 10 12  1  0  0  0  0
 11 16  1  0  0  0  0
 12 13  1  1  0  0  0
 12 14  1  0  0  0  0
 14 15  1  1  0  0  0
 14 16  1  0  0  0  0
 16 27  1  6  0  0  0
 18 19  2  0  0  0  0
 18 23  1  0  0  0  0
 19 20  1  0  0  0  0
 20 21  2  0  0  0  0
 21 22  1  0  0  0  0
 21 27  1  0  0  0  0
 22 23  2  0  0  0  0
 22 25  1  0  0  0  0
 23 24  1  0  0  0  0
 25 26  2  0  0  0  0
 26 27  1  0  0  0  0
M  END
>  <CHROM.1>
-18.83030398,-173.11445117,-128.76932282,161.24087243,-151.02858756,85.88685028
-32.48339619,13.90591617,5.54390614,30.63331810,-1.92804221,-1.21719433,2.10131865

>  <Name>
ligand

>  <RI>
0

>  <Rbt.Current_Directory>
/home/itssahil/PROJECTS/Mol_Feturizer/Test_systems_manuscript/rnas/4aob

>  <Rbt.Executable>
rbdock ($Id: //depot/dev/client3/rdock/2013.1/src/exe/rbdock.cxx#4 $)

>  <Rbt.Library>
libRbt.so (2013.1, Build901 2013/11/27)

>  <Rbt.Parameter_File>
/export/apps/rDock/src/rDock_2013.1_src/data/scripts/dock_solv.prm

>  <Rbt.Receptor>
prm/pocket_docking_2.prm

>  <SCORE>
-6.08566

>  <SCORE.INTER>
-8.61941

>  <SCORE.INTER.CONST>
1

>  <SCORE.INTER.POLAR>
0

>  <SCORE.INTER.ROT>
7

>  <SCORE.INTER.SOLV>
12.5321

>  <SCORE.INTER.VDW>
-18.1903

>  <SCORE.INTER.norm>
-0.319237

>  <SCORE.INTRA>
1.68504

>  <SCORE.INTRA.DIHEDRAL>
7.46826

>  <SCORE.INTRA.DIHEDRAL.0>
6.31833

>  <SCORE.INTRA.POLAR>
0

>  <SCORE.INTRA.POLAR.0>
0

>  <SCORE.INTRA.REPUL>
0

>  <SCORE.INTRA.REPUL.0>
0

>  <SCORE.INTRA.SOLV>
0.154763

>  <SCORE.INTRA.SOLV.lig_0>
-48.4015

>  <SCORE.INTRA.VDW>
-2.12647

>  <SCORE.INTRA.VDW.0>
-2.83256

>  <SCORE.INTRA.norm>
0.0624091

>  <SCORE.RESTR>
0.848699

>  <SCORE.RESTR.CAVITY>
0.848699

>  <SCORE.RESTR.norm>
0.0314333

>  <SCORE.SYSTEM>
0

>  <SCORE.SYSTEM.CONST>
0

>  <SCORE.SYSTEM.DIHEDRAL>
0

>  <SCORE.SYSTEM.SOLV>
0

>  <SCORE.SYSTEM.norm>
0

>  <SCORE.heavy>
27

>  <SCORE.norm>
-0.225395

>  <RMSD>
5.105

$$$$
ligand
 OpenBabel02271912153D
libRbt.so/2013.1/901 2013/11/27
 27 29  0  0  0  0  0  0  0  0999 V2000
   11.2994    8.5906   29.6823 N   0  0  0  0  0  0  0  0  0  0  0  0
   12.7580    8.5403   29.9438 C   0  0  2  0  0  0  0  0  0  0  0  0
   13.4742    8.9909   28.6772 C   0  0  0  0  0  0  0  0  0  0  0  0
   13.1791    8.6573   27.4817 O   0  0  0  0  0  0  0  0  0  0  0  0
   13.1312    7.1215   30.3789 C   0  0  0  0  0  0  0  0  0  0  0  0
   12.7323    6.8226   31.8179 C   0  0  0  0  0  0  0  0  0  0  0  0
   12.9995    5.1967   32.6190 S   0  0  2  0  0  0  0  0  0  0  0  0
   12.8702    5.7122   34.3302 C   0  0  0  0  0  0  0  0  0  0  0  0
   14.7948    5.0651   32.3437 C   0  0  0  0  0  0  0  0  0  0  0  0
   15.2264    3.6329   32.1871 C   0  0  1  0  0  0  0  0  0  0  0  0
   14.4131    2.9092   31.2323 O   0  0  0  0  0  0  0  0  0  0  0  0
   16.6659    3.4613   31.7587 C   0  0  1  0  0  0  0  0  0  0  0  0
   17.4110    3.2075   32.8690 O   0  0  0  0  0  0  0  0  0  0  0  0
   16.5631    2.1686   30.9835 C   0  0  1  0  0  0  0  0  0  0  0  0
   16.6192    1.1795   31.9130 O   0  0  0  0  0  0  0  0  0  0  0  0
   15.1681    2.1583   30.3201 C   0  0  2  0  0  0  0  0  0  0  0  0
   14.4668    9.7022   28.8427 O   0  0  0  0  0  0  0  0  0  0  0  0
   12.9924    5.2920   26.7675 N   0  0  0  0  0  0  0  0  0  0  0  0
   12.4829    4.5987   27.9165 C   0  0  0  0  0  0  0  0  0  0  0  0
   13.1936    3.7711   28.8209 N   0  0  0  0  0  0  0  0  0  0  0  0
   14.4270    3.6982   28.5090 C   0  0  0  0  0  0  0  0  0  0  0  0
   15.0495    4.3775   27.3508 C   0  0  0  0  0  0  0  0  0  0  0  0
   14.3377    5.1402   26.5109 C   0  0  0  0  0  0  0  0  0  0  0  0
   15.0109    5.6700   25.5104 N   0  0  0  0  0  0  0  0  0  0  0  0
   16.3339    4.1405   27.2297 N   0  0  0  0  0  0  0  0  0  0  0  0
   16.5182    3.3130   28.3220 C   0  0  0  0  0  0  0  0  0  0  0  0
   15.3417    3.0350   29.1303 N   0  0  0  0  0  0  0  0  0  0  0  0
  2  1  1  6  0  0  0
  2  3  1  0  0  0  0
  2  5  1  0  0  0  0
  3  4  1  0  0  0  0
  3 17  1  0  0  0  0
  5  6  1  0  0  0  0
  7  6  1  6  0  0  0
  7  8  1  0  0  0  0
  7  9  1  0  0  0  0
 10  9  1  6  0  0  0
 10 11  1  0  0  0  0
 10 12  1  0  0  0  0
 11 16  1  0  0  0  0
 12 13  1  1  0  0  0
 12 14  1  0  0  0  0
 14 15  1  1  0  0  0
 14 16  1  0  0  0  0
 16 27  1  6  0  0  0
 18 19  2  0  0  0  0
 18 23  1  0  0  0  0
 19 20  1  0  0  0  0
 20 21  2  0  0  0  0
 21 22  1  0  0  0  0
 21 27  1  0  0  0  0
 22 23  2  0  0  0  0
 22 25  1  0  0  0  0
 23 24  1  0  0  0  0
 25 26  2  0  0  0  0
 26 27  1  0  0  0  0
M  END
>  <CHROM.1>
-42.48126514,-76.17176483,178.22463656,161.09950503,-149.01726994,49.41827449
-48.71675467,14.36511401,5.06804372,29.96150192,2.44638376,1.01613418,-1.37486017

>  <Name>
ligand

>  <RI>
0

>  <Rbt.Current_Directory>
/home/itssahil/PROJECTS/Mol_Feturizer/Test_systems_manuscript/rnas/4aob

>  <Rbt.Executable>
rbdock ($Id: //depot/dev/client3/rdock/2013.1/src/exe/rbdock.cxx#4 $)

>  <Rbt.Library>
libRbt.so (2013.1, Build901 2013/11/27)

>  <Rbt.Parameter_File>
/export/apps/rDock/src/rDock_2013.1_src/data/scripts/dock_solv.prm

>  <Rbt.Receptor>
prm/pocket_docking_3.prm

>  <SCORE>
-11.677

>  <SCORE.INTER>
-11.2542

>  <SCORE.INTER.CONST>
1

>  <SCORE.INTER.POLAR>
0

>  <SCORE.INTER.ROT>
7

>  <SCORE.INTER.SOLV>
18.461

>  <SCORE.INTER.VDW>
-21.9231

>  <SCORE.INTER.norm>
-0.41682

>  <SCORE.INTRA>
-0.422831

>  <SCORE.INTRA.DIHEDRAL>
1.63332

>  <SCORE.INTRA.DIHEDRAL.0>
6.31833

>  <SCORE.INTRA.POLAR>
0

>  <SCORE.INTRA.POLAR.0>
0

>  <SCORE.INTRA.REPUL>
0

>  <SCORE.INTRA.REPUL.0>
0

>  <SCORE.INTRA.SOLV>
-0.20524

>  <SCORE.INTRA.SOLV.lig_0>
-48.4015

>  <SCORE.INTRA.VDW>
-1.13687

>  <SCORE.INTRA.VDW.0>
-2.83256

>  <SCORE.INTRA.norm>
-0.0156604

>  <SCORE.RESTR>
0

>  <SCORE.RESTR.CAVITY>
0

>  <SCORE.RESTR.norm>
0

>  <SCORE.SYSTEM>
0

>  <SCORE.SYSTEM.CONST>
0

>  <SCORE.SYSTEM.DIHEDRAL>
0

>  <SCORE.SYSTEM.SOLV>
0

>  <SCORE.SYSTEM.norm>
0

>  <SCORE.heavy>
27

>  <SCORE.norm>
-0.432481

>  <RMSD>
5.105

$$$$
ligand
 OpenBabel02271912153D
libRbt.so/2013.1/901 2013/11/27
 27 29  0  0  0  0  0  0  0  0999 V2000
   17.5007    8.1065   30.2969 N   0  0  0  0  0  0  0  0  0  0  0  0
   17.8691    6.8048   30.9035 C   0  0  2  0  0  0  0  0  0  0  0  0
   17.1801    5.7065   30.1041 C   0  0  0  0  0  0  0  0  0  0  0  0
   16.0637    5.8016   29.4941 O   0  0  0  0  0  0  0  0  0  0  0  0
   17.4704    6.8200   32.3809 C   0  0  0  0  0  0  0  0  0  0  0  0
   15.9998    7.1554   32.5906 C   0  0  0  0  0  0  0  0  0  0  0  0
   14.6342    6.0242   32.1300 S   0  0  2  0  0  0  0  0  0  0  0  0
   13.2925    6.8600   32.9738 C   0  0  0  0  0  0  0  0  0  0  0  0
   15.0524    4.6469   33.2455 C   0  0  0  0  0  0  0  0  0  0  0  0
   14.7003    3.3170   32.6377 C   0  0  1  0  0  0  0  0  0  0  0  0
   13.3017    3.2259   32.2737 O   0  0  0  0  0  0  0  0  0  0  0  0
   15.5001    2.9666   31.4038 C   0  0  1  0  0  0  0  0  0  0  0  0
   16.5165    2.1423   31.7777 O   0  0  0  0  0  0  0  0  0  0  0  0
   14.4908    2.1238   30.6599 C   0  0  1  0  0  0  0  0  0  0  0  0
   14.5878    0.8793   31.1958 O   0  0  0  0  0  0  0  0  0  0  0  0
   13.0981    2.7065   30.9872 C   0  0  2  0  0  0  0  0  0  0  0  0
   17.7402    4.6089   30.1012 O   0  0  0  0  0  0  0  0  0  0  0  0
   14.2321    4.9035   26.3979 N   0  0  0  0  0  0  0  0  0  0  0  0
   14.4593    3.5983   26.9505 C   0  0  0  0  0  0  0  0  0  0  0  0
   14.0868    3.1169   28.2301 N   0  0  0  0  0  0  0  0  0  0  0  0
   13.4721    4.0105   28.8991 C   0  0  0  0  0  0  0  0  0  0  0  0
   13.1842    5.3804   28.4184 C   0  0  0  0  0  0  0  0  0  0  0  0
   13.5673    5.8002   27.2057 C   0  0  0  0  0  0  0  0  0  0  0  0
   13.2652    7.0480   26.9113 N   0  0  0  0  0  0  0  0  0  0  0  0
   12.5488    6.1224   29.2937 N   0  0  0  0  0  0  0  0  0  0  0  0
   12.4325    5.2101   30.3262 C   0  0  0  0  0  0  0  0  0  0  0  0
   12.9965    3.8905   30.0916 N   0  0  0  0  0  0  0  0  0  0  0  0
  2  1  1  6  0  0  0
  2  3  1  0  0  0  0
  2  5  1  0  0  0  0
  3  4  1  0  0  0  0
  3 17  1  0  0  0  0
  5  6  1  0  0  0  0
  7  6  1  1  0  0  0
  7  8  1  0  0  0  0
  7  9  1  0  0  0  0
 10  9  1  6  0  0  0
 10 11  1  0  0  0  0
 10 12  1  0  0  0  0
 11 16  1  0  0  0  0
 12 13  1  1  0  0  0
 12 14  1  0  0  0  0
 14 15  1  1  0  0  0
 14 16  1  0  0  0  0
 16 27  1  6  0  0  0
 18 19  2  0  0  0  0
 18 23  1  0  0  0  0
 19 20  1  0  0  0  0
 20 21  2  0  0  0  0
 21 22  1  0  0  0  0
 21 27  1  0  0  0  0
 22 23  2  0  0  0  0
 22 25  1  0  0  0  0
 23 24  1  0  0  0  0
 25 26  2  0  0  0  0
 26 27  1  0  0  0  0
M  END
>  <CHROM.1>
-30.57839464,54.96335143,69.72434743,167.78894843,-146.75490900,-56.89626079
141.30960909,14.81609592,4.81317303,30.43895081,-0.42878396,-0.94716396,-0.82322393

>  <Name>
ligand

>  <RI>
0

>  <Rbt.Current_Directory>
/home/itssahil/PROJECTS/Mol_Feturizer/Test_systems_manuscript/rnas/4aob

>  <Rbt.Executable>
rbdock ($Id: //depot/dev/client3/rdock/2013.1/src/exe/rbdock.cxx#4 $)

>  <Rbt.Library>
libRbt.so (2013.1, Build901 2013/11/27)

>  <Rbt.Parameter_File>
/export/apps/rDock/src/rDock_2013.1_src/data/scripts/dock_solv.prm

>  <Rbt.Receptor>
prm/pocket_docking_5.prm

>  <SCORE>
-10.1319

>  <SCORE.INTER>
-8.92597

>  <SCORE.INTER.CONST>
1

>  <SCORE.INTER.POLAR>
0

>  <SCORE.INTER.ROT>
7

>  <SCORE.INTER.SOLV>
6.92052

>  <SCORE.INTER.VDW>
-16.5242

>  <SCORE.INTER.norm>
-0.330592

>  <SCORE.INTRA>
-1.20596

>  <SCORE.INTRA.DIHEDRAL>
0.749408

>  <SCORE.INTRA.DIHEDRAL.0>
6.31833

>  <SCORE.INTRA.POLAR>
0

>  <SCORE.INTRA.POLAR.0>
0

>  <SCORE.INTRA.REPUL>
0

>  <SCORE.INTRA.REPUL.0>
0

>  <SCORE.INTRA.SOLV>
0.904955

>  <SCORE.INTRA.SOLV.lig_0>
-48.4015

>  <SCORE.INTRA.VDW>
-2.03314

>  <SCORE.INTRA.VDW.0>
-2.83256

>  <SCORE.INTRA.norm>
-0.044665

>  <SCORE.RESTR>
0

>  <SCORE.RESTR.CAVITY>
0

>  <SCORE.RESTR.norm>
0

>  <SCORE.SYSTEM>
0

>  <SCORE.SYSTEM.CONST>
0

>  <SCORE.SYSTEM.DIHEDRAL>
0

>  <SCORE.SYSTEM.SOLV>
0

>  <SCORE.SYSTEM.norm>
0

>  <SCORE.heavy>
27

>  <SCORE.norm>
-0.375257

>  <RMSD>
5.114

$$$$
ligand
 OpenBabel02271912153D
libRbt.so/2013.1/901 2013/11/27
 27 29  0  0  0  0  0  0  0  0999 V2000
   15.4197    5.8020   28.4528 N   0  0  0  0  0  0  0  0  0  0  0  0
   15.8083    4.4115   28.1153 C   0  0  2  0  0  0  0  0  0  0  0  0
   15.0961    4.0290   26.8243 C   0  0  0  0  0  0  0  0  0  0  0  0
   14.2540    4.7426   26.1847 O   0  0  0  0  0  0  0  0  0  0  0  0
   15.4554    3.5021   29.2944 C   0  0  0  0  0  0  0  0  0  0  0  0
   16.2153    3.8623   30.5641 C   0  0  0  0  0  0  0  0  0  0  0  0
   16.2803    2.7782   32.0396 S   0  0  2  0  0  0  0  0  0  0  0  0
   16.7079    1.2392   31.2277 C   0  0  0  0  0  0  0  0  0  0  0  0
   14.4887    2.6287   32.3293 C   0  0  0  0  0  0  0  0  0  0  0  0
   13.9779    3.7318   33.2148 C   0  0  1  0  0  0  0  0  0  0  0  0
   14.4316    5.0397   32.7899 O   0  0  0  0  0  0  0  0  0  0  0  0
   12.4712    3.7999   33.3160 C   0  0  1  0  0  0  0  0  0  0  0  0
   12.0946    3.1692   34.4617 O   0  0  0  0  0  0  0  0  0  0  0  0
   12.2837    5.2824   33.5386 C   0  0  1  0  0  0  0  0  0  0  0  0
   12.4799    5.4801   34.8682 O   0  0  0  0  0  0  0  0  0  0  0  0
   13.4059    5.9951   32.7520 C   0  0  2  0  0  0  0  0  0  0  0  0
   15.3236    2.8954   26.3981 O   0  0  0  0  0  0  0  0  0  0  0  0
   11.1307    8.5875   28.8433 N   0  0  0  0  0  0  0  0  0  0  0  0
   11.5524    8.9626   30.1632 C   0  0  0  0  0  0  0  0  0  0  0  0
   12.1775    8.1506   31.1419 N   0  0  0  0  0  0  0  0  0  0  0  0
   12.3593    6.9651   30.7113 C   0  0  0  0  0  0  0  0  0  0  0  0
   11.9666    6.4819   29.3686 C   0  0  0  0  0  0  0  0  0  0  0  0
   11.3638    7.2797   28.4775 C   0  0  0  0  0  0  0  0  0  0  0  0
   11.0501    6.7180   27.3281 N   0  0  0  0  0  0  0  0  0  0  0  0
   12.2475    5.2176   29.1614 N   0  0  0  0  0  0  0  0  0  0  0  0
   12.8252    4.9086   30.3791 C   0  0  0  0  0  0  0  0  0  0  0  0
   12.9072    5.9881   31.3500 N   0  0  0  0  0  0  0  0  0  0  0  0
  2  1  1  1  0  0  0
  2  3  1  0  0  0  0
  2  5  1  0  0  0  0
  3  4  1  0  0  0  0
  3 17  1  0  0  0  0
  5  6  1  0  0  0  0
  7  6  1  6  0  0  0
  7  8  1  0  0  0  0
  7  9  1  0  0  0  0
 10  9  1  6  0  0  0
 10 11  1  0  0  0  0
 10 12  1  0  0  0  0
 11 16  1  0  0  0  0
 12 13  1  1  0  0  0
 12 14  1  0  0  0  0
 14 15  1  1  0  0  0
 14 16  1  0  0  0  0
 16 27  1  6  0  0  0
 18 19  2  0  0  0  0
 18 23  1  0  0  0  0
 19 20  1  0  0  0  0
 20 21  2  0  0  0  0
 21 22  1  0  0  0  0
 21 27  1  0  0  0  0
 22 23  2  0  0  0  0
 22 25  1  0  0  0  0
 23 24  1  0  0  0  0
 25 26  2  0  0  0  0
 26 27  1  0  0  0  0
M  END
>  <CHROM.1>
-3.76456014,-62.35296075,-167.22680601,48.69606634,-88.50537470,48.42947273
-152.23260978,13.71728732,4.92377923,30.59190227,-2.04792196,-0.80358887
1.81041057

>  <Name>
ligand

>  <RI>
0

>  <Rbt.Current_Directory>
/home/itssahil/PROJECTS/Mol_Feturizer/Test_systems_manuscript/rnas/4aob

>  <Rbt.Executable>
rbdock ($Id: //depot/dev/client3/rdock/2013.1/src/exe/rbdock.cxx#4 $)

>  <Rbt.Library>
libRbt.so (2013.1, Build901 2013/11/27)

>  <Rbt.Parameter_File>
/export/apps/rDock/src/rDock_2013.1_src/data/scripts/dock_solv.prm

>  <Rbt.Receptor>
prm/pocket_docking_6.prm

>  <SCORE>
-17.0935

>  <SCORE.INTER>
-16.0516

>  <SCORE.INTER.CONST>
1

>  <SCORE.INTER.POLAR>
0

>  <SCORE.INTER.ROT>
7

>  <SCORE.INTER.SOLV>
12.5016

>  <SCORE.INTER.VDW>
-23.1349

>  <SCORE.INTER.norm>
-0.594503

>  <SCORE.INTRA>
-1.04382

>  <SCORE.INTRA.DIHEDRAL>
-1.2185

>  <SCORE.INTRA.DIHEDRAL.0>
6.31833

>  <SCORE.INTRA.POLAR>
0

>  <SCORE.INTRA.POLAR.0>
0

>  <SCORE.INTRA.REPUL>
0

>  <SCORE.INTRA.REPUL.0>
0

>  <SCORE.INTRA.SOLV>
1.15581

>  <SCORE.INTRA.SOLV.lig_0>
-48.4015

>  <SCORE.INTRA.VDW>
-1.01247

>  <SCORE.INTRA.VDW.0>
-2.83256

>  <SCORE.INTRA.norm>
-0.0386598

>  <SCORE.RESTR>
0.00188147

>  <SCORE.RESTR.CAVITY>
0.00188147

>  <SCORE.RESTR.norm>
6.96841e-05

>  <SCORE.SYSTEM>
0

>  <SCORE.SYSTEM.CONST>
0

>  <SCORE.SYSTEM.DIHEDRAL>
0

>  <SCORE.SYSTEM.SOLV>
0

>  <SCORE.SYSTEM.norm>
0

>  <SCORE.heavy>
27

>  <SCORE.norm>
-0.633093

>  <RMSD>
5.126

$$$$
ligand
 OpenBabel02271912153D
libRbt.so/2013.1/901 2013/11/27
 27 29  0  0  0  0  0  0  0  0999 V2000
   12.4157    5.1500   28.2218 N   0  0  0  0  0  0  0  0  0  0  0  0
   13.8564    4.8799   28.4447 C   0  0  2  0  0  0  0  0  0  0  0  0
   14.4444    4.3765   27.1328 C   0  0  0  0  0  0  0  0  0  0  0  0
   14.6183    3.1572   26.8001 O   0  0  0  0  0  0  0  0  0  0  0  0
   13.9975    3.8806   29.5950 C   0  0  0  0  0  0  0  0  0  0  0  0
   13.5548    4.4568   30.9334 C   0  0  0  0  0  0  0  0  0  0  0  0
   13.7994    3.5936   32.5308 S   0  0  2  0  0  0  0  0  0  0  0  0
   12.5903    2.2878   32.3222 C   0  0  0  0  0  0  0  0  0  0  0  0
   12.9536    4.7956   33.6060 C   0  0  0  0  0  0  0  0  0  0  0  0
   13.8675    5.9230   34.0007 C   0  0  1  0  0  0  0  0  0  0  0  0
   14.7736    6.3016   32.9366 O   0  0  0  0  0  0  0  0  0  0  0  0
   13.1504    7.1803   34.4366 C   0  0  1  0  0  0  0  0  0  0  0  0
   13.1064    7.1931   35.7968 O   0  0  0  0  0  0  0  0  0  0  0  0
   14.1563    8.2243   34.0114 C   0  0  1  0  0  0  0  0  0  0  0  0
   15.0707    8.2807   35.0144 O   0  0  0  0  0  0  0  0  0  0  0  0
   14.8407    7.6876   32.7348 C   0  0  2  0  0  0  0  0  0  0  0  0
   14.8366    5.2432   26.3496 O   0  0  0  0  0  0  0  0  0  0  0  0
   13.9477    9.2490   27.8420 N   0  0  0  0  0  0  0  0  0  0  0  0
   15.1435    9.0008   28.5963 C   0  0  0  0  0  0  0  0  0  0  0  0
   15.2512    8.5634   29.9398 N   0  0  0  0  0  0  0  0  0  0  0  0
   14.1024    8.3828   30.4605 C   0  0  0  0  0  0  0  0  0  0  0  0
   12.8136    8.6046   29.7673 C   0  0  0  0  0  0  0  0  0  0  0  0
   12.7563    9.0331   28.4997 C   0  0  0  0  0  0  0  0  0  0  0  0
   11.5461    9.2084   28.0100 N   0  0  0  0  0  0  0  0  0  0  0  0
   11.7646    8.3617   30.5163 N   0  0  0  0  0  0  0  0  0  0  0  0
   12.3999    7.9795   31.6835 C   0  0  0  0  0  0  0  0  0  0  0  0
   13.8539    7.9816   31.6605 N   0  0  0  0  0  0  0  0  0  0  0  0
  2  1  1  6  0  0  0
  2  3  1  0  0  0  0
  2  5  1  0  0  0  0
  3  4  1  0  0  0  0
  3 17  1  0  0  0  0
  5  6  1  0  0  0  0
  7  6  1  6  0  0  0
  7  8  1  0  0  0  0
  7  9  1  0  0  0  0
 10  9  1  6  0  0  0
 10 11  1  0  0  0  0
 10 12  1  0  0  0  0
 11 16  1  0  0  0  0
 12 13  1  1  0  0  0
 12 14  1  0  0  0  0
 14 15  1  1  0  0  0
 14 16  1  0  0  0  0
 16 27  1  6  0  0  0
 18 19  2  0  0  0  0
 18 23  1  0  0  0  0
 19 20  1  0  0  0  0
 20 21  2  0  0  0  0
 21 22  1  0  0  0  0
 21 27  1  0  0  0  0
 22 23  2  0  0  0  0
 22 25  1  0  0  0  0
 23 24  1  0  0  0  0
 25 26  2  0  0  0  0
 26 27  1  0  0  0  0
M  END
>  <CHROM.1>
-96.43914725,-66.82584066,-171.90329787,-71.26887705,-84.05588447,36.23625273
-112.11503563,13.71053912,6.42069447,30.92758162,-1.14182573,-1.53929562
1.89535776

>  <Name>
ligand

>  <RI>
0

>  <Rbt.Current_Directory>
/home/itssahil/PROJECTS/Mol_Feturizer/Test_systems_manuscript/rnas/4aob

>  <Rbt.Executable>
rbdock ($Id: //depot/dev/client3/rdock/2013.1/src/exe/rbdock.cxx#4 $)

>  <Rbt.Library>
libRbt.so (2013.1, Build901 2013/11/27)

>  <Rbt.Parameter_File>
/export/apps/rDock/src/rDock_2013.1_src/data/scripts/dock_solv.prm

>  <Rbt.Receptor>
prm/pocket_docking_2.prm

>  <SCORE>
-14.2634

>  <SCORE.INTER>
-14.4314

>  <SCORE.INTER.CONST>
1

>  <SCORE.INTER.POLAR>
0

>  <SCORE.INTER.ROT>
7

>  <SCORE.INTER.SOLV>
12.2081

>  <SCORE.INTER.VDW>
-21.957

>  <SCORE.INTER.norm>
-0.534498

>  <SCORE.INTRA>
-0.600348

>  <SCORE.INTRA.DIHEDRAL>
-0.169189

>  <SCORE.INTRA.DIHEDRAL.0>
6.31833

>  <SCORE.INTRA.POLAR>
0

>  <SCORE.INTRA.POLAR.0>
0

>  <SCORE.INTRA.REPUL>
0

>  <SCORE.INTRA.REPUL.0>
0

>  <SCORE.INTRA.SOLV>
0.550684

>  <SCORE.INTRA.SOLV.lig_0>
-48.4015

>  <SCORE.INTRA.VDW>
-0.791095

>  <SCORE.INTRA.VDW.0>
-2.83256

>  <SCORE.INTRA.norm>
-0.0222351

>  <SCORE.RESTR>
0.76836

>  <SCORE.RESTR.CAVITY>
0.76836

>  <SCORE.RESTR.norm>
0.0284578

>  <SCORE.SYSTEM>
0

>  <SCORE.SYSTEM.CONST>
0

>  <SCORE.SYSTEM.DIHEDRAL>
0

>  <SCORE.SYSTEM.SOLV>
0

>  <SCORE.SYSTEM.norm>
0

>  <SCORE.heavy>
27

>  <SCORE.norm>
-0.528275

>  <RMSD>
5.132

$$$$
ligand
 OpenBabel02271912153D
libRbt.so/2013.1/901 2013/11/27
 27 29  0  0  0  0  0  0  0  0999 V2000
   11.8818    8.2916   24.9525 N   0  0  0  0  0  0  0  0  0  0  0  0
   12.8862    7.2346   25.2215 C   0  0  2  0  0  0  0  0  0  0  0  0
   13.0347    6.4001   23.9559 C   0  0  0  0  0  0  0  0  0  0  0  0
   14.1162    5.8962   23.5045 O   0  0  0  0  0  0  0  0  0  0  0  0
   12.4307    6.4203   26.4344 C   0  0  0  0  0  0  0  0  0  0  0  0
   13.4959    5.4490   26.9254 C   0  0  0  0  0  0  0  0  0  0  0  0
   13.2156    4.2497   28.2818 S   0  0  2  0  0  0  0  0  0  0  0  0
   12.7829    5.4050   29.5812 C   0  0  0  0  0  0  0  0  0  0  0  0
   14.9561    3.8424   28.6301 C   0  0  0  0  0  0  0  0  0  0  0  0
   15.0729    2.6780   29.5748 C   0  0  1  0  0  0  0  0  0  0  0  0
   16.4489    2.3057   29.8295 O   0  0  0  0  0  0  0  0  0  0  0  0
   14.4210    2.9018   30.9201 C   0  0  1  0  0  0  0  0  0  0  0  0
   13.1906    2.3204   30.8968 O   0  0  0  0  0  0  0  0  0  0  0  0
   15.3055    2.0428   31.7933 C   0  0  1  0  0  0  0  0  0  0  0  0
   14.8292    0.7772   31.6634 O   0  0  0  0  0  0  0  0  0  0  0  0
   16.7260    2.1113   31.1903 C   0  0  2  0  0  0  0  0  0  0  0  0
   12.0123    6.2522   23.2841 O   0  0  0  0  0  0  0  0  0  0  0  0
   19.0020    6.6698   30.0883 N   0  0  0  0  0  0  0  0  0  0  0  0
   18.5468    5.5732   29.2816 C   0  0  0  0  0  0  0  0  0  0  0  0
   17.9259    4.3742   29.7114 N   0  0  0  0  0  0  0  0  0  0  0  0
   17.7833    4.3557   30.9775 C   0  0  0  0  0  0  0  0  0  0  0  0
   18.2128    5.4354   31.8943 C   0  0  0  0  0  0  0  0  0  0  0  0
   18.8102    6.5477   31.4473 C   0  0  0  0  0  0  0  0  0  0  0  0
   19.1594    7.4192   32.3711 N   0  0  0  0  0  0  0  0  0  0  0  0
   17.9691    5.1809   33.1577 N   0  0  0  0  0  0  0  0  0  0  0  0
   17.3779    3.9373   33.0311 C   0  0  0  0  0  0  0  0  0  0  0  0
   17.2499    3.4151   31.6799 N   0  0  0  0  0  0  0  0  0  0  0  0
  2  1  1  6  0  0  0
  2  3  1  0  0  0  0
  2  5  1  0  0  0  0
  3  4  1  0  0  0  0
  3 17  1  0  0  0  0
  5  6  1  0  0  0  0
  7  6  1  6  0  0  0
  7  8  1  0  0  0  0
  7  9  1  0  0  0  0
 10  9  1  6  0  0  0
 10 11  1  0  0  0  0
 10 12  1  0  0  0  0
 11 16  1  0  0  0  0
 12 13  1  6  0  0  0
 12 14  1  0  0  0  0
 14 15  1  6  0  0  0
 14 16  1  0  0  0  0
 16 27  1  1  0  0  0
 18 19  2  0  0  0  0
 18 23  1  0  0  0  0
 19 20  1  0  0  0  0
 20 21  2  0  0  0  0
 21 22  1  0  0  0  0
 21 27  1  0  0  0  0
 22 23  2  0  0  0  0
 22 25  1  0  0  0  0
 23 24  1  0  0  0  0
 25 26  2  0  0  0  0
 26 27  1  0  0  0  0
M  END
>  <CHROM.1>
142.76320762,-171.07821056,-175.48243712,-58.65132218,-170.44057209,177.95890388
-22.19630820,15.31678767,4.66762585,29.15649139,-2.31445848,0.61314238,2.37442526

>  <Name>
ligand

>  <RI>
0

>  <Rbt.Current_Directory>
/home/itssahil/PROJECTS/Mol_Feturizer/Test_systems_manuscript/rnas/4aob

>  <Rbt.Executable>
rbdock ($Id: //depot/dev/client3/rdock/2013.1/src/exe/rbdock.cxx#4 $)

>  <Rbt.Library>
libRbt.so (2013.1, Build901 2013/11/27)

>  <Rbt.Parameter_File>
/export/apps/rDock/src/rDock_2013.1_src/data/scripts/dock_solv.prm

>  <Rbt.Receptor>
prm/pocket_docking_7.prm

>  <SCORE>
-13.7462

>  <SCORE.INTER>
-13.5135

>  <SCORE.INTER.CONST>
1

>  <SCORE.INTER.POLAR>
0

>  <SCORE.INTER.ROT>
7

>  <SCORE.INTER.SOLV>
8.67739

>  <SCORE.INTER.VDW>
-20.1681

>  <SCORE.INTER.norm>
-0.500499

>  <SCORE.INTRA>
-0.232762

>  <SCORE.INTRA.DIHEDRAL>
-1.58356

>  <SCORE.INTRA.DIHEDRAL.0>
6.31833

>  <SCORE.INTRA.POLAR>
0

>  <SCORE.INTRA.POLAR.0>
0

>  <SCORE.INTRA.REPUL>
0

>  <SCORE.INTRA.REPUL.0>
0

>  <SCORE.INTRA.SOLV>
-0.408708

>  <SCORE.INTRA.SOLV.lig_0>
-48.4015

>  <SCORE.INTRA.VDW>
0.763373

>  <SCORE.INTRA.VDW.0>
-2.83256

>  <SCORE.INTRA.norm>
-0.00862082

>  <SCORE.RESTR>
0

>  <SCORE.RESTR.CAVITY>
0

>  <SCORE.RESTR.norm>
0

>  <SCORE.SYSTEM>
0

>  <SCORE.SYSTEM.CONST>
0

>  <SCORE.SYSTEM.DIHEDRAL>
0

>  <SCORE.SYSTEM.SOLV>
0

>  <SCORE.SYSTEM.norm>
0

>  <SCORE.heavy>
27

>  <SCORE.norm>
-0.50912

>  <RMSD>
5.143

$$$$
ligand
 OpenBabel02271912153D
libRbt.so/2013.1/901 2013/11/27
 27 29  0  0  0  0  0  0  0  0999 V2000
   11.1461    9.6441   27.4530 N   0  0  0  0  0  0  0  0  0  0  0  0
   12.2646    8.9703   28.1553 C   0  0  2  0  0  0  0  0  0  0  0  0
   11.6646    7.9692   29.1341 C   0  0  0  0  0  0  0  0  0  0  0  0
   11.7513    8.0098   30.4062 O   0  0  0  0  0  0  0  0  0  0  0  0
   13.1326   10.0336   28.8319 C   0  0  0  0  0  0  0  0  0  0  0  0
   14.5080    9.5097   29.2230 C   0  0  0  0  0  0  0  0  0  0  0  0
   14.8267    7.7654   29.6837 S   0  0  2  0  0  0  0  0  0  0  0  0
   16.4600    7.9654   30.3927 C   0  0  0  0  0  0  0  0  0  0  0  0
   15.1584    7.1142   28.0157 C   0  0  0  0  0  0  0  0  0  0  0  0
   14.8926    5.6361   27.9364 C   0  0  1  0  0  0  0  0  0  0  0  0
   15.5127    4.9016   29.0194 O   0  0  0  0  0  0  0  0  0  0  0  0
   13.4265    5.2676   27.9375 C   0  0  1  0  0  0  0  0  0  0  0  0
   13.0408    5.0603   26.6488 O   0  0  0  0  0  0  0  0  0  0  0  0
   13.4898    3.9157   28.6088 C   0  0  1  0  0  0  0  0  0  0  0  0
   13.8113    3.0343   27.6263 O   0  0  0  0  0  0  0  0  0  0  0  0
   14.6491    3.9796   29.6277 C   0  0  2  0  0  0  0  0  0  0  0  0
   11.0896    7.0019   28.6319 O   0  0  0  0  0  0  0  0  0  0  0  0
   15.3596    6.3197   34.2314 N   0  0  0  0  0  0  0  0  0  0  0  0
   16.2542    5.7384   33.2710 C   0  0  0  0  0  0  0  0  0  0  0  0
   15.9285    5.1314   32.0327 N   0  0  0  0  0  0  0  0  0  0  0  0
   14.6722    5.1582   31.8211 C   0  0  0  0  0  0  0  0  0  0  0  0
   13.6700    5.7375   32.7434 C   0  0  0  0  0  0  0  0  0  0  0  0
   14.0195    6.2895   33.9126 C   0  0  0  0  0  0  0  0  0  0  0  0
   13.0272    6.7495   34.6465 N   0  0  0  0  0  0  0  0  0  0  0  0
   12.4359    5.6353   32.3109 N   0  0  0  0  0  0  0  0  0  0  0  0
   12.6670    4.9938   31.1080 C   0  0  0  0  0  0  0  0  0  0  0  0
   14.0541    4.6971   30.7877 N   0  0  0  0  0  0  0  0  0  0  0  0
  2  1  1  1  0  0  0
  2  3  1  0  0  0  0
  2  5  1  0  0  0  0
  3  4  1  0  0  0  0
  3 17  1  0  0  0  0
  5  6  1  0  0  0  0
  7  6  1  6  0  0  0
  7  8  1  0  0  0  0
  7  9  1  0  0  0  0
 10  9  1  1  0  0  0
 10 11  1  0  0  0  0
 10 12  1  0  0  0  0
 11 16  1  0  0  0  0
 12 13  1  6  0  0  0
 12 14  1  0  0  0  0
 14 15  1  6  0  0  0
 14 16  1  0  0  0  0
 16 27  1  1  0  0  0
 18 19  2  0  0  0  0
 18 23  1  0  0  0  0
 19 20  1  0  0  0  0
 20 21  2  0  0  0  0
 21 22  1  0  0  0  0
 21 27  1  0  0  0  0
 22 23  2  0  0  0  0
 22 25  1  0  0  0  0
 23 24  1  0  0  0  0
 25 26  2  0  0  0  0
 26 27  1  0  0  0  0
M  END
>  <CHROM.1>
-115.31784687,-162.97702400,-30.47714592,-166.49314582,-155.79242140,-48.73084526
-63.29313085,13.84635880,6.45035242,30.05593843,2.49652175,1.14520843,-2.12548730

>  <Name>
ligand

>  <RI>
0

>  <Rbt.Current_Directory>
/home/itssahil/PROJECTS/Mol_Feturizer/Test_systems_manuscript/rnas/4aob

>  <Rbt.Executable>
rbdock ($Id: //depot/dev/client3/rdock/2013.1/src/exe/rbdock.cxx#4 $)

>  <Rbt.Library>
libRbt.so (2013.1, Build901 2013/11/27)

>  <Rbt.Parameter_File>
/export/apps/rDock/src/rDock_2013.1_src/data/scripts/dock_solv.prm

>  <Rbt.Receptor>
prm/pocket_docking_3.prm

>  <SCORE>
-5.76217

>  <SCORE.INTER>
-4.14649

>  <SCORE.INTER.CONST>
1

>  <SCORE.INTER.POLAR>
0

>  <SCORE.INTER.ROT>
7

>  <SCORE.INTER.SOLV>
13.8811

>  <SCORE.INTER.VDW>
-15.658

>  <SCORE.INTER.norm>
-0.153574

>  <SCORE.INTRA>
-1.61567

>  <SCORE.INTRA.DIHEDRAL>
4.77849

>  <SCORE.INTRA.DIHEDRAL.0>
6.31833

>  <SCORE.INTRA.POLAR>
0

>  <SCORE.INTRA.POLAR.0>
0

>  <SCORE.INTRA.REPUL>
0

>  <SCORE.INTRA.REPUL.0>
0

>  <SCORE.INTRA.SOLV>
-0.175949

>  <SCORE.INTRA.SOLV.lig_0>
-48.4015

>  <SCORE.INTRA.VDW>
-3.91694

>  <SCORE.INTRA.VDW.0>
-2.83256

>  <SCORE.INTRA.norm>
-0.0598398

>  <SCORE.RESTR>
0

>  <SCORE.RESTR.CAVITY>
0

>  <SCORE.RESTR.norm>
0

>  <SCORE.SYSTEM>
0

>  <SCORE.SYSTEM.CONST>
0

>  <SCORE.SYSTEM.DIHEDRAL>
0

>  <SCORE.SYSTEM.SOLV>
0

>  <SCORE.SYSTEM.norm>
0

>  <SCORE.heavy>
27

>  <SCORE.norm>
-0.213414

>  <RMSD>
5.146

$$$$
ligand
 OpenBabel02271912153D
libRbt.so/2013.1/901 2013/11/27
 27 29  0  0  0  0  0  0  0  0999 V2000
   10.9307    7.9879   28.9173 N   0  0  0  0  0  0  0  0  0  0  0  0
   12.1323    7.1682   28.6296 C   0  0  2  0  0  0  0  0  0  0  0  0
   13.1755    8.0779   27.9937 C   0  0  0  0  0  0  0  0  0  0  0  0
   12.9551    9.0041   27.1446 O   0  0  0  0  0  0  0  0  0  0  0  0
   11.7251    5.9952   27.7352 C   0  0  0  0  0  0  0  0  0  0  0  0
   12.9220    5.2529   27.1560 C   0  0  0  0  0  0  0  0  0  0  0  0
   14.2995    4.6112   28.1794 S   0  0  2  0  0  0  0  0  0  0  0  0
   15.0809    3.5609   26.9559 C   0  0  0  0  0  0  0  0  0  0  0  0
   13.3420    3.4452   29.1992 C   0  0  0  0  0  0  0  0  0  0  0  0
   14.2351    2.6339   30.0970 C   0  0  1  0  0  0  0  0  0  0  0  0
   15.4176    3.3614   30.5082 O   0  0  0  0  0  0  0  0  0  0  0  0
   13.5634    2.1375   31.3570 C   0  0  1  0  0  0  0  0  0  0  0  0
   13.1738    0.8499   31.1504 O   0  0  0  0  0  0  0  0  0  0  0  0
   14.7464    2.1020   32.2959 C   0  0  1  0  0  0  0  0  0  0  0  0
   15.3741    0.9228   32.0488 O   0  0  0  0  0  0  0  0  0  0  0  0
   15.6763    3.2642   31.8829 C   0  0  2  0  0  0  0  0  0  0  0  0
   14.3478    7.8486   28.2966 O   0  0  0  0  0  0  0  0  0  0  0  0
   14.9978    8.4328   31.8593 N   0  0  0  0  0  0  0  0  0  0  0  0
   15.7074    7.5264   31.0017 C   0  0  0  0  0  0  0  0  0  0  0  0
   15.8077    6.1175   31.1153 N   0  0  0  0  0  0  0  0  0  0  0  0
   15.1508    5.6868   32.1187 C   0  0  0  0  0  0  0  0  0  0  0  0
   14.3843    6.5364   33.0574 C   0  0  0  0  0  0  0  0  0  0  0  0
   14.3274    7.8677   32.9222 C   0  0  0  0  0  0  0  0  0  0  0  0
   13.6271    8.5055   33.8376 N   0  0  0  0  0  0  0  0  0  0  0  0
   13.8008    5.8631   34.0200 N   0  0  0  0  0  0  0  0  0  0  0  0
   14.1989    4.5836   33.6786 C   0  0  0  0  0  0  0  0  0  0  0  0
   15.0334    4.4589   32.4943 N   0  0  0  0  0  0  0  0  0  0  0  0
  2  1  1  6  0  0  0
  2  3  1  0  0  0  0
  2  5  1  0  0  0  0
  3  4  1  0  0  0  0
  3 17  1  0  0  0  0
  5  6  1  0  0  0  0
  7  6  1  6  0  0  0
  7  8  1  0  0  0  0
  7  9  1  0  0  0  0
 10  9  1  1  0  0  0
 10 11  1  0  0  0  0
 10 12  1  0  0  0  0
 11 16  1  0  0  0  0
 12 13  1  6  0  0  0
 12 14  1  0  0  0  0
 14 15  1  6  0  0  0
 14 16  1  0  0  0  0
 16 27  1  1  0  0  0
 18 19  2  0  0  0  0
 18 23  1  0  0  0  0
 19 20  1  0  0  0  0
 20 21  2  0  0  0  0
 21 22  1  0  0  0  0
 21 27  1  0  0  0  0
 22 23  2  0  0  0  0
 22 25  1  0  0  0  0
 23 24  1  0  0  0  0
 25 26  2  0  0  0  0
 26 27  1  0  0  0  0
M  END
>  <CHROM.1>
-39.24252752,168.55569350,52.37519093,166.99397383,174.75859663,31.41962446
-49.62611927,14.08355462,5.24558606,30.39889877,2.66067932,-1.28776272,0.48619332

>  <Name>
ligand

>  <RI>
0

>  <Rbt.Current_Directory>
/home/itssahil/PROJECTS/Mol_Feturizer/Test_systems_manuscript/rnas/4aob

>  <Rbt.Executable>
rbdock ($Id: //depot/dev/client3/rdock/2013.1/src/exe/rbdock.cxx#4 $)

>  <Rbt.Library>
libRbt.so (2013.1, Build901 2013/11/27)

>  <Rbt.Parameter_File>
/export/apps/rDock/src/rDock_2013.1_src/data/scripts/dock_solv.prm

>  <Rbt.Receptor>
prm/pocket_docking_4.prm

>  <SCORE>
-7.29361

>  <SCORE.INTER>
-6.06448

>  <SCORE.INTER.CONST>
1

>  <SCORE.INTER.POLAR>
0

>  <SCORE.INTER.ROT>
7

>  <SCORE.INTER.SOLV>
19.2771

>  <SCORE.INTER.VDW>
-18.7354

>  <SCORE.INTER.norm>
-0.22461

>  <SCORE.INTRA>
-1.22914

>  <SCORE.INTRA.DIHEDRAL>
-0.0566854

>  <SCORE.INTRA.DIHEDRAL.0>
6.31833

>  <SCORE.INTRA.POLAR>
0

>  <SCORE.INTRA.POLAR.0>
0

>  <SCORE.INTRA.REPUL>
0

>  <SCORE.INTRA.REPUL.0>
0

>  <SCORE.INTRA.SOLV>
-0.570547

>  <SCORE.INTRA.SOLV.lig_0>
-48.4015

>  <SCORE.INTRA.VDW>
-0.91552

>  <SCORE.INTRA.VDW.0>
-2.83256

>  <SCORE.INTRA.norm>
-0.0455236

>  <SCORE.RESTR>
0

>  <SCORE.RESTR.CAVITY>
0

>  <SCORE.RESTR.norm>
0

>  <SCORE.SYSTEM>
0

>  <SCORE.SYSTEM.CONST>
0

>  <SCORE.SYSTEM.DIHEDRAL>
0

>  <SCORE.SYSTEM.SOLV>
0

>  <SCORE.SYSTEM.norm>
0

>  <SCORE.heavy>
27

>  <SCORE.norm>
-0.270134

>  <RMSD>
5.150

$$$$
ligand
 OpenBabel02271912153D
libRbt.so/2013.1/901 2013/11/27
 27 29  0  0  0  0  0  0  0  0999 V2000
   13.1301    8.5731   25.6078 N   0  0  0  0  0  0  0  0  0  0  0  0
   13.4393    7.5839   26.6680 C   0  0  2  0  0  0  0  0  0  0  0  0
   14.9537    7.4378   26.7417 C   0  0  0  0  0  0  0  0  0  0  0  0
   15.6869    7.6628   27.7612 O   0  0  0  0  0  0  0  0  0  0  0  0
   12.7192    6.2733   26.3433 C   0  0  0  0  0  0  0  0  0  0  0  0
   12.7663    5.2749   27.4923 C   0  0  0  0  0  0  0  0  0  0  0  0
   14.3274    4.6740   28.2397 S   0  0  2  0  0  0  0  0  0  0  0  0
   14.8473    3.5668   26.9304 C   0  0  0  0  0  0  0  0  0  0  0  0
   13.6049    3.5588   29.4850 C   0  0  0  0  0  0  0  0  0  0  0  0
   14.6275    2.5978   30.0261 C   0  0  1  0  0  0  0  0  0  0  0  0
   15.9275    3.2112   30.2014 O   0  0  0  0  0  0  0  0  0  0  0  0
   14.2532    1.9732   31.3507 C   0  0  1  0  0  0  0  0  0  0  0  0
   13.7266    0.7425   31.1051 O   0  0  0  0  0  0  0  0  0  0  0  0
   15.6258    1.7622   31.9456 C   0  0  1  0  0  0  0  0  0  0  0  0
   16.0798    0.5977   31.4133 O   0  0  0  0  0  0  0  0  0  0  0  0
   16.5108    2.9246   31.4439 C   0  0  2  0  0  0  0  0  0  0  0  0
   15.5172    7.1246   25.6915 O   0  0  0  0  0  0  0  0  0  0  0  0
   18.0031    7.1230   34.1496 N   0  0  0  0  0  0  0  0  0  0  0  0
   18.6914    6.2161   33.2754 C   0  0  0  0  0  0  0  0  0  0  0  0
   18.1590    5.1001   32.5833 N   0  0  0  0  0  0  0  0  0  0  0  0
   16.9127    4.9659   32.8121 C   0  0  0  0  0  0  0  0  0  0  0  0
   16.1129    5.8484   33.6908 C   0  0  0  0  0  0  0  0  0  0  0  0
   16.6592    6.8854   34.3390 C   0  0  0  0  0  0  0  0  0  0  0  0
   15.8396    7.5771   35.1037 N   0  0  0  0  0  0  0  0  0  0  0  0
   14.8512    5.5007   33.7780 N   0  0  0  0  0  0  0  0  0  0  0  0
   14.8593    4.3977   32.9442 C   0  0  0  0  0  0  0  0  0  0  0  0
   16.1336    4.0579   32.3315 N   0  0  0  0  0  0  0  0  0  0  0  0
  2  1  1  6  0  0  0
  2  3  1  0  0  0  0
  2  5  1  0  0  0  0
  3  4  1  0  0  0  0
  3 17  1  0  0  0  0
  5  6  1  0  0  0  0
  7  6  1  6  0  0  0
  7  8  1  0  0  0  0
  7  9  1  0  0  0  0
 10  9  1  1  0  0  0
 10 11  1  0  0  0  0
 10 12  1  0  0  0  0
 11 16  1  0  0  0  0
 12 13  1  6  0  0  0
 12 14  1  0  0  0  0
 14 15  1  6  0  0  0
 14 16  1  0  0  0  0
 16 27  1  1  0  0  0
 18 19  2  0  0  0  0
 18 23  1  0  0  0  0
 19 20  1  0  0  0  0
 20 21  2  0  0  0  0
 21 22  1  0  0  0  0
 21 27  1  0  0  0  0
 22 23  2  0  0  0  0
 22 25  1  0  0  0  0
 23 24  1  0  0  0  0
 25 26  2  0  0  0  0
 26 27  1  0  0  0  0
M  END
>  <CHROM.1>
120.77455388,-169.65862789,-57.06022119,-74.50927881,163.69301742,38.34600203
-111.07722336,15.25927313,4.87931730,30.29918028,-2.49755988,1.13158973,2.70349469

>  <Name>
ligand

>  <RI>
0

>  <Rbt.Current_Directory>
/home/itssahil/PROJECTS/Mol_Feturizer/Test_systems_manuscript/rnas/4aob

>  <Rbt.Executable>
rbdock ($Id: //depot/dev/client3/rdock/2013.1/src/exe/rbdock.cxx#4 $)

>  <Rbt.Library>
libRbt.so (2013.1, Build901 2013/11/27)

>  <Rbt.Parameter_File>
/export/apps/rDock/src/rDock_2013.1_src/data/scripts/dock_solv.prm

>  <Rbt.Receptor>
prm/pocket_docking_6.prm

>  <SCORE>
-12.3116

>  <SCORE.INTER>
-11.6294

>  <SCORE.INTER.CONST>
1

>  <SCORE.INTER.POLAR>
0

>  <SCORE.INTER.ROT>
7

>  <SCORE.INTER.SOLV>
12.926

>  <SCORE.INTER.VDW>
-20.3282

>  <SCORE.INTER.norm>
-0.430717

>  <SCORE.INTRA>
-0.682287

>  <SCORE.INTRA.DIHEDRAL>
-0.85808

>  <SCORE.INTRA.DIHEDRAL.0>
6.31833

>  <SCORE.INTRA.POLAR>
0

>  <SCORE.INTRA.POLAR.0>
0

>  <SCORE.INTRA.REPUL>
0

>  <SCORE.INTRA.REPUL.0>
0

>  <SCORE.INTRA.SOLV>
-0.575509

>  <SCORE.INTRA.SOLV.lig_0>
-48.4015

>  <SCORE.INTRA.VDW>
0.0345079

>  <SCORE.INTRA.VDW.0>
-2.83256

>  <SCORE.INTRA.norm>
-0.0252699

>  <SCORE.RESTR>
0

>  <SCORE.RESTR.CAVITY>
0

>  <SCORE.RESTR.norm>
0

>  <SCORE.SYSTEM>
0

>  <SCORE.SYSTEM.CONST>
0

>  <SCORE.SYSTEM.DIHEDRAL>
0

>  <SCORE.SYSTEM.SOLV>
0

>  <SCORE.SYSTEM.norm>
0

>  <SCORE.heavy>
27

>  <SCORE.norm>
-0.455987

>  <RMSD>
5.150

$$$$
ligand
 OpenBabel02271912153D
libRbt.so/2013.1/901 2013/11/27
 27 29  0  0  0  0  0  0  0  0999 V2000
   11.1058    8.0153   23.4883 N   0  0  0  0  0  0  0  0  0  0  0  0
   12.5773    7.9933   23.6688 C   0  0  2  0  0  0  0  0  0  0  0  0
   13.0167    6.5364   23.7370 C   0  0  0  0  0  0  0  0  0  0  0  0
   13.1075    5.8221   24.7901 O   0  0  0  0  0  0  0  0  0  0  0  0
   12.9309    8.7924   24.9250 C   0  0  0  0  0  0  0  0  0  0  0  0
   14.4327    8.8874   25.1594 C   0  0  0  0  0  0  0  0  0  0  0  0
   15.1718    9.6524   26.6510 S   0  0  2  0  0  0  0  0  0  0  0  0
   16.9016    9.4772   26.2177 C   0  0  0  0  0  0  0  0  0  0  0  0
   14.8790    8.2833   27.8155 C   0  0  0  0  0  0  0  0  0  0  0  0
   13.4242    8.1689   28.1794 C   0  0  1  0  0  0  0  0  0  0  0  0
   13.1431    6.9963   28.9813 O   0  0  0  0  0  0  0  0  0  0  0  0
   12.8770    9.3593   28.9335 C   0  0  1  0  0  0  0  0  0  0  0  0
   12.2394   10.1680   28.0436 O   0  0  0  0  0  0  0  0  0  0  0  0
   11.8131    8.6837   29.7665 C   0  0  1  0  0  0  0  0  0  0  0  0
   10.7284    8.5747   28.9558 O   0  0  0  0  0  0  0  0  0  0  0  0
   12.3394    7.2696   30.0973 C   0  0  2  0  0  0  0  0  0  0  0  0
   13.3682    6.0284   22.6708 O   0  0  0  0  0  0  0  0  0  0  0  0
   13.4942    6.5896   35.1350 N   0  0  0  0  0  0  0  0  0  0  0  0
   12.4239    6.1289   34.2967 C   0  0  0  0  0  0  0  0  0  0  0  0
   12.2273    6.3822   32.9164 N   0  0  0  0  0  0  0  0  0  0  0  0
   13.1645    7.1028   32.4408 C   0  0  0  0  0  0  0  0  0  0  0  0
   14.3117    7.6222   33.2184 C   0  0  0  0  0  0  0  0  0  0  0  0
   14.4521    7.3709   34.5265 C   0  0  0  0  0  0  0  0  0  0  0  0
   15.5075    7.9097   35.1016 N   0  0  0  0  0  0  0  0  0  0  0  0
   15.1407    8.3512   32.5101 N   0  0  0  0  0  0  0  0  0  0  0  0
   14.5124    8.2830   31.2802 C   0  0  0  0  0  0  0  0  0  0  0  0
   13.2857    7.5041   31.2214 N   0  0  0  0  0  0  0  0  0  0  0  0
  2  1  1  1  0  0  0
  2  3  1  0  0  0  0
  2  5  1  0  0  0  0
  3  4  1  0  0  0  0
  3 17  1  0  0  0  0
  5  6  1  0  0  0  0
  7  6  1  6  0  0  0
  7  8  1  0  0  0  0
  7  9  1  0  0  0  0
 10  9  1  1  0  0  0
 10 11  1  0  0  0  0
 10 12  1  0  0  0  0
 11 16  1  0  0  0  0
 12 13  1  6  0  0  0
 12 14  1  0  0  0  0
 14 15  1  6  0  0  0
 14 16  1  0  0  0  0
 16 27  1  1  0  0  0
 18 19  2  0  0  0  0
 18 23  1  0  0  0  0
 19 20  1  0  0  0  0
 20 21  2  0  0  0  0
 21 22  1  0  0  0  0
 21 27  1  0  0  0  0
 22 23  2  0  0  0  0
 22 25  1  0  0  0  0
 23 24  1  0  0  0  0
 25 26  2  0  0  0  0
 26 27  1  0  0  0  0
M  END
>  <CHROM.1>
-89.85701457,-177.14408989,-174.59786225,-177.64119651,-72.48135501,173.36020421
-139.60008152,13.49905827,7.94451521,28.81834240,1.62290706,-0.52358506,-1.48258506

>  <Name>
ligand

>  <RI>
0

>  <Rbt.Current_Directory>
/home/itssahil/PROJECTS/Mol_Feturizer/Test_systems_manuscript/rnas/4aob

>  <Rbt.Executable>
rbdock ($Id: //depot/dev/client3/rdock/2013.1/src/exe/rbdock.cxx#4 $)

>  <Rbt.Library>
libRbt.so (2013.1, Build901 2013/11/27)

>  <Rbt.Parameter_File>
/export/apps/rDock/src/rDock_2013.1_src/data/scripts/dock_solv.prm

>  <Rbt.Receptor>
prm/pocket_docking_8.prm

>  <SCORE>
-13.8395

>  <SCORE.INTER>
-11.8436

>  <SCORE.INTER.CONST>
1

>  <SCORE.INTER.POLAR>
0

>  <SCORE.INTER.ROT>
7

>  <SCORE.INTER.SOLV>
11.4748

>  <SCORE.INTER.VDW>
-19.9873

>  <SCORE.INTER.norm>
-0.438652

>  <SCORE.INTRA>
-1.99585

>  <SCORE.INTRA.DIHEDRAL>
-2.556

>  <SCORE.INTRA.DIHEDRAL.0>
6.31833

>  <SCORE.INTRA.POLAR>
0

>  <SCORE.INTRA.POLAR.0>
0

>  <SCORE.INTRA.REPUL>
0

>  <SCORE.INTRA.REPUL.0>
0

>  <SCORE.INTRA.SOLV>
-0.445877

>  <SCORE.INTRA.SOLV.lig_0>
-48.4015

>  <SCORE.INTRA.VDW>
-0.494913

>  <SCORE.INTRA.VDW.0>
-2.83256

>  <SCORE.INTRA.norm>
-0.0739204

>  <SCORE.RESTR>
0

>  <SCORE.RESTR.CAVITY>
0

>  <SCORE.RESTR.norm>
0

>  <SCORE.SYSTEM>
0

>  <SCORE.SYSTEM.CONST>
0

>  <SCORE.SYSTEM.DIHEDRAL>
0

>  <SCORE.SYSTEM.SOLV>
0

>  <SCORE.SYSTEM.norm>
0

>  <SCORE.heavy>
27

>  <SCORE.norm>
-0.512572

>  <RMSD>
5.153

$$$$
ligand
 OpenBabel02271912153D
libRbt.so/2013.1/901 2013/11/27
 27 29  0  0  0  0  0  0  0  0999 V2000
   16.3798    6.2262   31.3673 N   0  0  0  0  0  0  0  0  0  0  0  0
   16.3565    4.8727   30.7625 C   0  0  2  0  0  0  0  0  0  0  0  0
   17.1489    3.9423   31.6719 C   0  0  0  0  0  0  0  0  0  0  0  0
   16.8789    2.7216   31.9256 O   0  0  0  0  0  0  0  0  0  0  0  0
   16.9213    4.9583   29.3429 C   0  0  0  0  0  0  0  0  0  0  0  0
   16.0728    5.8258   28.4227 C   0  0  0  0  0  0  0  0  0  0  0  0
   14.3494    5.4132   27.9577 S   0  0  2  0  0  0  0  0  0  0  0  0
   14.6758    3.9525   26.9726 C   0  0  0  0  0  0  0  0  0  0  0  0
   14.0966    6.7217   26.7166 C   0  0  0  0  0  0  0  0  0  0  0  0
   13.5829    7.9878   27.3450 C   0  0  1  0  0  0  0  0  0  0  0  0
   12.2204    7.8596   27.8183 O   0  0  0  0  0  0  0  0  0  0  0  0
   14.4091    8.4824   28.5104 C   0  0  1  0  0  0  0  0  0  0  0  0
   15.2473    9.4527   28.0540 O   0  0  0  0  0  0  0  0  0  0  0  0
   13.3379    9.1647   29.3286 C   0  0  1  0  0  0  0  0  0  0  0  0
   13.1912   10.3996   28.7818 O   0  0  0  0  0  0  0  0  0  0  0  0
   12.0362    8.3609   29.1148 C   0  0  2  0  0  0  0  0  0  0  0  0
   18.1095    4.4475   32.2554 O   0  0  0  0  0  0  0  0  0  0  0  0
   13.2638    6.5543   33.8480 N   0  0  0  0  0  0  0  0  0  0  0  0
   13.1483    7.8737   33.2944 C   0  0  0  0  0  0  0  0  0  0  0  0
   12.7921    8.2353   31.9714 N   0  0  0  0  0  0  0  0  0  0  0  0
   12.5515    7.2060   31.2598 C   0  0  0  0  0  0  0  0  0  0  0  0
   12.6368    5.8075   31.7368 C   0  0  0  0  0  0  0  0  0  0  0  0
   12.9921    5.5085   32.9931 C   0  0  0  0  0  0  0  0  0  0  0  0
   13.0478    4.2243   33.2808 N   0  0  0  0  0  0  0  0  0  0  0  0
   12.3539    4.9188   30.8146 N   0  0  0  0  0  0  0  0  0  0  0  0
   12.0838    5.7657   29.7554 C   0  0  0  0  0  0  0  0  0  0  0  0
   12.1964    7.1911   30.0204 N   0  0  0  0  0  0  0  0  0  0  0  0
  2  1  1  1  0  0  0
  2  3  1  0  0  0  0
  2  5  1  0  0  0  0
  3  4  1  0  0  0  0
  3 17  1  0  0  0  0
  5  6  1  0  0  0  0
  7  6  1  1  0  0  0
  7  8  1  0  0  0  0
  7  9  1  0  0  0  0
 10  9  1  1  0  0  0
 10 11  1  0  0  0  0
 10 12  1  0  0  0  0
 11 16  1  0  0  0  0
 12 13  1  6  0  0  0
 12 14  1  0  0  0  0
 14 15  1  6  0  0  0
 14 16  1  0  0  0  0
 16 27  1  1  0  0  0
 18 19  2  0  0  0  0
 18 23  1  0  0  0  0
 19 20  1  0  0  0  0
 20 21  2  0  0  0  0
 21 22  1  0  0  0  0
 21 27  1  0  0  0  0
 22 23  2  0  0  0  0
 22 25  1  0  0  0  0
 23 24  1  0  0  0  0
 25 26  2  0  0  0  0
 26 27  1  0  0  0  0
M  END
>  <CHROM.1>
143.26856535,-63.53307664,-64.09004213,-67.43067297,-88.35134554,-69.79709917
154.96600673,14.21173950,6.40264049,30.04007114,-0.90119840,0.75167534,-1.21316117

>  <Name>
ligand

>  <RI>
0

>  <Rbt.Current_Directory>
/home/itssahil/PROJECTS/Mol_Feturizer/Test_systems_manuscript/rnas/4aob

>  <Rbt.Executable>
rbdock ($Id: //depot/dev/client3/rdock/2013.1/src/exe/rbdock.cxx#4 $)

>  <Rbt.Library>
libRbt.so (2013.1, Build901 2013/11/27)

>  <Rbt.Parameter_File>
/export/apps/rDock/src/rDock_2013.1_src/data/scripts/dock_solv.prm

>  <Rbt.Receptor>
prm/pocket_docking_7.prm

>  <SCORE>
-8.30919

>  <SCORE.INTER>
-7.54108

>  <SCORE.INTER.CONST>
1

>  <SCORE.INTER.POLAR>
0

>  <SCORE.INTER.ROT>
7

>  <SCORE.INTER.SOLV>
9.29906

>  <SCORE.INTER.VDW>
-16.3937

>  <SCORE.INTER.norm>
-0.279299

>  <SCORE.INTRA>
-0.768116

>  <SCORE.INTRA.DIHEDRAL>
-1.57396

>  <SCORE.INTRA.DIHEDRAL.0>
6.31833

>  <SCORE.INTRA.POLAR>
0

>  <SCORE.INTRA.POLAR.0>
0

>  <SCORE.INTRA.REPUL>
0

>  <SCORE.INTRA.REPUL.0>
0

>  <SCORE.INTRA.SOLV>
1.89047

>  <SCORE.INTRA.SOLV.lig_0>
-48.4015

>  <SCORE.INTRA.VDW>
-0.926368

>  <SCORE.INTRA.VDW.0>
-2.83256

>  <SCORE.INTRA.norm>
-0.0284487

>  <SCORE.RESTR>
0

>  <SCORE.RESTR.CAVITY>
0

>  <SCORE.RESTR.norm>
0

>  <SCORE.SYSTEM>
0

>  <SCORE.SYSTEM.CONST>
0

>  <SCORE.SYSTEM.DIHEDRAL>
0

>  <SCORE.SYSTEM.SOLV>
0

>  <SCORE.SYSTEM.norm>
0

>  <SCORE.heavy>
27

>  <SCORE.norm>
-0.307748

>  <RMSD>
5.172

$$$$
ligand
 OpenBabel02271912153D
libRbt.so/2013.1/901 2013/11/27
 27 29  0  0  0  0  0  0  0  0999 V2000
   13.5059    3.3063   31.9743 N   0  0  0  0  0  0  0  0  0  0  0  0
   13.5766    2.3371   30.8544 C   0  0  2  0  0  0  0  0  0  0  0  0
   14.7038    1.3580   31.1560 C   0  0  0  0  0  0  0  0  0  0  0  0
   15.8421    1.3146   30.5818 O   0  0  0  0  0  0  0  0  0  0  0  0
   13.7772    3.1085   29.5481 C   0  0  0  0  0  0  0  0  0  0  0  0
   14.9316    4.0991   29.6204 C   0  0  0  0  0  0  0  0  0  0  0  0
   15.8557    4.6764   28.1475 S   0  0  2  0  0  0  0  0  0  0  0  0
   17.4044    3.8268   28.4479 C   0  0  0  0  0  0  0  0  0  0  0  0
   16.1850    6.3799   28.7006 C   0  0  0  0  0  0  0  0  0  0  0  0
   15.0033    7.2780   28.4580 C   0  0  1  0  0  0  0  0  0  0  0  0
   13.8231    6.8495   29.1793 O   0  0  0  0  0  0  0  0  0  0  0  0
   15.2392    8.7264   28.8205 C   0  0  1  0  0  0  0  0  0  0  0  0
   15.5541    9.4023   27.6819 O   0  0  0  0  0  0  0  0  0  0  0  0
   13.8389    9.1368   29.2120 C   0  0  1  0  0  0  0  0  0  0  0  0
   13.2046    9.4298   28.0469 O   0  0  0  0  0  0  0  0  0  0  0  0
   13.1745    7.8966   29.8496 C   0  0  2  0  0  0  0  0  0  0  0  0
   14.4573    0.4951   32.0005 O   0  0  0  0  0  0  0  0  0  0  0  0
   12.7657    6.1898   34.7582 N   0  0  0  0  0  0  0  0  0  0  0  0
   12.0248    5.9276   33.5569 C   0  0  0  0  0  0  0  0  0  0  0  0
   12.2478    6.4587   32.2623 N   0  0  0  0  0  0  0  0  0  0  0  0
   13.2512    7.2439   32.2514 C   0  0  0  0  0  0  0  0  0  0  0  0
   14.0811    7.5745   33.4315 C   0  0  0  0  0  0  0  0  0  0  0  0
   13.8268    7.0611   34.6421 C   0  0  0  0  0  0  0  0  0  0  0  0
   14.6302    7.4534   35.6094 N   0  0  0  0  0  0  0  0  0  0  0  0
   15.0524    8.4171   33.1724 N   0  0  0  0  0  0  0  0  0  0  0  0
   14.8335    8.6106   31.8209 C   0  0  0  0  0  0  0  0  0  0  0  0
   13.7205    7.8817   31.2338 N   0  0  0  0  0  0  0  0  0  0  0  0
  2  1  1  1  0  0  0
  2  3  1  0  0  0  0
  2  5  1  0  0  0  0
  3  4  1  0  0  0  0
  3 17  1  0  0  0  0
  5  6  1  0  0  0  0
  7  6  1  1  0  0  0
  7  8  1  0  0  0  0
  7  9  1  0  0  0  0
 10  9  1  1  0  0  0
 10 11  1  0  0  0  0
 10 12  1  0  0  0  0
 11 16  1  0  0  0  0
 12 13  1  6  0  0  0
 12 14  1  0  0  0  0
 14 15  1  6  0  0  0
 14 16  1  0  0  0  0
 16 27  1  1  0  0  0
 18 19  2  0  0  0  0
 18 23  1  0  0  0  0
 19 20  1  0  0  0  0
 20 21  2  0  0  0  0
 21 22  1  0  0  0  0
 21 27  1  0  0  0  0
 22 23  2  0  0  0  0
 22 25  1  0  0  0  0
 23 24  1  0  0  0  0
 25 26  2  0  0  0  0
 26 27  1  0  0  0  0
M  END
>  <CHROM.1>
-106.94303783,51.02399422,155.06365898,-109.17717383,-81.84387607,61.20229270
-91.06959116,14.41945758,5.91311565,30.71590768,1.24394211,-1.22390656,2.80308453

>  <Name>
ligand

>  <RI>
0

>  <Rbt.Current_Directory>
/home/itssahil/PROJECTS/Mol_Feturizer/Test_systems_manuscript/rnas/4aob

>  <Rbt.Executable>
rbdock ($Id: //depot/dev/client3/rdock/2013.1/src/exe/rbdock.cxx#4 $)

>  <Rbt.Library>
libRbt.so (2013.1, Build901 2013/11/27)

>  <Rbt.Parameter_File>
/export/apps/rDock/src/rDock_2013.1_src/data/scripts/dock_solv.prm

>  <Rbt.Receptor>
prm/pocket_docking_4.prm

>  <SCORE>
-9.00371

>  <SCORE.INTER>
-11.0338

>  <SCORE.INTER.CONST>
1

>  <SCORE.INTER.POLAR>
0

>  <SCORE.INTER.ROT>
7

>  <SCORE.INTER.SOLV>
13.6337

>  <SCORE.INTER.VDW>
-20.1671

>  <SCORE.INTER.norm>
-0.408659

>  <SCORE.INTRA>
2.0301

>  <SCORE.INTRA.DIHEDRAL>
3.2923

>  <SCORE.INTRA.DIHEDRAL.0>
6.31833

>  <SCORE.INTRA.POLAR>
0

>  <SCORE.INTRA.POLAR.0>
0

>  <SCORE.INTRA.REPUL>
0

>  <SCORE.INTRA.REPUL.0>
0

>  <SCORE.INTRA.SOLV>
0.799893

>  <SCORE.INTRA.SOLV.lig_0>
-48.4015

>  <SCORE.INTRA.VDW>
-0.0159986

>  <SCORE.INTRA.VDW.0>
-2.83256

>  <SCORE.INTRA.norm>
0.0751888

>  <SCORE.RESTR>
0

>  <SCORE.RESTR.CAVITY>
0

>  <SCORE.RESTR.norm>
0

>  <SCORE.SYSTEM>
0

>  <SCORE.SYSTEM.CONST>
0

>  <SCORE.SYSTEM.DIHEDRAL>
0

>  <SCORE.SYSTEM.SOLV>
0

>  <SCORE.SYSTEM.norm>
0

>  <SCORE.heavy>
27

>  <SCORE.norm>
-0.333471

>  <RMSD>
5.174

$$$$
ligand
 OpenBabel02271912153D
libRbt.so/2013.1/901 2013/11/27
 27 29  0  0  0  0  0  0  0  0999 V2000
   16.9302    8.1067   29.5219 N   0  0  0  0  0  0  0  0  0  0  0  0
   15.9342    7.4141   28.6694 C   0  0  2  0  0  0  0  0  0  0  0  0
   14.7888    8.3840   28.4094 C   0  0  0  0  0  0  0  0  0  0  0  0
   14.2056    8.5841   27.2925 O   0  0  0  0  0  0  0  0  0  0  0  0
   15.4924    6.1294   29.3737 C   0  0  0  0  0  0  0  0  0  0  0  0
   15.6511    4.8934   28.4983 C   0  0  0  0  0  0  0  0  0  0  0  0
   14.2336    3.9291   27.8523 S   0  0  2  0  0  0  0  0  0  0  0  0
   13.3059    5.2718   27.1126 C   0  0  0  0  0  0  0  0  0  0  0  0
   13.3791    3.6353   29.4333 C   0  0  0  0  0  0  0  0  0  0  0  0
   14.1219    2.6449   30.2874 C   0  0  1  0  0  0  0  0  0  0  0  0
   15.3844    3.1646   30.7698 O   0  0  0  0  0  0  0  0  0  0  0  0
   13.3515    2.1670   31.4970 C   0  0  1  0  0  0  0  0  0  0  0  0
   12.7878    0.9661   31.1931 O   0  0  0  0  0  0  0  0  0  0  0  0
   14.4909    1.8978   32.4519 C   0  0  1  0  0  0  0  0  0  0  0  0
   14.9502    0.6597   32.1333 O   0  0  0  0  0  0  0  0  0  0  0  0
   15.5884    2.9387   32.1385 C   0  0  2  0  0  0  0  0  0  0  0  0
   14.4391    9.0753   29.3676 O   0  0  0  0  0  0  0  0  0  0  0  0
   16.7147    7.5818   34.2237 N   0  0  0  0  0  0  0  0  0  0  0  0
   17.4949    6.5944   33.5330 C   0  0  0  0  0  0  0  0  0  0  0  0
   17.0586    5.3563   32.9994 N   0  0  0  0  0  0  0  0  0  0  0  0
   15.8104    5.1852   33.1897 C   0  0  0  0  0  0  0  0  0  0  0  0
   14.9201    6.1425   33.8835 C   0  0  0  0  0  0  0  0  0  0  0  0
   15.3765    7.2968   34.3867 C   0  0  0  0  0  0  0  0  0  0  0  0
   14.4825    8.0473   34.9968 N   0  0  0  0  0  0  0  0  0  0  0  0
   13.6751    5.7381   33.9666 N   0  0  0  0  0  0  0  0  0  0  0  0
   13.7849    4.5232   33.3155 C   0  0  0  0  0  0  0  0  0  0  0  0
   15.1061    4.1698   32.8213 N   0  0  0  0  0  0  0  0  0  0  0  0
  2  1  1  1  0  0  0
  2  3  1  0  0  0  0
  2  5  1  0  0  0  0
  3  4  1  0  0  0  0
  3 17  1  0  0  0  0
  5  6  1  0  0  0  0
  7  6  1  1  0  0  0
  7  8  1  0  0  0  0
  7  9  1  0  0  0  0
 10  9  1  1  0  0  0
 10 11  1  0  0  0  0
 10 12  1  0  0  0  0
 11 16  1  0  0  0  0
 12 13  1  6  0  0  0
 12 14  1  0  0  0  0
 14 15  1  6  0  0  0
 14 16  1  0  0  0  0
 16 27  1  1  0  0  0
 18 19  2  0  0  0  0
 18 23  1  0  0  0  0
 19 20  1  0  0  0  0
 20 21  2  0  0  0  0
 21 22  1  0  0  0  0
 21 27  1  0  0  0  0
 22 23  2  0  0  0  0
 22 25  1  0  0  0  0
 23 24  1  0  0  0  0
 25 26  2  0  0  0  0
 26 27  1  0  0  0  0
M  END
>  <CHROM.1>
136.46118277,-126.15687823,-112.14895636,52.02430362,-71.77910425,68.21982923
-95.20484196,14.88097637,5.11394168,30.99402645,-1.37287549,1.27981686,2.20729788

>  <Name>
ligand

>  <RI>
0

>  <Rbt.Current_Directory>
/home/itssahil/PROJECTS/Mol_Feturizer/Test_systems_manuscript/rnas/4aob

>  <Rbt.Executable>
rbdock ($Id: //depot/dev/client3/rdock/2013.1/src/exe/rbdock.cxx#4 $)

>  <Rbt.Library>
libRbt.so (2013.1, Build901 2013/11/27)

>  <Rbt.Parameter_File>
/export/apps/rDock/src/rDock_2013.1_src/data/scripts/dock_solv.prm

>  <Rbt.Receptor>
prm/pocket_docking_4.prm

>  <SCORE>
-5.12853

>  <SCORE.INTER>
-9.10793

>  <SCORE.INTER.CONST>
1

>  <SCORE.INTER.POLAR>
0

>  <SCORE.INTER.ROT>
7

>  <SCORE.INTER.SOLV>
13.7926

>  <SCORE.INTER.VDW>
-18.9362

>  <SCORE.INTER.norm>
-0.337331

>  <SCORE.INTRA>
3.95948

>  <SCORE.INTRA.DIHEDRAL>
8.27176

>  <SCORE.INTRA.DIHEDRAL.0>
6.31833

>  <SCORE.INTRA.POLAR>
0

>  <SCORE.INTRA.POLAR.0>
0

>  <SCORE.INTRA.REPUL>
0

>  <SCORE.INTRA.REPUL.0>
0

>  <SCORE.INTRA.SOLV>
-0.391404

>  <SCORE.INTRA.SOLV.lig_0>
-48.4015

>  <SCORE.INTRA.VDW>
0.0193044

>  <SCORE.INTRA.VDW.0>
-2.83256

>  <SCORE.INTRA.norm>
0.146647

>  <SCORE.RESTR>
0.0199122

>  <SCORE.RESTR.CAVITY>
0.0199122

>  <SCORE.RESTR.norm>
0.000737488

>  <SCORE.SYSTEM>
0

>  <SCORE.SYSTEM.CONST>
0

>  <SCORE.SYSTEM.DIHEDRAL>
0

>  <SCORE.SYSTEM.SOLV>
0

>  <SCORE.SYSTEM.norm>
0

>  <SCORE.heavy>
27

>  <SCORE.norm>
-0.189946

>  <RMSD>
5.176

$$$$
ligand
 OpenBabel02271912153D
libRbt.so/2013.1/901 2013/11/27
 27 29  0  0  0  0  0  0  0  0999 V2000
   17.8314    6.3692   32.0373 N   0  0  0  0  0  0  0  0  0  0  0  0
   16.9257    5.3808   31.4040 C   0  0  2  0  0  0  0  0  0  0  0  0
   17.0309    4.0811   32.1914 C   0  0  0  0  0  0  0  0  0  0  0  0
   16.7474    2.9128   31.7646 O   0  0  0  0  0  0  0  0  0  0  0  0
   17.3140    5.2303   29.9315 C   0  0  0  0  0  0  0  0  0  0  0  0
   16.3005    4.4195   29.1350 C   0  0  0  0  0  0  0  0  0  0  0  0
   14.5491    4.9175   28.9327 S   0  0  2  0  0  0  0  0  0  0  0  0
   13.9608    3.4838   28.0333 C   0  0  0  0  0  0  0  0  0  0  0  0
   14.7858    6.1726   27.6347 C   0  0  0  0  0  0  0  0  0  0  0  0
   14.6304    7.5662   28.1783 C   0  0  1  0  0  0  0  0  0  0  0  0
   13.2753    7.8481   28.6042 O   0  0  0  0  0  0  0  0  0  0  0  0
   15.5341    7.8808   29.3485 C   0  0  1  0  0  0  0  0  0  0  0  0
   16.6197    8.5526   28.8768 O   0  0  0  0  0  0  0  0  0  0  0  0
   14.6764    8.8799   30.0892 C   0  0  1  0  0  0  0  0  0  0  0  0
   14.8921   10.0727   29.4759 O   0  0  0  0  0  0  0  0  0  0  0  0
   13.2078    8.4564   29.8658 C   0  0  2  0  0  0  0  0  0  0  0  0
   17.3713    4.1907   33.3706 O   0  0  0  0  0  0  0  0  0  0  0  0
   13.8001    6.6523   34.7206 N   0  0  0  0  0  0  0  0  0  0  0  0
   14.0732    7.9161   34.0969 C   0  0  0  0  0  0  0  0  0  0  0  0
   13.8543    8.2868   32.7469 N   0  0  0  0  0  0  0  0  0  0  0  0
   13.3411    7.3286   32.0819 C   0  0  0  0  0  0  0  0  0  0  0  0
   13.0176    5.9933   32.6322 C   0  0  0  0  0  0  0  0  0  0  0  0
   13.2545    5.6789   33.9124 C   0  0  0  0  0  0  0  0  0  0  0  0
   12.9379    4.4504   34.2669 N   0  0  0  0  0  0  0  0  0  0  0  0
   12.5071    5.1695   31.7484 N   0  0  0  0  0  0  0  0  0  0  0  0
   12.5050    5.9956   30.6395 C   0  0  0  0  0  0  0  0  0  0  0  0
   13.0148    7.3434   30.8345 N   0  0  0  0  0  0  0  0  0  0  0  0
  2  1  1  1  0  0  0
  2  3  1  0  0  0  0
  2  5  1  0  0  0  0
  3  4  1  0  0  0  0
  3 17  1  0  0  0  0
  5  6  1  0  0  0  0
  7  6  1  6  0  0  0
  7  8  1  0  0  0  0
  7  9  1  0  0  0  0
 10  9  1  1  0  0  0
 10 11  1  0  0  0  0
 10 12  1  0  0  0  0
 11 16  1  0  0  0  0
 12 13  1  6  0  0  0
 12 14  1  0  0  0  0
 14 15  1  6  0  0  0
 14 16  1  0  0  0  0
 16 27  1  1  0  0  0
 18 19  2  0  0  0  0
 18 23  1  0  0  0  0
 19 20  1  0  0  0  0
 20 21  2  0  0  0  0
 21 22  1  0  0  0  0
 21 27  1  0  0  0  0
 22 23  2  0  0  0  0
 22 25  1  0  0  0  0
 23 24  1  0  0  0  0
 25 26  2  0  0  0  0
 26 27  1  0  0  0  0
M  END
>  <CHROM.1>
-157.41387854,-170.22967127,60.83909537,-175.76640077,-106.31770488,-66.82553481
154.34285065,14.77858109,6.26689962,30.83204384,-1.48209556,0.91429465,-1.14456926

>  <Name>
ligand

>  <RI>
0

>  <Rbt.Current_Directory>
/home/itssahil/PROJECTS/Mol_Feturizer/Test_systems_manuscript/rnas/4aob

>  <Rbt.Executable>
rbdock ($Id: //depot/dev/client3/rdock/2013.1/src/exe/rbdock.cxx#4 $)

>  <Rbt.Library>
libRbt.so (2013.1, Build901 2013/11/27)

>  <Rbt.Parameter_File>
/export/apps/rDock/src/rDock_2013.1_src/data/scripts/dock_solv.prm

>  <Rbt.Receptor>
prm/pocket_docking_8.prm

>  <SCORE>
-5.98461

>  <SCORE.INTER>
-5.32542

>  <SCORE.INTER.CONST>
1

>  <SCORE.INTER.POLAR>
0

>  <SCORE.INTER.ROT>
7

>  <SCORE.INTER.SOLV>
13.2269

>  <SCORE.INTER.VDW>
-16.2259

>  <SCORE.INTER.norm>
-0.197238

>  <SCORE.INTRA>
-0.659186

>  <SCORE.INTRA.DIHEDRAL>
0.588972

>  <SCORE.INTRA.DIHEDRAL.0>
6.31833

>  <SCORE.INTRA.POLAR>
0

>  <SCORE.INTRA.POLAR.0>
0

>  <SCORE.INTRA.REPUL>
0

>  <SCORE.INTRA.REPUL.0>
0

>  <SCORE.INTRA.SOLV>
0.800982

>  <SCORE.INTRA.SOLV.lig_0>
-48.4015

>  <SCORE.INTRA.VDW>
-1.35416

>  <SCORE.INTRA.VDW.0>
-2.83256

>  <SCORE.INTRA.norm>
-0.0244143

>  <SCORE.RESTR>
0

>  <SCORE.RESTR.CAVITY>
0

>  <SCORE.RESTR.norm>
0

>  <SCORE.SYSTEM>
0

>  <SCORE.SYSTEM.CONST>
0

>  <SCORE.SYSTEM.DIHEDRAL>
0

>  <SCORE.SYSTEM.SOLV>
0

>  <SCORE.SYSTEM.norm>
0

>  <SCORE.heavy>
27

>  <SCORE.norm>
-0.221652

>  <RMSD>
5.179

$$$$
ligand
 OpenBabel02271912153D
libRbt.so/2013.1/901 2013/11/27
 27 29  0  0  0  0  0  0  0  0999 V2000
   14.5564    7.4283   23.4495 N   0  0  0  0  0  0  0  0  0  0  0  0
   14.3387    7.6144   24.9042 C   0  0  2  0  0  0  0  0  0  0  0  0
   15.5158    8.4099   25.4535 C   0  0  0  0  0  0  0  0  0  0  0  0
   16.6953    8.4481   24.9689 O   0  0  0  0  0  0  0  0  0  0  0  0
   14.1786    6.2398   25.5575 C   0  0  0  0  0  0  0  0  0  0  0  0
   13.6750    6.3246   26.9922 C   0  0  0  0  0  0  0  0  0  0  0  0
   13.2724    4.8525   28.0058 S   0  0  2  0  0  0  0  0  0  0  0  0
   12.5723    5.6857   29.4293 C   0  0  0  0  0  0  0  0  0  0  0  0
   14.9630    4.4360   28.5393 C   0  0  0  0  0  0  0  0  0  0  0  0
   14.9961    3.1488   29.3165 C   0  0  1  0  0  0  0  0  0  0  0  0
   16.3436    2.6627   29.5283 O   0  0  0  0  0  0  0  0  0  0  0  0
   14.3373    3.2263   30.6748 C   0  0  1  0  0  0  0  0  0  0  0  0
   13.0754    2.7290   30.5626 O   0  0  0  0  0  0  0  0  0  0  0  0
   15.1557    2.2044   31.4288 C   0  0  1  0  0  0  0  0  0  0  0  0
   14.6079    0.9995   31.1231 O   0  0  0  0  0  0  0  0  0  0  0  0
   16.5872    2.2683   30.8517 C   0  0  2  0  0  0  0  0  0  0  0  0
   15.3083    9.0279   26.4992 O   0  0  0  0  0  0  0  0  0  0  0  0
   19.4741    6.5913   30.4614 N   0  0  0  0  0  0  0  0  0  0  0  0
   19.0152    5.6213   29.5080 C   0  0  0  0  0  0  0  0  0  0  0  0
   18.2150    4.4763   29.7461 N   0  0  0  0  0  0  0  0  0  0  0  0
   17.9017    4.3794   30.9774 C   0  0  0  0  0  0  0  0  0  0  0  0
   18.3187    5.3274   32.0348 C   0  0  0  0  0  0  0  0  0  0  0  0
   19.0886    6.3906   31.7690 C   0  0  0  0  0  0  0  0  0  0  0  0
   19.4027    7.1417   32.8044 N   0  0  0  0  0  0  0  0  0  0  0  0
   17.8805    5.0092   33.2294 N   0  0  0  0  0  0  0  0  0  0  0  0
   17.1798    3.8586   32.9176 C   0  0  0  0  0  0  0  0  0  0  0  0
   17.1792    3.4592   31.5193 N   0  0  0  0  0  0  0  0  0  0  0  0
  2  1  1  6  0  0  0
  2  3  1  0  0  0  0
  2  5  1  0  0  0  0
  3  4  1  0  0  0  0
  3 17  1  0  0  0  0
  5  6  1  0  0  0  0
  7  6  1  6  0  0  0
  7  8  1  0  0  0  0
  7  9  1  0  0  0  0
 10  9  1  1  0  0  0
 10 11  1  0  0  0  0
 10 12  1  0  0  0  0
 11 16  1  0  0  0  0
 12 13  1  6  0  0  0
 12 14  1  0  0  0  0
 14 15  1  6  0  0  0
 14 16  1  0  0  0  0
 16 27  1  1  0  0  0
 18 19  2  0  0  0  0
 18 23  1  0  0  0  0
 19 20  1  0  0  0  0
 20 21  2  0  0  0  0
 21 22  1  0  0  0  0
 21 27  1  0  0  0  0
 22 23  2  0  0  0  0
 22 25  1  0  0  0  0
 23 24  1  0  0  0  0
 25 26  2  0  0  0  0
 26 27  1  0  0  0  0
M  END
>  <CHROM.1>
-26.47213785,-168.45745412,175.69158341,-173.17162511,-174.65860582,168.81024574
-30.31544765,15.86538263,5.09172474,29.22522493,-1.97933524,0.56592265,2.31116807

>  <Name>
ligand

>  <RI>
0

>  <Rbt.Current_Directory>
/home/itssahil/PROJECTS/Mol_Feturizer/Test_systems_manuscript/rnas/4aob

>  <Rbt.Executable>
rbdock ($Id: //depot/dev/client3/rdock/2013.1/src/exe/rbdock.cxx#4 $)

>  <Rbt.Library>
libRbt.so (2013.1, Build901 2013/11/27)

>  <Rbt.Parameter_File>
/export/apps/rDock/src/rDock_2013.1_src/data/scripts/dock_solv.prm

>  <Rbt.Receptor>
prm/pocket_docking_6.prm

>  <SCORE>
-11.4971

>  <SCORE.INTER>
-10.8214

>  <SCORE.INTER.CONST>
1

>  <SCORE.INTER.POLAR>
0

>  <SCORE.INTER.ROT>
7

>  <SCORE.INTER.SOLV>
10.2692

>  <SCORE.INTER.VDW>
-18.904

>  <SCORE.INTER.norm>
-0.400794

>  <SCORE.INTRA>
-0.675679

>  <SCORE.INTRA.DIHEDRAL>
-1.20187

>  <SCORE.INTRA.DIHEDRAL.0>
6.31833

>  <SCORE.INTRA.POLAR>
0

>  <SCORE.INTRA.POLAR.0>
0

>  <SCORE.INTRA.REPUL>
0

>  <SCORE.INTRA.REPUL.0>
0

>  <SCORE.INTRA.SOLV>
-0.479743

>  <SCORE.INTRA.SOLV.lig_0>
-48.4015

>  <SCORE.INTRA.VDW>
0.165125

>  <SCORE.INTRA.VDW.0>
-2.83256

>  <SCORE.INTRA.norm>
-0.0250251

>  <SCORE.RESTR>
0

>  <SCORE.RESTR.CAVITY>
0

>  <SCORE.RESTR.norm>
0

>  <SCORE.SYSTEM>
0

>  <SCORE.SYSTEM.CONST>
0

>  <SCORE.SYSTEM.DIHEDRAL>
0

>  <SCORE.SYSTEM.SOLV>
0

>  <SCORE.SYSTEM.norm>
0

>  <SCORE.heavy>
27

>  <SCORE.norm>
-0.42582

>  <RMSD>
5.185

$$$$
ligand
 OpenBabel02271912153D
libRbt.so/2013.1/901 2013/11/27
 27 29  0  0  0  0  0  0  0  0999 V2000
   15.5493    6.1460   32.4249 N   0  0  0  0  0  0  0  0  0  0  0  0
   14.5415    7.2047   32.6741 C   0  0  2  0  0  0  0  0  0  0  0  0
   13.5309    6.6596   33.6750 C   0  0  0  0  0  0  0  0  0  0  0  0
   13.2855    5.4297   33.9089 O   0  0  0  0  0  0  0  0  0  0  0  0
   13.9138    7.6105   31.3389 C   0  0  0  0  0  0  0  0  0  0  0  0
   14.9399    8.1230   30.3372 C   0  0  0  0  0  0  0  0  0  0  0  0
   14.5139    8.6227   28.6268 S   0  0  2  0  0  0  0  0  0  0  0  0
   13.2934    9.8785   29.0064 C   0  0  0  0  0  0  0  0  0  0  0  0
   13.5115    7.1708   28.1756 C   0  0  0  0  0  0  0  0  0  0  0  0
   14.3345    6.1289   27.4692 C   0  0  1  0  0  0  0  0  0  0  0  0
   15.3821    5.5858   28.3086 O   0  0  0  0  0  0  0  0  0  0  0  0
   13.5365    4.9561   26.9468 C   0  0  1  0  0  0  0  0  0  0  0  0
   13.2896    5.1667   25.6251 O   0  0  0  0  0  0  0  0  0  0  0  0
   14.5745    3.8624   27.0396 C   0  0  1  0  0  0  0  0  0  0  0  0
   15.3276    3.9767   25.9148 O   0  0  0  0  0  0  0  0  0  0  0  0
   15.4521    4.1860   28.2689 C   0  0  2  0  0  0  0  0  0  0  0  0
   12.8528    7.4997   34.2690 O   0  0  0  0  0  0  0  0  0  0  0  0
   14.8691    0.8366   32.2207 N   0  0  0  0  0  0  0  0  0  0  0  0
   15.9150    1.0617   31.2636 C   0  0  0  0  0  0  0  0  0  0  0  0
   15.9547    2.0273   30.2273 N   0  0  0  0  0  0  0  0  0  0  0  0
   14.9022    2.7456   30.2244 C   0  0  0  0  0  0  0  0  0  0  0  0
   13.7726    2.5974   31.1692 C   0  0  0  0  0  0  0  0  0  0  0  0
   13.7687    1.6605   32.1264 C   0  0  0  0  0  0  0  0  0  0  0  0
   12.6934    1.6246   32.8862 N   0  0  0  0  0  0  0  0  0  0  0  0
   12.7956    3.4467   30.9587 N   0  0  0  0  0  0  0  0  0  0  0  0
   13.3188    4.1351   29.8797 C   0  0  0  0  0  0  0  0  0  0  0  0
   14.6314    3.7138   29.4169 N   0  0  0  0  0  0  0  0  0  0  0  0
  2  1  1  6  0  0  0
  2  3  1  0  0  0  0
  2  5  1  0  0  0  0
  3  4  1  0  0  0  0
  3 17  1  0  0  0  0
  5  6  1  0  0  0  0
  7  6  1  1  0  0  0
  7  8  1  0  0  0  0
  7  9  1  0  0  0  0
 10  9  1  1  0  0  0
 10 11  1  0  0  0  0
 10 12  1  0  0  0  0
 11 16  1  0  0  0  0
 12 13  1  6  0  0  0
 12 14  1  0  0  0  0
 14 15  1  6  0  0  0
 14 16  1  0  0  0  0
 16 27  1  1  0  0  0
 18 19  2  0  0  0  0
 18 23  1  0  0  0  0
 19 20  1  0  0  0  0
 20 21  2  0  0  0  0
 21 22  1  0  0  0  0
 21 27  1  0  0  0  0
 22 23  2  0  0  0  0
 22 25  1  0  0  0  0
 23 24  1  0  0  0  0
 25 26  2  0  0  0  0
 26 27  1  0  0  0  0
M  END
>  <CHROM.1>
-22.49650189,-58.77841526,177.47041530,57.33298663,-94.37270914,63.46925257
-139.19344958,14.24173638,5.14234755,30.05767401,1.55841903,-1.41552742,2.44754913

>  <Name>
ligand

>  <RI>
0

>  <Rbt.Current_Directory>
/home/itssahil/PROJECTS/Mol_Feturizer/Test_systems_manuscript/rnas/4aob

>  <Rbt.Executable>
rbdock ($Id: //depot/dev/client3/rdock/2013.1/src/exe/rbdock.cxx#4 $)

>  <Rbt.Library>
libRbt.so (2013.1, Build901 2013/11/27)

>  <Rbt.Parameter_File>
/export/apps/rDock/src/rDock_2013.1_src/data/scripts/dock_solv.prm

>  <Rbt.Receptor>
prm/pocket_docking_2.prm

>  <SCORE>
-7.86903

>  <SCORE.INTER>
-8.08854

>  <SCORE.INTER.CONST>
1

>  <SCORE.INTER.POLAR>
0

>  <SCORE.INTER.ROT>
7

>  <SCORE.INTER.SOLV>
16.4722

>  <SCORE.INTER.VDW>
-19.1498

>  <SCORE.INTER.norm>
-0.299576

>  <SCORE.INTRA>
-1.51958

>  <SCORE.INTRA.DIHEDRAL>
-1.69937

>  <SCORE.INTRA.DIHEDRAL.0>
6.31833

>  <SCORE.INTRA.POLAR>
0

>  <SCORE.INTRA.POLAR.0>
0

>  <SCORE.INTRA.REPUL>
0

>  <SCORE.INTRA.REPUL.0>
0

>  <SCORE.INTRA.SOLV>
0.156144

>  <SCORE.INTRA.SOLV.lig_0>
-48.4015

>  <SCORE.INTRA.VDW>
-0.747967

>  <SCORE.INTRA.VDW.0>
-2.83256

>  <SCORE.INTRA.norm>
-0.0562808

>  <SCORE.RESTR>
1.73909

>  <SCORE.RESTR.CAVITY>
1.73909

>  <SCORE.RESTR.norm>
0.0644109

>  <SCORE.SYSTEM>
0

>  <SCORE.SYSTEM.CONST>
0

>  <SCORE.SYSTEM.DIHEDRAL>
0

>  <SCORE.SYSTEM.SOLV>
0

>  <SCORE.SYSTEM.norm>
0

>  <SCORE.heavy>
27

>  <SCORE.norm>
-0.291446

>  <RMSD>
5.189

$$$$
ligand
 OpenBabel02271912153D
libRbt.so/2013.1/901 2013/11/27
 27 29  0  0  0  0  0  0  0  0999 V2000
   12.1040    5.5858   27.6233 N   0  0  0  0  0  0  0  0  0  0  0  0
   11.2154    6.5892   28.2572 C   0  0  2  0  0  0  0  0  0  0  0  0
   10.0200    6.8005   27.3370 C   0  0  0  0  0  0  0  0  0  0  0  0
    8.9280    6.1412   27.3517 O   0  0  0  0  0  0  0  0  0  0  0  0
   12.0182    7.8670   28.5108 C   0  0  0  0  0  0  0  0  0  0  0  0
   13.2208    7.6371   29.4163 C   0  0  0  0  0  0  0  0  0  0  0  0
   14.3791    8.9686   29.9083 S   0  0  2  0  0  0  0  0  0  0  0  0
   15.3556    9.0477   28.4081 C   0  0  0  0  0  0  0  0  0  0  0  0
   15.4179    7.9994   31.0475 C   0  0  0  0  0  0  0  0  0  0  0  0
   14.6065    7.4058   32.1661 C   0  0  1  0  0  0  0  0  0  0  0  0
   15.3698    6.4770   32.9733 O   0  0  0  0  0  0  0  0  0  0  0  0
   14.0123    8.4251   33.1110 C   0  0  1  0  0  0  0  0  0  0  0  0
   12.7194    8.6400   32.7441 O   0  0  0  0  0  0  0  0  0  0  0  0
   13.9870    7.6224   34.3907 C   0  0  1  0  0  0  0  0  0  0  0  0
   12.8551    6.8737   34.3303 O   0  0  0  0  0  0  0  0  0  0  0  0
   15.2141    6.6850   34.3512 C   0  0  2  0  0  0  0  0  0  0  0  0
   10.1572    7.6579   26.4626 O   0  0  0  0  0  0  0  0  0  0  0  0
   20.2954    7.8059   34.0358 N   0  0  0  0  0  0  0  0  0  0  0  0
   19.4613    6.8196   33.4095 C   0  0  0  0  0  0  0  0  0  0  0  0
   18.0681    6.6231   33.5774 N   0  0  0  0  0  0  0  0  0  0  0  0
   17.5759    7.4734   34.3888 C   0  0  0  0  0  0  0  0  0  0  0  0
   18.3478    8.5301   35.0802 C   0  0  0  0  0  0  0  0  0  0  0  0
   19.6680    8.6723   34.9043 C   0  0  0  0  0  0  0  0  0  0  0  0
   20.2354    9.6397   35.5949 N   0  0  0  0  0  0  0  0  0  0  0  0
   17.6210    9.2771   35.8765 N   0  0  0  0  0  0  0  0  0  0  0  0
   16.3854    8.6890   35.6779 C   0  0  0  0  0  0  0  0  0  0  0  0
   16.3418    7.5702   34.7499 N   0  0  0  0  0  0  0  0  0  0  0  0
  2  1  1  6  0  0  0
  2  3  1  0  0  0  0
  2  5  1  0  0  0  0
  3  4  1  0  0  0  0
  3 17  1  0  0  0  0
  5  6  1  0  0  0  0
  7  6  1  6  0  0  0
  7  8  1  0  0  0  0
  7  9  1  0  0  0  0
 10  9  1  6  0  0  0
 10 11  1  0  0  0  0
 10 12  1  0  0  0  0
 11 16  1  0  0  0  0
 12 13  1  6  0  0  0
 12 14  1  0  0  0  0
 14 15  1  6  0  0  0
 14 16  1  0  0  0  0
 16 27  1  6  0  0  0
 18 19  2  0  0  0  0
 18 23  1  0  0  0  0
 19 20  1  0  0  0  0
 20 21  2  0  0  0  0
 21 22  1  0  0  0  0
 21 27  1  0  0  0  0
 22 23  2  0  0  0  0
 22 25  1  0  0  0  0
 23 24  1  0  0  0  0
 25 26  2  0  0  0  0
 26 27  1  0  0  0  0
M  END
>  <CHROM.1>
89.01364165,-59.31491412,-179.98103446,-79.00744113,-58.55356258,171.66500858
-43.68439502,14.87290482,7.73537261,31.87181278,-2.39366070,0.20377217,1.63573384

>  <Name>
ligand

>  <RI>
0

>  <Rbt.Current_Directory>
/home/itssahil/PROJECTS/Mol_Feturizer/Test_systems_manuscript/rnas/4aob

>  <Rbt.Executable>
rbdock ($Id: //depot/dev/client3/rdock/2013.1/src/exe/rbdock.cxx#4 $)

>  <Rbt.Library>
libRbt.so (2013.1, Build901 2013/11/27)

>  <Rbt.Parameter_File>
/export/apps/rDock/src/rDock_2013.1_src/data/scripts/dock_solv.prm

>  <Rbt.Receptor>
prm/pocket_docking_8.prm

>  <SCORE>
-12.9596

>  <SCORE.INTER>
-12.8436

>  <SCORE.INTER.CONST>
1

>  <SCORE.INTER.POLAR>
0

>  <SCORE.INTER.ROT>
7

>  <SCORE.INTER.SOLV>
10.5443

>  <SCORE.INTER.VDW>
-20.3438

>  <SCORE.INTER.norm>
-0.475688

>  <SCORE.INTRA>
-0.116074

>  <SCORE.INTRA.DIHEDRAL>
-2.423

>  <SCORE.INTRA.DIHEDRAL.0>
6.31833

>  <SCORE.INTRA.POLAR>
0

>  <SCORE.INTRA.POLAR.0>
0

>  <SCORE.INTRA.REPUL>
0

>  <SCORE.INTRA.REPUL.0>
0

>  <SCORE.INTRA.SOLV>
0.255137

>  <SCORE.INTRA.SOLV.lig_0>
-48.4015

>  <SCORE.INTRA.VDW>
0.967859

>  <SCORE.INTRA.VDW.0>
-2.83256

>  <SCORE.INTRA.norm>
-0.00429905

>  <SCORE.RESTR>
0

>  <SCORE.RESTR.CAVITY>
0

>  <SCORE.RESTR.norm>
0

>  <SCORE.SYSTEM>
0

>  <SCORE.SYSTEM.CONST>
0

>  <SCORE.SYSTEM.DIHEDRAL>
0

>  <SCORE.SYSTEM.SOLV>
0

>  <SCORE.SYSTEM.norm>
0

>  <SCORE.heavy>
27

>  <SCORE.norm>
-0.479987

>  <RMSD>
5.209

$$$$
ligand
 OpenBabel02271912153D
libRbt.so/2013.1/901 2013/11/27
 27 29  0  0  0  0  0  0  0  0999 V2000
   11.8276    7.6063   25.9984 N   0  0  0  0  0  0  0  0  0  0  0  0
   11.2967    7.1817   27.3161 C   0  0  2  0  0  0  0  0  0  0  0  0
   10.5175    8.3514   27.9034 C   0  0  0  0  0  0  0  0  0  0  0  0
    9.7973    9.1819   27.2560 O   0  0  0  0  0  0  0  0  0  0  0  0
   12.4651    6.7297   28.1948 C   0  0  0  0  0  0  0  0  0  0  0  0
   12.0088    6.1205   29.5139 C   0  0  0  0  0  0  0  0  0  0  0  0
   13.1101    5.1457   30.6063 S   0  0  2  0  0  0  0  0  0  0  0  0
   14.5758    6.1710   30.4998 C   0  0  0  0  0  0  0  0  0  0  0  0
   13.4607    3.7735   29.4616 C   0  0  0  0  0  0  0  0  0  0  0  0
   14.1849    2.6499   30.1508 C   0  0  1  0  0  0  0  0  0  0  0  0
   15.5671    2.9733   30.4369 O   0  0  0  0  0  0  0  0  0  0  0  0
   13.5563    2.2128   31.4542 C   0  0  1  0  0  0  0  0  0  0  0  0
   12.7916    1.1141   31.2083 O   0  0  0  0  0  0  0  0  0  0  0  0
   14.7837    1.7459   32.2011 C   0  0  1  0  0  0  0  0  0  0  0  0
   15.0119    0.4772   31.7725 O   0  0  0  0  0  0  0  0  0  0  0  0
   15.9510    2.6494   31.7460 C   0  0  2  0  0  0  0  0  0  0  0  0
   10.6496    8.5337   29.1149 O   0  0  0  0  0  0  0  0  0  0  0  0
   18.0714    6.8380   34.0120 N   0  0  0  0  0  0  0  0  0  0  0  0
   18.6031    5.7773   33.2041 C   0  0  0  0  0  0  0  0  0  0  0  0
   17.9061    4.6838   32.6328 N   0  0  0  0  0  0  0  0  0  0  0  0
   16.6633    4.7325   32.9098 C   0  0  0  0  0  0  0  0  0  0  0  0
   16.0181    5.7839   33.7275 C   0  0  0  0  0  0  0  0  0  0  0  0
   16.7171    6.7938   34.2619 C   0  0  0  0  0  0  0  0  0  0  0  0
   16.0235    7.6494   34.9842 N   0  0  0  0  0  0  0  0  0  0  0  0
   14.7272    5.6113   33.8834 N   0  0  0  0  0  0  0  0  0  0  0  0
   14.5618    4.4484   33.1539 C   0  0  0  0  0  0  0  0  0  0  0  0
   15.7567    3.8947   32.5373 N   0  0  0  0  0  0  0  0  0  0  0  0
  2  1  1  6  0  0  0
  2  3  1  0  0  0  0
  2  5  1  0  0  0  0
  3  4  1  0  0  0  0
  3 17  1  0  0  0  0
  5  6  1  0  0  0  0
  7  6  1  6  0  0  0
  7  8  1  0  0  0  0
  7  9  1  0  0  0  0
 10  9  1  1  0  0  0
 10 11  1  0  0  0  0
 10 12  1  0  0  0  0
 11 16  1  0  0  0  0
 12 13  1  6  0  0  0
 12 14  1  0  0  0  0
 14 15  1  6  0  0  0
 14 16  1  0  0  0  0
 16 27  1  1  0  0  0
 18 19  2  0  0  0  0
 18 23  1  0  0  0  0
 19 20  1  0  0  0  0
 20 21  2  0  0  0  0
 21 22  1  0  0  0  0
 21 27  1  0  0  0  0
 22 23  2  0  0  0  0
 22 25  1  0  0  0  0
 23 24  1  0  0  0  0
 25 26  2  0  0  0  0
 26 27  1  0  0  0  0
M  END
>  <CHROM.1>
36.44571690,-173.28580640,165.51211696,42.51604704,-170.54301761,-73.10884066
-101.29604437,14.19145341,5.12504802,31.02486090,-2.74672477,0.79672043,-3.09480975

>  <Name>
ligand

>  <RI>
0

>  <Rbt.Current_Directory>
/home/itssahil/PROJECTS/Mol_Feturizer/Test_systems_manuscript/rnas/4aob

>  <Rbt.Executable>
rbdock ($Id: //depot/dev/client3/rdock/2013.1/src/exe/rbdock.cxx#4 $)

>  <Rbt.Library>
libRbt.so (2013.1, Build901 2013/11/27)

>  <Rbt.Parameter_File>
/export/apps/rDock/src/rDock_2013.1_src/data/scripts/dock_solv.prm

>  <Rbt.Receptor>
prm/pocket_docking_5.prm

>  <SCORE>
-11.268

>  <SCORE.INTER>
-12.7289

>  <SCORE.INTER.CONST>
1

>  <SCORE.INTER.POLAR>
0

>  <SCORE.INTER.ROT>
7

>  <SCORE.INTER.SOLV>
13.4679

>  <SCORE.INTER.VDW>
-21.2419

>  <SCORE.INTER.norm>
-0.47144

>  <SCORE.INTRA>
1.46086

>  <SCORE.INTRA.DIHEDRAL>
-0.197211

>  <SCORE.INTRA.DIHEDRAL.0>
6.31833

>  <SCORE.INTRA.POLAR>
0

>  <SCORE.INTRA.POLAR.0>
0

>  <SCORE.INTRA.REPUL>
0

>  <SCORE.INTRA.REPUL.0>
0

>  <SCORE.INTRA.SOLV>
-0.528404

>  <SCORE.INTRA.SOLV.lig_0>
-48.4015

>  <SCORE.INTRA.VDW>
1.82367

>  <SCORE.INTRA.VDW.0>
-2.83256

>  <SCORE.INTRA.norm>
0.054106

>  <SCORE.RESTR>
0

>  <SCORE.RESTR.CAVITY>
0

>  <SCORE.RESTR.norm>
0

>  <SCORE.SYSTEM>
0

>  <SCORE.SYSTEM.CONST>
0

>  <SCORE.SYSTEM.DIHEDRAL>
0

>  <SCORE.SYSTEM.SOLV>
0

>  <SCORE.SYSTEM.norm>
0

>  <SCORE.heavy>
27

>  <SCORE.norm>
-0.417334

>  <RMSD>
5.212

$$$$
ligand
 OpenBabel02271912153D
libRbt.so/2013.1/901 2013/11/27
 27 29  0  0  0  0  0  0  0  0999 V2000
   12.3939    9.0290   27.7030 N   0  0  0  0  0  0  0  0  0  0  0  0
   12.1416    7.6940   28.2969 C   0  0  2  0  0  0  0  0  0  0  0  0
   13.0049    7.5689   29.5456 C   0  0  0  0  0  0  0  0  0  0  0  0
   12.6423    7.0905   30.6713 O   0  0  0  0  0  0  0  0  0  0  0  0
   12.4388    6.6233   27.2449 C   0  0  0  0  0  0  0  0  0  0  0  0
   12.7128    5.2561   27.8570 C   0  0  0  0  0  0  0  0  0  0  0  0
   14.2855    4.8242   28.6916 S   0  0  2  0  0  0  0  0  0  0  0  0
   15.3205    4.6363   27.2411 C   0  0  0  0  0  0  0  0  0  0  0  0
   13.8724    3.1110   29.1504 C   0  0  0  0  0  0  0  0  0  0  0  0
   14.9429    2.4952   30.0089 C   0  0  1  0  0  0  0  0  0  0  0  0
   15.7644    3.4881   30.6693 O   0  0  0  0  0  0  0  0  0  0  0  0
   14.4209    1.5699   31.0842 C   0  0  1  0  0  0  0  0  0  0  0  0
   14.5266    0.2910   30.6306 O   0  0  0  0  0  0  0  0  0  0  0  0
   15.4840    1.7593   32.1408 C   0  0  1  0  0  0  0  0  0  0  0  0
   16.5026    0.9330   31.7869 O   0  0  0  0  0  0  0  0  0  0  0  0
   15.9621    3.2241   32.0321 C   0  0  2  0  0  0  0  0  0  0  0  0
   14.1449    8.0291   29.4617 O   0  0  0  0  0  0  0  0  0  0  0  0
   13.9944    7.8573   33.3872 N   0  0  0  0  0  0  0  0  0  0  0  0
   15.1009    7.4570   32.5649 C   0  0  0  0  0  0  0  0  0  0  0  0
   15.5321    6.1411   32.2647 N   0  0  0  0  0  0  0  0  0  0  0  0
   14.7859    5.2717   32.8225 C   0  0  0  0  0  0  0  0  0  0  0  0
   13.6213    5.5809   33.6819 C   0  0  0  0  0  0  0  0  0  0  0  0
   13.2559    6.8407   33.9526 C   0  0  0  0  0  0  0  0  0  0  0  0
   12.2138    6.9752   34.7469 N   0  0  0  0  0  0  0  0  0  0  0  0
   13.0165    4.5161   34.1517 N   0  0  0  0  0  0  0  0  0  0  0  0
   13.8030    3.5340   33.5783 C   0  0  0  0  0  0  0  0  0  0  0  0
   14.9031    3.9900   32.7437 N   0  0  0  0  0  0  0  0  0  0  0  0
  2  1  1  6  0  0  0
  2  3  1  0  0  0  0
  2  5  1  0  0  0  0
  3  4  1  0  0  0  0
  3 17  1  0  0  0  0
  5  6  1  0  0  0  0
  7  6  1  6  0  0  0
  7  8  1  0  0  0  0
  7  9  1  0  0  0  0
 10  9  1  1  0  0  0
 10 11  1  0  0  0  0
 10 12  1  0  0  0  0
 11 16  1  0  0  0  0
 12 13  1  6  0  0  0
 12 14  1  0  0  0  0
 14 15  1  6  0  0  0
 14 16  1  0  0  0  0
 16 27  1  1  0  0  0
 18 19  2  0  0  0  0
 18 23  1  0  0  0  0
 19 20  1  0  0  0  0
 20 21  2  0  0  0  0
 21 22  1  0  0  0  0
 21 27  1  0  0  0  0
 22 23  2  0  0  0  0
 22 25  1  0  0  0  0
 23 24  1  0  0  0  0
 25 26  2  0  0  0  0
 26 27  1  0  0  0  0
M  END
>  <CHROM.1>
136.71519654,158.84227486,-75.42404723,-75.22217079,-173.89757081,21.39559173
-66.77021333,14.12956293,4.98170010,30.86543710,-2.83532378,-1.21117158,1.41952814

>  <Name>
ligand

>  <RI>
0

>  <Rbt.Current_Directory>
/home/itssahil/PROJECTS/Mol_Feturizer/Test_systems_manuscript/rnas/4aob

>  <Rbt.Executable>
rbdock ($Id: //depot/dev/client3/rdock/2013.1/src/exe/rbdock.cxx#4 $)

>  <Rbt.Library>
libRbt.so (2013.1, Build901 2013/11/27)

>  <Rbt.Parameter_File>
/export/apps/rDock/src/rDock_2013.1_src/data/scripts/dock_solv.prm

>  <Rbt.Receptor>
prm/pocket_docking_2.prm

>  <SCORE>
-3.95797

>  <SCORE.INTER>
-5.31466

>  <SCORE.INTER.CONST>
1

>  <SCORE.INTER.POLAR>
0

>  <SCORE.INTER.ROT>
7

>  <SCORE.INTER.SOLV>
17.5854

>  <SCORE.INTER.VDW>
-17.6716

>  <SCORE.INTER.norm>
-0.196839

>  <SCORE.INTRA>
0.946479

>  <SCORE.INTRA.DIHEDRAL>
4.03326

>  <SCORE.INTRA.DIHEDRAL.0>
6.31833

>  <SCORE.INTRA.POLAR>
0

>  <SCORE.INTRA.POLAR.0>
0

>  <SCORE.INTRA.REPUL>
0

>  <SCORE.INTRA.REPUL.0>
0

>  <SCORE.INTRA.SOLV>
-0.494888

>  <SCORE.INTRA.SOLV.lig_0>
-48.4015

>  <SCORE.INTRA.VDW>
-0.822705

>  <SCORE.INTRA.VDW.0>
-2.83256

>  <SCORE.INTRA.norm>
0.0350548

>  <SCORE.RESTR>
0.410212

>  <SCORE.RESTR.CAVITY>
0.410212

>  <SCORE.RESTR.norm>
0.015193

>  <SCORE.SYSTEM>
0

>  <SCORE.SYSTEM.CONST>
0

>  <SCORE.SYSTEM.DIHEDRAL>
0

>  <SCORE.SYSTEM.SOLV>
0

>  <SCORE.SYSTEM.norm>
0

>  <SCORE.heavy>
27

>  <SCORE.norm>
-0.146591

>  <RMSD>
5.224

$$$$
ligand
 OpenBabel02271912153D
libRbt.so/2013.1/901 2013/11/27
 27 29  0  0  0  0  0  0  0  0999 V2000
   14.8183    2.8933   29.5600 N   0  0  0  0  0  0  0  0  0  0  0  0
   15.4585    4.1262   29.0418 C   0  0  2  0  0  0  0  0  0  0  0  0
   15.1275    4.2351   27.5590 C   0  0  0  0  0  0  0  0  0  0  0  0
   14.3186    3.4939   26.9079 O   0  0  0  0  0  0  0  0  0  0  0  0
   16.9609    4.0563   29.3238 C   0  0  0  0  0  0  0  0  0  0  0  0
   17.3222    4.5523   30.7176 C   0  0  0  0  0  0  0  0  0  0  0  0
   16.7414    3.7434   32.2554 S   0  0  2  0  0  0  0  0  0  0  0  0
   16.8005    2.0392   31.7053 C   0  0  0  0  0  0  0  0  0  0  0  0
   14.9776    4.1769   32.1249 C   0  0  0  0  0  0  0  0  0  0  0  0
   14.5429    5.0704   33.2540 C   0  0  1  0  0  0  0  0  0  0  0  0
   15.1040    6.4017   33.1560 O   0  0  0  0  0  0  0  0  0  0  0  0
   13.0450    5.2319   33.3769 C   0  0  1  0  0  0  0  0  0  0  0  0
   12.6038    4.3750   34.3379 O   0  0  0  0  0  0  0  0  0  0  0  0
   12.9716    6.6266   33.9530 C   0  0  1  0  0  0  0  0  0  0  0  0
   13.1641    6.4807   35.2898 O   0  0  0  0  0  0  0  0  0  0  0  0
   14.1574    7.4166   33.3562 C   0  0  2  0  0  0  0  0  0  0  0  0
   15.7505    5.0912   26.9286 O   0  0  0  0  0  0  0  0  0  0  0  0
   15.2343    9.4637   28.6846 N   0  0  0  0  0  0  0  0  0  0  0  0
   16.0301    9.1793   29.8449 C   0  0  0  0  0  0  0  0  0  0  0  0
   15.6102    8.6036   31.0697 N   0  0  0  0  0  0  0  0  0  0  0  0
   14.3667    8.3259   31.0475 C   0  0  0  0  0  0  0  0  0  0  0  0
   13.4636    8.5741   29.9016 C   0  0  0  0  0  0  0  0  0  0  0  0
   13.8988    9.1347   28.7657 C   0  0  0  0  0  0  0  0  0  0  0  0
   12.9870    9.3175   27.8329 N   0  0  0  0  0  0  0  0  0  0  0  0
   12.2220    8.2135   30.1224 N   0  0  0  0  0  0  0  0  0  0  0  0
   12.3493    7.7309   31.4119 C   0  0  0  0  0  0  0  0  0  0  0  0
   13.6794    7.7887   31.9970 N   0  0  0  0  0  0  0  0  0  0  0  0
  2  1  1  6  0  0  0
  2  3  1  0  0  0  0
  2  5  1  0  0  0  0
  3  4  1  0  0  0  0
  3 17  1  0  0  0  0
  5  6  1  0  0  0  0
  7  6  1  6  0  0  0
  7  8  1  0  0  0  0
  7  9  1  0  0  0  0
 10  9  1  6  0  0  0
 10 11  1  0  0  0  0
 10 12  1  0  0  0  0
 11 16  1  0  0  0  0
 12 13  1  1  0  0  0
 12 14  1  0  0  0  0
 14 15  1  1  0  0  0
 14 16  1  0  0  0  0
 16 27  1  6  0  0  0
 18 19  2  0  0  0  0
 18 23  1  0  0  0  0
 19 20  1  0  0  0  0
 20 21  2  0  0  0  0
 21 22  1  0  0  0  0
 21 27  1  0  0  0  0
 22 23  2  0  0  0  0
 22 25  1  0  0  0  0
 23 24  1  0  0  0  0
 25 26  2  0  0  0  0
 26 27  1  0  0  0  0
M  END
>  <CHROM.1>
7.57747799,-85.33616459,63.08606875,36.23154482,-116.26392870,70.08973850
-64.89145228,14.69611037,5.96624150,30.96149026,-0.62999569,1.10325327,-1.09313928

>  <Name>
ligand

>  <RI>
0

>  <Rbt.Current_Directory>
/home/itssahil/PROJECTS/Mol_Feturizer/Test_systems_manuscript/rnas/4aob

>  <Rbt.Executable>
rbdock ($Id: //depot/dev/client3/rdock/2013.1/src/exe/rbdock.cxx#4 $)

>  <Rbt.Library>
libRbt.so (2013.1, Build901 2013/11/27)

>  <Rbt.Parameter_File>
/export/apps/rDock/src/rDock_2013.1_src/data/scripts/dock_solv.prm

>  <Rbt.Receptor>
prm/pocket_docking_3.prm

>  <SCORE>
-8.85303

>  <SCORE.INTER>
-13.7818

>  <SCORE.INTER.CONST>
1

>  <SCORE.INTER.POLAR>
0

>  <SCORE.INTER.ROT>
7

>  <SCORE.INTER.SOLV>
10.1212

>  <SCORE.INTER.VDW>
-20.8283

>  <SCORE.INTER.norm>
-0.510439

>  <SCORE.INTRA>
4.92882

>  <SCORE.INTRA.DIHEDRAL>
3.99685

>  <SCORE.INTRA.DIHEDRAL.0>
6.31833

>  <SCORE.INTRA.POLAR>
0

>  <SCORE.INTRA.POLAR.0>
0

>  <SCORE.INTRA.REPUL>
0

>  <SCORE.INTRA.REPUL.0>
0

>  <SCORE.INTRA.SOLV>
3.27899

>  <SCORE.INTRA.SOLV.lig_0>
-48.4015

>  <SCORE.INTRA.VDW>
1.2909

>  <SCORE.INTRA.VDW.0>
-2.83256

>  <SCORE.INTRA.norm>
0.182549

>  <SCORE.RESTR>
0

>  <SCORE.RESTR.CAVITY>
0

>  <SCORE.RESTR.norm>
0

>  <SCORE.SYSTEM>
0

>  <SCORE.SYSTEM.CONST>
0

>  <SCORE.SYSTEM.DIHEDRAL>
0

>  <SCORE.SYSTEM.SOLV>
0

>  <SCORE.SYSTEM.norm>
0

>  <SCORE.heavy>
27

>  <SCORE.norm>
-0.32789

>  <RMSD>
5.235

$$$$
ligand
 OpenBabel02271912153D
libRbt.so/2013.1/901 2013/11/27
 27 29  0  0  0  0  0  0  0  0999 V2000
   15.0388    3.2516   29.7126 N   0  0  0  0  0  0  0  0  0  0  0  0
   15.1708    1.9332   30.3780 C   0  0  2  0  0  0  0  0  0  0  0  0
   14.0027    1.7795   31.3435 C   0  0  0  0  0  0  0  0  0  0  0  0
   13.1286    0.8504   31.3318 O   0  0  0  0  0  0  0  0  0  0  0  0
   16.5371    1.8628   31.0637 C   0  0  0  0  0  0  0  0  0  0  0  0
   16.6872    2.8835   32.1839 C   0  0  0  0  0  0  0  0  0  0  0  0
   16.3805    4.6757   31.9598 S   0  0  2  0  0  0  0  0  0  0  0  0
   18.0196    5.1680   31.4293 C   0  0  0  0  0  0  0  0  0  0  0  0
   16.3358    5.1517   33.7170 C   0  0  0  0  0  0  0  0  0  0  0  0
   15.6329    6.4664   33.9158 C   0  0  1  0  0  0  0  0  0  0  0  0
   16.1205    7.4972   33.0233 O   0  0  0  0  0  0  0  0  0  0  0  0
   14.1333    6.4023   33.7367 C   0  0  1  0  0  0  0  0  0  0  0  0
   13.5634    6.3002   34.9685 O   0  0  0  0  0  0  0  0  0  0  0  0
   13.8629    7.8008   33.2330 C   0  0  1  0  0  0  0  0  0  0  0  0
   13.7955    8.5822   34.3422 O   0  0  0  0  0  0  0  0  0  0  0  0
   15.0932    8.2173   32.3969 C   0  0  2  0  0  0  0  0  0  0  0  0
   13.8699    2.6774   32.1769 O   0  0  0  0  0  0  0  0  0  0  0  0
   15.6026    8.3173   27.2099 N   0  0  0  0  0  0  0  0  0  0  0  0
   16.0258    9.1991   28.2606 C   0  0  0  0  0  0  0  0  0  0  0  0
   15.8282    9.0500   29.6558 N   0  0  0  0  0  0  0  0  0  0  0  0
   15.2021    7.9724   29.9213 C   0  0  0  0  0  0  0  0  0  0  0  0
   14.7291    6.9971   28.9135 C   0  0  0  0  0  0  0  0  0  0  0  0
   14.9242    7.1838   27.6016 C   0  0  0  0  0  0  0  0  0  0  0  0
   14.4353    6.2492   26.8126 N   0  0  0  0  0  0  0  0  0  0  0  0
   14.0984    5.9699   29.4307 N   0  0  0  0  0  0  0  0  0  0  0  0
   14.1822    6.3006   30.7707 C   0  0  0  0  0  0  0  0  0  0  0  0
   14.8720    7.5402   31.0904 N   0  0  0  0  0  0  0  0  0  0  0  0
  2  1  1  1  0  0  0
  2  3  1  0  0  0  0
  2  5  1  0  0  0  0
  3  4  1  0  0  0  0
  3 17  1  0  0  0  0
  5  6  1  0  0  0  0
  7  6  1  1  0  0  0
  7  8  1  0  0  0  0
  7  9  1  0  0  0  0
 10  9  1  6  0  0  0
 10 11  1  0  0  0  0
 10 12  1  0  0  0  0
 11 16  1  0  0  0  0
 12 13  1  1  0  0  0
 12 14  1  0  0  0  0
 14 15  1  1  0  0  0
 14 16  1  0  0  0  0
 16 27  1  6  0  0  0
 18 19  2  0  0  0  0
 18 23  1  0  0  0  0
 19 20  1  0  0  0  0
 20 21  2  0  0  0  0
 21 22  1  0  0  0  0
 21 27  1  0  0  0  0
 22 23  2  0  0  0  0
 22 25  1  0  0  0  0
 23 24  1  0  0  0  0
 25 26  2  0  0  0  0
 26 27  1  0  0  0  0
M  END
>  <CHROM.1>
121.54734064,64.09876989,-53.18963745,-88.14151614,-160.00089960,-49.49997313
-107.27233288,15.13805776,5.69038407,31.25458914,-2.06020087,1.50322690,0.13571899

>  <Name>
ligand

>  <RI>
0

>  <Rbt.Current_Directory>
/home/itssahil/PROJECTS/Mol_Feturizer/Test_systems_manuscript/rnas/4aob

>  <Rbt.Executable>
rbdock ($Id: //depot/dev/client3/rdock/2013.1/src/exe/rbdock.cxx#4 $)

>  <Rbt.Library>
libRbt.so (2013.1, Build901 2013/11/27)

>  <Rbt.Parameter_File>
/export/apps/rDock/src/rDock_2013.1_src/data/scripts/dock_solv.prm

>  <Rbt.Receptor>
prm/pocket_docking_3.prm

>  <SCORE>
-7.27431

>  <SCORE.INTER>
-8.52524

>  <SCORE.INTER.CONST>
1

>  <SCORE.INTER.POLAR>
0

>  <SCORE.INTER.ROT>
7

>  <SCORE.INTER.SOLV>
8.15732

>  <SCORE.INTER.VDW>
-16.6693

>  <SCORE.INTER.norm>
-0.31575

>  <SCORE.INTRA>
1.10583

>  <SCORE.INTRA.DIHEDRAL>
0.756854

>  <SCORE.INTRA.DIHEDRAL.0>
6.31833

>  <SCORE.INTRA.POLAR>
0

>  <SCORE.INTRA.POLAR.0>
0

>  <SCORE.INTRA.REPUL>
0

>  <SCORE.INTRA.REPUL.0>
0

>  <SCORE.INTRA.SOLV>
3.32344

>  <SCORE.INTRA.SOLV.lig_0>
-48.4015

>  <SCORE.INTRA.VDW>
-0.934317

>  <SCORE.INTRA.VDW.0>
-2.83256

>  <SCORE.INTRA.norm>
0.0409566

>  <SCORE.RESTR>
0.145103

>  <SCORE.RESTR.CAVITY>
0.145103

>  <SCORE.RESTR.norm>
0.00537419

>  <SCORE.SYSTEM>
0

>  <SCORE.SYSTEM.CONST>
0

>  <SCORE.SYSTEM.DIHEDRAL>
0

>  <SCORE.SYSTEM.SOLV>
0

>  <SCORE.SYSTEM.norm>
0

>  <SCORE.heavy>
27

>  <SCORE.norm>
-0.269419

>  <RMSD>
5.236

$$$$
ligand
 OpenBabel02271912153D
libRbt.so/2013.1/901 2013/11/27
 27 29  0  0  0  0  0  0  0  0999 V2000
   13.0654    6.5791   36.1631 N   0  0  0  0  0  0  0  0  0  0  0  0
   12.8007    6.6639   34.7067 C   0  0  2  0  0  0  0  0  0  0  0  0
   13.0230    5.2795   34.1114 C   0  0  0  0  0  0  0  0  0  0  0  0
   14.1395    4.6714   34.0066 O   0  0  0  0  0  0  0  0  0  0  0  0
   13.7100    7.7364   34.1030 C   0  0  0  0  0  0  0  0  0  0  0  0
   13.2744    8.1600   32.7065 C   0  0  0  0  0  0  0  0  0  0  0  0
   13.2865    7.0317   31.2632 S   0  0  2  0  0  0  0  0  0  0  0  0
   15.0550    6.9684   30.9822 C   0  0  0  0  0  0  0  0  0  0  0  0
   12.6933    8.2109   30.0086 C   0  0  0  0  0  0  0  0  0  0  0  0
   12.5091    7.5487   28.6709 C   0  0  1  0  0  0  0  0  0  0  0  0
   13.7047    6.8682   28.2190 O   0  0  0  0  0  0  0  0  0  0  0  0
   11.3848    6.5392   28.6271 C   0  0  1  0  0  0  0  0  0  0  0  0
   10.2898    7.1474   28.0948 O   0  0  0  0  0  0  0  0  0  0  0  0
   11.9196    5.5868   27.5835 C   0  0  1  0  0  0  0  0  0  0  0  0
   11.6001    6.1408   26.3849 O   0  0  0  0  0  0  0  0  0  0  0  0
   13.4563    5.5742   27.7394 C   0  0  2  0  0  0  0  0  0  0  0  0
   12.0268    4.7290   33.6391 O   0  0  0  0  0  0  0  0  0  0  0  0
   16.4883    2.0391   30.0814 N   0  0  0  0  0  0  0  0  0  0  0  0
   16.6262    2.8206   28.8852 C   0  0  0  0  0  0  0  0  0  0  0  0
   15.7171    3.7692   28.3545 N   0  0  0  0  0  0  0  0  0  0  0  0
   14.6878    3.8881   29.0963 C   0  0  0  0  0  0  0  0  0  0  0  0
   14.4542    3.1344   30.3484 C   0  0  0  0  0  0  0  0  0  0  0  0
   15.3339    2.2349   30.8078 C   0  0  0  0  0  0  0  0  0  0  0  0
   14.9938    1.6208   31.9223 N   0  0  0  0  0  0  0  0  0  0  0  0
   13.3145    3.4214   30.9306 N   0  0  0  0  0  0  0  0  0  0  0  0
   12.8342    4.3651   30.0414 C   0  0  0  0  0  0  0  0  0  0  0  0
   13.6814    4.6698   28.8995 N   0  0  0  0  0  0  0  0  0  0  0  0
  2  1  1  1  0  0  0
  2  3  1  0  0  0  0
  2  5  1  0  0  0  0
  3  4  1  0  0  0  0
  3 17  1  0  0  0  0
  5  6  1  0  0  0  0
  7  6  1  1  0  0  0
  7  8  1  0  0  0  0
  7  9  1  0  0  0  0
 10  9  1  1  0  0  0
 10 11  1  0  0  0  0
 10 12  1  0  0  0  0
 11 16  1  0  0  0  0
 12 13  1  6  0  0  0
 12 14  1  0  0  0  0
 14 15  1  6  0  0  0
 14 16  1  0  0  0  0
 16 27  1  1  0  0  0
 18 19  2  0  0  0  0
 18 23  1  0  0  0  0
 19 20  1  0  0  0  0
 20 21  2  0  0  0  0
 21 22  1  0  0  0  0
 21 27  1  0  0  0  0
 22 23  2  0  0  0  0
 22 25  1  0  0  0  0
 23 24  1  0  0  0  0
 25 26  2  0  0  0  0
 26 27  1  0  0  0  0
M  END
>  <CHROM.1>
-68.23335777,-164.96407315,-64.70463397,-73.70842366,-176.58619042,-54.47101374
-105.66391615,13.50449263,5.44905894,30.64068413,1.49571386,-0.97675050,1.41275483

>  <Name>
ligand

>  <RI>
0

>  <Rbt.Current_Directory>
/home/itssahil/PROJECTS/Mol_Feturizer/Test_systems_manuscript/rnas/4aob

>  <Rbt.Executable>
rbdock ($Id: //depot/dev/client3/rdock/2013.1/src/exe/rbdock.cxx#4 $)

>  <Rbt.Library>
libRbt.so (2013.1, Build901 2013/11/27)

>  <Rbt.Parameter_File>
/export/apps/rDock/src/rDock_2013.1_src/data/scripts/dock_solv.prm

>  <Rbt.Receptor>
prm/pocket_docking_4.prm

>  <SCORE>
-12.1235

>  <SCORE.INTER>
-9.13375

>  <SCORE.INTER.CONST>
1

>  <SCORE.INTER.POLAR>
0

>  <SCORE.INTER.ROT>
7

>  <SCORE.INTER.SOLV>
18.2532

>  <SCORE.INTER.VDW>
-20.4402

>  <SCORE.INTER.norm>
-0.338287

>  <SCORE.INTRA>
-2.98971

>  <SCORE.INTRA.DIHEDRAL>
-1.44161

>  <SCORE.INTRA.DIHEDRAL.0>
6.31833

>  <SCORE.INTRA.POLAR>
0

>  <SCORE.INTRA.POLAR.0>
0

>  <SCORE.INTRA.REPUL>
0

>  <SCORE.INTRA.REPUL.0>
0

>  <SCORE.INTRA.SOLV>
-0.247072

>  <SCORE.INTRA.SOLV.lig_0>
-48.4015

>  <SCORE.INTRA.VDW>
-2.14537

>  <SCORE.INTRA.VDW.0>
-2.83256

>  <SCORE.INTRA.norm>
-0.11073

>  <SCORE.RESTR>
0

>  <SCORE.RESTR.CAVITY>
0

>  <SCORE.RESTR.norm>
0

>  <SCORE.SYSTEM>
0

>  <SCORE.SYSTEM.CONST>
0

>  <SCORE.SYSTEM.DIHEDRAL>
0

>  <SCORE.SYSTEM.SOLV>
0

>  <SCORE.SYSTEM.norm>
0

>  <SCORE.heavy>
27

>  <SCORE.norm>
-0.449017

>  <RMSD>
5.237

$$$$
ligand
 OpenBabel02271912153D
libRbt.so/2013.1/901 2013/11/27
 27 29  0  0  0  0  0  0  0  0999 V2000
   12.4627    8.7556   27.2106 N   0  0  0  0  0  0  0  0  0  0  0  0
   11.7729    7.4754   26.9213 C   0  0  2  0  0  0  0  0  0  0  0  0
   10.3684    7.5608   27.5047 C   0  0  0  0  0  0  0  0  0  0  0  0
    9.9084    8.4999   28.2355 O   0  0  0  0  0  0  0  0  0  0  0  0
   12.6016    6.3277   27.5023 C   0  0  0  0  0  0  0  0  0  0  0  0
   14.0498    6.3498   27.0316 C   0  0  0  0  0  0  0  0  0  0  0  0
   15.3256    5.1878   27.6468 S   0  0  2  0  0  0  0  0  0  0  0  0
   14.5528    3.6487   27.1525 C   0  0  0  0  0  0  0  0  0  0  0  0
   14.9482    5.3075   29.4243 C   0  0  0  0  0  0  0  0  0  0  0  0
   14.9187    3.9521   30.0756 C   0  0  1  0  0  0  0  0  0  0  0  0
   15.8376    3.8517   31.1903 O   0  0  0  0  0  0  0  0  0  0  0  0
   13.5580    3.5388   30.5881 C   0  0  1  0  0  0  0  0  0  0  0  0
   12.9836    2.7275   29.6585 O   0  0  0  0  0  0  0  0  0  0  0  0
   13.9634    2.6672   31.7536 C   0  0  1  0  0  0  0  0  0  0  0  0
   14.2410    1.4491   31.2201 O   0  0  0  0  0  0  0  0  0  0  0  0
   15.2622    3.2728   32.3304 C   0  0  2  0  0  0  0  0  0  0  0  0
    9.6341    6.5954   27.2870 O   0  0  0  0  0  0  0  0  0  0  0  0
   16.3321    7.7744   34.7316 N   0  0  0  0  0  0  0  0  0  0  0  0
   17.1000    6.8931   33.8984 C   0  0  0  0  0  0  0  0  0  0  0  0
   16.6813    5.6835   33.2906 N   0  0  0  0  0  0  0  0  0  0  0  0
   15.4616    5.4297   33.5585 C   0  0  0  0  0  0  0  0  0  0  0  0
   14.5856    6.2749   34.4004 C   0  0  0  0  0  0  0  0  0  0  0  0
   15.0261    7.4049   34.9689 C   0  0  0  0  0  0  0  0  0  0  0  0
   14.1493    8.0512   35.7095 N   0  0  0  0  0  0  0  0  0  0  0  0
   13.3717    5.7985   34.5407 N   0  0  0  0  0  0  0  0  0  0  0  0
   13.4860    4.6514   33.7771 C   0  0  0  0  0  0  0  0  0  0  0  0
   14.7787    4.4132   33.1550 N   0  0  0  0  0  0  0  0  0  0  0  0
  2  1  1  1  0  0  0
  2  3  1  0  0  0  0
  2  5  1  0  0  0  0
  3  4  1  0  0  0  0
  3 17  1  0  0  0  0
  5  6  1  0  0  0  0
  7  6  1  6  0  0  0
  7  8  1  0  0  0  0
  7  9  1  0  0  0  0
 10  9  1  1  0  0  0
 10 11  1  0  0  0  0
 10 12  1  0  0  0  0
 11 16  1  0  0  0  0
 12 13  1  6  0  0  0
 12 14  1  0  0  0  0
 14 15  1  6  0  0  0
 14 16  1  0  0  0  0
 16 27  1  1  0  0  0
 18 19  2  0  0  0  0
 18 23  1  0  0  0  0
 19 20  1  0  0  0  0
 20 21  2  0  0  0  0
 21 22  1  0  0  0  0
 21 27  1  0  0  0  0
 22 23  2  0  0  0  0
 22 25  1  0  0  0  0
 23 24  1  0  0  0  0
 25 26  2  0  0  0  0
 26 27  1  0  0  0  0
M  END
>  <CHROM.1>
-6.90422472,-53.53294357,175.19166176,59.38233098,135.01941783,123.52547298
-54.04009402,13.99302300,5.48586140,30.66280054,2.41491104,0.97270467,-2.20099023

>  <Name>
ligand

>  <RI>
0

>  <Rbt.Current_Directory>
/home/itssahil/PROJECTS/Mol_Feturizer/Test_systems_manuscript/rnas/4aob

>  <Rbt.Executable>
rbdock ($Id: //depot/dev/client3/rdock/2013.1/src/exe/rbdock.cxx#4 $)

>  <Rbt.Library>
libRbt.so (2013.1, Build901 2013/11/27)

>  <Rbt.Parameter_File>
/export/apps/rDock/src/rDock_2013.1_src/data/scripts/dock_solv.prm

>  <Rbt.Receptor>
prm/pocket_docking_4.prm

>  <SCORE>
-5.00361

>  <SCORE.INTER>
-9.79405

>  <SCORE.INTER.CONST>
1

>  <SCORE.INTER.POLAR>
0

>  <SCORE.INTER.ROT>
7

>  <SCORE.INTER.SOLV>
11.6274

>  <SCORE.INTER.VDW>
-18.6718

>  <SCORE.INTER.norm>
-0.362743

>  <SCORE.INTRA>
4.79044

>  <SCORE.INTRA.DIHEDRAL>
5.04083

>  <SCORE.INTRA.DIHEDRAL.0>
6.31833

>  <SCORE.INTRA.POLAR>
0

>  <SCORE.INTRA.POLAR.0>
0

>  <SCORE.INTRA.REPUL>
0

>  <SCORE.INTRA.REPUL.0>
0

>  <SCORE.INTRA.SOLV>
0.286083

>  <SCORE.INTRA.SOLV.lig_0>
-48.4015

>  <SCORE.INTRA.VDW>
2.12698

>  <SCORE.INTRA.VDW.0>
-2.83256

>  <SCORE.INTRA.norm>
0.177424

>  <SCORE.RESTR>
0

>  <SCORE.RESTR.CAVITY>
0

>  <SCORE.RESTR.norm>
0

>  <SCORE.SYSTEM>
0

>  <SCORE.SYSTEM.CONST>
0

>  <SCORE.SYSTEM.DIHEDRAL>
0

>  <SCORE.SYSTEM.SOLV>
0

>  <SCORE.SYSTEM.norm>
0

>  <SCORE.heavy>
27

>  <SCORE.norm>
-0.185319

>  <RMSD>
5.240

$$$$
ligand
 OpenBabel02271912153D
libRbt.so/2013.1/901 2013/11/27
 27 29  0  0  0  0  0  0  0  0999 V2000
   17.1987    7.4468   30.1132 N   0  0  0  0  0  0  0  0  0  0  0  0
   15.8720    7.4834   30.7740 C   0  0  2  0  0  0  0  0  0  0  0  0
   15.1215    8.6990   30.2454 C   0  0  0  0  0  0  0  0  0  0  0  0
   15.6425    9.7726   29.7944 O   0  0  0  0  0  0  0  0  0  0  0  0
   16.0780    7.5105   32.2901 C   0  0  0  0  0  0  0  0  0  0  0  0
   14.7728    7.3831   33.0643 C   0  0  0  0  0  0  0  0  0  0  0  0
   13.6124    5.9807   32.8565 S   0  0  2  0  0  0  0  0  0  0  0  0
   12.6216    6.2270   34.3290 C   0  0  0  0  0  0  0  0  0  0  0  0
   14.7477    4.6350   33.3216 C   0  0  0  0  0  0  0  0  0  0  0  0
   14.3274    3.3235   32.7172 C   0  0  1  0  0  0  0  0  0  0  0  0
   12.9723    3.3560   32.2077 O   0  0  0  0  0  0  0  0  0  0  0  0
   15.2115    2.8490   31.5866 C   0  0  1  0  0  0  0  0  0  0  0  0
   16.0945    1.9441   32.0904 O   0  0  0  0  0  0  0  0  0  0  0  0
   14.2047    2.0810   30.7625 C   0  0  1  0  0  0  0  0  0  0  0  0
   14.1185    0.8546   31.3404 O   0  0  0  0  0  0  0  0  0  0  0  0
   12.8520    2.8097   30.9219 C   0  0  2  0  0  0  0  0  0  0  0  0
   13.8925    8.6478   30.3180 O   0  0  0  0  0  0  0  0  0  0  0  0
   14.5302    4.6592   26.3462 N   0  0  0  0  0  0  0  0  0  0  0  0
   14.5435    3.3566   26.9492 C   0  0  0  0  0  0  0  0  0  0  0  0
   14.0381    2.9785   28.2178 N   0  0  0  0  0  0  0  0  0  0  0  0
   13.5173    3.9719   28.8226 C   0  0  0  0  0  0  0  0  0  0  0  0
   13.4490    5.3495   28.2859 C   0  0  0  0  0  0  0  0  0  0  0  0
   13.9527    5.6678   27.0864 C   0  0  0  0  0  0  0  0  0  0  0  0
   13.8432    6.9334   26.7383 N   0  0  0  0  0  0  0  0  0  0  0  0
   12.8754    6.2034   29.0997 N   0  0  0  0  0  0  0  0  0  0  0  0
   12.5771    5.3545   30.1497 C   0  0  0  0  0  0  0  0  0  0  0  0
   12.9648    3.9624   29.9876 N   0  0  0  0  0  0  0  0  0  0  0  0
  2  1  1  6  0  0  0
  2  3  1  0  0  0  0
  2  5  1  0  0  0  0
  3  4  1  0  0  0  0
  3 17  1  0  0  0  0
  5  6  1  0  0  0  0
  7  6  1  1  0  0  0
  7  8  1  0  0  0  0
  7  9  1  0  0  0  0
 10  9  1  6  0  0  0
 10 11  1  0  0  0  0
 10 12  1  0  0  0  0
 11 16  1  0  0  0  0
 12 13  1  1  0  0  0
 12 14  1  0  0  0  0
 14 15  1  1  0  0  0
 14 16  1  0  0  0  0
 16 27  1  6  0  0  0
 18 19  2  0  0  0  0
 18 23  1  0  0  0  0
 19 20  1  0  0  0  0
 20 21  2  0  0  0  0
 21 22  1  0  0  0  0
 21 27  1  0  0  0  0
 22 23  2  0  0  0  0
 22 25  1  0  0  0  0
 23 24  1  0  0  0  0
 25 26  2  0  0  0  0
 26 27  1  0  0  0  0
M  END
>  <CHROM.1>
-26.89387433,-173.21922992,56.64947957,164.72557441,-155.53569984,-14.73379477
144.84112019,14.26438734,5.21006383,30.57320647,-0.34969870,1.40872416,1.73624292

>  <Name>
ligand

>  <RI>
0

>  <Rbt.Current_Directory>
/home/itssahil/PROJECTS/Mol_Feturizer/Test_systems_manuscript/rnas/4aob

>  <Rbt.Executable>
rbdock ($Id: //depot/dev/client3/rdock/2013.1/src/exe/rbdock.cxx#4 $)

>  <Rbt.Library>
libRbt.so (2013.1, Build901 2013/11/27)

>  <Rbt.Parameter_File>
/export/apps/rDock/src/rDock_2013.1_src/data/scripts/dock_solv.prm

>  <Rbt.Receptor>
prm/pocket_docking_6.prm

>  <SCORE>
-11.3603

>  <SCORE.INTER>
-12.7916

>  <SCORE.INTER.CONST>
1

>  <SCORE.INTER.POLAR>
0

>  <SCORE.INTER.ROT>
7

>  <SCORE.INTER.SOLV>
7.3288

>  <SCORE.INTER.VDW>
-19.2373

>  <SCORE.INTER.norm>
-0.473763

>  <SCORE.INTRA>
1.43127

>  <SCORE.INTRA.DIHEDRAL>
4.24623

>  <SCORE.INTRA.DIHEDRAL.0>
6.31833

>  <SCORE.INTRA.POLAR>
0

>  <SCORE.INTRA.POLAR.0>
0

>  <SCORE.INTRA.REPUL>
0

>  <SCORE.INTRA.REPUL.0>
0

>  <SCORE.INTRA.SOLV>
-0.372584

>  <SCORE.INTRA.SOLV.lig_0>
-48.4015

>  <SCORE.INTRA.VDW>
-0.50555

>  <SCORE.INTRA.VDW.0>
-2.83256

>  <SCORE.INTRA.norm>
0.0530101

>  <SCORE.RESTR>
0

>  <SCORE.RESTR.CAVITY>
0

>  <SCORE.RESTR.norm>
0

>  <SCORE.SYSTEM>
0

>  <SCORE.SYSTEM.CONST>
0

>  <SCORE.SYSTEM.DIHEDRAL>
0

>  <SCORE.SYSTEM.SOLV>
0

>  <SCORE.SYSTEM.norm>
0

>  <SCORE.heavy>
27

>  <SCORE.norm>
-0.420753

>  <RMSD>
5.247

$$$$
ligand
 OpenBabel02271912153D
libRbt.so/2013.1/901 2013/11/27
 27 29  0  0  0  0  0  0  0  0999 V2000
   11.2330    8.2103   29.0192 N   0  0  0  0  0  0  0  0  0  0  0  0
   12.2885    7.3885   28.3800 C   0  0  2  0  0  0  0  0  0  0  0  0
   12.8207    8.1636   27.1816 C   0  0  0  0  0  0  0  0  0  0  0  0
   14.0373    8.4809   26.9653 O   0  0  0  0  0  0  0  0  0  0  0  0
   11.6947    6.0284   28.0068 C   0  0  0  0  0  0  0  0  0  0  0  0
   12.7089    5.1041   27.3463 C   0  0  0  0  0  0  0  0  0  0  0  0
   14.3056    4.6461   28.1190 S   0  0  2  0  0  0  0  0  0  0  0  0
   14.9525    3.6064   26.8109 C   0  0  0  0  0  0  0  0  0  0  0  0
   13.6690    3.4548   29.3405 C   0  0  0  0  0  0  0  0  0  0  0  0
   14.7860    2.7324   30.0422 C   0  0  1  0  0  0  0  0  0  0  0  0
   15.8328    3.6282   30.4879 O   0  0  0  0  0  0  0  0  0  0  0  0
   14.3478    1.9330   31.2480 C   0  0  1  0  0  0  0  0  0  0  0  0
   14.2053    0.6344   30.8664 O   0  0  0  0  0  0  0  0  0  0  0  0
   15.5967    2.0166   32.0940 C   0  0  1  0  0  0  0  0  0  0  0  0
   16.4211    1.0435   31.6260 O   0  0  0  0  0  0  0  0  0  0  0  0
   16.2332    3.3954   31.8114 C   0  0  2  0  0  0  0  0  0  0  0  0
   11.9753    8.5643   26.3795 O   0  0  0  0  0  0  0  0  0  0  0  0
   16.0488    7.7268   34.7061 N   0  0  0  0  0  0  0  0  0  0  0  0
   17.0825    7.1001   33.9320 C   0  0  0  0  0  0  0  0  0  0  0  0
   16.9996    5.9078   33.1709 N   0  0  0  0  0  0  0  0  0  0  0  0
   15.8304    5.4042   33.2267 C   0  0  0  0  0  0  0  0  0  0  0  0
   14.6978    5.9747   33.9898 C   0  0  0  0  0  0  0  0  0  0  0  0
   14.8230    7.0976   34.7092 C   0  0  0  0  0  0  0  0  0  0  0  0
   13.7431    7.4849   35.3562 N   0  0  0  0  0  0  0  0  0  0  0  0
   13.5958    5.2687   33.9027 N   0  0  0  0  0  0  0  0  0  0  0  0
   14.0389    4.2534   33.0752 C   0  0  0  0  0  0  0  0  0  0  0  0
   15.4249    4.3290   32.6418 N   0  0  0  0  0  0  0  0  0  0  0  0
  2  1  1  6  0  0  0
  2  3  1  0  0  0  0
  2  5  1  0  0  0  0
  3  4  1  0  0  0  0
  3 17  1  0  0  0  0
  5  6  1  0  0  0  0
  7  6  1  6  0  0  0
  7  8  1  0  0  0  0
  7  9  1  0  0  0  0
 10  9  1  1  0  0  0
 10 11  1  0  0  0  0
 10 12  1  0  0  0  0
 11 16  1  0  0  0  0
 12 13  1  6  0  0  0
 12 14  1  0  0  0  0
 14 15  1  6  0  0  0
 14 16  1  0  0  0  0
 16 27  1  1  0  0  0
 18 19  2  0  0  0  0
 18 23  1  0  0  0  0
 19 20  1  0  0  0  0
 20 21  2  0  0  0  0
 21 22  1  0  0  0  0
 21 27  1  0  0  0  0
 22 23  2  0  0  0  0
 22 25  1  0  0  0  0
 23 24  1  0  0  0  0
 25 26  2  0  0  0  0
 26 27  1  0  0  0  0
M  END
>  <CHROM.1>
124.37090212,-179.71430457,55.97144514,-179.03645076,172.18696457,46.44451998
-106.48097181,14.40256250,5.10888529,30.67091066,2.79936367,1.14939873,-2.44171046

>  <Name>
ligand

>  <RI>
0

>  <Rbt.Current_Directory>
/home/itssahil/PROJECTS/Mol_Feturizer/Test_systems_manuscript/rnas/4aob

>  <Rbt.Executable>
rbdock ($Id: //depot/dev/client3/rdock/2013.1/src/exe/rbdock.cxx#4 $)

>  <Rbt.Library>
libRbt.so (2013.1, Build901 2013/11/27)

>  <Rbt.Parameter_File>
/export/apps/rDock/src/rDock_2013.1_src/data/scripts/dock_solv.prm

>  <Rbt.Receptor>
prm/pocket_docking_4.prm

>  <SCORE>
-10.5314

>  <SCORE.INTER>
-9.41626

>  <SCORE.INTER.CONST>
1

>  <SCORE.INTER.POLAR>
0

>  <SCORE.INTER.ROT>
7

>  <SCORE.INTER.SOLV>
16.2613

>  <SCORE.INTER.VDW>
-19.9646

>  <SCORE.INTER.norm>
-0.34875

>  <SCORE.INTRA>
-1.11512

>  <SCORE.INTRA.DIHEDRAL>
-2.16609

>  <SCORE.INTRA.DIHEDRAL.0>
6.31833

>  <SCORE.INTRA.POLAR>
0

>  <SCORE.INTRA.POLAR.0>
0

>  <SCORE.INTRA.REPUL>
0

>  <SCORE.INTRA.REPUL.0>
0

>  <SCORE.INTRA.SOLV>
-0.653447

>  <SCORE.INTRA.SOLV.lig_0>
-48.4015

>  <SCORE.INTRA.VDW>
0.294645

>  <SCORE.INTRA.VDW.0>
-2.83256

>  <SCORE.INTRA.norm>
-0.0413008

>  <SCORE.RESTR>
0

>  <SCORE.RESTR.CAVITY>
0

>  <SCORE.RESTR.norm>
0

>  <SCORE.SYSTEM>
0

>  <SCORE.SYSTEM.CONST>
0

>  <SCORE.SYSTEM.DIHEDRAL>
0

>  <SCORE.SYSTEM.SOLV>
0

>  <SCORE.SYSTEM.norm>
0

>  <SCORE.heavy>
27

>  <SCORE.norm>
-0.390051

>  <RMSD>
5.255

$$$$
ligand
 OpenBabel02271912153D
libRbt.so/2013.1/901 2013/11/27
 27 29  0  0  0  0  0  0  0  0999 V2000
   12.0105    7.0165   31.0540 N   0  0  0  0  0  0  0  0  0  0  0  0
   12.8645    6.8055   29.8605 C   0  0  2  0  0  0  0  0  0  0  0  0
   13.4933    8.1439   29.4950 C   0  0  0  0  0  0  0  0  0  0  0  0
   13.0013    9.0220   28.7112 O   0  0  0  0  0  0  0  0  0  0  0  0
   12.0068    6.2128   28.7404 C   0  0  0  0  0  0  0  0  0  0  0  0
   12.8028    5.3181   27.7996 C   0  0  0  0  0  0  0  0  0  0  0  0
   14.4422    4.6185   28.2232 S   0  0  2  0  0  0  0  0  0  0  0  0
   14.8617    3.9222   26.6264 C   0  0  0  0  0  0  0  0  0  0  0  0
   13.8692    3.1806   29.1826 C   0  0  0  0  0  0  0  0  0  0  0  0
   14.9750    2.5979   30.0190 C   0  0  1  0  0  0  0  0  0  0  0  0
   15.7692    3.6151   30.6759 O   0  0  0  0  0  0  0  0  0  0  0  0
   14.5046    1.6445   31.0936 C   0  0  1  0  0  0  0  0  0  0  0  0
   14.6507    0.3744   30.6268 O   0  0  0  0  0  0  0  0  0  0  0  0
   15.5762    1.8644   32.1356 C   0  0  1  0  0  0  0  0  0  0  0  0
   16.6192    1.0798   31.7587 O   0  0  0  0  0  0  0  0  0  0  0  0
   15.9978    3.3470   32.0331 C   0  0  2  0  0  0  0  0  0  0  0  0
   14.6109    8.3616   29.9662 O   0  0  0  0  0  0  0  0  0  0  0  0
   14.5405    7.5304   34.7807 N   0  0  0  0  0  0  0  0  0  0  0  0
   15.7565    7.1630   34.1123 C   0  0  0  0  0  0  0  0  0  0  0  0
   16.0252    5.9797   33.3805 N   0  0  0  0  0  0  0  0  0  0  0  0
   15.0086    5.2119   33.3537 C   0  0  0  0  0  0  0  0  0  0  0  0
   13.7112    5.5011   34.0046 C   0  0  0  0  0  0  0  0  0  0  0  0
   13.5035    6.6267   34.7002 C   0  0  0  0  0  0  0  0  0  0  0  0
   12.3106    6.7497   35.2449 N   0  0  0  0  0  0  0  0  0  0  0  0
   12.8201    4.5518   33.8466 N   0  0  0  0  0  0  0  0  0  0  0  0
   13.5615    3.6655   33.0871 C   0  0  0  0  0  0  0  0  0  0  0  0
   14.9222    4.0667   32.7676 N   0  0  0  0  0  0  0  0  0  0  0  0
  2  1  1  1  0  0  0
  2  3  1  0  0  0  0
  2  5  1  0  0  0  0
  3  4  1  0  0  0  0
  3 17  1  0  0  0  0
  5  6  1  0  0  0  0
  7  6  1  6  0  0  0
  7  8  1  0  0  0  0
  7  9  1  0  0  0  0
 10  9  1  1  0  0  0
 10 11  1  0  0  0  0
 10 12  1  0  0  0  0
 11 16  1  0  0  0  0
 12 13  1  6  0  0  0
 12 14  1  0  0  0  0
 14 15  1  6  0  0  0
 14 16  1  0  0  0  0
 16 27  1  1  0  0  0
 18 19  2  0  0  0  0
 18 23  1  0  0  0  0
 19 20  1  0  0  0  0
 20 21  2  0  0  0  0
 21 22  1  0  0  0  0
 21 27  1  0  0  0  0
 22 23  2  0  0  0  0
 22 25  1  0  0  0  0
 23 24  1  0  0  0  0
 25 26  2  0  0  0  0
 26 27  1  0  0  0  0
M  END
>  <CHROM.1>
-89.48236813,-150.18439948,17.41441185,-171.93795682,-163.42721157,42.90565045
-98.94050358,14.25410091,4.92660856,31.14633924,2.10463952,-1.22070004,1.27674849

>  <Name>
ligand

>  <RI>
0

>  <Rbt.Current_Directory>
/home/itssahil/PROJECTS/Mol_Feturizer/Test_systems_manuscript/rnas/4aob

>  <Rbt.Executable>
rbdock ($Id: //depot/dev/client3/rdock/2013.1/src/exe/rbdock.cxx#4 $)

>  <Rbt.Library>
libRbt.so (2013.1, Build901 2013/11/27)

>  <Rbt.Parameter_File>
/export/apps/rDock/src/rDock_2013.1_src/data/scripts/dock_solv.prm

>  <Rbt.Receptor>
prm/pocket_docking_2.prm

>  <SCORE>
-3.46244

>  <SCORE.INTER>
-7.21123

>  <SCORE.INTER.CONST>
1

>  <SCORE.INTER.POLAR>
0

>  <SCORE.INTER.ROT>
7

>  <SCORE.INTER.SOLV>
22.724

>  <SCORE.INTER.VDW>
-20.6488

>  <SCORE.INTER.norm>
-0.267082

>  <SCORE.INTRA>
3.33519

>  <SCORE.INTRA.DIHEDRAL>
7.73837

>  <SCORE.INTRA.DIHEDRAL.0>
6.31833

>  <SCORE.INTRA.POLAR>
0

>  <SCORE.INTRA.POLAR.0>
0

>  <SCORE.INTRA.REPUL>
0

>  <SCORE.INTRA.REPUL.0>
0

>  <SCORE.INTRA.SOLV>
0.165888

>  <SCORE.INTRA.SOLV.lig_0>
-48.4015

>  <SCORE.INTRA.VDW>
-0.616939

>  <SCORE.INTRA.VDW.0>
-2.83256

>  <SCORE.INTRA.norm>
0.123526

>  <SCORE.RESTR>
0.413599

>  <SCORE.RESTR.CAVITY>
0.413599

>  <SCORE.RESTR.norm>
0.0153185

>  <SCORE.SYSTEM>
0

>  <SCORE.SYSTEM.CONST>
0

>  <SCORE.SYSTEM.DIHEDRAL>
0

>  <SCORE.SYSTEM.SOLV>
0

>  <SCORE.SYSTEM.norm>
0

>  <SCORE.heavy>
27

>  <SCORE.norm>
-0.128238

>  <RMSD>
5.259

$$$$
ligand
 OpenBabel02271912153D
libRbt.so/2013.1/901 2013/11/27
 27 29  0  0  0  0  0  0  0  0999 V2000
   14.7378    6.1764   28.2444 N   0  0  0  0  0  0  0  0  0  0  0  0
   14.7912    4.8276   28.8577 C   0  0  2  0  0  0  0  0  0  0  0  0
   15.2281    3.8429   27.7807 C   0  0  0  0  0  0  0  0  0  0  0  0
   16.2474    3.0770   27.8243 O   0  0  0  0  0  0  0  0  0  0  0  0
   13.4199    4.5038   29.4546 C   0  0  0  0  0  0  0  0  0  0  0  0
   13.4288    3.2352   30.2970 C   0  0  0  0  0  0  0  0  0  0  0  0
   14.3295    3.0886   31.8857 S   0  0  2  0  0  0  0  0  0  0  0  0
   13.9015    1.3953   32.2858 C   0  0  0  0  0  0  0  0  0  0  0  0
   13.1970    4.0739   32.9166 C   0  0  0  0  0  0  0  0  0  0  0  0
   13.9190    5.1910   33.6185 C   0  0  1  0  0  0  0  0  0  0  0  0
   14.8613    5.8719   32.7552 O   0  0  0  0  0  0  0  0  0  0  0  0
   13.0099    6.2498   34.1996 C   0  0  1  0  0  0  0  0  0  0  0  0
   12.8419    5.9837   35.5238 O   0  0  0  0  0  0  0  0  0  0  0  0
   13.9075    7.4606   34.0966 C   0  0  1  0  0  0  0  0  0  0  0  0
   14.7128    7.4127   35.1896 O   0  0  0  0  0  0  0  0  0  0  0  0
   14.7678    7.2690   32.8279 C   0  0  2  0  0  0  0  0  0  0  0  0
   14.5531    3.8365   26.7498 O   0  0  0  0  0  0  0  0  0  0  0  0
   14.0917    9.8070   28.3250 N   0  0  0  0  0  0  0  0  0  0  0  0
   15.2346    9.5622   29.1582 C   0  0  0  0  0  0  0  0  0  0  0  0
   15.2870    8.8370   30.3745 N   0  0  0  0  0  0  0  0  0  0  0  0
   14.1418    8.3724   30.6851 C   0  0  0  0  0  0  0  0  0  0  0  0
   12.9065    8.5638   29.8928 C   0  0  0  0  0  0  0  0  0  0  0  0
   12.8978    9.2697   28.7545 C   0  0  0  0  0  0  0  0  0  0  0  0
   11.7280    9.3792   28.1591 N   0  0  0  0  0  0  0  0  0  0  0  0
   11.8482    7.9994   30.4235 N   0  0  0  0  0  0  0  0  0  0  0  0
   12.4251    7.4459   31.5517 C   0  0  0  0  0  0  0  0  0  0  0  0
   13.8524    7.6646   31.7233 N   0  0  0  0  0  0  0  0  0  0  0  0
  2  1  1  6  0  0  0
  2  3  1  0  0  0  0
  2  5  1  0  0  0  0
  3  4  1  0  0  0  0
  3 17  1  0  0  0  0
  5  6  1  0  0  0  0
  7  6  1  6  0  0  0
  7  8  1  0  0  0  0
  7  9  1  0  0  0  0
 10  9  1  6  0  0  0
 10 11  1  0  0  0  0
 10 12  1  0  0  0  0
 11 16  1  0  0  0  0
 12 13  1  1  0  0  0
 12 14  1  0  0  0  0
 14 15  1  1  0  0  0
 14 16  1  0  0  0  0
 16 27  1  6  0  0  0
 18 19  2  0  0  0  0
 18 23  1  0  0  0  0
 19 20  1  0  0  0  0
 20 21  2  0  0  0  0
 21 22  1  0  0  0  0
 21 27  1  0  0  0  0
 22 23  2  0  0  0  0
 22 25  1  0  0  0  0
 23 24  1  0  0  0  0
 25 26  2  0  0  0  0
 26 27  1  0  0  0  0
M  END
>  <CHROM.1>
122.13041342,-171.02425145,67.26115983,179.92354218,-125.08915566,42.94947527
-115.35034862,13.97410598,6.07566417,30.95632422,-1.48440889,-1.38223007
2.17116887

>  <Name>
ligand

>  <RI>
0

>  <Rbt.Current_Directory>
/home/itssahil/PROJECTS/Mol_Feturizer/Test_systems_manuscript/rnas/4aob

>  <Rbt.Executable>
rbdock ($Id: //depot/dev/client3/rdock/2013.1/src/exe/rbdock.cxx#4 $)

>  <Rbt.Library>
libRbt.so (2013.1, Build901 2013/11/27)

>  <Rbt.Parameter_File>
/export/apps/rDock/src/rDock_2013.1_src/data/scripts/dock_solv.prm

>  <Rbt.Receptor>
prm/pocket_docking_3.prm

>  <SCORE>
-14.2942

>  <SCORE.INTER>
-14.5095

>  <SCORE.INTER.CONST>
1

>  <SCORE.INTER.POLAR>
0

>  <SCORE.INTER.ROT>
7

>  <SCORE.INTER.SOLV>
9.9922

>  <SCORE.INTER.VDW>
-21.2704

>  <SCORE.INTER.norm>
-0.537389

>  <SCORE.INTRA>
0.215273

>  <SCORE.INTRA.DIHEDRAL>
2.69415

>  <SCORE.INTRA.DIHEDRAL.0>
6.31833

>  <SCORE.INTRA.POLAR>
0

>  <SCORE.INTRA.POLAR.0>
0

>  <SCORE.INTRA.REPUL>
0

>  <SCORE.INTRA.REPUL.0>
0

>  <SCORE.INTRA.SOLV>
1.1925

>  <SCORE.INTRA.SOLV.lig_0>
-48.4015

>  <SCORE.INTRA.VDW>
-1.72805

>  <SCORE.INTRA.VDW.0>
-2.83256

>  <SCORE.INTRA.norm>
0.00797308

>  <SCORE.RESTR>
0

>  <SCORE.RESTR.CAVITY>
0

>  <SCORE.RESTR.norm>
0

>  <SCORE.SYSTEM>
0

>  <SCORE.SYSTEM.CONST>
0

>  <SCORE.SYSTEM.DIHEDRAL>
0

>  <SCORE.SYSTEM.SOLV>
0

>  <SCORE.SYSTEM.norm>
0

>  <SCORE.heavy>
27

>  <SCORE.norm>
-0.529416

>  <RMSD>
5.261

$$$$
ligand
 OpenBabel02271912153D
libRbt.so/2013.1/901 2013/11/27
 27 29  0  0  0  0  0  0  0  0999 V2000
   14.1564    8.6455   26.8320 N   0  0  0  0  0  0  0  0  0  0  0  0
   12.9134    8.1742   26.1754 C   0  0  2  0  0  0  0  0  0  0  0  0
   11.9814    9.3701   26.0292 C   0  0  0  0  0  0  0  0  0  0  0  0
   11.6902   10.2178   26.9369 O   0  0  0  0  0  0  0  0  0  0  0  0
   12.3163    7.0389   27.0097 C   0  0  0  0  0  0  0  0  0  0  0  0
   13.3031    5.9048   27.2532 C   0  0  0  0  0  0  0  0  0  0  0  0
   12.9745    4.5138   28.3993 S   0  0  2  0  0  0  0  0  0  0  0  0
   12.6539    5.4580   29.8881 C   0  0  0  0  0  0  0  0  0  0  0  0
   14.6909    3.9439   28.6125 C   0  0  0  0  0  0  0  0  0  0  0  0
   14.7647    2.7320   29.5001 C   0  0  1  0  0  0  0  0  0  0  0  0
   16.1231    2.2715   29.6990 O   0  0  0  0  0  0  0  0  0  0  0  0
   14.1614    2.9292   30.8720 C   0  0  1  0  0  0  0  0  0  0  0  0
   12.8994    2.4196   30.8571 O   0  0  0  0  0  0  0  0  0  0  0  0
   15.0171    1.9822   31.6803 C   0  0  1  0  0  0  0  0  0  0  0  0
   14.4657    0.7528   31.5070 O   0  0  0  0  0  0  0  0  0  0  0  0
   16.4233    1.9987   31.0412 C   0  0  2  0  0  0  0  0  0  0  0  0
   11.4184    9.4852   24.9391 O   0  0  0  0  0  0  0  0  0  0  0  0
   18.5985    6.6352   30.0692 N   0  0  0  0  0  0  0  0  0  0  0  0
   18.0150    5.6241   29.2340 C   0  0  0  0  0  0  0  0  0  0  0  0
   17.4406    4.3909   29.6307 N   0  0  0  0  0  0  0  0  0  0  0  0
   17.4783    4.2496   30.8965 C   0  0  0  0  0  0  0  0  0  0  0  0
   18.0517    5.2333   31.8421 C   0  0  0  0  0  0  0  0  0  0  0  0
   18.5989    6.3818   31.4235 C   0  0  0  0  0  0  0  0  0  0  0  0
   19.0902    7.1580   32.3675 N   0  0  0  0  0  0  0  0  0  0  0  0
   17.9849    4.8576   33.0970 N   0  0  0  0  0  0  0  0  0  0  0  0
   17.3604    3.6343   32.9372 C   0  0  0  0  0  0  0  0  0  0  0  0
   17.0336    3.2468   31.5742 N   0  0  0  0  0  0  0  0  0  0  0  0
  2  1  1  1  0  0  0
  2  3  1  0  0  0  0
  2  5  1  0  0  0  0
  3  4  1  0  0  0  0
  3 17  1  0  0  0  0
  5  6  1  0  0  0  0
  7  6  1  6  0  0  0
  7  8  1  0  0  0  0
  7  9  1  0  0  0  0
 10  9  1  1  0  0  0
 10 11  1  0  0  0  0
 10 12  1  0  0  0  0
 11 16  1  0  0  0  0
 12 13  1  6  0  0  0
 12 14  1  0  0  0  0
 14 15  1  6  0  0  0
 14 16  1  0  0  0  0
 16 27  1  1  0  0  0
 18 19  2  0  0  0  0
 18 23  1  0  0  0  0
 19 20  1  0  0  0  0
 20 21  2  0  0  0  0
 21 22  1  0  0  0  0
 21 27  1  0  0  0  0
 22 23  2  0  0  0  0
 22 25  1  0  0  0  0
 23 24  1  0  0  0  0
 25 26  2  0  0  0  0
 26 27  1  0  0  0  0
M  END
>  <CHROM.1>
-47.64384113,-54.93719656,171.38938485,-56.24970580,-178.05039684,-179.20213663
-14.46268400,15.03962931,5.12725965,29.53624686,-2.24830151,0.50445040,2.70530933

>  <Name>
ligand

>  <RI>
0

>  <Rbt.Current_Directory>
/home/itssahil/PROJECTS/Mol_Feturizer/Test_systems_manuscript/rnas/4aob

>  <Rbt.Executable>
rbdock ($Id: //depot/dev/client3/rdock/2013.1/src/exe/rbdock.cxx#4 $)

>  <Rbt.Library>
libRbt.so (2013.1, Build901 2013/11/27)

>  <Rbt.Parameter_File>
/export/apps/rDock/src/rDock_2013.1_src/data/scripts/dock_solv.prm

>  <Rbt.Receptor>
prm/pocket_docking_5.prm

>  <SCORE>
-9.03142

>  <SCORE.INTER>
-9.52769

>  <SCORE.INTER.CONST>
1

>  <SCORE.INTER.POLAR>
0

>  <SCORE.INTER.ROT>
7

>  <SCORE.INTER.SOLV>
8.48975

>  <SCORE.INTER.VDW>
-17.4484

>  <SCORE.INTER.norm>
-0.352877

>  <SCORE.INTRA>
0.496267

>  <SCORE.INTRA.DIHEDRAL>
-2.23725

>  <SCORE.INTRA.DIHEDRAL.0>
6.31833

>  <SCORE.INTRA.POLAR>
0

>  <SCORE.INTRA.POLAR.0>
0

>  <SCORE.INTRA.REPUL>
0

>  <SCORE.INTRA.REPUL.0>
0

>  <SCORE.INTRA.SOLV>
0.428416

>  <SCORE.INTRA.SOLV.lig_0>
-48.4015

>  <SCORE.INTRA.VDW>
1.40069

>  <SCORE.INTRA.VDW.0>
-2.83256

>  <SCORE.INTRA.norm>
0.0183803

>  <SCORE.RESTR>
0

>  <SCORE.RESTR.CAVITY>
0

>  <SCORE.RESTR.norm>
0

>  <SCORE.SYSTEM>
0

>  <SCORE.SYSTEM.CONST>
0

>  <SCORE.SYSTEM.DIHEDRAL>
0

>  <SCORE.SYSTEM.SOLV>
0

>  <SCORE.SYSTEM.norm>
0

>  <SCORE.heavy>
27

>  <SCORE.norm>
-0.334497

>  <RMSD>
5.265

$$$$
ligand
 OpenBabel02271912153D
libRbt.so/2013.1/901 2013/11/27
 27 29  0  0  0  0  0  0  0  0999 V2000
   12.3295    5.4465   28.8335 N   0  0  0  0  0  0  0  0  0  0  0  0
   13.7809    5.1453   28.8675 C   0  0  2  0  0  0  0  0  0  0  0  0
   14.0120    3.8748   28.0596 C   0  0  0  0  0  0  0  0  0  0  0  0
   15.0270    3.6153   27.3316 O   0  0  0  0  0  0  0  0  0  0  0  0
   14.2242    5.0243   30.3271 C   0  0  0  0  0  0  0  0  0  0  0  0
   13.5758    3.8476   31.0441 C   0  0  0  0  0  0  0  0  0  0  0  0
   13.8942    3.4410   32.8019 S   0  0  2  0  0  0  0  0  0  0  0  0
   12.8112    2.0216   32.9532 C   0  0  0  0  0  0  0  0  0  0  0  0
   12.9382    4.7943   33.5573 C   0  0  0  0  0  0  0  0  0  0  0  0
   13.8369    5.8799   34.0825 C   0  0  1  0  0  0  0  0  0  0  0  0
   14.8247    6.3012   33.1110 O   0  0  0  0  0  0  0  0  0  0  0  0
   13.1082    7.1238   34.5372 C   0  0  1  0  0  0  0  0  0  0  0  0
   12.9640    7.0600   35.8891 O   0  0  0  0  0  0  0  0  0  0  0  0
   14.1580    8.1710   34.2478 C   0  0  1  0  0  0  0  0  0  0  0  0
   14.9966    8.1530   35.3164 O   0  0  0  0  0  0  0  0  0  0  0  0
   14.9269    7.6949   32.9955 C   0  0  2  0  0  0  0  0  0  0  0  0
   13.0963    3.0505   28.0767 O   0  0  0  0  0  0  0  0  0  0  0  0
   14.4083    9.6801   28.2034 N   0  0  0  0  0  0  0  0  0  0  0  0
   15.5425    9.3853   29.0323 C   0  0  0  0  0  0  0  0  0  0  0  0
   15.5482    8.8291   30.3356 N   0  0  0  0  0  0  0  0  0  0  0  0
   14.3646    8.5814   30.7375 C   0  0  0  0  0  0  0  0  0  0  0  0
   13.1334    8.8427   29.9588 C   0  0  0  0  0  0  0  0  0  0  0  0
   13.1718    9.3840   28.7343 C   0  0  0  0  0  0  0  0  0  0  0  0
   12.0029    9.5818   28.1602 N   0  0  0  0  0  0  0  0  0  0  0  0
   12.0317    8.5140   30.5902 N   0  0  0  0  0  0  0  0  0  0  0  0
   12.5763    8.0382   31.7688 C   0  0  0  0  0  0  0  0  0  0  0  0
   14.0266    8.0681   31.8711 N   0  0  0  0  0  0  0  0  0  0  0  0
  2  1  1  1  0  0  0
  2  3  1  0  0  0  0
  2  5  1  0  0  0  0
  3  4  1  0  0  0  0
  3 17  1  0  0  0  0
  5  6  1  0  0  0  0
  7  6  1  6  0  0  0
  7  8  1  0  0  0  0
  7  9  1  0  0  0  0
 10  9  1  6  0  0  0
 10 11  1  0  0  0  0
 10 12  1  0  0  0  0
 11 16  1  0  0  0  0
 12 13  1  1  0  0  0
 12 14  1  0  0  0  0
 14 15  1  1  0  0  0
 14 16  1  0  0  0  0
 16 27  1  6  0  0  0
 18 19  2  0  0  0  0
 18 23  1  0  0  0  0
 19 20  1  0  0  0  0
 20 21  2  0  0  0  0
 21 22  1  0  0  0  0
 21 27  1  0  0  0  0
 22 23  2  0  0  0  0
 22 25  1  0  0  0  0
 23 24  1  0  0  0  0
 25 26  2  0  0  0  0
 26 27  1  0  0  0  0
M  END
>  <CHROM.1>
144.70014945,64.68475947,-179.62715404,178.90471868,-104.24549571,49.21347327
-115.09525042,13.76315293,6.41929300,31.28622576,1.73486313,-1.51907885,-1.31407346

>  <Name>
ligand

>  <RI>
0

>  <Rbt.Current_Directory>
/home/itssahil/PROJECTS/Mol_Feturizer/Test_systems_manuscript/rnas/4aob

>  <Rbt.Executable>
rbdock ($Id: //depot/dev/client3/rdock/2013.1/src/exe/rbdock.cxx#4 $)

>  <Rbt.Library>
libRbt.so (2013.1, Build901 2013/11/27)

>  <Rbt.Parameter_File>
/export/apps/rDock/src/rDock_2013.1_src/data/scripts/dock_solv.prm

>  <Rbt.Receptor>
prm/pocket_docking_3.prm

>  <SCORE>
-16.5981

>  <SCORE.INTER>
-15.9237

>  <SCORE.INTER.CONST>
1

>  <SCORE.INTER.POLAR>
0

>  <SCORE.INTER.ROT>
7

>  <SCORE.INTER.SOLV>
12.9813

>  <SCORE.INTER.VDW>
-23.2095

>  <SCORE.INTER.norm>
-0.589766

>  <SCORE.INTRA>
-0.674378

>  <SCORE.INTRA.DIHEDRAL>
0.214819

>  <SCORE.INTRA.DIHEDRAL.0>
6.31833

>  <SCORE.INTRA.POLAR>
0

>  <SCORE.INTRA.POLAR.0>
0

>  <SCORE.INTRA.REPUL>
0

>  <SCORE.INTRA.REPUL.0>
0

>  <SCORE.INTRA.SOLV>
0.904201

>  <SCORE.INTRA.SOLV.lig_0>
-48.4015

>  <SCORE.INTRA.VDW>
-1.23389

>  <SCORE.INTRA.VDW.0>
-2.83256

>  <SCORE.INTRA.norm>
-0.024977

>  <SCORE.RESTR>
0

>  <SCORE.RESTR.CAVITY>
0

>  <SCORE.RESTR.norm>
0

>  <SCORE.SYSTEM>
0

>  <SCORE.SYSTEM.CONST>
0

>  <SCORE.SYSTEM.DIHEDRAL>
0

>  <SCORE.SYSTEM.SOLV>
0

>  <SCORE.SYSTEM.norm>
0

>  <SCORE.heavy>
27

>  <SCORE.norm>
-0.614743

>  <RMSD>
5.272

$$$$
ligand
 OpenBabel02271912153D
libRbt.so/2013.1/901 2013/11/27
 27 29  0  0  0  0  0  0  0  0999 V2000
   16.1297    7.6006   35.0135 N   0  0  0  0  0  0  0  0  0  0  0  0
   15.2120    8.1386   33.9807 C   0  0  2  0  0  0  0  0  0  0  0  0
   13.7981    7.7006   34.3400 C   0  0  0  0  0  0  0  0  0  0  0  0
   13.4775    6.7726   35.1546 O   0  0  0  0  0  0  0  0  0  0  0  0
   15.6702    7.6411   32.6080 C   0  0  0  0  0  0  0  0  0  0  0  0
   14.8137    8.1803   31.4701 C   0  0  0  0  0  0  0  0  0  0  0  0
   15.1883    7.8842   29.7013 S   0  0  2  0  0  0  0  0  0  0  0  0
   16.5348    9.0507   29.5094 C   0  0  0  0  0  0  0  0  0  0  0  0
   13.7586    8.7556   28.9852 C   0  0  0  0  0  0  0  0  0  0  0  0
   12.8418    7.8099   28.2591 C   0  0  1  0  0  0  0  0  0  0  0  0
   13.3486    6.4536   28.2358 O   0  0  0  0  0  0  0  0  0  0  0  0
   11.4409    7.7467   28.8235 C   0  0  1  0  0  0  0  0  0  0  0  0
   10.6446    8.5552   28.0721 O   0  0  0  0  0  0  0  0  0  0  0  0
   11.0785    6.3200   28.4835 C   0  0  1  0  0  0  0  0  0  0  0  0
   10.6618    6.3468   27.1908 O   0  0  0  0  0  0  0  0  0  0  0  0
   12.3820    5.4965   28.5760 C   0  0  2  0  0  0  0  0  0  0  0  0
   12.8871    8.2695   33.7359 O   0  0  0  0  0  0  0  0  0  0  0  0
   13.3669    2.1570   32.4558 N   0  0  0  0  0  0  0  0  0  0  0  0
   13.3474    2.0311   31.0260 C   0  0  0  0  0  0  0  0  0  0  0  0
   13.0680    3.0357   30.0666 N   0  0  0  0  0  0  0  0  0  0  0  0
   12.8277    4.1551   30.6261 C   0  0  0  0  0  0  0  0  0  0  0  0
   12.8286    4.3892   32.0875 C   0  0  0  0  0  0  0  0  0  0  0  0
   13.0838    3.4070   32.9616 C   0  0  0  0  0  0  0  0  0  0  0  0
   13.0328    3.7465   34.2333 N   0  0  0  0  0  0  0  0  0  0  0  0
   12.5402    5.6240   32.4228 N   0  0  0  0  0  0  0  0  0  0  0  0
   12.3638    6.1681   31.1639 C   0  0  0  0  0  0  0  0  0  0  0  0
   12.5462    5.2671   30.0371 N   0  0  0  0  0  0  0  0  0  0  0  0
  2  1  1  1  0  0  0
  2  3  1  0  0  0  0
  2  5  1  0  0  0  0
  3  4  1  0  0  0  0
  3 17  1  0  0  0  0
  5  6  1  0  0  0  0
  7  6  1  1  0  0  0
  7  8  1  0  0  0  0
  7  9  1  0  0  0  0
 10  9  1  1  0  0  0
 10 11  1  0  0  0  0
 10 12  1  0  0  0  0
 11 16  1  0  0  0  0
 12 13  1  6  0  0  0
 12 14  1  0  0  0  0
 14 15  1  6  0  0  0
 14 16  1  0  0  0  0
 16 27  1  1  0  0  0
 18 19  2  0  0  0  0
 18 23  1  0  0  0  0
 19 20  1  0  0  0  0
 20 21  2  0  0  0  0
 21 22  1  0  0  0  0
 21 27  1  0  0  0  0
 22 23  2  0  0  0  0
 22 25  1  0  0  0  0
 23 24  1  0  0  0  0
 25 26  2  0  0  0  0
 26 27  1  0  0  0  0
M  END
>  <CHROM.1>
-16.60017795,-178.08303372,174.70570669,-76.31375393,-115.13162132,-3.30568678
-120.31577722,13.37685840,6.39639576,30.98803020,-0.89587991,-1.01929848
-0.80592986

>  <Name>
ligand

>  <RI>
0

>  <Rbt.Current_Directory>
/home/itssahil/PROJECTS/Mol_Feturizer/Test_systems_manuscript/rnas/4aob

>  <Rbt.Executable>
rbdock ($Id: //depot/dev/client3/rdock/2013.1/src/exe/rbdock.cxx#4 $)

>  <Rbt.Library>
libRbt.so (2013.1, Build901 2013/11/27)

>  <Rbt.Parameter_File>
/export/apps/rDock/src/rDock_2013.1_src/data/scripts/dock_solv.prm

>  <Rbt.Receptor>
prm/pocket_docking_4.prm

>  <SCORE>
-7.9341

>  <SCORE.INTER>
-9.88459

>  <SCORE.INTER.CONST>
1

>  <SCORE.INTER.POLAR>
0

>  <SCORE.INTER.ROT>
7

>  <SCORE.INTER.SOLV>
18.485

>  <SCORE.INTER.VDW>
-21.0181

>  <SCORE.INTER.norm>
-0.366096

>  <SCORE.INTRA>
1.95049

>  <SCORE.INTRA.DIHEDRAL>
5.95502

>  <SCORE.INTRA.DIHEDRAL.0>
6.31833

>  <SCORE.INTRA.POLAR>
0

>  <SCORE.INTRA.POLAR.0>
0

>  <SCORE.INTRA.REPUL>
0

>  <SCORE.INTRA.REPUL.0>
0

>  <SCORE.INTRA.SOLV>
0.0543765

>  <SCORE.INTRA.SOLV.lig_0>
-48.4015

>  <SCORE.INTRA.VDW>
-1.05421

>  <SCORE.INTRA.VDW.0>
-2.83256

>  <SCORE.INTRA.norm>
0.0722404

>  <SCORE.RESTR>
0

>  <SCORE.RESTR.CAVITY>
0

>  <SCORE.RESTR.norm>
0

>  <SCORE.SYSTEM>
0

>  <SCORE.SYSTEM.CONST>
0

>  <SCORE.SYSTEM.DIHEDRAL>
0

>  <SCORE.SYSTEM.SOLV>
0

>  <SCORE.SYSTEM.norm>
0

>  <SCORE.heavy>
27

>  <SCORE.norm>
-0.293856

>  <RMSD>
5.274

$$$$
ligand
 OpenBabel02271912153D
libRbt.so/2013.1/901 2013/11/27
 27 29  0  0  0  0  0  0  0  0999 V2000
   14.3160    4.8026   29.3479 N   0  0  0  0  0  0  0  0  0  0  0  0
   15.4582    3.9715   29.7984 C   0  0  2  0  0  0  0  0  0  0  0  0
   16.0574    3.2982   28.5705 C   0  0  0  0  0  0  0  0  0  0  0  0
   16.9646    2.4013   28.5665 O   0  0  0  0  0  0  0  0  0  0  0  0
   14.9595    2.9790   30.8510 C   0  0  0  0  0  0  0  0  0  0  0  0
   14.7701    3.6182   32.2202 C   0  0  0  0  0  0  0  0  0  0  0  0
   13.5034    3.0645   33.4226 S   0  0  2  0  0  0  0  0  0  0  0  0
   12.4414    2.1572   32.3003 C   0  0  0  0  0  0  0  0  0  0  0  0
   12.6418    4.6539   33.6403 C   0  0  0  0  0  0  0  0  0  0  0  0
   13.5563    5.7056   34.2056 C   0  0  1  0  0  0  0  0  0  0  0  0
   14.6589    6.0167   33.3200 O   0  0  0  0  0  0  0  0  0  0  0  0
   12.8720    7.0131   34.5328 C   0  0  1  0  0  0  0  0  0  0  0  0
   12.5944    7.0243   35.8651 O   0  0  0  0  0  0  0  0  0  0  0  0
   14.0124    7.9775   34.3049 C   0  0  1  0  0  0  0  0  0  0  0  0
   14.7412    7.9592   35.4513 O   0  0  0  0  0  0  0  0  0  0  0  0
   14.8647    7.3940   33.1564 C   0  0  2  0  0  0  0  0  0  0  0  0
   15.6568    3.7095   27.4802 O   0  0  0  0  0  0  0  0  0  0  0  0
   14.8541    9.6585   28.4609 N   0  0  0  0  0  0  0  0  0  0  0  0
   15.8805    9.4033   29.4315 C   0  0  0  0  0  0  0  0  0  0  0  0
   15.7515    8.7598   30.6874 N   0  0  0  0  0  0  0  0  0  0  0  0
   14.5511    8.3856   30.8938 C   0  0  0  0  0  0  0  0  0  0  0  0
   13.4251    8.5958   29.9565 C   0  0  0  0  0  0  0  0  0  0  0  0
   13.5876    9.2226   28.7841 C   0  0  0  0  0  0  0  0  0  0  0  0
   12.4997    9.3606   28.0544 N   0  0  0  0  0  0  0  0  0  0  0  0
   12.2801    8.1318   30.3970 N   0  0  0  0  0  0  0  0  0  0  0  0
   12.6924    7.6225   31.6146 C   0  0  0  0  0  0  0  0  0  0  0  0
   14.1038    7.7676   31.9333 N   0  0  0  0  0  0  0  0  0  0  0  0
  2  1  1  6  0  0  0
  2  3  1  0  0  0  0
  2  5  1  0  0  0  0
  3  4  1  0  0  0  0
  3 17  1  0  0  0  0
  5  6  1  0  0  0  0
  7  6  1  6  0  0  0
  7  8  1  0  0  0  0
  7  9  1  0  0  0  0
 10  9  1  6  0  0  0
 10 11  1  0  0  0  0
 10 12  1  0  0  0  0
 11 16  1  0  0  0  0
 12 13  1  1  0  0  0
 12 14  1  0  0  0  0
 14 15  1  1  0  0  0
 14 16  1  0  0  0  0
 16 27  1  6  0  0  0
 18 19  2  0  0  0  0
 18 23  1  0  0  0  0
 19 20  1  0  0  0  0
 20 21  2  0  0  0  0
 21 22  1  0  0  0  0
 21 27  1  0  0  0  0
 22 23  2  0  0  0  0
 22 25  1  0  0  0  0
 23 24  1  0  0  0  0
 25 26  2  0  0  0  0
 26 27  1  0  0  0  0
M  END
>  <CHROM.1>
-172.24139924,-77.95436086,148.95977472,-18.06955237,-61.64880324,63.23827150
-126.28436594,14.18771107,6.09051157,31.51902129,-0.57726659,-1.26810605
2.72081679

>  <Name>
ligand

>  <RI>
0

>  <Rbt.Current_Directory>
/home/itssahil/PROJECTS/Mol_Feturizer/Test_systems_manuscript/rnas/4aob

>  <Rbt.Executable>
rbdock ($Id: //depot/dev/client3/rdock/2013.1/src/exe/rbdock.cxx#4 $)

>  <Rbt.Library>
libRbt.so (2013.1, Build901 2013/11/27)

>  <Rbt.Parameter_File>
/export/apps/rDock/src/rDock_2013.1_src/data/scripts/dock_solv.prm

>  <Rbt.Receptor>
prm/pocket_docking_8.prm

>  <SCORE>
-11.4238

>  <SCORE.INTER>
-16.8843

>  <SCORE.INTER.CONST>
1

>  <SCORE.INTER.POLAR>
0

>  <SCORE.INTER.ROT>
7

>  <SCORE.INTER.SOLV>
10.4024

>  <SCORE.INTER.VDW>
-22.9904

>  <SCORE.INTER.norm>
-0.625345

>  <SCORE.INTRA>
5.46057

>  <SCORE.INTRA.DIHEDRAL>
5.14908

>  <SCORE.INTRA.DIHEDRAL.0>
6.31833

>  <SCORE.INTRA.POLAR>
0

>  <SCORE.INTRA.POLAR.0>
0

>  <SCORE.INTRA.REPUL>
0

>  <SCORE.INTRA.REPUL.0>
0

>  <SCORE.INTRA.SOLV>
0.647626

>  <SCORE.INTRA.SOLV.lig_0>
-48.4015

>  <SCORE.INTRA.VDW>
2.56221

>  <SCORE.INTRA.VDW.0>
-2.83256

>  <SCORE.INTRA.norm>
0.202243

>  <SCORE.RESTR>
0

>  <SCORE.RESTR.CAVITY>
0

>  <SCORE.RESTR.norm>
0

>  <SCORE.SYSTEM>
0

>  <SCORE.SYSTEM.CONST>
0

>  <SCORE.SYSTEM.DIHEDRAL>
0

>  <SCORE.SYSTEM.SOLV>
0

>  <SCORE.SYSTEM.norm>
0

>  <SCORE.heavy>
27

>  <SCORE.norm>
-0.423102

>  <RMSD>
5.276

$$$$
ligand
 OpenBabel02271912153D
libRbt.so/2013.1/901 2013/11/27
 27 29  0  0  0  0  0  0  0  0999 V2000
   14.0419    3.0932   27.9729 N   0  0  0  0  0  0  0  0  0  0  0  0
   13.2869    4.2624   28.4840 C   0  0  2  0  0  0  0  0  0  0  0  0
   13.5231    5.4240   27.5273 C   0  0  0  0  0  0  0  0  0  0  0  0
   12.7164    6.3828   27.2876 O   0  0  0  0  0  0  0  0  0  0  0  0
   13.7418    4.5544   29.9156 C   0  0  0  0  0  0  0  0  0  0  0  0
   13.3262    3.4682   30.8988 C   0  0  0  0  0  0  0  0  0  0  0  0
   13.8306    3.4588   32.6601 S   0  0  2  0  0  0  0  0  0  0  0  0
   12.9192    2.0122   33.1962 C   0  0  0  0  0  0  0  0  0  0  0  0
   12.8036    4.8503   33.2303 C   0  0  0  0  0  0  0  0  0  0  0  0
   13.6445    5.9669   33.7852 C   0  0  1  0  0  0  0  0  0  0  0  0
   14.6716    6.4004   32.8611 O   0  0  0  0  0  0  0  0  0  0  0  0
   12.8605    7.1973   34.1809 C   0  0  1  0  0  0  0  0  0  0  0  0
   12.6459    7.1492   35.5240 O   0  0  0  0  0  0  0  0  0  0  0  0
   13.8969    8.2679   33.9312 C   0  0  1  0  0  0  0  0  0  0  0  0
   14.6773    8.2877   35.0430 O   0  0  0  0  0  0  0  0  0  0  0  0
   14.7438    7.7946   32.7292 C   0  0  2  0  0  0  0  0  0  0  0  0
   14.5765    5.3914   26.8888 O   0  0  0  0  0  0  0  0  0  0  0  0
   14.4693    9.2993   27.7457 N   0  0  0  0  0  0  0  0  0  0  0  0
   15.5612    8.9912   28.6252 C   0  0  0  0  0  0  0  0  0  0  0  0
   15.4995    8.5783   29.9793 N   0  0  0  0  0  0  0  0  0  0  0  0
   14.2934    8.4844   30.3793 C   0  0  0  0  0  0  0  0  0  0  0  0
   13.1012    8.7734   29.5512 C   0  0  0  0  0  0  0  0  0  0  0  0
   13.2044    9.1759   28.2779 C   0  0  0  0  0  0  0  0  0  0  0  0
   12.0660    9.4181   27.6613 N   0  0  0  0  0  0  0  0  0  0  0  0
   11.9663    8.6160   30.1896 N   0  0  0  0  0  0  0  0  0  0  0  0
   12.4501    8.2200   31.4229 C   0  0  0  0  0  0  0  0  0  0  0  0
   13.8955    8.1275   31.5527 N   0  0  0  0  0  0  0  0  0  0  0  0
  2  1  1  6  0  0  0
  2  3  1  0  0  0  0
  2  5  1  0  0  0  0
  3  4  1  0  0  0  0
  3 17  1  0  0  0  0
  5  6  1  0  0  0  0
  7  6  1  6  0  0  0
  7  8  1  0  0  0  0
  7  9  1  0  0  0  0
 10  9  1  6  0  0  0
 10 11  1  0  0  0  0
 10 12  1  0  0  0  0
 11 16  1  0  0  0  0
 12 13  1  1  0  0  0
 12 14  1  0  0  0  0
 14 15  1  1  0  0  0
 14 16  1  0  0  0  0
 16 27  1  6  0  0  0
 18 19  2  0  0  0  0
 18 23  1  0  0  0  0
 19 20  1  0  0  0  0
 20 21  2  0  0  0  0
 21 22  1  0  0  0  0
 21 27  1  0  0  0  0
 22 23  2  0  0  0  0
 22 25  1  0  0  0  0
 23 24  1  0  0  0  0
 25 26  2  0  0  0  0
 26 27  1  0  0  0  0
M  END
>  <CHROM.1>
150.70317214,-68.12914595,175.07644825,176.46506107,-119.45496327,53.41235008
-106.26117083,13.65512913,6.51941055,30.93031726,1.08222650,-1.52620210,-1.77955464

>  <Name>
ligand

>  <RI>
0

>  <Rbt.Current_Directory>
/home/itssahil/PROJECTS/Mol_Feturizer/Test_systems_manuscript/rnas/4aob

>  <Rbt.Executable>
rbdock ($Id: //depot/dev/client3/rdock/2013.1/src/exe/rbdock.cxx#4 $)

>  <Rbt.Library>
libRbt.so (2013.1, Build901 2013/11/27)

>  <Rbt.Parameter_File>
/export/apps/rDock/src/rDock_2013.1_src/data/scripts/dock_solv.prm

>  <Rbt.Receptor>
prm/pocket_docking_2.prm

>  <SCORE>
-11.9762

>  <SCORE.INTER>
-12.8626

>  <SCORE.INTER.CONST>
1

>  <SCORE.INTER.POLAR>
0

>  <SCORE.INTER.ROT>
7

>  <SCORE.INTER.SOLV>
14.456

>  <SCORE.INTER.VDW>
-21.6604

>  <SCORE.INTER.norm>
-0.476393

>  <SCORE.INTRA>
-0.278

>  <SCORE.INTRA.DIHEDRAL>
1.4963

>  <SCORE.INTRA.DIHEDRAL.0>
6.31833

>  <SCORE.INTRA.POLAR>
0

>  <SCORE.INTRA.POLAR.0>
0

>  <SCORE.INTRA.REPUL>
0

>  <SCORE.INTRA.REPUL.0>
0

>  <SCORE.INTRA.SOLV>
0.750755

>  <SCORE.INTRA.SOLV.lig_0>
-48.4015

>  <SCORE.INTRA.VDW>
-1.40153

>  <SCORE.INTRA.VDW.0>
-2.83256

>  <SCORE.INTRA.norm>
-0.0102963

>  <SCORE.RESTR>
1.16437

>  <SCORE.RESTR.CAVITY>
1.16437

>  <SCORE.RESTR.norm>
0.0431248

>  <SCORE.SYSTEM>
0

>  <SCORE.SYSTEM.CONST>
0

>  <SCORE.SYSTEM.DIHEDRAL>
0

>  <SCORE.SYSTEM.SOLV>
0

>  <SCORE.SYSTEM.norm>
0

>  <SCORE.heavy>
27

>  <SCORE.norm>
-0.443564

>  <RMSD>
5.283

$$$$
ligand
 OpenBabel02271912153D
libRbt.so/2013.1/901 2013/11/27
 27 29  0  0  0  0  0  0  0  0999 V2000
    9.9458    6.6204   27.0228 N   0  0  0  0  0  0  0  0  0  0  0  0
   10.6924    7.4557   27.9939 C   0  0  2  0  0  0  0  0  0  0  0  0
   11.3864    8.5666   27.2162 C   0  0  0  0  0  0  0  0  0  0  0  0
   12.0242    8.4375   26.1190 O   0  0  0  0  0  0  0  0  0  0  0  0
   11.6625    6.5612   28.7688 C   0  0  0  0  0  0  0  0  0  0  0  0
   12.6346    5.8206   27.8601 C   0  0  0  0  0  0  0  0  0  0  0  0
   14.1009    4.9145   28.4809 S   0  0  2  0  0  0  0  0  0  0  0  0
   14.4687    3.9543   27.0135 C   0  0  0  0  0  0  0  0  0  0  0  0
   13.2353    3.7328   29.5628 C   0  0  0  0  0  0  0  0  0  0  0  0
   14.2010    2.8298   30.2797 C   0  0  1  0  0  0  0  0  0  0  0  0
   15.3817    3.5318   30.7381 O   0  0  0  0  0  0  0  0  0  0  0  0
   13.6155    2.1223   31.4804 C   0  0  1  0  0  0  0  0  0  0  0  0
   13.2548    0.8669   31.0981 O   0  0  0  0  0  0  0  0  0  0  0  0
   14.8492    1.9906   32.3424 C   0  0  1  0  0  0  0  0  0  0  0  0
   15.4981    0.8878   31.8860 O   0  0  0  0  0  0  0  0  0  0  0  0
   15.7188    3.2372   32.0669 C   0  0  2  0  0  0  0  0  0  0  0  0
   11.3687    9.6828   27.7380 O   0  0  0  0  0  0  0  0  0  0  0  0
   16.1869    7.7442   34.6442 N   0  0  0  0  0  0  0  0  0  0  0  0
   17.0889    6.9676   33.8418 C   0  0  0  0  0  0  0  0  0  0  0  0
   16.8304    5.7427   33.1779 N   0  0  0  0  0  0  0  0  0  0  0  0
   15.6271    5.3641   33.3586 C   0  0  0  0  0  0  0  0  0  0  0  0
   14.6209    6.0941   34.1617 C   0  0  0  0  0  0  0  0  0  0  0  0
   14.9113    7.2431   34.7859 C   0  0  0  0  0  0  0  0  0  0  0  0
   13.9302    7.7784   35.4829 N   0  0  0  0  0  0  0  0  0  0  0  0
   13.4533    5.4985   34.2100 N   0  0  0  0  0  0  0  0  0  0  0  0
   13.7279    4.3921   33.4274 C   0  0  0  0  0  0  0  0  0  0  0  0
   15.0744    4.2994   32.8859 N   0  0  0  0  0  0  0  0  0  0  0  0
  2  1  1  6  0  0  0
  2  3  1  0  0  0  0
  2  5  1  0  0  0  0
  3  4  1  0  0  0  0
  3 17  1  0  0  0  0
  5  6  1  0  0  0  0
  7  6  1  6  0  0  0
  7  8  1  0  0  0  0
  7  9  1  0  0  0  0
 10  9  1  1  0  0  0
 10 11  1  0  0  0  0
 10 12  1  0  0  0  0
 11 16  1  0  0  0  0
 12 13  1  6  0  0  0
 12 14  1  0  0  0  0
 14 15  1  6  0  0  0
 14 16  1  0  0  0  0
 16 27  1  1  0  0  0
 18 19  2  0  0  0  0
 18 23  1  0  0  0  0
 19 20  1  0  0  0  0
 20 21  2  0  0  0  0
 21 22  1  0  0  0  0
 21 27  1  0  0  0  0
 22 23  2  0  0  0  0
 22 25  1  0  0  0  0
 23 24  1  0  0  0  0
 25 26  2  0  0  0  0
 26 27  1  0  0  0  0
M  END
>  <CHROM.1>
-44.14829082,57.61097074,168.67842876,164.75026518,-178.45157093,40.31285019
-98.62837869,13.88812680,5.22299793,30.80482539,-3.07702277,-1.08385389,0.46773975

>  <Name>
ligand

>  <RI>
0

>  <Rbt.Current_Directory>
/home/itssahil/PROJECTS/Mol_Feturizer/Test_systems_manuscript/rnas/4aob

>  <Rbt.Executable>
rbdock ($Id: //depot/dev/client3/rdock/2013.1/src/exe/rbdock.cxx#4 $)

>  <Rbt.Library>
libRbt.so (2013.1, Build901 2013/11/27)

>  <Rbt.Parameter_File>
/export/apps/rDock/src/rDock_2013.1_src/data/scripts/dock_solv.prm

>  <Rbt.Receptor>
prm/pocket_docking_4.prm

>  <SCORE>
-10.2272

>  <SCORE.INTER>
-10.5647

>  <SCORE.INTER.CONST>
1

>  <SCORE.INTER.POLAR>
0

>  <SCORE.INTER.ROT>
7

>  <SCORE.INTER.SOLV>
17.1735

>  <SCORE.INTER.VDW>
-21.0343

>  <SCORE.INTER.norm>
-0.391287

>  <SCORE.INTRA>
0.337573

>  <SCORE.INTRA.DIHEDRAL>
-0.885429

>  <SCORE.INTRA.DIHEDRAL.0>
6.31833

>  <SCORE.INTRA.POLAR>
0

>  <SCORE.INTRA.POLAR.0>
0

>  <SCORE.INTRA.REPUL>
0

>  <SCORE.INTRA.REPUL.0>
0

>  <SCORE.INTRA.SOLV>
-0.0638509

>  <SCORE.INTRA.SOLV.lig_0>
-48.4015

>  <SCORE.INTRA.VDW>
0.812212

>  <SCORE.INTRA.VDW.0>
-2.83256

>  <SCORE.INTRA.norm>
0.0125027

>  <SCORE.RESTR>
0

>  <SCORE.RESTR.CAVITY>
0

>  <SCORE.RESTR.norm>
0

>  <SCORE.SYSTEM>
0

>  <SCORE.SYSTEM.CONST>
0

>  <SCORE.SYSTEM.DIHEDRAL>
0

>  <SCORE.SYSTEM.SOLV>
0

>  <SCORE.SYSTEM.norm>
0

>  <SCORE.heavy>
27

>  <SCORE.norm>
-0.378784

>  <RMSD>
5.285

$$$$
ligand
 OpenBabel02271912153D
libRbt.so/2013.1/901 2013/11/27
 27 29  0  0  0  0  0  0  0  0999 V2000
   12.4058    8.2489   26.1238 N   0  0  0  0  0  0  0  0  0  0  0  0
   13.0229    6.9233   26.3695 C   0  0  2  0  0  0  0  0  0  0  0  0
   13.2231    6.2453   25.0202 C   0  0  0  0  0  0  0  0  0  0  0  0
   14.3129    5.7540   24.5746 O   0  0  0  0  0  0  0  0  0  0  0  0
   12.1226    6.1297   27.3188 C   0  0  0  0  0  0  0  0  0  0  0  0
   12.6884    4.7571   27.6575 C   0  0  0  0  0  0  0  0  0  0  0  0
   14.3899    4.4971   28.2854 S   0  0  2  0  0  0  0  0  0  0  0  0
   15.0485    3.5614   26.9065 C   0  0  0  0  0  0  0  0  0  0  0  0
   14.0138    3.2222   29.5302 C   0  0  0  0  0  0  0  0  0  0  0  0
   15.2646    2.5584   30.0369 C   0  0  1  0  0  0  0  0  0  0  0  0
   16.3626    3.4894   30.1938 O   0  0  0  0  0  0  0  0  0  0  0  0
   15.0980    1.8472   31.3603 C   0  0  1  0  0  0  0  0  0  0  0  0
   14.9061    0.5234   31.1086 O   0  0  0  0  0  0  0  0  0  0  0  0
   16.4915    1.9983   31.9238 C   0  0  1  0  0  0  0  0  0  0  0  0
   17.2218    0.9976   31.3664 O   0  0  0  0  0  0  0  0  0  0  0  0
   17.0295    3.3558   31.4200 C   0  0  2  0  0  0  0  0  0  0  0  0
   12.2418    6.2262   24.2752 O   0  0  0  0  0  0  0  0  0  0  0  0
   17.5597    7.4877   34.5539 N   0  0  0  0  0  0  0  0  0  0  0  0
   18.4685    6.7674   33.7078 C   0  0  0  0  0  0  0  0  0  0  0  0
   18.1914    5.6469   32.8858 N   0  0  0  0  0  0  0  0  0  0  0  0
   16.9638    5.3130   32.9581 C   0  0  0  0  0  0  0  0  0  0  0  0
   15.9488    5.9925   33.7940 C   0  0  0  0  0  0  0  0  0  0  0  0
   16.2564    7.0408   34.5688 C   0  0  0  0  0  0  0  0  0  0  0  0
   15.2636    7.5388   35.2768 N   0  0  0  0  0  0  0  0  0  0  0  0
   14.7542    5.4576   33.7100 N   0  0  0  0  0  0  0  0  0  0  0  0
   15.0209    4.4409   32.8115 C   0  0  0  0  0  0  0  0  0  0  0  0
   16.3899    4.3437   32.3306 N   0  0  0  0  0  0  0  0  0  0  0  0
  2  1  1  6  0  0  0
  2  3  1  0  0  0  0
  2  5  1  0  0  0  0
  3  4  1  0  0  0  0
  3 17  1  0  0  0  0
  5  6  1  0  0  0  0
  7  6  1  6  0  0  0
  7  8  1  0  0  0  0
  7  9  1  0  0  0  0
 10  9  1  1  0  0  0
 10 11  1  0  0  0  0
 10 12  1  0  0  0  0
 11 16  1  0  0  0  0
 12 13  1  6  0  0  0
 12 14  1  0  0  0  0
 14 15  1  6  0  0  0
 14 16  1  0  0  0  0
 16 27  1  1  0  0  0
 18 19  2  0  0  0  0
 18 23  1  0  0  0  0
 19 20  1  0  0  0  0
 20 21  2  0  0  0  0
 21 22  1  0  0  0  0
 21 27  1  0  0  0  0
 22 23  2  0  0  0  0
 22 25  1  0  0  0  0
 23 24  1  0  0  0  0
 25 26  2  0  0  0  0
 26 27  1  0  0  0  0
M  END
>  <CHROM.1>
126.92699904,-178.78046037,52.16674244,-115.28145611,167.36645469,38.36601246
-121.76586134,15.14005104,4.75708934,30.16168592,2.86873061,1.12133475,-2.74927415

>  <Name>
ligand

>  <RI>
0

>  <Rbt.Current_Directory>
/home/itssahil/PROJECTS/Mol_Feturizer/Test_systems_manuscript/rnas/4aob

>  <Rbt.Executable>
rbdock ($Id: //depot/dev/client3/rdock/2013.1/src/exe/rbdock.cxx#4 $)

>  <Rbt.Library>
libRbt.so (2013.1, Build901 2013/11/27)

>  <Rbt.Parameter_File>
/export/apps/rDock/src/rDock_2013.1_src/data/scripts/dock_solv.prm

>  <Rbt.Receptor>
prm/pocket_docking_6.prm

>  <SCORE>
-12.5941

>  <SCORE.INTER>
-13.6278

>  <SCORE.INTER.CONST>
1

>  <SCORE.INTER.POLAR>
0

>  <SCORE.INTER.ROT>
7

>  <SCORE.INTER.SOLV>
13.5545

>  <SCORE.INTER.VDW>
-21.87

>  <SCORE.INTER.norm>
-0.504734

>  <SCORE.INTRA>
1.03371

>  <SCORE.INTRA.DIHEDRAL>
2.6587

>  <SCORE.INTRA.DIHEDRAL.0>
6.31833

>  <SCORE.INTRA.POLAR>
0

>  <SCORE.INTRA.POLAR.0>
0

>  <SCORE.INTRA.REPUL>
0

>  <SCORE.INTRA.REPUL.0>
0

>  <SCORE.INTRA.SOLV>
-0.629247

>  <SCORE.INTRA.SOLV.lig_0>
-48.4015

>  <SCORE.INTRA.VDW>
0.0189816

>  <SCORE.INTRA.VDW.0>
-2.83256

>  <SCORE.INTRA.norm>
0.0382856

>  <SCORE.RESTR>
0

>  <SCORE.RESTR.CAVITY>
0

>  <SCORE.RESTR.norm>
0

>  <SCORE.SYSTEM>
0

>  <SCORE.SYSTEM.CONST>
0

>  <SCORE.SYSTEM.DIHEDRAL>
0

>  <SCORE.SYSTEM.SOLV>
0

>  <SCORE.SYSTEM.norm>
0

>  <SCORE.heavy>
27

>  <SCORE.norm>
-0.466448

>  <RMSD>
5.289

$$$$
ligand
 OpenBabel02271912153D
libRbt.so/2013.1/901 2013/11/27
 27 29  0  0  0  0  0  0  0  0999 V2000
   13.6119    9.3064   27.5046 N   0  0  0  0  0  0  0  0  0  0  0  0
   12.6831    8.7360   26.4995 C   0  0  2  0  0  0  0  0  0  0  0  0
   11.6577    9.8074   26.1518 C   0  0  0  0  0  0  0  0  0  0  0  0
   11.0245   10.5452   26.9779 O   0  0  0  0  0  0  0  0  0  0  0  0
   12.0582    7.4627   27.0737 C   0  0  0  0  0  0  0  0  0  0  0  0
   13.0946    6.4012   27.4175 C   0  0  0  0  0  0  0  0  0  0  0  0
   12.7133    4.9045   28.4029 S   0  0  2  0  0  0  0  0  0  0  0  0
   12.3182    5.6975   29.9603 C   0  0  0  0  0  0  0  0  0  0  0  0
   14.4184    4.3115   28.6421 C   0  0  0  0  0  0  0  0  0  0  0  0
   14.4532    3.0347   29.4363 C   0  0  1  0  0  0  0  0  0  0  0  0
   15.7890    2.4870   29.5483 O   0  0  0  0  0  0  0  0  0  0  0  0
   13.9104    3.1621   30.8413 C   0  0  1  0  0  0  0  0  0  0  0  0
   12.6215    2.7250   30.8388 O   0  0  0  0  0  0  0  0  0  0  0  0
   14.7378    2.1122   31.5452 C   0  0  1  0  0  0  0  0  0  0  0  0
   14.1110    0.9311   31.3050 O   0  0  0  0  0  0  0  0  0  0  0  0
   16.1195    2.0991   30.8546 C   0  0  2  0  0  0  0  0  0  0  0  0
   11.3827    9.9234   24.9563 O   0  0  0  0  0  0  0  0  0  0  0  0
   19.3375    6.1480   30.2024 N   0  0  0  0  0  0  0  0  0  0  0  0
   18.7830    5.1734   29.3062 C   0  0  0  0  0  0  0  0  0  0  0  0
   17.8979    4.1105   29.6141 N   0  0  0  0  0  0  0  0  0  0  0  0
   17.6023    4.0996   30.8535 C   0  0  0  0  0  0  0  0  0  0  0  0
   18.1152    5.0608   31.8553 C   0  0  0  0  0  0  0  0  0  0  0  0
   18.9630    6.0434   31.5243 C   0  0  0  0  0  0  0  0  0  0  0  0
   19.3572    6.8160   32.5156 N   0  0  0  0  0  0  0  0  0  0  0  0
   17.6766    4.8379   33.0712 N   0  0  0  0  0  0  0  0  0  0  0  0
   16.8794    3.7345   32.8286 C   0  0  0  0  0  0  0  0  0  0  0  0
   16.8188    3.2688   31.4523 N   0  0  0  0  0  0  0  0  0  0  0  0
  2  1  1  1  0  0  0
  2  3  1  0  0  0  0
  2  5  1  0  0  0  0
  3  4  1  0  0  0  0
  3 17  1  0  0  0  0
  5  6  1  0  0  0  0
  7  6  1  6  0  0  0
  7  8  1  0  0  0  0
  7  9  1  0  0  0  0
 10  9  1  1  0  0  0
 10 11  1  0  0  0  0
 10 12  1  0  0  0  0
 11 16  1  0  0  0  0
 12 13  1  6  0  0  0
 12 14  1  0  0  0  0
 14 15  1  6  0  0  0
 14 16  1  0  0  0  0
 16 27  1  1  0  0  0
 18 19  2  0  0  0  0
 18 23  1  0  0  0  0
 19 20  1  0  0  0  0
 20 21  2  0  0  0  0
 21 22  1  0  0  0  0
 21 27  1  0  0  0  0
 22 23  2  0  0  0  0
 22 25  1  0  0  0  0
 23 24  1  0  0  0  0
 25 26  2  0  0  0  0
 26 27  1  0  0  0  0
M  END
>  <CHROM.1>
-46.06248036,-60.07052014,168.13923429,-65.26291540,-179.41176387,175.37807063
-34.81821454,14.89448064,5.28547949,29.56586967,-2.28352956,0.40471850,2.71143684

>  <Name>
ligand

>  <RI>
0

>  <Rbt.Current_Directory>
/home/itssahil/PROJECTS/Mol_Feturizer/Test_systems_manuscript/rnas/4aob

>  <Rbt.Executable>
rbdock ($Id: //depot/dev/client3/rdock/2013.1/src/exe/rbdock.cxx#4 $)

>  <Rbt.Library>
libRbt.so (2013.1, Build901 2013/11/27)

>  <Rbt.Parameter_File>
/export/apps/rDock/src/rDock_2013.1_src/data/scripts/dock_solv.prm

>  <Rbt.Receptor>
prm/pocket_docking_5.prm

>  <SCORE>
-9.68067

>  <SCORE.INTER>
-9.64634

>  <SCORE.INTER.CONST>
1

>  <SCORE.INTER.POLAR>
0

>  <SCORE.INTER.ROT>
7

>  <SCORE.INTER.SOLV>
9.88064

>  <SCORE.INTER.VDW>
-17.9911

>  <SCORE.INTER.norm>
-0.357272

>  <SCORE.INTRA>
-0.120893

>  <SCORE.INTRA.DIHEDRAL>
-2.50403

>  <SCORE.INTRA.DIHEDRAL.0>
6.31833

>  <SCORE.INTRA.POLAR>
0

>  <SCORE.INTRA.POLAR.0>
0

>  <SCORE.INTRA.REPUL>
0

>  <SCORE.INTRA.REPUL.0>
0

>  <SCORE.INTRA.SOLV>
0.436672

>  <SCORE.INTRA.SOLV.lig_0>
-48.4015

>  <SCORE.INTRA.VDW>
0.912786

>  <SCORE.INTRA.VDW.0>
-2.83256

>  <SCORE.INTRA.norm>
-0.00447754

>  <SCORE.RESTR>
0.0865715

>  <SCORE.RESTR.CAVITY>
0.0865715

>  <SCORE.RESTR.norm>
0.00320635

>  <SCORE.SYSTEM>
0

>  <SCORE.SYSTEM.CONST>
0

>  <SCORE.SYSTEM.DIHEDRAL>
0

>  <SCORE.SYSTEM.SOLV>
0

>  <SCORE.SYSTEM.norm>
0

>  <SCORE.heavy>
27

>  <SCORE.norm>
-0.358543

>  <RMSD>
5.290

$$$$
ligand
 OpenBabel02271912153D
libRbt.so/2013.1/901 2013/11/27
 27 29  0  0  0  0  0  0  0  0999 V2000
   10.2323    8.1759   27.1592 N   0  0  0  0  0  0  0  0  0  0  0  0
   11.0990    8.9377   28.0902 C   0  0  2  0  0  0  0  0  0  0  0  0
   12.0467    9.7880   27.2542 C   0  0  0  0  0  0  0  0  0  0  0  0
   13.3098    9.8842   27.4053 O   0  0  0  0  0  0  0  0  0  0  0  0
   11.8215    7.9502   29.0091 C   0  0  0  0  0  0  0  0  0  0  0  0
   12.5114    6.8293   28.2431 C   0  0  0  0  0  0  0  0  0  0  0  0
   13.6312    5.6125   29.0317 S   0  0  2  0  0  0  0  0  0  0  0  0
   13.4895    4.2926   27.8281 C   0  0  0  0  0  0  0  0  0  0  0  0
   12.5289    5.0842   30.3816 C   0  0  0  0  0  0  0  0  0  0  0  0
   13.0964    3.9103   31.1312 C   0  0  1  0  0  0  0  0  0  0  0  0
   14.4642    4.1296   31.5530 O   0  0  0  0  0  0  0  0  0  0  0  0
   12.3122    3.5227   32.3640 C   0  0  1  0  0  0  0  0  0  0  0  0
   11.4956    2.4840   32.0376 O   0  0  0  0  0  0  0  0  0  0  0  0
   13.4223    2.9660   33.2244 C   0  0  1  0  0  0  0  0  0  0  0  0
   13.5963    1.6834   32.8121 O   0  0  0  0  0  0  0  0  0  0  0  0
   14.6927    3.7793   32.8914 C   0  0  2  0  0  0  0  0  0  0  0  0
   11.5209   10.4879   26.3869 O   0  0  0  0  0  0  0  0  0  0  0  0
   16.7589    8.2263   34.6605 N   0  0  0  0  0  0  0  0  0  0  0  0
   17.2488    7.1808   33.8075 C   0  0  0  0  0  0  0  0  0  0  0  0
   16.5716    6.0086   33.3890 N   0  0  0  0  0  0  0  0  0  0  0  0
   15.3898    5.9633   33.8633 C   0  0  0  0  0  0  0  0  0  0  0  0
   14.7908    6.9903   34.7448 C   0  0  0  0  0  0  0  0  0  0  0  0
   15.4717    8.0779   35.1289 C   0  0  0  0  0  0  0  0  0  0  0  0
   14.8277    8.9017   35.9299 N   0  0  0  0  0  0  0  0  0  0  0  0
   13.5626    6.7156   35.1139 N   0  0  0  0  0  0  0  0  0  0  0  0
   13.3889    5.5125   34.4547 C   0  0  0  0  0  0  0  0  0  0  0  0
   14.5151    5.0363   33.6677 N   0  0  0  0  0  0  0  0  0  0  0  0
  2  1  1  6  0  0  0
  2  3  1  0  0  0  0
  2  5  1  0  0  0  0
  3  4  1  0  0  0  0
  3 17  1  0  0  0  0
  5  6  1  0  0  0  0
  7  6  1  6  0  0  0
  7  8  1  0  0  0  0
  7  9  1  0  0  0  0
 10  9  1  1  0  0  0
 10 11  1  0  0  0  0
 10 12  1  0  0  0  0
 11 16  1  0  0  0  0
 12 13  1  6  0  0  0
 12 14  1  0  0  0  0
 14 15  1  6  0  0  0
 14 16  1  0  0  0  0
 16 27  1  1  0  0  0
 18 19  2  0  0  0  0
 18 23  1  0  0  0  0
 19 20  1  0  0  0  0
 20 21  2  0  0  0  0
 21 22  1  0  0  0  0
 21 27  1  0  0  0  0
 22 23  2  0  0  0  0
 22 25  1  0  0  0  0
 23 24  1  0  0  0  0
 25 26  2  0  0  0  0
 26 27  1  0  0  0  0
M  END
>  <CHROM.1>
-131.75203338,50.64928123,172.06780681,157.09669014,171.90819844,50.99433879
-83.54383536,13.57801548,6.16987962,31.32375190,2.43740089,-1.07172406,-0.35396686

>  <Name>
ligand

>  <RI>
0

>  <Rbt.Current_Directory>
/home/itssahil/PROJECTS/Mol_Feturizer/Test_systems_manuscript/rnas/4aob

>  <Rbt.Executable>
rbdock ($Id: //depot/dev/client3/rdock/2013.1/src/exe/rbdock.cxx#4 $)

>  <Rbt.Library>
libRbt.so (2013.1, Build901 2013/11/27)

>  <Rbt.Parameter_File>
/export/apps/rDock/src/rDock_2013.1_src/data/scripts/dock_solv.prm

>  <Rbt.Receptor>
prm/pocket_docking_4.prm

>  <SCORE>
-9.4171

>  <SCORE.INTER>
-10.0919

>  <SCORE.INTER.CONST>
1

>  <SCORE.INTER.POLAR>
0

>  <SCORE.INTER.ROT>
7

>  <SCORE.INTER.SOLV>
17.9245

>  <SCORE.INTER.VDW>
-20.9694

>  <SCORE.INTER.norm>
-0.373774

>  <SCORE.INTRA>
0.526002

>  <SCORE.INTRA.DIHEDRAL>
-1.59139

>  <SCORE.INTRA.DIHEDRAL.0>
6.31833

>  <SCORE.INTRA.POLAR>
0

>  <SCORE.INTRA.POLAR.0>
0

>  <SCORE.INTRA.REPUL>
0

>  <SCORE.INTRA.REPUL.0>
0

>  <SCORE.INTRA.SOLV>
0.0227327

>  <SCORE.INTRA.SOLV.lig_0>
-48.4015

>  <SCORE.INTRA.VDW>
1.31033

>  <SCORE.INTRA.VDW.0>
-2.83256

>  <SCORE.INTRA.norm>
0.0194815

>  <SCORE.RESTR>
0.148809

>  <SCORE.RESTR.CAVITY>
0.148809

>  <SCORE.RESTR.norm>
0.00551143

>  <SCORE.SYSTEM>
0

>  <SCORE.SYSTEM.CONST>
0

>  <SCORE.SYSTEM.DIHEDRAL>
0

>  <SCORE.SYSTEM.SOLV>
0

>  <SCORE.SYSTEM.norm>
0

>  <SCORE.heavy>
27

>  <SCORE.norm>
-0.348782

>  <RMSD>
5.291

$$$$
ligand
 OpenBabel02271912153D
libRbt.so/2013.1/901 2013/11/27
 27 29  0  0  0  0  0  0  0  0999 V2000
   19.5835    6.9997   32.4825 N   0  0  0  0  0  0  0  0  0  0  0  0
   18.2317    6.4771   32.1694 C   0  0  2  0  0  0  0  0  0  0  0  0
   18.1305    5.0712   32.7469 C   0  0  0  0  0  0  0  0  0  0  0  0
   18.0650    4.7641   33.9834 O   0  0  0  0  0  0  0  0  0  0  0  0
   18.0240    6.5263   30.6542 C   0  0  0  0  0  0  0  0  0  0  0  0
   16.5642    6.3590   30.2540 C   0  0  0  0  0  0  0  0  0  0  0  0
   15.3006    7.6648   30.4884 S   0  0  2  0  0  0  0  0  0  0  0  0
   16.2134    9.0508   29.8127 C   0  0  0  0  0  0  0  0  0  0  0  0
   15.4743    7.8720   32.2893 C   0  0  0  0  0  0  0  0  0  0  0  0
   14.5173    6.9891   33.0420 C   0  0  1  0  0  0  0  0  0  0  0  0
   13.1325    7.2963   32.7509 O   0  0  0  0  0  0  0  0  0  0  0  0
   14.7035    5.5110   32.7862 C   0  0  1  0  0  0  0  0  0  0  0  0
   15.4457    4.9951   33.8038 O   0  0  0  0  0  0  0  0  0  0  0  0
   13.2856    5.0249   32.9753 C   0  0  1  0  0  0  0  0  0  0  0  0
   13.1270    4.8728   34.3159 O   0  0  0  0  0  0  0  0  0  0  0  0
   12.3583    6.1582   32.4833 C   0  0  2  0  0  0  0  0  0  0  0  0
   18.1727    4.1486   31.9312 O   0  0  0  0  0  0  0  0  0  0  0  0
   11.5398    8.2867   27.7956 N   0  0  0  0  0  0  0  0  0  0  0  0
   11.4741    8.7959   29.1361 C   0  0  0  0  0  0  0  0  0  0  0  0
   11.7332    8.1035   30.3450 N   0  0  0  0  0  0  0  0  0  0  0  0
   12.0686    6.8945   30.1223 C   0  0  0  0  0  0  0  0  0  0  0  0
   12.1710    6.2770   28.7811 C   0  0  0  0  0  0  0  0  0  0  0  0
   11.9027    6.9641   27.6631 C   0  0  0  0  0  0  0  0  0  0  0  0
   12.0133    6.2892   26.5374 N   0  0  0  0  0  0  0  0  0  0  0  0
   12.5233    5.0139   28.8088 N   0  0  0  0  0  0  0  0  0  0  0  0
   12.6486    4.8408   30.1749 C   0  0  0  0  0  0  0  0  0  0  0  0
   12.3752    6.0043   31.0033 N   0  0  0  0  0  0  0  0  0  0  0  0
  2  1  1  6  0  0  0
  2  3  1  0  0  0  0
  2  5  1  0  0  0  0
  3  4  1  0  0  0  0
  3 17  1  0  0  0  0
  5  6  1  0  0  0  0
  7  6  1  6  0  0  0
  7  8  1  0  0  0  0
  7  9  1  0  0  0  0
 10  9  1  6  0  0  0
 10 11  1  0  0  0  0
 10 12  1  0  0  0  0
 11 16  1  0  0  0  0
 12 13  1  1  0  0  0
 12 14  1  0  0  0  0
 14 15  1  1  0  0  0
 14 16  1  0  0  0  0
 16 27  1  6  0  0  0
 18 19  2  0  0  0  0
 18 23  1  0  0  0  0
 19 20  1  0  0  0  0
 20 21  2  0  0  0  0
 21 22  1  0  0  0  0
 21 27  1  0  0  0  0
 22 23  2  0  0  0  0
 22 25  1  0  0  0  0
 23 24  1  0  0  0  0
 25 26  2  0  0  0  0
 26 27  1  0  0  0  0
M  END
>  <CHROM.1>
70.61804987,-165.08156059,73.21437196,47.54561807,-92.01343947,-61.73184725
-53.07904476,14.58629786,6.45387816,31.13355229,-0.61877063,-0.08739830,-1.11075281

>  <Name>
ligand

>  <RI>
0

>  <Rbt.Current_Directory>
/home/itssahil/PROJECTS/Mol_Feturizer/Test_systems_manuscript/rnas/4aob

>  <Rbt.Executable>
rbdock ($Id: //depot/dev/client3/rdock/2013.1/src/exe/rbdock.cxx#4 $)

>  <Rbt.Library>
libRbt.so (2013.1, Build901 2013/11/27)

>  <Rbt.Parameter_File>
/export/apps/rDock/src/rDock_2013.1_src/data/scripts/dock_solv.prm

>  <Rbt.Receptor>
prm/pocket_docking_5.prm

>  <SCORE>
-7.92961

>  <SCORE.INTER>
-6.8683

>  <SCORE.INTER.CONST>
1

>  <SCORE.INTER.POLAR>
0

>  <SCORE.INTER.ROT>
7

>  <SCORE.INTER.SOLV>
9.77285

>  <SCORE.INTER.VDW>
-16.1032

>  <SCORE.INTER.norm>
-0.254382

>  <SCORE.INTRA>
-1.06131

>  <SCORE.INTRA.DIHEDRAL>
-0.434287

>  <SCORE.INTRA.DIHEDRAL.0>
6.31833

>  <SCORE.INTRA.POLAR>
0

>  <SCORE.INTRA.POLAR.0>
0

>  <SCORE.INTRA.REPUL>
0

>  <SCORE.INTRA.REPUL.0>
0

>  <SCORE.INTRA.SOLV>
0.600587

>  <SCORE.INTRA.SOLV.lig_0>
-48.4015

>  <SCORE.INTRA.VDW>
-1.14446

>  <SCORE.INTRA.VDW.0>
-2.83256

>  <SCORE.INTRA.norm>
-0.0393077

>  <SCORE.RESTR>
0

>  <SCORE.RESTR.CAVITY>
0

>  <SCORE.RESTR.norm>
0

>  <SCORE.SYSTEM>
0

>  <SCORE.SYSTEM.CONST>
0

>  <SCORE.SYSTEM.DIHEDRAL>
0

>  <SCORE.SYSTEM.SOLV>
0

>  <SCORE.SYSTEM.norm>
0

>  <SCORE.heavy>
27

>  <SCORE.norm>
-0.293689

>  <RMSD>
5.296

$$$$
ligand
 OpenBabel02271912153D
libRbt.so/2013.1/901 2013/11/27
 27 29  0  0  0  0  0  0  0  0999 V2000
   13.5566    3.2410   28.0740 N   0  0  0  0  0  0  0  0  0  0  0  0
   14.8157    3.9923   28.2944 C   0  0  2  0  0  0  0  0  0  0  0  0
   15.1826    4.6807   26.9861 C   0  0  0  0  0  0  0  0  0  0  0  0
   15.4460    5.9193   26.8308 O   0  0  0  0  0  0  0  0  0  0  0  0
   15.8887    3.0200   28.7893 C   0  0  0  0  0  0  0  0  0  0  0  0
   16.7499    3.6081   29.8990 C   0  0  0  0  0  0  0  0  0  0  0  0
   16.3956    3.3704   31.6807 S   0  0  2  0  0  0  0  0  0  0  0  0
   16.2968    1.5815   31.7021 C   0  0  0  0  0  0  0  0  0  0  0  0
   14.6526    3.8977   31.6700 C   0  0  0  0  0  0  0  0  0  0  0  0
   14.3060    4.6860   32.9030 C   0  0  1  0  0  0  0  0  0  0  0  0
   14.8782    6.0161   32.8907 O   0  0  0  0  0  0  0  0  0  0  0  0
   12.8218    4.8474   33.1402 C   0  0  1  0  0  0  0  0  0  0  0  0
   12.4328    3.9086   34.0456 O   0  0  0  0  0  0  0  0  0  0  0  0
   12.8063    6.1832   33.8458 C   0  0  1  0  0  0  0  0  0  0  0  0
   13.0843    5.9123   35.1476 O   0  0  0  0  0  0  0  0  0  0  0  0
   13.9613    7.0156   33.2463 C   0  0  2  0  0  0  0  0  0  0  0  0
   15.1652    3.9704   25.9793 O   0  0  0  0  0  0  0  0  0  0  0  0
   14.6520    9.7949   28.8905 N   0  0  0  0  0  0  0  0  0  0  0  0
   15.5127    9.4436   29.9843 C   0  0  0  0  0  0  0  0  0  0  0  0
   15.1991    8.6612   31.1233 N   0  0  0  0  0  0  0  0  0  0  0  0
   13.9929    8.2523   31.0852 C   0  0  0  0  0  0  0  0  0  0  0  0
   13.0299    8.5539   30.0026 C   0  0  0  0  0  0  0  0  0  0  0  0
   13.3633    9.3109   28.9491 C   0  0  0  0  0  0  0  0  0  0  0  0
   12.4060    9.5178   28.0684 N   0  0  0  0  0  0  0  0  0  0  0  0
   11.8426    8.0302   30.1933 N   0  0  0  0  0  0  0  0  0  0  0  0
   12.0649    7.3915   31.3994 C   0  0  0  0  0  0  0  0  0  0  0  0
   13.4001    7.5160   31.9621 N   0  0  0  0  0  0  0  0  0  0  0  0
  2  1  1  6  0  0  0
  2  3  1  0  0  0  0
  2  5  1  0  0  0  0
  3  4  1  0  0  0  0
  3 17  1  0  0  0  0
  5  6  1  0  0  0  0
  7  6  1  6  0  0  0
  7  8  1  0  0  0  0
  7  9  1  0  0  0  0
 10  9  1  6  0  0  0
 10 11  1  0  0  0  0
 10 12  1  0  0  0  0
 11 16  1  0  0  0  0
 12 13  1  1  0  0  0
 12 14  1  0  0  0  0
 14 15  1  1  0  0  0
 14 16  1  0  0  0  0
 16 27  1  6  0  0  0
 18 19  2  0  0  0  0
 18 23  1  0  0  0  0
 19 20  1  0  0  0  0
 20 21  2  0  0  0  0
 21 22  1  0  0  0  0
 21 27  1  0  0  0  0
 22 23  2  0  0  0  0
 22 25  1  0  0  0  0
 23 24  1  0  0  0  0
 25 26  2  0  0  0  0
 26 27  1  0  0  0  0
M  END
>  <CHROM.1>
127.61078502,-139.09044437,93.63688943,53.48710810,-141.62912032,72.86057339
-72.70342045,14.34170519,5.80495648,30.68862344,-0.51079193,1.14599882,-1.03100067

>  <Name>
ligand

>  <RI>
0

>  <Rbt.Current_Directory>
/home/itssahil/PROJECTS/Mol_Feturizer/Test_systems_manuscript/rnas/4aob

>  <Rbt.Executable>
rbdock ($Id: //depot/dev/client3/rdock/2013.1/src/exe/rbdock.cxx#4 $)

>  <Rbt.Library>
libRbt.so (2013.1, Build901 2013/11/27)

>  <Rbt.Parameter_File>
/export/apps/rDock/src/rDock_2013.1_src/data/scripts/dock_solv.prm

>  <Rbt.Receptor>
prm/pocket_docking_2.prm

>  <SCORE>
-3.63443

>  <SCORE.INTER>
-10.4031

>  <SCORE.INTER.CONST>
1

>  <SCORE.INTER.POLAR>
0

>  <SCORE.INTER.ROT>
7

>  <SCORE.INTER.SOLV>
16.4753

>  <SCORE.INTER.VDW>
-20.6939

>  <SCORE.INTER.norm>
-0.385302

>  <SCORE.INTRA>
5.04517

>  <SCORE.INTRA.DIHEDRAL>
9.09971

>  <SCORE.INTRA.DIHEDRAL.0>
6.31833

>  <SCORE.INTRA.POLAR>
0

>  <SCORE.INTRA.POLAR.0>
0

>  <SCORE.INTRA.REPUL>
0

>  <SCORE.INTRA.REPUL.0>
0

>  <SCORE.INTRA.SOLV>
0.0350182

>  <SCORE.INTRA.SOLV.lig_0>
-48.4015

>  <SCORE.INTRA.VDW>
0.477805

>  <SCORE.INTRA.VDW.0>
-2.83256

>  <SCORE.INTRA.norm>
0.186858

>  <SCORE.RESTR>
1.72354

>  <SCORE.RESTR.CAVITY>
1.72354

>  <SCORE.RESTR.norm>
0.0638348

>  <SCORE.SYSTEM>
0

>  <SCORE.SYSTEM.CONST>
0

>  <SCORE.SYSTEM.DIHEDRAL>
0

>  <SCORE.SYSTEM.SOLV>
0

>  <SCORE.SYSTEM.norm>
0

>  <SCORE.heavy>
27

>  <SCORE.norm>
-0.134609

>  <RMSD>
5.299

$$$$
ligand
 OpenBabel02271912153D
libRbt.so/2013.1/901 2013/11/27
 27 29  0  0  0  0  0  0  0  0999 V2000
   12.8752    8.2964   25.6136 N   0  0  0  0  0  0  0  0  0  0  0  0
   13.3771    7.3710   26.6576 C   0  0  2  0  0  0  0  0  0  0  0  0
   14.8977    7.3497   26.5693 C   0  0  0  0  0  0  0  0  0  0  0  0
   15.5918    7.1516   25.5175 O   0  0  0  0  0  0  0  0  0  0  0  0
   12.7385    5.9967   26.4452 C   0  0  0  0  0  0  0  0  0  0  0  0
   12.9995    5.0408   27.6016 C   0  0  0  0  0  0  0  0  0  0  0  0
   14.6792    4.5299   28.1252 S   0  0  2  0  0  0  0  0  0  0  0  0
   15.1005    3.5003   26.7205 C   0  0  0  0  0  0  0  0  0  0  0  0
   14.1963    3.3310   29.4081 C   0  0  0  0  0  0  0  0  0  0  0  0
   15.3919    2.6147   29.9733 C   0  0  1  0  0  0  0  0  0  0  0  0
   16.5106    3.5031   30.2102 O   0  0  0  0  0  0  0  0  0  0  0  0
   15.1241    1.8881   31.2715 C   0  0  1  0  0  0  0  0  0  0  0  0
   14.9013    0.5764   30.9848 O   0  0  0  0  0  0  0  0  0  0  0  0
   16.4871    1.9800   31.9168 C   0  0  1  0  0  0  0  0  0  0  0  0
   17.2133    0.9631   31.3837 O   0  0  0  0  0  0  0  0  0  0  0  0
   17.1002    3.3255   31.4699 C   0  0  2  0  0  0  0  0  0  0  0  0
   15.5019    7.4831   27.6350 O   0  0  0  0  0  0  0  0  0  0  0  0
   17.5690    7.4918   34.5678 N   0  0  0  0  0  0  0  0  0  0  0  0
   18.4928    6.7661   33.7429 C   0  0  0  0  0  0  0  0  0  0  0  0
   18.2320    5.6361   32.9287 N   0  0  0  0  0  0  0  0  0  0  0  0
   17.0046    5.2984   32.9863 C   0  0  0  0  0  0  0  0  0  0  0  0
   15.9749    5.9828   33.7997 C   0  0  0  0  0  0  0  0  0  0  0  0
   16.2672    7.0403   34.5680 C   0  0  0  0  0  0  0  0  0  0  0  0
   15.2621    7.5420   35.2559 N   0  0  0  0  0  0  0  0  0  0  0  0
   14.7835    5.4426   33.7036 N   0  0  0  0  0  0  0  0  0  0  0  0
   15.0673    4.4177   32.8199 C   0  0  0  0  0  0  0  0  0  0  0  0
   16.4436    4.3205   32.3605 N   0  0  0  0  0  0  0  0  0  0  0  0
  2  1  1  6  0  0  0
  2  3  1  0  0  0  0
  2  5  1  0  0  0  0
  3  4  1  0  0  0  0
  3 17  1  0  0  0  0
  5  6  1  0  0  0  0
  7  6  1  6  0  0  0
  7  8  1  0  0  0  0
  7  9  1  0  0  0  0
 10  9  1  1  0  0  0
 10 11  1  0  0  0  0
 10 12  1  0  0  0  0
 11 16  1  0  0  0  0
 12 13  1  6  0  0  0
 12 14  1  0  0  0  0
 14 15  1  6  0  0  0
 14 16  1  0  0  0  0
 16 27  1  1  0  0  0
 18 19  2  0  0  0  0
 18 23  1  0  0  0  0
 19 20  1  0  0  0  0
 20 21  2  0  0  0  0
 21 22  1  0  0  0  0
 21 27  1  0  0  0  0
 22 23  2  0  0  0  0
 22 25  1  0  0  0  0
 23 24  1  0  0  0  0
 25 26  2  0  0  0  0
 26 27  1  0  0  0  0
M  END
>  <CHROM.1>
-51.14344060,-170.07766940,-60.08854320,-70.35665527,174.86014229,42.38935673
-118.08381473,15.49402012,4.92609359,30.31604088,-3.09024040,1.22049447,-3.02806058

>  <Name>
ligand

>  <RI>
0

>  <Rbt.Current_Directory>
/home/itssahil/PROJECTS/Mol_Feturizer/Test_systems_manuscript/rnas/4aob

>  <Rbt.Executable>
rbdock ($Id: //depot/dev/client3/rdock/2013.1/src/exe/rbdock.cxx#4 $)

>  <Rbt.Library>
libRbt.so (2013.1, Build901 2013/11/27)

>  <Rbt.Parameter_File>
/export/apps/rDock/src/rDock_2013.1_src/data/scripts/dock_solv.prm

>  <Rbt.Receptor>
prm/pocket_docking_6.prm

>  <SCORE>
-12.4599

>  <SCORE.INTER>
-10.9121

>  <SCORE.INTER.CONST>
1

>  <SCORE.INTER.POLAR>
0

>  <SCORE.INTER.ROT>
7

>  <SCORE.INTER.SOLV>
13.6198

>  <SCORE.INTER.VDW>
-20.0813

>  <SCORE.INTER.norm>
-0.404151

>  <SCORE.INTRA>
-1.54784

>  <SCORE.INTRA.DIHEDRAL>
-1.72197

>  <SCORE.INTRA.DIHEDRAL.0>
6.31833

>  <SCORE.INTRA.POLAR>
0

>  <SCORE.INTRA.POLAR.0>
0

>  <SCORE.INTRA.REPUL>
0

>  <SCORE.INTRA.REPUL.0>
0

>  <SCORE.INTRA.SOLV>
-0.668149

>  <SCORE.INTRA.SOLV.lig_0>
-48.4015

>  <SCORE.INTRA.VDW>
-0.352777

>  <SCORE.INTRA.VDW.0>
-2.83256

>  <SCORE.INTRA.norm>
-0.0573273

>  <SCORE.RESTR>
0

>  <SCORE.RESTR.CAVITY>
0

>  <SCORE.RESTR.norm>
0

>  <SCORE.SYSTEM>
0

>  <SCORE.SYSTEM.CONST>
0

>  <SCORE.SYSTEM.DIHEDRAL>
0

>  <SCORE.SYSTEM.SOLV>
0

>  <SCORE.SYSTEM.norm>
0

>  <SCORE.heavy>
27

>  <SCORE.norm>
-0.461478

>  <RMSD>
5.301

$$$$
ligand
 OpenBabel02271912153D
libRbt.so/2013.1/901 2013/11/27
 27 29  0  0  0  0  0  0  0  0999 V2000
   11.6378    8.5350   27.4045 N   0  0  0  0  0  0  0  0  0  0  0  0
   11.4076    7.9085   28.7285 C   0  0  2  0  0  0  0  0  0  0  0  0
   11.9151    8.8713   29.7941 C   0  0  0  0  0  0  0  0  0  0  0  0
   11.4360    9.0231   30.9667 O   0  0  0  0  0  0  0  0  0  0  0  0
   12.1080    6.5483   28.7576 C   0  0  0  0  0  0  0  0  0  0  0  0
   12.1940    5.9600   30.1597 C   0  0  0  0  0  0  0  0  0  0  0  0
   13.6699    5.0774   30.7917 S   0  0  2  0  0  0  0  0  0  0  0  0
   14.9227    6.2666   30.3154 C   0  0  0  0  0  0  0  0  0  0  0  0
   13.7781    3.7978   29.5005 C   0  0  0  0  0  0  0  0  0  0  0  0
   14.3527    2.5164   30.0389 C   0  0  1  0  0  0  0  0  0  0  0  0
   15.7606    2.3682   29.7345 O   0  0  0  0  0  0  0  0  0  0  0  0
   14.2056    2.3497   31.5341 C   0  0  1  0  0  0  0  0  0  0  0  0
   13.1203    1.5624   31.7679 O   0  0  0  0  0  0  0  0  0  0  0  0
   15.4327    1.5210   31.8339 C   0  0  1  0  0  0  0  0  0  0  0  0
   15.0835    0.2375   31.5578 O   0  0  0  0  0  0  0  0  0  0  0  0
   16.5262    1.9709   30.8400 C   0  0  2  0  0  0  0  0  0  0  0  0
   12.8441    9.6076   29.4576 O   0  0  0  0  0  0  0  0  0  0  0  0
   19.0362    6.4910   30.1741 N   0  0  0  0  0  0  0  0  0  0  0  0
   18.6221    5.4502   29.2764 C   0  0  0  0  0  0  0  0  0  0  0  0
   17.9270    4.2556   29.5887 N   0  0  0  0  0  0  0  0  0  0  0  0
   17.6689    4.1833   30.8345 C   0  0  0  0  0  0  0  0  0  0  0  0
   18.0469    5.2030   31.8385 C   0  0  0  0  0  0  0  0  0  0  0  0
   18.7174    6.3127   31.5027 C   0  0  0  0  0  0  0  0  0  0  0  0
   19.0082    7.1272   32.4961 N   0  0  0  0  0  0  0  0  0  0  0  0
   17.6810    4.8989   33.0608 N   0  0  0  0  0  0  0  0  0  0  0  0
   17.0648    3.6846   32.8202 C   0  0  0  0  0  0  0  0  0  0  0  0
   17.0443    3.2308   31.4388 N   0  0  0  0  0  0  0  0  0  0  0  0
  2  1  1  6  0  0  0
  2  3  1  0  0  0  0
  2  5  1  0  0  0  0
  3  4  1  0  0  0  0
  3 17  1  0  0  0  0
  5  6  1  0  0  0  0
  7  6  1  6  0  0  0
  7  8  1  0  0  0  0
  7  9  1  0  0  0  0
 10  9  1  1  0  0  0
 10 11  1  0  0  0  0
 10 12  1  0  0  0  0
 11 16  1  0  0  0  0
 12 13  1  6  0  0  0
 12 14  1  0  0  0  0
 14 15  1  6  0  0  0
 14 16  1  0  0  0  0
 16 27  1  1  0  0  0
 18 19  2  0  0  0  0
 18 23  1  0  0  0  0
 19 20  1  0  0  0  0
 20 21  2  0  0  0  0
 21 22  1  0  0  0  0
 21 27  1  0  0  0  0
 22 23  2  0  0  0  0
 22 25  1  0  0  0  0
 23 24  1  0  0  0  0
 25 26  2  0  0  0  0
 26 27  1  0  0  0  0
M  END
>  <CHROM.1>
147.61769462,167.39954765,-140.08691560,48.71975257,-149.05457963,-99.23536504
-51.61392479,15.07257096,4.99742463,30.59836933,-2.34191959,0.22434231,2.96722692

>  <Name>
ligand

>  <RI>
0

>  <Rbt.Current_Directory>
/home/itssahil/PROJECTS/Mol_Feturizer/Test_systems_manuscript/rnas/4aob

>  <Rbt.Executable>
rbdock ($Id: //depot/dev/client3/rdock/2013.1/src/exe/rbdock.cxx#4 $)

>  <Rbt.Library>
libRbt.so (2013.1, Build901 2013/11/27)

>  <Rbt.Parameter_File>
/export/apps/rDock/src/rDock_2013.1_src/data/scripts/dock_solv.prm

>  <Rbt.Receptor>
prm/pocket_docking_7.prm

>  <SCORE>
-7.50377

>  <SCORE.INTER>
-12.1998

>  <SCORE.INTER.CONST>
1

>  <SCORE.INTER.POLAR>
0

>  <SCORE.INTER.ROT>
7

>  <SCORE.INTER.SOLV>
10.0839

>  <SCORE.INTER.VDW>
-19.7612

>  <SCORE.INTER.norm>
-0.451844

>  <SCORE.INTRA>
4.69602

>  <SCORE.INTRA.DIHEDRAL>
8.72127

>  <SCORE.INTRA.DIHEDRAL.0>
6.31833

>  <SCORE.INTRA.POLAR>
0

>  <SCORE.INTRA.POLAR.0>
0

>  <SCORE.INTRA.REPUL>
0

>  <SCORE.INTRA.REPUL.0>
0

>  <SCORE.INTRA.SOLV>
-0.396857

>  <SCORE.INTRA.SOLV.lig_0>
-48.4015

>  <SCORE.INTRA.VDW>
0.533819

>  <SCORE.INTRA.VDW.0>
-2.83256

>  <SCORE.INTRA.norm>
0.173927

>  <SCORE.RESTR>
0

>  <SCORE.RESTR.CAVITY>
0

>  <SCORE.RESTR.norm>
0

>  <SCORE.SYSTEM>
0

>  <SCORE.SYSTEM.CONST>
0

>  <SCORE.SYSTEM.DIHEDRAL>
0

>  <SCORE.SYSTEM.SOLV>
0

>  <SCORE.SYSTEM.norm>
0

>  <SCORE.heavy>
27

>  <SCORE.norm>
-0.277917

>  <RMSD>
5.302

$$$$
ligand
 OpenBabel02271912153D
libRbt.so/2013.1/901 2013/11/27
 27 29  0  0  0  0  0  0  0  0999 V2000
   14.9548    3.4320   26.8210 N   0  0  0  0  0  0  0  0  0  0  0  0
   14.8715    3.4709   28.3008 C   0  0  2  0  0  0  0  0  0  0  0  0
   14.3062    4.8278   28.7001 C   0  0  0  0  0  0  0  0  0  0  0  0
   13.4239    5.0461   29.5953 O   0  0  0  0  0  0  0  0  0  0  0  0
   16.2621    3.1998   28.8792 C   0  0  0  0  0  0  0  0  0  0  0  0
   16.2408    2.1812   30.0111 C   0  0  0  0  0  0  0  0  0  0  0  0
   15.3245    2.4360   31.5770 S   0  0  2  0  0  0  0  0  0  0  0  0
   13.6598    2.1925   30.9606 C   0  0  0  0  0  0  0  0  0  0  0  0
   15.4853    4.2471   31.6784 C   0  0  0  0  0  0  0  0  0  0  0  0
   14.7329    4.8037   32.8558 C   0  0  1  0  0  0  0  0  0  0  0  0
   14.9004    6.2353   32.9951 O   0  0  0  0  0  0  0  0  0  0  0  0
   13.2456    4.5354   32.8257 C   0  0  1  0  0  0  0  0  0  0  0  0
   12.9945    3.4527   33.6113 O   0  0  0  0  0  0  0  0  0  0  0  0
   12.7382    5.7517   33.5643 C   0  0  1  0  0  0  0  0  0  0  0  0
   12.8640    5.4566   34.8844 O   0  0  0  0  0  0  0  0  0  0  0  0
   13.6933    6.9142   33.2144 C   0  0  2  0  0  0  0  0  0  0  0  0
   14.7091    5.7930   28.0486 O   0  0  0  0  0  0  0  0  0  0  0  0
   14.5994    9.7113   28.9097 N   0  0  0  0  0  0  0  0  0  0  0  0
   15.3643    9.4492   30.0958 C   0  0  0  0  0  0  0  0  0  0  0  0
   15.0007    8.6501   31.2081 N   0  0  0  0  0  0  0  0  0  0  0  0
   13.8478    8.1318   31.0477 C   0  0  0  0  0  0  0  0  0  0  0  0
   12.9849    8.3352   29.8625 C   0  0  0  0  0  0  0  0  0  0  0  0
   13.3611    9.1113   28.8378 C   0  0  0  0  0  0  0  0  0  0  0  0
   12.4905    9.2225   27.8556 N   0  0  0  0  0  0  0  0  0  0  0  0
   11.8363    7.7060   29.9336 N   0  0  0  0  0  0  0  0  0  0  0  0
   11.9830    7.0999   31.1678 C   0  0  0  0  0  0  0  0  0  0  0  0
   13.2322    7.3509   31.8686 N   0  0  0  0  0  0  0  0  0  0  0  0
  2  1  1  6  0  0  0
  2  3  1  0  0  0  0
  2  5  1  0  0  0  0
  3  4  1  0  0  0  0
  3 17  1  0  0  0  0
  5  6  1  0  0  0  0
  7  6  1  6  0  0  0
  7  8  1  0  0  0  0
  7  9  1  0  0  0  0
 10  9  1  6  0  0  0
 10 11  1  0  0  0  0
 10 12  1  0  0  0  0
 11 16  1  0  0  0  0
 12 13  1  1  0  0  0
 12 14  1  0  0  0  0
 14 15  1  1  0  0  0
 14 16  1  0  0  0  0
 16 27  1  6  0  0  0
 18 19  2  0  0  0  0
 18 23  1  0  0  0  0
 19 20  1  0  0  0  0
 20 21  2  0  0  0  0
 21 22  1  0  0  0  0
 21 27  1  0  0  0  0
 22 23  2  0  0  0  0
 22 25  1  0  0  0  0
 23 24  1  0  0  0  0
 25 26  2  0  0  0  0
 26 27  1  0  0  0  0
M  END
>  <CHROM.1>
137.18861760,-133.46602371,-61.43399618,73.45751767,176.22648900,177.14395126
-60.35973568,14.10756048,5.64283945,30.78922697,-0.91401516,1.21978821,-0.88365692

>  <Name>
ligand

>  <RI>
0

>  <Rbt.Current_Directory>
/home/itssahil/PROJECTS/Mol_Feturizer/Test_systems_manuscript/rnas/4aob

>  <Rbt.Executable>
rbdock ($Id: //depot/dev/client3/rdock/2013.1/src/exe/rbdock.cxx#4 $)

>  <Rbt.Library>
libRbt.so (2013.1, Build901 2013/11/27)

>  <Rbt.Parameter_File>
/export/apps/rDock/src/rDock_2013.1_src/data/scripts/dock_solv.prm

>  <Rbt.Receptor>
prm/pocket_docking_2.prm

>  <SCORE>
-7.65595

>  <SCORE.INTER>
-10.2535

>  <SCORE.INTER.CONST>
1

>  <SCORE.INTER.POLAR>
0

>  <SCORE.INTER.ROT>
7

>  <SCORE.INTER.SOLV>
13.9018

>  <SCORE.INTER.VDW>
-19.7363

>  <SCORE.INTER.norm>
-0.379759

>  <SCORE.INTRA>
1.31003

>  <SCORE.INTRA.DIHEDRAL>
3.39445

>  <SCORE.INTRA.DIHEDRAL.0>
6.31833

>  <SCORE.INTRA.POLAR>
0

>  <SCORE.INTRA.POLAR.0>
0

>  <SCORE.INTRA.REPUL>
0

>  <SCORE.INTRA.REPUL.0>
0

>  <SCORE.INTRA.SOLV>
0.0970535

>  <SCORE.INTRA.SOLV.lig_0>
-48.4015

>  <SCORE.INTRA.VDW>
-0.435718

>  <SCORE.INTRA.VDW.0>
-2.83256

>  <SCORE.INTRA.norm>
0.0485197

>  <SCORE.RESTR>
1.28753

>  <SCORE.RESTR.CAVITY>
1.28753

>  <SCORE.RESTR.norm>
0.0476862

>  <SCORE.SYSTEM>
0

>  <SCORE.SYSTEM.CONST>
0

>  <SCORE.SYSTEM.DIHEDRAL>
0

>  <SCORE.SYSTEM.SOLV>
0

>  <SCORE.SYSTEM.norm>
0

>  <SCORE.heavy>
27

>  <SCORE.norm>
-0.283554

>  <RMSD>
5.309

$$$$
ligand
 OpenBabel02271912153D
libRbt.so/2013.1/901 2013/11/27
 27 29  0  0  0  0  0  0  0  0999 V2000
   16.5876    5.4069   28.5757 N   0  0  0  0  0  0  0  0  0  0  0  0
   16.5769    4.0006   28.1063 C   0  0  2  0  0  0  0  0  0  0  0  0
   15.3109    3.7932   27.2850 C   0  0  0  0  0  0  0  0  0  0  0  0
   15.2346    3.2356   26.1401 O   0  0  0  0  0  0  0  0  0  0  0  0
   16.6691    3.0755   29.3217 C   0  0  0  0  0  0  0  0  0  0  0  0
   15.5900    3.3562   30.3589 C   0  0  0  0  0  0  0  0  0  0  0  0
   15.4617    2.4525   31.9475 S   0  0  2  0  0  0  0  0  0  0  0  0
   15.0409    0.8333   31.3059 C   0  0  0  0  0  0  0  0  0  0  0  0
   13.8622    3.1259   32.4992 C   0  0  0  0  0  0  0  0  0  0  0  0
   14.0217    4.4803   33.1331 C   0  0  1  0  0  0  0  0  0  0  0  0
   14.6812    5.4281   32.2592 O   0  0  0  0  0  0  0  0  0  0  0  0
   12.7233    5.1170   33.5732 C   0  0  1  0  0  0  0  0  0  0  0  0
   12.5698    4.8886   34.9061 O   0  0  0  0  0  0  0  0  0  0  0  0
   13.0704    6.5779   33.4064 C   0  0  1  0  0  0  0  0  0  0  0  0
   13.7381    6.9264   34.5369 O   0  0  0  0  0  0  0  0  0  0  0  0
   14.0342    6.6708   32.2028 C   0  0  2  0  0  0  0  0  0  0  0  0
   14.2761    4.2641   27.7605 O   0  0  0  0  0  0  0  0  0  0  0  0
   11.5727    9.1535   28.3360 N   0  0  0  0  0  0  0  0  0  0  0  0
   12.5026    9.5746   29.3452 C   0  0  0  0  0  0  0  0  0  0  0  0
   13.1151    8.7848   30.3497 N   0  0  0  0  0  0  0  0  0  0  0  0
   12.7497    7.5669   30.2668 C   0  0  0  0  0  0  0  0  0  0  0  0
   11.8029    7.0329   29.2623 C   0  0  0  0  0  0  0  0  0  0  0  0
   11.2343    7.8178   28.3379 C   0  0  0  0  0  0  0  0  0  0  0  0
   10.3957    7.2191   27.5175 N   0  0  0  0  0  0  0  0  0  0  0  0
   11.5733    5.7475   29.3866 N   0  0  0  0  0  0  0  0  0  0  0  0
   12.3858    5.4734   30.4714 C   0  0  0  0  0  0  0  0  0  0  0  0
   13.1284    6.5947   31.0245 N   0  0  0  0  0  0  0  0  0  0  0  0
  2  1  1  1  0  0  0
  2  3  1  0  0  0  0
  2  5  1  0  0  0  0
  3  4  1  0  0  0  0
  3 17  1  0  0  0  0
  5  6  1  0  0  0  0
  7  6  1  6  0  0  0
  7  8  1  0  0  0  0
  7  9  1  0  0  0  0
 10  9  1  6  0  0  0
 10 11  1  0  0  0  0
 10 12  1  0  0  0  0
 11 16  1  0  0  0  0
 12 13  1  1  0  0  0
 12 14  1  0  0  0  0
 14 15  1  1  0  0  0
 14 16  1  0  0  0  0
 16 27  1  6  0  0  0
 18 19  2  0  0  0  0
 18 23  1  0  0  0  0
 19 20  1  0  0  0  0
 20 21  2  0  0  0  0
 21 22  1  0  0  0  0
 21 27  1  0  0  0  0
 22 23  2  0  0  0  0
 22 25  1  0  0  0  0
 23 24  1  0  0  0  0
 25 26  2  0  0  0  0
 26 27  1  0  0  0  0
M  END
>  <CHROM.1>
132.48534329,54.28212871,-178.15282938,-66.64765327,-81.35815095,55.88394971
-150.19663226,13.82269530,5.29529582,30.53836554,-0.33422922,0.95359085,-1.42704565

>  <Name>
ligand

>  <RI>
0

>  <Rbt.Current_Directory>
/home/itssahil/PROJECTS/Mol_Feturizer/Test_systems_manuscript/rnas/4aob

>  <Rbt.Executable>
rbdock ($Id: //depot/dev/client3/rdock/2013.1/src/exe/rbdock.cxx#4 $)

>  <Rbt.Library>
libRbt.so (2013.1, Build901 2013/11/27)

>  <Rbt.Parameter_File>
/export/apps/rDock/src/rDock_2013.1_src/data/scripts/dock_solv.prm

>  <Rbt.Receptor>
prm/pocket_docking_4.prm

>  <SCORE>
-15.8406

>  <SCORE.INTER>
-14.322

>  <SCORE.INTER.CONST>
1

>  <SCORE.INTER.POLAR>
0

>  <SCORE.INTER.ROT>
7

>  <SCORE.INTER.SOLV>
13.5894

>  <SCORE.INTER.VDW>
-22.3445

>  <SCORE.INTER.norm>
-0.530445

>  <SCORE.INTRA>
-1.51961

>  <SCORE.INTRA.DIHEDRAL>
-2.62378

>  <SCORE.INTRA.DIHEDRAL.0>
6.31833

>  <SCORE.INTRA.POLAR>
0

>  <SCORE.INTRA.POLAR.0>
0

>  <SCORE.INTRA.REPUL>
0

>  <SCORE.INTRA.REPUL.0>
0

>  <SCORE.INTRA.SOLV>
0.202176

>  <SCORE.INTRA.SOLV.lig_0>
-48.4015

>  <SCORE.INTRA.VDW>
-0.308811

>  <SCORE.INTRA.VDW.0>
-2.83256

>  <SCORE.INTRA.norm>
-0.056282

>  <SCORE.RESTR>
0.00102696

>  <SCORE.RESTR.CAVITY>
0.00102696

>  <SCORE.RESTR.norm>
3.80356e-05

>  <SCORE.SYSTEM>
0

>  <SCORE.SYSTEM.CONST>
0

>  <SCORE.SYSTEM.DIHEDRAL>
0

>  <SCORE.SYSTEM.SOLV>
0

>  <SCORE.SYSTEM.norm>
0

>  <SCORE.heavy>
27

>  <SCORE.norm>
-0.586689

>  <RMSD>
5.316

$$$$
ligand
 OpenBabel02271912153D
libRbt.so/2013.1/901 2013/11/27
 27 29  0  0  0  0  0  0  0  0999 V2000
   13.1607    8.8459   30.0584 N   0  0  0  0  0  0  0  0  0  0  0  0
   13.0838    8.4026   28.6457 C   0  0  2  0  0  0  0  0  0  0  0  0
   12.8429    9.6348   27.7832 C   0  0  0  0  0  0  0  0  0  0  0  0
   11.8048   10.3761   27.7959 O   0  0  0  0  0  0  0  0  0  0  0  0
   11.9807    7.3496   28.5197 C   0  0  0  0  0  0  0  0  0  0  0  0
   12.2063    6.1485   29.4283 C   0  0  0  0  0  0  0  0  0  0  0  0
   13.6669    5.0500   29.2998 S   0  0  2  0  0  0  0  0  0  0  0  0
   13.1928    4.1378   27.8322 C   0  0  0  0  0  0  0  0  0  0  0  0
   13.2569    3.9147   30.6634 C   0  0  0  0  0  0  0  0  0  0  0  0
   14.0749    2.6543   30.5981 C   0  0  1  0  0  0  0  0  0  0  0  0
   15.3194    2.8367   29.8806 O   0  0  0  0  0  0  0  0  0  0  0  0
   14.4263    2.0713   31.9478 C   0  0  1  0  0  0  0  0  0  0  0  0
   13.5397    1.0761   32.2234 O   0  0  0  0  0  0  0  0  0  0  0  0
   15.7478    1.4159   31.6215 C   0  0  1  0  0  0  0  0  0  0  0  0
   15.4338    0.2128   31.0742 O   0  0  0  0  0  0  0  0  0  0  0  0
   16.4271    2.2958   30.5489 C   0  0  2  0  0  0  0  0  0  0  0  0
   13.7209    9.8965   26.9590 O   0  0  0  0  0  0  0  0  0  0  0  0
   18.5406    7.0610   30.5755 N   0  0  0  0  0  0  0  0  0  0  0  0
   17.9910    6.2306   29.5416 C   0  0  0  0  0  0  0  0  0  0  0  0
   17.4303    4.9356   29.6700 N   0  0  0  0  0  0  0  0  0  0  0  0
   17.4457    4.5434   30.8823 C   0  0  0  0  0  0  0  0  0  0  0  0
   17.9834    5.3245   32.0186 C   0  0  0  0  0  0  0  0  0  0  0  0
   18.5188    6.5408   31.8512 C   0  0  0  0  0  0  0  0  0  0  0  0
   18.9781    7.1179   32.9425 N   0  0  0  0  0  0  0  0  0  0  0  0
   17.8986    4.7037   33.1709 N   0  0  0  0  0  0  0  0  0  0  0  0
   17.2986    3.5294   32.7549 C   0  0  0  0  0  0  0  0  0  0  0  0
   17.0052    3.4193   31.3349 N   0  0  0  0  0  0  0  0  0  0  0  0
  2  1  1  1  0  0  0
  2  3  1  0  0  0  0
  2  5  1  0  0  0  0
  3  4  1  0  0  0  0
  3 17  1  0  0  0  0
  5  6  1  0  0  0  0
  7  6  1  1  0  0  0
  7  8  1  0  0  0  0
  7  9  1  0  0  0  0
 10  9  1  1  0  0  0
 10 11  1  0  0  0  0
 10 12  1  0  0  0  0
 11 16  1  0  0  0  0
 12 13  1  6  0  0  0
 12 14  1  0  0  0  0
 14 15  1  6  0  0  0
 14 16  1  0  0  0  0
 16 27  1  1  0  0  0
 18 19  2  0  0  0  0
 18 23  1  0  0  0  0
 19 20  1  0  0  0  0
 20 21  2  0  0  0  0
 21 22  1  0  0  0  0
 21 27  1  0  0  0  0
 22 23  2  0  0  0  0
 22 25  1  0  0  0  0
 23 24  1  0  0  0  0
 25 26  2  0  0  0  0
 26 27  1  0  0  0  0
M  END
>  <CHROM.1>
-65.12158716,-57.84401687,-61.40996119,-75.29409656,164.47071922,24.12578211
-58.93679452,15.13430452,5.15763733,30.26333102,-2.08720548,0.43569707,2.85785347

>  <Name>
ligand

>  <RI>
0

>  <Rbt.Current_Directory>
/home/itssahil/PROJECTS/Mol_Feturizer/Test_systems_manuscript/rnas/4aob

>  <Rbt.Executable>
rbdock ($Id: //depot/dev/client3/rdock/2013.1/src/exe/rbdock.cxx#4 $)

>  <Rbt.Library>
libRbt.so (2013.1, Build901 2013/11/27)

>  <Rbt.Parameter_File>
/export/apps/rDock/src/rDock_2013.1_src/data/scripts/dock_solv.prm

>  <Rbt.Receptor>
prm/pocket_docking_5.prm

>  <SCORE>
-10.3021

>  <SCORE.INTER>
-11.2052

>  <SCORE.INTER.CONST>
1

>  <SCORE.INTER.POLAR>
0

>  <SCORE.INTER.ROT>
7

>  <SCORE.INTER.SOLV>
11.6012

>  <SCORE.INTER.VDW>
-19.6039

>  <SCORE.INTER.norm>
-0.415009

>  <SCORE.INTRA>
0.903174

>  <SCORE.INTRA.DIHEDRAL>
0.560722

>  <SCORE.INTRA.DIHEDRAL.0>
6.31833

>  <SCORE.INTRA.POLAR>
0

>  <SCORE.INTRA.POLAR.0>
0

>  <SCORE.INTRA.REPUL>
0

>  <SCORE.INTRA.REPUL.0>
0

>  <SCORE.INTRA.SOLV>
0.622145

>  <SCORE.INTRA.SOLV.lig_0>
-48.4015

>  <SCORE.INTRA.VDW>
0.311741

>  <SCORE.INTRA.VDW.0>
-2.83256

>  <SCORE.INTRA.norm>
0.0334509

>  <SCORE.RESTR>
0

>  <SCORE.RESTR.CAVITY>
0

>  <SCORE.RESTR.norm>
0

>  <SCORE.SYSTEM>
0

>  <SCORE.SYSTEM.CONST>
0

>  <SCORE.SYSTEM.DIHEDRAL>
0

>  <SCORE.SYSTEM.SOLV>
0

>  <SCORE.SYSTEM.norm>
0

>  <SCORE.heavy>
27

>  <SCORE.norm>
-0.381558

>  <RMSD>
5.316

$$$$
ligand
 OpenBabel02271912153D
libRbt.so/2013.1/901 2013/11/27
 27 29  0  0  0  0  0  0  0  0999 V2000
   15.8597    4.4004   29.3697 N   0  0  0  0  0  0  0  0  0  0  0  0
   14.7145    3.6330   28.8238 C   0  0  2  0  0  0  0  0  0  0  0  0
   14.7276    3.7907   27.3088 C   0  0  0  0  0  0  0  0  0  0  0  0
   15.2880    3.0082   26.4715 O   0  0  0  0  0  0  0  0  0  0  0  0
   13.4264    4.1415   29.4749 C   0  0  0  0  0  0  0  0  0  0  0  0
   13.0005    3.3024   30.6722 C   0  0  0  0  0  0  0  0  0  0  0  0
   13.7799    3.4385   32.3246 S   0  0  2  0  0  0  0  0  0  0  0  0
   13.0236    2.0113   33.1004 C   0  0  0  0  0  0  0  0  0  0  0  0
   12.8032    4.8397   32.9562 C   0  0  0  0  0  0  0  0  0  0  0  0
   13.6799    5.8806   33.5964 C   0  0  1  0  0  0  0  0  0  0  0  0
   14.7591    6.3066   32.7300 O   0  0  0  0  0  0  0  0  0  0  0  0
   12.9461    7.1284   34.0316 C   0  0  1  0  0  0  0  0  0  0  0  0
   12.6828    7.0226   35.3628 O   0  0  0  0  0  0  0  0  0  0  0  0
   14.0434    8.1546   33.8726 C   0  0  1  0  0  0  0  0  0  0  0  0
   14.7847    8.0761   35.0083 O   0  0  0  0  0  0  0  0  0  0  0  0
   14.9064    7.6999   32.6749 C   0  0  2  0  0  0  0  0  0  0  0  0
   14.1879    4.8068   26.8675 O   0  0  0  0  0  0  0  0  0  0  0  0
   14.8754    9.7011   27.8614 N   0  0  0  0  0  0  0  0  0  0  0  0
   15.9234    9.3231   28.7666 C   0  0  0  0  0  0  0  0  0  0  0  0
   15.7959    8.7731   30.0663 N   0  0  0  0  0  0  0  0  0  0  0  0
   14.5718    8.6185   30.3847 C   0  0  0  0  0  0  0  0  0  0  0  0
   13.4213    8.9707   29.5228 C   0  0  0  0  0  0  0  0  0  0  0  0
   13.5859    9.5028   28.3048 C   0  0  0  0  0  0  0  0  0  0  0  0
   12.4783    9.7876   27.6513 N   0  0  0  0  0  0  0  0  0  0  0  0
   12.2565    8.7299   30.0757 N   0  0  0  0  0  0  0  0  0  0  0  0
   12.6799    8.2181   31.2885 C   0  0  0  0  0  0  0  0  0  0  0  0
   14.1176    8.1370   31.4912 N   0  0  0  0  0  0  0  0  0  0  0  0
  2  1  1  1  0  0  0
  2  3  1  0  0  0  0
  2  5  1  0  0  0  0
  3  4  1  0  0  0  0
  3 17  1  0  0  0  0
  5  6  1  0  0  0  0
  7  6  1  6  0  0  0
  7  8  1  0  0  0  0
  7  9  1  0  0  0  0
 10  9  1  6  0  0  0
 10 11  1  0  0  0  0
 10 12  1  0  0  0  0
 11 16  1  0  0  0  0
 12 13  1  1  0  0  0
 12 14  1  0  0  0  0
 14 15  1  1  0  0  0
 14 16  1  0  0  0  0
 16 27  1  6  0  0  0
 18 19  2  0  0  0  0
 18 23  1  0  0  0  0
 19 20  1  0  0  0  0
 20 21  2  0  0  0  0
 21 22  1  0  0  0  0
 21 27  1  0  0  0  0
 22 23  2  0  0  0  0
 22 25  1  0  0  0  0
 23 24  1  0  0  0  0
 25 26  2  0  0  0  0
 26 27  1  0  0  0  0
M  END
>  <CHROM.1>
92.87158001,-95.74586364,77.85704588,-170.21375649,-133.28717123,52.59464859
-111.40890920,14.00188533,6.34960056,30.85816082,0.06111643,-1.42651478,-3.10931566

>  <Name>
ligand

>  <RI>
0

>  <Rbt.Current_Directory>
/home/itssahil/PROJECTS/Mol_Feturizer/Test_systems_manuscript/rnas/4aob

>  <Rbt.Executable>
rbdock ($Id: //depot/dev/client3/rdock/2013.1/src/exe/rbdock.cxx#4 $)

>  <Rbt.Library>
libRbt.so (2013.1, Build901 2013/11/27)

>  <Rbt.Parameter_File>
/export/apps/rDock/src/rDock_2013.1_src/data/scripts/dock_solv.prm

>  <Rbt.Receptor>
prm/pocket_docking_3.prm

>  <SCORE>
-12.6352

>  <SCORE.INTER>
-16.3308

>  <SCORE.INTER.CONST>
1

>  <SCORE.INTER.POLAR>
0

>  <SCORE.INTER.ROT>
7

>  <SCORE.INTER.SOLV>
10.9959

>  <SCORE.INTER.VDW>
-22.8192

>  <SCORE.INTER.norm>
-0.604843

>  <SCORE.INTRA>
3.69558

>  <SCORE.INTRA.DIHEDRAL>
6.8888

>  <SCORE.INTRA.DIHEDRAL.0>
6.31833

>  <SCORE.INTRA.POLAR>
0

>  <SCORE.INTRA.POLAR.0>
0

>  <SCORE.INTRA.REPUL>
0

>  <SCORE.INTRA.REPUL.0>
0

>  <SCORE.INTRA.SOLV>
0.535982

>  <SCORE.INTRA.SOLV.lig_0>
-48.4015

>  <SCORE.INTRA.VDW>
-0.016808

>  <SCORE.INTRA.VDW.0>
-2.83256

>  <SCORE.INTRA.norm>
0.136873

>  <SCORE.RESTR>
0

>  <SCORE.RESTR.CAVITY>
0

>  <SCORE.RESTR.norm>
0

>  <SCORE.SYSTEM>
0

>  <SCORE.SYSTEM.CONST>
0

>  <SCORE.SYSTEM.DIHEDRAL>
0

>  <SCORE.SYSTEM.SOLV>
0

>  <SCORE.SYSTEM.norm>
0

>  <SCORE.heavy>
27

>  <SCORE.norm>
-0.467969

>  <RMSD>
5.317

$$$$
ligand
 OpenBabel02271912153D
libRbt.so/2013.1/901 2013/11/27
 27 29  0  0  0  0  0  0  0  0999 V2000
   13.4365    5.4791   28.8382 N   0  0  0  0  0  0  0  0  0  0  0  0
   14.4605    4.4588   29.1681 C   0  0  2  0  0  0  0  0  0  0  0  0
   15.3522    4.2816   27.9459 C   0  0  0  0  0  0  0  0  0  0  0  0
   14.9902    3.8501   26.8013 O   0  0  0  0  0  0  0  0  0  0  0  0
   13.7525    3.1707   29.5936 C   0  0  0  0  0  0  0  0  0  0  0  0
   12.9491    3.3364   30.8766 C   0  0  0  0  0  0  0  0  0  0  0  0
   13.7168    3.4615   32.5354 S   0  0  2  0  0  0  0  0  0  0  0  0
   12.9317    2.0470   33.3058 C   0  0  0  0  0  0  0  0  0  0  0  0
   12.7571    4.8784   33.1579 C   0  0  0  0  0  0  0  0  0  0  0  0
   13.6479    5.9207   33.7760 C   0  0  1  0  0  0  0  0  0  0  0  0
   14.7083    6.3437   32.8852 O   0  0  0  0  0  0  0  0  0  0  0  0
   12.9243    7.1701   34.2235 C   0  0  1  0  0  0  0  0  0  0  0  0
   12.6898    7.0681   35.5603 O   0  0  0  0  0  0  0  0  0  0  0  0
   14.0184    8.1952   34.0379 C   0  0  1  0  0  0  0  0  0  0  0  0
   14.7841    8.1196   35.1574 O   0  0  0  0  0  0  0  0  0  0  0  0
   14.8551    7.7367   32.8230 C   0  0  2  0  0  0  0  0  0  0  0  0
   16.5479    4.5308   28.1098 O   0  0  0  0  0  0  0  0  0  0  0  0
   14.7225    9.6915   27.9922 N   0  0  0  0  0  0  0  0  0  0  0  0
   15.7892    9.3110   28.8742 C   0  0  0  0  0  0  0  0  0  0  0  0
   15.6891    8.7749   30.1821 N   0  0  0  0  0  0  0  0  0  0  0  0
   14.4719    8.6368   30.5330 C   0  0  0  0  0  0  0  0  0  0  0  0
   13.3036    8.9930   29.6972 C   0  0  0  0  0  0  0  0  0  0  0  0
   13.4427    9.5115   28.4702 C   0  0  0  0  0  0  0  0  0  0  0  0
   12.3219    9.8020   27.8422 N   0  0  0  0  0  0  0  0  0  0  0  0
   12.1508    8.7702   30.2819 N   0  0  0  0  0  0  0  0  0  0  0  0
   12.5995    8.2657   31.4885 C   0  0  0  0  0  0  0  0  0  0  0  0
   14.0410    8.1709   31.6555 N   0  0  0  0  0  0  0  0  0  0  0  0
  2  1  1  6  0  0  0
  2  3  1  0  0  0  0
  2  5  1  0  0  0  0
  3  4  1  0  0  0  0
  3 17  1  0  0  0  0
  5  6  1  0  0  0  0
  7  6  1  6  0  0  0
  7  8  1  0  0  0  0
  7  9  1  0  0  0  0
 10  9  1  6  0  0  0
 10 11  1  0  0  0  0
 10 12  1  0  0  0  0
 11 16  1  0  0  0  0
 12 13  1  1  0  0  0
 12 14  1  0  0  0  0
 14 15  1  1  0  0  0
 14 16  1  0  0  0  0
 16 27  1  6  0  0  0
 18 19  2  0  0  0  0
 18 23  1  0  0  0  0
 19 20  1  0  0  0  0
 20 21  2  0  0  0  0
 21 22  1  0  0  0  0
 21 27  1  0  0  0  0
 22 23  2  0  0  0  0
 22 25  1  0  0  0  0
 23 24  1  0  0  0  0
 25 26  2  0  0  0  0
 26 27  1  0  0  0  0
M  END
>  <CHROM.1>
-63.30786900,-64.48685836,-74.02966260,-120.89798611,-131.95855341,53.59173630
-110.66688536,13.96435163,6.44111578,31.07558353,-0.46124579,-1.39169441
3.03917445

>  <Name>
ligand

>  <RI>
0

>  <Rbt.Current_Directory>
/home/itssahil/PROJECTS/Mol_Feturizer/Test_systems_manuscript/rnas/4aob

>  <Rbt.Executable>
rbdock ($Id: //depot/dev/client3/rdock/2013.1/src/exe/rbdock.cxx#4 $)

>  <Rbt.Library>
libRbt.so (2013.1, Build901 2013/11/27)

>  <Rbt.Parameter_File>
/export/apps/rDock/src/rDock_2013.1_src/data/scripts/dock_solv.prm

>  <Rbt.Receptor>
prm/pocket_docking_5.prm

>  <SCORE>
-12.5192

>  <SCORE.INTER>
-15.4373

>  <SCORE.INTER.CONST>
1

>  <SCORE.INTER.POLAR>
0

>  <SCORE.INTER.ROT>
7

>  <SCORE.INTER.SOLV>
11.8028

>  <SCORE.INTER.VDW>
-22.4925

>  <SCORE.INTER.norm>
-0.571751

>  <SCORE.INTRA>
2.91806

>  <SCORE.INTRA.DIHEDRAL>
6.34145

>  <SCORE.INTRA.DIHEDRAL.0>
6.31833

>  <SCORE.INTRA.POLAR>
0

>  <SCORE.INTRA.POLAR.0>
0

>  <SCORE.INTRA.REPUL>
0

>  <SCORE.INTRA.REPUL.0>
0

>  <SCORE.INTRA.SOLV>
0.939425

>  <SCORE.INTRA.SOLV.lig_0>
-48.4015

>  <SCORE.INTRA.VDW>
-0.72238

>  <SCORE.INTRA.VDW.0>
-2.83256

>  <SCORE.INTRA.norm>
0.108076

>  <SCORE.RESTR>
0

>  <SCORE.RESTR.CAVITY>
0

>  <SCORE.RESTR.norm>
0

>  <SCORE.SYSTEM>
0

>  <SCORE.SYSTEM.CONST>
0

>  <SCORE.SYSTEM.DIHEDRAL>
0

>  <SCORE.SYSTEM.SOLV>
0

>  <SCORE.SYSTEM.norm>
0

>  <SCORE.heavy>
27

>  <SCORE.norm>
-0.463675

>  <RMSD>
5.325

$$$$
ligand
 OpenBabel02271912153D
libRbt.so/2013.1/901 2013/11/27
 27 29  0  0  0  0  0  0  0  0999 V2000
   13.6076    3.1585   27.7731 N   0  0  0  0  0  0  0  0  0  0  0  0
   14.2308    3.6767   29.0147 C   0  0  2  0  0  0  0  0  0  0  0  0
   14.0714    5.1916   29.0188 C   0  0  0  0  0  0  0  0  0  0  0  0
   14.9634    6.0453   29.3395 O   0  0  0  0  0  0  0  0  0  0  0  0
   15.6908    3.2208   29.0597 C   0  0  0  0  0  0  0  0  0  0  0  0
   16.3549    3.5027   30.4008 C   0  0  0  0  0  0  0  0  0  0  0  0
   15.8012    2.7484   31.9760 S   0  0  2  0  0  0  0  0  0  0  0  0
   15.4436    1.0982   31.3763 C   0  0  0  0  0  0  0  0  0  0  0  0
   14.1617    3.5345   32.0765 C   0  0  0  0  0  0  0  0  0  0  0  0
   14.0910    4.5229   33.2079 C   0  0  1  0  0  0  0  0  0  0  0  0
   14.8750    5.7137   32.9546 O   0  0  0  0  0  0  0  0  0  0  0  0
   12.6907    4.9813   33.5457 C   0  0  1  0  0  0  0  0  0  0  0  0
   12.2505    4.2520   34.6071 O   0  0  0  0  0  0  0  0  0  0  0  0
   12.9790    6.3761   34.0496 C   0  0  1  0  0  0  0  0  0  0  0  0
   13.3486    6.2265   35.3482 O   0  0  0  0  0  0  0  0  0  0  0  0
   14.1850    6.9007   33.2394 C   0  0  2  0  0  0  0  0  0  0  0  0
   12.9499    5.6168   28.7361 O   0  0  0  0  0  0  0  0  0  0  0  0
   14.5952    9.6982   28.8599 N   0  0  0  0  0  0  0  0  0  0  0  0
   15.4843    9.4490   29.9590 C   0  0  0  0  0  0  0  0  0  0  0  0
   15.2506    8.6481   31.1044 N   0  0  0  0  0  0  0  0  0  0  0  0
   14.0940    8.1146   31.0671 C   0  0  0  0  0  0  0  0  0  0  0  0
   13.1084    8.3039   29.9794 C   0  0  0  0  0  0  0  0  0  0  0  0
   13.3642    9.0822   28.9198 C   0  0  0  0  0  0  0  0  0  0  0  0
   12.3934    9.1797   28.0349 N   0  0  0  0  0  0  0  0  0  0  0  0
   11.9820    7.6601   30.1721 N   0  0  0  0  0  0  0  0  0  0  0  0
   12.2660    7.0591   31.3846 C   0  0  0  0  0  0  0  0  0  0  0  0
   13.5788    7.3280   31.9493 N   0  0  0  0  0  0  0  0  0  0  0  0
  2  1  1  6  0  0  0
  2  3  1  0  0  0  0
  2  5  1  0  0  0  0
  3  4  1  0  0  0  0
  3 17  1  0  0  0  0
  5  6  1  0  0  0  0
  7  6  1  6  0  0  0
  7  8  1  0  0  0  0
  7  9  1  0  0  0  0
 10  9  1  6  0  0  0
 10 11  1  0  0  0  0
 10 12  1  0  0  0  0
 11 16  1  0  0  0  0
 12 13  1  1  0  0  0
 12 14  1  0  0  0  0
 14 15  1  1  0  0  0
 14 16  1  0  0  0  0
 16 27  1  6  0  0  0
 18 19  2  0  0  0  0
 18 23  1  0  0  0  0
 19 20  1  0  0  0  0
 20 21  2  0  0  0  0
 21 22  1  0  0  0  0
 21 27  1  0  0  0  0
 22 23  2  0  0  0  0
 22 25  1  0  0  0  0
 23 24  1  0  0  0  0
 25 26  2  0  0  0  0
 26 27  1  0  0  0  0
M  END
>  <CHROM.1>
-136.58820986,-170.43243097,62.75070088,39.69555659,-111.55776479,70.76132674
-91.41261965,14.08518918,5.75157875,31.09075027,-0.93836130,1.24902476,-1.03750670

>  <Name>
ligand

>  <RI>
0

>  <Rbt.Current_Directory>
/home/itssahil/PROJECTS/Mol_Feturizer/Test_systems_manuscript/rnas/4aob

>  <Rbt.Executable>
rbdock ($Id: //depot/dev/client3/rdock/2013.1/src/exe/rbdock.cxx#4 $)

>  <Rbt.Library>
libRbt.so (2013.1, Build901 2013/11/27)

>  <Rbt.Parameter_File>
/export/apps/rDock/src/rDock_2013.1_src/data/scripts/dock_solv.prm

>  <Rbt.Receptor>
prm/pocket_docking_2.prm

>  <SCORE>
-10.6042

>  <SCORE.INTER>
-11.3012

>  <SCORE.INTER.CONST>
1

>  <SCORE.INTER.POLAR>
0

>  <SCORE.INTER.ROT>
7

>  <SCORE.INTER.SOLV>
15.645

>  <SCORE.INTER.VDW>
-21.0158

>  <SCORE.INTER.norm>
-0.418562

>  <SCORE.INTRA>
-0.501692

>  <SCORE.INTRA.DIHEDRAL>
1.46526

>  <SCORE.INTRA.DIHEDRAL.0>
6.31833

>  <SCORE.INTRA.POLAR>
0

>  <SCORE.INTRA.POLAR.0>
0

>  <SCORE.INTRA.REPUL>
0

>  <SCORE.INTRA.REPUL.0>
0

>  <SCORE.INTRA.SOLV>
0.103582

>  <SCORE.INTRA.SOLV.lig_0>
-48.4015

>  <SCORE.INTRA.VDW>
-1.28611

>  <SCORE.INTRA.VDW.0>
-2.83256

>  <SCORE.INTRA.norm>
-0.0185812

>  <SCORE.RESTR>
1.1987

>  <SCORE.RESTR.CAVITY>
1.1987

>  <SCORE.RESTR.norm>
0.0443962

>  <SCORE.SYSTEM>
0

>  <SCORE.SYSTEM.CONST>
0

>  <SCORE.SYSTEM.DIHEDRAL>
0

>  <SCORE.SYSTEM.SOLV>
0

>  <SCORE.SYSTEM.norm>
0

>  <SCORE.heavy>
27

>  <SCORE.norm>
-0.392747

>  <RMSD>
5.328

$$$$
ligand
 OpenBabel02271912153D
libRbt.so/2013.1/901 2013/11/27
 27 29  0  0  0  0  0  0  0  0999 V2000
   19.1977    7.9956   31.5343 N   0  0  0  0  0  0  0  0  0  0  0  0
   18.2945    7.7722   30.3799 C   0  0  2  0  0  0  0  0  0  0  0  0
   19.0408    6.9184   29.3629 C   0  0  0  0  0  0  0  0  0  0  0  0
   20.1305    7.2229   28.7736 O   0  0  0  0  0  0  0  0  0  0  0  0
   17.8579    9.1306   29.8267 C   0  0  0  0  0  0  0  0  0  0  0  0
   16.7509    9.0151   28.7874 C   0  0  0  0  0  0  0  0  0  0  0  0
   15.0325    8.5297   29.1974 S   0  0  2  0  0  0  0  0  0  0  0  0
   15.2851    6.7656   29.3832 C   0  0  0  0  0  0  0  0  0  0  0  0
   14.3148    8.6886   27.5313 C   0  0  0  0  0  0  0  0  0  0  0  0
   12.8496    8.3493   27.5259 C   0  0  1  0  0  0  0  0  0  0  0  0
   12.5809    7.0399   28.0828 O   0  0  0  0  0  0  0  0  0  0  0  0
   11.9814    9.3334   28.2761 C   0  0  1  0  0  0  0  0  0  0  0  0
   11.4368   10.1929   27.3722 O   0  0  0  0  0  0  0  0  0  0  0  0
   10.8762    8.4151   28.7428 C   0  0  1  0  0  0  0  0  0  0  0  0
   10.0203    8.3102   27.6931 O   0  0  0  0  0  0  0  0  0  0  0  0
   11.5242    7.0375   29.0044 C   0  0  2  0  0  0  0  0  0  0  0  0
   18.4986    5.8577   29.0474 O   0  0  0  0  0  0  0  0  0  0  0  0
   13.4938    4.7949   33.2783 N   0  0  0  0  0  0  0  0  0  0  0  0
   12.9732    4.2796   32.0438 C   0  0  0  0  0  0  0  0  0  0  0  0
   12.4680    5.0093   30.9392 N   0  0  0  0  0  0  0  0  0  0  0  0
   12.5312    6.2649   31.1468 C   0  0  0  0  0  0  0  0  0  0  0  0
   13.0544    6.8944   32.3799 C   0  0  0  0  0  0  0  0  0  0  0  0
   13.5097    6.1665   33.4080 C   0  0  0  0  0  0  0  0  0  0  0  0
   13.9281    6.8518   34.4521 N   0  0  0  0  0  0  0  0  0  0  0  0
   13.0054    8.2050   32.3633 N   0  0  0  0  0  0  0  0  0  0  0  0
   12.4541    8.3978   31.1099 C   0  0  0  0  0  0  0  0  0  0  0  0
   12.1604    7.1997   30.3398 N   0  0  0  0  0  0  0  0  0  0  0  0
  2  1  1  1  0  0  0
  2  3  1  0  0  0  0
  2  5  1  0  0  0  0
  3  4  1  0  0  0  0
  3 17  1  0  0  0  0
  5  6  1  0  0  0  0
  7  6  1  6  0  0  0
  7  8  1  0  0  0  0
  7  9  1  0  0  0  0
 10  9  1  1  0  0  0
 10 11  1  0  0  0  0
 10 12  1  0  0  0  0
 11 16  1  0  0  0  0
 12 13  1  6  0  0  0
 12 14  1  0  0  0  0
 14 15  1  6  0  0  0
 14 16  1  0  0  0  0
 16 27  1  1  0  0  0
 18 19  2  0  0  0  0
 18 23  1  0  0  0  0
 19 20  1  0  0  0  0
 20 21  2  0  0  0  0
 21 22  1  0  0  0  0
 21 27  1  0  0  0  0
 22 23  2  0  0  0  0
 22 25  1  0  0  0  0
 23 24  1  0  0  0  0
 25 26  2  0  0  0  0
 26 27  1  0  0  0  0
M  END
>  <CHROM.1>
-60.45167666,-170.52041696,70.21618230,-77.27426689,-179.81737977,-54.52129340
-92.53972364,14.33881824,7.50730605,29.95312882,0.07040003,-0.00778812,2.09677927

>  <Name>
ligand

>  <RI>
0

>  <Rbt.Current_Directory>
/home/itssahil/PROJECTS/Mol_Feturizer/Test_systems_manuscript/rnas/4aob

>  <Rbt.Executable>
rbdock ($Id: //depot/dev/client3/rdock/2013.1/src/exe/rbdock.cxx#4 $)

>  <Rbt.Library>
libRbt.so (2013.1, Build901 2013/11/27)

>  <Rbt.Parameter_File>
/export/apps/rDock/src/rDock_2013.1_src/data/scripts/dock_solv.prm

>  <Rbt.Receptor>
prm/pocket_docking_7.prm

>  <SCORE>
-10.738

>  <SCORE.INTER>
-8.40559

>  <SCORE.INTER.CONST>
1

>  <SCORE.INTER.POLAR>
0

>  <SCORE.INTER.ROT>
7

>  <SCORE.INTER.SOLV>
10.1059

>  <SCORE.INTER.VDW>
-17.239

>  <SCORE.INTER.norm>
-0.311318

>  <SCORE.INTRA>
-2.33236

>  <SCORE.INTRA.DIHEDRAL>
-1.70064

>  <SCORE.INTRA.DIHEDRAL.0>
6.31833

>  <SCORE.INTRA.POLAR>
0

>  <SCORE.INTRA.POLAR.0>
0

>  <SCORE.INTRA.REPUL>
0

>  <SCORE.INTRA.REPUL.0>
0

>  <SCORE.INTRA.SOLV>
-0.34881

>  <SCORE.INTRA.SOLV.lig_0>
-48.4015

>  <SCORE.INTRA.VDW>
-1.30764

>  <SCORE.INTRA.VDW.0>
-2.83256

>  <SCORE.INTRA.norm>
-0.0863838

>  <SCORE.RESTR>
0

>  <SCORE.RESTR.CAVITY>
0

>  <SCORE.RESTR.norm>
0

>  <SCORE.SYSTEM>
0

>  <SCORE.SYSTEM.CONST>
0

>  <SCORE.SYSTEM.DIHEDRAL>
0

>  <SCORE.SYSTEM.SOLV>
0

>  <SCORE.SYSTEM.norm>
0

>  <SCORE.heavy>
27

>  <SCORE.norm>
-0.397702

>  <RMSD>
5.328

$$$$
ligand
 OpenBabel02271912153D
libRbt.so/2013.1/901 2013/11/27
 27 29  0  0  0  0  0  0  0  0999 V2000
   14.3975    8.4491   32.6915 N   0  0  0  0  0  0  0  0  0  0  0  0
   13.5138    7.3258   32.2972 C   0  0  2  0  0  0  0  0  0  0  0  0
   13.1106    6.5832   33.5646 C   0  0  0  0  0  0  0  0  0  0  0  0
   13.7918    6.4963   34.6398 O   0  0  0  0  0  0  0  0  0  0  0  0
   14.2565    6.4458   31.2895 C   0  0  0  0  0  0  0  0  0  0  0  0
   15.6056    5.9660   31.8083 C   0  0  0  0  0  0  0  0  0  0  0  0
   16.5299    4.5690   31.0664 S   0  0  2  0  0  0  0  0  0  0  0  0
   17.9919    4.6305   32.1005 C   0  0  0  0  0  0  0  0  0  0  0  0
   17.0546    5.3935   29.5298 C   0  0  0  0  0  0  0  0  0  0  0  0
   16.1864    4.9993   28.3667 C   0  0  1  0  0  0  0  0  0  0  0  0
   15.8065    3.6025   28.4059 O   0  0  0  0  0  0  0  0  0  0  0  0
   14.9097    5.7995   28.2452 C   0  0  1  0  0  0  0  0  0  0  0  0
   15.1106    6.7804   27.3234 O   0  0  0  0  0  0  0  0  0  0  0  0
   14.0056    4.7681   27.6118 C   0  0  1  0  0  0  0  0  0  0  0  0
   14.2758    4.8129   26.2812 O   0  0  0  0  0  0  0  0  0  0  0  0
   14.4403    3.3944   28.1685 C   0  0  2  0  0  0  0  0  0  0  0  0
   12.0459    5.9652   33.5122 O   0  0  0  0  0  0  0  0  0  0  0  0
   13.9627    0.9764   32.7620 N   0  0  0  0  0  0  0  0  0  0  0  0
   14.7937    0.7565   31.6123 C   0  0  0  0  0  0  0  0  0  0  0  0
   14.8328    1.5046   30.4096 N   0  0  0  0  0  0  0  0  0  0  0  0
   14.0087    2.4760   30.4425 C   0  0  0  0  0  0  0  0  0  0  0  0
   13.1143    2.7901   31.5791 C   0  0  0  0  0  0  0  0  0  0  0  0
   13.0985    2.0474   32.6936 C   0  0  0  0  0  0  0  0  0  0  0  0
   12.2412    2.4250   33.6196 N   0  0  0  0  0  0  0  0  0  0  0  0
   12.3470    3.8335   31.3722 N   0  0  0  0  0  0  0  0  0  0  0  0
   12.7675    4.1788   30.1010 C   0  0  0  0  0  0  0  0  0  0  0  0
   13.8055    3.3468   29.5135 N   0  0  0  0  0  0  0  0  0  0  0  0
  2  1  1  1  0  0  0
  2  3  1  0  0  0  0
  2  5  1  0  0  0  0
  3  4  1  0  0  0  0
  3 17  1  0  0  0  0
  5  6  1  0  0  0  0
  7  6  1  1  0  0  0
  7  8  1  0  0  0  0
  7  9  1  0  0  0  0
 10  9  1  1  0  0  0
 10 11  1  0  0  0  0
 10 12  1  0  0  0  0
 11 16  1  0  0  0  0
 12 13  1  6  0  0  0
 12 14  1  0  0  0  0
 14 15  1  6  0  0  0
 14 16  1  0  0  0  0
 16 27  1  1  0  0  0
 18 19  2  0  0  0  0
 18 23  1  0  0  0  0
 19 20  1  0  0  0  0
 20 21  2  0  0  0  0
 21 22  1  0  0  0  0
 21 27  1  0  0  0  0
 22 23  2  0  0  0  0
 22 25  1  0  0  0  0
 23 24  1  0  0  0  0
 25 26  2  0  0  0  0
 26 27  1  0  0  0  0
M  END
>  <CHROM.1>
-28.72943760,54.72448747,163.17601588,177.49366399,-100.62174409,-38.08838060
-63.90961124,14.50014908,4.51979498,30.77193077,-2.71896067,-1.18461303,-2.70051107

>  <Name>
ligand

>  <RI>
0

>  <Rbt.Current_Directory>
/home/itssahil/PROJECTS/Mol_Feturizer/Test_systems_manuscript/rnas/4aob

>  <Rbt.Executable>
rbdock ($Id: //depot/dev/client3/rdock/2013.1/src/exe/rbdock.cxx#4 $)

>  <Rbt.Library>
libRbt.so (2013.1, Build901 2013/11/27)

>  <Rbt.Parameter_File>
/export/apps/rDock/src/rDock_2013.1_src/data/scripts/dock_solv.prm

>  <Rbt.Receptor>
prm/pocket_docking_3.prm

>  <SCORE>
-8.54502

>  <SCORE.INTER>
-7.24553

>  <SCORE.INTER.CONST>
1

>  <SCORE.INTER.POLAR>
0

>  <SCORE.INTER.ROT>
7

>  <SCORE.INTER.SOLV>
19.8087

>  <SCORE.INTER.VDW>
-19.6999

>  <SCORE.INTER.norm>
-0.268353

>  <SCORE.INTRA>
-1.29948

>  <SCORE.INTRA.DIHEDRAL>
1.6522

>  <SCORE.INTRA.DIHEDRAL.0>
6.31833

>  <SCORE.INTRA.POLAR>
0

>  <SCORE.INTRA.POLAR.0>
0

>  <SCORE.INTRA.REPUL>
0

>  <SCORE.INTRA.REPUL.0>
0

>  <SCORE.INTRA.SOLV>
0.763457

>  <SCORE.INTRA.SOLV.lig_0>
-48.4015

>  <SCORE.INTRA.VDW>
-2.50731

>  <SCORE.INTRA.VDW.0>
-2.83256

>  <SCORE.INTRA.norm>
-0.048129

>  <SCORE.RESTR>
0

>  <SCORE.RESTR.CAVITY>
0

>  <SCORE.RESTR.norm>
0

>  <SCORE.SYSTEM>
0

>  <SCORE.SYSTEM.CONST>
0

>  <SCORE.SYSTEM.DIHEDRAL>
0

>  <SCORE.SYSTEM.SOLV>
0

>  <SCORE.SYSTEM.norm>
0

>  <SCORE.heavy>
27

>  <SCORE.norm>
-0.316482

>  <RMSD>
5.358

$$$$
ligand
 OpenBabel02271912153D
libRbt.so/2013.1/901 2013/11/27
 27 29  0  0  0  0  0  0  0  0999 V2000
   14.8819    6.8648   30.2339 N   0  0  0  0  0  0  0  0  0  0  0  0
   14.2558    8.1032   30.7562 C   0  0  2  0  0  0  0  0  0  0  0  0
   14.8454    9.2815   29.9919 C   0  0  0  0  0  0  0  0  0  0  0  0
   14.1978   10.1323   29.2961 O   0  0  0  0  0  0  0  0  0  0  0  0
   14.4974    8.1779   32.2654 C   0  0  0  0  0  0  0  0  0  0  0  0
   13.6788    7.1569   33.0443 C   0  0  0  0  0  0  0  0  0  0  0  0
   13.5724    5.3877   32.5805 S   0  0  2  0  0  0  0  0  0  0  0  0
   12.5497    4.8126   33.9348 C   0  0  0  0  0  0  0  0  0  0  0  0
   15.2545    4.8907   33.0701 C   0  0  0  0  0  0  0  0  0  0  0  0
   15.6592    3.5958   32.4210 C   0  0  1  0  0  0  0  0  0  0  0  0
   14.5219    2.8231   31.9669 O   0  0  0  0  0  0  0  0  0  0  0  0
   16.5832    3.7574   31.2355 C   0  0  1  0  0  0  0  0  0  0  0  0
   17.8589    3.5482   31.6610 O   0  0  0  0  0  0  0  0  0  0  0  0
   16.1815    2.5536   30.4159 C   0  0  1  0  0  0  0  0  0  0  0  0
   16.8744    1.5082   30.9379 O   0  0  0  0  0  0  0  0  0  0  0  0
   14.6728    2.3317   30.6623 C   0  0  2  0  0  0  0  0  0  0  0  0
   16.0738    9.3770   30.0115 O   0  0  0  0  0  0  0  0  0  0  0  0
   14.5787    4.7981   26.0707 N   0  0  0  0  0  0  0  0  0  0  0  0
   15.3866    3.7392   26.6061 C   0  0  0  0  0  0  0  0  0  0  0  0
   15.3031    3.1429   27.8888 N   0  0  0  0  0  0  0  0  0  0  0  0
   14.3652    3.6605   28.5789 C   0  0  0  0  0  0  0  0  0  0  0  0
   13.4755    4.7495   28.1174 C   0  0  0  0  0  0  0  0  0  0  0  0
   13.5980    5.2960   26.9007 C   0  0  0  0  0  0  0  0  0  0  0  0
   12.7554    6.2699   26.6244 N   0  0  0  0  0  0  0  0  0  0  0  0
   12.5929    5.1230   29.0127 N   0  0  0  0  0  0  0  0  0  0  0  0
   12.9275    4.2588   30.0389 C   0  0  0  0  0  0  0  0  0  0  0  0
   14.0238    3.3391   29.7801 N   0  0  0  0  0  0  0  0  0  0  0  0
  2  1  1  6  0  0  0
  2  3  1  0  0  0  0
  2  5  1  0  0  0  0
  3  4  1  0  0  0  0
  3 17  1  0  0  0  0
  5  6  1  0  0  0  0
  7  6  1  1  0  0  0
  7  8  1  0  0  0  0
  7  9  1  0  0  0  0
 10  9  1  6  0  0  0
 10 11  1  0  0  0  0
 10 12  1  0  0  0  0
 11 16  1  0  0  0  0
 12 13  1  1  0  0  0
 12 14  1  0  0  0  0
 14 15  1  1  0  0  0
 14 16  1  0  0  0  0
 16 27  1  6  0  0  0
 18 19  2  0  0  0  0
 18 23  1  0  0  0  0
 19 20  1  0  0  0  0
 20 21  2  0  0  0  0
 21 22  1  0  0  0  0
 21 27  1  0  0  0  0
 22 23  2  0  0  0  0
 22 25  1  0  0  0  0
 23 24  1  0  0  0  0
 25 26  2  0  0  0  0
 26 27  1  0  0  0  0
M  END
>  <CHROM.1>
121.27007059,-71.49099675,47.72369395,177.40606627,-161.47723556,-20.39728036
147.38618157,14.61937792,5.16866410,30.33319899,-2.88558269,1.33971454,-1.95268711

>  <Name>
ligand

>  <RI>
0

>  <Rbt.Current_Directory>
/home/itssahil/PROJECTS/Mol_Feturizer/Test_systems_manuscript/rnas/4aob

>  <Rbt.Executable>
rbdock ($Id: //depot/dev/client3/rdock/2013.1/src/exe/rbdock.cxx#4 $)

>  <Rbt.Library>
libRbt.so (2013.1, Build901 2013/11/27)

>  <Rbt.Parameter_File>
/export/apps/rDock/src/rDock_2013.1_src/data/scripts/dock_solv.prm

>  <Rbt.Receptor>
prm/pocket_docking_3.prm

>  <SCORE>
-8.33578

>  <SCORE.INTER>
-12.4865

>  <SCORE.INTER.CONST>
1

>  <SCORE.INTER.POLAR>
0

>  <SCORE.INTER.ROT>
7

>  <SCORE.INTER.SOLV>
8.98886

>  <SCORE.INTER.VDW>
-19.5873

>  <SCORE.INTER.norm>
-0.462463

>  <SCORE.INTRA>
4.15071

>  <SCORE.INTRA.DIHEDRAL>
3.82942

>  <SCORE.INTRA.DIHEDRAL.0>
6.31833

>  <SCORE.INTRA.POLAR>
0

>  <SCORE.INTRA.POLAR.0>
0

>  <SCORE.INTRA.REPUL>
0

>  <SCORE.INTRA.REPUL.0>
0

>  <SCORE.INTRA.SOLV>
4.80945

>  <SCORE.INTRA.SOLV.lig_0>
-48.4015

>  <SCORE.INTRA.VDW>
-0.168726

>  <SCORE.INTRA.VDW.0>
-2.83256

>  <SCORE.INTRA.norm>
0.15373

>  <SCORE.RESTR>
0

>  <SCORE.RESTR.CAVITY>
0

>  <SCORE.RESTR.norm>
0

>  <SCORE.SYSTEM>
0

>  <SCORE.SYSTEM.CONST>
0

>  <SCORE.SYSTEM.DIHEDRAL>
0

>  <SCORE.SYSTEM.SOLV>
0

>  <SCORE.SYSTEM.norm>
0

>  <SCORE.heavy>
27

>  <SCORE.norm>
-0.308733

>  <RMSD>
5.359

$$$$
ligand
 OpenBabel02271912153D
libRbt.so/2013.1/901 2013/11/27
 27 29  0  0  0  0  0  0  0  0999 V2000
   14.9988    3.6043   28.5237 N   0  0  0  0  0  0  0  0  0  0  0  0
   13.6024    3.9915   28.8374 C   0  0  2  0  0  0  0  0  0  0  0  0
   13.5132    5.5105   28.7677 C   0  0  0  0  0  0  0  0  0  0  0  0
   14.4931    6.3273   28.7784 O   0  0  0  0  0  0  0  0  0  0  0  0
   13.2311    3.4250   30.2096 C   0  0  0  0  0  0  0  0  0  0  0  0
   14.2275    3.8101   31.2950 C   0  0  0  0  0  0  0  0  0  0  0  0
   14.0012    3.3894   33.0638 S   0  0  2  0  0  0  0  0  0  0  0  0
   12.8323    2.0444   32.8760 C   0  0  0  0  0  0  0  0  0  0  0  0
   12.9565    4.8049   33.5343 C   0  0  0  0  0  0  0  0  0  0  0  0
   13.7796    5.9489   34.0594 C   0  0  1  0  0  0  0  0  0  0  0  0
   14.7867    6.3873   33.1157 O   0  0  0  0  0  0  0  0  0  0  0  0
   12.9740    7.1694   34.4422 C   0  0  1  0  0  0  0  0  0  0  0  0
   12.7757    7.1410   35.7884 O   0  0  0  0  0  0  0  0  0  0  0  0
   13.9843    8.2570   34.1614 C   0  0  1  0  0  0  0  0  0  0  0  0
   14.7766    8.3133   35.2634 O   0  0  0  0  0  0  0  0  0  0  0  0
   14.8275    7.7801   32.9582 C   0  0  2  0  0  0  0  0  0  0  0  0
   12.3757    5.9842   28.7561 O   0  0  0  0  0  0  0  0  0  0  0  0
   14.4182    9.5935   28.0880 N   0  0  0  0  0  0  0  0  0  0  0  0
   15.5289    9.3814   28.9723 C   0  0  0  0  0  0  0  0  0  0  0  0
   15.5059    8.8651   30.2917 N   0  0  0  0  0  0  0  0  0  0  0  0
   14.3198    8.5696   30.6517 C   0  0  0  0  0  0  0  0  0  0  0  0
   13.1119    8.7448   29.8146 C   0  0  0  0  0  0  0  0  0  0  0  0
   13.1762    9.2508   28.5762 C   0  0  0  0  0  0  0  0  0  0  0  0
   12.0248    9.3718   27.9480 N   0  0  0  0  0  0  0  0  0  0  0  0
   12.0017    8.3793   30.4098 N   0  0  0  0  0  0  0  0  0  0  0  0
   12.5178    7.9670   31.6245 C   0  0  0  0  0  0  0  0  0  0  0  0
   13.9591    8.0736   31.7860 N   0  0  0  0  0  0  0  0  0  0  0  0
  2  1  1  1  0  0  0
  2  3  1  0  0  0  0
  2  5  1  0  0  0  0
  3  4  1  0  0  0  0
  3 17  1  0  0  0  0
  5  6  1  0  0  0  0
  7  6  1  6  0  0  0
  7  8  1  0  0  0  0
  7  9  1  0  0  0  0
 10  9  1  6  0  0  0
 10 11  1  0  0  0  0
 10 12  1  0  0  0  0
 11 16  1  0  0  0  0
 12 13  1  1  0  0  0
 12 14  1  0  0  0  0
 14 15  1  1  0  0  0
 14 16  1  0  0  0  0
 16 27  1  6  0  0  0
 18 19  2  0  0  0  0
 18 23  1  0  0  0  0
 19 20  1  0  0  0  0
 20 21  2  0  0  0  0
 21 22  1  0  0  0  0
 21 27  1  0  0  0  0
 22 23  2  0  0  0  0
 22 25  1  0  0  0  0
 23 24  1  0  0  0  0
 25 26  2  0  0  0  0
 26 27  1  0  0  0  0
M  END
>  <CHROM.1>
-16.24725350,53.14793868,175.47597643,20.30543571,-92.65679234,56.59618211
-115.24775966,13.74241350,6.53383152,31.35028434,1.30114980,-1.53205076,-1.23106840

>  <Name>
ligand

>  <RI>
0

>  <Rbt.Current_Directory>
/home/itssahil/PROJECTS/Mol_Feturizer/Test_systems_manuscript/rnas/4aob

>  <Rbt.Executable>
rbdock ($Id: //depot/dev/client3/rdock/2013.1/src/exe/rbdock.cxx#4 $)

>  <Rbt.Library>
libRbt.so (2013.1, Build901 2013/11/27)

>  <Rbt.Parameter_File>
/export/apps/rDock/src/rDock_2013.1_src/data/scripts/dock_solv.prm

>  <Rbt.Receptor>
prm/pocket_docking_3.prm

>  <SCORE>
-15.0389

>  <SCORE.INTER>
-14.9497

>  <SCORE.INTER.CONST>
1

>  <SCORE.INTER.POLAR>
0

>  <SCORE.INTER.ROT>
7

>  <SCORE.INTER.SOLV>
11.5845

>  <SCORE.INTER.VDW>
-22.0947

>  <SCORE.INTER.norm>
-0.553693

>  <SCORE.INTRA>
-0.0892061

>  <SCORE.INTRA.DIHEDRAL>
0.931669

>  <SCORE.INTRA.DIHEDRAL.0>
6.31833

>  <SCORE.INTRA.POLAR>
0

>  <SCORE.INTRA.POLAR.0>
0

>  <SCORE.INTRA.REPUL>
0

>  <SCORE.INTRA.REPUL.0>
0

>  <SCORE.INTRA.SOLV>
0.454489

>  <SCORE.INTRA.SOLV.lig_0>
-48.4015

>  <SCORE.INTRA.VDW>
-0.782286

>  <SCORE.INTRA.VDW.0>
-2.83256

>  <SCORE.INTRA.norm>
-0.00330393

>  <SCORE.RESTR>
0

>  <SCORE.RESTR.CAVITY>
0

>  <SCORE.RESTR.norm>
0

>  <SCORE.SYSTEM>
0

>  <SCORE.SYSTEM.CONST>
0

>  <SCORE.SYSTEM.DIHEDRAL>
0

>  <SCORE.SYSTEM.SOLV>
0

>  <SCORE.SYSTEM.norm>
0

>  <SCORE.heavy>
27

>  <SCORE.norm>
-0.556997

>  <RMSD>
5.373

$$$$
ligand
 OpenBabel02271912153D
libRbt.so/2013.1/901 2013/11/27
 27 29  0  0  0  0  0  0  0  0999 V2000
   14.2637    3.9657   28.2561 N   0  0  0  0  0  0  0  0  0  0  0  0
   15.2833    4.6960   29.0468 C   0  0  2  0  0  0  0  0  0  0  0  0
   15.5242    6.0390   28.3695 C   0  0  0  0  0  0  0  0  0  0  0  0
   16.1010    7.0536   28.8847 O   0  0  0  0  0  0  0  0  0  0  0  0
   16.5424    3.8318   29.1440 C   0  0  0  0  0  0  0  0  0  0  0  0
   16.2800    2.4794   29.7930 C   0  0  0  0  0  0  0  0  0  0  0  0
   15.8745    2.2771   31.5682 S   0  0  2  0  0  0  0  0  0  0  0  0
   15.5659    0.5121   31.5772 C   0  0  0  0  0  0  0  0  0  0  0  0
   14.2058    3.0056   31.5366 C   0  0  0  0  0  0  0  0  0  0  0  0
   13.9568    3.8692   32.7425 C   0  0  1  0  0  0  0  0  0  0  0  0
   14.6748    5.1254   32.6835 O   0  0  0  0  0  0  0  0  0  0  0  0
   12.5015    4.2045   32.9765 C   0  0  1  0  0  0  0  0  0  0  0  0
   12.0145    3.3467   33.9142 O   0  0  0  0  0  0  0  0  0  0  0  0
   12.6402    5.5568   33.6358 C   0  0  1  0  0  0  0  0  0  0  0  0
   12.8932    5.3006   34.9457 O   0  0  0  0  0  0  0  0  0  0  0  0
   13.8780    6.2331   33.0061 C   0  0  2  0  0  0  0  0  0  0  0  0
   15.0627    6.1607   27.2334 O   0  0  0  0  0  0  0  0  0  0  0  0
   14.3848    9.6247   29.0800 N   0  0  0  0  0  0  0  0  0  0  0  0
   15.1679    9.3450   30.2501 C   0  0  0  0  0  0  0  0  0  0  0  0
   14.9210    8.3739   31.2520 N   0  0  0  0  0  0  0  0  0  0  0  0
   13.8648    7.7072   30.9993 C   0  0  0  0  0  0  0  0  0  0  0  0
   12.9942    7.9142   29.8204 C   0  0  0  0  0  0  0  0  0  0  0  0
   13.2561    8.8545   28.9033 C   0  0  0  0  0  0  0  0  0  0  0  0
   12.3899    8.9458   27.9152 N   0  0  0  0  0  0  0  0  0  0  0  0
   11.9570    7.1121   29.7850 N   0  0  0  0  0  0  0  0  0  0  0  0
   12.1826    6.3943   30.9451 C   0  0  0  0  0  0  0  0  0  0  0  0
   13.3695    6.7496   31.7065 N   0  0  0  0  0  0  0  0  0  0  0  0
  2  1  1  6  0  0  0
  2  3  1  0  0  0  0
  2  5  1  0  0  0  0
  3  4  1  0  0  0  0
  3 17  1  0  0  0  0
  5  6  1  0  0  0  0
  7  6  1  6  0  0  0
  7  8  1  0  0  0  0
  7  9  1  0  0  0  0
 10  9  1  6  0  0  0
 10 11  1  0  0  0  0
 10 12  1  0  0  0  0
 11 16  1  0  0  0  0
 12 13  1  1  0  0  0
 12 14  1  0  0  0  0
 14 15  1  1  0  0  0
 14 16  1  0  0  0  0
 16 27  1  6  0  0  0
 18 19  2  0  0  0  0
 18 23  1  0  0  0  0
 19 20  1  0  0  0  0
 20 21  2  0  0  0  0
 21 22  1  0  0  0  0
 21 27  1  0  0  0  0
 22 23  2  0  0  0  0
 22 25  1  0  0  0  0
 23 24  1  0  0  0  0
 25 26  2  0  0  0  0
 26 27  1  0  0  0  0
M  END
>  <CHROM.1>
163.93919291,-58.74872753,-69.43868698,175.30343196,-139.30182635,73.25205282
-96.00578217,14.23901108,5.49619347,30.80714418,-1.39432569,0.96281429,-0.65779600

>  <Name>
ligand

>  <RI>
0

>  <Rbt.Current_Directory>
/home/itssahil/PROJECTS/Mol_Feturizer/Test_systems_manuscript/rnas/4aob

>  <Rbt.Executable>
rbdock ($Id: //depot/dev/client3/rdock/2013.1/src/exe/rbdock.cxx#4 $)

>  <Rbt.Library>
libRbt.so (2013.1, Build901 2013/11/27)

>  <Rbt.Parameter_File>
/export/apps/rDock/src/rDock_2013.1_src/data/scripts/dock_solv.prm

>  <Rbt.Receptor>
prm/pocket_docking_3.prm

>  <SCORE>
-12.2

>  <SCORE.INTER>
-11.9774

>  <SCORE.INTER.CONST>
1

>  <SCORE.INTER.POLAR>
0

>  <SCORE.INTER.ROT>
7

>  <SCORE.INTER.SOLV>
10.3998

>  <SCORE.INTER.VDW>
-19.7182

>  <SCORE.INTER.norm>
-0.443607

>  <SCORE.INTRA>
-0.22358

>  <SCORE.INTRA.DIHEDRAL>
1.89358

>  <SCORE.INTRA.DIHEDRAL.0>
6.31833

>  <SCORE.INTRA.POLAR>
0

>  <SCORE.INTRA.POLAR.0>
0

>  <SCORE.INTRA.REPUL>
0

>  <SCORE.INTRA.REPUL.0>
0

>  <SCORE.INTRA.SOLV>
1.61068

>  <SCORE.INTRA.SOLV.lig_0>
-48.4015

>  <SCORE.INTRA.VDW>
-1.97571

>  <SCORE.INTRA.VDW.0>
-2.83256

>  <SCORE.INTRA.norm>
-0.00828072

>  <SCORE.RESTR>
0.000996495

>  <SCORE.RESTR.CAVITY>
0.000996495

>  <SCORE.RESTR.norm>
3.69072e-05

>  <SCORE.SYSTEM>
0

>  <SCORE.SYSTEM.CONST>
0

>  <SCORE.SYSTEM.DIHEDRAL>
0

>  <SCORE.SYSTEM.SOLV>
0

>  <SCORE.SYSTEM.norm>
0

>  <SCORE.heavy>
27

>  <SCORE.norm>
-0.451851

>  <RMSD>
5.379

$$$$
ligand
 OpenBabel02271912153D
libRbt.so/2013.1/901 2013/11/27
 27 29  0  0  0  0  0  0  0  0999 V2000
   16.1158    4.6320   29.4043 N   0  0  0  0  0  0  0  0  0  0  0  0
   15.1599    3.5175   29.1978 C   0  0  2  0  0  0  0  0  0  0  0  0
   13.8971    4.0966   28.5731 C   0  0  0  0  0  0  0  0  0  0  0  0
   13.5793    5.3307   28.5144 O   0  0  0  0  0  0  0  0  0  0  0  0
   14.9103    2.8282   30.5410 C   0  0  0  0  0  0  0  0  0  0  0  0
   14.2842    3.7572   31.5725 C   0  0  0  0  0  0  0  0  0  0  0  0
   13.6813    3.1868   33.2058 S   0  0  2  0  0  0  0  0  0  0  0  0
   12.3512    2.1234   32.6486 C   0  0  0  0  0  0  0  0  0  0  0  0
   12.8279    4.7133   33.7136 C   0  0  0  0  0  0  0  0  0  0  0  0
   13.8042    5.7888   34.1036 C   0  0  1  0  0  0  0  0  0  0  0  0
   14.7545    6.0840   33.0516 O   0  0  0  0  0  0  0  0  0  0  0  0
   13.1609    7.0991   34.4961 C   0  0  1  0  0  0  0  0  0  0  0  0
   13.0899    7.1462   35.8545 O   0  0  0  0  0  0  0  0  0  0  0  0
   14.2404    8.0665   34.0705 C   0  0  1  0  0  0  0  0  0  0  0  0
   15.1359    8.0876   35.0918 O   0  0  0  0  0  0  0  0  0  0  0  0
   14.9149    7.4578   32.8212 C   0  0  2  0  0  0  0  0  0  0  0  0
   13.0873    3.2774   28.1352 O   0  0  0  0  0  0  0  0  0  0  0  0
   14.0747    9.8816   28.2832 N   0  0  0  0  0  0  0  0  0  0  0  0
   15.2359    9.7069   29.1089 C   0  0  0  0  0  0  0  0  0  0  0  0
   15.3346    9.0063   30.3366 N   0  0  0  0  0  0  0  0  0  0  0  0
   14.2163    8.4922   30.6665 C   0  0  0  0  0  0  0  0  0  0  0  0
   12.9659    8.6098   29.8835 C   0  0  0  0  0  0  0  0  0  0  0  0
   12.9124    9.2946   28.7337 C   0  0  0  0  0  0  0  0  0  0  0  0
   11.7332    9.3369   28.1483 N   0  0  0  0  0  0  0  0  0  0  0  0
   11.9412    8.0040   30.4343 N   0  0  0  0  0  0  0  0  0  0  0  0
   12.5547    7.4988   31.5658 C   0  0  0  0  0  0  0  0  0  0  0  0
   13.9713    7.7893   31.7194 N   0  0  0  0  0  0  0  0  0  0  0  0
  2  1  1  1  0  0  0
  2  3  1  0  0  0  0
  2  5  1  0  0  0  0
  3  4  1  0  0  0  0
  3 17  1  0  0  0  0
  5  6  1  0  0  0  0
  7  6  1  6  0  0  0
  7  8  1  0  0  0  0
  7  9  1  0  0  0  0
 10  9  1  6  0  0  0
 10 11  1  0  0  0  0
 10 12  1  0  0  0  0
 11 16  1  0  0  0  0
 12 13  1  1  0  0  0
 12 14  1  0  0  0  0
 14 15  1  1  0  0  0
 14 16  1  0  0  0  0
 16 27  1  6  0  0  0
 18 19  2  0  0  0  0
 18 23  1  0  0  0  0
 19 20  1  0  0  0  0
 20 21  2  0  0  0  0
 21 22  1  0  0  0  0
 21 27  1  0  0  0  0
 22 23  2  0  0  0  0
 22 25  1  0  0  0  0
 23 24  1  0  0  0  0
 25 26  2  0  0  0  0
 26 27  1  0  0  0  0
M  END
>  <CHROM.1>
-14.67067080,61.83858353,172.48903774,-64.86666876,-73.77910104,56.01621857
-133.52210520,13.84137334,6.25403397,31.39569839,-0.45945484,1.55465639,-1.80271647

>  <Name>
ligand

>  <RI>
0

>  <Rbt.Current_Directory>
/home/itssahil/PROJECTS/Mol_Feturizer/Test_systems_manuscript/rnas/4aob

>  <Rbt.Executable>
rbdock ($Id: //depot/dev/client3/rdock/2013.1/src/exe/rbdock.cxx#4 $)

>  <Rbt.Library>
libRbt.so (2013.1, Build901 2013/11/27)

>  <Rbt.Parameter_File>
/export/apps/rDock/src/rDock_2013.1_src/data/scripts/dock_solv.prm

>  <Rbt.Receptor>
prm/pocket_docking_3.prm

>  <SCORE>
-17.3995

>  <SCORE.INTER>
-15.9525

>  <SCORE.INTER.CONST>
1

>  <SCORE.INTER.POLAR>
0

>  <SCORE.INTER.ROT>
7

>  <SCORE.INTER.SOLV>
10.1061

>  <SCORE.INTER.VDW>
-22.2704

>  <SCORE.INTER.norm>
-0.590832

>  <SCORE.INTRA>
-1.44701

>  <SCORE.INTRA.DIHEDRAL>
-2.98333

>  <SCORE.INTRA.DIHEDRAL.0>
6.31833

>  <SCORE.INTRA.POLAR>
0

>  <SCORE.INTRA.POLAR.0>
0

>  <SCORE.INTRA.REPUL>
0

>  <SCORE.INTRA.REPUL.0>
0

>  <SCORE.INTRA.SOLV>
0.111788

>  <SCORE.INTRA.SOLV.lig_0>
-48.4015

>  <SCORE.INTRA.VDW>
-0.011242

>  <SCORE.INTRA.VDW.0>
-2.83256

>  <SCORE.INTRA.norm>
-0.0535931

>  <SCORE.RESTR>
0

>  <SCORE.RESTR.CAVITY>
0

>  <SCORE.RESTR.norm>
0

>  <SCORE.SYSTEM>
0

>  <SCORE.SYSTEM.CONST>
0

>  <SCORE.SYSTEM.DIHEDRAL>
0

>  <SCORE.SYSTEM.SOLV>
0

>  <SCORE.SYSTEM.norm>
0

>  <SCORE.heavy>
27

>  <SCORE.norm>
-0.644425

>  <RMSD>
5.384

$$$$
ligand
 OpenBabel02271912153D
libRbt.so/2013.1/901 2013/11/27
 27 29  0  0  0  0  0  0  0  0999 V2000
   11.4571    7.7584   24.8773 N   0  0  0  0  0  0  0  0  0  0  0  0
   10.2401    7.2134   25.5255 C   0  0  2  0  0  0  0  0  0  0  0  0
    9.0318    7.8925   24.8937 C   0  0  0  0  0  0  0  0  0  0  0  0
    8.9318    9.1269   24.5876 O   0  0  0  0  0  0  0  0  0  0  0  0
   10.3427    7.4412   27.0352 C   0  0  0  0  0  0  0  0  0  0  0  0
   10.2561    8.9132   27.4160 C   0  0  0  0  0  0  0  0  0  0  0  0
   11.6897   10.0527   27.3610 S   0  0  2  0  0  0  0  0  0  0  0  0
   11.5636   10.5659   25.6489 C   0  0  0  0  0  0  0  0  0  0  0  0
   13.0131    8.8020   27.3391 C   0  0  0  0  0  0  0  0  0  0  0  0
   14.2190    9.2596   28.1127 C   0  0  1  0  0  0  0  0  0  0  0  0
   13.9194    9.5190   29.5055 O   0  0  0  0  0  0  0  0  0  0  0  0
   15.3791    8.2909   28.0849 C   0  0  1  0  0  0  0  0  0  0  0  0
   16.2564    8.7077   27.1315 O   0  0  0  0  0  0  0  0  0  0  0  0
   16.0055    8.5834   29.4282 C   0  0  1  0  0  0  0  0  0  0  0  0
   16.7873    9.6777   29.2365 O   0  0  0  0  0  0  0  0  0  0  0  0
   14.8507    8.9505   30.3862 C   0  0  2  0  0  0  0  0  0  0  0  0
    8.0426    7.1790   24.7179 O   0  0  0  0  0  0  0  0  0  0  0  0
   12.6228    5.9734   34.0397 N   0  0  0  0  0  0  0  0  0  0  0  0
   13.0194    7.3523   33.9967 C   0  0  0  0  0  0  0  0  0  0  0  0
   13.6172    8.0538   32.9204 N   0  0  0  0  0  0  0  0  0  0  0  0
   13.7748    7.2979   31.9068 C   0  0  0  0  0  0  0  0  0  0  0  0
   13.3952    5.8685   31.8487 C   0  0  0  0  0  0  0  0  0  0  0  0
   12.8452    5.2391   32.8952 C   0  0  0  0  0  0  0  0  0  0  0  0
   12.5741    3.9626   32.7161 N   0  0  0  0  0  0  0  0  0  0  0  0
   13.6677    5.2980   30.6996 N   0  0  0  0  0  0  0  0  0  0  0  0
   14.2154    6.3778   30.0317 C   0  0  0  0  0  0  0  0  0  0  0  0
   14.2820    7.6297   30.7687 N   0  0  0  0  0  0  0  0  0  0  0  0
  2  1  1  6  0  0  0
  2  3  1  0  0  0  0
  2  5  1  0  0  0  0
  3  4  1  0  0  0  0
  3 17  1  0  0  0  0
  5  6  1  0  0  0  0
  7  6  1  6  0  0  0
  7  8  1  0  0  0  0
  7  9  1  0  0  0  0
 10  9  1  1  0  0  0
 10 11  1  0  0  0  0
 10 12  1  0  0  0  0
 11 16  1  0  0  0  0
 12 13  1  6  0  0  0
 12 14  1  0  0  0  0
 14 15  1  6  0  0  0
 14 16  1  0  0  0  0
 16 27  1  6  0  0  0
 18 19  2  0  0  0  0
 18 23  1  0  0  0  0
 19 20  1  0  0  0  0
 20 21  2  0  0  0  0
 21 22  1  0  0  0  0
 21 27  1  0  0  0  0
 22 23  2  0  0  0  0
 22 25  1  0  0  0  0
 23 24  1  0  0  0  0
 25 26  2  0  0  0  0
 26 27  1  0  0  0  0
M  END
>  <CHROM.1>
-41.09931215,68.24137052,-82.77393675,87.12374157,-144.45515459,60.28134546
-107.89029518,12.74487948,7.97830758,28.81855073,2.13105213,-0.43455671,-1.04154089

>  <Name>
ligand

>  <RI>
0

>  <Rbt.Current_Directory>
/home/itssahil/PROJECTS/Mol_Feturizer/Test_systems_manuscript/rnas/4aob

>  <Rbt.Executable>
rbdock ($Id: //depot/dev/client3/rdock/2013.1/src/exe/rbdock.cxx#4 $)

>  <Rbt.Library>
libRbt.so (2013.1, Build901 2013/11/27)

>  <Rbt.Parameter_File>
/export/apps/rDock/src/rDock_2013.1_src/data/scripts/dock_solv.prm

>  <Rbt.Receptor>
prm/pocket_docking_8.prm

>  <SCORE>
-3.74783

>  <SCORE.INTER>
-9.07744

>  <SCORE.INTER.CONST>
1

>  <SCORE.INTER.POLAR>
0

>  <SCORE.INTER.ROT>
7

>  <SCORE.INTER.SOLV>
8.9569

>  <SCORE.INTER.VDW>
-17.3039

>  <SCORE.INTER.norm>
-0.336201

>  <SCORE.INTRA>
5.3296

>  <SCORE.INTRA.DIHEDRAL>
5.12223

>  <SCORE.INTRA.DIHEDRAL.0>
6.31833

>  <SCORE.INTRA.POLAR>
0

>  <SCORE.INTRA.POLAR.0>
0

>  <SCORE.INTRA.REPUL>
0

>  <SCORE.INTRA.REPUL.0>
0

>  <SCORE.INTRA.SOLV>
3.14015

>  <SCORE.INTRA.SOLV.lig_0>
-48.4015

>  <SCORE.INTRA.VDW>
1.19841

>  <SCORE.INTRA.VDW.0>
-2.83256

>  <SCORE.INTRA.norm>
0.197393

>  <SCORE.RESTR>
0

>  <SCORE.RESTR.CAVITY>
0

>  <SCORE.RESTR.norm>
0

>  <SCORE.SYSTEM>
0

>  <SCORE.SYSTEM.CONST>
0

>  <SCORE.SYSTEM.DIHEDRAL>
0

>  <SCORE.SYSTEM.SOLV>
0

>  <SCORE.SYSTEM.norm>
0

>  <SCORE.heavy>
27

>  <SCORE.norm>
-0.138809

>  <RMSD>
5.385

$$$$
ligand
 OpenBabel02271912153D
libRbt.so/2013.1/901 2013/11/27
 27 29  0  0  0  0  0  0  0  0999 V2000
   16.0972    8.4216   27.9523 N   0  0  0  0  0  0  0  0  0  0  0  0
   16.6980    7.6658   29.0775 C   0  0  2  0  0  0  0  0  0  0  0  0
   18.1436    8.1223   29.2262 C   0  0  0  0  0  0  0  0  0  0  0  0
   19.0186    8.1780   28.2995 O   0  0  0  0  0  0  0  0  0  0  0  0
   16.5615    6.1685   28.7930 C   0  0  0  0  0  0  0  0  0  0  0  0
   16.9839    5.3037   29.9732 C   0  0  0  0  0  0  0  0  0  0  0  0
   16.1348    5.3324   31.5964 S   0  0  2  0  0  0  0  0  0  0  0  0
   16.9818    6.7350   32.3217 C   0  0  0  0  0  0  0  0  0  0  0  0
   16.9631    3.8945   32.3466 C   0  0  0  0  0  0  0  0  0  0  0  0
   16.1593    2.6365   32.1646 C   0  0  1  0  0  0  0  0  0  0  0  0
   14.7824    2.7916   32.5855 O   0  0  0  0  0  0  0  0  0  0  0  0
   16.1299    2.1181   30.7449 C   0  0  1  0  0  0  0  0  0  0  0  0
   17.0618    1.1323   30.6345 O   0  0  0  0  0  0  0  0  0  0  0  0
   14.7726    1.4547   30.7293 C   0  0  1  0  0  0  0  0  0  0  0  0
   14.9597    0.2262   31.2780 O   0  0  0  0  0  0  0  0  0  0  0  0
   13.8605    2.2876   31.6570 C   0  0  2  0  0  0  0  0  0  0  0  0
   18.5037    8.4099   30.3690 O   0  0  0  0  0  0  0  0  0  0  0  0
   12.1043    7.1888   31.3954 N   0  0  0  0  0  0  0  0  0  0  0  0
   12.4525    6.3218   32.4852 C   0  0  0  0  0  0  0  0  0  0  0  0
   12.9343    4.9908   32.4200 N   0  0  0  0  0  0  0  0  0  0  0  0
   13.0534    4.6010   31.2127 C   0  0  0  0  0  0  0  0  0  0  0  0
   12.7271    5.4181   30.0225 C   0  0  0  0  0  0  0  0  0  0  0  0
   12.2597    6.6687   30.1289 C   0  0  0  0  0  0  0  0  0  0  0  0
   11.9909    7.2768   28.9919 N   0  0  0  0  0  0  0  0  0  0  0  0
   12.9215    4.7931   28.8859 N   0  0  0  0  0  0  0  0  0  0  0  0
   13.3780    3.5797   29.3666 C   0  0  0  0  0  0  0  0  0  0  0  0
   13.4713    3.4489   30.8119 N   0  0  0  0  0  0  0  0  0  0  0  0
  2  1  1  6  0  0  0
  2  3  1  0  0  0  0
  2  5  1  0  0  0  0
  3  4  1  0  0  0  0
  3 17  1  0  0  0  0
  5  6  1  0  0  0  0
  7  6  1  6  0  0  0
  7  8  1  0  0  0  0
  7  9  1  0  0  0  0
 10  9  1  6  0  0  0
 10 11  1  0  0  0  0
 10 12  1  0  0  0  0
 11 16  1  0  0  0  0
 12 13  1  1  0  0  0
 12 14  1  0  0  0  0
 14 15  1  1  0  0  0
 14 16  1  0  0  0  0
 16 27  1  6  0  0  0
 18 19  2  0  0  0  0
 18 23  1  0  0  0  0
 19 20  1  0  0  0  0
 20 21  2  0  0  0  0
 21 22  1  0  0  0  0
 21 27  1  0  0  0  0
 22 23  2  0  0  0  0
 22 25  1  0  0  0  0
 23 24  1  0  0  0  0
 25 26  2  0  0  0  0
 26 27  1  0  0  0  0
M  END
>  <CHROM.1>
-51.50816694,-172.45899178,62.89284142,-84.22828129,-94.69002712,-51.19842206
-51.64348005,15.21534430,5.00244971,30.62767779,1.15938298,0.06994872,-0.32056852

>  <Name>
ligand

>  <RI>
0

>  <Rbt.Current_Directory>
/home/itssahil/PROJECTS/Mol_Feturizer/Test_systems_manuscript/rnas/4aob

>  <Rbt.Executable>
rbdock ($Id: //depot/dev/client3/rdock/2013.1/src/exe/rbdock.cxx#4 $)

>  <Rbt.Library>
libRbt.so (2013.1, Build901 2013/11/27)

>  <Rbt.Parameter_File>
/export/apps/rDock/src/rDock_2013.1_src/data/scripts/dock_solv.prm

>  <Rbt.Receptor>
prm/pocket_docking_8.prm

>  <SCORE>
-11.2842

>  <SCORE.INTER>
-8.13703

>  <SCORE.INTER.CONST>
1

>  <SCORE.INTER.POLAR>
0

>  <SCORE.INTER.ROT>
7

>  <SCORE.INTER.SOLV>
11.337

>  <SCORE.INTER.VDW>
-17.4703

>  <SCORE.INTER.norm>
-0.301371

>  <SCORE.INTRA>
-3.14713

>  <SCORE.INTRA.DIHEDRAL>
-0.388974

>  <SCORE.INTRA.DIHEDRAL.0>
6.31833

>  <SCORE.INTRA.POLAR>
0

>  <SCORE.INTRA.POLAR.0>
0

>  <SCORE.INTRA.REPUL>
0

>  <SCORE.INTRA.REPUL.0>
0

>  <SCORE.INTRA.SOLV>
-0.35959

>  <SCORE.INTRA.SOLV.lig_0>
-48.4015

>  <SCORE.INTRA.VDW>
-2.77285

>  <SCORE.INTRA.VDW.0>
-2.83256

>  <SCORE.INTRA.norm>
-0.11656

>  <SCORE.RESTR>
0

>  <SCORE.RESTR.CAVITY>
0

>  <SCORE.RESTR.norm>
0

>  <SCORE.SYSTEM>
0

>  <SCORE.SYSTEM.CONST>
0

>  <SCORE.SYSTEM.DIHEDRAL>
0

>  <SCORE.SYSTEM.SOLV>
0

>  <SCORE.SYSTEM.norm>
0

>  <SCORE.heavy>
27

>  <SCORE.norm>
-0.417932

>  <RMSD>
5.396

$$$$
ligand
 OpenBabel02271912153D
libRbt.so/2013.1/901 2013/11/27
 27 29  0  0  0  0  0  0  0  0999 V2000
   15.3351    3.8833   29.9286 N   0  0  0  0  0  0  0  0  0  0  0  0
   14.3755    2.8825   29.4034 C   0  0  2  0  0  0  0  0  0  0  0  0
   13.8492    3.3967   28.0696 C   0  0  0  0  0  0  0  0  0  0  0  0
   12.7393    3.9945   27.8740 O   0  0  0  0  0  0  0  0  0  0  0  0
   13.2758    2.6617   30.4443 C   0  0  0  0  0  0  0  0  0  0  0  0
   13.8279    2.2984   31.8163 C   0  0  0  0  0  0  0  0  0  0  0  0
   13.8623    3.4652   33.2283 S   0  0  2  0  0  0  0  0  0  0  0  0
   12.0973    3.6982   33.4317 C   0  0  0  0  0  0  0  0  0  0  0  0
   14.3910    4.9530   32.3210 C   0  0  0  0  0  0  0  0  0  0  0  0
   13.8923    6.2092   32.9807 C   0  0  1  0  0  0  0  0  0  0  0  0
   14.3060    6.3112   34.3647 O   0  0  0  0  0  0  0  0  0  0  0  0
   14.3269    7.4849   32.2962 C   0  0  1  0  0  0  0  0  0  0  0  0
   13.3077    7.9062   31.4985 O   0  0  0  0  0  0  0  0  0  0  0  0
   14.3835    8.4199   33.4815 C   0  0  1  0  0  0  0  0  0  0  0  0
   13.1070    8.8428   33.6749 O   0  0  0  0  0  0  0  0  0  0  0  0
   14.8229    7.5719   34.6956 C   0  0  2  0  0  0  0  0  0  0  0  0
   14.5490    3.1557   27.0844 O   0  0  0  0  0  0  0  0  0  0  0  0
   19.5713    9.4417   35.7595 N   0  0  0  0  0  0  0  0  0  0  0  0
   18.2492    9.8049   36.1848 C   0  0  0  0  0  0  0  0  0  0  0  0
   17.0203    9.1997   35.8223 N   0  0  0  0  0  0  0  0  0  0  0  0
   17.2043    8.2177   35.0314 C   0  0  0  0  0  0  0  0  0  0  0  0
   18.5237    7.7614   34.5399 C   0  0  0  0  0  0  0  0  0  0  0  0
   19.6615    8.3716   34.8961 C   0  0  0  0  0  0  0  0  0  0  0  0
   20.7637    7.8769   34.3712 N   0  0  0  0  0  0  0  0  0  0  0  0
   18.4557    6.7362   33.7247 N   0  0  0  0  0  0  0  0  0  0  0  0
   17.0863    6.5451   33.7103 C   0  0  0  0  0  0  0  0  0  0  0  0
   16.2965    7.4554   34.5240 N   0  0  0  0  0  0  0  0  0  0  0  0
  2  1  1  1  0  0  0
  2  3  1  0  0  0  0
  2  5  1  0  0  0  0
  3  4  1  0  0  0  0
  3 17  1  0  0  0  0
  5  6  1  0  0  0  0
  7  6  1  6  0  0  0
  7  8  1  0  0  0  0
  7  9  1  0  0  0  0
 10  9  1  6  0  0  0
 10 11  1  0  0  0  0
 10 12  1  0  0  0  0
 11 16  1  0  0  0  0
 12 13  1  6  0  0  0
 12 14  1  0  0  0  0
 14 15  1  1  0  0  0
 14 16  1  0  0  0  0
 16 27  1  6  0  0  0
 18 19  2  0  0  0  0
 18 23  1  0  0  0  0
 19 20  1  0  0  0  0
 20 21  2  0  0  0  0
 21 22  1  0  0  0  0
 21 27  1  0  0  0  0
 22 23  2  0  0  0  0
 22 25  1  0  0  0  0
 23 24  1  0  0  0  0
 25 26  2  0  0  0  0
 26 27  1  0  0  0  0
M  END
>  <CHROM.1>
-98.98258243,-53.69259485,105.53960800,63.45450899,151.84979351,56.30053432
-160.30900900,15.34987222,6.06434205,32.73098756,-2.12105901,0.11885396,0.87035432

>  <Name>
ligand

>  <RI>
0

>  <Rbt.Current_Directory>
/home/itssahil/PROJECTS/Mol_Feturizer/Test_systems_manuscript/rnas/4aob

>  <Rbt.Executable>
rbdock ($Id: //depot/dev/client3/rdock/2013.1/src/exe/rbdock.cxx#4 $)

>  <Rbt.Library>
libRbt.so (2013.1, Build901 2013/11/27)

>  <Rbt.Parameter_File>
/export/apps/rDock/src/rDock_2013.1_src/data/scripts/dock_solv.prm

>  <Rbt.Receptor>
prm/pocket_docking_8.prm

>  <SCORE>
-12.7406

>  <SCORE.INTER>
-16.7679

>  <SCORE.INTER.CONST>
1

>  <SCORE.INTER.POLAR>
0

>  <SCORE.INTER.ROT>
7

>  <SCORE.INTER.SOLV>
8.88481

>  <SCORE.INTER.VDW>
-22.4069

>  <SCORE.INTER.norm>
-0.621033

>  <SCORE.INTRA>
4.02728

>  <SCORE.INTRA.DIHEDRAL>
3.06873

>  <SCORE.INTRA.DIHEDRAL.0>
6.31833

>  <SCORE.INTRA.POLAR>
0

>  <SCORE.INTRA.POLAR.0>
0

>  <SCORE.INTRA.REPUL>
0

>  <SCORE.INTRA.REPUL.0>
0

>  <SCORE.INTRA.SOLV>
2.49376

>  <SCORE.INTRA.SOLV.lig_0>
-48.4015

>  <SCORE.INTRA.VDW>
1.24604

>  <SCORE.INTRA.VDW.0>
-2.83256

>  <SCORE.INTRA.norm>
0.149159

>  <SCORE.RESTR>
0

>  <SCORE.RESTR.CAVITY>
0

>  <SCORE.RESTR.norm>
0

>  <SCORE.SYSTEM>
0

>  <SCORE.SYSTEM.CONST>
0

>  <SCORE.SYSTEM.DIHEDRAL>
0

>  <SCORE.SYSTEM.SOLV>
0

>  <SCORE.SYSTEM.norm>
0

>  <SCORE.heavy>
27

>  <SCORE.norm>
-0.471875

>  <RMSD>
5.411

$$$$
ligand
 OpenBabel02271912153D
libRbt.so/2013.1/901 2013/11/27
 27 29  0  0  0  0  0  0  0  0999 V2000
   15.0452    8.7613   27.0730 N   0  0  0  0  0  0  0  0  0  0  0  0
   15.4393    7.8118   26.0046 C   0  0  2  0  0  0  0  0  0  0  0  0
   15.7332    8.6205   24.7476 C   0  0  0  0  0  0  0  0  0  0  0  0
   14.8806    9.2457   24.0337 O   0  0  0  0  0  0  0  0  0  0  0  0
   14.3176    6.7879   25.8179 C   0  0  0  0  0  0  0  0  0  0  0  0
   14.0697    5.9515   27.0662 C   0  0  0  0  0  0  0  0  0  0  0  0
   15.3089    4.7985   27.7673 S   0  0  2  0  0  0  0  0  0  0  0  0
   15.1223    3.4543   26.5973 C   0  0  0  0  0  0  0  0  0  0  0  0
   14.3550    4.2438   29.2159 C   0  0  0  0  0  0  0  0  0  0  0  0
   14.9035    2.9627   29.7814 C   0  0  1  0  0  0  0  0  0  0  0  0
   16.3482    2.9727   29.8792 O   0  0  0  0  0  0  0  0  0  0  0  0
   14.3720    2.6109   31.1521 C   0  0  1  0  0  0  0  0  0  0  0  0
   13.3625    1.7112   30.9970 O   0  0  0  0  0  0  0  0  0  0  0  0
   15.5568    1.8617   31.7155 C   0  0  1  0  0  0  0  0  0  0  0  0
   15.4473    0.5938   31.2400 O   0  0  0  0  0  0  0  0  0  0  0  0
   16.8216    2.5168   31.1178 C   0  0  2  0  0  0  0  0  0  0  0  0
   16.9043    8.6156   24.3645 O   0  0  0  0  0  0  0  0  0  0  0  0
   19.6190    6.7926   32.1506 N   0  0  0  0  0  0  0  0  0  0  0  0
   19.7071    5.7751   31.1419 C   0  0  0  0  0  0  0  0  0  0  0  0
   18.8641    4.6503   30.9630 N   0  0  0  0  0  0  0  0  0  0  0  0
   17.9382    4.6228   31.8380 C   0  0  0  0  0  0  0  0  0  0  0  0
   17.7584    5.6242   32.9129 C   0  0  0  0  0  0  0  0  0  0  0  0
   18.5877    6.6662   33.0556 C   0  0  0  0  0  0  0  0  0  0  0  0
   18.3260    7.4705   34.0653 N   0  0  0  0  0  0  0  0  0  0  0  0
   16.7389    5.3746   33.6995 N   0  0  0  0  0  0  0  0  0  0  0  0
   16.2736    4.2135   33.1102 C   0  0  0  0  0  0  0  0  0  0  0  0
   17.0063    3.7383   31.9474 N   0  0  0  0  0  0  0  0  0  0  0  0
  2  1  1  1  0  0  0
  2  3  1  0  0  0  0
  2  5  1  0  0  0  0
  3  4  1  0  0  0  0
  3 17  1  0  0  0  0
  5  6  1  0  0  0  0
  7  6  1  6  0  0  0
  7  8  1  0  0  0  0
  7  9  1  0  0  0  0
 10  9  1  1  0  0  0
 10 11  1  0  0  0  0
 10 12  1  0  0  0  0
 11 16  1  0  0  0  0
 12 13  1  6  0  0  0
 12 14  1  0  0  0  0
 14 15  1  6  0  0  0
 14 16  1  0  0  0  0
 16 27  1  1  0  0  0
 18 19  2  0  0  0  0
 18 23  1  0  0  0  0
 19 20  1  0  0  0  0
 20 21  2  0  0  0  0
 21 22  1  0  0  0  0
 21 27  1  0  0  0  0
 22 23  2  0  0  0  0
 22 25  1  0  0  0  0
 23 24  1  0  0  0  0
 25 26  2  0  0  0  0
 26 27  1  0  0  0  0
M  END
>  <CHROM.1>
-69.40531460,-62.24787642,-64.32830524,-76.72500815,161.79804271,44.56700128
-73.64602672,16.15034595,5.09103939,29.56990353,-1.88999176,0.87455598,2.32802788

>  <Name>
ligand

>  <RI>
0

>  <Rbt.Current_Directory>
/home/itssahil/PROJECTS/Mol_Feturizer/Test_systems_manuscript/rnas/4aob

>  <Rbt.Executable>
rbdock ($Id: //depot/dev/client3/rdock/2013.1/src/exe/rbdock.cxx#4 $)

>  <Rbt.Library>
libRbt.so (2013.1, Build901 2013/11/27)

>  <Rbt.Parameter_File>
/export/apps/rDock/src/rDock_2013.1_src/data/scripts/dock_solv.prm

>  <Rbt.Receptor>
prm/pocket_docking_8.prm

>  <SCORE>
-11.2539

>  <SCORE.INTER>
-11.1461

>  <SCORE.INTER.CONST>
1

>  <SCORE.INTER.POLAR>
0

>  <SCORE.INTER.ROT>
7

>  <SCORE.INTER.SOLV>
13.217

>  <SCORE.INTER.VDW>
-20.1031

>  <SCORE.INTER.norm>
-0.412819

>  <SCORE.INTRA>
-0.107802

>  <SCORE.INTRA.DIHEDRAL>
-1.69909

>  <SCORE.INTRA.DIHEDRAL.0>
6.31833

>  <SCORE.INTRA.POLAR>
0

>  <SCORE.INTRA.POLAR.0>
0

>  <SCORE.INTRA.REPUL>
0

>  <SCORE.INTRA.REPUL.0>
0

>  <SCORE.INTRA.SOLV>
0.405863

>  <SCORE.INTRA.SOLV.lig_0>
-48.4015

>  <SCORE.INTRA.VDW>
0.538812

>  <SCORE.INTRA.VDW.0>
-2.83256

>  <SCORE.INTRA.norm>
-0.00399267

>  <SCORE.RESTR>
0

>  <SCORE.RESTR.CAVITY>
0

>  <SCORE.RESTR.norm>
0

>  <SCORE.SYSTEM>
0

>  <SCORE.SYSTEM.CONST>
0

>  <SCORE.SYSTEM.DIHEDRAL>
0

>  <SCORE.SYSTEM.SOLV>
0

>  <SCORE.SYSTEM.norm>
0

>  <SCORE.heavy>
27

>  <SCORE.norm>
-0.416811

>  <RMSD>
5.416

$$$$
ligand
 OpenBabel02271912153D
libRbt.so/2013.1/901 2013/11/27
 27 29  0  0  0  0  0  0  0  0999 V2000
   15.4071    3.3318   27.3807 N   0  0  0  0  0  0  0  0  0  0  0  0
   14.9485    4.5120   28.1521 C   0  0  2  0  0  0  0  0  0  0  0  0
   16.0193    4.8381   29.1852 C   0  0  0  0  0  0  0  0  0  0  0  0
   16.9956    4.0904   29.5249 O   0  0  0  0  0  0  0  0  0  0  0  0
   13.5854    4.1958   28.7713 C   0  0  0  0  0  0  0  0  0  0  0  0
   13.6480    3.0616   29.7856 C   0  0  0  0  0  0  0  0  0  0  0  0
   14.4089    3.2350   31.4432 S   0  0  2  0  0  0  0  0  0  0  0  0
   13.9835    1.6262   32.1074 C   0  0  0  0  0  0  0  0  0  0  0  0
   13.1697    4.3467   32.1812 C   0  0  0  0  0  0  0  0  0  0  0  0
   13.8099    5.3714   33.0768 C   0  0  1  0  0  0  0  0  0  0  0  0
   14.8063    6.1653   32.3884 O   0  0  0  0  0  0  0  0  0  0  0  0
   12.8359    6.3391   33.7091 C   0  0  1  0  0  0  0  0  0  0  0  0
   12.5654    5.9046   34.9703 O   0  0  0  0  0  0  0  0  0  0  0  0
   13.7152    7.5611   33.8356 C   0  0  1  0  0  0  0  0  0  0  0  0
   14.4291    7.3812   34.9772 O   0  0  0  0  0  0  0  0  0  0  0  0
   14.6798    7.5409   32.6293 C   0  0  2  0  0  0  0  0  0  0  0  0
   15.8851    5.9077   29.7822 O   0  0  0  0  0  0  0  0  0  0  0  0
   14.4860    9.7610   27.9167 N   0  0  0  0  0  0  0  0  0  0  0  0
   15.5620    9.2964   28.7455 C   0  0  0  0  0  0  0  0  0  0  0  0
   15.4783    8.6931   30.0250 N   0  0  0  0  0  0  0  0  0  0  0  0
   14.2670    8.5778   30.4032 C   0  0  0  0  0  0  0  0  0  0  0  0
   13.0899    9.0192   29.6222 C   0  0  0  0  0  0  0  0  0  0  0  0
   13.2141    9.5992   28.4213 C   0  0  0  0  0  0  0  0  0  0  0  0
   12.0878    9.9619   27.8428 N   0  0  0  0  0  0  0  0  0  0  0  0
   11.9462    8.8044   30.2273 N   0  0  0  0  0  0  0  0  0  0  0  0
   12.4092    8.2193   31.3914 C   0  0  0  0  0  0  0  0  0  0  0  0
   13.8503    8.0661   31.5110 N   0  0  0  0  0  0  0  0  0  0  0  0
  2  1  1  1  0  0  0
  2  3  1  0  0  0  0
  2  5  1  0  0  0  0
  3  4  1  0  0  0  0
  3 17  1  0  0  0  0
  5  6  1  0  0  0  0
  7  6  1  6  0  0  0
  7  8  1  0  0  0  0
  7  9  1  0  0  0  0
 10  9  1  6  0  0  0
 10 11  1  0  0  0  0
 10 12  1  0  0  0  0
 11 16  1  0  0  0  0
 12 13  1  1  0  0  0
 12 14  1  0  0  0  0
 14 15  1  1  0  0  0
 14 16  1  0  0  0  0
 16 27  1  6  0  0  0
 18 19  2  0  0  0  0
 18 23  1  0  0  0  0
 19 20  1  0  0  0  0
 20 21  2  0  0  0  0
 21 22  1  0  0  0  0
 21 27  1  0  0  0  0
 22 23  2  0  0  0  0
 22 25  1  0  0  0  0
 23 24  1  0  0  0  0
 25 26  2  0  0  0  0
 26 27  1  0  0  0  0
M  END
>  <CHROM.1>
-13.27370863,63.95661855,72.17769386,174.71450277,-142.25187352,57.06125167
-93.78536216,14.15764846,6.26590304,30.83218786,-1.15162664,1.25849165,-0.73703313

>  <Name>
ligand

>  <RI>
0

>  <Rbt.Current_Directory>
/home/itssahil/PROJECTS/Mol_Feturizer/Test_systems_manuscript/rnas/4aob

>  <Rbt.Executable>
rbdock ($Id: //depot/dev/client3/rdock/2013.1/src/exe/rbdock.cxx#4 $)

>  <Rbt.Library>
libRbt.so (2013.1, Build901 2013/11/27)

>  <Rbt.Parameter_File>
/export/apps/rDock/src/rDock_2013.1_src/data/scripts/dock_solv.prm

>  <Rbt.Receptor>
prm/pocket_docking_3.prm

>  <SCORE>
-11.3939

>  <SCORE.INTER>
-10.7569

>  <SCORE.INTER.CONST>
1

>  <SCORE.INTER.POLAR>
0

>  <SCORE.INTER.ROT>
7

>  <SCORE.INTER.SOLV>
14.8307

>  <SCORE.INTER.VDW>
-20.3815

>  <SCORE.INTER.norm>
-0.398405

>  <SCORE.INTRA>
-0.636967

>  <SCORE.INTRA.DIHEDRAL>
1.25517

>  <SCORE.INTRA.DIHEDRAL.0>
6.31833

>  <SCORE.INTRA.POLAR>
0

>  <SCORE.INTRA.POLAR.0>
0

>  <SCORE.INTRA.REPUL>
0

>  <SCORE.INTRA.REPUL.0>
0

>  <SCORE.INTRA.SOLV>
0.383227

>  <SCORE.INTRA.SOLV.lig_0>
-48.4015

>  <SCORE.INTRA.VDW>
-1.45616

>  <SCORE.INTRA.VDW.0>
-2.83256

>  <SCORE.INTRA.norm>
-0.0235914

>  <SCORE.RESTR>
0

>  <SCORE.RESTR.CAVITY>
0

>  <SCORE.RESTR.norm>
0

>  <SCORE.SYSTEM>
0

>  <SCORE.SYSTEM.CONST>
0

>  <SCORE.SYSTEM.DIHEDRAL>
0

>  <SCORE.SYSTEM.SOLV>
0

>  <SCORE.SYSTEM.norm>
0

>  <SCORE.heavy>
27

>  <SCORE.norm>
-0.421997

>  <RMSD>
5.423

$$$$
ligand
 OpenBabel02271912153D
libRbt.so/2013.1/901 2013/11/27
 27 29  0  0  0  0  0  0  0  0999 V2000
   14.8607    5.8286   28.2217 N   0  0  0  0  0  0  0  0  0  0  0  0
   13.9807    4.8582   28.9161 C   0  0  2  0  0  0  0  0  0  0  0  0
   12.5371    5.2640   28.6486 C   0  0  0  0  0  0  0  0  0  0  0  0
   11.8524    4.9831   27.6094 O   0  0  0  0  0  0  0  0  0  0  0  0
   14.3405    4.8444   30.4034 C   0  0  0  0  0  0  0  0  0  0  0  0
   13.6469    3.7240   31.1669 C   0  0  0  0  0  0  0  0  0  0  0  0
   13.8975    3.4205   32.9562 S   0  0  2  0  0  0  0  0  0  0  0  0
   12.7724    2.0407   33.1581 C   0  0  0  0  0  0  0  0  0  0  0  0
   12.9544    4.8418   33.5938 C   0  0  0  0  0  0  0  0  0  0  0  0
   13.8646    5.9334   34.0855 C   0  0  1  0  0  0  0  0  0  0  0  0
   14.8392    6.3332   33.0919 O   0  0  0  0  0  0  0  0  0  0  0  0
   13.1471    7.1881   34.5281 C   0  0  1  0  0  0  0  0  0  0  0  0
   13.0230    7.1496   35.8829 O   0  0  0  0  0  0  0  0  0  0  0  0
   14.1962    8.2259   34.2041 C   0  0  1  0  0  0  0  0  0  0  0  0
   15.0506    8.2243   35.2602 O   0  0  0  0  0  0  0  0  0  0  0  0
   14.9446    7.7241   32.9494 C   0  0  2  0  0  0  0  0  0  0  0  0
   12.0106    5.9794   29.5027 O   0  0  0  0  0  0  0  0  0  0  0  0
   14.3590    9.6451   28.1388 N   0  0  0  0  0  0  0  0  0  0  0  0
   15.5046    9.3643   28.9570 C   0  0  0  0  0  0  0  0  0  0  0  0
   15.5285    8.8252   30.2672 N   0  0  0  0  0  0  0  0  0  0  0  0
   14.3509    8.5795   30.6874 C   0  0  0  0  0  0  0  0  0  0  0  0
   13.1091    8.8272   29.9212 C   0  0  0  0  0  0  0  0  0  0  0  0
   13.1302    9.3525   28.6894 C   0  0  0  0  0  0  0  0  0  0  0  0
   11.9535    9.5395   28.1278 N   0  0  0  0  0  0  0  0  0  0  0  0
   12.0166    8.5037   30.5709 N   0  0  0  0  0  0  0  0  0  0  0  0
   12.5775    8.0448   31.7485 C   0  0  0  0  0  0  0  0  0  0  0  0
   14.0289    8.0802   31.8318 N   0  0  0  0  0  0  0  0  0  0  0  0
  2  1  1  6  0  0  0
  2  3  1  0  0  0  0
  2  5  1  0  0  0  0
  3  4  1  0  0  0  0
  3 17  1  0  0  0  0
  5  6  1  0  0  0  0
  7  6  1  6  0  0  0
  7  8  1  0  0  0  0
  7  9  1  0  0  0  0
 10  9  1  6  0  0  0
 10 11  1  0  0  0  0
 10 12  1  0  0  0  0
 11 16  1  0  0  0  0
 12 13  1  1  0  0  0
 12 14  1  0  0  0  0
 14 15  1  1  0  0  0
 14 16  1  0  0  0  0
 16 27  1  6  0  0  0
 18 19  2  0  0  0  0
 18 23  1  0  0  0  0
 19 20  1  0  0  0  0
 20 21  2  0  0  0  0
 21 22  1  0  0  0  0
 21 27  1  0  0  0  0
 22 23  2  0  0  0  0
 22 25  1  0  0  0  0
 23 24  1  0  0  0  0
 25 26  2  0  0  0  0
 26 27  1  0  0  0  0
M  END
>  <CHROM.1>
82.48697382,-170.92269833,178.72968655,178.36977039,-104.45020043,53.22339295
-115.58817345,13.64776013,6.64197221,31.36127258,1.82458267,-1.37292905,-0.84644190

>  <Name>
ligand

>  <RI>
0

>  <Rbt.Current_Directory>
/home/itssahil/PROJECTS/Mol_Feturizer/Test_systems_manuscript/rnas/4aob

>  <Rbt.Executable>
rbdock ($Id: //depot/dev/client3/rdock/2013.1/src/exe/rbdock.cxx#4 $)

>  <Rbt.Library>
libRbt.so (2013.1, Build901 2013/11/27)

>  <Rbt.Parameter_File>
/export/apps/rDock/src/rDock_2013.1_src/data/scripts/dock_solv.prm

>  <Rbt.Receptor>
prm/pocket_docking_8.prm

>  <SCORE>
-17.1103

>  <SCORE.INTER>
-15.2791

>  <SCORE.INTER.CONST>
1

>  <SCORE.INTER.POLAR>
0

>  <SCORE.INTER.ROT>
7

>  <SCORE.INTER.SOLV>
10.4701

>  <SCORE.INTER.VDW>
-21.9428

>  <SCORE.INTER.norm>
-0.565893

>  <SCORE.INTRA>
-1.83122

>  <SCORE.INTRA.DIHEDRAL>
-0.0214005

>  <SCORE.INTRA.DIHEDRAL.0>
6.31833

>  <SCORE.INTRA.POLAR>
0

>  <SCORE.INTRA.POLAR.0>
0

>  <SCORE.INTRA.REPUL>
0

>  <SCORE.INTRA.REPUL.0>
0

>  <SCORE.INTRA.SOLV>
0.272597

>  <SCORE.INTRA.SOLV.lig_0>
-48.4015

>  <SCORE.INTRA.VDW>
-1.95682

>  <SCORE.INTRA.VDW.0>
-2.83256

>  <SCORE.INTRA.norm>
-0.067823

>  <SCORE.RESTR>
0

>  <SCORE.RESTR.CAVITY>
0

>  <SCORE.RESTR.norm>
0

>  <SCORE.SYSTEM>
0

>  <SCORE.SYSTEM.CONST>
0

>  <SCORE.SYSTEM.DIHEDRAL>
0

>  <SCORE.SYSTEM.SOLV>
0

>  <SCORE.SYSTEM.norm>
0

>  <SCORE.heavy>
27

>  <SCORE.norm>
-0.633716

>  <RMSD>
5.429

$$$$
ligand
 OpenBabel02271912153D
libRbt.so/2013.1/901 2013/11/27
 27 29  0  0  0  0  0  0  0  0999 V2000
   15.0745   -0.1404   30.9453 N   0  0  0  0  0  0  0  0  0  0  0  0
   15.2364    1.1673   31.6252 C   0  0  2  0  0  0  0  0  0  0  0  0
   13.8461    1.7340   31.8822 C   0  0  0  0  0  0  0  0  0  0  0  0
   13.2713    1.8434   33.0158 O   0  0  0  0  0  0  0  0  0  0  0  0
   16.1075    2.0719   30.7508 C   0  0  0  0  0  0  0  0  0  0  0  0
   16.9771    3.0193   31.5665 C   0  0  0  0  0  0  0  0  0  0  0  0
   16.4179    4.6740   32.1195 S   0  0  2  0  0  0  0  0  0  0  0  0
   17.6567    4.9729   33.3790 C   0  0  0  0  0  0  0  0  0  0  0  0
   14.9560    4.1483   33.0697 C   0  0  0  0  0  0  0  0  0  0  0  0
   14.3062    5.3090   33.7715 C   0  0  1  0  0  0  0  0  0  0  0  0
   15.0611    6.5367   33.6297 O   0  0  0  0  0  0  0  0  0  0  0  0
   12.8968    5.6032   33.3110 C   0  0  1  0  0  0  0  0  0  0  0  0
   12.0342    5.0277   34.1925 O   0  0  0  0  0  0  0  0  0  0  0  0
   12.8445    7.0952   33.5427 C   0  0  1  0  0  0  0  0  0  0  0  0
   12.5512    7.2506   34.8600 O   0  0  0  0  0  0  0  0  0  0  0  0
   14.2664    7.6363   33.2755 C   0  0  2  0  0  0  0  0  0  0  0  0
   13.2046    2.0637   30.8830 O   0  0  0  0  0  0  0  0  0  0  0  0
   11.8600    8.7031   28.7760 N   0  0  0  0  0  0  0  0  0  0  0  0
   11.4685    8.8052   30.1533 C   0  0  0  0  0  0  0  0  0  0  0  0
   12.2333    8.4855   31.3025 N   0  0  0  0  0  0  0  0  0  0  0  0
   13.3977    8.0776   30.9840 C   0  0  0  0  0  0  0  0  0  0  0  0
   13.8982    7.9423   29.5977 C   0  0  0  0  0  0  0  0  0  0  0  0
   13.1363    8.2419   28.5376 C   0  0  0  0  0  0  0  0  0  0  0  0
   13.6975    8.0574   27.3603 N   0  0  0  0  0  0  0  0  0  0  0  0
   15.1273    7.4904   29.5237 N   0  0  0  0  0  0  0  0  0  0  0  0
   15.4005    7.3478   30.8716 C   0  0  0  0  0  0  0  0  0  0  0  0
   14.3358    7.7158   31.7912 N   0  0  0  0  0  0  0  0  0  0  0  0
  2  1  1  6  0  0  0
  2  3  1  0  0  0  0
  2  5  1  0  0  0  0
  3  4  1  0  0  0  0
  3 17  1  0  0  0  0
  5  6  1  0  0  0  0
  7  6  1  6  0  0  0
  7  8  1  0  0  0  0
  7  9  1  0  0  0  0
 10  9  1  6  0  0  0
 10 11  1  0  0  0  0
 10 12  1  0  0  0  0
 11 16  1  0  0  0  0
 12 13  1  1  0  0  0
 12 14  1  0  0  0  0
 14 15  1  1  0  0  0
 14 16  1  0  0  0  0
 16 27  1  6  0  0  0
 18 19  2  0  0  0  0
 18 23  1  0  0  0  0
 19 20  1  0  0  0  0
 20 21  2  0  0  0  0
 21 22  1  0  0  0  0
 21 27  1  0  0  0  0
 22 23  2  0  0  0  0
 22 25  1  0  0  0  0
 23 24  1  0  0  0  0
 25 26  2  0  0  0  0
 26 27  1  0  0  0  0
M  END
>  <CHROM.1>
109.23073556,-146.98795681,-88.16437492,163.44578801,175.38553180,-5.40539277
145.05399852,14.23477822,5.47601840,31.74667845,-0.59545182,1.17477209,-1.20085220

>  <Name>
ligand

>  <RI>
0

>  <Rbt.Current_Directory>
/home/itssahil/PROJECTS/Mol_Feturizer/Test_systems_manuscript/rnas/4aob

>  <Rbt.Executable>
rbdock ($Id: //depot/dev/client3/rdock/2013.1/src/exe/rbdock.cxx#4 $)

>  <Rbt.Library>
libRbt.so (2013.1, Build901 2013/11/27)

>  <Rbt.Parameter_File>
/export/apps/rDock/src/rDock_2013.1_src/data/scripts/dock_solv.prm

>  <Rbt.Receptor>
prm/pocket_docking_2.prm

>  <SCORE>
-4.51841

>  <SCORE.INTER>
-11.1988

>  <SCORE.INTER.CONST>
1

>  <SCORE.INTER.POLAR>
0

>  <SCORE.INTER.ROT>
7

>  <SCORE.INTER.SOLV>
15.9418

>  <SCORE.INTER.VDW>
-21.0465

>  <SCORE.INTER.norm>
-0.414771

>  <SCORE.INTRA>
5.36697

>  <SCORE.INTRA.DIHEDRAL>
8.21431

>  <SCORE.INTRA.DIHEDRAL.0>
6.31833

>  <SCORE.INTRA.POLAR>
0

>  <SCORE.INTRA.POLAR.0>
0

>  <SCORE.INTRA.REPUL>
0

>  <SCORE.INTRA.REPUL.0>
0

>  <SCORE.INTRA.SOLV>
-0.326761

>  <SCORE.INTRA.SOLV.lig_0>
-48.4015

>  <SCORE.INTRA.VDW>
1.42319

>  <SCORE.INTRA.VDW.0>
-2.83256

>  <SCORE.INTRA.norm>
0.198777

>  <SCORE.RESTR>
1.31345

>  <SCORE.RESTR.CAVITY>
1.31345

>  <SCORE.RESTR.norm>
0.0486463

>  <SCORE.SYSTEM>
0

>  <SCORE.SYSTEM.CONST>
0

>  <SCORE.SYSTEM.DIHEDRAL>
0

>  <SCORE.SYSTEM.SOLV>
0

>  <SCORE.SYSTEM.norm>
0

>  <SCORE.heavy>
27

>  <SCORE.norm>
-0.167348

>  <RMSD>
5.430

$$$$
ligand
 OpenBabel02271912153D
libRbt.so/2013.1/901 2013/11/27
 27 29  0  0  0  0  0  0  0  0999 V2000
   12.6742    2.1026   32.6410 N   0  0  0  0  0  0  0  0  0  0  0  0
   13.3248    1.9095   31.3228 C   0  0  2  0  0  0  0  0  0  0  0  0
   14.3440    0.7866   31.4661 C   0  0  0  0  0  0  0  0  0  0  0  0
   15.1568    0.3835   30.5693 O   0  0  0  0  0  0  0  0  0  0  0  0
   13.9441    3.2372   30.8806 C   0  0  0  0  0  0  0  0  0  0  0  0
   15.3834    3.4011   31.3503 C   0  0  0  0  0  0  0  0  0  0  0  0
   16.1191    5.0195   31.7931 S   0  0  2  0  0  0  0  0  0  0  0  0
   17.8222    4.4990   31.9912 C   0  0  0  0  0  0  0  0  0  0  0  0
   15.4999    5.1256   33.5024 C   0  0  0  0  0  0  0  0  0  0  0  0
   15.2788    6.5527   33.9226 C   0  0  1  0  0  0  0  0  0  0  0  0
   15.6190    7.4976   32.8794 O   0  0  0  0  0  0  0  0  0  0  0  0
   13.8626    6.8615   34.3516 C   0  0  1  0  0  0  0  0  0  0  0  0
   13.8112    6.8116   35.7107 O   0  0  0  0  0  0  0  0  0  0  0  0
   13.7725    8.3161   33.9534 C   0  0  1  0  0  0  0  0  0  0  0  0
   14.3377    9.0105   34.9751 O   0  0  0  0  0  0  0  0  0  0  0  0
   14.6418    8.4848   32.6876 C   0  0  2  0  0  0  0  0  0  0  0  0
   14.3326    0.1815   32.5395 O   0  0  0  0  0  0  0  0  0  0  0  0
   13.3324    8.5933   27.6430 N   0  0  0  0  0  0  0  0  0  0  0  0
   14.3623    9.2354   28.4096 C   0  0  0  0  0  0  0  0  0  0  0  0
   14.6203    9.1125   29.7975 N   0  0  0  0  0  0  0  0  0  0  0  0
   13.8007    8.3086   30.3505 C   0  0  0  0  0  0  0  0  0  0  0  0
   12.7106    7.5945   29.6489 C   0  0  0  0  0  0  0  0  0  0  0  0
   12.4918    7.7504   28.3368 C   0  0  0  0  0  0  0  0  0  0  0  0
   11.4768    7.0720   27.8422 N   0  0  0  0  0  0  0  0  0  0  0  0
   11.9908    6.8302   30.4351 N   0  0  0  0  0  0  0  0  0  0  0  0
   12.6377    7.0620   31.6350 C   0  0  0  0  0  0  0  0  0  0  0  0
   13.7695    7.9743   31.5954 N   0  0  0  0  0  0  0  0  0  0  0  0
  2  1  1  1  0  0  0
  2  3  1  0  0  0  0
  2  5  1  0  0  0  0
  3  4  1  0  0  0  0
  3 17  1  0  0  0  0
  5  6  1  0  0  0  0
  7  6  1  6  0  0  0
  7  8  1  0  0  0  0
  7  9  1  0  0  0  0
 10  9  1  6  0  0  0
 10 11  1  0  0  0  0
 10 12  1  0  0  0  0
 11 16  1  0  0  0  0
 12 13  1  1  0  0  0
 12 14  1  0  0  0  0
 14 15  1  1  0  0  0
 14 16  1  0  0  0  0
 16 27  1  6  0  0  0
 18 19  2  0  0  0  0
 18 23  1  0  0  0  0
 19 20  1  0  0  0  0
 20 21  2  0  0  0  0
 21 22  1  0  0  0  0
 21 27  1  0  0  0  0
 22 23  2  0  0  0  0
 22 25  1  0  0  0  0
 23 24  1  0  0  0  0
 25 26  2  0  0  0  0
 26 27  1  0  0  0  0
M  END
>  <CHROM.1>
-175.64016435,90.13708709,-147.04398819,-171.90452128,-149.66129601,-0.48160105
-100.18999916,14.25315742,5.80755563,31.64851769,1.09370593,1.22921153,-2.85445406

>  <Name>
ligand

>  <RI>
0

>  <Rbt.Current_Directory>
/home/itssahil/PROJECTS/Mol_Feturizer/Test_systems_manuscript/rnas/4aob

>  <Rbt.Executable>
rbdock ($Id: //depot/dev/client3/rdock/2013.1/src/exe/rbdock.cxx#4 $)

>  <Rbt.Library>
libRbt.so (2013.1, Build901 2013/11/27)

>  <Rbt.Parameter_File>
/export/apps/rDock/src/rDock_2013.1_src/data/scripts/dock_solv.prm

>  <Rbt.Receptor>
prm/pocket_docking_2.prm

>  <SCORE>
-0.602634

>  <SCORE.INTER>
-9.46298

>  <SCORE.INTER.CONST>
1

>  <SCORE.INTER.POLAR>
0

>  <SCORE.INTER.ROT>
7

>  <SCORE.INTER.SOLV>
13.6458

>  <SCORE.INTER.VDW>
-19.1239

>  <SCORE.INTER.norm>
-0.350481

>  <SCORE.INTRA>
7.53747

>  <SCORE.INTRA.DIHEDRAL>
12.0994

>  <SCORE.INTRA.DIHEDRAL.0>
6.31833

>  <SCORE.INTRA.POLAR>
0

>  <SCORE.INTRA.POLAR.0>
0

>  <SCORE.INTRA.REPUL>
0

>  <SCORE.INTRA.REPUL.0>
0

>  <SCORE.INTRA.SOLV>
0.183779

>  <SCORE.INTRA.SOLV.lig_0>
-48.4015

>  <SCORE.INTRA.VDW>
1.39586

>  <SCORE.INTRA.VDW.0>
-2.83256

>  <SCORE.INTRA.norm>
0.279166

>  <SCORE.RESTR>
1.32287

>  <SCORE.RESTR.CAVITY>
1.32287

>  <SCORE.RESTR.norm>
0.0489953

>  <SCORE.SYSTEM>
0

>  <SCORE.SYSTEM.CONST>
0

>  <SCORE.SYSTEM.DIHEDRAL>
0

>  <SCORE.SYSTEM.SOLV>
0

>  <SCORE.SYSTEM.norm>
0

>  <SCORE.heavy>
27

>  <SCORE.norm>
-0.0223198

>  <RMSD>
5.432

$$$$
ligand
 OpenBabel02271912153D
libRbt.so/2013.1/901 2013/11/27
 27 29  0  0  0  0  0  0  0  0999 V2000
   14.4564    8.5992   25.7584 N   0  0  0  0  0  0  0  0  0  0  0  0
   14.6291    7.6140   24.6639 C   0  0  2  0  0  0  0  0  0  0  0  0
   13.9278    8.1629   23.4281 C   0  0  0  0  0  0  0  0  0  0  0  0
   12.9565    8.9899   23.4140 O   0  0  0  0  0  0  0  0  0  0  0  0
   14.0759    6.2640   25.1252 C   0  0  0  0  0  0  0  0  0  0  0  0
   14.8811    5.6562   26.2661 C   0  0  0  0  0  0  0  0  0  0  0  0
   14.3812    4.1310   27.1495 S   0  0  2  0  0  0  0  0  0  0  0  0
   12.9521    4.7754   28.0174 C   0  0  0  0  0  0  0  0  0  0  0  0
   15.6886    4.1266   28.4171 C   0  0  0  0  0  0  0  0  0  0  0  0
   15.5260    2.9785   29.3749 C   0  0  1  0  0  0  0  0  0  0  0  0
   16.7926    2.5011   29.8894 O   0  0  0  0  0  0  0  0  0  0  0  0
   14.6530    3.2855   30.5701 C   0  0  1  0  0  0  0  0  0  0  0  0
   13.4045    2.8061   30.3172 O   0  0  0  0  0  0  0  0  0  0  0  0
   15.2807    2.3775   31.6016 C   0  0  1  0  0  0  0  0  0  0  0  0
   14.7324    1.1524   31.3923 O   0  0  0  0  0  0  0  0  0  0  0  0
   16.7901    2.3160   31.2793 C   0  0  2  0  0  0  0  0  0  0  0  0
   14.3100    7.7131   22.3464 O   0  0  0  0  0  0  0  0  0  0  0  0
   19.3933    6.7695   30.5282 N   0  0  0  0  0  0  0  0  0  0  0  0
   18.9763    5.7103   29.6537 C   0  0  0  0  0  0  0  0  0  0  0  0
   18.2541    4.5379   29.9880 N   0  0  0  0  0  0  0  0  0  0  0  0
   17.9728    4.5068   31.2304 C   0  0  0  0  0  0  0  0  0  0  0  0
   18.3514    5.5486   32.2111 C   0  0  0  0  0  0  0  0  0  0  0  0
   19.0479    6.6360   31.8554 C   0  0  0  0  0  0  0  0  0  0  0  0
   19.3359    7.4741   32.8299 N   0  0  0  0  0  0  0  0  0  0  0  0
   17.9586    5.2871   33.4348 N   0  0  0  0  0  0  0  0  0  0  0  0
   17.3247    4.0774   33.2184 C   0  0  0  0  0  0  0  0  0  0  0  0
   17.3203    3.5836   31.8506 N   0  0  0  0  0  0  0  0  0  0  0  0
  2  1  1  1  0  0  0
  2  3  1  0  0  0  0
  2  5  1  0  0  0  0
  3  4  1  0  0  0  0
  3 17  1  0  0  0  0
  5  6  1  0  0  0  0
  7  6  1  6  0  0  0
  7  8  1  0  0  0  0
  7  9  1  0  0  0  0
 10  9  1  1  0  0  0
 10 11  1  0  0  0  0
 10 12  1  0  0  0  0
 11 16  1  0  0  0  0
 12 13  1  6  0  0  0
 12 14  1  0  0  0  0
 14 15  1  6  0  0  0
 14 16  1  0  0  0  0
 16 27  1  1  0  0  0
 18 19  2  0  0  0  0
 18 23  1  0  0  0  0
 19 20  1  0  0  0  0
 20 21  2  0  0  0  0
 21 22  1  0  0  0  0
 21 27  1  0  0  0  0
 22 23  2  0  0  0  0
 22 25  1  0  0  0  0
 23 24  1  0  0  0  0
 25 26  2  0  0  0  0
 26 27  1  0  0  0  0
M  END
>  <CHROM.1>
-25.36276138,-66.32254208,173.75280429,-69.76442569,177.86422831,148.86598397
-16.78933077,15.88519413,5.03503066,28.92820206,-2.12407859,0.72781842,2.36123094

>  <Name>
ligand

>  <RI>
0

>  <Rbt.Current_Directory>
/home/itssahil/PROJECTS/Mol_Feturizer/Test_systems_manuscript/rnas/4aob

>  <Rbt.Executable>
rbdock ($Id: //depot/dev/client3/rdock/2013.1/src/exe/rbdock.cxx#4 $)

>  <Rbt.Library>
libRbt.so (2013.1, Build901 2013/11/27)

>  <Rbt.Parameter_File>
/export/apps/rDock/src/rDock_2013.1_src/data/scripts/dock_solv.prm

>  <Rbt.Receptor>
prm/pocket_docking_6.prm

>  <SCORE>
-12.8382

>  <SCORE.INTER>
-13.6131

>  <SCORE.INTER.CONST>
1

>  <SCORE.INTER.POLAR>
0

>  <SCORE.INTER.ROT>
7

>  <SCORE.INTER.SOLV>
9.27474

>  <SCORE.INTER.VDW>
-20.4336

>  <SCORE.INTER.norm>
-0.504187

>  <SCORE.INTRA>
0.774878

>  <SCORE.INTRA.DIHEDRAL>
-0.118909

>  <SCORE.INTRA.DIHEDRAL.0>
6.31833

>  <SCORE.INTRA.POLAR>
0

>  <SCORE.INTRA.POLAR.0>
0

>  <SCORE.INTRA.REPUL>
0

>  <SCORE.INTRA.REPUL.0>
0

>  <SCORE.INTRA.SOLV>
0.23598

>  <SCORE.INTRA.SOLV.lig_0>
-48.4015

>  <SCORE.INTRA.VDW>
0.716343

>  <SCORE.INTRA.VDW.0>
-2.83256

>  <SCORE.INTRA.norm>
0.0286992

>  <SCORE.RESTR>
0

>  <SCORE.RESTR.CAVITY>
0

>  <SCORE.RESTR.norm>
0

>  <SCORE.SYSTEM>
0

>  <SCORE.SYSTEM.CONST>
0

>  <SCORE.SYSTEM.DIHEDRAL>
0

>  <SCORE.SYSTEM.SOLV>
0

>  <SCORE.SYSTEM.norm>
0

>  <SCORE.heavy>
27

>  <SCORE.norm>
-0.475488

>  <RMSD>
5.436

$$$$
ligand
 OpenBabel02271912153D
libRbt.so/2013.1/901 2013/11/27
 27 29  0  0  0  0  0  0  0  0999 V2000
   11.1696    7.9067   25.3357 N   0  0  0  0  0  0  0  0  0  0  0  0
   11.1805    6.9627   26.4790 C   0  0  2  0  0  0  0  0  0  0  0  0
   10.7427    7.7294   27.7203 C   0  0  0  0  0  0  0  0  0  0  0  0
   11.1706    7.5524   28.9090 O   0  0  0  0  0  0  0  0  0  0  0  0
   12.5800    6.3565   26.6034 C   0  0  0  0  0  0  0  0  0  0  0  0
   12.6704    5.3033   27.6995 C   0  0  0  0  0  0  0  0  0  0  0  0
   14.2578    4.6358   28.3251 S   0  0  2  0  0  0  0  0  0  0  0  0
   14.6933    3.6101   26.9220 C   0  0  0  0  0  0  0  0  0  0  0  0
   13.5821    3.4506   29.5314 C   0  0  0  0  0  0  0  0  0  0  0  0
   14.6438    2.5158   30.0421 C   0  0  1  0  0  0  0  0  0  0  0  0
   15.9313    3.1629   30.1849 O   0  0  0  0  0  0  0  0  0  0  0  0
   14.3214    1.8780   31.3741 C   0  0  1  0  0  0  0  0  0  0  0  0
   13.8211    0.6344   31.1384 O   0  0  0  0  0  0  0  0  0  0  0  0
   15.7144    1.7019   31.9317 C   0  0  1  0  0  0  0  0  0  0  0  0
   16.1847    0.5512   31.3838 O   0  0  0  0  0  0  0  0  0  0  0  0
   16.5547    2.8887   31.4106 C   0  0  2  0  0  0  0  0  0  0  0  0
    9.8479    8.5601   27.5537 O   0  0  0  0  0  0  0  0  0  0  0  0
   18.0249    7.0603   34.1693 N   0  0  0  0  0  0  0  0  0  0  0  0
   18.7182    6.1674   33.2848 C   0  0  0  0  0  0  0  0  0  0  0  0
   18.1917    5.0575   32.5785 N   0  0  0  0  0  0  0  0  0  0  0  0
   16.9457    4.9149   32.8042 C   0  0  0  0  0  0  0  0  0  0  0  0
   16.1410    5.7829   33.6928 C   0  0  0  0  0  0  0  0  0  0  0  0
   16.6818    6.8144   34.3542 C   0  0  0  0  0  0  0  0  0  0  0  0
   15.8582    7.4928   35.1264 N   0  0  0  0  0  0  0  0  0  0  0  0
   14.8808    5.4283   33.7743 N   0  0  0  0  0  0  0  0  0  0  0  0
   14.8949    4.3357   32.9270 C   0  0  0  0  0  0  0  0  0  0  0  0
   16.1714    4.0092   32.3116 N   0  0  0  0  0  0  0  0  0  0  0  0
  2  1  1  6  0  0  0
  2  3  1  0  0  0  0
  2  5  1  0  0  0  0
  3  4  1  0  0  0  0
  3 17  1  0  0  0  0
  5  6  1  0  0  0  0
  7  6  1  6  0  0  0
  7  8  1  0  0  0  0
  7  9  1  0  0  0  0
 10  9  1  1  0  0  0
 10 11  1  0  0  0  0
 10 12  1  0  0  0  0
 11 16  1  0  0  0  0
 12 13  1  6  0  0  0
 12 14  1  0  0  0  0
 14 15  1  6  0  0  0
 14 16  1  0  0  0  0
 16 27  1  1  0  0  0
 18 19  2  0  0  0  0
 18 23  1  0  0  0  0
 19 20  1  0  0  0  0
 20 21  2  0  0  0  0
 21 22  1  0  0  0  0
 21 27  1  0  0  0  0
 22 23  2  0  0  0  0
 22 25  1  0  0  0  0
 23 24  1  0  0  0  0
 25 26  2  0  0  0  0
 26 27  1  0  0  0  0
M  END
>  <CHROM.1>
-144.99849240,-176.37165125,-167.39055720,-73.34980564,168.43021659,35.84219372
-113.16659684,14.57075471,4.85887494,30.46151387,3.14133406,0.90112572,-2.77311851

>  <Name>
ligand

>  <RI>
0

>  <Rbt.Current_Directory>
/home/itssahil/PROJECTS/Mol_Feturizer/Test_systems_manuscript/rnas/4aob

>  <Rbt.Executable>
rbdock ($Id: //depot/dev/client3/rdock/2013.1/src/exe/rbdock.cxx#4 $)

>  <Rbt.Library>
libRbt.so (2013.1, Build901 2013/11/27)

>  <Rbt.Parameter_File>
/export/apps/rDock/src/rDock_2013.1_src/data/scripts/dock_solv.prm

>  <Rbt.Receptor>
prm/pocket_docking_7.prm

>  <SCORE>
-13.4402

>  <SCORE.INTER>
-13.943

>  <SCORE.INTER.CONST>
1

>  <SCORE.INTER.POLAR>
0

>  <SCORE.INTER.ROT>
7

>  <SCORE.INTER.SOLV>
13.7277

>  <SCORE.INTER.VDW>
-22.1379

>  <SCORE.INTER.norm>
-0.516406

>  <SCORE.INTRA>
0.502739

>  <SCORE.INTRA.DIHEDRAL>
-0.662986

>  <SCORE.INTRA.DIHEDRAL.0>
6.31833

>  <SCORE.INTRA.POLAR>
0

>  <SCORE.INTRA.POLAR.0>
0

>  <SCORE.INTRA.REPUL>
0

>  <SCORE.INTRA.REPUL.0>
0

>  <SCORE.INTRA.SOLV>
-0.719374

>  <SCORE.INTRA.SOLV.lig_0>
-48.4015

>  <SCORE.INTRA.VDW>
1.19392

>  <SCORE.INTRA.VDW.0>
-2.83256

>  <SCORE.INTRA.norm>
0.0186199

>  <SCORE.RESTR>
0

>  <SCORE.RESTR.CAVITY>
0

>  <SCORE.RESTR.norm>
0

>  <SCORE.SYSTEM>
0

>  <SCORE.SYSTEM.CONST>
0

>  <SCORE.SYSTEM.DIHEDRAL>
0

>  <SCORE.SYSTEM.SOLV>
0

>  <SCORE.SYSTEM.norm>
0

>  <SCORE.heavy>
27

>  <SCORE.norm>
-0.497786

>  <RMSD>
5.437

$$$$
ligand
 OpenBabel02271912153D
libRbt.so/2013.1/901 2013/11/27
 27 29  0  0  0  0  0  0  0  0999 V2000
   16.7979    2.8012   29.1381 N   0  0  0  0  0  0  0  0  0  0  0  0
   16.1273    2.9834   30.4478 C   0  0  2  0  0  0  0  0  0  0  0  0
   16.9029    2.1803   31.4841 C   0  0  0  0  0  0  0  0  0  0  0  0
   17.0744    0.9162   31.4882 O   0  0  0  0  0  0  0  0  0  0  0  0
   14.6653    2.5512   30.3164 C   0  0  0  0  0  0  0  0  0  0  0  0
   13.8594    3.4685   29.4063 C   0  0  0  0  0  0  0  0  0  0  0  0
   13.6898    5.2707   29.6893 S   0  0  2  0  0  0  0  0  0  0  0  0
   12.8243    5.2195   31.2574 C   0  0  0  0  0  0  0  0  0  0  0  0
   12.3691    5.5989   28.4792 C   0  0  0  0  0  0  0  0  0  0  0  0
   12.0978    7.0720   28.3430 C   0  0  1  0  0  0  0  0  0  0  0  0
   11.7753    7.6964   29.6091 O   0  0  0  0  0  0  0  0  0  0  0  0
   13.2383    7.8606   27.7411 C   0  0  1  0  0  0  0  0  0  0  0  0
   12.9788    8.0374   26.4168 O   0  0  0  0  0  0  0  0  0  0  0  0
   13.0304    9.1942   28.4200 C   0  0  1  0  0  0  0  0  0  0  0  0
   12.0766    9.8305   27.6914 O   0  0  0  0  0  0  0  0  0  0  0  0
   12.4720    8.8933   29.8284 C   0  0  2  0  0  0  0  0  0  0  0  0
   17.3561    2.8208   32.4343 O   0  0  0  0  0  0  0  0  0  0  0  0
   14.5438    7.5524   34.4202 N   0  0  0  0  0  0  0  0  0  0  0  0
   13.2023    7.8126   33.9808 C   0  0  0  0  0  0  0  0  0  0  0  0
   12.7644    8.1657   32.6802 N   0  0  0  0  0  0  0  0  0  0  0  0
   13.7412    8.2259   31.8642 C   0  0  0  0  0  0  0  0  0  0  0  0
   15.1560    7.9707   32.2160 C   0  0  0  0  0  0  0  0  0  0  0  0
   15.5294    7.6534   33.4625 C   0  0  0  0  0  0  0  0  0  0  0  0
   16.8214    7.4719   33.6432 N   0  0  0  0  0  0  0  0  0  0  0  0
   15.9820    8.1056   31.2061 N   0  0  0  0  0  0  0  0  0  0  0  0
   15.0787    8.4412   30.2144 C   0  0  0  0  0  0  0  0  0  0  0  0
   13.6807    8.5130   30.6086 N   0  0  0  0  0  0  0  0  0  0  0  0
  2  1  1  6  0  0  0
  2  3  1  0  0  0  0
  2  5  1  0  0  0  0
  3  4  1  0  0  0  0
  3 17  1  0  0  0  0
  5  6  1  0  0  0  0
  7  6  1  6  0  0  0
  7  8  1  0  0  0  0
  7  9  1  0  0  0  0
 10  9  1  1  0  0  0
 10 11  1  0  0  0  0
 10 12  1  0  0  0  0
 11 16  1  0  0  0  0
 12 13  1  6  0  0  0
 12 14  1  0  0  0  0
 14 15  1  6  0  0  0
 14 16  1  0  0  0  0
 16 27  1  1  0  0  0
 18 19  2  0  0  0  0
 18 23  1  0  0  0  0
 19 20  1  0  0  0  0
 20 21  2  0  0  0  0
 21 22  1  0  0  0  0
 21 27  1  0  0  0  0
 22 23  2  0  0  0  0
 22 25  1  0  0  0  0
 23 24  1  0  0  0  0
 25 26  2  0  0  0  0
 26 27  1  0  0  0  0
M  END
>  <CHROM.1>
-61.89325797,-67.16061093,-57.41134481,-63.54839129,-173.13133680,-55.81623579
-76.70358343,14.24907714,6.28283970,30.51396253,0.39373651,0.99156243,-2.39560301

>  <Name>
ligand

>  <RI>
0

>  <Rbt.Current_Directory>
/home/itssahil/PROJECTS/Mol_Feturizer/Test_systems_manuscript/rnas/4aob

>  <Rbt.Executable>
rbdock ($Id: //depot/dev/client3/rdock/2013.1/src/exe/rbdock.cxx#4 $)

>  <Rbt.Library>
libRbt.so (2013.1, Build901 2013/11/27)

>  <Rbt.Parameter_File>
/export/apps/rDock/src/rDock_2013.1_src/data/scripts/dock_solv.prm

>  <Rbt.Receptor>
prm/pocket_docking_3.prm

>  <SCORE>
-9.62863

>  <SCORE.INTER>
-7.89258

>  <SCORE.INTER.CONST>
1

>  <SCORE.INTER.POLAR>
0

>  <SCORE.INTER.ROT>
7

>  <SCORE.INTER.SOLV>
12.132

>  <SCORE.INTER.VDW>
-17.5724

>  <SCORE.INTER.norm>
-0.292318

>  <SCORE.INTRA>
-2.04909

>  <SCORE.INTRA.DIHEDRAL>
-2.06691

>  <SCORE.INTRA.DIHEDRAL.0>
6.31833

>  <SCORE.INTRA.POLAR>
0

>  <SCORE.INTRA.POLAR.0>
0

>  <SCORE.INTRA.REPUL>
0

>  <SCORE.INTRA.REPUL.0>
0

>  <SCORE.INTRA.SOLV>
0.593749

>  <SCORE.INTRA.SOLV.lig_0>
-48.4015

>  <SCORE.INTRA.VDW>
-1.31251

>  <SCORE.INTRA.VDW.0>
-2.83256

>  <SCORE.INTRA.norm>
-0.0758923

>  <SCORE.RESTR>
0.313043

>  <SCORE.RESTR.CAVITY>
0.313043

>  <SCORE.RESTR.norm>
0.0115942

>  <SCORE.SYSTEM>
0

>  <SCORE.SYSTEM.CONST>
0

>  <SCORE.SYSTEM.DIHEDRAL>
0

>  <SCORE.SYSTEM.SOLV>
0

>  <SCORE.SYSTEM.norm>
0

>  <SCORE.heavy>
27

>  <SCORE.norm>
-0.356616

>  <RMSD>
5.441

$$$$
ligand
 OpenBabel02271912153D
libRbt.so/2013.1/901 2013/11/27
 27 29  0  0  0  0  0  0  0  0999 V2000
   11.6846    8.6582   26.2682 N   0  0  0  0  0  0  0  0  0  0  0  0
   11.7452    7.2215   26.6294 C   0  0  2  0  0  0  0  0  0  0  0  0
   10.6704    6.9585   27.6763 C   0  0  0  0  0  0  0  0  0  0  0  0
   10.1885    7.8089   28.4961 O   0  0  0  0  0  0  0  0  0  0  0  0
   13.1587    6.8960   27.1170 C   0  0  0  0  0  0  0  0  0  0  0  0
   13.4448    5.4004   27.1376 C   0  0  0  0  0  0  0  0  0  0  0  0
   15.0254    4.6863   27.7280 S   0  0  2  0  0  0  0  0  0  0  0  0
   15.1845    3.3565   26.5377 C   0  0  0  0  0  0  0  0  0  0  0  0
   14.3922    3.8554   29.2196 C   0  0  0  0  0  0  0  0  0  0  0  0
   15.4878    3.1396   29.9608 C   0  0  1  0  0  0  0  0  0  0  0  0
   16.4341    4.0515   30.5690 O   0  0  0  0  0  0  0  0  0  0  0  0
   14.9984    2.2185   31.0550 C   0  0  1  0  0  0  0  0  0  0  0  0
   14.9710    0.9507   30.5608 O   0  0  0  0  0  0  0  0  0  0  0  0
   16.1622    2.2998   32.0149 C   0  0  1  0  0  0  0  0  0  0  0  0
   17.0832    1.4167   31.5484 O   0  0  0  0  0  0  0  0  0  0  0  0
   16.7329    3.7307   31.9009 C   0  0  2  0  0  0  0  0  0  0  0  0
   10.2776    5.7940   27.7655 O   0  0  0  0  0  0  0  0  0  0  0  0
   15.9786    7.9190   34.9114 N   0  0  0  0  0  0  0  0  0  0  0  0
   17.1012    7.4319   34.1611 C   0  0  0  0  0  0  0  0  0  0  0  0
   17.1748    6.2636   33.3627 N   0  0  0  0  0  0  0  0  0  0  0  0
   16.0652    5.6370   33.3572 C   0  0  0  0  0  0  0  0  0  0  0  0
   14.8508    6.0581   34.0911 C   0  0  0  0  0  0  0  0  0  0  0  0
   14.8283    7.1633   34.8473 C   0  0  0  0  0  0  0  0  0  0  0  0
   13.6902    7.4118   35.4620 N   0  0  0  0  0  0  0  0  0  0  0  0
   13.8351    5.2422   33.9396 N   0  0  0  0  0  0  0  0  0  0  0  0
   14.4146    4.3079   33.1010 C   0  0  0  0  0  0  0  0  0  0  0  0
   15.7993    4.5449   32.7254 N   0  0  0  0  0  0  0  0  0  0  0  0
  2  1  1  1  0  0  0
  2  3  1  0  0  0  0
  2  5  1  0  0  0  0
  3  4  1  0  0  0  0
  3 17  1  0  0  0  0
  5  6  1  0  0  0  0
  7  6  1  6  0  0  0
  7  8  1  0  0  0  0
  7  9  1  0  0  0  0
 10  9  1  1  0  0  0
 10 11  1  0  0  0  0
 10 12  1  0  0  0  0
 11 16  1  0  0  0  0
 12 13  1  6  0  0  0
 12 14  1  0  0  0  0
 14 15  1  6  0  0  0
 14 16  1  0  0  0  0
 16 27  1  1  0  0  0
 18 19  2  0  0  0  0
 18 23  1  0  0  0  0
 19 20  1  0  0  0  0
 20 21  2  0  0  0  0
 21 22  1  0  0  0  0
 21 27  1  0  0  0  0
 22 23  2  0  0  0  0
 22 25  1  0  0  0  0
 23 24  1  0  0  0  0
 25 26  2  0  0  0  0
 26 27  1  0  0  0  0
M  END
>  <CHROM.1>
-26.45462658,-163.73842693,-177.73797035,-142.26361010,179.78791238,68.73983044
-101.56023989,14.49215417,5.12792429,30.58252882,2.45707243,0.88370407,-2.14922812

>  <Name>
ligand

>  <RI>
0

>  <Rbt.Current_Directory>
/home/itssahil/PROJECTS/Mol_Feturizer/Test_systems_manuscript/rnas/4aob

>  <Rbt.Executable>
rbdock ($Id: //depot/dev/client3/rdock/2013.1/src/exe/rbdock.cxx#4 $)

>  <Rbt.Library>
libRbt.so (2013.1, Build901 2013/11/27)

>  <Rbt.Parameter_File>
/export/apps/rDock/src/rDock_2013.1_src/data/scripts/dock_solv.prm

>  <Rbt.Receptor>
prm/pocket_docking_4.prm

>  <SCORE>
-9.69718

>  <SCORE.INTER>
-10.6793

>  <SCORE.INTER.CONST>
1

>  <SCORE.INTER.POLAR>
0

>  <SCORE.INTER.ROT>
7

>  <SCORE.INTER.SOLV>
12.9087

>  <SCORE.INTER.VDW>
-19.6891

>  <SCORE.INTER.norm>
-0.395528

>  <SCORE.INTRA>
0.980834

>  <SCORE.INTRA.DIHEDRAL>
2.11049

>  <SCORE.INTRA.DIHEDRAL.0>
6.31833

>  <SCORE.INTRA.POLAR>
0

>  <SCORE.INTRA.POLAR.0>
0

>  <SCORE.INTRA.REPUL>
0

>  <SCORE.INTRA.REPUL.0>
0

>  <SCORE.INTRA.SOLV>
-0.840279

>  <SCORE.INTRA.SOLV.lig_0>
-48.4015

>  <SCORE.INTRA.VDW>
0.345729

>  <SCORE.INTRA.VDW.0>
-2.83256

>  <SCORE.INTRA.norm>
0.0363272

>  <SCORE.RESTR>
0.00124283

>  <SCORE.RESTR.CAVITY>
0.00124283

>  <SCORE.RESTR.norm>
4.60308e-05

>  <SCORE.SYSTEM>
0

>  <SCORE.SYSTEM.CONST>
0

>  <SCORE.SYSTEM.DIHEDRAL>
0

>  <SCORE.SYSTEM.SOLV>
0

>  <SCORE.SYSTEM.norm>
0

>  <SCORE.heavy>
27

>  <SCORE.norm>
-0.359155

>  <RMSD>
5.443

$$$$
ligand
 OpenBabel02271912153D
libRbt.so/2013.1/901 2013/11/27
 27 29  0  0  0  0  0  0  0  0999 V2000
   14.7203    5.9023   28.2003 N   0  0  0  0  0  0  0  0  0  0  0  0
   13.8546    4.9372   28.9196 C   0  0  2  0  0  0  0  0  0  0  0  0
   12.4132    5.4091   28.7786 C   0  0  0  0  0  0  0  0  0  0  0  0
   11.6709    5.8628   29.7117 O   0  0  0  0  0  0  0  0  0  0  0  0
   14.3227    4.8451   30.3736 C   0  0  0  0  0  0  0  0  0  0  0  0
   13.6350    3.7259   31.1440 C   0  0  0  0  0  0  0  0  0  0  0  0
   13.9255    3.4036   32.9240 S   0  0  2  0  0  0  0  0  0  0  0  0
   12.8357    1.9959   33.1269 C   0  0  0  0  0  0  0  0  0  0  0  0
   12.9625    4.7942   33.5987 C   0  0  0  0  0  0  0  0  0  0  0  0
   13.8568    5.9007   34.0864 C   0  0  1  0  0  0  0  0  0  0  0  0
   14.8294    6.3068   33.0935 O   0  0  0  0  0  0  0  0  0  0  0  0
   13.1215    7.1488   34.5186 C   0  0  1  0  0  0  0  0  0  0  0  0
   12.9932    7.1173   35.8732 O   0  0  0  0  0  0  0  0  0  0  0  0
   14.1580    8.1981   34.1913 C   0  0  1  0  0  0  0  0  0  0  0  0
   15.0087    8.2143   35.2503 O   0  0  0  0  0  0  0  0  0  0  0  0
   14.9171    7.6981   32.9424 C   0  0  2  0  0  0  0  0  0  0  0  0
   11.9111    5.2827   27.6604 O   0  0  0  0  0  0  0  0  0  0  0  0
   14.3092    9.6730   28.1565 N   0  0  0  0  0  0  0  0  0  0  0  0
   15.4558    9.4256   28.9840 C   0  0  0  0  0  0  0  0  0  0  0  0
   15.4866    8.8663   30.2856 N   0  0  0  0  0  0  0  0  0  0  0  0
   14.3152    8.5660   30.6874 C   0  0  0  0  0  0  0  0  0  0  0  0
   13.0733    8.7755   29.9101 C   0  0  0  0  0  0  0  0  0  0  0  0
   13.0872    9.3216   28.6872 C   0  0  0  0  0  0  0  0  0  0  0  0
   11.9104    9.4698   28.1143 N   0  0  0  0  0  0  0  0  0  0  0  0
   11.9874    8.3970   30.5410 N   0  0  0  0  0  0  0  0  0  0  0  0
   12.5530    7.9420   31.7179 C   0  0  0  0  0  0  0  0  0  0  0  0
   14.0006    8.0350   31.8195 N   0  0  0  0  0  0  0  0  0  0  0  0
  2  1  1  6  0  0  0
  2  3  1  0  0  0  0
  2  5  1  0  0  0  0
  3  4  1  0  0  0  0
  3 17  1  0  0  0  0
  5  6  1  0  0  0  0
  7  6  1  6  0  0  0
  7  8  1  0  0  0  0
  7  9  1  0  0  0  0
 10  9  1  6  0  0  0
 10 11  1  0  0  0  0
 10 12  1  0  0  0  0
 11 16  1  0  0  0  0
 12 13  1  1  0  0  0
 12 14  1  0  0  0  0
 14 15  1  1  0  0  0
 14 16  1  0  0  0  0
 16 27  1  6  0  0  0
 18 19  2  0  0  0  0
 18 23  1  0  0  0  0
 19 20  1  0  0  0  0
 20 21  2  0  0  0  0
 21 22  1  0  0  0  0
 21 27  1  0  0  0  0
 22 23  2  0  0  0  0
 22 25  1  0  0  0  0
 23 24  1  0  0  0  0
 25 26  2  0  0  0  0
 26 27  1  0  0  0  0
M  END
>  <CHROM.1>
-111.55154194,-171.29815449,-177.30967241,-179.62712398,-104.32642882,51.38969988
-117.70355998,13.60783322,6.63777959,31.36681164,1.84325771,-1.35975326,-0.80580522

>  <Name>
ligand

>  <RI>
0

>  <Rbt.Current_Directory>
/home/itssahil/PROJECTS/Mol_Feturizer/Test_systems_manuscript/rnas/4aob

>  <Rbt.Executable>
rbdock ($Id: //depot/dev/client3/rdock/2013.1/src/exe/rbdock.cxx#4 $)

>  <Rbt.Library>
libRbt.so (2013.1, Build901 2013/11/27)

>  <Rbt.Parameter_File>
/export/apps/rDock/src/rDock_2013.1_src/data/scripts/dock_solv.prm

>  <Rbt.Receptor>
prm/pocket_docking_5.prm

>  <SCORE>
-17.7472

>  <SCORE.INTER>
-15.3777

>  <SCORE.INTER.CONST>
1

>  <SCORE.INTER.POLAR>
0

>  <SCORE.INTER.ROT>
7

>  <SCORE.INTER.SOLV>
10.1672

>  <SCORE.INTER.VDW>
-21.9075

>  <SCORE.INTER.norm>
-0.569543

>  <SCORE.INTRA>
-2.36951

>  <SCORE.INTRA.DIHEDRAL>
0.304517

>  <SCORE.INTRA.DIHEDRAL.0>
6.31833

>  <SCORE.INTRA.POLAR>
0

>  <SCORE.INTRA.POLAR.0>
0

>  <SCORE.INTRA.REPUL>
0

>  <SCORE.INTRA.REPUL.0>
0

>  <SCORE.INTRA.SOLV>
0.356722

>  <SCORE.INTRA.SOLV.lig_0>
-48.4015

>  <SCORE.INTRA.VDW>
-2.70013

>  <SCORE.INTRA.VDW.0>
-2.83256

>  <SCORE.INTRA.norm>
-0.0877596

>  <SCORE.RESTR>
0

>  <SCORE.RESTR.CAVITY>
0

>  <SCORE.RESTR.norm>
0

>  <SCORE.SYSTEM>
0

>  <SCORE.SYSTEM.CONST>
0

>  <SCORE.SYSTEM.DIHEDRAL>
0

>  <SCORE.SYSTEM.SOLV>
0

>  <SCORE.SYSTEM.norm>
0

>  <SCORE.heavy>
27

>  <SCORE.norm>
-0.657302

>  <RMSD>
5.443

$$$$
ligand
 OpenBabel02271912153D
libRbt.so/2013.1/901 2013/11/27
 27 29  0  0  0  0  0  0  0  0999 V2000
   14.7242    5.9010   28.1133 N   0  0  0  0  0  0  0  0  0  0  0  0
   13.8786    4.9165   28.8303 C   0  0  2  0  0  0  0  0  0  0  0  0
   12.4233    5.3198   28.6313 C   0  0  0  0  0  0  0  0  0  0  0  0
   11.7201    5.1237   27.5850 O   0  0  0  0  0  0  0  0  0  0  0  0
   14.3023    4.8821   30.3003 C   0  0  0  0  0  0  0  0  0  0  0  0
   13.6290    3.7615   31.0814 C   0  0  0  0  0  0  0  0  0  0  0  0
   13.9473    3.4404   32.8568 S   0  0  2  0  0  0  0  0  0  0  0  0
   12.8689    2.0262   33.0750 C   0  0  0  0  0  0  0  0  0  0  0  0
   12.9861    4.8250   33.5461 C   0  0  0  0  0  0  0  0  0  0  0  0
   13.8804    5.9406   34.0126 C   0  0  1  0  0  0  0  0  0  0  0  0
   14.8132    6.3685   32.9910 O   0  0  0  0  0  0  0  0  0  0  0  0
   13.1424    7.1744   34.4796 C   0  0  1  0  0  0  0  0  0  0  0  0
   13.0603    7.1305   35.8374 O   0  0  0  0  0  0  0  0  0  0  0  0
   14.1522    8.2411   34.1264 C   0  0  1  0  0  0  0  0  0  0  0  0
   15.0378    8.2615   35.1563 O   0  0  0  0  0  0  0  0  0  0  0  0
   14.8759    7.7620   32.8486 C   0  0  2  0  0  0  0  0  0  0  0  0
   11.9048    5.9441   29.5585 O   0  0  0  0  0  0  0  0  0  0  0  0
   14.1004    9.6092   28.0360 N   0  0  0  0  0  0  0  0  0  0  0  0
   15.2772    9.3498   28.8161 C   0  0  0  0  0  0  0  0  0  0  0  0
   15.3531    8.8297   30.1320 N   0  0  0  0  0  0  0  0  0  0  0  0
   14.1936    8.5800   30.5978 C   0  0  0  0  0  0  0  0  0  0  0  0
   12.9228    8.8063   29.8736 C   0  0  0  0  0  0  0  0  0  0  0  0
   12.8949    9.3142   28.6346 C   0  0  0  0  0  0  0  0  0  0  0  0
   11.6972    9.4832   28.1133 N   0  0  0  0  0  0  0  0  0  0  0  0
   11.8573    8.4828   30.5667 N   0  0  0  0  0  0  0  0  0  0  0  0
   12.4644    8.0456   31.7296 C   0  0  0  0  0  0  0  0  0  0  0  0
   13.9174    8.0943   31.7599 N   0  0  0  0  0  0  0  0  0  0  0  0
  2  1  1  6  0  0  0
  2  3  1  0  0  0  0
  2  5  1  0  0  0  0
  3  4  1  0  0  0  0
  3 17  1  0  0  0  0
  5  6  1  0  0  0  0
  7  6  1  6  0  0  0
  7  8  1  0  0  0  0
  7  9  1  0  0  0  0
 10  9  1  6  0  0  0
 10 11  1  0  0  0  0
 10 12  1  0  0  0  0
 11 16  1  0  0  0  0
 12 13  1  1  0  0  0
 12 14  1  0  0  0  0
 14 15  1  1  0  0  0
 14 16  1  0  0  0  0
 16 27  1  6  0  0  0
 18 19  2  0  0  0  0
 18 23  1  0  0  0  0
 19 20  1  0  0  0  0
 20 21  2  0  0  0  0
 21 22  1  0  0  0  0
 21 27  1  0  0  0  0
 22 23  2  0  0  0  0
 22 25  1  0  0  0  0
 23 24  1  0  0  0  0
 25 26  2  0  0  0  0
 26 27  1  0  0  0  0
M  END
>  <CHROM.1>
77.82748372,-171.86454059,179.02710909,-179.41682429,-103.94138574,52.47146179
-114.13316495,13.56691758,6.65384255,31.29254526,2.04432041,-1.37526534,-0.64049962

>  <Name>
ligand

>  <RI>
0

>  <Rbt.Current_Directory>
/home/itssahil/PROJECTS/Mol_Feturizer/Test_systems_manuscript/rnas/4aob

>  <Rbt.Executable>
rbdock ($Id: //depot/dev/client3/rdock/2013.1/src/exe/rbdock.cxx#4 $)

>  <Rbt.Library>
libRbt.so (2013.1, Build901 2013/11/27)

>  <Rbt.Parameter_File>
/export/apps/rDock/src/rDock_2013.1_src/data/scripts/dock_solv.prm

>  <Rbt.Receptor>
prm/pocket_docking_5.prm

>  <SCORE>
-16.8373

>  <SCORE.INTER>
-15.1079

>  <SCORE.INTER.CONST>
1

>  <SCORE.INTER.POLAR>
0

>  <SCORE.INTER.ROT>
7

>  <SCORE.INTER.SOLV>
10.2811

>  <SCORE.INTER.VDW>
-21.7656

>  <SCORE.INTER.norm>
-0.559553

>  <SCORE.INTRA>
-1.72934

>  <SCORE.INTRA.DIHEDRAL>
0.00701718

>  <SCORE.INTRA.DIHEDRAL.0>
6.31833

>  <SCORE.INTRA.POLAR>
0

>  <SCORE.INTRA.POLAR.0>
0

>  <SCORE.INTRA.REPUL>
0

>  <SCORE.INTRA.REPUL.0>
0

>  <SCORE.INTRA.SOLV>
0.484723

>  <SCORE.INTRA.SOLV.lig_0>
-48.4015

>  <SCORE.INTRA.VDW>
-1.97521

>  <SCORE.INTRA.VDW.0>
-2.83256

>  <SCORE.INTRA.norm>
-0.0640497

>  <SCORE.RESTR>
0

>  <SCORE.RESTR.CAVITY>
0

>  <SCORE.RESTR.norm>
0

>  <SCORE.SYSTEM>
0

>  <SCORE.SYSTEM.CONST>
0

>  <SCORE.SYSTEM.DIHEDRAL>
0

>  <SCORE.SYSTEM.SOLV>
0

>  <SCORE.SYSTEM.norm>
0

>  <SCORE.heavy>
27

>  <SCORE.norm>
-0.623602

>  <RMSD>
5.448

$$$$
ligand
 OpenBabel02271912153D
libRbt.so/2013.1/901 2013/11/27
 27 29  0  0  0  0  0  0  0  0999 V2000
   15.9991    4.4932   29.2983 N   0  0  0  0  0  0  0  0  0  0  0  0
   14.9763    4.1040   28.2978 C   0  0  2  0  0  0  0  0  0  0  0  0
   15.0171    5.1253   27.1683 C   0  0  0  0  0  0  0  0  0  0  0  0
   15.0960    6.3921   27.2963 O   0  0  0  0  0  0  0  0  0  0  0  0
   13.6151    4.0222   28.9920 C   0  0  0  0  0  0  0  0  0  0  0  0
   13.5399    2.8918   30.0097 C   0  0  0  0  0  0  0  0  0  0  0  0
   14.3473    2.9617   31.6527 S   0  0  2  0  0  0  0  0  0  0  0  0
   13.9905    1.2940   32.2023 C   0  0  0  0  0  0  0  0  0  0  0  0
   13.0999    3.9738   32.5106 C   0  0  0  0  0  0  0  0  0  0  0  0
   13.6676    5.2953   32.9503 C   0  0  1  0  0  0  0  0  0  0  0  0
   14.4873    5.9145   31.9298 O   0  0  0  0  0  0  0  0  0  0  0  0
   12.6272    6.3137   33.3572 C   0  0  1  0  0  0  0  0  0  0  0  0
   12.5228    6.2938   34.7141 O   0  0  0  0  0  0  0  0  0  0  0  0
   13.3408    7.5913   32.9817 C   0  0  1  0  0  0  0  0  0  0  0  0
   14.1642    7.8705   34.0255 O   0  0  0  0  0  0  0  0  0  0  0  0
   14.1965    7.2724   31.7359 C   0  0  2  0  0  0  0  0  0  0  0  0
   14.9066    4.6727   26.0275 O   0  0  0  0  0  0  0  0  0  0  0  0
   12.2013    9.8704   27.6807 N   0  0  0  0  0  0  0  0  0  0  0  0
   13.2866   10.1317   28.5831 C   0  0  0  0  0  0  0  0  0  0  0  0
   13.7400    9.3262   29.6571 N   0  0  0  0  0  0  0  0  0  0  0  0
   13.0539    8.2568   29.7544 C   0  0  0  0  0  0  0  0  0  0  0  0
   11.9223    7.8931   28.8726 C   0  0  0  0  0  0  0  0  0  0  0  0
   11.5161    8.6912   27.8766 C   0  0  0  0  0  0  0  0  0  0  0  0
   10.4851    8.2572   27.1811 N   0  0  0  0  0  0  0  0  0  0  0  0
   11.3646    6.7460   29.1782 N   0  0  0  0  0  0  0  0  0  0  0  0
   12.1554    6.3860   30.2538 C   0  0  0  0  0  0  0  0  0  0  0  0
   13.2143    7.3135   30.6188 N   0  0  0  0  0  0  0  0  0  0  0  0
  2  1  1  1  0  0  0
  2  3  1  0  0  0  0
  2  5  1  0  0  0  0
  3  4  1  0  0  0  0
  3 17  1  0  0  0  0
  5  6  1  0  0  0  0
  7  6  1  6  0  0  0
  7  8  1  0  0  0  0
  7  9  1  0  0  0  0
 10  9  1  6  0  0  0
 10 11  1  0  0  0  0
 10 12  1  0  0  0  0
 11 16  1  0  0  0  0
 12 13  1  1  0  0  0
 12 14  1  0  0  0  0
 14 15  1  1  0  0  0
 14 16  1  0  0  0  0
 16 27  1  6  0  0  0
 18 19  2  0  0  0  0
 18 23  1  0  0  0  0
 19 20  1  0  0  0  0
 20 21  2  0  0  0  0
 21 22  1  0  0  0  0
 21 27  1  0  0  0  0
 22 23  2  0  0  0  0
 22 25  1  0  0  0  0
 23 24  1  0  0  0  0
 25 26  2  0  0  0  0
 26 27  1  0  0  0  0
M  END
>  <CHROM.1>
-43.89368462,-66.63140477,74.98242076,-174.58746222,-116.44292891,43.50492032
-150.13775225,13.50606812,6.06139790,30.28985701,-0.96977525,1.21668340,-1.35805822

>  <Name>
ligand

>  <RI>
0

>  <Rbt.Current_Directory>
/home/itssahil/PROJECTS/Mol_Feturizer/Test_systems_manuscript/rnas/4aob

>  <Rbt.Executable>
rbdock ($Id: //depot/dev/client3/rdock/2013.1/src/exe/rbdock.cxx#4 $)

>  <Rbt.Library>
libRbt.so (2013.1, Build901 2013/11/27)

>  <Rbt.Parameter_File>
/export/apps/rDock/src/rDock_2013.1_src/data/scripts/dock_solv.prm

>  <Rbt.Receptor>
prm/pocket_docking_5.prm

>  <SCORE>
-12.1304

>  <SCORE.INTER>
-12.4252

>  <SCORE.INTER.CONST>
1

>  <SCORE.INTER.POLAR>
0

>  <SCORE.INTER.ROT>
7

>  <SCORE.INTER.SOLV>
9.43756

>  <SCORE.INTER.VDW>
-19.696

>  <SCORE.INTER.norm>
-0.460191

>  <SCORE.INTRA>
0.294751

>  <SCORE.INTRA.DIHEDRAL>
2.73871

>  <SCORE.INTRA.DIHEDRAL.0>
6.31833

>  <SCORE.INTRA.POLAR>
0

>  <SCORE.INTRA.POLAR.0>
0

>  <SCORE.INTRA.REPUL>
0

>  <SCORE.INTRA.REPUL.0>
0

>  <SCORE.INTRA.SOLV>
2.32681

>  <SCORE.INTRA.SOLV.lig_0>
-48.4015

>  <SCORE.INTRA.VDW>
-2.23801

>  <SCORE.INTRA.VDW.0>
-2.83256

>  <SCORE.INTRA.norm>
0.0109167

>  <SCORE.RESTR>
0

>  <SCORE.RESTR.CAVITY>
0

>  <SCORE.RESTR.norm>
0

>  <SCORE.SYSTEM>
0

>  <SCORE.SYSTEM.CONST>
0

>  <SCORE.SYSTEM.DIHEDRAL>
0

>  <SCORE.SYSTEM.SOLV>
0

>  <SCORE.SYSTEM.norm>
0

>  <SCORE.heavy>
27

>  <SCORE.norm>
-0.449274

>  <RMSD>
5.451

$$$$
ligand
 OpenBabel02271912153D
libRbt.so/2013.1/901 2013/11/27
 27 29  0  0  0  0  0  0  0  0999 V2000
   13.3102    9.2678   27.6274 N   0  0  0  0  0  0  0  0  0  0  0  0
   12.2131    8.5644   26.9204 C   0  0  2  0  0  0  0  0  0  0  0  0
   11.0627    9.5481   26.7496 C   0  0  0  0  0  0  0  0  0  0  0  0
    9.8353    9.3316   27.0219 O   0  0  0  0  0  0  0  0  0  0  0  0
   11.8308    7.3181   27.7218 C   0  0  0  0  0  0  0  0  0  0  0  0
   12.9946    6.3520   27.8993 C   0  0  0  0  0  0  0  0  0  0  0  0
   12.8859    4.8179   28.8950 S   0  0  2  0  0  0  0  0  0  0  0  0
   12.6126    5.5569   30.5043 C   0  0  0  0  0  0  0  0  0  0  0  0
   14.6570    4.3945   28.9110 C   0  0  0  0  0  0  0  0  0  0  0  0
   14.8970    3.0445   29.5289 C   0  0  1  0  0  0  0  0  0  0  0  0
   16.3013    2.6932   29.5673 O   0  0  0  0  0  0  0  0  0  0  0  0
   14.3693    2.9038   30.9385 C   0  0  1  0  0  0  0  0  0  0  0  0
   13.1599    2.2826   30.8781 O   0  0  0  0  0  0  0  0  0  0  0  0
   15.3574    1.9067   31.4969 C   0  0  1  0  0  0  0  0  0  0  0  0
   14.9083    0.6868   31.1023 O   0  0  0  0  0  0  0  0  0  0  0  0
   16.7117    2.1914   30.8106 C   0  0  2  0  0  0  0  0  0  0  0  0
   11.3526   10.6351   26.2469 O   0  0  0  0  0  0  0  0  0  0  0  0
   19.4122    6.6496   30.7279 N   0  0  0  0  0  0  0  0  0  0  0  0
   19.0102    5.7199   29.7107 C   0  0  0  0  0  0  0  0  0  0  0  0
   18.2575    4.5296   29.8665 N   0  0  0  0  0  0  0  0  0  0  0  0
   17.9307    4.3455   31.0843 C   0  0  0  0  0  0  0  0  0  0  0  0
   18.2902    5.2451   32.2032 C   0  0  0  0  0  0  0  0  0  0  0  0
   19.0167    6.3544   32.0143 C   0  0  0  0  0  0  0  0  0  0  0  0
   19.2825    7.0546   33.0978 N   0  0  0  0  0  0  0  0  0  0  0  0
   17.8489    4.8372   33.3691 N   0  0  0  0  0  0  0  0  0  0  0  0
   17.2039    3.6785   32.9773 C   0  0  0  0  0  0  0  0  0  0  0  0
   17.2412    3.3642   31.5580 N   0  0  0  0  0  0  0  0  0  0  0  0
  2  1  1  1  0  0  0
  2  3  1  0  0  0  0
  2  5  1  0  0  0  0
  3  4  1  0  0  0  0
  3 17  1  0  0  0  0
  5  6  1  0  0  0  0
  7  6  1  6  0  0  0
  7  8  1  0  0  0  0
  7  9  1  0  0  0  0
 10  9  1  1  0  0  0
 10 11  1  0  0  0  0
 10 12  1  0  0  0  0
 11 16  1  0  0  0  0
 12 13  1  6  0  0  0
 12 14  1  0  0  0  0
 14 15  1  6  0  0  0
 14 16  1  0  0  0  0
 16 27  1  1  0  0  0
 18 19  2  0  0  0  0
 18 23  1  0  0  0  0
 19 20  1  0  0  0  0
 20 21  2  0  0  0  0
 21 22  1  0  0  0  0
 21 27  1  0  0  0  0
 22 23  2  0  0  0  0
 22 25  1  0  0  0  0
 23 24  1  0  0  0  0
 25 26  2  0  0  0  0
 26 27  1  0  0  0  0
M  END
>  <CHROM.1>
-131.62680975,-59.40554231,176.22182062,-64.40279802,-172.78169339,-179.29603753
-38.09192191,15.03664792,5.28444776,29.87954217,-2.42342466,0.43823802,2.84042543

>  <Name>
ligand

>  <RI>
0

>  <Rbt.Current_Directory>
/home/itssahil/PROJECTS/Mol_Feturizer/Test_systems_manuscript/rnas/4aob

>  <Rbt.Executable>
rbdock ($Id: //depot/dev/client3/rdock/2013.1/src/exe/rbdock.cxx#4 $)

>  <Rbt.Library>
libRbt.so (2013.1, Build901 2013/11/27)

>  <Rbt.Parameter_File>
/export/apps/rDock/src/rDock_2013.1_src/data/scripts/dock_solv.prm

>  <Rbt.Receptor>
prm/pocket_docking_6.prm

>  <SCORE>
-10.7522

>  <SCORE.INTER>
-10.6184

>  <SCORE.INTER.CONST>
1

>  <SCORE.INTER.POLAR>
0

>  <SCORE.INTER.ROT>
7

>  <SCORE.INTER.SOLV>
10.0968

>  <SCORE.INTER.VDW>
-18.7112

>  <SCORE.INTER.norm>
-0.393275

>  <SCORE.INTRA>
-0.13376

>  <SCORE.INTRA.DIHEDRAL>
-2.52929

>  <SCORE.INTRA.DIHEDRAL.0>
6.31833

>  <SCORE.INTRA.POLAR>
0

>  <SCORE.INTRA.POLAR.0>
0

>  <SCORE.INTRA.REPUL>
0

>  <SCORE.INTRA.REPUL.0>
0

>  <SCORE.INTRA.SOLV>
0.303229

>  <SCORE.INTRA.SOLV.lig_0>
-48.4015

>  <SCORE.INTRA.VDW>
0.979269

>  <SCORE.INTRA.VDW.0>
-2.83256

>  <SCORE.INTRA.norm>
-0.00495409

>  <SCORE.RESTR>
0

>  <SCORE.RESTR.CAVITY>
0

>  <SCORE.RESTR.norm>
0

>  <SCORE.SYSTEM>
0

>  <SCORE.SYSTEM.CONST>
0

>  <SCORE.SYSTEM.DIHEDRAL>
0

>  <SCORE.SYSTEM.SOLV>
0

>  <SCORE.SYSTEM.norm>
0

>  <SCORE.heavy>
27

>  <SCORE.norm>
-0.39823

>  <RMSD>
5.454

$$$$
ligand
 OpenBabel02271912153D
libRbt.so/2013.1/901 2013/11/27
 27 29  0  0  0  0  0  0  0  0999 V2000
   14.7471    3.4217   28.8001 N   0  0  0  0  0  0  0  0  0  0  0  0
   15.1063    2.8779   30.1318 C   0  0  2  0  0  0  0  0  0  0  0  0
   16.4341    2.1444   29.9929 C   0  0  0  0  0  0  0  0  0  0  0  0
   16.9808    1.3967   30.8701 O   0  0  0  0  0  0  0  0  0  0  0  0
   13.9668    1.9811   30.6207 C   0  0  0  0  0  0  0  0  0  0  0  0
   14.0465    1.6884   32.1131 C   0  0  0  0  0  0  0  0  0  0  0  0
   13.5986    2.9096   33.4033 S   0  0  2  0  0  0  0  0  0  0  0  0
   11.8774    3.1482   32.9661 C   0  0  0  0  0  0  0  0  0  0  0  0
   14.4305    4.3614   32.6846 C   0  0  0  0  0  0  0  0  0  0  0  0
   14.4339    5.5247   33.6379 C   0  0  1  0  0  0  0  0  0  0  0  0
   15.2320    6.6335   33.1577 O   0  0  0  0  0  0  0  0  0  0  0  0
   13.0612    6.0740   33.9524 C   0  0  1  0  0  0  0  0  0  0  0  0
   12.6539    5.5433   35.1377 O   0  0  0  0  0  0  0  0  0  0  0  0
   13.4034    7.5236   34.2050 C   0  0  1  0  0  0  0  0  0  0  0  0
   13.8287    7.5796   35.4940 O   0  0  0  0  0  0  0  0  0  0  0  0
   14.5825    7.8711   33.2696 C   0  0  2  0  0  0  0  0  0  0  0  0
   17.0553    2.3465   28.9481 O   0  0  0  0  0  0  0  0  0  0  0  0
   15.0131    9.4310   28.3142 N   0  0  0  0  0  0  0  0  0  0  0  0
   15.9561    9.2736   29.3850 C   0  0  0  0  0  0  0  0  0  0  0  0
   15.7075    8.8249   30.7059 N   0  0  0  0  0  0  0  0  0  0  0  0
   14.4772    8.5380   30.8727 C   0  0  0  0  0  0  0  0  0  0  0  0
   13.4304    8.6602   29.8336 C   0  0  0  0  0  0  0  0  0  0  0  0
   13.7057    9.1031   28.6000 C   0  0  0  0  0  0  0  0  0  0  0  0
   12.6788    9.1822   27.7789 N   0  0  0  0  0  0  0  0  0  0  0  0
   12.2346    8.3161   30.2484 N   0  0  0  0  0  0  0  0  0  0  0  0
   12.5351    7.9704   31.5530 C   0  0  0  0  0  0  0  0  0  0  0  0
   13.9276    8.0973   31.9527 N   0  0  0  0  0  0  0  0  0  0  0  0
  2  1  1  6  0  0  0
  2  3  1  0  0  0  0
  2  5  1  0  0  0  0
  3  4  1  0  0  0  0
  3 17  1  0  0  0  0
  5  6  1  0  0  0  0
  7  6  1  6  0  0  0
  7  8  1  0  0  0  0
  7  9  1  0  0  0  0
 10  9  1  6  0  0  0
 10 11  1  0  0  0  0
 10 12  1  0  0  0  0
 11 16  1  0  0  0  0
 12 13  1  1  0  0  0
 12 14  1  0  0  0  0
 14 15  1  1  0  0  0
 14 16  1  0  0  0  0
 16 27  1  6  0  0  0
 18 19  2  0  0  0  0
 18 23  1  0  0  0  0
 19 20  1  0  0  0  0
 20 21  2  0  0  0  0
 21 22  1  0  0  0  0
 21 27  1  0  0  0  0
 22 23  2  0  0  0  0
 22 25  1  0  0  0  0
 23 24  1  0  0  0  0
 25 26  2  0  0  0  0
 26 27  1  0  0  0  0
M  END
>  <CHROM.1>
-170.04848677,-163.91147750,75.26279569,61.17024704,-170.99024702,172.79265530
-80.65592613,14.24570161,5.71004613,31.58131253,-1.22000826,1.18544449,-0.51263297

>  <Name>
ligand

>  <RI>
0

>  <Rbt.Current_Directory>
/home/itssahil/PROJECTS/Mol_Feturizer/Test_systems_manuscript/rnas/4aob

>  <Rbt.Executable>
rbdock ($Id: //depot/dev/client3/rdock/2013.1/src/exe/rbdock.cxx#4 $)

>  <Rbt.Library>
libRbt.so (2013.1, Build901 2013/11/27)

>  <Rbt.Parameter_File>
/export/apps/rDock/src/rDock_2013.1_src/data/scripts/dock_solv.prm

>  <Rbt.Receptor>
prm/pocket_docking_3.prm

>  <SCORE>
-15.85

>  <SCORE.INTER>
-17.2606

>  <SCORE.INTER.CONST>
1

>  <SCORE.INTER.POLAR>
0

>  <SCORE.INTER.ROT>
7

>  <SCORE.INTER.SOLV>
11.5332

>  <SCORE.INTER.VDW>
-23.6181

>  <SCORE.INTER.norm>
-0.63928

>  <SCORE.INTRA>
1.41056

>  <SCORE.INTRA.DIHEDRAL>
-0.0417727

>  <SCORE.INTRA.DIHEDRAL.0>
6.31833

>  <SCORE.INTRA.POLAR>
0

>  <SCORE.INTRA.POLAR.0>
0

>  <SCORE.INTRA.REPUL>
0

>  <SCORE.INTRA.REPUL.0>
0

>  <SCORE.INTRA.SOLV>
0.165723

>  <SCORE.INTRA.SOLV.lig_0>
-48.4015

>  <SCORE.INTRA.VDW>
1.34858

>  <SCORE.INTRA.VDW.0>
-2.83256

>  <SCORE.INTRA.norm>
0.0522429

>  <SCORE.RESTR>
0

>  <SCORE.RESTR.CAVITY>
0

>  <SCORE.RESTR.norm>
0

>  <SCORE.SYSTEM>
0

>  <SCORE.SYSTEM.CONST>
0

>  <SCORE.SYSTEM.DIHEDRAL>
0

>  <SCORE.SYSTEM.SOLV>
0

>  <SCORE.SYSTEM.norm>
0

>  <SCORE.heavy>
27

>  <SCORE.norm>
-0.587037

>  <RMSD>
5.469

$$$$
ligand
 OpenBabel02271912153D
libRbt.so/2013.1/901 2013/11/27
 27 29  0  0  0  0  0  0  0  0999 V2000
   18.2255    7.8061   31.4402 N   0  0  0  0  0  0  0  0  0  0  0  0
   17.1156    6.8608   31.7103 C   0  0  2  0  0  0  0  0  0  0  0  0
   15.9037    7.3249   30.9126 C   0  0  0  0  0  0  0  0  0  0  0  0
   15.3095    8.4483   31.0242 O   0  0  0  0  0  0  0  0  0  0  0  0
   16.8659    6.8136   33.2193 C   0  0  0  0  0  0  0  0  0  0  0  0
   15.8630    5.7387   33.6171 C   0  0  0  0  0  0  0  0  0  0  0  0
   14.1318    5.7069   33.0185 S   0  0  2  0  0  0  0  0  0  0  0  0
   13.4221    6.8755   34.1767 C   0  0  0  0  0  0  0  0  0  0  0  0
   13.6541    4.0855   33.6960 C   0  0  0  0  0  0  0  0  0  0  0  0
   13.9874    2.9691   32.7449 C   0  0  1  0  0  0  0  0  0  0  0  0
   12.8787    2.6289   31.8778 O   0  0  0  0  0  0  0  0  0  0  0  0
   15.1751    3.2474   31.8522 C   0  0  1  0  0  0  0  0  0  0  0  0
   16.2671    2.6482   32.4009 O   0  0  0  0  0  0  0  0  0  0  0  0
   14.7887    2.4436   30.6328 C   0  0  1  0  0  0  0  0  0  0  0  0
   15.1660    1.1666   30.9020 O   0  0  0  0  0  0  0  0  0  0  0  0
   13.2485    2.5034   30.5311 C   0  0  2  0  0  0  0  0  0  0  0  0
   15.4288    6.5037   30.1262 O   0  0  0  0  0  0  0  0  0  0  0  0
   13.6326    5.6266   26.3750 N   0  0  0  0  0  0  0  0  0  0  0  0
   13.9641    4.2497   26.6091 C   0  0  0  0  0  0  0  0  0  0  0  0
   13.7990    3.5046   27.8030 N   0  0  0  0  0  0  0  0  0  0  0  0
   13.2776    4.2154   28.7231 C   0  0  0  0  0  0  0  0  0  0  0  0
   12.8959    5.6383   28.5807 C   0  0  0  0  0  0  0  0  0  0  0  0
   13.0828    6.3104   27.4374 C   0  0  0  0  0  0  0  0  0  0  0  0
   12.7176    7.5758   27.4523 N   0  0  0  0  0  0  0  0  0  0  0  0
   12.3881    6.1587   29.6724 N   0  0  0  0  0  0  0  0  0  0  0  0
   12.4462    5.0537   30.5015 C   0  0  0  0  0  0  0  0  0  0  0  0
   12.9911    3.8364   29.9218 N   0  0  0  0  0  0  0  0  0  0  0  0
  2  1  1  1  0  0  0
  2  3  1  0  0  0  0
  2  5  1  0  0  0  0
  3  4  1  0  0  0  0
  3 17  1  0  0  0  0
  5  6  1  0  0  0  0
  7  6  1  1  0  0  0
  7  8  1  0  0  0  0
  7  9  1  0  0  0  0
 10  9  1  6  0  0  0
 10 11  1  0  0  0  0
 10 12  1  0  0  0  0
 11 16  1  0  0  0  0
 12 13  1  1  0  0  0
 12 14  1  0  0  0  0
 14 15  1  1  0  0  0
 14 16  1  0  0  0  0
 16 27  1  6  0  0  0
 18 19  2  0  0  0  0
 18 23  1  0  0  0  0
 19 20  1  0  0  0  0
 20 21  2  0  0  0  0
 21 22  1  0  0  0  0
 21 27  1  0  0  0  0
 22 23  2  0  0  0  0
 22 25  1  0  0  0  0
 23 24  1  0  0  0  0
 25 26  2  0  0  0  0
 26 27  1  0  0  0  0
M  END
>  <CHROM.1>
-60.44228109,-172.70596009,-60.46743939,-82.06365508,-87.38120365,-93.09264918
174.41688422,14.41336307,5.05644859,30.81003971,-0.49232742,-1.09696417,-0.67753515

>  <Name>
ligand

>  <RI>
0

>  <Rbt.Current_Directory>
/home/itssahil/PROJECTS/Mol_Feturizer/Test_systems_manuscript/rnas/4aob

>  <Rbt.Executable>
rbdock ($Id: //depot/dev/client3/rdock/2013.1/src/exe/rbdock.cxx#4 $)

>  <Rbt.Library>
libRbt.so (2013.1, Build901 2013/11/27)

>  <Rbt.Parameter_File>
/export/apps/rDock/src/rDock_2013.1_src/data/scripts/dock_solv.prm

>  <Rbt.Receptor>
prm/pocket_docking_5.prm

>  <SCORE>
-12.6349

>  <SCORE.INTER>
-11.162

>  <SCORE.INTER.CONST>
1

>  <SCORE.INTER.POLAR>
0

>  <SCORE.INTER.ROT>
7

>  <SCORE.INTER.SOLV>
7.27014

>  <SCORE.INTER.VDW>
-18.1314

>  <SCORE.INTER.norm>
-0.413407

>  <SCORE.INTRA>
-1.47287

>  <SCORE.INTRA.DIHEDRAL>
1.58093

>  <SCORE.INTRA.DIHEDRAL.0>
6.31833

>  <SCORE.INTRA.POLAR>
0

>  <SCORE.INTRA.POLAR.0>
0

>  <SCORE.INTRA.REPUL>
0

>  <SCORE.INTRA.REPUL.0>
0

>  <SCORE.INTRA.SOLV>
-0.162396

>  <SCORE.INTRA.SOLV.lig_0>
-48.4015

>  <SCORE.INTRA.VDW>
-2.18214

>  <SCORE.INTRA.VDW.0>
-2.83256

>  <SCORE.INTRA.norm>
-0.0545508

>  <SCORE.RESTR>
0

>  <SCORE.RESTR.CAVITY>
0

>  <SCORE.RESTR.norm>
0

>  <SCORE.SYSTEM>
0

>  <SCORE.SYSTEM.CONST>
0

>  <SCORE.SYSTEM.DIHEDRAL>
0

>  <SCORE.SYSTEM.SOLV>
0

>  <SCORE.SYSTEM.norm>
0

>  <SCORE.heavy>
27

>  <SCORE.norm>
-0.467958

>  <RMSD>
5.479

$$$$
ligand
 OpenBabel02271912153D
libRbt.so/2013.1/901 2013/11/27
 27 29  0  0  0  0  0  0  0  0999 V2000
   13.9463    8.3661   25.7125 N   0  0  0  0  0  0  0  0  0  0  0  0
   14.4335    7.0048   25.3838 C   0  0  2  0  0  0  0  0  0  0  0  0
   13.4883    6.4092   24.3483 C   0  0  0  0  0  0  0  0  0  0  0  0
   12.2156    6.3642   24.4229 O   0  0  0  0  0  0  0  0  0  0  0  0
   14.5129    6.1857   26.6739 C   0  0  0  0  0  0  0  0  0  0  0  0
   15.0161    4.7674   26.4410 C   0  0  0  0  0  0  0  0  0  0  0  0
   15.0423    3.4821   27.7463 S   0  0  2  0  0  0  0  0  0  0  0  0
   13.3811    3.7042   28.3801 C   0  0  0  0  0  0  0  0  0  0  0  0
   16.0847    4.3610   28.9534 C   0  0  0  0  0  0  0  0  0  0  0  0
   16.7400    3.4084   29.9151 C   0  0  1  0  0  0  0  0  0  0  0  0
   17.6412    4.0763   30.8309 O   0  0  0  0  0  0  0  0  0  0  0  0
   15.7705    2.6094   30.7558 C   0  0  1  0  0  0  0  0  0  0  0  0
   15.6181    1.3860   30.1792 O   0  0  0  0  0  0  0  0  0  0  0  0
   16.5959    2.4153   32.0062 C   0  0  1  0  0  0  0  0  0  0  0  0
   17.4023    1.3524   31.7506 O   0  0  0  0  0  0  0  0  0  0  0  0
   17.4661    3.6817   32.1650 C   0  0  2  0  0  0  0  0  0  0  0  0
   14.0222    5.8732   23.3756 O   0  0  0  0  0  0  0  0  0  0  0  0
   16.8067    8.0992   34.8531 N   0  0  0  0  0  0  0  0  0  0  0  0
   17.9641    7.4018   34.3686 C   0  0  0  0  0  0  0  0  0  0  0  0
   18.0074    6.1931   33.6303 N   0  0  0  0  0  0  0  0  0  0  0  0
   16.8353    5.7476   33.4039 C   0  0  0  0  0  0  0  0  0  0  0  0
   15.5819    6.3932   33.8541 C   0  0  0  0  0  0  0  0  0  0  0  0
   15.5860    7.5293   34.5636 C   0  0  0  0  0  0  0  0  0  0  0  0
   14.4024    7.9861   34.9175 N   0  0  0  0  0  0  0  0  0  0  0  0
   14.4992    5.7382   33.5092 N   0  0  0  0  0  0  0  0  0  0  0  0
   15.0774    4.6794   32.8334 C   0  0  0  0  0  0  0  0  0  0  0  0
   16.5294    4.6764   32.7546 N   0  0  0  0  0  0  0  0  0  0  0  0
  2  1  1  1  0  0  0
  2  3  1  0  0  0  0
  2  5  1  0  0  0  0
  3  4  1  0  0  0  0
  3 17  1  0  0  0  0
  5  6  1  0  0  0  0
  7  6  1  6  0  0  0
  7  8  1  0  0  0  0
  7  9  1  0  0  0  0
 10  9  1  1  0  0  0
 10 11  1  0  0  0  0
 10 12  1  0  0  0  0
 11 16  1  0  0  0  0
 12 13  1  6  0  0  0
 12 14  1  0  0  0  0
 14 15  1  6  0  0  0
 14 16  1  0  0  0  0
 16 27  1  1  0  0  0
 18 19  2  0  0  0  0
 18 23  1  0  0  0  0
 19 20  1  0  0  0  0
 20 21  2  0  0  0  0
 21 22  1  0  0  0  0
 21 27  1  0  0  0  0
 22 23  2  0  0  0  0
 22 25  1  0  0  0  0
 23 24  1  0  0  0  0
 25 26  2  0  0  0  0
 26 27  1  0  0  0  0
M  END
>  <CHROM.1>
-50.28740637,-179.56036906,-172.76435616,47.38253435,-158.08356738,176.29883266
-94.01334681,15.53117760,5.04472240,30.05128460,2.43402404,1.17148207,-2.38677539

>  <Name>
ligand

>  <RI>
0

>  <Rbt.Current_Directory>
/home/itssahil/PROJECTS/Mol_Feturizer/Test_systems_manuscript/rnas/4aob

>  <Rbt.Executable>
rbdock ($Id: //depot/dev/client3/rdock/2013.1/src/exe/rbdock.cxx#4 $)

>  <Rbt.Library>
libRbt.so (2013.1, Build901 2013/11/27)

>  <Rbt.Parameter_File>
/export/apps/rDock/src/rDock_2013.1_src/data/scripts/dock_solv.prm

>  <Rbt.Receptor>
prm/pocket_docking_7.prm

>  <SCORE>
-12.8542

>  <SCORE.INTER>
-13.1878

>  <SCORE.INTER.CONST>
1

>  <SCORE.INTER.POLAR>
0

>  <SCORE.INTER.ROT>
7

>  <SCORE.INTER.SOLV>
13.11

>  <SCORE.INTER.VDW>
-21.4286

>  <SCORE.INTER.norm>
-0.488438

>  <SCORE.INTRA>
0.333631

>  <SCORE.INTRA.DIHEDRAL>
-0.566372

>  <SCORE.INTRA.DIHEDRAL.0>
6.31833

>  <SCORE.INTRA.POLAR>
0

>  <SCORE.INTRA.POLAR.0>
0

>  <SCORE.INTRA.REPUL>
0

>  <SCORE.INTRA.REPUL.0>
0

>  <SCORE.INTRA.SOLV>
-0.601126

>  <SCORE.INTRA.SOLV.lig_0>
-48.4015

>  <SCORE.INTRA.VDW>
0.91738

>  <SCORE.INTRA.VDW.0>
-2.83256

>  <SCORE.INTRA.norm>
0.0123567

>  <SCORE.RESTR>
0

>  <SCORE.RESTR.CAVITY>
0

>  <SCORE.RESTR.norm>
0

>  <SCORE.SYSTEM>
0

>  <SCORE.SYSTEM.CONST>
0

>  <SCORE.SYSTEM.DIHEDRAL>
0

>  <SCORE.SYSTEM.SOLV>
0

>  <SCORE.SYSTEM.norm>
0

>  <SCORE.heavy>
27

>  <SCORE.norm>
-0.476081

>  <RMSD>
5.481

$$$$
ligand
 OpenBabel02271912153D
libRbt.so/2013.1/901 2013/11/27
 27 29  0  0  0  0  0  0  0  0999 V2000
   13.9068    8.3415   25.6922 N   0  0  0  0  0  0  0  0  0  0  0  0
   14.4401    6.9957   25.3719 C   0  0  2  0  0  0  0  0  0  0  0  0
   13.5384    6.3775   24.3112 C   0  0  0  0  0  0  0  0  0  0  0  0
   13.8984    5.9656   23.1587 O   0  0  0  0  0  0  0  0  0  0  0  0
   14.5100    6.1745   26.6613 C   0  0  0  0  0  0  0  0  0  0  0  0
   15.0392    4.7648   26.4339 C   0  0  0  0  0  0  0  0  0  0  0  0
   15.0667    3.4778   27.7376 S   0  0  2  0  0  0  0  0  0  0  0  0
   13.3979    3.6825   28.3570 C   0  0  0  0  0  0  0  0  0  0  0  0
   16.0896    4.3653   28.9550 C   0  0  0  0  0  0  0  0  0  0  0  0
   16.7559    3.4169   29.9134 C   0  0  1  0  0  0  0  0  0  0  0  0
   17.6474    4.0923   30.8332 O   0  0  0  0  0  0  0  0  0  0  0  0
   15.7955    2.6022   30.7495 C   0  0  1  0  0  0  0  0  0  0  0  0
   15.6593    1.3794   30.1675 O   0  0  0  0  0  0  0  0  0  0  0  0
   16.6219    2.4132   32.0001 C   0  0  1  0  0  0  0  0  0  0  0  0
   17.4421    1.3617   31.7409 O   0  0  0  0  0  0  0  0  0  0  0  0
   17.4758    3.6898   32.1653 C   0  0  2  0  0  0  0  0  0  0  0  0
   12.3382    6.3277   24.5857 O   0  0  0  0  0  0  0  0  0  0  0  0
   16.7577    8.1028   34.8457 N   0  0  0  0  0  0  0  0  0  0  0  0
   17.9238    7.4239   34.3560 C   0  0  0  0  0  0  0  0  0  0  0  0
   17.9833    6.2141   33.6206 N   0  0  0  0  0  0  0  0  0  0  0  0
   16.8175    5.7481   33.4026 C   0  0  0  0  0  0  0  0  0  0  0  0
   15.5561    6.3735   33.8589 C   0  0  0  0  0  0  0  0  0  0  0  0
   15.5452    7.5114   34.5653 C   0  0  0  0  0  0  0  0  0  0  0  0
   14.3561    7.9490   34.9252 N   0  0  0  0  0  0  0  0  0  0  0  0
   14.4826    5.6992   33.5223 N   0  0  0  0  0  0  0  0  0  0  0  0
   15.0746    4.6486   32.8458 C   0  0  0  0  0  0  0  0  0  0  0  0
   16.5260    4.6700   32.7580 N   0  0  0  0  0  0  0  0  0  0  0  0
  2  1  1  1  0  0  0
  2  3  1  0  0  0  0
  2  5  1  0  0  0  0
  3  4  1  0  0  0  0
  3 17  1  0  0  0  0
  5  6  1  0  0  0  0
  7  6  1  6  0  0  0
  7  8  1  0  0  0  0
  7  9  1  0  0  0  0
 10  9  1  1  0  0  0
 10 11  1  0  0  0  0
 10 12  1  0  0  0  0
 11 16  1  0  0  0  0
 12 13  1  6  0  0  0
 12 14  1  0  0  0  0
 14 15  1  6  0  0  0
 14 16  1  0  0  0  0
 16 27  1  1  0  0  0
 18 19  2  0  0  0  0
 18 23  1  0  0  0  0
 19 20  1  0  0  0  0
 20 21  2  0  0  0  0
 21 22  1  0  0  0  0
 21 27  1  0  0  0  0
 22 23  2  0  0  0  0
 22 25  1  0  0  0  0
 23 24  1  0  0  0  0
 25 26  2  0  0  0  0
 26 27  1  0  0  0  0
M  END
>  <CHROM.1>
122.18657839,179.59139501,-172.92200174,46.89803938,-157.56682266,176.00262955
-93.38308088,15.53222864,5.04083971,30.04370942,2.41182176,1.17023164,-2.36244104

>  <Name>
ligand

>  <RI>
0

>  <Rbt.Current_Directory>
/home/itssahil/PROJECTS/Mol_Feturizer/Test_systems_manuscript/rnas/4aob

>  <Rbt.Executable>
rbdock ($Id: //depot/dev/client3/rdock/2013.1/src/exe/rbdock.cxx#4 $)

>  <Rbt.Library>
libRbt.so (2013.1, Build901 2013/11/27)

>  <Rbt.Parameter_File>
/export/apps/rDock/src/rDock_2013.1_src/data/scripts/dock_solv.prm

>  <Rbt.Receptor>
prm/pocket_docking_6.prm

>  <SCORE>
-12.6151

>  <SCORE.INTER>
-13.2671

>  <SCORE.INTER.CONST>
1

>  <SCORE.INTER.POLAR>
0

>  <SCORE.INTER.ROT>
7

>  <SCORE.INTER.SOLV>
13.1282

>  <SCORE.INTER.VDW>
-21.4875

>  <SCORE.INTER.norm>
-0.491376

>  <SCORE.INTRA>
0.652091

>  <SCORE.INTRA.DIHEDRAL>
-0.402959

>  <SCORE.INTRA.DIHEDRAL.0>
6.31833

>  <SCORE.INTRA.POLAR>
0

>  <SCORE.INTRA.POLAR.0>
0

>  <SCORE.INTRA.REPUL>
0

>  <SCORE.INTRA.REPUL.0>
0

>  <SCORE.INTRA.SOLV>
-0.542574

>  <SCORE.INTRA.SOLV.lig_0>
-48.4015

>  <SCORE.INTRA.VDW>
1.12486

>  <SCORE.INTRA.VDW.0>
-2.83256

>  <SCORE.INTRA.norm>
0.0241515

>  <SCORE.RESTR>
0

>  <SCORE.RESTR.CAVITY>
0

>  <SCORE.RESTR.norm>
0

>  <SCORE.SYSTEM>
0

>  <SCORE.SYSTEM.CONST>
0

>  <SCORE.SYSTEM.DIHEDRAL>
0

>  <SCORE.SYSTEM.SOLV>
0

>  <SCORE.SYSTEM.norm>
0

>  <SCORE.heavy>
27

>  <SCORE.norm>
-0.467224

>  <RMSD>
5.483

$$$$
ligand
 OpenBabel02271912153D
libRbt.so/2013.1/901 2013/11/27
 27 29  0  0  0  0  0  0  0  0999 V2000
   17.5379    4.7966   30.1715 N   0  0  0  0  0  0  0  0  0  0  0  0
   16.4906    3.9345   30.7701 C   0  0  2  0  0  0  0  0  0  0  0  0
   16.4831    2.6145   30.0100 C   0  0  0  0  0  0  0  0  0  0  0  0
   16.1746    1.4707   30.4832 O   0  0  0  0  0  0  0  0  0  0  0  0
   15.1523    4.6744   30.7130 C   0  0  0  0  0  0  0  0  0  0  0  0
   14.0051    3.8629   31.2999 C   0  0  0  0  0  0  0  0  0  0  0  0
   13.8980    3.4071   33.0711 S   0  0  2  0  0  0  0  0  0  0  0  0
   12.6866    2.0932   32.9410 C   0  0  0  0  0  0  0  0  0  0  0  0
   12.9246    4.8345   33.6467 C   0  0  0  0  0  0  0  0  0  0  0  0
   13.8096    5.9318   34.1707 C   0  0  1  0  0  0  0  0  0  0  0  0
   14.8435    6.3084   33.2293 O   0  0  0  0  0  0  0  0  0  0  0  0
   13.0735    7.1977   34.5457 C   0  0  1  0  0  0  0  0  0  0  0  0
   12.8689    7.1861   35.8913 O   0  0  0  0  0  0  0  0  0  0  0  0
   14.1451    8.2249   34.2647 C   0  0  1  0  0  0  0  0  0  0  0  0
   14.9353    8.2405   35.3696 O   0  0  0  0  0  0  0  0  0  0  0  0
   14.9641    7.6959   33.0666 C   0  0  2  0  0  0  0  0  0  0  0  0
   16.8677    2.6633   28.8403 O   0  0  0  0  0  0  0  0  0  0  0  0
   14.6565    9.6425   28.2406 N   0  0  0  0  0  0  0  0  0  0  0  0
   15.7503    9.3898   29.1352 C   0  0  0  0  0  0  0  0  0  0  0  0
   15.6994    8.8395   30.4400 N   0  0  0  0  0  0  0  0  0  0  0  0
   14.5036    8.5535   30.7746 C   0  0  0  0  0  0  0  0  0  0  0  0
   13.3113    8.7696   29.9248 C   0  0  0  0  0  0  0  0  0  0  0  0
   13.4020    9.3069   28.7013 C   0  0  0  0  0  0  0  0  0  0  0  0
   12.2622    9.4625   28.0597 N   0  0  0  0  0  0  0  0  0  0  0  0
   12.1867    8.4063   30.4937 N   0  0  0  0  0  0  0  0  0  0  0  0
   12.6780    7.9542   31.7046 C   0  0  0  0  0  0  0  0  0  0  0  0
   14.1181    8.0338   31.8900 N   0  0  0  0  0  0  0  0  0  0  0  0
  2  1  1  6  0  0  0
  2  3  1  0  0  0  0
  2  5  1  0  0  0  0
  3  4  1  0  0  0  0
  3 17  1  0  0  0  0
  5  6  1  0  0  0  0
  7  6  1  6  0  0  0
  7  8  1  0  0  0  0
  7  9  1  0  0  0  0
 10  9  1  6  0  0  0
 10 11  1  0  0  0  0
 10 12  1  0  0  0  0
 11 16  1  0  0  0  0
 12 13  1  1  0  0  0
 12 14  1  0  0  0  0
 14 15  1  1  0  0  0
 14 16  1  0  0  0  0
 16 27  1  6  0  0  0
 18 19  2  0  0  0  0
 18 23  1  0  0  0  0
 19 20  1  0  0  0  0
 20 21  2  0  0  0  0
 21 22  1  0  0  0  0
 21 27  1  0  0  0  0
 22 23  2  0  0  0  0
 22 25  1  0  0  0  0
 23 24  1  0  0  0  0
 25 26  2  0  0  0  0
 26 27  1  0  0  0  0
M  END
>  <CHROM.1>
149.49916855,179.65077204,65.65124882,-162.71636383,-94.28198955,52.39339757
-118.25059521,14.41377687,6.19924800,31.67830895,-0.98435969,1.15742227,-0.68541732

>  <Name>
ligand

>  <RI>
0

>  <Rbt.Current_Directory>
/home/itssahil/PROJECTS/Mol_Feturizer/Test_systems_manuscript/rnas/4aob

>  <Rbt.Executable>
rbdock ($Id: //depot/dev/client3/rdock/2013.1/src/exe/rbdock.cxx#4 $)

>  <Rbt.Library>
libRbt.so (2013.1, Build901 2013/11/27)

>  <Rbt.Parameter_File>
/export/apps/rDock/src/rDock_2013.1_src/data/scripts/dock_solv.prm

>  <Rbt.Receptor>
prm/pocket_docking_4.prm

>  <SCORE>
-17.1676

>  <SCORE.INTER>
-16.1935

>  <SCORE.INTER.CONST>
1

>  <SCORE.INTER.POLAR>
0

>  <SCORE.INTER.ROT>
7

>  <SCORE.INTER.SOLV>
11.1181

>  <SCORE.INTER.VDW>
-22.7684

>  <SCORE.INTER.norm>
-0.599761

>  <SCORE.INTRA>
-0.974077

>  <SCORE.INTRA.DIHEDRAL>
0.427218

>  <SCORE.INTRA.DIHEDRAL.0>
6.31833

>  <SCORE.INTRA.POLAR>
0

>  <SCORE.INTRA.POLAR.0>
0

>  <SCORE.INTRA.REPUL>
0

>  <SCORE.INTRA.REPUL.0>
0

>  <SCORE.INTRA.SOLV>
-0.442937

>  <SCORE.INTRA.SOLV.lig_0>
-48.4015

>  <SCORE.INTRA.VDW>
-0.966217

>  <SCORE.INTRA.VDW.0>
-2.83256

>  <SCORE.INTRA.norm>
-0.0360769

>  <SCORE.RESTR>
0

>  <SCORE.RESTR.CAVITY>
0

>  <SCORE.RESTR.norm>
0

>  <SCORE.SYSTEM>
0

>  <SCORE.SYSTEM.CONST>
0

>  <SCORE.SYSTEM.DIHEDRAL>
0

>  <SCORE.SYSTEM.SOLV>
0

>  <SCORE.SYSTEM.norm>
0

>  <SCORE.heavy>
27

>  <SCORE.norm>
-0.635838

>  <RMSD>
5.495

$$$$
ligand
 OpenBabel02271912153D
libRbt.so/2013.1/901 2013/11/27
 27 29  0  0  0  0  0  0  0  0999 V2000
   17.5432    4.7979   30.1843 N   0  0  0  0  0  0  0  0  0  0  0  0
   16.5018    3.9467   30.8082 C   0  0  2  0  0  0  0  0  0  0  0  0
   16.5353    2.5888   30.1188 C   0  0  0  0  0  0  0  0  0  0  0  0
   16.3921    1.4518   30.6795 O   0  0  0  0  0  0  0  0  0  0  0  0
   15.1504    4.6544   30.6875 C   0  0  0  0  0  0  0  0  0  0  0  0
   14.0062    3.8447   31.2826 C   0  0  0  0  0  0  0  0  0  0  0  0
   13.9316    3.3537   33.0461 S   0  0  2  0  0  0  0  0  0  0  0  0
   12.7518    2.0124   32.9053 C   0  0  0  0  0  0  0  0  0  0  0  0
   12.9299    4.7453   33.6595 C   0  0  0  0  0  0  0  0  0  0  0  0
   13.7941    5.8733   34.1524 C   0  0  1  0  0  0  0  0  0  0  0  0
   14.7962    6.2687   33.1848 O   0  0  0  0  0  0  0  0  0  0  0  0
   13.0300    7.1217   34.5302 C   0  0  1  0  0  0  0  0  0  0  0  0
   12.8549    7.1192   35.8799 O   0  0  0  0  0  0  0  0  0  0  0  0
   14.0654    8.1759   34.2151 C   0  0  1  0  0  0  0  0  0  0  0  0
   14.8784    8.2262   35.3023 O   0  0  0  0  0  0  0  0  0  0  0  0
   14.8734    7.6572   33.0051 C   0  0  2  0  0  0  0  0  0  0  0  0
   16.7804    2.6027   28.9113 O   0  0  0  0  0  0  0  0  0  0  0  0
   14.3823    9.6501   28.2132 N   0  0  0  0  0  0  0  0  0  0  0  0
   15.5011    9.4544   29.0911 C   0  0  0  0  0  0  0  0  0  0  0  0
   15.5016    8.8831   30.3878 N   0  0  0  0  0  0  0  0  0  0  0  0
   14.3306    8.5169   30.7320 C   0  0  0  0  0  0  0  0  0  0  0  0
   13.1164    8.6693   29.8995 C   0  0  0  0  0  0  0  0  0  0  0  0
   13.1575    9.2288   28.6833 C   0  0  0  0  0  0  0  0  0  0  0  0
   12.0022    9.3211   28.0575 N   0  0  0  0  0  0  0  0  0  0  0  0
   12.0243    8.2271   30.4759 N   0  0  0  0  0  0  0  0  0  0  0  0
   12.5585    7.7895   31.6739 C   0  0  0  0  0  0  0  0  0  0  0  0
   13.9929    7.9577   31.8436 N   0  0  0  0  0  0  0  0  0  0  0  0
  2  1  1  6  0  0  0
  2  3  1  0  0  0  0
  2  5  1  0  0  0  0
  3  4  1  0  0  0  0
  3 17  1  0  0  0  0
  5  6  1  0  0  0  0
  7  6  1  6  0  0  0
  7  8  1  0  0  0  0
  7  9  1  0  0  0  0
 10  9  1  6  0  0  0
 10 11  1  0  0  0  0
 10 12  1  0  0  0  0
 11 16  1  0  0  0  0
 12 13  1  1  0  0  0
 12 14  1  0  0  0  0
 14 15  1  1  0  0  0
 14 16  1  0  0  0  0
 16 27  1  6  0  0  0
 18 19  2  0  0  0  0
 18 23  1  0  0  0  0
 19 20  1  0  0  0  0
 20 21  2  0  0  0  0
 21 22  1  0  0  0  0
 21 27  1  0  0  0  0
 22 23  2  0  0  0  0
 22 25  1  0  0  0  0
 23 24  1  0  0  0  0
 25 26  2  0  0  0  0
 26 27  1  0  0  0  0
M  END
>  <CHROM.1>
140.79829394,179.06508658,60.76610316,-160.51469553,-92.42955977,51.22551639
-120.78742287,14.34744631,6.14911864,31.66977180,-0.90598042,1.14211711,-0.78872635

>  <Name>
ligand

>  <RI>
0

>  <Rbt.Current_Directory>
/home/itssahil/PROJECTS/Mol_Feturizer/Test_systems_manuscript/rnas/4aob

>  <Rbt.Executable>
rbdock ($Id: //depot/dev/client3/rdock/2013.1/src/exe/rbdock.cxx#4 $)

>  <Rbt.Library>
libRbt.so (2013.1, Build901 2013/11/27)

>  <Rbt.Parameter_File>
/export/apps/rDock/src/rDock_2013.1_src/data/scripts/dock_solv.prm

>  <Rbt.Receptor>
prm/pocket_docking_4.prm

>  <SCORE>
-17.2936

>  <SCORE.INTER>
-16.2408

>  <SCORE.INTER.CONST>
1

>  <SCORE.INTER.POLAR>
0

>  <SCORE.INTER.ROT>
7

>  <SCORE.INTER.SOLV>
10.5682

>  <SCORE.INTER.VDW>
-22.6166

>  <SCORE.INTER.norm>
-0.601512

>  <SCORE.INTRA>
-1.05275

>  <SCORE.INTRA.DIHEDRAL>
0.411773

>  <SCORE.INTRA.DIHEDRAL.0>
6.31833

>  <SCORE.INTRA.POLAR>
0

>  <SCORE.INTRA.POLAR.0>
0

>  <SCORE.INTRA.REPUL>
0

>  <SCORE.INTRA.REPUL.0>
0

>  <SCORE.INTRA.SOLV>
-0.422734

>  <SCORE.INTRA.SOLV.lig_0>
-48.4015

>  <SCORE.INTRA.VDW>
-1.04727

>  <SCORE.INTRA.VDW.0>
-2.83256

>  <SCORE.INTRA.norm>
-0.0389909

>  <SCORE.RESTR>
0

>  <SCORE.RESTR.CAVITY>
0

>  <SCORE.RESTR.norm>
0

>  <SCORE.SYSTEM>
0

>  <SCORE.SYSTEM.CONST>
0

>  <SCORE.SYSTEM.DIHEDRAL>
0

>  <SCORE.SYSTEM.SOLV>
0

>  <SCORE.SYSTEM.norm>
0

>  <SCORE.heavy>
27

>  <SCORE.norm>
-0.640503

>  <RMSD>
5.509

$$$$
ligand
 OpenBabel02271912153D
libRbt.so/2013.1/901 2013/11/27
 27 29  0  0  0  0  0  0  0  0999 V2000
   13.2132    3.4731   28.4784 N   0  0  0  0  0  0  0  0  0  0  0  0
   13.4156    3.9214   29.8771 C   0  0  2  0  0  0  0  0  0  0  0  0
   13.7452    5.4082   29.8468 C   0  0  0  0  0  0  0  0  0  0  0  0
   14.8864    5.9349   30.0655 O   0  0  0  0  0  0  0  0  0  0  0  0
   14.5166    3.0694   30.5123 C   0  0  0  0  0  0  0  0  0  0  0  0
   14.7722    3.4287   31.9700 C   0  0  0  0  0  0  0  0  0  0  0  0
   13.5081    3.2578   33.2850 S   0  0  2  0  0  0  0  0  0  0  0  0
   12.3624    2.1831   32.4229 C   0  0  0  0  0  0  0  0  0  0  0  0
   12.7506    4.9066   33.1308 C   0  0  0  0  0  0  0  0  0  0  0  0
   13.6116    5.9709   33.7536 C   0  0  1  0  0  0  0  0  0  0  0  0
   14.6702    6.4153   32.8711 O   0  0  0  0  0  0  0  0  0  0  0  0
   12.8555    7.2048   34.1903 C   0  0  1  0  0  0  0  0  0  0  0  0
   12.6111    7.1017   35.5253 O   0  0  0  0  0  0  0  0  0  0  0  0
   13.9275    8.2542   34.0113 C   0  0  1  0  0  0  0  0  0  0  0  0
   14.6844    8.1996   35.1380 O   0  0  0  0  0  0  0  0  0  0  0  0
   14.7856    7.8112   32.8056 C   0  0  2  0  0  0  0  0  0  0  0  0
   12.7958    6.1673   29.6445 O   0  0  0  0  0  0  0  0  0  0  0  0
   14.6530    9.7449   27.9664 N   0  0  0  0  0  0  0  0  0  0  0  0
   15.7199    9.3914   28.8593 C   0  0  0  0  0  0  0  0  0  0  0  0
   15.6200    8.8580   30.1683 N   0  0  0  0  0  0  0  0  0  0  0  0
   14.4031    8.6942   30.5089 C   0  0  0  0  0  0  0  0  0  0  0  0
   13.2347    9.0214   29.6614 C   0  0  0  0  0  0  0  0  0  0  0  0
   13.3733    9.5384   28.4337 C   0  0  0  0  0  0  0  0  0  0  0  0
   12.2520    9.8017   27.7947 N   0  0  0  0  0  0  0  0  0  0  0  0
   12.0820    8.7753   30.2367 N   0  0  0  0  0  0  0  0  0  0  0  0
   12.5309    8.2852   31.4492 C   0  0  0  0  0  0  0  0  0  0  0  0
   13.9726    8.2230   31.6293 N   0  0  0  0  0  0  0  0  0  0  0  0
  2  1  1  6  0  0  0
  2  3  1  0  0  0  0
  2  5  1  0  0  0  0
  3  4  1  0  0  0  0
  3 17  1  0  0  0  0
  5  6  1  0  0  0  0
  7  6  1  6  0  0  0
  7  8  1  0  0  0  0
  7  9  1  0  0  0  0
 10  9  1  6  0  0  0
 10 11  1  0  0  0  0
 10 12  1  0  0  0  0
 11 16  1  0  0  0  0
 12 13  1  1  0  0  0
 12 14  1  0  0  0  0
 14 15  1  1  0  0  0
 14 16  1  0  0  0  0
 16 27  1  6  0  0  0
 18 19  2  0  0  0  0
 18 23  1  0  0  0  0
 19 20  1  0  0  0  0
 20 21  2  0  0  0  0
 21 22  1  0  0  0  0
 21 27  1  0  0  0  0
 22 23  2  0  0  0  0
 22 25  1  0  0  0  0
 23 24  1  0  0  0  0
 25 26  2  0  0  0  0
 26 27  1  0  0  0  0
M  END
>  <CHROM.1>
-107.24813142,-178.35773579,62.23282446,16.33092735,-76.43383211,82.27107623
-110.61101321,13.72694133,6.55596410,31.42390867,2.71524195,1.50171998,1.36302489

>  <Name>
ligand

>  <RI>
0

>  <Rbt.Current_Directory>
/home/itssahil/PROJECTS/Mol_Feturizer/Test_systems_manuscript/rnas/4aob

>  <Rbt.Executable>
rbdock ($Id: //depot/dev/client3/rdock/2013.1/src/exe/rbdock.cxx#4 $)

>  <Rbt.Library>
libRbt.so (2013.1, Build901 2013/11/27)

>  <Rbt.Parameter_File>
/export/apps/rDock/src/rDock_2013.1_src/data/scripts/dock_solv.prm

>  <Rbt.Receptor>
prm/pocket_docking_3.prm

>  <SCORE>
-14.1204

>  <SCORE.INTER>
-13.7325

>  <SCORE.INTER.CONST>
1

>  <SCORE.INTER.POLAR>
0

>  <SCORE.INTER.ROT>
7

>  <SCORE.INTER.SOLV>
16.3644

>  <SCORE.INTER.VDW>
-22.8765

>  <SCORE.INTER.norm>
-0.508612

>  <SCORE.INTRA>
-0.387907

>  <SCORE.INTRA.DIHEDRAL>
1.63629

>  <SCORE.INTRA.DIHEDRAL.0>
6.31833

>  <SCORE.INTRA.POLAR>
0

>  <SCORE.INTRA.POLAR.0>
0

>  <SCORE.INTRA.REPUL>
0

>  <SCORE.INTRA.REPUL.0>
0

>  <SCORE.INTRA.SOLV>
-0.0778723

>  <SCORE.INTRA.SOLV.lig_0>
-48.4015

>  <SCORE.INTRA.VDW>
-1.16712

>  <SCORE.INTRA.VDW.0>
-2.83256

>  <SCORE.INTRA.norm>
-0.0143669

>  <SCORE.RESTR>
0

>  <SCORE.RESTR.CAVITY>
0

>  <SCORE.RESTR.norm>
0

>  <SCORE.SYSTEM>
0

>  <SCORE.SYSTEM.CONST>
0

>  <SCORE.SYSTEM.DIHEDRAL>
0

>  <SCORE.SYSTEM.SOLV>
0

>  <SCORE.SYSTEM.norm>
0

>  <SCORE.heavy>
27

>  <SCORE.norm>
-0.522979

>  <RMSD>
5.524

$$$$
ligand
 OpenBabel02271912153D
libRbt.so/2013.1/901 2013/11/27
 27 29  0  0  0  0  0  0  0  0999 V2000
   14.3204    1.1048   31.9502 N   0  0  0  0  0  0  0  0  0  0  0  0
   13.9515    2.5012   32.2852 C   0  0  2  0  0  0  0  0  0  0  0  0
   12.5990    2.4707   32.9852 C   0  0  0  0  0  0  0  0  0  0  0  0
   12.3863    2.6588   34.2289 O   0  0  0  0  0  0  0  0  0  0  0  0
   13.9500    3.3315   30.9998 C   0  0  0  0  0  0  0  0  0  0  0  0
   15.3507    3.5736   30.4533 C   0  0  0  0  0  0  0  0  0  0  0  0
   15.7205    4.7941   29.1379 S   0  0  2  0  0  0  0  0  0  0  0  0
   17.4867    4.5237   29.0047 C   0  0  0  0  0  0  0  0  0  0  0  0
   15.5912    6.3060   30.1446 C   0  0  0  0  0  0  0  0  0  0  0  0
   14.1584    6.7198   30.3390 C   0  0  1  0  0  0  0  0  0  0  0  0
   13.5528    6.0968   31.4975 O   0  0  0  0  0  0  0  0  0  0  0  0
   13.9568    8.2108   30.4853 C   0  0  1  0  0  0  0  0  0  0  0  0
   13.5796    8.7080   29.2757 O   0  0  0  0  0  0  0  0  0  0  0  0
   12.7378    8.2308   31.3774 C   0  0  1  0  0  0  0  0  0  0  0  0
   11.6745    8.0695   30.5473 O   0  0  0  0  0  0  0  0  0  0  0  0
   12.8452    6.9996   32.3040 C   0  0  2  0  0  0  0  0  0  0  0  0
   11.6322    2.1804   32.2785 O   0  0  0  0  0  0  0  0  0  0  0  0
   13.9199    7.5715   37.3728 N   0  0  0  0  0  0  0  0  0  0  0  0
   12.8123    7.0054   36.6563 C   0  0  0  0  0  0  0  0  0  0  0  0
   12.6436    6.9022   35.2531 N   0  0  0  0  0  0  0  0  0  0  0  0
   13.6460    7.3830   34.6305 C   0  0  0  0  0  0  0  0  0  0  0  0
   14.8359    7.9823   35.2751 C   0  0  0  0  0  0  0  0  0  0  0  0
   14.9491    8.0737   36.6066 C   0  0  0  0  0  0  0  0  0  0  0  0
   16.0497    8.6466   37.0484 N   0  0  0  0  0  0  0  0  0  0  0  0
   15.7318    8.4197   34.4229 N   0  0  0  0  0  0  0  0  0  0  0  0
   15.1024    8.0867   33.2376 C   0  0  0  0  0  0  0  0  0  0  0  0
   13.8073    7.4353   33.3523 N   0  0  0  0  0  0  0  0  0  0  0  0
  2  1  1  6  0  0  0
  2  3  1  0  0  0  0
  2  5  1  0  0  0  0
  3  4  1  0  0  0  0
  3 17  1  0  0  0  0
  5  6  1  0  0  0  0
  7  6  1  1  0  0  0
  7  8  1  0  0  0  0
  7  9  1  0  0  0  0
 10  9  1  1  0  0  0
 10 11  1  0  0  0  0
 10 12  1  0  0  0  0
 11 16  1  0  0  0  0
 12 13  1  6  0  0  0
 12 14  1  0  0  0  0
 14 15  1  6  0  0  0
 14 16  1  0  0  0  0
 16 27  1  1  0  0  0
 18 19  2  0  0  0  0
 18 23  1  0  0  0  0
 19 20  1  0  0  0  0
 20 21  2  0  0  0  0
 21 22  1  0  0  0  0
 21 27  1  0  0  0  0
 22 23  2  0  0  0  0
 22 25  1  0  0  0  0
 23 24  1  0  0  0  0
 25 26  2  0  0  0  0
 26 27  1  0  0  0  0
M  END
>  <CHROM.1>
106.61164579,-70.98009321,-167.34551772,-179.39670365,-80.37656228,88.25686493
-125.49783339,14.09407603,5.96739969,32.45474443,1.30583680,-1.31335675,-2.44303655

>  <Name>
ligand

>  <RI>
0

>  <Rbt.Current_Directory>
/home/itssahil/PROJECTS/Mol_Feturizer/Test_systems_manuscript/rnas/4aob

>  <Rbt.Executable>
rbdock ($Id: //depot/dev/client3/rdock/2013.1/src/exe/rbdock.cxx#4 $)

>  <Rbt.Library>
libRbt.so (2013.1, Build901 2013/11/27)

>  <Rbt.Parameter_File>
/export/apps/rDock/src/rDock_2013.1_src/data/scripts/dock_solv.prm

>  <Rbt.Receptor>
prm/pocket_docking_4.prm

>  <SCORE>
-13.6011

>  <SCORE.INTER>
-14.1884

>  <SCORE.INTER.CONST>
1

>  <SCORE.INTER.POLAR>
0

>  <SCORE.INTER.ROT>
7

>  <SCORE.INTER.SOLV>
18.0298

>  <SCORE.INTER.VDW>
-23.7356

>  <SCORE.INTER.norm>
-0.525498

>  <SCORE.INTRA>
0.587335

>  <SCORE.INTRA.DIHEDRAL>
0.665629

>  <SCORE.INTRA.DIHEDRAL.0>
6.31833

>  <SCORE.INTRA.POLAR>
0

>  <SCORE.INTRA.POLAR.0>
0

>  <SCORE.INTRA.REPUL>
0

>  <SCORE.INTRA.REPUL.0>
0

>  <SCORE.INTRA.SOLV>
0.0483878

>  <SCORE.INTRA.SOLV.lig_0>
-48.4015

>  <SCORE.INTRA.VDW>
0.230327

>  <SCORE.INTRA.VDW.0>
-2.83256

>  <SCORE.INTRA.norm>
0.0217532

>  <SCORE.RESTR>
0

>  <SCORE.RESTR.CAVITY>
0

>  <SCORE.RESTR.norm>
0

>  <SCORE.SYSTEM>
0

>  <SCORE.SYSTEM.CONST>
0

>  <SCORE.SYSTEM.DIHEDRAL>
0

>  <SCORE.SYSTEM.SOLV>
0

>  <SCORE.SYSTEM.norm>
0

>  <SCORE.heavy>
27

>  <SCORE.norm>
-0.503745

>  <RMSD>
5.527

$$$$
ligand
 OpenBabel02271912153D
libRbt.so/2013.1/901 2013/11/27
 27 29  0  0  0  0  0  0  0  0999 V2000
   14.9731    3.3475   31.0656 N   0  0  0  0  0  0  0  0  0  0  0  0
   16.1925    2.7904   30.4323 C   0  0  2  0  0  0  0  0  0  0  0  0
   17.0268    2.1344   31.5249 C   0  0  0  0  0  0  0  0  0  0  0  0
   17.4535    2.6932   32.5894 O   0  0  0  0  0  0  0  0  0  0  0  0
   16.9271    3.9176   29.7033 C   0  0  0  0  0  0  0  0  0  0  0  0
   16.1450    4.4574   28.5133 C   0  0  0  0  0  0  0  0  0  0  0  0
   14.4133    5.0440   28.6300 S   0  0  2  0  0  0  0  0  0  0  0  0
   13.5781    3.4846   28.3449 C   0  0  0  0  0  0  0  0  0  0  0  0
   14.3164    5.8851   27.0177 C   0  0  0  0  0  0  0  0  0  0  0  0
   12.9835    6.5539   26.8223 C   0  0  1  0  0  0  0  0  0  0  0  0
   11.9637    6.0278   27.7056 O   0  0  0  0  0  0  0  0  0  0  0  0
   13.0058    8.0525   27.0189 C   0  0  1  0  0  0  0  0  0  0  0  0
   13.0962    8.6392   25.7941 O   0  0  0  0  0  0  0  0  0  0  0  0
   11.5989    8.2785   27.5207 C   0  0  1  0  0  0  0  0  0  0  0  0
   10.8194    8.3373   26.4097 O   0  0  0  0  0  0  0  0  0  0  0  0
   11.2137    7.0276   28.3411 C   0  0  2  0  0  0  0  0  0  0  0  0
   17.3608    0.9660   31.3206 O   0  0  0  0  0  0  0  0  0  0  0  0
   13.1321    4.9997   32.7436 N   0  0  0  0  0  0  0  0  0  0  0  0
   12.5638    4.4246   31.5574 C   0  0  0  0  0  0  0  0  0  0  0  0
   12.0798    5.0980   30.4084 N   0  0  0  0  0  0  0  0  0  0  0  0
   12.2139    6.3601   30.5217 C   0  0  0  0  0  0  0  0  0  0  0  0
   12.7909    7.0486   31.6979 C   0  0  0  0  0  0  0  0  0  0  0  0
   13.2238    6.3742   32.7710 C   0  0  0  0  0  0  0  0  0  0  0  0
   13.6961    7.1102   33.7561 N   0  0  0  0  0  0  0  0  0  0  0  0
   12.8121    8.3552   31.5848 N   0  0  0  0  0  0  0  0  0  0  0  0
   12.2508    8.4856   30.3278 C   0  0  0  0  0  0  0  0  0  0  0  0
   11.8802    7.2522   29.6525 N   0  0  0  0  0  0  0  0  0  0  0  0
  2  1  1  1  0  0  0
  2  3  1  0  0  0  0
  2  5  1  0  0  0  0
  3  4  1  0  0  0  0
  3 17  1  0  0  0  0
  5  6  1  0  0  0  0
  7  6  1  6  0  0  0
  7  8  1  0  0  0  0
  7  9  1  0  0  0  0
 10  9  1  1  0  0  0
 10 11  1  0  0  0  0
 10 12  1  0  0  0  0
 11 16  1  0  0  0  0
 12 13  1  6  0  0  0
 12 14  1  0  0  0  0
 14 15  1  6  0  0  0
 14 16  1  0  0  0  0
 16 27  1  1  0  0  0
 18 19  2  0  0  0  0
 18 23  1  0  0  0  0
 19 20  1  0  0  0  0
 20 21  2  0  0  0  0
 21 22  1  0  0  0  0
 21 27  1  0  0  0  0
 22 23  2  0  0  0  0
 22 25  1  0  0  0  0
 23 24  1  0  0  0  0
 25 26  2  0  0  0  0
 26 27  1  0  0  0  0
M  END
>  <CHROM.1>
-56.12241532,-66.64308756,53.28944179,-88.04531808,-177.39313290,-19.18832233
-50.46528669,13.75717233,5.61338787,29.65916238,0.56923566,-0.82871404,1.63890715

>  <Name>
ligand

>  <RI>
0

>  <Rbt.Current_Directory>
/home/itssahil/PROJECTS/Mol_Feturizer/Test_systems_manuscript/rnas/4aob

>  <Rbt.Executable>
rbdock ($Id: //depot/dev/client3/rdock/2013.1/src/exe/rbdock.cxx#4 $)

>  <Rbt.Library>
libRbt.so (2013.1, Build901 2013/11/27)

>  <Rbt.Parameter_File>
/export/apps/rDock/src/rDock_2013.1_src/data/scripts/dock_solv.prm

>  <Rbt.Receptor>
prm/pocket_docking_4.prm

>  <SCORE>
-5.94459

>  <SCORE.INTER>
-8.69302

>  <SCORE.INTER.CONST>
1

>  <SCORE.INTER.POLAR>
0

>  <SCORE.INTER.ROT>
7

>  <SCORE.INTER.SOLV>
6.46358

>  <SCORE.INTER.VDW>
-16.2165

>  <SCORE.INTER.norm>
-0.321964

>  <SCORE.INTRA>
2.74842

>  <SCORE.INTRA.DIHEDRAL>
2.66051

>  <SCORE.INTRA.DIHEDRAL.0>
6.31833

>  <SCORE.INTRA.POLAR>
0

>  <SCORE.INTRA.POLAR.0>
0

>  <SCORE.INTRA.REPUL>
0

>  <SCORE.INTRA.REPUL.0>
0

>  <SCORE.INTRA.SOLV>
3.99062

>  <SCORE.INTRA.SOLV.lig_0>
-48.4015

>  <SCORE.INTRA.VDW>
-0.577145

>  <SCORE.INTRA.VDW.0>
-2.83256

>  <SCORE.INTRA.norm>
0.101793

>  <SCORE.RESTR>
0

>  <SCORE.RESTR.CAVITY>
0

>  <SCORE.RESTR.norm>
0

>  <SCORE.SYSTEM>
0

>  <SCORE.SYSTEM.CONST>
0

>  <SCORE.SYSTEM.DIHEDRAL>
0

>  <SCORE.SYSTEM.SOLV>
0

>  <SCORE.SYSTEM.norm>
0

>  <SCORE.heavy>
27

>  <SCORE.norm>
-0.22017

>  <RMSD>
5.529

$$$$
ligand
 OpenBabel02271912153D
libRbt.so/2013.1/901 2013/11/27
 27 29  0  0  0  0  0  0  0  0999 V2000
   16.2698    4.0059   28.5692 N   0  0  0  0  0  0  0  0  0  0  0  0
   15.0281    3.5107   29.2105 C   0  0  2  0  0  0  0  0  0  0  0  0
   13.8478    4.0057   28.3846 C   0  0  0  0  0  0  0  0  0  0  0  0
   12.8528    4.6786   28.8143 O   0  0  0  0  0  0  0  0  0  0  0  0
   14.9974    3.9944   30.6619 C   0  0  0  0  0  0  0  0  0  0  0  0
   13.8468    3.3939   31.4587 C   0  0  0  0  0  0  0  0  0  0  0  0
   13.7537    3.4472   33.2876 S   0  0  2  0  0  0  0  0  0  0  0  0
   12.4019    2.2952   33.5248 C   0  0  0  0  0  0  0  0  0  0  0  0
   12.9635    5.0790   33.4585 C   0  0  0  0  0  0  0  0  0  0  0  0
   13.9679    6.1470   33.7938 C   0  0  1  0  0  0  0  0  0  0  0  0
   14.8362    6.4624   32.6787 O   0  0  0  0  0  0  0  0  0  0  0  0
   13.3576    7.4496   34.2586 C   0  0  1  0  0  0  0  0  0  0  0  0
   13.3897    7.4708   35.6191 O   0  0  0  0  0  0  0  0  0  0  0  0
   14.4031    8.4251   33.7709 C   0  0  1  0  0  0  0  0  0  0  0  0
   15.3733    8.4270   34.7218 O   0  0  0  0  0  0  0  0  0  0  0  0
   14.9803    7.8403   32.4629 C   0  0  2  0  0  0  0  0  0  0  0  0
   13.8395    3.6686   27.1993 O   0  0  0  0  0  0  0  0  0  0  0  0
   13.9007    9.8647   27.7819 N   0  0  0  0  0  0  0  0  0  0  0  0
   15.1240    9.6037   28.4863 C   0  0  0  0  0  0  0  0  0  0  0  0
   15.2836    9.0316   29.7728 N   0  0  0  0  0  0  0  0  0  0  0  0
   14.1574    8.7330   30.2888 C   0  0  0  0  0  0  0  0  0  0  0  0
   12.8441    8.9560   29.6437 C   0  0  0  0  0  0  0  0  0  0  0  0
   12.7369    9.5140   28.4308 C   0  0  0  0  0  0  0  0  0  0  0  0
   11.5089    9.6733   27.9818 N   0  0  0  0  0  0  0  0  0  0  0  0
   11.8259    8.5766   30.3782 N   0  0  0  0  0  0  0  0  0  0  0  0
   12.5054    8.1075   31.4873 C   0  0  0  0  0  0  0  0  0  0  0  0
   13.9564    8.1925   31.4421 N   0  0  0  0  0  0  0  0  0  0  0  0
  2  1  1  6  0  0  0
  2  3  1  0  0  0  0
  2  5  1  0  0  0  0
  3  4  1  0  0  0  0
  3 17  1  0  0  0  0
  5  6  1  0  0  0  0
  7  6  1  6  0  0  0
  7  8  1  0  0  0  0
  7  9  1  0  0  0  0
 10  9  1  6  0  0  0
 10 11  1  0  0  0  0
 10 12  1  0  0  0  0
 11 16  1  0  0  0  0
 12 13  1  1  0  0  0
 12 14  1  0  0  0  0
 14 15  1  1  0  0  0
 14 16  1  0  0  0  0
 16 27  1  6  0  0  0
 18 19  2  0  0  0  0
 18 23  1  0  0  0  0
 19 20  1  0  0  0  0
 20 21  2  0  0  0  0
 21 22  1  0  0  0  0
 21 27  1  0  0  0  0
 22 23  2  0  0  0  0
 22 25  1  0  0  0  0
 23 24  1  0  0  0  0
 25 26  2  0  0  0  0
 26 27  1  0  0  0  0
M  END
>  <CHROM.1>
-125.14816543,-172.81701619,165.08622854,-168.48465978,-99.82978944,71.10149282
-121.75989507,13.85050131,6.46666199,31.17951249,-0.64151628,1.51471448,-1.71449408

>  <Name>
ligand

>  <RI>
0

>  <Rbt.Current_Directory>
/home/itssahil/PROJECTS/Mol_Feturizer/Test_systems_manuscript/rnas/4aob

>  <Rbt.Executable>
rbdock ($Id: //depot/dev/client3/rdock/2013.1/src/exe/rbdock.cxx#4 $)

>  <Rbt.Library>
libRbt.so (2013.1, Build901 2013/11/27)

>  <Rbt.Parameter_File>
/export/apps/rDock/src/rDock_2013.1_src/data/scripts/dock_solv.prm

>  <Rbt.Receptor>
prm/pocket_docking_8.prm

>  <SCORE>
-13.9947

>  <SCORE.INTER>
-14.1329

>  <SCORE.INTER.CONST>
1

>  <SCORE.INTER.POLAR>
0

>  <SCORE.INTER.ROT>
7

>  <SCORE.INTER.SOLV>
12.9074

>  <SCORE.INTER.VDW>
-21.9911

>  <SCORE.INTER.norm>
-0.52344

>  <SCORE.INTRA>
0.138185

>  <SCORE.INTRA.DIHEDRAL>
1.36118

>  <SCORE.INTRA.DIHEDRAL.0>
6.31833

>  <SCORE.INTRA.POLAR>
0

>  <SCORE.INTRA.POLAR.0>
0

>  <SCORE.INTRA.REPUL>
0

>  <SCORE.INTRA.REPUL.0>
0

>  <SCORE.INTRA.SOLV>
-0.695107

>  <SCORE.INTRA.SOLV.lig_0>
-48.4015

>  <SCORE.INTRA.VDW>
-0.194852

>  <SCORE.INTRA.VDW.0>
-2.83256

>  <SCORE.INTRA.norm>
0.00511797

>  <SCORE.RESTR>
0

>  <SCORE.RESTR.CAVITY>
0

>  <SCORE.RESTR.norm>
0

>  <SCORE.SYSTEM>
0

>  <SCORE.SYSTEM.CONST>
0

>  <SCORE.SYSTEM.DIHEDRAL>
0

>  <SCORE.SYSTEM.SOLV>
0

>  <SCORE.SYSTEM.norm>
0

>  <SCORE.heavy>
27

>  <SCORE.norm>
-0.518322

>  <RMSD>
5.530

$$$$
ligand
 OpenBabel02271912153D
libRbt.so/2013.1/901 2013/11/27
 27 29  0  0  0  0  0  0  0  0999 V2000
    9.5554    8.2779   24.2905 N   0  0  0  0  0  0  0  0  0  0  0  0
    9.6240    8.6560   25.7225 C   0  0  2  0  0  0  0  0  0  0  0  0
    9.7083   10.1749   25.7999 C   0  0  0  0  0  0  0  0  0  0  0  0
   10.4626   10.8524   26.5742 O   0  0  0  0  0  0  0  0  0  0  0  0
   10.8217    7.9493   26.3611 C   0  0  0  0  0  0  0  0  0  0  0  0
   10.9295    8.2090   27.8578 C   0  0  0  0  0  0  0  0  0  0  0  0
   12.4879    8.0191   28.8023 S   0  0  2  0  0  0  0  0  0  0  0  0
   11.9115    8.5976   30.3972 C   0  0  0  0  0  0  0  0  0  0  0  0
   13.3793    9.4534   28.1207 C   0  0  0  0  0  0  0  0  0  0  0  0
   14.8052    9.4954   28.5971 C   0  0  1  0  0  0  0  0  0  0  0  0
   14.9074    9.5272   30.0412 O   0  0  0  0  0  0  0  0  0  0  0  0
   15.6534    8.3382   28.1212 C   0  0  1  0  0  0  0  0  0  0  0  0
   16.3625    8.7510   27.0353 O   0  0  0  0  0  0  0  0  0  0  0  0
   16.6242    8.2251   29.2732 C   0  0  1  0  0  0  0  0  0  0  0  0
   17.5851    9.1552   29.0342 O   0  0  0  0  0  0  0  0  0  0  0  0
   15.8474    8.6191   30.5489 C   0  0  2  0  0  0  0  0  0  0  0  0
    8.9264   10.7961   25.0779 O   0  0  0  0  0  0  0  0  0  0  0  0
   12.6489    6.1461   33.8395 N   0  0  0  0  0  0  0  0  0  0  0  0
   13.1940    7.4735   33.8032 C   0  0  0  0  0  0  0  0  0  0  0  0
   14.0601    8.0335   32.8315 N   0  0  0  0  0  0  0  0  0  0  0  0
   14.3262    7.1937   31.9108 C   0  0  0  0  0  0  0  0  0  0  0  0
   13.8115    5.8071   31.8542 C   0  0  0  0  0  0  0  0  0  0  0  0
   13.0056    5.3119   32.8025 C   0  0  0  0  0  0  0  0  0  0  0  0
   12.6367    4.0579   32.6409 N   0  0  0  0  0  0  0  0  0  0  0  0
   14.2359    5.1304   30.8139 N   0  0  0  0  0  0  0  0  0  0  0  0
   15.0159    6.1005   30.2120 C   0  0  0  0  0  0  0  0  0  0  0  0
   15.0755    7.3907   30.8801 N   0  0  0  0  0  0  0  0  0  0  0  0
  2  1  1  6  0  0  0
  2  3  1  0  0  0  0
  2  5  1  0  0  0  0
  3  4  1  0  0  0  0
  3 17  1  0  0  0  0
  5  6  1  0  0  0  0
  7  6  1  6  0  0  0
  7  8  1  0  0  0  0
  7  9  1  0  0  0  0
 10  9  1  1  0  0  0
 10 11  1  0  0  0  0
 10 12  1  0  0  0  0
 11 16  1  0  0  0  0
 12 13  1  6  0  0  0
 12 14  1  0  0  0  0
 14 15  1  6  0  0  0
 14 16  1  0  0  0  0
 16 27  1  6  0  0  0
 18 19  2  0  0  0  0
 18 23  1  0  0  0  0
 19 20  1  0  0  0  0
 20 21  2  0  0  0  0
 21 22  1  0  0  0  0
 21 27  1  0  0  0  0
 22 23  2  0  0  0  0
 22 25  1  0  0  0  0
 23 24  1  0  0  0  0
 25 26  2  0  0  0  0
 26 27  1  0  0  0  0
M  END
>  <CHROM.1>
-137.76715116,-176.55735714,-158.35512072,175.73669574,-173.51297246,-57.43973605
-77.71855006,13.20216568,8.06158203,29.26851492,2.13770452,-0.18048325,-1.02336239

>  <Name>
ligand

>  <RI>
0

>  <Rbt.Current_Directory>
/home/itssahil/PROJECTS/Mol_Feturizer/Test_systems_manuscript/rnas/4aob

>  <Rbt.Executable>
rbdock ($Id: //depot/dev/client3/rdock/2013.1/src/exe/rbdock.cxx#4 $)

>  <Rbt.Library>
libRbt.so (2013.1, Build901 2013/11/27)

>  <Rbt.Parameter_File>
/export/apps/rDock/src/rDock_2013.1_src/data/scripts/dock_solv.prm

>  <Rbt.Receptor>
prm/pocket_docking_7.prm

>  <SCORE>
-9.8164

>  <SCORE.INTER>
-8.1405

>  <SCORE.INTER.CONST>
1

>  <SCORE.INTER.POLAR>
0

>  <SCORE.INTER.ROT>
7

>  <SCORE.INTER.SOLV>
8.95429

>  <SCORE.INTER.VDW>
-16.6784

>  <SCORE.INTER.norm>
-0.3015

>  <SCORE.INTRA>
-1.6759

>  <SCORE.INTRA.DIHEDRAL>
-0.830903

>  <SCORE.INTRA.DIHEDRAL.0>
6.31833

>  <SCORE.INTRA.POLAR>
0

>  <SCORE.INTRA.POLAR.0>
0

>  <SCORE.INTRA.REPUL>
0

>  <SCORE.INTRA.REPUL.0>
0

>  <SCORE.INTRA.SOLV>
-0.496358

>  <SCORE.INTRA.SOLV.lig_0>
-48.4015

>  <SCORE.INTRA.VDW>
-1.01227

>  <SCORE.INTRA.VDW.0>
-2.83256

>  <SCORE.INTRA.norm>
-0.0620705

>  <SCORE.RESTR>
0

>  <SCORE.RESTR.CAVITY>
0

>  <SCORE.RESTR.norm>
0

>  <SCORE.SYSTEM>
0

>  <SCORE.SYSTEM.CONST>
0

>  <SCORE.SYSTEM.DIHEDRAL>
0

>  <SCORE.SYSTEM.SOLV>
0

>  <SCORE.SYSTEM.norm>
0

>  <SCORE.heavy>
27

>  <SCORE.norm>
-0.363571

>  <RMSD>
5.536

$$$$
ligand
 OpenBabel02271912153D
libRbt.so/2013.1/901 2013/11/27
 27 29  0  0  0  0  0  0  0  0999 V2000
   13.9773    8.5020   27.6931 N   0  0  0  0  0  0  0  0  0  0  0  0
   15.1379    7.9083   28.3995 C   0  0  2  0  0  0  0  0  0  0  0  0
   14.6030    6.9042   29.4124 C   0  0  0  0  0  0  0  0  0  0  0  0
   14.2917    7.1461   30.6257 O   0  0  0  0  0  0  0  0  0  0  0  0
   15.9551    9.0346   29.0362 C   0  0  0  0  0  0  0  0  0  0  0  0
   17.2740    8.5473   29.6211 C   0  0  0  0  0  0  0  0  0  0  0  0
   17.3894    7.2034   30.8610 S   0  0  2  0  0  0  0  0  0  0  0  0
   19.0315    7.5519   31.4877 C   0  0  0  0  0  0  0  0  0  0  0  0
   17.6527    5.8146   29.7129 C   0  0  0  0  0  0  0  0  0  0  0  0
   17.6332    4.4930   30.4304 C   0  0  1  0  0  0  0  0  0  0  0  0
   18.1831    4.5789   31.7672 O   0  0  0  0  0  0  0  0  0  0  0  0
   16.2592    3.8759   30.5583 C   0  0  1  0  0  0  0  0  0  0  0  0
   16.1151    2.9535   29.5679 O   0  0  0  0  0  0  0  0  0  0  0  0
   16.4248    3.1183   31.8549 C   0  0  1  0  0  0  0  0  0  0  0  0
   17.0269    1.9475   31.5199 O   0  0  0  0  0  0  0  0  0  0  0  0
   17.3877    3.9469   32.7337 C   0  0  2  0  0  0  0  0  0  0  0  0
   14.5206    5.7377   29.0238 O   0  0  0  0  0  0  0  0  0  0  0  0
   17.0149    8.5229   35.2028 N   0  0  0  0  0  0  0  0  0  0  0  0
   18.1239    7.7449   34.7278 C   0  0  0  0  0  0  0  0  0  0  0  0
   18.0889    6.4996   34.0526 N   0  0  0  0  0  0  0  0  0  0  0  0
   16.8909    6.1021   33.8779 C   0  0  0  0  0  0  0  0  0  0  0  0
   15.6827    6.8315   34.3238 C   0  0  0  0  0  0  0  0  0  0  0  0
   15.7608    8.0005   34.9728 C   0  0  0  0  0  0  0  0  0  0  0  0
   14.6105    8.5332   35.3306 N   0  0  0  0  0  0  0  0  0  0  0  0
   14.5607    6.2145   34.0395 N   0  0  0  0  0  0  0  0  0  0  0  0
   15.0687    5.0952   33.4063 C   0  0  0  0  0  0  0  0  0  0  0  0
   16.5163    5.0158   33.2929 N   0  0  0  0  0  0  0  0  0  0  0  0
  2  1  1  1  0  0  0
  2  3  1  0  0  0  0
  2  5  1  0  0  0  0
  3  4  1  0  0  0  0
  3 17  1  0  0  0  0
  5  6  1  0  0  0  0
  7  6  1  6  0  0  0
  7  8  1  0  0  0  0
  7  9  1  0  0  0  0
 10  9  1  1  0  0  0
 10 11  1  0  0  0  0
 10 12  1  0  0  0  0
 11 16  1  0  0  0  0
 12 13  1  6  0  0  0
 12 14  1  0  0  0  0
 14 15  1  6  0  0  0
 14 16  1  0  0  0  0
 16 27  1  6  0  0  0
 18 19  2  0  0  0  0
 18 23  1  0  0  0  0
 19 20  1  0  0  0  0
 20 21  2  0  0  0  0
 21 22  1  0  0  0  0
 21 27  1  0  0  0  0
 22 23  2  0  0  0  0
 22 25  1  0  0  0  0
 23 24  1  0  0  0  0
 25 26  2  0  0  0  0
 26 27  1  0  0  0  0
M  END
>  <CHROM.1>
-90.35295857,-171.98230038,-55.45250556,-161.30579415,-173.39426510,-33.85768473
-59.10353043,16.39466249,6.22294245,31.64592580,2.17166361,1.26772448,-2.23616001

>  <Name>
ligand

>  <RI>
0

>  <Rbt.Current_Directory>
/home/itssahil/PROJECTS/Mol_Feturizer/Test_systems_manuscript/rnas/4aob

>  <Rbt.Executable>
rbdock ($Id: //depot/dev/client3/rdock/2013.1/src/exe/rbdock.cxx#4 $)

>  <Rbt.Library>
libRbt.so (2013.1, Build901 2013/11/27)

>  <Rbt.Parameter_File>
/export/apps/rDock/src/rDock_2013.1_src/data/scripts/dock_solv.prm

>  <Rbt.Receptor>
prm/pocket_docking_5.prm

>  <SCORE>
-9.59637

>  <SCORE.INTER>
-7.60225

>  <SCORE.INTER.CONST>
1

>  <SCORE.INTER.POLAR>
0

>  <SCORE.INTER.ROT>
7

>  <SCORE.INTER.SOLV>
11.3224

>  <SCORE.INTER.VDW>
-17.109

>  <SCORE.INTER.norm>
-0.281565

>  <SCORE.INTRA>
-1.99413

>  <SCORE.INTRA.DIHEDRAL>
1.79264

>  <SCORE.INTRA.DIHEDRAL.0>
6.31833

>  <SCORE.INTRA.POLAR>
0

>  <SCORE.INTRA.POLAR.0>
0

>  <SCORE.INTRA.REPUL>
0

>  <SCORE.INTRA.REPUL.0>
0

>  <SCORE.INTRA.SOLV>
-0.272676

>  <SCORE.INTRA.SOLV.lig_0>
-48.4015

>  <SCORE.INTRA.VDW>
-2.75411

>  <SCORE.INTRA.VDW.0>
-2.83256

>  <SCORE.INTRA.norm>
-0.0738566

>  <SCORE.RESTR>
0

>  <SCORE.RESTR.CAVITY>
0

>  <SCORE.RESTR.norm>
0

>  <SCORE.SYSTEM>
0

>  <SCORE.SYSTEM.CONST>
0

>  <SCORE.SYSTEM.DIHEDRAL>
0

>  <SCORE.SYSTEM.SOLV>
0

>  <SCORE.SYSTEM.norm>
0

>  <SCORE.heavy>
27

>  <SCORE.norm>
-0.355421

>  <RMSD>
5.547

$$$$
ligand
 OpenBabel02271912153D
libRbt.so/2013.1/901 2013/11/27
 27 29  0  0  0  0  0  0  0  0999 V2000
   12.7751    7.8486   21.5128 N   0  0  0  0  0  0  0  0  0  0  0  0
   12.5918    8.1331   22.9563 C   0  0  2  0  0  0  0  0  0  0  0  0
   13.8421    8.8476   23.4528 C   0  0  0  0  0  0  0  0  0  0  0  0
   15.0482    8.5559   23.1565 O   0  0  0  0  0  0  0  0  0  0  0  0
   12.3159    6.8167   23.6861 C   0  0  0  0  0  0  0  0  0  0  0  0
   11.8030    7.0260   25.1047 C   0  0  0  0  0  0  0  0  0  0  0  0
   10.0609    7.4382   25.4943 S   0  0  2  0  0  0  0  0  0  0  0  0
   10.1280    9.2050   25.2033 C   0  0  0  0  0  0  0  0  0  0  0  0
   10.1612    7.2965   27.3070 C   0  0  0  0  0  0  0  0  0  0  0  0
   10.9089    8.4531   27.9114 C   0  0  1  0  0  0  0  0  0  0  0  0
   10.6035    8.6392   29.3146 O   0  0  0  0  0  0  0  0  0  0  0  0
   12.4126    8.3478   27.7984 C   0  0  1  0  0  0  0  0  0  0  0  0
   12.8103    9.0910   26.7298 O   0  0  0  0  0  0  0  0  0  0  0  0
   12.8286    9.0955   29.0435 C   0  0  1  0  0  0  0  0  0  0  0  0
   12.7973   10.4114   28.7072 O   0  0  0  0  0  0  0  0  0  0  0  0
   11.7444    8.8216   30.1091 C   0  0  2  0  0  0  0  0  0  0  0  0
   13.6576    9.7585   24.2619 O   0  0  0  0  0  0  0  0  0  0  0  0
   13.8314    5.9205   33.9042 N   0  0  0  0  0  0  0  0  0  0  0  0
   13.5840    7.3271   33.7595 C   0  0  0  0  0  0  0  0  0  0  0  0
   12.9917    7.9992   32.6616 N   0  0  0  0  0  0  0  0  0  0  0  0
   12.6592    7.1806   31.7434 C   0  0  0  0  0  0  0  0  0  0  0  0
   12.8656    5.7161   31.7986 C   0  0  0  0  0  0  0  0  0  0  0  0
   13.4435    5.1217   32.8506 C   0  0  0  0  0  0  0  0  0  0  0  0
   13.5845    3.8151   32.7623 N   0  0  0  0  0  0  0  0  0  0  0  0
   12.4506    5.0854   30.7260 N   0  0  0  0  0  0  0  0  0  0  0  0
   11.9758    6.1604   29.9974 C   0  0  0  0  0  0  0  0  0  0  0  0
   12.0932    7.4687   30.6212 N   0  0  0  0  0  0  0  0  0  0  0  0
  2  1  1  6  0  0  0
  2  3  1  0  0  0  0
  2  5  1  0  0  0  0
  3  4  1  0  0  0  0
  3 17  1  0  0  0  0
  5  6  1  0  0  0  0
  7  6  1  6  0  0  0
  7  8  1  0  0  0  0
  7  9  1  0  0  0  0
 10  9  1  1  0  0  0
 10 11  1  0  0  0  0
 10 12  1  0  0  0  0
 11 16  1  0  0  0  0
 12 13  1  6  0  0  0
 12 14  1  0  0  0  0
 14 15  1  6  0  0  0
 14 16  1  0  0  0  0
 16 27  1  6  0  0  0
 18 19  2  0  0  0  0
 18 23  1  0  0  0  0
 19 20  1  0  0  0  0
 20 21  2  0  0  0  0
 21 22  1  0  0  0  0
 21 27  1  0  0  0  0
 22 23  2  0  0  0  0
 22 25  1  0  0  0  0
 23 24  1  0  0  0  0
 25 26  2  0  0  0  0
 26 27  1  0  0  0  0
M  END
>  <CHROM.1>
-42.14747721,-166.92257042,80.05088845,-82.22430509,73.18380954,159.03532062
-149.28545114,12.32605709,7.66803413,27.99801011,-1.64612574,-0.63022773
1.75408094

>  <Name>
ligand

>  <RI>
0

>  <Rbt.Current_Directory>
/home/itssahil/PROJECTS/Mol_Feturizer/Test_systems_manuscript/rnas/4aob

>  <Rbt.Executable>
rbdock ($Id: //depot/dev/client3/rdock/2013.1/src/exe/rbdock.cxx#4 $)

>  <Rbt.Library>
libRbt.so (2013.1, Build901 2013/11/27)

>  <Rbt.Parameter_File>
/export/apps/rDock/src/rDock_2013.1_src/data/scripts/dock_solv.prm

>  <Rbt.Receptor>
prm/pocket_docking_8.prm

>  <SCORE>
-9.82743

>  <SCORE.INTER>
-12.0183

>  <SCORE.INTER.CONST>
1

>  <SCORE.INTER.POLAR>
0

>  <SCORE.INTER.ROT>
7

>  <SCORE.INTER.SOLV>
9.20209

>  <SCORE.INTER.VDW>
-19.3462

>  <SCORE.INTER.norm>
-0.445123

>  <SCORE.INTRA>
2.19089

>  <SCORE.INTRA.DIHEDRAL>
2.03762

>  <SCORE.INTRA.DIHEDRAL.0>
6.31833

>  <SCORE.INTRA.POLAR>
0

>  <SCORE.INTRA.POLAR.0>
0

>  <SCORE.INTRA.REPUL>
0

>  <SCORE.INTRA.REPUL.0>
0

>  <SCORE.INTRA.SOLV>
0.136713

>  <SCORE.INTRA.SOLV.lig_0>
-48.4015

>  <SCORE.INTRA.VDW>
1.10373

>  <SCORE.INTRA.VDW.0>
-2.83256

>  <SCORE.INTRA.norm>
0.0811441

>  <SCORE.RESTR>
0

>  <SCORE.RESTR.CAVITY>
0

>  <SCORE.RESTR.norm>
0

>  <SCORE.SYSTEM>
0

>  <SCORE.SYSTEM.CONST>
0

>  <SCORE.SYSTEM.DIHEDRAL>
0

>  <SCORE.SYSTEM.SOLV>
0

>  <SCORE.SYSTEM.norm>
0

>  <SCORE.heavy>
27

>  <SCORE.norm>
-0.363979

>  <RMSD>
5.554

$$$$
ligand
 OpenBabel02271912153D
libRbt.so/2013.1/901 2013/11/27
 27 29  0  0  0  0  0  0  0  0999 V2000
   14.7385    7.5332   24.6494 N   0  0  0  0  0  0  0  0  0  0  0  0
   14.2221    6.1470   24.5498 C   0  0  2  0  0  0  0  0  0  0  0  0
   13.3069    6.0769   23.3342 C   0  0  0  0  0  0  0  0  0  0  0  0
   12.0979    6.4794   23.2732 O   0  0  0  0  0  0  0  0  0  0  0  0
   13.5175    5.7891   25.8602 C   0  0  0  0  0  0  0  0  0  0  0  0
   14.4725    5.7280   27.0449 C   0  0  0  0  0  0  0  0  0  0  0  0
   15.1136    4.1591   27.7407 S   0  0  2  0  0  0  0  0  0  0  0  0
   13.5999    3.5523   28.4831 C   0  0  0  0  0  0  0  0  0  0  0  0
   16.0335    4.8578   29.1485 C   0  0  0  0  0  0  0  0  0  0  0  0
   16.6520    3.7792   29.9947 C   0  0  1  0  0  0  0  0  0  0  0  0
   17.6603    4.2923   30.8985 O   0  0  0  0  0  0  0  0  0  0  0  0
   15.6622    3.0039   30.8339 C   0  0  1  0  0  0  0  0  0  0  0  0
   15.3665    1.8474   30.1800 O   0  0  0  0  0  0  0  0  0  0  0  0
   16.5352    2.6412   32.0123 C   0  0  1  0  0  0  0  0  0  0  0  0
   17.2256    1.5356   31.6293 O   0  0  0  0  0  0  0  0  0  0  0  0
   17.5251    3.8108   32.2084 C   0  0  2  0  0  0  0  0  0  0  0  0
   13.7757    5.5253   22.3370 O   0  0  0  0  0  0  0  0  0  0  0  0
   17.4151    8.2125   34.9989 N   0  0  0  0  0  0  0  0  0  0  0  0
   18.4673    7.4764   34.3575 C   0  0  0  0  0  0  0  0  0  0  0  0
   18.3613    6.2776   33.6095 N   0  0  0  0  0  0  0  0  0  0  0  0
   17.1519    5.8825   33.5386 C   0  0  0  0  0  0  0  0  0  0  0  0
   15.9980    6.5713   34.1587 C   0  0  0  0  0  0  0  0  0  0  0  0
   16.1441    7.6960   34.8710 C   0  0  0  0  0  0  0  0  0  0  0  0
   15.0384    8.1948   35.3845 N   0  0  0  0  0  0  0  0  0  0  0  0
   14.8526    5.9650   33.9565 N   0  0  0  0  0  0  0  0  0  0  0  0
   15.2907    4.8936   33.2001 C   0  0  0  0  0  0  0  0  0  0  0  0
   16.7178    4.8337   32.9270 N   0  0  0  0  0  0  0  0  0  0  0  0
  2  1  1  1  0  0  0
  2  3  1  0  0  0  0
  2  5  1  0  0  0  0
  3  4  1  0  0  0  0
  3 17  1  0  0  0  0
  5  6  1  0  0  0  0
  7  6  1  6  0  0  0
  7  8  1  0  0  0  0
  7  9  1  0  0  0  0
 10  9  1  1  0  0  0
 10 11  1  0  0  0  0
 10 12  1  0  0  0  0
 11 16  1  0  0  0  0
 12 13  1  6  0  0  0
 12 14  1  0  0  0  0
 14 15  1  6  0  0  0
 14 16  1  0  0  0  0
 16 27  1  1  0  0  0
 18 19  2  0  0  0  0
 18 23  1  0  0  0  0
 19 20  1  0  0  0  0
 20 21  2  0  0  0  0
 21 22  1  0  0  0  0
 21 27  1  0  0  0  0
 22 23  2  0  0  0  0
 22 25  1  0  0  0  0
 23 24  1  0  0  0  0
 25 26  2  0  0  0  0
 26 27  1  0  0  0  0
M  END
>  <CHROM.1>
-79.24520093,-65.82807789,-101.37530362,-70.39053291,177.31289119,164.89984113
-87.70846255,15.60436690,5.17897090,29.94955888,2.59808605,1.20143665,-2.59542461

>  <Name>
ligand

>  <RI>
0

>  <Rbt.Current_Directory>
/home/itssahil/PROJECTS/Mol_Feturizer/Test_systems_manuscript/rnas/4aob

>  <Rbt.Executable>
rbdock ($Id: //depot/dev/client3/rdock/2013.1/src/exe/rbdock.cxx#4 $)

>  <Rbt.Library>
libRbt.so (2013.1, Build901 2013/11/27)

>  <Rbt.Parameter_File>
/export/apps/rDock/src/rDock_2013.1_src/data/scripts/dock_solv.prm

>  <Rbt.Receptor>
prm/pocket_docking_7.prm

>  <SCORE>
-11.6369

>  <SCORE.INTER>
-14.0992

>  <SCORE.INTER.CONST>
1

>  <SCORE.INTER.POLAR>
0

>  <SCORE.INTER.ROT>
7

>  <SCORE.INTER.SOLV>
14.7507

>  <SCORE.INTER.VDW>
-22.5831

>  <SCORE.INTER.norm>
-0.522194

>  <SCORE.INTRA>
2.4623

>  <SCORE.INTRA.DIHEDRAL>
2.39177

>  <SCORE.INTRA.DIHEDRAL.0>
6.31833

>  <SCORE.INTRA.POLAR>
0

>  <SCORE.INTRA.POLAR.0>
0

>  <SCORE.INTRA.REPUL>
0

>  <SCORE.INTRA.REPUL.0>
0

>  <SCORE.INTRA.SOLV>
0.172902

>  <SCORE.INTRA.SOLV.lig_0>
-48.4015

>  <SCORE.INTRA.VDW>
1.17996

>  <SCORE.INTRA.VDW.0>
-2.83256

>  <SCORE.INTRA.norm>
0.0911962

>  <SCORE.RESTR>
0

>  <SCORE.RESTR.CAVITY>
0

>  <SCORE.RESTR.norm>
0

>  <SCORE.SYSTEM>
0

>  <SCORE.SYSTEM.CONST>
0

>  <SCORE.SYSTEM.DIHEDRAL>
0

>  <SCORE.SYSTEM.SOLV>
0

>  <SCORE.SYSTEM.norm>
0

>  <SCORE.heavy>
27

>  <SCORE.norm>
-0.430998

>  <RMSD>
5.561

$$$$
ligand
 OpenBabel02271912153D
libRbt.so/2013.1/901 2013/11/27
 27 29  0  0  0  0  0  0  0  0999 V2000
   16.4968    5.9711   29.5761 N   0  0  0  0  0  0  0  0  0  0  0  0
   17.0582    4.6269   29.8526 C   0  0  2  0  0  0  0  0  0  0  0  0
   18.3408    4.4823   29.0438 C   0  0  0  0  0  0  0  0  0  0  0  0
   19.5194    4.7732   29.4359 O   0  0  0  0  0  0  0  0  0  0  0  0
   16.0032    3.5730   29.5094 C   0  0  0  0  0  0  0  0  0  0  0  0
   14.8060    3.6099   30.4499 C   0  0  0  0  0  0  0  0  0  0  0  0
   14.8367    2.9163   32.1454 S   0  0  2  0  0  0  0  0  0  0  0  0
   14.1682    1.2929   31.7872 C   0  0  0  0  0  0  0  0  0  0  0  0
   13.4133    3.8279   32.8231 C   0  0  0  0  0  0  0  0  0  0  0  0
   13.7888    5.2326   33.2075 C   0  0  1  0  0  0  0  0  0  0  0  0
   14.5148    5.9196   32.1598 O   0  0  0  0  0  0  0  0  0  0  0  0
   12.6149    6.1100   33.5779 C   0  0  1  0  0  0  0  0  0  0  0  0
   12.5124    6.1299   34.9349 O   0  0  0  0  0  0  0  0  0  0  0  0
   13.1423    7.4592   33.1490 C   0  0  1  0  0  0  0  0  0  0  0  0
   13.9167    7.8929   34.1775 O   0  0  0  0  0  0  0  0  0  0  0  0
   14.0362    7.2143   31.9133 C   0  0  2  0  0  0  0  0  0  0  0  0
   18.2049    4.0979   27.8809 O   0  0  0  0  0  0  0  0  0  0  0  0
   11.5472    9.4091   27.8931 N   0  0  0  0  0  0  0  0  0  0  0  0
   12.5640    9.8703   28.7953 C   0  0  0  0  0  0  0  0  0  0  0  0
   13.1729    9.1590   29.8589 N   0  0  0  0  0  0  0  0  0  0  0  0
   12.7119    7.9742   29.9462 C   0  0  0  0  0  0  0  0  0  0  0  0
   11.6699    7.4034   29.0636 C   0  0  0  0  0  0  0  0  0  0  0  0
   11.1092    8.1158   28.0777 C   0  0  0  0  0  0  0  0  0  0  0  0
   10.1808    7.4941   27.3803 N   0  0  0  0  0  0  0  0  0  0  0  0
   11.3512    6.1656   29.3579 N   0  0  0  0  0  0  0  0  0  0  0  0
   12.2030    5.9578   30.4272 C   0  0  0  0  0  0  0  0  0  0  0  0
   13.0597    7.0723   30.7995 N   0  0  0  0  0  0  0  0  0  0  0  0
  2  1  1  6  0  0  0
  2  3  1  0  0  0  0
  2  5  1  0  0  0  0
  3  4  1  0  0  0  0
  3 17  1  0  0  0  0
  5  6  1  0  0  0  0
  7  6  1  6  0  0  0
  7  8  1  0  0  0  0
  7  9  1  0  0  0  0
 10  9  1  6  0  0  0
 10 11  1  0  0  0  0
 10 12  1  0  0  0  0
 11 16  1  0  0  0  0
 12 13  1  1  0  0  0
 12 14  1  0  0  0  0
 14 15  1  1  0  0  0
 14 16  1  0  0  0  0
 16 27  1  6  0  0  0
 18 19  2  0  0  0  0
 18 23  1  0  0  0  0
 19 20  1  0  0  0  0
 20 21  2  0  0  0  0
 21 22  1  0  0  0  0
 21 27  1  0  0  0  0
 22 23  2  0  0  0  0
 22 25  1  0  0  0  0
 23 24  1  0  0  0  0
 25 26  2  0  0  0  0
 26 27  1  0  0  0  0
M  END
>  <CHROM.1>
91.41721639,-67.88154761,-77.19726604,-94.48008710,-79.67635282,48.90987874
-154.54220507,14.07159446,5.85989631,30.76005872,-0.41542035,0.63919791,-1.09834791

>  <Name>
ligand

>  <RI>
0

>  <Rbt.Current_Directory>
/home/itssahil/PROJECTS/Mol_Feturizer/Test_systems_manuscript/rnas/4aob

>  <Rbt.Executable>
rbdock ($Id: //depot/dev/client3/rdock/2013.1/src/exe/rbdock.cxx#4 $)

>  <Rbt.Library>
libRbt.so (2013.1, Build901 2013/11/27)

>  <Rbt.Parameter_File>
/export/apps/rDock/src/rDock_2013.1_src/data/scripts/dock_solv.prm

>  <Rbt.Receptor>
prm/pocket_docking_5.prm

>  <SCORE>
-13.0788

>  <SCORE.INTER>
-13.6863

>  <SCORE.INTER.CONST>
1

>  <SCORE.INTER.POLAR>
0

>  <SCORE.INTER.ROT>
7

>  <SCORE.INTER.SOLV>
11.6501

>  <SCORE.INTER.VDW>
-21.2742

>  <SCORE.INTER.norm>
-0.506898

>  <SCORE.INTRA>
0.607479

>  <SCORE.INTRA.DIHEDRAL>
0.486232

>  <SCORE.INTRA.DIHEDRAL.0>
6.31833

>  <SCORE.INTRA.POLAR>
0

>  <SCORE.INTRA.POLAR.0>
0

>  <SCORE.INTRA.REPUL>
0

>  <SCORE.INTRA.REPUL.0>
0

>  <SCORE.INTRA.SOLV>
1.84403

>  <SCORE.INTRA.SOLV.lig_0>
-48.4015

>  <SCORE.INTRA.VDW>
-0.557653

>  <SCORE.INTRA.VDW.0>
-2.83256

>  <SCORE.INTRA.norm>
0.0224992

>  <SCORE.RESTR>
0

>  <SCORE.RESTR.CAVITY>
0

>  <SCORE.RESTR.norm>
0

>  <SCORE.SYSTEM>
0

>  <SCORE.SYSTEM.CONST>
0

>  <SCORE.SYSTEM.DIHEDRAL>
0

>  <SCORE.SYSTEM.SOLV>
0

>  <SCORE.SYSTEM.norm>
0

>  <SCORE.heavy>
27

>  <SCORE.norm>
-0.484399

>  <RMSD>
5.567

$$$$
ligand
 OpenBabel02271912153D
libRbt.so/2013.1/901 2013/11/27
 27 29  0  0  0  0  0  0  0  0999 V2000
   14.5342    5.6075   33.1974 N   0  0  0  0  0  0  0  0  0  0  0  0
   14.3712    6.6542   34.2348 C   0  0  2  0  0  0  0  0  0  0  0  0
   13.0559    6.3933   34.9574 C   0  0  0  0  0  0  0  0  0  0  0  0
   12.8199    6.5936   36.1950 O   0  0  0  0  0  0  0  0  0  0  0  0
   14.4310    8.0273   33.5620 C   0  0  0  0  0  0  0  0  0  0  0  0
   13.3790    8.1964   32.4740 C   0  0  0  0  0  0  0  0  0  0  0  0
   13.4021    7.2624   30.8980 S   0  0  2  0  0  0  0  0  0  0  0  0
   15.0770    7.6380   30.3839 C   0  0  0  0  0  0  0  0  0  0  0  0
   12.3825    8.4011   29.9080 C   0  0  0  0  0  0  0  0  0  0  0  0
   12.2131    7.9072   28.4976 C   0  0  1  0  0  0  0  0  0  0  0  0
   13.4570    7.4443   27.9184 O   0  0  0  0  0  0  0  0  0  0  0  0
   11.2132    6.7833   28.3489 C   0  0  1  0  0  0  0  0  0  0  0  0
   10.0307    7.3195   27.9407 O   0  0  0  0  0  0  0  0  0  0  0  0
   11.8050    6.0520   27.1667 C   0  0  1  0  0  0  0  0  0  0  0  0
   11.3665    6.7189   26.0674 O   0  0  0  0  0  0  0  0  0  0  0  0
   13.3384    6.2060   27.2715 C   0  0  2  0  0  0  0  0  0  0  0  0
   12.1592    5.8879   34.2800 O   0  0  0  0  0  0  0  0  0  0  0  0
   16.9499    2.9349   29.1239 N   0  0  0  0  0  0  0  0  0  0  0  0
   16.9449    3.9015   28.0627 C   0  0  0  0  0  0  0  0  0  0  0  0
   15.8821    4.7478   27.6600 N   0  0  0  0  0  0  0  0  0  0  0  0
   14.8505    4.5720   28.3870 C   0  0  0  0  0  0  0  0  0  0  0  0
   14.7566    3.6071   29.5054 C   0  0  0  0  0  0  0  0  0  0  0  0
   15.7816    2.8144   29.8444 C   0  0  0  0  0  0  0  0  0  0  0  0
   15.5580    1.9880   30.8453 N   0  0  0  0  0  0  0  0  0  0  0  0
   13.5863    3.6001   30.0975 N   0  0  0  0  0  0  0  0  0  0  0  0
   12.9453    4.5706   29.3498 C   0  0  0  0  0  0  0  0  0  0  0  0
   13.7222    5.1881   28.2869 N   0  0  0  0  0  0  0  0  0  0  0  0
  2  1  1  6  0  0  0
  2  3  1  0  0  0  0
  2  5  1  0  0  0  0
  3  4  1  0  0  0  0
  3 17  1  0  0  0  0
  5  6  1  0  0  0  0
  7  6  1  1  0  0  0
  7  8  1  0  0  0  0
  7  9  1  0  0  0  0
 10  9  1  1  0  0  0
 10 11  1  0  0  0  0
 10 12  1  0  0  0  0
 11 16  1  0  0  0  0
 12 13  1  6  0  0  0
 12 14  1  0  0  0  0
 14 15  1  6  0  0  0
 14 16  1  0  0  0  0
 16 27  1  1  0  0  0
 18 19  2  0  0  0  0
 18 23  1  0  0  0  0
 19 20  1  0  0  0  0
 20 21  2  0  0  0  0
 21 22  1  0  0  0  0
 21 27  1  0  0  0  0
 22 23  2  0  0  0  0
 22 25  1  0  0  0  0
 23 24  1  0  0  0  0
 25 26  2  0  0  0  0
 26 27  1  0  0  0  0
M  END
>  <CHROM.1>
145.08258603,57.44019107,-67.79956085,-52.67620067,179.49657858,-45.29327818
-101.29612687,13.63233227,5.94723169,30.22609146,-1.56259604,0.81414345,-1.74610506

>  <Name>
ligand

>  <RI>
0

>  <Rbt.Current_Directory>
/home/itssahil/PROJECTS/Mol_Feturizer/Test_systems_manuscript/rnas/4aob

>  <Rbt.Executable>
rbdock ($Id: //depot/dev/client3/rdock/2013.1/src/exe/rbdock.cxx#4 $)

>  <Rbt.Library>
libRbt.so (2013.1, Build901 2013/11/27)

>  <Rbt.Parameter_File>
/export/apps/rDock/src/rDock_2013.1_src/data/scripts/dock_solv.prm

>  <Rbt.Receptor>
prm/pocket_docking_5.prm

>  <SCORE>
-10.8869

>  <SCORE.INTER>
-11.0838

>  <SCORE.INTER.CONST>
1

>  <SCORE.INTER.POLAR>
0

>  <SCORE.INTER.ROT>
7

>  <SCORE.INTER.SOLV>
9.81463

>  <SCORE.INTER.VDW>
-18.9274

>  <SCORE.INTER.norm>
-0.41051

>  <SCORE.INTRA>
0.196831

>  <SCORE.INTRA.DIHEDRAL>
-1.14985

>  <SCORE.INTRA.DIHEDRAL.0>
6.31833

>  <SCORE.INTRA.POLAR>
0

>  <SCORE.INTRA.POLAR.0>
0

>  <SCORE.INTRA.REPUL>
0

>  <SCORE.INTRA.REPUL.0>
0

>  <SCORE.INTRA.SOLV>
2.41062

>  <SCORE.INTRA.SOLV.lig_0>
-48.4015

>  <SCORE.INTRA.VDW>
-0.433552

>  <SCORE.INTRA.VDW.0>
-2.83256

>  <SCORE.INTRA.norm>
0.00729003

>  <SCORE.RESTR>
0

>  <SCORE.RESTR.CAVITY>
0

>  <SCORE.RESTR.norm>
0

>  <SCORE.SYSTEM>
0

>  <SCORE.SYSTEM.CONST>
0

>  <SCORE.SYSTEM.DIHEDRAL>
0

>  <SCORE.SYSTEM.SOLV>
0

>  <SCORE.SYSTEM.norm>
0

>  <SCORE.heavy>
27

>  <SCORE.norm>
-0.40322

>  <RMSD>
5.582

$$$$
ligand
 OpenBabel02271912153D
libRbt.so/2013.1/901 2013/11/27
 27 29  0  0  0  0  0  0  0  0999 V2000
   15.3150    8.2480   24.6241 N   0  0  0  0  0  0  0  0  0  0  0  0
   14.5392    7.6184   25.7196 C   0  0  2  0  0  0  0  0  0  0  0  0
   14.4684    8.6126   26.8714 C   0  0  0  0  0  0  0  0  0  0  0  0
   15.3548    9.4763   27.1810 O   0  0  0  0  0  0  0  0  0  0  0  0
   15.2095    6.2965   26.1004 C   0  0  0  0  0  0  0  0  0  0  0  0
   14.3518    5.4474   27.0291 C   0  0  0  0  0  0  0  0  0  0  0  0
   14.9474    3.9054   27.8192 S   0  0  2  0  0  0  0  0  0  0  0  0
   13.4490    3.4493   28.6893 C   0  0  0  0  0  0  0  0  0  0  0  0
   15.9830    4.6612   29.1124 C   0  0  0  0  0  0  0  0  0  0  0  0
   16.6276    3.6186   29.9839 C   0  0  1  0  0  0  0  0  0  0  0  0
   17.6369    4.1747   30.8608 O   0  0  0  0  0  0  0  0  0  0  0  0
   15.6592    2.8535   30.8568 C   0  0  1  0  0  0  0  0  0  0  0  0
   15.3755    1.6732   30.2412 O   0  0  0  0  0  0  0  0  0  0  0  0
   16.5502    2.5404   32.0360 C   0  0  1  0  0  0  0  0  0  0  0  0
   17.2543    1.4349   31.6789 O   0  0  0  0  0  0  0  0  0  0  0  0
   17.5230    3.7309   32.1860 C   0  0  2  0  0  0  0  0  0  0  0  0
   13.4780    8.5252   27.5994 O   0  0  0  0  0  0  0  0  0  0  0  0
   17.3811    8.1401   34.9633 N   0  0  0  0  0  0  0  0  0  0  0  0
   18.4426    7.3938   34.3496 C   0  0  0  0  0  0  0  0  0  0  0  0
   18.3451    6.1941   33.6019 N   0  0  0  0  0  0  0  0  0  0  0  0
   17.1346    5.8088   33.5021 C   0  0  0  0  0  0  0  0  0  0  0  0
   15.9714    6.5086   34.0920 C   0  0  0  0  0  0  0  0  0  0  0  0
   16.1094    7.6339   34.8053 C   0  0  0  0  0  0  0  0  0  0  0  0
   14.9956    8.1429   35.2903 N   0  0  0  0  0  0  0  0  0  0  0  0
   14.8264    5.9114   33.8630 N   0  0  0  0  0  0  0  0  0  0  0  0
   15.2741    4.8346   33.1200 C   0  0  0  0  0  0  0  0  0  0  0  0
   16.7069    4.7622   32.8823 N   0  0  0  0  0  0  0  0  0  0  0  0
  2  1  1  6  0  0  0
  2  3  1  0  0  0  0
  2  5  1  0  0  0  0
  3  4  1  0  0  0  0
  3 17  1  0  0  0  0
  5  6  1  0  0  0  0
  7  6  1  6  0  0  0
  7  8  1  0  0  0  0
  7  9  1  0  0  0  0
 10  9  1  1  0  0  0
 10 11  1  0  0  0  0
 10 12  1  0  0  0  0
 11 16  1  0  0  0  0
 12 13  1  6  0  0  0
 12 14  1  0  0  0  0
 14 15  1  6  0  0  0
 14 16  1  0  0  0  0
 16 27  1  1  0  0  0
 18 19  2  0  0  0  0
 18 23  1  0  0  0  0
 19 20  1  0  0  0  0
 20 21  2  0  0  0  0
 21 22  1  0  0  0  0
 21 27  1  0  0  0  0
 22 23  2  0  0  0  0
 22 25  1  0  0  0  0
 23 24  1  0  0  0  0
 25 26  2  0  0  0  0
 26 27  1  0  0  0  0
M  END
>  <CHROM.1>
-31.56490262,-169.18215047,-172.65968674,-178.45709825,179.20967213,169.62824280
-90.63514264,15.81957404,5.49888312,30.47913169,2.97624717,1.29084241,-2.82542582

>  <Name>
ligand

>  <RI>
0

>  <Rbt.Current_Directory>
/home/itssahil/PROJECTS/Mol_Feturizer/Test_systems_manuscript/rnas/4aob

>  <Rbt.Executable>
rbdock ($Id: //depot/dev/client3/rdock/2013.1/src/exe/rbdock.cxx#4 $)

>  <Rbt.Library>
libRbt.so (2013.1, Build901 2013/11/27)

>  <Rbt.Parameter_File>
/export/apps/rDock/src/rDock_2013.1_src/data/scripts/dock_solv.prm

>  <Rbt.Receptor>
prm/pocket_docking_6.prm

>  <SCORE>
-10.6793

>  <SCORE.INTER>
-10.4039

>  <SCORE.INTER.CONST>
1

>  <SCORE.INTER.POLAR>
0

>  <SCORE.INTER.ROT>
7

>  <SCORE.INTER.SOLV>
14.9318

>  <SCORE.INTER.VDW>
-20.1798

>  <SCORE.INTER.norm>
-0.385328

>  <SCORE.INTRA>
-0.275461

>  <SCORE.INTRA.DIHEDRAL>
-1.71796

>  <SCORE.INTRA.DIHEDRAL.0>
6.31833

>  <SCORE.INTRA.POLAR>
0

>  <SCORE.INTRA.POLAR.0>
0

>  <SCORE.INTRA.REPUL>
0

>  <SCORE.INTRA.REPUL.0>
0

>  <SCORE.INTRA.SOLV>
-0.50368

>  <SCORE.INTRA.SOLV.lig_0>
-48.4015

>  <SCORE.INTRA.VDW>
0.835358

>  <SCORE.INTRA.VDW.0>
-2.83256

>  <SCORE.INTRA.norm>
-0.0102023

>  <SCORE.RESTR>
0

>  <SCORE.RESTR.CAVITY>
0

>  <SCORE.RESTR.norm>
0

>  <SCORE.SYSTEM>
0

>  <SCORE.SYSTEM.CONST>
0

>  <SCORE.SYSTEM.DIHEDRAL>
0

>  <SCORE.SYSTEM.SOLV>
0

>  <SCORE.SYSTEM.norm>
0

>  <SCORE.heavy>
27

>  <SCORE.norm>
-0.395531

>  <RMSD>
5.591

$$$$
ligand
 OpenBabel02271912153D
libRbt.so/2013.1/901 2013/11/27
 27 29  0  0  0  0  0  0  0  0999 V2000
   16.7295    2.3645   32.0801 N   0  0  0  0  0  0  0  0  0  0  0  0
   16.4238    1.5026   30.9131 C   0  0  2  0  0  0  0  0  0  0  0  0
   16.1734    2.4108   29.7161 C   0  0  0  0  0  0  0  0  0  0  0  0
   15.1822    3.1981   29.5579 O   0  0  0  0  0  0  0  0  0  0  0  0
   15.2283    0.6122   31.2588 C   0  0  0  0  0  0  0  0  0  0  0  0
   13.9461    1.4050   31.4740 C   0  0  0  0  0  0  0  0  0  0  0  0
   13.6368    2.4347   32.9575 S   0  0  2  0  0  0  0  0  0  0  0  0
   11.8778    2.6998   32.7427 C   0  0  0  0  0  0  0  0  0  0  0  0
   14.3821    3.9838   32.3567 C   0  0  0  0  0  0  0  0  0  0  0  0
   14.3367    5.0618   33.4044 C   0  0  1  0  0  0  0  0  0  0  0  0
   15.1270    6.2203   33.0435 O   0  0  0  0  0  0  0  0  0  0  0  0
   12.9455    5.5599   33.7232 C   0  0  1  0  0  0  0  0  0  0  0  0
   12.5149    4.9239   34.8468 O   0  0  0  0  0  0  0  0  0  0  0  0
   13.2532    6.9883   34.1074 C   0  0  1  0  0  0  0  0  0  0  0  0
   13.6408    6.9415   35.4086 O   0  0  0  0  0  0  0  0  0  0  0  0
   14.4515    7.4332   33.2401 C   0  0  2  0  0  0  0  0  0  0  0  0
   16.9867    2.3250   28.7943 O   0  0  0  0  0  0  0  0  0  0  0  0
   14.9347    9.5947   28.5211 N   0  0  0  0  0  0  0  0  0  0  0  0
   15.8466    9.3882   29.6104 C   0  0  0  0  0  0  0  0  0  0  0  0
   15.5873    8.7688   30.8582 N   0  0  0  0  0  0  0  0  0  0  0  0
   14.3804    8.3669   30.9328 C   0  0  0  0  0  0  0  0  0  0  0  0
   13.3669    8.5264   29.8660 C   0  0  0  0  0  0  0  0  0  0  0  0
   13.6500    9.1320   28.7054 C   0  0  0  0  0  0  0  0  0  0  0  0
   12.6518    9.2248   27.8511 N   0  0  0  0  0  0  0  0  0  0  0  0
   12.1899    8.0414   30.1817 N   0  0  0  0  0  0  0  0  0  0  0  0
   12.4693    7.5698   31.4511 C   0  0  0  0  0  0  0  0  0  0  0  0
   13.8298    7.7597   31.9281 N   0  0  0  0  0  0  0  0  0  0  0  0
  2  1  1  1  0  0  0
  2  3  1  0  0  0  0
  2  5  1  0  0  0  0
  3  4  1  0  0  0  0
  3 17  1  0  0  0  0
  5  6  1  0  0  0  0
  7  6  1  6  0  0  0
  7  8  1  0  0  0  0
  7  9  1  0  0  0  0
 10  9  1  6  0  0  0
 10 11  1  0  0  0  0
 10 12  1  0  0  0  0
 11 16  1  0  0  0  0
 12 13  1  1  0  0  0
 12 14  1  0  0  0  0
 14 15  1  1  0  0  0
 14 16  1  0  0  0  0
 16 27  1  6  0  0  0
 18 19  2  0  0  0  0
 18 23  1  0  0  0  0
 19 20  1  0  0  0  0
 20 21  2  0  0  0  0
 21 22  1  0  0  0  0
 21 27  1  0  0  0  0
 22 23  2  0  0  0  0
 22 25  1  0  0  0  0
 23 24  1  0  0  0  0
 25 26  2  0  0  0  0
 26 27  1  0  0  0  0
M  END
>  <CHROM.1>
-68.38365199,65.31339168,-73.05139529,-166.53676947,-177.74186576,169.74659608
-84.87375749,14.25991711,5.41081107,31.58174235,-1.25905580,1.10243550,-0.50325926

>  <Name>
ligand

>  <RI>
0

>  <Rbt.Current_Directory>
/home/itssahil/PROJECTS/Mol_Feturizer/Test_systems_manuscript/rnas/4aob

>  <Rbt.Executable>
rbdock ($Id: //depot/dev/client3/rdock/2013.1/src/exe/rbdock.cxx#4 $)

>  <Rbt.Library>
libRbt.so (2013.1, Build901 2013/11/27)

>  <Rbt.Parameter_File>
/export/apps/rDock/src/rDock_2013.1_src/data/scripts/dock_solv.prm

>  <Rbt.Receptor>
prm/pocket_docking_3.prm

>  <SCORE>
-18.8717

>  <SCORE.INTER>
-21.0166

>  <SCORE.INTER.CONST>
1

>  <SCORE.INTER.POLAR>
0

>  <SCORE.INTER.ROT>
7

>  <SCORE.INTER.SOLV>
13.9007

>  <SCORE.INTER.VDW>
-26.9113

>  <SCORE.INTER.norm>
-0.778392

>  <SCORE.INTRA>
2.14485

>  <SCORE.INTRA.DIHEDRAL>
-0.368939

>  <SCORE.INTRA.DIHEDRAL.0>
6.31833

>  <SCORE.INTRA.POLAR>
0

>  <SCORE.INTRA.POLAR.0>
0

>  <SCORE.INTRA.REPUL>
0

>  <SCORE.INTRA.REPUL.0>
0

>  <SCORE.INTRA.SOLV>
2.98415

>  <SCORE.INTRA.SOLV.lig_0>
-48.4015

>  <SCORE.INTRA.VDW>
0.837241

>  <SCORE.INTRA.VDW.0>
-2.83256

>  <SCORE.INTRA.norm>
0.0794388

>  <SCORE.RESTR>
0

>  <SCORE.RESTR.CAVITY>
0

>  <SCORE.RESTR.norm>
0

>  <SCORE.SYSTEM>
0

>  <SCORE.SYSTEM.CONST>
0

>  <SCORE.SYSTEM.DIHEDRAL>
0

>  <SCORE.SYSTEM.SOLV>
0

>  <SCORE.SYSTEM.norm>
0

>  <SCORE.heavy>
27

>  <SCORE.norm>
-0.698954

>  <RMSD>
5.598

$$$$
ligand
 OpenBabel02271912153D
libRbt.so/2013.1/901 2013/11/27
 27 29  0  0  0  0  0  0  0  0999 V2000
   16.7540    2.3830   32.1748 N   0  0  0  0  0  0  0  0  0  0  0  0
   16.5300    1.5010   31.0043 C   0  0  2  0  0  0  0  0  0  0  0  0
   16.4005    2.3865   29.7716 C   0  0  0  0  0  0  0  0  0  0  0  0
   17.0236    2.2426   28.6678 O   0  0  0  0  0  0  0  0  0  0  0  0
   15.2912    0.6414   31.2658 C   0  0  0  0  0  0  0  0  0  0  0  0
   14.0243    1.4696   31.4332 C   0  0  0  0  0  0  0  0  0  0  0  0
   13.6643    2.4672   32.9271 S   0  0  2  0  0  0  0  0  0  0  0  0
   11.9200    2.7626   32.6431 C   0  0  0  0  0  0  0  0  0  0  0  0
   14.4555    4.0196   32.3978 C   0  0  0  0  0  0  0  0  0  0  0  0
   14.3477    5.0835   33.4554 C   0  0  1  0  0  0  0  0  0  0  0  0
   15.1063    6.2723   33.1262 O   0  0  0  0  0  0  0  0  0  0  0  0
   12.9330    5.5302   33.7451 C   0  0  1  0  0  0  0  0  0  0  0  0
   12.4974    4.8672   34.8510 O   0  0  0  0  0  0  0  0  0  0  0  0
   13.1819    6.9638   34.1516 C   0  0  1  0  0  0  0  0  0  0  0  0
   13.5392    6.9156   35.4614 O   0  0  0  0  0  0  0  0  0  0  0  0
   14.3849    7.4592   33.3188 C   0  0  2  0  0  0  0  0  0  0  0  0
   15.6599    3.3647   29.8855 O   0  0  0  0  0  0  0  0  0  0  0  0
   14.9289    9.6365   28.6137 N   0  0  0  0  0  0  0  0  0  0  0  0
   15.8221    9.4413   29.7203 C   0  0  0  0  0  0  0  0  0  0  0  0
   15.5475    8.8157   30.9618 N   0  0  0  0  0  0  0  0  0  0  0  0
   14.3454    8.3961   31.0120 C   0  0  0  0  0  0  0  0  0  0  0  0
   13.3508    8.5429   29.9259 C   0  0  0  0  0  0  0  0  0  0  0  0
   13.6477    9.1548   28.7720 C   0  0  0  0  0  0  0  0  0  0  0  0
   12.6652    9.2347   27.8984 N   0  0  0  0  0  0  0  0  0  0  0  0
   12.1750    8.0402   30.2176 N   0  0  0  0  0  0  0  0  0  0  0  0
   12.4363    7.5703   31.4915 C   0  0  0  0  0  0  0  0  0  0  0  0
   13.7843    7.7791   31.9954 N   0  0  0  0  0  0  0  0  0  0  0  0
  2  1  1  1  0  0  0
  2  3  1  0  0  0  0
  2  5  1  0  0  0  0
  3  4  1  0  0  0  0
  3 17  1  0  0  0  0
  5  6  1  0  0  0  0
  7  6  1  6  0  0  0
  7  8  1  0  0  0  0
  7  9  1  0  0  0  0
 10  9  1  6  0  0  0
 10 11  1  0  0  0  0
 10 12  1  0  0  0  0
 11 16  1  0  0  0  0
 12 13  1  1  0  0  0
 12 14  1  0  0  0  0
 14 15  1  1  0  0  0
 14 16  1  0  0  0  0
 16 27  1  6  0  0  0
 18 19  2  0  0  0  0
 18 23  1  0  0  0  0
 19 20  1  0  0  0  0
 20 21  2  0  0  0  0
 21 22  1  0  0  0  0
 21 27  1  0  0  0  0
 22 23  2  0  0  0  0
 22 25  1  0  0  0  0
 23 24  1  0  0  0  0
 25 26  2  0  0  0  0
 26 27  1  0  0  0  0
M  END
>  <CHROM.1>
130.22034698,62.07216489,-73.42233940,-165.25380472,-179.20856575,173.02918931
-83.60092251,14.28688884,5.43034091,31.62772762,-1.22015002,1.07263549,-0.51350860

>  <Name>
ligand

>  <RI>
0

>  <Rbt.Current_Directory>
/home/itssahil/PROJECTS/Mol_Feturizer/Test_systems_manuscript/rnas/4aob

>  <Rbt.Executable>
rbdock ($Id: //depot/dev/client3/rdock/2013.1/src/exe/rbdock.cxx#4 $)

>  <Rbt.Library>
libRbt.so (2013.1, Build901 2013/11/27)

>  <Rbt.Parameter_File>
/export/apps/rDock/src/rDock_2013.1_src/data/scripts/dock_solv.prm

>  <Rbt.Receptor>
prm/pocket_docking_4.prm

>  <SCORE>
-18.4046

>  <SCORE.INTER>
-21.0814

>  <SCORE.INTER.CONST>
1

>  <SCORE.INTER.POLAR>
0

>  <SCORE.INTER.ROT>
7

>  <SCORE.INTER.SOLV>
14.1643

>  <SCORE.INTER.VDW>
-27.0424

>  <SCORE.INTER.norm>
-0.780794

>  <SCORE.INTRA>
2.67685

>  <SCORE.INTRA.DIHEDRAL>
-0.558433

>  <SCORE.INTRA.DIHEDRAL.0>
6.31833

>  <SCORE.INTRA.POLAR>
0

>  <SCORE.INTRA.POLAR.0>
0

>  <SCORE.INTRA.REPUL>
0

>  <SCORE.INTRA.REPUL.0>
0

>  <SCORE.INTRA.SOLV>
3.10404

>  <SCORE.INTRA.SOLV.lig_0>
-48.4015

>  <SCORE.INTRA.VDW>
1.40404

>  <SCORE.INTRA.VDW.0>
-2.83256

>  <SCORE.INTRA.norm>
0.0991426

>  <SCORE.RESTR>
0

>  <SCORE.RESTR.CAVITY>
0

>  <SCORE.RESTR.norm>
0

>  <SCORE.SYSTEM>
0

>  <SCORE.SYSTEM.CONST>
0

>  <SCORE.SYSTEM.DIHEDRAL>
0

>  <SCORE.SYSTEM.SOLV>
0

>  <SCORE.SYSTEM.norm>
0

>  <SCORE.heavy>
27

>  <SCORE.norm>
-0.681652

>  <RMSD>
5.605

$$$$
ligand
 OpenBabel02271912153D
libRbt.so/2013.1/901 2013/11/27
 27 29  0  0  0  0  0  0  0  0999 V2000
   11.0977    9.0306   26.6728 N   0  0  0  0  0  0  0  0  0  0  0  0
   12.4054    9.5644   26.2219 C   0  0  2  0  0  0  0  0  0  0  0  0
   12.1361   10.6140   25.1513 C   0  0  0  0  0  0  0  0  0  0  0  0
   11.3467   10.4946   24.1563 O   0  0  0  0  0  0  0  0  0  0  0  0
   13.2675    8.4011   25.7267 C   0  0  0  0  0  0  0  0  0  0  0  0
   14.6664    8.8388   25.3137 C   0  0  0  0  0  0  0  0  0  0  0  0
   15.8291    9.6908   26.4446 S   0  0  2  0  0  0  0  0  0  0  0  0
   17.2662    9.7338   25.3753 C   0  0  0  0  0  0  0  0  0  0  0  0
   16.1681    8.2960   27.5653 C   0  0  0  0  0  0  0  0  0  0  0  0
   15.0606    8.1087   28.5654 C   0  0  1  0  0  0  0  0  0  0  0  0
   15.1631    6.8526   29.2785 O   0  0  0  0  0  0  0  0  0  0  0  0
   14.9732    9.2005   29.6072 C   0  0  1  0  0  0  0  0  0  0  0  0
   14.0113   10.0814   29.2181 O   0  0  0  0  0  0  0  0  0  0  0  0
   14.4169    8.4161   30.7724 C   0  0  1  0  0  0  0  0  0  0  0  0
   13.0743    8.3653   30.5713 O   0  0  0  0  0  0  0  0  0  0  0  0
   14.9971    6.9886   30.6642 C   0  0  2  0  0  0  0  0  0  0  0  0
   12.7931   11.6529   25.2370 O   0  0  0  0  0  0  0  0  0  0  0  0
   18.0438    7.7541   34.8244 N   0  0  0  0  0  0  0  0  0  0  0  0
   16.6267    7.6023   34.6531 C   0  0  0  0  0  0  0  0  0  0  0  0
   15.9127    7.3870   33.4482 N   0  0  0  0  0  0  0  0  0  0  0  0
   16.7011    7.3223   32.4492 C   0  0  0  0  0  0  0  0  0  0  0  0
   18.1729    7.4603   32.5211 C   0  0  0  0  0  0  0  0  0  0  0  0
   18.8077    7.6779   33.6802 C   0  0  0  0  0  0  0  0  0  0  0  0
   20.1167    7.8012   33.6003 N   0  0  0  0  0  0  0  0  0  0  0  0
   18.7676    7.3688   31.3556 N   0  0  0  0  0  0  0  0  0  0  0  0
   17.6624    7.1660   30.5497 C   0  0  0  0  0  0  0  0  0  0  0  0
   16.3713    7.1282   31.2178 N   0  0  0  0  0  0  0  0  0  0  0  0
  2  1  1  6  0  0  0
  2  3  1  0  0  0  0
  2  5  1  0  0  0  0
  3  4  1  0  0  0  0
  3 17  1  0  0  0  0
  5  6  1  0  0  0  0
  7  6  1  6  0  0  0
  7  8  1  0  0  0  0
  7  9  1  0  0  0  0
 10  9  1  6  0  0  0
 10 11  1  0  0  0  0
 10 12  1  0  0  0  0
 11 16  1  0  0  0  0
 12 13  1  6  0  0  0
 12 14  1  0  0  0  0
 14 15  1  6  0  0  0
 14 16  1  0  0  0  0
 16 27  1  1  0  0  0
 18 19  2  0  0  0  0
 18 23  1  0  0  0  0
 19 20  1  0  0  0  0
 20 21  2  0  0  0  0
 21 22  1  0  0  0  0
 21 27  1  0  0  0  0
 22 23  2  0  0  0  0
 22 25  1  0  0  0  0
 23 24  1  0  0  0  0
 25 26  2  0  0  0  0
 26 27  1  0  0  0  0
M  END
>  <CHROM.1>
-46.90689371,-176.73378120,58.01631865,174.47206544,-79.55590383,167.85814414
177.50653058,15.34608507,8.58228060,29.18452899,2.10081365,0.07058153,-1.29912723

>  <Name>
ligand

>  <RI>
0

>  <Rbt.Current_Directory>
/home/itssahil/PROJECTS/Mol_Feturizer/Test_systems_manuscript/rnas/4aob

>  <Rbt.Executable>
rbdock ($Id: //depot/dev/client3/rdock/2013.1/src/exe/rbdock.cxx#4 $)

>  <Rbt.Library>
libRbt.so (2013.1, Build901 2013/11/27)

>  <Rbt.Parameter_File>
/export/apps/rDock/src/rDock_2013.1_src/data/scripts/dock_solv.prm

>  <Rbt.Receptor>
prm/pocket_docking_7.prm

>  <SCORE>
-10.3832

>  <SCORE.INTER>
-7.86328

>  <SCORE.INTER.CONST>
1

>  <SCORE.INTER.POLAR>
0

>  <SCORE.INTER.ROT>
7

>  <SCORE.INTER.SOLV>
7.91904

>  <SCORE.INTER.VDW>
-16.1485

>  <SCORE.INTER.norm>
-0.291233

>  <SCORE.INTRA>
-2.51996

>  <SCORE.INTRA.DIHEDRAL>
-2.40488

>  <SCORE.INTRA.DIHEDRAL.0>
6.31833

>  <SCORE.INTRA.POLAR>
0

>  <SCORE.INTRA.POLAR.0>
0

>  <SCORE.INTRA.REPUL>
0

>  <SCORE.INTRA.REPUL.0>
0

>  <SCORE.INTRA.SOLV>
0.071868

>  <SCORE.INTRA.SOLV.lig_0>
-48.4015

>  <SCORE.INTRA.VDW>
-1.35345

>  <SCORE.INTRA.VDW.0>
-2.83256

>  <SCORE.INTRA.norm>
-0.0933318

>  <SCORE.RESTR>
0

>  <SCORE.RESTR.CAVITY>
0

>  <SCORE.RESTR.norm>
0

>  <SCORE.SYSTEM>
0

>  <SCORE.SYSTEM.CONST>
0

>  <SCORE.SYSTEM.DIHEDRAL>
0

>  <SCORE.SYSTEM.SOLV>
0

>  <SCORE.SYSTEM.norm>
0

>  <SCORE.heavy>
27

>  <SCORE.norm>
-0.384565

>  <RMSD>
5.609

$$$$
ligand
 OpenBabel02271912153D
libRbt.so/2013.1/901 2013/11/27
 27 29  0  0  0  0  0  0  0  0999 V2000
   20.2985    9.4339   28.6402 N   0  0  0  0  0  0  0  0  0  0  0  0
   18.9507    9.1866   29.2065 C   0  0  2  0  0  0  0  0  0  0  0  0
   19.0407    7.9597   30.1047 C   0  0  0  0  0  0  0  0  0  0  0  0
   19.5487    6.8311   29.7953 O   0  0  0  0  0  0  0  0  0  0  0  0
   17.9557    9.0233   28.0554 C   0  0  0  0  0  0  0  0  0  0  0  0
   16.5145    8.9106   28.5341 C   0  0  0  0  0  0  0  0  0  0  0  0
   15.8985    7.5176   29.5523 S   0  0  2  0  0  0  0  0  0  0  0  0
   14.3772    7.1848   28.6660 C   0  0  0  0  0  0  0  0  0  0  0  0
   15.3519    8.4778   30.9999 C   0  0  0  0  0  0  0  0  0  0  0  0
   14.6900    7.6009   32.0270 C   0  0  1  0  0  0  0  0  0  0  0  0
   15.5434    6.5153   32.4630 O   0  0  0  0  0  0  0  0  0  0  0  0
   14.2385    8.3326   33.2703 C   0  0  1  0  0  0  0  0  0  0  0  0
   12.9107    8.6037   33.1437 O   0  0  0  0  0  0  0  0  0  0  0  0
   14.3747    7.2306   34.2948 C   0  0  1  0  0  0  0  0  0  0  0  0
   13.2364    6.4960   34.1951 O   0  0  0  0  0  0  0  0  0  0  0  0
   15.5750    6.3626   33.8565 C   0  0  2  0  0  0  0  0  0  0  0  0
   18.5184    8.0650   31.2158 O   0  0  0  0  0  0  0  0  0  0  0  0
   20.7350    7.0901   33.7176 N   0  0  0  0  0  0  0  0  0  0  0  0
   19.8459    6.1930   33.0356 C   0  0  0  0  0  0  0  0  0  0  0  0
   18.4372    6.1013   33.1588 N   0  0  0  0  0  0  0  0  0  0  0  0
   17.9886    6.9613   33.9851 C   0  0  0  0  0  0  0  0  0  0  0  0
   18.8194    7.9314   34.7330 C   0  0  0  0  0  0  0  0  0  0  0  0
   20.1513    7.9749   34.5979 C   0  0  0  0  0  0  0  0  0  0  0  0
   20.7714    8.8722   35.3364 N   0  0  0  0  0  0  0  0  0  0  0  0
   18.1295    8.7074   35.5343 N   0  0  0  0  0  0  0  0  0  0  0  0
   16.8584    8.2249   35.2823 C   0  0  0  0  0  0  0  0  0  0  0  0
   16.7556    7.1433   34.3158 N   0  0  0  0  0  0  0  0  0  0  0  0
  2  1  1  6  0  0  0
  2  3  1  0  0  0  0
  2  5  1  0  0  0  0
  3  4  1  0  0  0  0
  3 17  1  0  0  0  0
  5  6  1  0  0  0  0
  7  6  1  6  0  0  0
  7  8  1  0  0  0  0
  7  9  1  0  0  0  0
 10  9  1  6  0  0  0
 10 11  1  0  0  0  0
 10 12  1  0  0  0  0
 11 16  1  0  0  0  0
 12 13  1  6  0  0  0
 12 14  1  0  0  0  0
 14 15  1  6  0  0  0
 14 16  1  0  0  0  0
 16 27  1  1  0  0  0
 18 19  2  0  0  0  0
 18 23  1  0  0  0  0
 19 20  1  0  0  0  0
 20 21  2  0  0  0  0
 21 22  1  0  0  0  0
 21 27  1  0  0  0  0
 22 23  2  0  0  0  0
 22 25  1  0  0  0  0
 23 24  1  0  0  0  0
 25 26  2  0  0  0  0
 26 27  1  0  0  0  0
M  END
>  <CHROM.1>
-50.40944095,-173.95976874,-64.58586458,-134.44483878,176.29554449,56.53206818
-60.30657155,17.11253159,7.72158697,32.10214059,-1.40057188,0.08070648,1.69799559

>  <Name>
ligand

>  <RI>
0

>  <Rbt.Current_Directory>
/home/itssahil/PROJECTS/Mol_Feturizer/Test_systems_manuscript/rnas/4aob

>  <Rbt.Executable>
rbdock ($Id: //depot/dev/client3/rdock/2013.1/src/exe/rbdock.cxx#4 $)

>  <Rbt.Library>
libRbt.so (2013.1, Build901 2013/11/27)

>  <Rbt.Parameter_File>
/export/apps/rDock/src/rDock_2013.1_src/data/scripts/dock_solv.prm

>  <Rbt.Receptor>
prm/pocket_docking_8.prm

>  <SCORE>
-11.2959

>  <SCORE.INTER>
-9.60936

>  <SCORE.INTER.CONST>
1

>  <SCORE.INTER.POLAR>
0

>  <SCORE.INTER.ROT>
7

>  <SCORE.INTER.SOLV>
7.03456

>  <SCORE.INTER.VDW>
-17.0178

>  <SCORE.INTER.norm>
-0.355902

>  <SCORE.INTRA>
-1.68651

>  <SCORE.INTRA.DIHEDRAL>
1.38352

>  <SCORE.INTRA.DIHEDRAL.0>
6.31833

>  <SCORE.INTRA.POLAR>
0

>  <SCORE.INTRA.POLAR.0>
0

>  <SCORE.INTRA.REPUL>
0

>  <SCORE.INTRA.REPUL.0>
0

>  <SCORE.INTRA.SOLV>
-0.639424

>  <SCORE.INTRA.SOLV.lig_0>
-48.4015

>  <SCORE.INTRA.VDW>
-2.05856

>  <SCORE.INTRA.VDW.0>
-2.83256

>  <SCORE.INTRA.norm>
-0.0624632

>  <SCORE.RESTR>
0

>  <SCORE.RESTR.CAVITY>
0

>  <SCORE.RESTR.norm>
0

>  <SCORE.SYSTEM>
0

>  <SCORE.SYSTEM.CONST>
0

>  <SCORE.SYSTEM.DIHEDRAL>
0

>  <SCORE.SYSTEM.SOLV>
0

>  <SCORE.SYSTEM.norm>
0

>  <SCORE.heavy>
27

>  <SCORE.norm>
-0.418365

>  <RMSD>
5.633

$$$$
ligand
 OpenBabel02271912153D
libRbt.so/2013.1/901 2013/11/27
 27 29  0  0  0  0  0  0  0  0999 V2000
   13.6497    4.8311   33.4878 N   0  0  0  0  0  0  0  0  0  0  0  0
   13.6308    6.1326   32.7778 C   0  0  2  0  0  0  0  0  0  0  0  0
   13.1622    7.1947   33.7640 C   0  0  0  0  0  0  0  0  0  0  0  0
   12.3781    7.0145   34.7541 O   0  0  0  0  0  0  0  0  0  0  0  0
   12.7297    6.0087   31.5472 C   0  0  0  0  0  0  0  0  0  0  0  0
   12.9662    7.1171   30.5300 C   0  0  0  0  0  0  0  0  0  0  0  0
   14.5559    7.3532   29.6504 S   0  0  2  0  0  0  0  0  0  0  0  0
   15.4380    8.2576   30.9211 C   0  0  0  0  0  0  0  0  0  0  0  0
   14.0196    8.6516   28.4917 C   0  0  0  0  0  0  0  0  0  0  0  0
   13.3247    8.0691   27.2918 C   0  0  1  0  0  0  0  0  0  0  0  0
   14.1437    7.1018   26.5914 O   0  0  0  0  0  0  0  0  0  0  0  0
   12.0109    7.3898   27.6039 C   0  0  1  0  0  0  0  0  0  0  0  0
   11.0058    8.2670   27.3340 O   0  0  0  0  0  0  0  0  0  0  0  0
   11.9889    6.3368   26.5207 C   0  0  1  0  0  0  0  0  0  0  0  0
   11.5145    6.9625   25.4121 O   0  0  0  0  0  0  0  0  0  0  0  0
   13.4563    5.9210   26.2757 C   0  0  2  0  0  0  0  0  0  0  0  0
   13.5414    8.3453   33.5384 O   0  0  0  0  0  0  0  0  0  0  0  0
   16.9999    3.3526   29.1079 N   0  0  0  0  0  0  0  0  0  0  0  0
   17.0932    4.3111   28.0434 C   0  0  0  0  0  0  0  0  0  0  0  0
   16.0348    4.9513   27.3521 N   0  0  0  0  0  0  0  0  0  0  0  0
   14.9004    4.5828   27.8004 C   0  0  0  0  0  0  0  0  0  0  0  0
   14.6982    3.6075   28.8951 C   0  0  0  0  0  0  0  0  0  0  0  0
   15.7274    3.0135   29.5131 C   0  0  0  0  0  0  0  0  0  0  0  0
   15.4071    2.1514   30.4560 N   0  0  0  0  0  0  0  0  0  0  0  0
   13.4362    3.3806   29.1713 N   0  0  0  0  0  0  0  0  0  0  0  0
   12.8445    4.2233   28.2485 C   0  0  0  0  0  0  0  0  0  0  0  0
   13.7437    4.9822   27.3939 N   0  0  0  0  0  0  0  0  0  0  0  0
  2  1  1  1  0  0  0
  2  3  1  0  0  0  0
  2  5  1  0  0  0  0
  3  4  1  0  0  0  0
  3 17  1  0  0  0  0
  5  6  1  0  0  0  0
  7  6  1  1  0  0  0
  7  8  1  0  0  0  0
  7  9  1  0  0  0  0
 10  9  1  1  0  0  0
 10 11  1  0  0  0  0
 10 12  1  0  0  0  0
 11 16  1  0  0  0  0
 12 13  1  6  0  0  0
 12 14  1  0  0  0  0
 14 15  1  6  0  0  0
 14 16  1  0  0  0  0
 16 27  1  1  0  0  0
 18 19  2  0  0  0  0
 18 23  1  0  0  0  0
 19 20  1  0  0  0  0
 20 21  2  0  0  0  0
 21 22  1  0  0  0  0
 21 27  1  0  0  0  0
 22 23  2  0  0  0  0
 22 25  1  0  0  0  0
 23 24  1  0  0  0  0
 25 26  2  0  0  0  0
 26 27  1  0  0  0  0
M  END
>  <CHROM.1>
-29.18958852,-162.41788055,63.17868416,-82.12162002,-82.51617578,-56.34765660
-57.51809831,13.85392776,6.05528820,29.38856366,-1.57133829,0.96606750,-1.66910191

>  <Name>
ligand

>  <RI>
0

>  <Rbt.Current_Directory>
/home/itssahil/PROJECTS/Mol_Feturizer/Test_systems_manuscript/rnas/4aob

>  <Rbt.Executable>
rbdock ($Id: //depot/dev/client3/rdock/2013.1/src/exe/rbdock.cxx#4 $)

>  <Rbt.Library>
libRbt.so (2013.1, Build901 2013/11/27)

>  <Rbt.Parameter_File>
/export/apps/rDock/src/rDock_2013.1_src/data/scripts/dock_solv.prm

>  <Rbt.Receptor>
prm/pocket_docking_4.prm

>  <SCORE>
-10.0381

>  <SCORE.INTER>
-6.7966

>  <SCORE.INTER.CONST>
1

>  <SCORE.INTER.POLAR>
0

>  <SCORE.INTER.ROT>
7

>  <SCORE.INTER.SOLV>
10.0112

>  <SCORE.INTER.VDW>
-16.1348

>  <SCORE.INTER.norm>
-0.251726

>  <SCORE.INTRA>
-3.24148

>  <SCORE.INTRA.DIHEDRAL>
-0.995854

>  <SCORE.INTRA.DIHEDRAL.0>
6.31833

>  <SCORE.INTRA.POLAR>
0

>  <SCORE.INTRA.POLAR.0>
0

>  <SCORE.INTRA.REPUL>
0

>  <SCORE.INTRA.REPUL.0>
0

>  <SCORE.INTRA.SOLV>
-0.22038

>  <SCORE.INTRA.SOLV.lig_0>
-48.4015

>  <SCORE.INTRA.VDW>
-2.63336

>  <SCORE.INTRA.VDW.0>
-2.83256

>  <SCORE.INTRA.norm>
-0.120055

>  <SCORE.RESTR>
0

>  <SCORE.RESTR.CAVITY>
0

>  <SCORE.RESTR.norm>
0

>  <SCORE.SYSTEM>
0

>  <SCORE.SYSTEM.CONST>
0

>  <SCORE.SYSTEM.DIHEDRAL>
0

>  <SCORE.SYSTEM.SOLV>
0

>  <SCORE.SYSTEM.norm>
0

>  <SCORE.heavy>
27

>  <SCORE.norm>
-0.371781

>  <RMSD>
5.643

$$$$
ligand
 OpenBabel02271912153D
libRbt.so/2013.1/901 2013/11/27
 27 29  0  0  0  0  0  0  0  0999 V2000
   13.1619    7.1198   29.9244 N   0  0  0  0  0  0  0  0  0  0  0  0
   13.6666    8.4832   30.2155 C   0  0  2  0  0  0  0  0  0  0  0  0
   13.7957    9.2249   28.8913 C   0  0  0  0  0  0  0  0  0  0  0  0
   14.4629    8.8441   27.8728 O   0  0  0  0  0  0  0  0  0  0  0  0
   14.9893    8.3663   30.9760 C   0  0  0  0  0  0  0  0  0  0  0  0
   15.9973    7.4692   30.2701 C   0  0  0  0  0  0  0  0  0  0  0  0
   17.7076    7.2084   30.8730 S   0  0  2  0  0  0  0  0  0  0  0  0
   18.4766    8.6525   30.1423 C   0  0  0  0  0  0  0  0  0  0  0  0
   18.1749    5.8557   29.7469 C   0  0  0  0  0  0  0  0  0  0  0  0
   17.8185    4.5116   30.3197 C   0  0  1  0  0  0  0  0  0  0  0  0
   18.2973    4.3413   31.6757 O   0  0  0  0  0  0  0  0  0  0  0  0
   16.3360    4.2166   30.3361 C   0  0  1  0  0  0  0  0  0  0  0  0
   16.0444    3.4506   29.2495 O   0  0  0  0  0  0  0  0  0  0  0  0
   16.2537    3.3212   31.5501 C   0  0  1  0  0  0  0  0  0  0  0  0
   16.5952    2.0810   31.1135 O   0  0  0  0  0  0  0  0  0  0  0  0
   17.3270    3.8194   32.5430 C   0  0  2  0  0  0  0  0  0  0  0  0
   13.2417   10.3240   28.8322 O   0  0  0  0  0  0  0  0  0  0  0  0
   17.9002    8.4045   34.9561 N   0  0  0  0  0  0  0  0  0  0  0  0
   18.8236    7.4771   34.3664 C   0  0  0  0  0  0  0  0  0  0  0  0
   18.5332    6.2486   33.7227 N   0  0  0  0  0  0  0  0  0  0  0  0
   17.2791    6.0243   33.6993 C   0  0  0  0  0  0  0  0  0  0  0  0
   16.2478    6.9176   34.2728 C   0  0  0  0  0  0  0  0  0  0  0  0
   16.5667    8.0645   34.8867 C   0  0  0  0  0  0  0  0  0  0  0  0
   15.5541    8.7549   35.3694 N   0  0  0  0  0  0  0  0  0  0  0  0
   15.0243    6.4653   34.1354 N   0  0  0  0  0  0  0  0  0  0  0  0
   15.2902    5.2847   33.4664 C   0  0  0  0  0  0  0  0  0  0  0  0
   16.6881    5.0013   33.1828 N   0  0  0  0  0  0  0  0  0  0  0  0
  2  1  1  6  0  0  0
  2  3  1  0  0  0  0
  2  5  1  0  0  0  0
  3  4  1  0  0  0  0
  3 17  1  0  0  0  0
  5  6  1  0  0  0  0
  7  6  1  6  0  0  0
  7  8  1  0  0  0  0
  7  9  1  0  0  0  0
 10  9  1  1  0  0  0
 10 11  1  0  0  0  0
 10 12  1  0  0  0  0
 11 16  1  0  0  0  0
 12 13  1  6  0  0  0
 12 14  1  0  0  0  0
 14 15  1  6  0  0  0
 14 16  1  0  0  0  0
 16 27  1  1  0  0  0
 18 19  2  0  0  0  0
 18 23  1  0  0  0  0
 19 20  1  0  0  0  0
 20 21  2  0  0  0  0
 21 22  1  0  0  0  0
 21 27  1  0  0  0  0
 22 23  2  0  0  0  0
 22 25  1  0  0  0  0
 23 24  1  0  0  0  0
 25 26  2  0  0  0  0
 26 27  1  0  0  0  0
M  END
>  <CHROM.1>
-55.46706525,52.48474135,176.15802505,-84.09132074,-88.70414819,-50.37906519
-46.62392873,16.36097486,6.53660725,31.59337193,3.14011392,-1.03577191,0.78380978

>  <Name>
ligand

>  <RI>
0

>  <Rbt.Current_Directory>
/home/itssahil/PROJECTS/Mol_Feturizer/Test_systems_manuscript/rnas/4aob

>  <Rbt.Executable>
rbdock ($Id: //depot/dev/client3/rdock/2013.1/src/exe/rbdock.cxx#4 $)

>  <Rbt.Library>
libRbt.so (2013.1, Build901 2013/11/27)

>  <Rbt.Parameter_File>
/export/apps/rDock/src/rDock_2013.1_src/data/scripts/dock_solv.prm

>  <Rbt.Receptor>
prm/pocket_docking_6.prm

>  <SCORE>
-11.5067

>  <SCORE.INTER>
-8.95449

>  <SCORE.INTER.CONST>
1

>  <SCORE.INTER.POLAR>
0

>  <SCORE.INTER.ROT>
7

>  <SCORE.INTER.SOLV>
12.6559

>  <SCORE.INTER.VDW>
-18.455

>  <SCORE.INTER.norm>
-0.331648

>  <SCORE.INTRA>
-2.55223

>  <SCORE.INTRA.DIHEDRAL>
-0.93307

>  <SCORE.INTRA.DIHEDRAL.0>
6.31833

>  <SCORE.INTRA.POLAR>
0

>  <SCORE.INTRA.POLAR.0>
0

>  <SCORE.INTRA.REPUL>
0

>  <SCORE.INTRA.REPUL.0>
0

>  <SCORE.INTRA.SOLV>
0.797329

>  <SCORE.INTRA.SOLV.lig_0>
-48.4015

>  <SCORE.INTRA.VDW>
-2.48436

>  <SCORE.INTRA.VDW.0>
-2.83256

>  <SCORE.INTRA.norm>
-0.0945272

>  <SCORE.RESTR>
0

>  <SCORE.RESTR.CAVITY>
0

>  <SCORE.RESTR.norm>
0

>  <SCORE.SYSTEM>
0

>  <SCORE.SYSTEM.CONST>
0

>  <SCORE.SYSTEM.DIHEDRAL>
0

>  <SCORE.SYSTEM.SOLV>
0

>  <SCORE.SYSTEM.norm>
0

>  <SCORE.heavy>
27

>  <SCORE.norm>
-0.426175

>  <RMSD>
5.675

$$$$
ligand
 OpenBabel02271912153D
libRbt.so/2013.1/901 2013/11/27
 27 29  0  0  0  0  0  0  0  0999 V2000
   15.8611    1.4085   31.8830 N   0  0  0  0  0  0  0  0  0  0  0  0
   16.2440    2.4814   30.9340 C   0  0  2  0  0  0  0  0  0  0  0  0
   17.1622    3.4486   31.6699 C   0  0  0  0  0  0  0  0  0  0  0  0
   17.3541    3.4991   32.9301 O   0  0  0  0  0  0  0  0  0  0  0  0
   14.9717    3.1420   30.3988 C   0  0  0  0  0  0  0  0  0  0  0  0
   14.2440    3.9614   31.4562 C   0  0  0  0  0  0  0  0  0  0  0  0
   13.7014    3.2733   33.0651 S   0  0  2  0  0  0  0  0  0  0  0  0
   12.4061    2.1860   32.4731 C   0  0  0  0  0  0  0  0  0  0  0  0
   12.7949    4.7296   33.6763 C   0  0  0  0  0  0  0  0  0  0  0  0
   13.7318    5.7912   34.1834 C   0  0  1  0  0  0  0  0  0  0  0  0
   14.7424    6.1505   33.2106 O   0  0  0  0  0  0  0  0  0  0  0  0
   13.0494    7.0731   34.6031 C   0  0  1  0  0  0  0  0  0  0  0  0
   12.8930    7.0469   35.9549 O   0  0  0  0  0  0  0  0  0  0  0  0
   14.1417    8.0712   34.2981 C   0  0  1  0  0  0  0  0  0  0  0  0
   14.9712    8.0455   35.3737 O   0  0  0  0  0  0  0  0  0  0  0  0
   14.9003    7.5360   33.0636 C   0  0  2  0  0  0  0  0  0  0  0  0
   17.7251    4.2944   30.9727 O   0  0  0  0  0  0  0  0  0  0  0  0
   14.4533    9.7316   28.3567 N   0  0  0  0  0  0  0  0  0  0  0  0
   15.5702    9.4555   29.2152 C   0  0  0  0  0  0  0  0  0  0  0  0
   15.5576    8.8350   30.4890 N   0  0  0  0  0  0  0  0  0  0  0  0
   14.3751    8.5050   30.8306 C   0  0  0  0  0  0  0  0  0  0  0  0
   13.1615    8.7399   30.0168 C   0  0  0  0  0  0  0  0  0  0  0  0
   13.2159    9.3440   28.8226 C   0  0  0  0  0  0  0  0  0  0  0  0
   12.0602    9.5085   28.2124 N   0  0  0  0  0  0  0  0  0  0  0  0
   12.0566    8.3218   30.5868 N   0  0  0  0  0  0  0  0  0  0  0  0
   12.5820    7.8163   31.7617 C   0  0  0  0  0  0  0  0  0  0  0  0
   14.0236    7.9177   31.9234 N   0  0  0  0  0  0  0  0  0  0  0  0
  2  1  1  1  0  0  0
  2  3  1  0  0  0  0
  2  5  1  0  0  0  0
  3  4  1  0  0  0  0
  3 17  1  0  0  0  0
  5  6  1  0  0  0  0
  7  6  1  6  0  0  0
  7  8  1  0  0  0  0
  7  9  1  0  0  0  0
 10  9  1  6  0  0  0
 10 11  1  0  0  0  0
 10 12  1  0  0  0  0
 11 16  1  0  0  0  0
 12 13  1  1  0  0  0
 12 14  1  0  0  0  0
 14 15  1  1  0  0  0
 14 16  1  0  0  0  0
 16 27  1  6  0  0  0
 18 19  2  0  0  0  0
 18 23  1  0  0  0  0
 19 20  1  0  0  0  0
 20 21  2  0  0  0  0
 21 22  1  0  0  0  0
 21 27  1  0  0  0  0
 22 23  2  0  0  0  0
 22 25  1  0  0  0  0
 23 24  1  0  0  0  0
 25 26  2  0  0  0  0
 26 27  1  0  0  0  0
M  END
>  <CHROM.1>
-13.22453804,69.70479066,-55.59044145,-69.16019083,-77.09587931,53.12853758
-122.11493179,14.36245907,6.09669650,31.99462877,-1.03597517,1.10542419,-0.85712695

>  <Name>
ligand

>  <RI>
0

>  <Rbt.Current_Directory>
/home/itssahil/PROJECTS/Mol_Feturizer/Test_systems_manuscript/rnas/4aob

>  <Rbt.Executable>
rbdock ($Id: //depot/dev/client3/rdock/2013.1/src/exe/rbdock.cxx#4 $)

>  <Rbt.Library>
libRbt.so (2013.1, Build901 2013/11/27)

>  <Rbt.Parameter_File>
/export/apps/rDock/src/rDock_2013.1_src/data/scripts/dock_solv.prm

>  <Rbt.Receptor>
prm/pocket_docking_5.prm

>  <SCORE>
-17.9124

>  <SCORE.INTER>
-17.4326

>  <SCORE.INTER.CONST>
1

>  <SCORE.INTER.POLAR>
0

>  <SCORE.INTER.ROT>
7

>  <SCORE.INTER.SOLV>
14.2251

>  <SCORE.INTER.VDW>
-24.6301

>  <SCORE.INTER.norm>
-0.645653

>  <SCORE.INTRA>
-0.479811

>  <SCORE.INTRA.DIHEDRAL>
-2.47683

>  <SCORE.INTRA.DIHEDRAL.0>
6.31833

>  <SCORE.INTRA.POLAR>
0

>  <SCORE.INTRA.POLAR.0>
0

>  <SCORE.INTRA.REPUL>
0

>  <SCORE.INTRA.REPUL.0>
0

>  <SCORE.INTRA.SOLV>
1.9763

>  <SCORE.INTRA.SOLV.lig_0>
-48.4015

>  <SCORE.INTRA.VDW>
-0.22955

>  <SCORE.INTRA.VDW.0>
-2.83256

>  <SCORE.INTRA.norm>
-0.0177708

>  <SCORE.RESTR>
0

>  <SCORE.RESTR.CAVITY>
0

>  <SCORE.RESTR.norm>
0

>  <SCORE.SYSTEM>
0

>  <SCORE.SYSTEM.CONST>
0

>  <SCORE.SYSTEM.DIHEDRAL>
0

>  <SCORE.SYSTEM.SOLV>
0

>  <SCORE.SYSTEM.norm>
0

>  <SCORE.heavy>
27

>  <SCORE.norm>
-0.663424

>  <RMSD>
5.683

$$$$
ligand
 OpenBabel02271912153D
libRbt.so/2013.1/901 2013/11/27
 27 29  0  0  0  0  0  0  0  0999 V2000
   16.1844    3.8457   28.9751 N   0  0  0  0  0  0  0  0  0  0  0  0
   15.6188    3.3864   30.2664 C   0  0  2  0  0  0  0  0  0  0  0  0
   16.4056    2.1598   30.7097 C   0  0  0  0  0  0  0  0  0  0  0  0
   16.6042    1.1008   30.0267 O   0  0  0  0  0  0  0  0  0  0  0  0
   14.1247    3.1131   30.0798 C   0  0  0  0  0  0  0  0  0  0  0  0
   13.4617    2.5778   31.3419 C   0  0  0  0  0  0  0  0  0  0  0  0
   13.6760    3.3425   32.9929 S   0  0  2  0  0  0  0  0  0  0  0  0
   12.3473    2.5048   33.8552 C   0  0  0  0  0  0  0  0  0  0  0  0
   12.9766    4.9801   32.6118 C   0  0  0  0  0  0  0  0  0  0  0  0
   13.7486    6.0813   33.2850 C   0  0  1  0  0  0  0  0  0  0  0  0
   14.8362    6.5769   32.4674 O   0  0  0  0  0  0  0  0  0  0  0  0
   12.9114    7.2775   33.6763 C   0  0  1  0  0  0  0  0  0  0  0  0
   12.5930    7.1591   34.9942 O   0  0  0  0  0  0  0  0  0  0  0  0
   13.9423    8.3759   33.5617 C   0  0  1  0  0  0  0  0  0  0  0  0
   14.6325    8.3530   34.7316 O   0  0  0  0  0  0  0  0  0  0  0  0
   14.8903    7.9768   32.4092 C   0  0  2  0  0  0  0  0  0  0  0  0
   16.8396    2.1849   31.8628 O   0  0  0  0  0  0  0  0  0  0  0  0
   14.9782    9.7159   27.4957 N   0  0  0  0  0  0  0  0  0  0  0  0
   16.0036    9.3813   28.4429 C   0  0  0  0  0  0  0  0  0  0  0  0
   15.8439    8.9028   29.7671 N   0  0  0  0  0  0  0  0  0  0  0  0
   14.6121    8.7727   30.0662 C   0  0  0  0  0  0  0  0  0  0  0  0
   13.4832    9.0845   29.1613 C   0  0  0  0  0  0  0  0  0  0  0  0
   13.6780    9.5493   27.9204 C   0  0  0  0  0  0  0  0  0  0  0  0
   12.5870    9.8048   27.2282 N   0  0  0  0  0  0  0  0  0  0  0  0
   12.3050    8.8805   29.7004 N   0  0  0  0  0  0  0  0  0  0  0  0
   12.6982    8.4324   30.9480 C   0  0  0  0  0  0  0  0  0  0  0  0
   14.1305    8.3541   31.1866 N   0  0  0  0  0  0  0  0  0  0  0  0
  2  1  1  6  0  0  0
  2  3  1  0  0  0  0
  2  5  1  0  0  0  0
  3  4  1  0  0  0  0
  3 17  1  0  0  0  0
  5  6  1  0  0  0  0
  7  6  1  6  0  0  0
  7  8  1  0  0  0  0
  7  9  1  0  0  0  0
 10  9  1  6  0  0  0
 10 11  1  0  0  0  0
 10 12  1  0  0  0  0
 11 16  1  0  0  0  0
 12 13  1  1  0  0  0
 12 14  1  0  0  0  0
 14 15  1  1  0  0  0
 14 16  1  0  0  0  0
 16 27  1  6  0  0  0
 18 19  2  0  0  0  0
 18 23  1  0  0  0  0
 19 20  1  0  0  0  0
 20 21  2  0  0  0  0
 21 22  1  0  0  0  0
 21 27  1  0  0  0  0
 22 23  2  0  0  0  0
 22 25  1  0  0  0  0
 23 24  1  0  0  0  0
 25 26  2  0  0  0  0
 26 27  1  0  0  0  0
M  END
>  <CHROM.1>
-54.05932980,177.57985749,48.45389492,166.34817022,-141.14893786,89.77485990
-106.10059471,14.28224937,6.13219578,31.26928994,-1.28679314,1.15322269,-0.60757305

>  <Name>
ligand

>  <RI>
0

>  <Rbt.Current_Directory>
/home/itssahil/PROJECTS/Mol_Feturizer/Test_systems_manuscript/rnas/4aob

>  <Rbt.Executable>
rbdock ($Id: //depot/dev/client3/rdock/2013.1/src/exe/rbdock.cxx#4 $)

>  <Rbt.Library>
libRbt.so (2013.1, Build901 2013/11/27)

>  <Rbt.Parameter_File>
/export/apps/rDock/src/rDock_2013.1_src/data/scripts/dock_solv.prm

>  <Rbt.Receptor>
prm/pocket_docking_4.prm

>  <SCORE>
-14.1297

>  <SCORE.INTER>
-15.5073

>  <SCORE.INTER.CONST>
1

>  <SCORE.INTER.POLAR>
0

>  <SCORE.INTER.ROT>
7

>  <SCORE.INTER.SOLV>
11.373

>  <SCORE.INTER.VDW>
-22.3959

>  <SCORE.INTER.norm>
-0.574345

>  <SCORE.INTRA>
1.3776

>  <SCORE.INTRA.DIHEDRAL>
3.8879

>  <SCORE.INTRA.DIHEDRAL.0>
6.31833

>  <SCORE.INTRA.POLAR>
0

>  <SCORE.INTRA.POLAR.0>
0

>  <SCORE.INTRA.REPUL>
0

>  <SCORE.INTRA.REPUL.0>
0

>  <SCORE.INTRA.SOLV>
-0.696289

>  <SCORE.INTRA.SOLV.lig_0>
-48.4015

>  <SCORE.INTRA.VDW>
-0.218208

>  <SCORE.INTRA.VDW.0>
-2.83256

>  <SCORE.INTRA.norm>
0.0510222

>  <SCORE.RESTR>
0

>  <SCORE.RESTR.CAVITY>
0

>  <SCORE.RESTR.norm>
0

>  <SCORE.SYSTEM>
0

>  <SCORE.SYSTEM.CONST>
0

>  <SCORE.SYSTEM.DIHEDRAL>
0

>  <SCORE.SYSTEM.SOLV>
0

>  <SCORE.SYSTEM.norm>
0

>  <SCORE.heavy>
27

>  <SCORE.norm>
-0.523322

>  <RMSD>
5.742

$$$$
ligand
 OpenBabel02271912153D
libRbt.so/2013.1/901 2013/11/27
 27 29  0  0  0  0  0  0  0  0999 V2000
   14.9759    8.5754   26.4676 N   0  0  0  0  0  0  0  0  0  0  0  0
   16.1704    9.3229   26.9289 C   0  0  2  0  0  0  0  0  0  0  0  0
   17.0202    9.6437   25.7061 C   0  0  0  0  0  0  0  0  0  0  0  0
   17.6181   10.7452   25.4681 O   0  0  0  0  0  0  0  0  0  0  0  0
   16.9053    8.4799   27.9733 C   0  0  0  0  0  0  0  0  0  0  0  0
   16.0201    8.1004   29.1530 C   0  0  0  0  0  0  0  0  0  0  0  0
   16.5611    6.9797   30.4975 S   0  0  2  0  0  0  0  0  0  0  0  0
   18.0931    7.7996   30.9350 C   0  0  0  0  0  0  0  0  0  0  0  0
   17.1015    5.5801   29.4653 C   0  0  0  0  0  0  0  0  0  0  0  0
   17.3050    4.3354   30.2845 C   0  0  1  0  0  0  0  0  0  0  0  0
   18.0504    4.5866   31.5003 O   0  0  0  0  0  0  0  0  0  0  0  0
   16.0243    3.6416   30.6888 C   0  0  1  0  0  0  0  0  0  0  0  0
   15.8019    2.6206   29.8166 O   0  0  0  0  0  0  0  0  0  0  0  0
   16.4548    3.0251   31.9992 C   0  0  1  0  0  0  0  0  0  0  0  0
   17.0909    1.8711   31.6688 O   0  0  0  0  0  0  0  0  0  0  0  0
   17.4729    3.9979   32.6343 C   0  0  2  0  0  0  0  0  0  0  0  0
   17.0815    8.7636   24.8458 O   0  0  0  0  0  0  0  0  0  0  0  0
   17.1615    8.5374   35.1780 N   0  0  0  0  0  0  0  0  0  0  0  0
   18.2575    7.7725   34.6544 C   0  0  0  0  0  0  0  0  0  0  0  0
   18.2058    6.5363   33.9636 N   0  0  0  0  0  0  0  0  0  0  0  0
   17.0046    6.1343   33.8248 C   0  0  0  0  0  0  0  0  0  0  0  0
   15.8087    6.8506   34.3222 C   0  0  0  0  0  0  0  0  0  0  0  0
   15.9030    8.0111   34.9842 C   0  0  0  0  0  0  0  0  0  0  0  0
   14.7629    8.5322   35.3888 N   0  0  0  0  0  0  0  0  0  0  0  0
   14.6808    6.2311   34.0682 N   0  0  0  0  0  0  0  0  0  0  0  0
   15.1726    5.1235   33.4023 C   0  0  0  0  0  0  0  0  0  0  0  0
   16.6158    5.0540   33.2380 N   0  0  0  0  0  0  0  0  0  0  0  0
  2  1  1  6  0  0  0
  2  3  1  0  0  0  0
  2  5  1  0  0  0  0
  3  4  1  0  0  0  0
  3 17  1  0  0  0  0
  5  6  1  0  0  0  0
  7  6  1  6  0  0  0
  7  8  1  0  0  0  0
  7  9  1  0  0  0  0
 10  9  1  1  0  0  0
 10 11  1  0  0  0  0
 10 12  1  0  0  0  0
 11 16  1  0  0  0  0
 12 13  1  6  0  0  0
 12 14  1  0  0  0  0
 14 15  1  6  0  0  0
 14 16  1  0  0  0  0
 16 27  1  1  0  0  0
 18 19  2  0  0  0  0
 18 23  1  0  0  0  0
 19 20  1  0  0  0  0
 20 21  2  0  0  0  0
 21 22  1  0  0  0  0
 21 27  1  0  0  0  0
 22 23  2  0  0  0  0
 22 25  1  0  0  0  0
 23 24  1  0  0  0  0
 25 26  2  0  0  0  0
 26 27  1  0  0  0  0
M  END
>  <CHROM.1>
138.42394546,-56.86416838,174.66693611,52.28902795,-166.15218875,-45.93924862
-69.39485771,16.65698563,6.55177412,30.94088704,0.87535611,1.52576159,-0.44627563

>  <Name>
ligand

>  <RI>
0

>  <Rbt.Current_Directory>
/home/itssahil/PROJECTS/Mol_Feturizer/Test_systems_manuscript/rnas/4aob

>  <Rbt.Executable>
rbdock ($Id: //depot/dev/client3/rdock/2013.1/src/exe/rbdock.cxx#4 $)

>  <Rbt.Library>
libRbt.so (2013.1, Build901 2013/11/27)

>  <Rbt.Parameter_File>
/export/apps/rDock/src/rDock_2013.1_src/data/scripts/dock_solv.prm

>  <Rbt.Receptor>
prm/pocket_docking_7.prm

>  <SCORE>
-12.4664

>  <SCORE.INTER>
-11.554

>  <SCORE.INTER.CONST>
1

>  <SCORE.INTER.POLAR>
0

>  <SCORE.INTER.ROT>
7

>  <SCORE.INTER.SOLV>
13.5124

>  <SCORE.INTER.VDW>
-20.4735

>  <SCORE.INTER.norm>
-0.427927

>  <SCORE.INTRA>
-0.912355

>  <SCORE.INTRA.DIHEDRAL>
-0.853541

>  <SCORE.INTRA.DIHEDRAL.0>
6.31833

>  <SCORE.INTRA.POLAR>
0

>  <SCORE.INTRA.POLAR.0>
0

>  <SCORE.INTRA.REPUL>
0

>  <SCORE.INTRA.REPUL.0>
0

>  <SCORE.INTRA.SOLV>
0.245301

>  <SCORE.INTRA.SOLV.lig_0>
-48.4015

>  <SCORE.INTRA.VDW>
-0.608235

>  <SCORE.INTRA.VDW.0>
-2.83256

>  <SCORE.INTRA.norm>
-0.0337909

>  <SCORE.RESTR>
0

>  <SCORE.RESTR.CAVITY>
0

>  <SCORE.RESTR.norm>
0

>  <SCORE.SYSTEM>
0

>  <SCORE.SYSTEM.CONST>
0

>  <SCORE.SYSTEM.DIHEDRAL>
0

>  <SCORE.SYSTEM.SOLV>
0

>  <SCORE.SYSTEM.norm>
0

>  <SCORE.heavy>
27

>  <SCORE.norm>
-0.461718

>  <RMSD>
5.760

$$$$
ligand
 OpenBabel02271912153D
libRbt.so/2013.1/901 2013/11/27
 27 29  0  0  0  0  0  0  0  0999 V2000
   15.9854    2.4246   29.7336 N   0  0  0  0  0  0  0  0  0  0  0  0
   16.5872    2.3595   31.0871 C   0  0  2  0  0  0  0  0  0  0  0  0
   16.1705    1.0377   31.7192 C   0  0  0  0  0  0  0  0  0  0  0  0
   14.9819    0.5828   31.8076 O   0  0  0  0  0  0  0  0  0  0  0  0
   16.1337    3.5831   31.8865 C   0  0  0  0  0  0  0  0  0  0  0  0
   14.6200    3.7490   31.9015 C   0  0  0  0  0  0  0  0  0  0  0  0
   13.5611    3.1980   33.2913 S   0  0  2  0  0  0  0  0  0  0  0  0
   12.3804    2.2210   32.3629 C   0  0  0  0  0  0  0  0  0  0  0  0
   12.6846    4.7668   33.5859 C   0  0  0  0  0  0  0  0  0  0  0  0
   13.5995    5.8111   34.1639 C   0  0  1  0  0  0  0  0  0  0  0  0
   14.6676    6.1769   33.2570 O   0  0  0  0  0  0  0  0  0  0  0  0
   12.9048    7.0922   34.5652 C   0  0  1  0  0  0  0  0  0  0  0  0
   12.6705    7.0454   35.9051 O   0  0  0  0  0  0  0  0  0  0  0  0
   14.0212    8.0850   34.3405 C   0  0  1  0  0  0  0  0  0  0  0  0
   14.7870    8.0340   35.4614 O   0  0  0  0  0  0  0  0  0  0  0  0
   14.8453    7.5630   33.1428 C   0  0  2  0  0  0  0  0  0  0  0  0
   17.0732    0.3808   32.2406 O   0  0  0  0  0  0  0  0  0  0  0  0
   14.7123    9.7165   28.3973 N   0  0  0  0  0  0  0  0  0  0  0  0
   15.7757    9.3984   29.3075 C   0  0  0  0  0  0  0  0  0  0  0  0
   15.6771    8.7957   30.5862 N   0  0  0  0  0  0  0  0  0  0  0  0
   14.4662    8.5271   30.8784 C   0  0  0  0  0  0  0  0  0  0  0  0
   13.3023    8.8095   30.0088 C   0  0  0  0  0  0  0  0  0  0  0  0
   13.4383    9.3947   28.8118 C   0  0  0  0  0  0  0  0  0  0  0  0
   12.3199    9.6065   28.1490 N   0  0  0  0  0  0  0  0  0  0  0  0
   12.1545    8.4521   30.5335 N   0  0  0  0  0  0  0  0  0  0  0  0
   12.6026    7.9372   31.7360 C   0  0  0  0  0  0  0  0  0  0  0  0
   14.0390    7.9715   31.9606 N   0  0  0  0  0  0  0  0  0  0  0  0
  2  1  1  6  0  0  0
  2  3  1  0  0  0  0
  2  5  1  0  0  0  0
  3  4  1  0  0  0  0
  3 17  1  0  0  0  0
  5  6  1  0  0  0  0
  7  6  1  6  0  0  0
  7  8  1  0  0  0  0
  7  9  1  0  0  0  0
 10  9  1  6  0  0  0
 10 11  1  0  0  0  0
 10 12  1  0  0  0  0
 11 16  1  0  0  0  0
 12 13  1  1  0  0  0
 12 14  1  0  0  0  0
 14 15  1  1  0  0  0
 14 16  1  0  0  0  0
 16 27  1  6  0  0  0
 18 19  2  0  0  0  0
 18 23  1  0  0  0  0
 19 20  1  0  0  0  0
 20 21  2  0  0  0  0
 21 22  1  0  0  0  0
 21 27  1  0  0  0  0
 22 23  2  0  0  0  0
 22 25  1  0  0  0  0
 23 24  1  0  0  0  0
 25 26  2  0  0  0  0
 26 27  1  0  0  0  0
M  END
>  <CHROM.1>
-51.17508135,53.16016857,98.55509566,-127.87757108,-69.59303162,63.77037779
-119.22667079,14.27577187,5.79742480,32.02125885,-1.02208016,1.18922379,-0.73329870

>  <Name>
ligand

>  <RI>
0

>  <Rbt.Current_Directory>
/home/itssahil/PROJECTS/Mol_Feturizer/Test_systems_manuscript/rnas/4aob

>  <Rbt.Executable>
rbdock ($Id: //depot/dev/client3/rdock/2013.1/src/exe/rbdock.cxx#4 $)

>  <Rbt.Library>
libRbt.so (2013.1, Build901 2013/11/27)

>  <Rbt.Parameter_File>
/export/apps/rDock/src/rDock_2013.1_src/data/scripts/dock_solv.prm

>  <Rbt.Receptor>
prm/pocket_docking_3.prm

>  <SCORE>
-17.2175

>  <SCORE.INTER>
-20.3333

>  <SCORE.INTER.CONST>
1

>  <SCORE.INTER.POLAR>
0

>  <SCORE.INTER.ROT>
7

>  <SCORE.INTER.SOLV>
14.8535

>  <SCORE.INTER.VDW>
-26.7734

>  <SCORE.INTER.norm>
-0.753086

>  <SCORE.INTRA>
3.11586

>  <SCORE.INTRA.DIHEDRAL>
5.38832

>  <SCORE.INTRA.DIHEDRAL.0>
6.31833

>  <SCORE.INTRA.POLAR>
0

>  <SCORE.INTRA.POLAR.0>
0

>  <SCORE.INTRA.REPUL>
0

>  <SCORE.INTRA.REPUL.0>
0

>  <SCORE.INTRA.SOLV>
0.572634

>  <SCORE.INTRA.SOLV.lig_0>
-48.4015

>  <SCORE.INTRA.VDW>
0.135379

>  <SCORE.INTRA.VDW.0>
-2.83256

>  <SCORE.INTRA.norm>
0.115402

>  <SCORE.RESTR>
0

>  <SCORE.RESTR.CAVITY>
0

>  <SCORE.RESTR.norm>
0

>  <SCORE.SYSTEM>
0

>  <SCORE.SYSTEM.CONST>
0

>  <SCORE.SYSTEM.DIHEDRAL>
0

>  <SCORE.SYSTEM.SOLV>
0

>  <SCORE.SYSTEM.norm>
0

>  <SCORE.heavy>
27

>  <SCORE.norm>
-0.637684

>  <RMSD>
5.782

$$$$
ligand
 OpenBabel02271912153D
libRbt.so/2013.1/901 2013/11/27
 27 29  0  0  0  0  0  0  0  0999 V2000
   11.1337    7.9230   27.0908 N   0  0  0  0  0  0  0  0  0  0  0  0
   11.1468    7.5054   28.5134 C   0  0  2  0  0  0  0  0  0  0  0  0
   11.6736    8.6735   29.3371 C   0  0  0  0  0  0  0  0  0  0  0  0
   11.4828    8.8674   30.5834 O   0  0  0  0  0  0  0  0  0  0  0  0
   11.9950    6.2387   28.6466 C   0  0  0  0  0  0  0  0  0  0  0  0
   12.1135    5.7579   30.0867 C   0  0  0  0  0  0  0  0  0  0  0  0
   13.0074    4.2328   30.5680 S   0  0  2  0  0  0  0  0  0  0  0  0
   12.7677    4.3251   32.3413 C   0  0  0  0  0  0  0  0  0  0  0  0
   14.7065    4.8437   30.3310 C   0  0  0  0  0  0  0  0  0  0  0  0
   15.7240    3.7770   30.6291 C   0  0  1  0  0  0  0  0  0  0  0  0
   17.0823    4.2770   30.5830 O   0  0  0  0  0  0  0  0  0  0  0  0
   15.5467    3.1076   31.9728 C   0  0  1  0  0  0  0  0  0  0  0  0
   14.8793    1.9375   31.7785 O   0  0  0  0  0  0  0  0  0  0  0  0
   16.9817    2.7572   32.2898 C   0  0  1  0  0  0  0  0  0  0  0  0
   17.2277    1.5939   31.6328 O   0  0  0  0  0  0  0  0  0  0  0  0
   17.8568    3.8749   31.6805 C   0  0  2  0  0  0  0  0  0  0  0  0
   12.2964    9.5353   28.7142 O   0  0  0  0  0  0  0  0  0  0  0  0
   20.1153    7.9160   34.0770 N   0  0  0  0  0  0  0  0  0  0  0  0
   20.5366    7.0273   33.0314 C   0  0  0  0  0  0  0  0  0  0  0  0
   19.8113    5.9557   32.4539 N   0  0  0  0  0  0  0  0  0  0  0  0
   18.6540    5.8465   32.9759 C   0  0  0  0  0  0  0  0  0  0  0  0
   18.1248    6.7138   34.0522 C   0  0  0  0  0  0  0  0  0  0  0  0
   18.8500    7.7079   34.5811 C   0  0  0  0  0  0  0  0  0  0  0  0
   18.2670    8.3898   35.5455 N   0  0  0  0  0  0  0  0  0  0  0  0
   16.9104    6.3976   34.4335 N   0  0  0  0  0  0  0  0  0  0  0  0
   16.6750    5.3299   33.5870 C   0  0  0  0  0  0  0  0  0  0  0  0
   17.7486    4.9807   32.6704 N   0  0  0  0  0  0  0  0  0  0  0  0
  2  1  1  6  0  0  0
  2  3  1  0  0  0  0
  2  5  1  0  0  0  0
  3  4  1  0  0  0  0
  3 17  1  0  0  0  0
  5  6  1  0  0  0  0
  7  6  1  6  0  0  0
  7  8  1  0  0  0  0
  7  9  1  0  0  0  0
 10  9  1  1  0  0  0
 10 11  1  0  0  0  0
 10 12  1  0  0  0  0
 11 16  1  0  0  0  0
 12 13  1  6  0  0  0
 12 14  1  0  0  0  0
 14 15  1  6  0  0  0
 14 16  1  0  0  0  0
 16 27  1  1  0  0  0
 18 19  2  0  0  0  0
 18 23  1  0  0  0  0
 19 20  1  0  0  0  0
 20 21  2  0  0  0  0
 21 22  1  0  0  0  0
 21 27  1  0  0  0  0
 22 23  2  0  0  0  0
 22 25  1  0  0  0  0
 23 24  1  0  0  0  0
 25 26  2  0  0  0  0
 26 27  1  0  0  0  0
M  END
>  <CHROM.1>
158.22228131,177.83508523,177.53695601,178.83654348,-178.83097698,-173.97506067
-106.57512978,15.46851523,5.65662227,31.53195965,-3.03759006,0.56607105,-3.05727700

>  <Name>
ligand

>  <RI>
0

>  <Rbt.Current_Directory>
/home/itssahil/PROJECTS/Mol_Feturizer/Test_systems_manuscript/rnas/4aob

>  <Rbt.Executable>
rbdock ($Id: //depot/dev/client3/rdock/2013.1/src/exe/rbdock.cxx#4 $)

>  <Rbt.Library>
libRbt.so (2013.1, Build901 2013/11/27)

>  <Rbt.Parameter_File>
/export/apps/rDock/src/rDock_2013.1_src/data/scripts/dock_solv.prm

>  <Rbt.Receptor>
prm/pocket_docking_6.prm

>  <SCORE>
-10.5942

>  <SCORE.INTER>
-10.7299

>  <SCORE.INTER.CONST>
1

>  <SCORE.INTER.POLAR>
0

>  <SCORE.INTER.ROT>
7

>  <SCORE.INTER.SOLV>
10.705

>  <SCORE.INTER.VDW>
-18.9883

>  <SCORE.INTER.norm>
-0.397405

>  <SCORE.INTRA>
0.135713

>  <SCORE.INTRA.DIHEDRAL>
-2.41763

>  <SCORE.INTRA.DIHEDRAL.0>
6.31833

>  <SCORE.INTRA.POLAR>
0

>  <SCORE.INTRA.POLAR.0>
0

>  <SCORE.INTRA.REPUL>
0

>  <SCORE.INTRA.REPUL.0>
0

>  <SCORE.INTRA.SOLV>
-0.431288

>  <SCORE.INTRA.SOLV.lig_0>
-48.4015

>  <SCORE.INTRA.VDW>
1.56017

>  <SCORE.INTRA.VDW.0>
-2.83256

>  <SCORE.INTRA.norm>
0.0050264

>  <SCORE.RESTR>
0

>  <SCORE.RESTR.CAVITY>
0

>  <SCORE.RESTR.norm>
0

>  <SCORE.SYSTEM>
0

>  <SCORE.SYSTEM.CONST>
0

>  <SCORE.SYSTEM.DIHEDRAL>
0

>  <SCORE.SYSTEM.SOLV>
0

>  <SCORE.SYSTEM.norm>
0

>  <SCORE.heavy>
27

>  <SCORE.norm>
-0.392378

>  <RMSD>
5.815

$$$$
ligand
 OpenBabel02271912153D
libRbt.so/2013.1/901 2013/11/27
 27 29  0  0  0  0  0  0  0  0999 V2000
   14.1909    8.1501   33.1406 N   0  0  0  0  0  0  0  0  0  0  0  0
   14.5025    6.9182   33.9046 C   0  0  2  0  0  0  0  0  0  0  0  0
   13.8131    7.0229   35.2589 C   0  0  0  0  0  0  0  0  0  0  0  0
   14.1273    7.8146   36.2086 O   0  0  0  0  0  0  0  0  0  0  0  0
   16.0225    6.7744   34.0078 C   0  0  0  0  0  0  0  0  0  0  0  0
   16.6961    6.6497   32.6478 C   0  0  0  0  0  0  0  0  0  0  0  0
   16.3033    5.3216   31.4484 S   0  0  2  0  0  0  0  0  0  0  0  0
   17.1523    3.9660   32.2561 C   0  0  0  0  0  0  0  0  0  0  0  0
   17.4508    5.8208   30.1254 C   0  0  0  0  0  0  0  0  0  0  0  0
   16.9427    5.4127   28.7699 C   0  0  1  0  0  0  0  0  0  0  0  0
   16.7758    3.9795   28.6481 O   0  0  0  0  0  0  0  0  0  0  0  0
   15.6242    6.0438   28.3849 C   0  0  1  0  0  0  0  0  0  0  0  0
   15.8844    7.1157   27.5875 O   0  0  0  0  0  0  0  0  0  0  0  0
   15.0540    4.9577   27.5030 C   0  0  1  0  0  0  0  0  0  0  0  0
   15.6142    5.1481   26.2801 O   0  0  0  0  0  0  0  0  0  0  0  0
   15.5476    3.6124   28.0797 C   0  0  2  0  0  0  0  0  0  0  0  0
   12.9003    6.2207   35.4630 O   0  0  0  0  0  0  0  0  0  0  0  0
   14.3957    0.7892   32.3078 N   0  0  0  0  0  0  0  0  0  0  0  0
   15.4935    0.7790   31.3830 C   0  0  0  0  0  0  0  0  0  0  0  0
   15.6950    1.6199   30.2604 N   0  0  0  0  0  0  0  0  0  0  0  0
   14.7473    2.4630   30.1386 C   0  0  0  0  0  0  0  0  0  0  0  0
   13.5773    2.5586   31.0399 C   0  0  0  0  0  0  0  0  0  0  0  0
   13.4177    1.7333   32.0827 C   0  0  0  0  0  0  0  0  0  0  0  0
   12.3223    1.9137   32.7916 N   0  0  0  0  0  0  0  0  0  0  0  0
   12.7286    3.4999   30.7024 N   0  0  0  0  0  0  0  0  0  0  0  0
   13.3738    4.0011   29.5869 C   0  0  0  0  0  0  0  0  0  0  0  0
   14.6339    3.3698   29.2289 N   0  0  0  0  0  0  0  0  0  0  0  0
  2  1  1  6  0  0  0
  2  3  1  0  0  0  0
  2  5  1  0  0  0  0
  3  4  1  0  0  0  0
  3 17  1  0  0  0  0
  5  6  1  0  0  0  0
  7  6  1  1  0  0  0
  7  8  1  0  0  0  0
  7  9  1  0  0  0  0
 10  9  1  1  0  0  0
 10 11  1  0  0  0  0
 10 12  1  0  0  0  0
 11 16  1  0  0  0  0
 12 13  1  6  0  0  0
 12 14  1  0  0  0  0
 14 15  1  6  0  0  0
 14 16  1  0  0  0  0
 16 27  1  1  0  0  0
 18 19  2  0  0  0  0
 18 23  1  0  0  0  0
 19 20  1  0  0  0  0
 20 21  2  0  0  0  0
 21 22  1  0  0  0  0
 21 27  1  0  0  0  0
 22 23  2  0  0  0  0
 22 25  1  0  0  0  0
 23 24  1  0  0  0  0
 25 26  2  0  0  0  0
 26 27  1  0  0  0  0
M  END
>  <CHROM.1>
-70.03792267,-60.98378787,-58.60546015,-74.95602762,-151.23455227,-60.44056382
-63.60538284,15.08904171,4.68588492,31.10364222,-2.03335802,-1.12179149,-2.37124095

>  <Name>
ligand

>  <RI>
0

>  <Rbt.Current_Directory>
/home/itssahil/PROJECTS/Mol_Feturizer/Test_systems_manuscript/rnas/4aob

>  <Rbt.Executable>
rbdock ($Id: //depot/dev/client3/rdock/2013.1/src/exe/rbdock.cxx#4 $)

>  <Rbt.Library>
libRbt.so (2013.1, Build901 2013/11/27)

>  <Rbt.Parameter_File>
/export/apps/rDock/src/rDock_2013.1_src/data/scripts/dock_solv.prm

>  <Rbt.Receptor>
prm/pocket_docking_4.prm

>  <SCORE>
-12.6954

>  <SCORE.INTER>
-11.3108

>  <SCORE.INTER.CONST>
1

>  <SCORE.INTER.POLAR>
0

>  <SCORE.INTER.ROT>
7

>  <SCORE.INTER.SOLV>
18.464

>  <SCORE.INTER.VDW>
-21.9619

>  <SCORE.INTER.norm>
-0.418918

>  <SCORE.INTRA>
-1.38728

>  <SCORE.INTRA.DIHEDRAL>
0.0367477

>  <SCORE.INTRA.DIHEDRAL.0>
6.31833

>  <SCORE.INTRA.POLAR>
0

>  <SCORE.INTRA.POLAR.0>
0

>  <SCORE.INTRA.REPUL>
0

>  <SCORE.INTRA.REPUL.0>
0

>  <SCORE.INTRA.SOLV>
0.701046

>  <SCORE.INTRA.SOLV.lig_0>
-48.4015

>  <SCORE.INTRA.VDW>
-1.75618

>  <SCORE.INTRA.VDW.0>
-2.83256

>  <SCORE.INTRA.norm>
-0.0513808

>  <SCORE.RESTR>
0.00270541

>  <SCORE.RESTR.CAVITY>
0.00270541

>  <SCORE.RESTR.norm>
0.0001002

>  <SCORE.SYSTEM>
0

>  <SCORE.SYSTEM.CONST>
0

>  <SCORE.SYSTEM.DIHEDRAL>
0

>  <SCORE.SYSTEM.SOLV>
0

>  <SCORE.SYSTEM.norm>
0

>  <SCORE.heavy>
27

>  <SCORE.norm>
-0.470199

>  <RMSD>
5.818

$$$$
ligand
 OpenBabel02271912153D
libRbt.so/2013.1/901 2013/11/27
 27 29  0  0  0  0  0  0  0  0999 V2000
   16.5143    1.8407   29.5264 N   0  0  0  0  0  0  0  0  0  0  0  0
   15.9247    2.0194   30.8750 C   0  0  2  0  0  0  0  0  0  0  0  0
   17.0273    1.7876   31.9000 C   0  0  0  0  0  0  0  0  0  0  0  0
   17.4817    0.6577   32.2801 O   0  0  0  0  0  0  0  0  0  0  0  0
   14.7440    1.0579   31.0271 C   0  0  0  0  0  0  0  0  0  0  0  0
   13.5148    1.7251   31.6295 C   0  0  0  0  0  0  0  0  0  0  0  0
   13.5706    2.7609   33.1397 S   0  0  2  0  0  0  0  0  0  0  0  0
   11.8227    3.1288   33.2819 C   0  0  0  0  0  0  0  0  0  0  0  0
   14.2683    4.2683   32.3932 C   0  0  0  0  0  0  0  0  0  0  0  0
   14.3757    5.3834   33.3968 C   0  0  1  0  0  0  0  0  0  0  0  0
   15.2004    6.4765   32.9260 O   0  0  0  0  0  0  0  0  0  0  0  0
   13.0485    5.9787   33.8082 C   0  0  1  0  0  0  0  0  0  0  0  0
   12.6769    5.4110   34.9880 O   0  0  0  0  0  0  0  0  0  0  0  0
   13.4719    7.3976   34.1079 C   0  0  1  0  0  0  0  0  0  0  0  0
   13.9643    7.3725   35.3738 O   0  0  0  0  0  0  0  0  0  0  0  0
   14.6173    7.7356   33.1281 C   0  0  2  0  0  0  0  0  0  0  0  0
   17.4760    2.7964   32.4472 O   0  0  0  0  0  0  0  0  0  0  0  0
   14.8585    9.5688   28.2541 N   0  0  0  0  0  0  0  0  0  0  0  0
   15.8458    9.3262   29.2675 C   0  0  0  0  0  0  0  0  0  0  0  0
   15.6470    8.8080   30.5713 N   0  0  0  0  0  0  0  0  0  0  0  0
   14.4184    8.5427   30.7808 C   0  0  0  0  0  0  0  0  0  0  0  0
   13.3278    8.7509   29.8021 C   0  0  0  0  0  0  0  0  0  0  0  0
   13.5573    9.2576   28.5837 C   0  0  0  0  0  0  0  0  0  0  0  0
   12.4957    9.4097   27.8190 N   0  0  0  0  0  0  0  0  0  0  0  0
   12.1437    8.4132   30.2540 N   0  0  0  0  0  0  0  0  0  0  0  0
   12.4954    7.9852   31.5209 C   0  0  0  0  0  0  0  0  0  0  0  0
   13.9079    8.0540   31.8593 N   0  0  0  0  0  0  0  0  0  0  0  0
  2  1  1  6  0  0  0
  2  3  1  0  0  0  0
  2  5  1  0  0  0  0
  3  4  1  0  0  0  0
  3 17  1  0  0  0  0
  5  6  1  0  0  0  0
  7  6  1  6  0  0  0
  7  8  1  0  0  0  0
  7  9  1  0  0  0  0
 10  9  1  6  0  0  0
 10 11  1  0  0  0  0
 10 12  1  0  0  0  0
 11 16  1  0  0  0  0
 12 13  1  1  0  0  0
 12 14  1  0  0  0  0
 14 15  1  1  0  0  0
 14 16  1  0  0  0  0
 16 27  1  6  0  0  0
 18 19  2  0  0  0  0
 18 23  1  0  0  0  0
 19 20  1  0  0  0  0
 20 21  2  0  0  0  0
 21 22  1  0  0  0  0
 21 27  1  0  0  0  0
 22 23  2  0  0  0  0
 22 25  1  0  0  0  0
 23 24  1  0  0  0  0
 25 26  2  0  0  0  0
 26 27  1  0  0  0  0
M  END
>  <CHROM.1>
-78.04288761,-134.24496952,-48.63898653,-177.75545440,176.85786283,166.57547161
-81.99471254,14.36488681,5.54096096,31.81033951,-1.15563828,1.02078482,-0.64576100

>  <Name>
ligand

>  <RI>
0

>  <Rbt.Current_Directory>
/home/itssahil/PROJECTS/Mol_Feturizer/Test_systems_manuscript/rnas/4aob

>  <Rbt.Executable>
rbdock ($Id: //depot/dev/client3/rdock/2013.1/src/exe/rbdock.cxx#4 $)

>  <Rbt.Library>
libRbt.so (2013.1, Build901 2013/11/27)

>  <Rbt.Parameter_File>
/export/apps/rDock/src/rDock_2013.1_src/data/scripts/dock_solv.prm

>  <Rbt.Receptor>
prm/pocket_docking_8.prm

>  <SCORE>
-17.752

>  <SCORE.INTER>
-19.8566

>  <SCORE.INTER.CONST>
1

>  <SCORE.INTER.POLAR>
0

>  <SCORE.INTER.ROT>
7

>  <SCORE.INTER.SOLV>
16.0423

>  <SCORE.INTER.VDW>
-26.8518

>  <SCORE.INTER.norm>
-0.735429

>  <SCORE.INTRA>
2.10455

>  <SCORE.INTRA.DIHEDRAL>
3.57843

>  <SCORE.INTRA.DIHEDRAL.0>
6.31833

>  <SCORE.INTRA.POLAR>
0

>  <SCORE.INTRA.POLAR.0>
0

>  <SCORE.INTRA.REPUL>
0

>  <SCORE.INTRA.REPUL.0>
0

>  <SCORE.INTRA.SOLV>
-0.0110729

>  <SCORE.INTRA.SOLV.lig_0>
-48.4015

>  <SCORE.INTRA.VDW>
0.320868

>  <SCORE.INTRA.VDW.0>
-2.83256

>  <SCORE.INTRA.norm>
0.0779462

>  <SCORE.RESTR>
0

>  <SCORE.RESTR.CAVITY>
0

>  <SCORE.RESTR.norm>
0

>  <SCORE.SYSTEM>
0

>  <SCORE.SYSTEM.CONST>
0

>  <SCORE.SYSTEM.DIHEDRAL>
0

>  <SCORE.SYSTEM.SOLV>
0

>  <SCORE.SYSTEM.norm>
0

>  <SCORE.heavy>
27

>  <SCORE.norm>
-0.657483

>  <RMSD>
5.836

$$$$
ligand
 OpenBabel02271912153D
libRbt.so/2013.1/901 2013/11/27
 27 29  0  0  0  0  0  0  0  0999 V2000
   11.0150    6.4453   26.7108 N   0  0  0  0  0  0  0  0  0  0  0  0
   11.2080    6.7444   28.1501 C   0  0  2  0  0  0  0  0  0  0  0  0
   10.8204    8.1995   28.3797 C   0  0  0  0  0  0  0  0  0  0  0  0
   11.5720    9.1180   28.8477 O   0  0  0  0  0  0  0  0  0  0  0  0
   12.6592    6.4373   28.5261 C   0  0  0  0  0  0  0  0  0  0  0  0
   12.8997    4.9561   28.7853 C   0  0  0  0  0  0  0  0  0  0  0  0
   14.3899    4.3122   29.6346 S   0  0  2  0  0  0  0  0  0  0  0  0
   13.6825    2.8210   30.3320 C   0  0  0  0  0  0  0  0  0  0  0  0
   14.4111    5.4748   31.0360 C   0  0  0  0  0  0  0  0  0  0  0  0
   15.8077    5.6992   31.5470 C   0  0  1  0  0  0  0  0  0  0  0  0
   16.0068    7.0438   32.0463 O   0  0  0  0  0  0  0  0  0  0  0  0
   16.2249    4.7537   32.6503 C   0  0  1  0  0  0  0  0  0  0  0  0
   16.9558    3.7495   32.0938 O   0  0  0  0  0  0  0  0  0  0  0  0
   17.1849    5.6370   33.4122 C   0  0  1  0  0  0  0  0  0  0  0  0
   18.3686    5.5452   32.7521 O   0  0  0  0  0  0  0  0  0  0  0  0
   16.6509    7.0815   33.2912 C   0  0  2  0  0  0  0  0  0  0  0  0
    9.6477    8.4901   28.1372 O   0  0  0  0  0  0  0  0  0  0  0  0
   15.0771    8.5458   38.0403 N   0  0  0  0  0  0  0  0  0  0  0  0
   16.2956    8.7294   37.3038 C   0  0  0  0  0  0  0  0  0  0  0  0
   16.5981    8.2810   35.9941 N   0  0  0  0  0  0  0  0  0  0  0  0
   15.6117    7.6604   35.4788 C   0  0  0  0  0  0  0  0  0  0  0  0
   14.3147    7.4236   36.1515 C   0  0  0  0  0  0  0  0  0  0  0  0
   14.0748    7.8525   37.3974 C   0  0  0  0  0  0  0  0  0  0  0  0
   12.8870    7.5576   37.8844 N   0  0  0  0  0  0  0  0  0  0  0  0
   13.4586    6.7495   35.4214 N   0  0  0  0  0  0  0  0  0  0  0  0
   14.2215    6.5682   34.2825 C   0  0  0  0  0  0  0  0  0  0  0  0
   15.5603    7.1356   34.3021 N   0  0  0  0  0  0  0  0  0  0  0  0
  2  1  1  6  0  0  0
  2  3  1  0  0  0  0
  2  5  1  0  0  0  0
  3  4  1  0  0  0  0
  3 17  1  0  0  0  0
  5  6  1  0  0  0  0
  7  6  1  6  0  0  0
  7  8  1  0  0  0  0
  7  9  1  0  0  0  0
 10  9  1  1  0  0  0
 10 11  1  0  0  0  0
 10 12  1  0  0  0  0
 11 16  1  0  0  0  0
 12 13  1  6  0  0  0
 12 14  1  0  0  0  0
 14 15  1  6  0  0  0
 14 16  1  0  0  0  0
 16 27  1  1  0  0  0
 18 19  2  0  0  0  0
 18 23  1  0  0  0  0
 19 20  1  0  0  0  0
 20 21  2  0  0  0  0
 21 22  1  0  0  0  0
 21 27  1  0  0  0  0
 22 23  2  0  0  0  0
 22 25  1  0  0  0  0
 23 24  1  0  0  0  0
 25 26  2  0  0  0  0
 26 27  1  0  0  0  0
M  END
>  <CHROM.1>
-121.16061214,-81.11856742,-164.71152627,152.10214373,-151.39527675,146.81361007
-152.06772909,14.34998198,6.49094492,32.29353855,2.09908508,0.61159532,-2.02283789

>  <Name>
ligand

>  <RI>
0

>  <Rbt.Current_Directory>
/home/itssahil/PROJECTS/Mol_Feturizer/Test_systems_manuscript/rnas/4aob

>  <Rbt.Executable>
rbdock ($Id: //depot/dev/client3/rdock/2013.1/src/exe/rbdock.cxx#4 $)

>  <Rbt.Library>
libRbt.so (2013.1, Build901 2013/11/27)

>  <Rbt.Parameter_File>
/export/apps/rDock/src/rDock_2013.1_src/data/scripts/dock_solv.prm

>  <Rbt.Receptor>
prm/pocket_docking_5.prm

>  <SCORE>
-5.79468

>  <SCORE.INTER>
-9.04914

>  <SCORE.INTER.CONST>
1

>  <SCORE.INTER.POLAR>
0

>  <SCORE.INTER.ROT>
7

>  <SCORE.INTER.SOLV>
19.1478

>  <SCORE.INTER.VDW>
-20.682

>  <SCORE.INTER.norm>
-0.335153

>  <SCORE.INTRA>
3.20359

>  <SCORE.INTRA.DIHEDRAL>
6.37106

>  <SCORE.INTRA.DIHEDRAL.0>
6.31833

>  <SCORE.INTRA.POLAR>
0

>  <SCORE.INTRA.POLAR.0>
0

>  <SCORE.INTRA.REPUL>
0

>  <SCORE.INTRA.REPUL.0>
0

>  <SCORE.INTRA.SOLV>
-0.130126

>  <SCORE.INTRA.SOLV.lig_0>
-48.4015

>  <SCORE.INTRA.VDW>
0.0831238

>  <SCORE.INTRA.VDW.0>
-2.83256

>  <SCORE.INTRA.norm>
0.118652

>  <SCORE.RESTR>
0.0508674

>  <SCORE.RESTR.CAVITY>
0.0508674

>  <SCORE.RESTR.norm>
0.00188398

>  <SCORE.SYSTEM>
0

>  <SCORE.SYSTEM.CONST>
0

>  <SCORE.SYSTEM.DIHEDRAL>
0

>  <SCORE.SYSTEM.SOLV>
0

>  <SCORE.SYSTEM.norm>
0

>  <SCORE.heavy>
27

>  <SCORE.norm>
-0.214618

>  <RMSD>
5.846

$$$$
ligand
 OpenBabel02271912153D
libRbt.so/2013.1/901 2013/11/27
 27 29  0  0  0  0  0  0  0  0999 V2000
   15.3933    7.3722   31.7887 N   0  0  0  0  0  0  0  0  0  0  0  0
   14.5920    8.0964   32.8045 C   0  0  2  0  0  0  0  0  0  0  0  0
   15.1038    7.6876   34.1797 C   0  0  0  0  0  0  0  0  0  0  0  0
   15.5687    6.5451   34.5051 O   0  0  0  0  0  0  0  0  0  0  0  0
   13.1125    7.7714   32.5872 C   0  0  0  0  0  0  0  0  0  0  0  0
   12.6704    6.5159   33.3271 C   0  0  0  0  0  0  0  0  0  0  0  0
   12.7591    4.8362   32.6010 S   0  0  2  0  0  0  0  0  0  0  0  0
   12.4192    3.8825   34.0793 C   0  0  0  0  0  0  0  0  0  0  0  0
   14.5683    4.7264   32.4245 C   0  0  0  0  0  0  0  0  0  0  0  0
   15.0031    3.3386   32.0413 C   0  0  1  0  0  0  0  0  0  0  0  0
   14.0913    2.7086   31.1093 O   0  0  0  0  0  0  0  0  0  0  0  0
   16.3815    3.2675   31.4248 C   0  0  1  0  0  0  0  0  0  0  0  0
   17.2625    2.9067   32.3975 O   0  0  0  0  0  0  0  0  0  0  0  0
   16.2071    2.0749   30.5140 C   0  0  1  0  0  0  0  0  0  0  0  0
   16.3955    0.9834   31.3006 O   0  0  0  0  0  0  0  0  0  0  0  0
   14.7413    2.0984   30.0271 C   0  0  2  0  0  0  0  0  0  0  0  0
   15.0012    8.5360   35.0676 O   0  0  0  0  0  0  0  0  0  0  0  0
   12.5030    6.2696   27.8439 N   0  0  0  0  0  0  0  0  0  0  0  0
   12.2317    5.5127   29.0331 C   0  0  0  0  0  0  0  0  0  0  0  0
   12.9336    4.3853   29.5274 N   0  0  0  0  0  0  0  0  0  0  0  0
   13.9135    4.0829   28.7712 C   0  0  0  0  0  0  0  0  0  0  0  0
   14.2790    4.8014   27.5300 C   0  0  0  0  0  0  0  0  0  0  0  0
   13.5791    5.8551   27.0897 C   0  0  0  0  0  0  0  0  0  0  0  0
   13.9998    6.3895   25.9617 N   0  0  0  0  0  0  0  0  0  0  0  0
   15.3214    4.2946   26.9160 N   0  0  0  0  0  0  0  0  0  0  0  0
   15.6144    3.2563   27.7810 C   0  0  0  0  0  0  0  0  0  0  0  0
   14.7507    3.1173   28.9426 N   0  0  0  0  0  0  0  0  0  0  0  0
  2  1  1  6  0  0  0
  2  3  1  0  0  0  0
  2  5  1  0  0  0  0
  3  4  1  0  0  0  0
  3 17  1  0  0  0  0
  5  6  1  0  0  0  0
  7  6  1  1  0  0  0
  7  8  1  0  0  0  0
  7  9  1  0  0  0  0
 10  9  1  6  0  0  0
 10 11  1  0  0  0  0
 10 12  1  0  0  0  0
 11 16  1  0  0  0  0
 12 13  1  1  0  0  0
 12 14  1  0  0  0  0
 14 15  1  1  0  0  0
 14 16  1  0  0  0  0
 16 27  1  6  0  0  0
 18 19  2  0  0  0  0
 18 23  1  0  0  0  0
 19 20  1  0  0  0  0
 20 21  2  0  0  0  0
 21 22  1  0  0  0  0
 21 27  1  0  0  0  0
 22 23  2  0  0  0  0
 22 25  1  0  0  0  0
 23 24  1  0  0  0  0
 25 26  2  0  0  0  0
 26 27  1  0  0  0  0
M  END
>  <CHROM.1>
-33.24990734,87.55249815,-89.38389990,169.20010090,170.84262906,37.89229269
-26.50500990,14.40444169,4.84981642,30.99049749,1.63854848,-1.11839048,1.19086628

>  <Name>
ligand

>  <RI>
0

>  <Rbt.Current_Directory>
/home/itssahil/PROJECTS/Mol_Feturizer/Test_systems_manuscript/rnas/4aob

>  <Rbt.Executable>
rbdock ($Id: //depot/dev/client3/rdock/2013.1/src/exe/rbdock.cxx#4 $)

>  <Rbt.Library>
libRbt.so (2013.1, Build901 2013/11/27)

>  <Rbt.Parameter_File>
/export/apps/rDock/src/rDock_2013.1_src/data/scripts/dock_solv.prm

>  <Rbt.Receptor>
prm/pocket_docking_2.prm

>  <SCORE>
-6.75287

>  <SCORE.INTER>
-11.2648

>  <SCORE.INTER.CONST>
1

>  <SCORE.INTER.POLAR>
0

>  <SCORE.INTER.ROT>
7

>  <SCORE.INTER.SOLV>
9.88913

>  <SCORE.INTER.VDW>
-19.0729

>  <SCORE.INTER.norm>
-0.417214

>  <SCORE.INTRA>
2.96757

>  <SCORE.INTRA.DIHEDRAL>
3.43095

>  <SCORE.INTRA.DIHEDRAL.0>
6.31833

>  <SCORE.INTRA.POLAR>
0

>  <SCORE.INTRA.POLAR.0>
0

>  <SCORE.INTRA.REPUL>
0

>  <SCORE.INTRA.REPUL.0>
0

>  <SCORE.INTRA.SOLV>
2.40919

>  <SCORE.INTRA.SOLV.lig_0>
-48.4015

>  <SCORE.INTRA.VDW>
0.0474945

>  <SCORE.INTRA.VDW.0>
-2.83256

>  <SCORE.INTRA.norm>
0.10991

>  <SCORE.RESTR>
1.54435

>  <SCORE.RESTR.CAVITY>
1.54435

>  <SCORE.RESTR.norm>
0.0571981

>  <SCORE.SYSTEM>
0

>  <SCORE.SYSTEM.CONST>
0

>  <SCORE.SYSTEM.DIHEDRAL>
0

>  <SCORE.SYSTEM.SOLV>
0

>  <SCORE.SYSTEM.norm>
0

>  <SCORE.heavy>
27

>  <SCORE.norm>
-0.250106

>  <RMSD>
5.847

$$$$
ligand
 OpenBabel02271912153D
libRbt.so/2013.1/901 2013/11/27
 27 29  0  0  0  0  0  0  0  0999 V2000
   11.9396    7.9255   27.2955 N   0  0  0  0  0  0  0  0  0  0  0  0
   11.7669    9.2074   28.0203 C   0  0  2  0  0  0  0  0  0  0  0  0
   11.6545   10.3175   26.9832 C   0  0  0  0  0  0  0  0  0  0  0  0
   10.6192   11.0213   26.7375 O   0  0  0  0  0  0  0  0  0  0  0  0
   12.9439    9.3922   28.9805 C   0  0  0  0  0  0  0  0  0  0  0  0
   14.2942    9.2888   28.2840 C   0  0  0  0  0  0  0  0  0  0  0  0
   15.8828    9.1442   29.1851 S   0  0  2  0  0  0  0  0  0  0  0  0
   16.9798    8.9798   27.7779 C   0  0  0  0  0  0  0  0  0  0  0  0
   15.6873    7.4343   29.7804 C   0  0  0  0  0  0  0  0  0  0  0  0
   16.9380    6.9360   30.4507 C   0  0  1  0  0  0  0  0  0  0  0  0
   17.3351    7.7635   31.5707 O   0  0  0  0  0  0  0  0  0  0  0  0
   16.8449    5.5168   30.9630 C   0  0  1  0  0  0  0  0  0  0  0  0
   17.4196    4.6955   30.0424 O   0  0  0  0  0  0  0  0  0  0  0  0
   17.7857    5.5949   32.1425 C   0  0  1  0  0  0  0  0  0  0  0  0
   19.0321    5.4312   31.6275 O   0  0  0  0  0  0  0  0  0  0  0  0
   17.6610    7.0236   32.7164 C   0  0  2  0  0  0  0  0  0  0  0  0
   12.6513   10.5051   26.2835 O   0  0  0  0  0  0  0  0  0  0  0  0
   15.0094    8.6438   36.9019 N   0  0  0  0  0  0  0  0  0  0  0  0
   16.2900    8.9863   36.3511 C   0  0  0  0  0  0  0  0  0  0  0  0
   16.9020    8.4699   35.1821 N   0  0  0  0  0  0  0  0  0  0  0  0
   16.1526    7.6143   34.6075 C   0  0  0  0  0  0  0  0  0  0  0  0
   14.8171    7.1977   35.0908 C   0  0  0  0  0  0  0  0  0  0  0  0
   14.2808    7.7007   36.2103 C   0  0  0  0  0  0  0  0  0  0  0  0
   13.0952    7.2293   36.5376 N   0  0  0  0  0  0  0  0  0  0  0  0
   14.2425    6.2930   34.3347 N   0  0  0  0  0  0  0  0  0  0  0  0
   15.2210    6.1466   33.3687 C   0  0  0  0  0  0  0  0  0  0  0  0
   16.4115    6.9674   33.5226 N   0  0  0  0  0  0  0  0  0  0  0  0
  2  1  1  6  0  0  0
  2  3  1  0  0  0  0
  2  5  1  0  0  0  0
  3  4  1  0  0  0  0
  3 17  1  0  0  0  0
  5  6  1  0  0  0  0
  7  6  1  6  0  0  0
  7  8  1  0  0  0  0
  7  9  1  0  0  0  0
 10  9  1  1  0  0  0
 10 11  1  0  0  0  0
 10 12  1  0  0  0  0
 11 16  1  0  0  0  0
 12 13  1  6  0  0  0
 12 14  1  0  0  0  0
 14 15  1  6  0  0  0
 14 16  1  0  0  0  0
 16 27  1  1  0  0  0
 18 19  2  0  0  0  0
 18 23  1  0  0  0  0
 19 20  1  0  0  0  0
 20 21  2  0  0  0  0
 21 22  1  0  0  0  0
 21 27  1  0  0  0  0
 22 23  2  0  0  0  0
 22 25  1  0  0  0  0
 23 24  1  0  0  0  0
 25 26  2  0  0  0  0
 26 27  1  0  0  0  0
M  END
>  <CHROM.1>
112.71041649,54.27033762,-167.94248635,177.04559974,173.29705410,58.08881603
-106.21555277,15.22366091,7.90320094,31.28000445,2.01932613,0.52104723,-1.47892420

>  <Name>
ligand

>  <RI>
0

>  <Rbt.Current_Directory>
/home/itssahil/PROJECTS/Mol_Feturizer/Test_systems_manuscript/rnas/4aob

>  <Rbt.Executable>
rbdock ($Id: //depot/dev/client3/rdock/2013.1/src/exe/rbdock.cxx#4 $)

>  <Rbt.Library>
libRbt.so (2013.1, Build901 2013/11/27)

>  <Rbt.Parameter_File>
/export/apps/rDock/src/rDock_2013.1_src/data/scripts/dock_solv.prm

>  <Rbt.Receptor>
prm/pocket_docking_7.prm

>  <SCORE>
-9.76552

>  <SCORE.INTER>
-9.88937

>  <SCORE.INTER.CONST>
1

>  <SCORE.INTER.POLAR>
0

>  <SCORE.INTER.ROT>
7

>  <SCORE.INTER.SOLV>
15.0909

>  <SCORE.INTER.VDW>
-19.8899

>  <SCORE.INTER.norm>
-0.366273

>  <SCORE.INTRA>
0.123845

>  <SCORE.INTRA.DIHEDRAL>
-2.40009

>  <SCORE.INTRA.DIHEDRAL.0>
6.31833

>  <SCORE.INTRA.POLAR>
0

>  <SCORE.INTRA.POLAR.0>
0

>  <SCORE.INTRA.REPUL>
0

>  <SCORE.INTRA.REPUL.0>
0

>  <SCORE.INTRA.SOLV>
0.138602

>  <SCORE.INTRA.SOLV.lig_0>
-48.4015

>  <SCORE.INTRA.VDW>
1.25459

>  <SCORE.INTRA.VDW.0>
-2.83256

>  <SCORE.INTRA.norm>
0.00458684

>  <SCORE.RESTR>
0

>  <SCORE.RESTR.CAVITY>
0

>  <SCORE.RESTR.norm>
0

>  <SCORE.SYSTEM>
0

>  <SCORE.SYSTEM.CONST>
0

>  <SCORE.SYSTEM.DIHEDRAL>
0

>  <SCORE.SYSTEM.SOLV>
0

>  <SCORE.SYSTEM.norm>
0

>  <SCORE.heavy>
27

>  <SCORE.norm>
-0.361686

>  <RMSD>
5.854

$$$$
ligand
 OpenBabel02271912153D
libRbt.so/2013.1/901 2013/11/27
 27 29  0  0  0  0  0  0  0  0999 V2000
   12.2213    7.0595   34.8305 N   0  0  0  0  0  0  0  0  0  0  0  0
   13.3611    6.1501   34.5620 C   0  0  2  0  0  0  0  0  0  0  0  0
   14.5790    7.0096   34.2486 C   0  0  0  0  0  0  0  0  0  0  0  0
   15.8007    6.6746   34.3998 O   0  0  0  0  0  0  0  0  0  0  0  0
   12.9776    5.2039   33.4222 C   0  0  0  0  0  0  0  0  0  0  0  0
   14.0631    4.1807   33.1157 C   0  0  0  0  0  0  0  0  0  0  0  0
   14.0843    3.1615   31.5934 S   0  0  2  0  0  0  0  0  0  0  0  0
   12.8072    1.9851   32.0359 C   0  0  0  0  0  0  0  0  0  0  0  0
   15.6321    2.2560   31.9103 C   0  0  0  0  0  0  0  0  0  0  0  0
   16.8388    3.1025   31.6114 C   0  0  1  0  0  0  0  0  0  0  0  0
   16.9499    3.4344   30.2063 O   0  0  0  0  0  0  0  0  0  0  0  0
   16.8888    4.4051   32.3768 C   0  0  1  0  0  0  0  0  0  0  0  0
   17.7010    4.2319   33.4552 O   0  0  0  0  0  0  0  0  0  0  0  0
   17.6359    5.2691   31.3879 C   0  0  1  0  0  0  0  0  0  0  0  0
   18.9517    4.9918   31.5811 O   0  0  0  0  0  0  0  0  0  0  0  0
   17.2215    4.7911   29.9787 C   0  0  2  0  0  0  0  0  0  0  0  0
   14.3453    8.1570   33.8647 O   0  0  0  0  0  0  0  0  0  0  0  0
   12.4720    4.5578   27.8428 N   0  0  0  0  0  0  0  0  0  0  0  0
   13.5774    3.6435   27.8939 C   0  0  0  0  0  0  0  0  0  0  0  0
   14.8323    3.8280   28.5256 N   0  0  0  0  0  0  0  0  0  0  0  0
   14.8971    4.9626   29.1020 C   0  0  0  0  0  0  0  0  0  0  0  0
   13.8137    5.9708   29.1121 C   0  0  0  0  0  0  0  0  0  0  0  0
   12.6466    5.7621   28.4892 C   0  0  0  0  0  0  0  0  0  0  0  0
   11.7769    6.7488   28.5596 N   0  0  0  0  0  0  0  0  0  0  0  0
   14.1215    7.0675   29.7625 N   0  0  0  0  0  0  0  0  0  0  0  0
   15.4029    6.7418   30.1673 C   0  0  0  0  0  0  0  0  0  0  0  0
   15.8954    5.4328   29.7691 N   0  0  0  0  0  0  0  0  0  0  0  0
  2  1  1  6  0  0  0
  2  3  1  0  0  0  0
  2  5  1  0  0  0  0
  3  4  1  0  0  0  0
  3 17  1  0  0  0  0
  5  6  1  0  0  0  0
  7  6  1  1  0  0  0
  7  8  1  0  0  0  0
  7  9  1  0  0  0  0
 10  9  1  6  0  0  0
 10 11  1  0  0  0  0
 10 12  1  0  0  0  0
 11 16  1  0  0  0  0
 12 13  1  1  0  0  0
 12 14  1  0  0  0  0
 14 15  1  6  0  0  0
 14 16  1  0  0  0  0
 16 27  1  1  0  0  0
 18 19  2  0  0  0  0
 18 23  1  0  0  0  0
 19 20  1  0  0  0  0
 20 21  2  0  0  0  0
 21 22  1  0  0  0  0
 21 27  1  0  0  0  0
 22 23  2  0  0  0  0
 22 25  1  0  0  0  0
 23 24  1  0  0  0  0
 25 26  2  0  0  0  0
 26 27  1  0  0  0  0
M  END
>  <CHROM.1>
154.93476514,-177.19019956,-165.94915790,-75.99143571,-78.03763356,-65.32453737
-40.76316507,14.87907188,4.96575971,31.34130027,1.30399015,-0.42973510,1.22087137

>  <Name>
ligand

>  <RI>
0

>  <Rbt.Current_Directory>
/home/itssahil/PROJECTS/Mol_Feturizer/Test_systems_manuscript/rnas/4aob

>  <Rbt.Executable>
rbdock ($Id: //depot/dev/client3/rdock/2013.1/src/exe/rbdock.cxx#4 $)

>  <Rbt.Library>
libRbt.so (2013.1, Build901 2013/11/27)

>  <Rbt.Parameter_File>
/export/apps/rDock/src/rDock_2013.1_src/data/scripts/dock_solv.prm

>  <Rbt.Receptor>
prm/pocket_docking_4.prm

>  <SCORE>
-12.593

>  <SCORE.INTER>
-9.78708

>  <SCORE.INTER.CONST>
1

>  <SCORE.INTER.POLAR>
0

>  <SCORE.INTER.ROT>
7

>  <SCORE.INTER.SOLV>
14.6147

>  <SCORE.INTER.VDW>
-19.6629

>  <SCORE.INTER.norm>
-0.362485

>  <SCORE.INTRA>
-2.80594

>  <SCORE.INTRA.DIHEDRAL>
-1.90212

>  <SCORE.INTRA.DIHEDRAL.0>
6.31833

>  <SCORE.INTRA.POLAR>
0

>  <SCORE.INTRA.POLAR.0>
0

>  <SCORE.INTRA.REPUL>
0

>  <SCORE.INTRA.REPUL.0>
0

>  <SCORE.INTRA.SOLV>
-0.17127

>  <SCORE.INTRA.SOLV.lig_0>
-48.4015

>  <SCORE.INTRA.VDW>
-1.76925

>  <SCORE.INTRA.VDW.0>
-2.83256

>  <SCORE.INTRA.norm>
-0.103924

>  <SCORE.RESTR>
0

>  <SCORE.RESTR.CAVITY>
0

>  <SCORE.RESTR.norm>
0

>  <SCORE.SYSTEM>
0

>  <SCORE.SYSTEM.CONST>
0

>  <SCORE.SYSTEM.DIHEDRAL>
0

>  <SCORE.SYSTEM.SOLV>
0

>  <SCORE.SYSTEM.norm>
0

>  <SCORE.heavy>
27

>  <SCORE.norm>
-0.466408

>  <RMSD>
5.866

$$$$
ligand
 OpenBabel02271912153D
libRbt.so/2013.1/901 2013/11/27
 27 29  0  0  0  0  0  0  0  0999 V2000
   14.4210    8.2418   25.1655 N   0  0  0  0  0  0  0  0  0  0  0  0
   12.9634    8.4425   25.3485 C   0  0  2  0  0  0  0  0  0  0  0  0
   12.6703    9.9256   25.1620 C   0  0  0  0  0  0  0  0  0  0  0  0
   11.6974   10.4280   24.5075 O   0  0  0  0  0  0  0  0  0  0  0  0
   12.5635    7.9145   26.7280 C   0  0  0  0  0  0  0  0  0  0  0  0
   12.8950    6.4397   26.9130 C   0  0  0  0  0  0  0  0  0  0  0  0
   14.6061    5.8061   27.0785 S   0  0  2  0  0  0  0  0  0  0  0  0
   14.2283    4.1422   27.6256 C   0  0  0  0  0  0  0  0  0  0  0  0
   15.0549    6.6731   28.6158 C   0  0  0  0  0  0  0  0  0  0  0  0
   16.4368    6.3000   29.0776 C   0  0  1  0  0  0  0  0  0  0  0  0
   17.0578    7.3416   29.8690 O   0  0  0  0  0  0  0  0  0  0  0  0
   16.4966    5.0305   29.8960 C   0  0  1  0  0  0  0  0  0  0  0  0
   16.8669    4.0124   29.0722 O   0  0  0  0  0  0  0  0  0  0  0  0
   17.6784    5.3395   30.7850 C   0  0  1  0  0  0  0  0  0  0  0  0
   18.7789    5.0335   30.0496 O   0  0  0  0  0  0  0  0  0  0  0  0
   17.6529    6.8620   31.0445 C   0  0  2  0  0  0  0  0  0  0  0  0
   13.4921   10.7035   25.6499 O   0  0  0  0  0  0  0  0  0  0  0  0
   16.4921    8.2667   35.9286 N   0  0  0  0  0  0  0  0  0  0  0  0
   17.6961    8.3116   35.1482 C   0  0  0  0  0  0  0  0  0  0  0  0
   17.8796    7.8995   33.8050 N   0  0  0  0  0  0  0  0  0  0  0  0
   16.7934    7.4607   33.3036 C   0  0  0  0  0  0  0  0  0  0  0  0
   15.5016    7.3785   34.0213 C   0  0  0  0  0  0  0  0  0  0  0  0
   15.3746    7.7658   35.2971 C   0  0  0  0  0  0  0  0  0  0  0  0
   14.1751    7.6208   35.8215 N   0  0  0  0  0  0  0  0  0  0  0  0
   14.5281    6.8801   33.2971 N   0  0  0  0  0  0  0  0  0  0  0  0
   15.2126    6.6545   32.1171 C   0  0  0  0  0  0  0  0  0  0  0  0
   16.6208    7.0174   32.1052 N   0  0  0  0  0  0  0  0  0  0  0  0
  2  1  1  1  0  0  0
  2  3  1  0  0  0  0
  2  5  1  0  0  0  0
  3  4  1  0  0  0  0
  3 17  1  0  0  0  0
  5  6  1  0  0  0  0
  7  6  1  1  0  0  0
  7  8  1  0  0  0  0
  7  9  1  0  0  0  0
 10  9  1  1  0  0  0
 10 11  1  0  0  0  0
 10 12  1  0  0  0  0
 11 16  1  0  0  0  0
 12 13  1  6  0  0  0
 12 14  1  0  0  0  0
 14 15  1  6  0  0  0
 14 16  1  0  0  0  0
 16 27  1  1  0  0  0
 18 19  2  0  0  0  0
 18 23  1  0  0  0  0
 19 20  1  0  0  0  0
 20 21  2  0  0  0  0
 21 22  1  0  0  0  0
 21 27  1  0  0  0  0
 22 23  2  0  0  0  0
 22 25  1  0  0  0  0
 23 24  1  0  0  0  0
 25 26  2  0  0  0  0
 26 27  1  0  0  0  0
M  END
>  <CHROM.1>
136.74424018,-58.63443465,70.61517970,167.72632576,177.19680768,153.48384039
-136.53002766,15.35065967,7.10520904,29.85881470,-2.17916225,-0.88464078
1.19812080

>  <Name>
ligand

>  <RI>
0

>  <Rbt.Current_Directory>
/home/itssahil/PROJECTS/Mol_Feturizer/Test_systems_manuscript/rnas/4aob

>  <Rbt.Executable>
rbdock ($Id: //depot/dev/client3/rdock/2013.1/src/exe/rbdock.cxx#4 $)

>  <Rbt.Library>
libRbt.so (2013.1, Build901 2013/11/27)

>  <Rbt.Parameter_File>
/export/apps/rDock/src/rDock_2013.1_src/data/scripts/dock_solv.prm

>  <Rbt.Receptor>
prm/pocket_docking_5.prm

>  <SCORE>
-2.08293

>  <SCORE.INTER>
-3.20137

>  <SCORE.INTER.CONST>
1

>  <SCORE.INTER.POLAR>
0

>  <SCORE.INTER.ROT>
7

>  <SCORE.INTER.SOLV>
10.0274

>  <SCORE.INTER.VDW>
-13.7434

>  <SCORE.INTER.norm>
-0.118569

>  <SCORE.INTRA>
1.11844

>  <SCORE.INTRA.DIHEDRAL>
-0.391206

>  <SCORE.INTRA.DIHEDRAL.0>
6.31833

>  <SCORE.INTRA.POLAR>
0

>  <SCORE.INTRA.POLAR.0>
0

>  <SCORE.INTRA.REPUL>
0

>  <SCORE.INTRA.REPUL.0>
0

>  <SCORE.INTRA.SOLV>
1.95672

>  <SCORE.INTRA.SOLV.lig_0>
-48.4015

>  <SCORE.INTRA.VDW>
0.335684

>  <SCORE.INTRA.VDW.0>
-2.83256

>  <SCORE.INTRA.norm>
0.0414236

>  <SCORE.RESTR>
0

>  <SCORE.RESTR.CAVITY>
0

>  <SCORE.RESTR.norm>
0

>  <SCORE.SYSTEM>
0

>  <SCORE.SYSTEM.CONST>
0

>  <SCORE.SYSTEM.DIHEDRAL>
0

>  <SCORE.SYSTEM.SOLV>
0

>  <SCORE.SYSTEM.norm>
0

>  <SCORE.heavy>
27

>  <SCORE.norm>
-0.0771456

>  <RMSD>
5.870

$$$$
ligand
 OpenBabel02271912153D
libRbt.so/2013.1/901 2013/11/27
 27 29  0  0  0  0  0  0  0  0999 V2000
   11.8356   10.3169   24.2322 N   0  0  0  0  0  0  0  0  0  0  0  0
   11.5720    9.7737   25.5864 C   0  0  2  0  0  0  0  0  0  0  0  0
   10.1339   10.1159   25.9539 C   0  0  0  0  0  0  0  0  0  0  0  0
    9.4059   11.0102   25.4081 O   0  0  0  0  0  0  0  0  0  0  0  0
   12.6007   10.3551   26.5586 C   0  0  0  0  0  0  0  0  0  0  0  0
   12.4468    9.8124   27.9731 C   0  0  0  0  0  0  0  0  0  0  0  0
   12.3484    8.0243   28.3596 S   0  0  2  0  0  0  0  0  0  0  0  0
   12.4187    8.1281   30.1470 C   0  0  0  0  0  0  0  0  0  0  0  0
   14.0461    7.5643   27.8881 C   0  0  0  0  0  0  0  0  0  0  0  0
   14.1787    6.0811   27.6774 C   0  0  1  0  0  0  0  0  0  0  0  0
   15.5361    5.6835   27.3671 O   0  0  0  0  0  0  0  0  0  0  0  0
   13.7330    5.2441   28.8546 C   0  0  1  0  0  0  0  0  0  0  0  0
   12.4620    4.8199   28.6159 O   0  0  0  0  0  0  0  0  0  0  0  0
   14.6419    4.0482   28.6933 C   0  0  1  0  0  0  0  0  0  0  0  0
   14.0382    3.2517   27.7731 O   0  0  0  0  0  0  0  0  0  0  0  0
   15.9708    4.5759   28.1089 C   0  0  2  0  0  0  0  0  0  0  0  0
    9.6598    9.4989   26.9093 O   0  0  0  0  0  0  0  0  0  0  0  0
   20.4632    5.4161   30.6165 N   0  0  0  0  0  0  0  0  0  0  0  0
   20.1361    4.8380   29.3439 C   0  0  0  0  0  0  0  0  0  0  0  0
   18.8530    4.6736   28.7655 N   0  0  0  0  0  0  0  0  0  0  0  0
   17.9403    5.1308   29.5281 C   0  0  0  0  0  0  0  0  0  0  0  0
   18.1737    5.7488   30.8525 C   0  0  0  0  0  0  0  0  0  0  0  0
   19.4031    5.8718   31.3695 C   0  0  0  0  0  0  0  0  0  0  0  0
   19.4679    6.4218   32.5646 N   0  0  0  0  0  0  0  0  0  0  0  0
   17.0739    6.1330   31.4551 N   0  0  0  0  0  0  0  0  0  0  0  0
   16.1466    5.7592   30.5000 C   0  0  0  0  0  0  0  0  0  0  0  0
   16.6724    5.1407   29.2935 N   0  0  0  0  0  0  0  0  0  0  0  0
  2  1  1  6  0  0  0
  2  3  1  0  0  0  0
  2  5  1  0  0  0  0
  3  4  1  0  0  0  0
  3 17  1  0  0  0  0
  5  6  1  0  0  0  0
  7  6  1  6  0  0  0
  7  8  1  0  0  0  0
  7  9  1  0  0  0  0
 10  9  1  1  0  0  0
 10 11  1  0  0  0  0
 10 12  1  0  0  0  0
 11 16  1  0  0  0  0
 12 13  1  6  0  0  0
 12 14  1  0  0  0  0
 14 15  1  6  0  0  0
 14 16  1  0  0  0  0
 16 27  1  1  0  0  0
 18 19  2  0  0  0  0
 18 23  1  0  0  0  0
 19 20  1  0  0  0  0
 20 21  2  0  0  0  0
 21 22  1  0  0  0  0
 21 27  1  0  0  0  0
 22 23  2  0  0  0  0
 22 25  1  0  0  0  0
 23 24  1  0  0  0  0
 25 26  2  0  0  0  0
 26 27  1  0  0  0  0
M  END
>  <CHROM.1>
-18.38152701,-177.73912233,50.96033044,172.32953591,-162.11738961,-177.09212306
-108.65476547,14.62006898,6.88389677,28.47260485,-2.68167064,0.50364277,-3.08898536

>  <Name>
ligand

>  <RI>
0

>  <Rbt.Current_Directory>
/home/itssahil/PROJECTS/Mol_Feturizer/Test_systems_manuscript/rnas/4aob

>  <Rbt.Executable>
rbdock ($Id: //depot/dev/client3/rdock/2013.1/src/exe/rbdock.cxx#4 $)

>  <Rbt.Library>
libRbt.so (2013.1, Build901 2013/11/27)

>  <Rbt.Parameter_File>
/export/apps/rDock/src/rDock_2013.1_src/data/scripts/dock_solv.prm

>  <Rbt.Receptor>
prm/pocket_docking_7.prm

>  <SCORE>
-7.26111

>  <SCORE.INTER>
-6.62435

>  <SCORE.INTER.CONST>
1

>  <SCORE.INTER.POLAR>
0

>  <SCORE.INTER.ROT>
7

>  <SCORE.INTER.SOLV>
12.2887

>  <SCORE.INTER.VDW>
-16.7791

>  <SCORE.INTER.norm>
-0.245346

>  <SCORE.INTRA>
-0.63676

>  <SCORE.INTRA.DIHEDRAL>
-1.05492

>  <SCORE.INTRA.DIHEDRAL.0>
6.31833

>  <SCORE.INTRA.POLAR>
0

>  <SCORE.INTRA.POLAR.0>
0

>  <SCORE.INTRA.REPUL>
0

>  <SCORE.INTRA.REPUL.0>
0

>  <SCORE.INTRA.SOLV>
-0.454274

>  <SCORE.INTRA.SOLV.lig_0>
-48.4015

>  <SCORE.INTRA.VDW>
0.117838

>  <SCORE.INTRA.VDW.0>
-2.83256

>  <SCORE.INTRA.norm>
-0.0235837

>  <SCORE.RESTR>
0

>  <SCORE.RESTR.CAVITY>
0

>  <SCORE.RESTR.norm>
0

>  <SCORE.SYSTEM>
0

>  <SCORE.SYSTEM.CONST>
0

>  <SCORE.SYSTEM.DIHEDRAL>
0

>  <SCORE.SYSTEM.SOLV>
0

>  <SCORE.SYSTEM.norm>
0

>  <SCORE.heavy>
27

>  <SCORE.norm>
-0.26893

>  <RMSD>
5.878

$$$$
ligand
 OpenBabel02271912153D
libRbt.so/2013.1/901 2013/11/27
 27 29  0  0  0  0  0  0  0  0999 V2000
   11.7880    5.7952   28.1776 N   0  0  0  0  0  0  0  0  0  0  0  0
   11.9342    6.1606   29.6071 C   0  0  2  0  0  0  0  0  0  0  0  0
   11.9163    7.6807   29.7036 C   0  0  0  0  0  0  0  0  0  0  0  0
   12.7314    8.4065   30.3641 O   0  0  0  0  0  0  0  0  0  0  0  0
   13.2222    5.5343   30.1458 C   0  0  0  0  0  0  0  0  0  0  0  0
   13.0456    4.0754   30.5451 C   0  0  0  0  0  0  0  0  0  0  0  0
   14.4383    2.9907   31.0355 S   0  0  2  0  0  0  0  0  0  0  0  0
   13.4980    1.5482   31.5313 C   0  0  0  0  0  0  0  0  0  0  0  0
   14.8514    3.7987   32.6143 C   0  0  0  0  0  0  0  0  0  0  0  0
   15.7106    5.0152   32.4044 C   0  0  1  0  0  0  0  0  0  0  0  0
   14.9306    6.2247   32.2438 O   0  0  0  0  0  0  0  0  0  0  0  0
   16.7017    5.2749   33.5159 C   0  0  1  0  0  0  0  0  0  0  0  0
   17.9087    4.7764   33.1322 O   0  0  0  0  0  0  0  0  0  0  0  0
   16.7963    6.7810   33.4449 C   0  0  1  0  0  0  0  0  0  0  0  0
   17.6883    7.0450   32.4549 O   0  0  0  0  0  0  0  0  0  0  0  0
   15.4031    7.2939   33.0181 C   0  0  2  0  0  0  0  0  0  0  0  0
   10.9856    8.2470   29.1277 O   0  0  0  0  0  0  0  0  0  0  0  0
   15.0381    8.5549   38.0630 N   0  0  0  0  0  0  0  0  0  0  0  0
   16.0061    8.8393   37.0420 C   0  0  0  0  0  0  0  0  0  0  0  0
   15.9831    8.4376   35.6833 N   0  0  0  0  0  0  0  0  0  0  0  0
   14.9386    7.7567   35.4203 C   0  0  0  0  0  0  0  0  0  0  0  0
   13.8817    7.4149   36.3984 C   0  0  0  0  0  0  0  0  0  0  0  0
   13.9495    7.8028   37.6786 C   0  0  0  0  0  0  0  0  0  0  0  0
   12.9527    7.4141   38.4469 N   0  0  0  0  0  0  0  0  0  0  0  0
   12.9098    6.6939   35.8924 N   0  0  0  0  0  0  0  0  0  0  0  0
   13.3573    6.5888   34.5884 C   0  0  0  0  0  0  0  0  0  0  0  0
   14.6146    7.2509   34.2794 N   0  0  0  0  0  0  0  0  0  0  0  0
  2  1  1  6  0  0  0
  2  3  1  0  0  0  0
  2  5  1  0  0  0  0
  3  4  1  0  0  0  0
  3 17  1  0  0  0  0
  5  6  1  0  0  0  0
  7  6  1  6  0  0  0
  7  8  1  0  0  0  0
  7  9  1  0  0  0  0
 10  9  1  1  0  0  0
 10 11  1  0  0  0  0
 10 12  1  0  0  0  0
 11 16  1  0  0  0  0
 12 13  1  6  0  0  0
 12 14  1  0  0  0  0
 14 15  1  6  0  0  0
 14 16  1  0  0  0  0
 16 27  1  1  0  0  0
 18 19  2  0  0  0  0
 18 23  1  0  0  0  0
 19 20  1  0  0  0  0
 20 21  2  0  0  0  0
 21 22  1  0  0  0  0
 21 27  1  0  0  0  0
 22 23  2  0  0  0  0
 22 25  1  0  0  0  0
 23 24  1  0  0  0  0
 25 26  2  0  0  0  0
 26 27  1  0  0  0  0
M  END
>  <CHROM.1>
-132.81012944,-82.16101902,172.46107859,173.87136731,-81.62442453,90.75650429
157.90016255,14.35320787,6.22911002,33.00726587,1.94158517,0.73979368,-2.19626572

>  <Name>
ligand

>  <RI>
0

>  <Rbt.Current_Directory>
/home/itssahil/PROJECTS/Mol_Feturizer/Test_systems_manuscript/rnas/4aob

>  <Rbt.Executable>
rbdock ($Id: //depot/dev/client3/rdock/2013.1/src/exe/rbdock.cxx#4 $)

>  <Rbt.Library>
libRbt.so (2013.1, Build901 2013/11/27)

>  <Rbt.Parameter_File>
/export/apps/rDock/src/rDock_2013.1_src/data/scripts/dock_solv.prm

>  <Rbt.Receptor>
prm/pocket_docking_5.prm

>  <SCORE>
-13.5538

>  <SCORE.INTER>
-14.8557

>  <SCORE.INTER.CONST>
1

>  <SCORE.INTER.POLAR>
0

>  <SCORE.INTER.ROT>
7

>  <SCORE.INTER.SOLV>
19.9494

>  <SCORE.INTER.VDW>
-24.8202

>  <SCORE.INTER.norm>
-0.550211

>  <SCORE.INTRA>
1.24471

>  <SCORE.INTRA.DIHEDRAL>
1.94052

>  <SCORE.INTRA.DIHEDRAL.0>
6.31833

>  <SCORE.INTRA.POLAR>
0

>  <SCORE.INTRA.POLAR.0>
0

>  <SCORE.INTRA.REPUL>
0

>  <SCORE.INTRA.REPUL.0>
0

>  <SCORE.INTRA.SOLV>
-0.0530805

>  <SCORE.INTRA.SOLV.lig_0>
-48.4015

>  <SCORE.INTRA.VDW>
0.300988

>  <SCORE.INTRA.VDW.0>
-2.83256

>  <SCORE.INTRA.norm>
0.0461003

>  <SCORE.RESTR>
0.0572066

>  <SCORE.RESTR.CAVITY>
0.0572066

>  <SCORE.RESTR.norm>
0.00211876

>  <SCORE.SYSTEM>
0

>  <SCORE.SYSTEM.CONST>
0

>  <SCORE.SYSTEM.DIHEDRAL>
0

>  <SCORE.SYSTEM.SOLV>
0

>  <SCORE.SYSTEM.norm>
0

>  <SCORE.heavy>
27

>  <SCORE.norm>
-0.501992

>  <RMSD>
5.891

$$$$
ligand
 OpenBabel02271912153D
libRbt.so/2013.1/901 2013/11/27
 27 29  0  0  0  0  0  0  0  0999 V2000
   14.9382    3.5940   27.8074 N   0  0  0  0  0  0  0  0  0  0  0  0
   14.3105    4.7115   28.5527 C   0  0  2  0  0  0  0  0  0  0  0  0
   15.4049    5.7120   28.9013 C   0  0  0  0  0  0  0  0  0  0  0  0
   16.6431    5.4522   29.0656 O   0  0  0  0  0  0  0  0  0  0  0  0
   13.5951    4.1436   29.7805 C   0  0  0  0  0  0  0  0  0  0  0  0
   14.5407    3.4229   30.7322 C   0  0  0  0  0  0  0  0  0  0  0  0
   14.1163    3.0380   32.4724 S   0  0  2  0  0  0  0  0  0  0  0  0
   12.5935    2.1376   32.1882 C   0  0  0  0  0  0  0  0  0  0  0  0
   13.5498    4.6948   32.9726 C   0  0  0  0  0  0  0  0  0  0  0  0
   14.6476    5.7153   32.8484 C   0  0  1  0  0  0  0  0  0  0  0  0
   14.1714    7.0692   33.0408 O   0  0  0  0  0  0  0  0  0  0  0  0
   15.7964    5.5119   33.8096 C   0  0  1  0  0  0  0  0  0  0  0  0
   16.7921    4.8611   33.1482 O   0  0  0  0  0  0  0  0  0  0  0  0
   16.2448    6.9421   33.9986 C   0  0  1  0  0  0  0  0  0  0  0  0
   17.0508    7.2156   32.9398 O   0  0  0  0  0  0  0  0  0  0  0  0
   14.9776    7.8207   33.9077 C   0  0  2  0  0  0  0  0  0  0  0  0
   15.0345    6.8712   29.0945 O   0  0  0  0  0  0  0  0  0  0  0  0
   15.3515    8.5220   39.0596 N   0  0  0  0  0  0  0  0  0  0  0  0
   16.1969    8.8681   37.9523 C   0  0  0  0  0  0  0  0  0  0  0  0
   15.9719    8.6240   36.5748 N   0  0  0  0  0  0  0  0  0  0  0  0
   14.8587    8.0335   36.3858 C   0  0  0  0  0  0  0  0  0  0  0  0
   13.9160    7.6399   37.4568 C   0  0  0  0  0  0  0  0  0  0  0  0
   14.1742    7.8767   38.7495 C   0  0  0  0  0  0  0  0  0  0  0  0
   13.2608    7.4572   39.6007 N   0  0  0  0  0  0  0  0  0  0  0  0
   12.8406    7.0331   37.0144 N   0  0  0  0  0  0  0  0  0  0  0  0
   13.1082    7.0523   35.6579 C   0  0  0  0  0  0  0  0  0  0  0  0
   14.3570    7.6775   35.2526 N   0  0  0  0  0  0  0  0  0  0  0  0
  2  1  1  1  0  0  0
  2  3  1  0  0  0  0
  2  5  1  0  0  0  0
  3  4  1  0  0  0  0
  3 17  1  0  0  0  0
  5  6  1  0  0  0  0
  7  6  1  6  0  0  0
  7  8  1  0  0  0  0
  7  9  1  0  0  0  0
 10  9  1  1  0  0  0
 10 11  1  0  0  0  0
 10 12  1  0  0  0  0
 11 16  1  0  0  0  0
 12 13  1  6  0  0  0
 12 14  1  0  0  0  0
 14 15  1  6  0  0  0
 14 16  1  0  0  0  0
 16 27  1  1  0  0  0
 18 19  2  0  0  0  0
 18 23  1  0  0  0  0
 19 20  1  0  0  0  0
 20 21  2  0  0  0  0
 21 22  1  0  0  0  0
 21 27  1  0  0  0  0
 22 23  2  0  0  0  0
 22 25  1  0  0  0  0
 23 24  1  0  0  0  0
 25 26  2  0  0  0  0
 26 27  1  0  0  0  0
M  END
>  <CHROM.1>
-27.32255710,60.51417417,162.73493686,55.12092132,-61.29450472,171.08332760
169.11986784,14.75080725,6.01578110,33.49571234,-1.53712496,0.87271482,1.11980850

>  <Name>
ligand

>  <RI>
0

>  <Rbt.Current_Directory>
/home/itssahil/PROJECTS/Mol_Feturizer/Test_systems_manuscript/rnas/4aob

>  <Rbt.Executable>
rbdock ($Id: //depot/dev/client3/rdock/2013.1/src/exe/rbdock.cxx#4 $)

>  <Rbt.Library>
libRbt.so (2013.1, Build901 2013/11/27)

>  <Rbt.Parameter_File>
/export/apps/rDock/src/rDock_2013.1_src/data/scripts/dock_solv.prm

>  <Rbt.Receptor>
prm/pocket_docking_7.prm

>  <SCORE>
-16.7566

>  <SCORE.INTER>
-16.0104

>  <SCORE.INTER.CONST>
1

>  <SCORE.INTER.POLAR>
0

>  <SCORE.INTER.ROT>
7

>  <SCORE.INTER.SOLV>
15.12

>  <SCORE.INTER.VDW>
-23.9803

>  <SCORE.INTER.norm>
-0.592977

>  <SCORE.INTRA>
-0.746193

>  <SCORE.INTRA.DIHEDRAL>
-1.72207

>  <SCORE.INTRA.DIHEDRAL.0>
6.31833

>  <SCORE.INTRA.POLAR>
0

>  <SCORE.INTRA.POLAR.0>
0

>  <SCORE.INTRA.REPUL>
0

>  <SCORE.INTRA.REPUL.0>
0

>  <SCORE.INTRA.SOLV>
0.178036

>  <SCORE.INTRA.SOLV.lig_0>
-48.4015

>  <SCORE.INTRA.VDW>
0.0258251

>  <SCORE.INTRA.VDW.0>
-2.83256

>  <SCORE.INTRA.norm>
-0.0276368

>  <SCORE.RESTR>
0

>  <SCORE.RESTR.CAVITY>
0

>  <SCORE.RESTR.norm>
0

>  <SCORE.SYSTEM>
0

>  <SCORE.SYSTEM.CONST>
0

>  <SCORE.SYSTEM.DIHEDRAL>
0

>  <SCORE.SYSTEM.SOLV>
0

>  <SCORE.SYSTEM.norm>
0

>  <SCORE.heavy>
27

>  <SCORE.norm>
-0.620613

>  <RMSD>
5.899

$$$$
ligand
 OpenBabel02271912153D
libRbt.so/2013.1/901 2013/11/27
 27 29  0  0  0  0  0  0  0  0999 V2000
   11.8825    6.8430   28.4679 N   0  0  0  0  0  0  0  0  0  0  0  0
   11.3246    8.1089   29.0013 C   0  0  2  0  0  0  0  0  0  0  0  0
   11.0001    9.0106   27.8173 C   0  0  0  0  0  0  0  0  0  0  0  0
   11.7576    9.9088   27.3203 O   0  0  0  0  0  0  0  0  0  0  0  0
   12.3368    8.7227   29.9710 C   0  0  0  0  0  0  0  0  0  0  0  0
   12.4118    7.9751   31.2956 C   0  0  0  0  0  0  0  0  0  0  0  0
   13.0867    6.2796   31.4573 S   0  0  2  0  0  0  0  0  0  0  0  0
   12.7954    6.0367   33.2085 C   0  0  0  0  0  0  0  0  0  0  0  0
   14.8571    6.6969   31.3693 C   0  0  0  0  0  0  0  0  0  0  0  0
   15.7201    5.4694   31.4706 C   0  0  1  0  0  0  0  0  0  0  0  0
   17.1061    5.7370   31.1477 O   0  0  0  0  0  0  0  0  0  0  0  0
   15.7044    4.8095   32.8305 C   0  0  1  0  0  0  0  0  0  0  0  0
   14.8251    3.7715   32.7877 O   0  0  0  0  0  0  0  0  0  0  0  0
   17.0943    4.2181   32.8582 C   0  0  1  0  0  0  0  0  0  0  0  0
   17.0059    3.0447   32.1793 O   0  0  0  0  0  0  0  0  0  0  0  0
   18.0052    5.1874   32.0729 C   0  0  2  0  0  0  0  0  0  0  0  0
    9.8715    8.8868   27.3383 O   0  0  0  0  0  0  0  0  0  0  0  0
   21.5275    8.0857   34.5963 N   0  0  0  0  0  0  0  0  0  0  0  0
   21.6251    7.0749   33.5818 C   0  0  0  0  0  0  0  0  0  0  0  0
   20.5717    6.3574   32.9625 N   0  0  0  0  0  0  0  0  0  0  0  0
   19.4367    6.7242   33.4107 C   0  0  0  0  0  0  0  0  0  0  0  0
   19.2299    7.7583   34.4492 C   0  0  0  0  0  0  0  0  0  0  0  0
   20.2555    8.4032   35.0202 C   0  0  0  0  0  0  0  0  0  0  0  0
   19.9328    9.2848   35.9441 N   0  0  0  0  0  0  0  0  0  0  0  0
   17.9691    7.9530   34.7541 N   0  0  0  0  0  0  0  0  0  0  0  0
   17.3824    7.0401   33.8971 C   0  0  0  0  0  0  0  0  0  0  0  0
   18.2833    6.2738   33.0511 N   0  0  0  0  0  0  0  0  0  0  0  0
  2  1  1  6  0  0  0
  2  3  1  0  0  0  0
  2  5  1  0  0  0  0
  3  4  1  0  0  0  0
  3 17  1  0  0  0  0
  5  6  1  0  0  0  0
  7  6  1  1  0  0  0
  7  8  1  0  0  0  0
  7  9  1  0  0  0  0
 10  9  1  1  0  0  0
 10 11  1  0  0  0  0
 10 12  1  0  0  0  0
 11 16  1  0  0  0  0
 12 13  1  6  0  0  0
 12 14  1  0  0  0  0
 14 15  1  6  0  0  0
 14 16  1  0  0  0  0
 16 27  1  1  0  0  0
 18 19  2  0  0  0  0
 18 23  1  0  0  0  0
 19 20  1  0  0  0  0
 20 21  2  0  0  0  0
 21 22  1  0  0  0  0
 21 27  1  0  0  0  0
 22 23  2  0  0  0  0
 22 25  1  0  0  0  0
 23 24  1  0  0  0  0
 25 26  2  0  0  0  0
 26 27  1  0  0  0  0
M  END
>  <CHROM.1>
-94.19801274,-73.42640456,68.37109263,-177.61200028,-179.74032145,168.85450409
-126.74390804,15.78343081,6.82360232,31.91304973,2.93435792,-0.53414797,-0.18462145

>  <Name>
ligand

>  <RI>
0

>  <Rbt.Current_Directory>
/home/itssahil/PROJECTS/Mol_Feturizer/Test_systems_manuscript/rnas/4aob

>  <Rbt.Executable>
rbdock ($Id: //depot/dev/client3/rdock/2013.1/src/exe/rbdock.cxx#4 $)

>  <Rbt.Library>
libRbt.so (2013.1, Build901 2013/11/27)

>  <Rbt.Parameter_File>
/export/apps/rDock/src/rDock_2013.1_src/data/scripts/dock_solv.prm

>  <Rbt.Receptor>
prm/pocket_docking_8.prm

>  <SCORE>
-9.90167

>  <SCORE.INTER>
-10.3711

>  <SCORE.INTER.CONST>
1

>  <SCORE.INTER.POLAR>
0

>  <SCORE.INTER.ROT>
7

>  <SCORE.INTER.SOLV>
7.49725

>  <SCORE.INTER.VDW>
-17.6798

>  <SCORE.INTER.norm>
-0.384115

>  <SCORE.INTRA>
0.469429

>  <SCORE.INTRA.DIHEDRAL>
-1.15948

>  <SCORE.INTRA.DIHEDRAL.0>
6.31833

>  <SCORE.INTRA.POLAR>
0

>  <SCORE.INTRA.POLAR.0>
0

>  <SCORE.INTRA.REPUL>
0

>  <SCORE.INTRA.REPUL.0>
0

>  <SCORE.INTRA.SOLV>
1.46639

>  <SCORE.INTRA.SOLV.lig_0>
-48.4015

>  <SCORE.INTRA.VDW>
0.31597

>  <SCORE.INTRA.VDW.0>
-2.83256

>  <SCORE.INTRA.norm>
0.0173862

>  <SCORE.RESTR>
0

>  <SCORE.RESTR.CAVITY>
0

>  <SCORE.RESTR.norm>
0

>  <SCORE.SYSTEM>
0

>  <SCORE.SYSTEM.CONST>
0

>  <SCORE.SYSTEM.DIHEDRAL>
0

>  <SCORE.SYSTEM.SOLV>
0

>  <SCORE.SYSTEM.norm>
0

>  <SCORE.heavy>
27

>  <SCORE.norm>
-0.366729

>  <RMSD>
6.015

$$$$
ligand
 OpenBabel02271912153D
libRbt.so/2013.1/901 2013/11/27
 27 29  0  0  0  0  0  0  0  0999 V2000
   15.3699    7.0379   31.2037 N   0  0  0  0  0  0  0  0  0  0  0  0
   14.4876    8.1205   31.7015 C   0  0  2  0  0  0  0  0  0  0  0  0
   14.2605    7.8892   33.1899 C   0  0  0  0  0  0  0  0  0  0  0  0
   14.4636    6.8024   33.8263 O   0  0  0  0  0  0  0  0  0  0  0  0
   13.1944    8.1165   30.8834 C   0  0  0  0  0  0  0  0  0  0  0  0
   13.3273    8.8721   29.5679 C   0  0  0  0  0  0  0  0  0  0  0  0
   14.4879    8.3810   28.2382 S   0  0  2  0  0  0  0  0  0  0  0  0
   15.9745    9.1512   28.8766 C   0  0  0  0  0  0  0  0  0  0  0  0
   13.9182    9.5421   26.9562 C   0  0  0  0  0  0  0  0  0  0  0  0
   12.6415    9.0734   26.3139 C   0  0  1  0  0  0  0  0  0  0  0  0
   12.7717    7.7631   25.7114 O   0  0  0  0  0  0  0  0  0  0  0  0
   11.4598    9.0101   27.2544 C   0  0  1  0  0  0  0  0  0  0  0  0
   10.7259   10.1444   27.0897 O   0  0  0  0  0  0  0  0  0  0  0  0
   10.6796    7.8774   26.6295 C   0  0  1  0  0  0  0  0  0  0  0  0
    9.9685    8.4382   25.6169 O   0  0  0  0  0  0  0  0  0  0  0  0
   11.7165    6.8985   26.0355 C   0  0  2  0  0  0  0  0  0  0  0  0
   13.7817    8.8363   33.8161 O   0  0  0  0  0  0  0  0  0  0  0  0
   14.9809    3.3395   27.9982 N   0  0  0  0  0  0  0  0  0  0  0  0
   14.8399    3.9418   26.7028 C   0  0  0  0  0  0  0  0  0  0  0  0
   13.9003    4.9208   26.2947 N   0  0  0  0  0  0  0  0  0  0  0  0
   13.1361    5.2575   27.2572 C   0  0  0  0  0  0  0  0  0  0  0  0
   13.2037    4.7012   28.6271 C   0  0  0  0  0  0  0  0  0  0  0  0
   14.0991    3.7652   28.9677 C   0  0  0  0  0  0  0  0  0  0  0  0
   14.0377    3.3423   30.2136 N   0  0  0  0  0  0  0  0  0  0  0  0
   12.3029    5.1970   29.4414 N   0  0  0  0  0  0  0  0  0  0  0  0
   11.6713    6.0735   28.5783 C   0  0  0  0  0  0  0  0  0  0  0  0
   12.1839    6.1260   27.2184 N   0  0  0  0  0  0  0  0  0  0  0  0
  2  1  1  6  0  0  0
  2  3  1  0  0  0  0
  2  5  1  0  0  0  0
  3  4  1  0  0  0  0
  3 17  1  0  0  0  0
  5  6  1  0  0  0  0
  7  6  1  1  0  0  0
  7  8  1  0  0  0  0
  7  9  1  0  0  0  0
 10  9  1  1  0  0  0
 10 11  1  0  0  0  0
 10 12  1  0  0  0  0
 11 16  1  0  0  0  0
 12 13  1  6  0  0  0
 12 14  1  0  0  0  0
 14 15  1  6  0  0  0
 14 16  1  0  0  0  0
 16 27  1  1  0  0  0
 18 19  2  0  0  0  0
 18 23  1  0  0  0  0
 19 20  1  0  0  0  0
 20 21  2  0  0  0  0
 21 22  1  0  0  0  0
 21 27  1  0  0  0  0
 22 23  2  0  0  0  0
 22 25  1  0  0  0  0
 23 24  1  0  0  0  0
 25 26  2  0  0  0  0
 26 27  1  0  0  0  0
M  END
>  <CHROM.1>
-17.59063065,-83.16149777,62.22914081,-82.66498637,-77.68420051,-58.16492062
-67.34382316,13.28994506,7.12969783,28.67584024,-0.47656847,1.11261781,-2.52454932

>  <Name>
ligand

>  <RI>
0

>  <Rbt.Current_Directory>
/home/itssahil/PROJECTS/Mol_Feturizer/Test_systems_manuscript/rnas/4aob

>  <Rbt.Executable>
rbdock ($Id: //depot/dev/client3/rdock/2013.1/src/exe/rbdock.cxx#4 $)

>  <Rbt.Library>
libRbt.so (2013.1, Build901 2013/11/27)

>  <Rbt.Parameter_File>
/export/apps/rDock/src/rDock_2013.1_src/data/scripts/dock_solv.prm

>  <Rbt.Receptor>
prm/pocket_docking_5.prm

>  <SCORE>
-9.36373

>  <SCORE.INTER>
-8.70846

>  <SCORE.INTER.CONST>
1

>  <SCORE.INTER.POLAR>
0

>  <SCORE.INTER.ROT>
7

>  <SCORE.INTER.SOLV>
7.67795

>  <SCORE.INTER.VDW>
-16.6316

>  <SCORE.INTER.norm>
-0.322535

>  <SCORE.INTRA>
-0.655277

>  <SCORE.INTRA.DIHEDRAL>
-0.454463

>  <SCORE.INTRA.DIHEDRAL.0>
6.31833

>  <SCORE.INTRA.POLAR>
0

>  <SCORE.INTRA.POLAR.0>
0

>  <SCORE.INTRA.REPUL>
0

>  <SCORE.INTRA.REPUL.0>
0

>  <SCORE.INTRA.SOLV>
2.77451

>  <SCORE.INTRA.SOLV.lig_0>
-48.4015

>  <SCORE.INTRA.VDW>
-1.8153

>  <SCORE.INTRA.VDW.0>
-2.83256

>  <SCORE.INTRA.norm>
-0.0242695

>  <SCORE.RESTR>
0

>  <SCORE.RESTR.CAVITY>
0

>  <SCORE.RESTR.norm>
0

>  <SCORE.SYSTEM>
0

>  <SCORE.SYSTEM.CONST>
0

>  <SCORE.SYSTEM.DIHEDRAL>
0

>  <SCORE.SYSTEM.SOLV>
0

>  <SCORE.SYSTEM.norm>
0

>  <SCORE.heavy>
27

>  <SCORE.norm>
-0.346805

>  <RMSD>
6.016

$$$$
ligand
 OpenBabel02271912153D
libRbt.so/2013.1/901 2013/11/27
 27 29  0  0  0  0  0  0  0  0999 V2000
   14.5067    7.3311   33.6644 N   0  0  0  0  0  0  0  0  0  0  0  0
   13.3575    6.8271   34.4540 C   0  0  2  0  0  0  0  0  0  0  0  0
   13.5774    7.2302   35.9064 C   0  0  0  0  0  0  0  0  0  0  0  0
   14.5970    7.8349   36.3776 O   0  0  0  0  0  0  0  0  0  0  0  0
   13.2497    5.3137   34.2548 C   0  0  0  0  0  0  0  0  0  0  0  0
   12.8571    4.9331   32.8335 C   0  0  0  0  0  0  0  0  0  0  0  0
   13.8751    5.3393   31.3655 S   0  0  2  0  0  0  0  0  0  0  0  0
   13.1489    6.9268   30.9617 C   0  0  0  0  0  0  0  0  0  0  0  0
   13.0929    4.1952   30.1842 C   0  0  0  0  0  0  0  0  0  0  0  0
   13.7109    2.8256   30.2492 C   0  0  1  0  0  0  0  0  0  0  0  0
   15.0152    2.7748   29.6222 O   0  0  0  0  0  0  0  0  0  0  0  0
   13.8749    2.2841   31.6510 C   0  0  1  0  0  0  0  0  0  0  0  0
   12.8296    1.4514   31.9085 O   0  0  0  0  0  0  0  0  0  0  0  0
   15.0999    1.4200   31.4635 C   0  0  1  0  0  0  0  0  0  0  0  0
   14.6442    0.2446   30.9574 O   0  0  0  0  0  0  0  0  0  0  0  0
   15.9783    2.1189   30.4023 C   0  0  2  0  0  0  0  0  0  0  0  0
   12.7020    6.8829   36.7011 O   0  0  0  0  0  0  0  0  0  0  0  0
   19.3197    6.1201   30.4108 N   0  0  0  0  0  0  0  0  0  0  0  0
   18.7992    5.2709   29.3771 C   0  0  0  0  0  0  0  0  0  0  0  0
   17.8735    4.2061   29.5081 N   0  0  0  0  0  0  0  0  0  0  0  0
   17.5028    4.0623   30.7187 C   0  0  0  0  0  0  0  0  0  0  0  0
   17.9751    4.8873   31.8531 C   0  0  0  0  0  0  0  0  0  0  0  0
   18.8632    5.8762   31.6877 C   0  0  0  0  0  0  0  0  0  0  0  0
   19.2134    6.5186   32.7830 N   0  0  0  0  0  0  0  0  0  0  0  0
   17.4583    4.5400   33.0074 N   0  0  0  0  0  0  0  0  0  0  0  0
   16.6528    3.4953   32.5929 C   0  0  0  0  0  0  0  0  0  0  0  0
   16.6658    3.1918   31.1708 N   0  0  0  0  0  0  0  0  0  0  0  0
  2  1  1  6  0  0  0
  2  3  1  0  0  0  0
  2  5  1  0  0  0  0
  3  4  1  0  0  0  0
  3 17  1  0  0  0  0
  5  6  1  0  0  0  0
  7  6  1  1  0  0  0
  7  8  1  0  0  0  0
  7  9  1  0  0  0  0
 10  9  1  1  0  0  0
 10 11  1  0  0  0  0
 10 12  1  0  0  0  0
 11 16  1  0  0  0  0
 12 13  1  6  0  0  0
 12 14  1  0  0  0  0
 14 15  1  6  0  0  0
 14 16  1  0  0  0  0
 16 27  1  1  0  0  0
 18 19  2  0  0  0  0
 18 23  1  0  0  0  0
 19 20  1  0  0  0  0
 20 21  2  0  0  0  0
 21 22  1  0  0  0  0
 21 27  1  0  0  0  0
 22 23  2  0  0  0  0
 22 25  1  0  0  0  0
 23 24  1  0  0  0  0
 25 26  2  0  0  0  0
 26 27  1  0  0  0  0
M  END
>  <CHROM.1>
-3.18708584,-67.32506837,61.59779990,-90.69495592,-86.24175305,-74.82414280
-72.78481687,15.26589756,4.61995230,32.07437371,-2.06883930,-0.35879669,-2.44070448

>  <Name>
ligand

>  <RI>
0

>  <Rbt.Current_Directory>
/home/itssahil/PROJECTS/Mol_Feturizer/Test_systems_manuscript/rnas/4aob

>  <Rbt.Executable>
rbdock ($Id: //depot/dev/client3/rdock/2013.1/src/exe/rbdock.cxx#4 $)

>  <Rbt.Library>
libRbt.so (2013.1, Build901 2013/11/27)

>  <Rbt.Parameter_File>
/export/apps/rDock/src/rDock_2013.1_src/data/scripts/dock_solv.prm

>  <Rbt.Receptor>
prm/pocket_docking_6.prm

>  <SCORE>
-16.2821

>  <SCORE.INTER>
-17.0779

>  <SCORE.INTER.CONST>
1

>  <SCORE.INTER.POLAR>
0

>  <SCORE.INTER.ROT>
7

>  <SCORE.INTER.SOLV>
12.1924

>  <SCORE.INTER.VDW>
-23.7161

>  <SCORE.INTER.norm>
-0.632516

>  <SCORE.INTRA>
0.795841

>  <SCORE.INTRA.DIHEDRAL>
0.0590591

>  <SCORE.INTRA.DIHEDRAL.0>
6.31833

>  <SCORE.INTRA.POLAR>
0

>  <SCORE.INTRA.POLAR.0>
0

>  <SCORE.INTRA.REPUL>
0

>  <SCORE.INTRA.REPUL.0>
0

>  <SCORE.INTRA.SOLV>
2.63118

>  <SCORE.INTRA.SOLV.lig_0>
-48.4015

>  <SCORE.INTRA.VDW>
-0.549278

>  <SCORE.INTRA.VDW.0>
-2.83256

>  <SCORE.INTRA.norm>
0.0294756

>  <SCORE.RESTR>
0

>  <SCORE.RESTR.CAVITY>
0

>  <SCORE.RESTR.norm>
0

>  <SCORE.SYSTEM>
0

>  <SCORE.SYSTEM.CONST>
0

>  <SCORE.SYSTEM.DIHEDRAL>
0

>  <SCORE.SYSTEM.SOLV>
0

>  <SCORE.SYSTEM.norm>
0

>  <SCORE.heavy>
27

>  <SCORE.norm>
-0.60304

>  <RMSD>
6.046

$$$$
ligand
 OpenBabel02271912153D
libRbt.so/2013.1/901 2013/11/27
 27 29  0  0  0  0  0  0  0  0999 V2000
   14.8373    8.1265   34.6770 N   0  0  0  0  0  0  0  0  0  0  0  0
   14.2399    7.2724   33.6225 C   0  0  2  0  0  0  0  0  0  0  0  0
   13.2201    6.3565   34.2869 C   0  0  0  0  0  0  0  0  0  0  0  0
   13.2547    5.0816   34.3171 O   0  0  0  0  0  0  0  0  0  0  0  0
   15.3615    6.5141   32.9094 C   0  0  0  0  0  0  0  0  0  0  0  0
   16.1787    5.6446   33.8556 C   0  0  0  0  0  0  0  0  0  0  0  0
   17.6483    4.6873   33.3261 S   0  0  2  0  0  0  0  0  0  0  0  0
   18.6653    6.0459   32.7512 C   0  0  0  0  0  0  0  0  0  0  0  0
   16.9607    3.9856   31.7928 C   0  0  0  0  0  0  0  0  0  0  0  0
   15.9821    2.8805   32.0809 C   0  0  1  0  0  0  0  0  0  0  0  0
   14.6727    3.3796   32.4459 O   0  0  0  0  0  0  0  0  0  0  0  0
   15.7814    1.9143   30.9358 C   0  0  1  0  0  0  0  0  0  0  0  0
   16.5601    0.8212   31.1623 O   0  0  0  0  0  0  0  0  0  0  0  0
   14.3488    1.5018   31.1804 C   0  0  1  0  0  0  0  0  0  0  0  0
   14.4053    0.5254   32.1232 O   0  0  0  0  0  0  0  0  0  0  0  0
   13.6270    2.7326   31.7720 C   0  0  2  0  0  0  0  0  0  0  0  0
   12.2437    6.9131   34.7923 O   0  0  0  0  0  0  0  0  0  0  0  0
   11.9702    7.2898   29.8584 N   0  0  0  0  0  0  0  0  0  0  0  0
   12.1950    6.8012   31.1893 C   0  0  0  0  0  0  0  0  0  0  0  0
   12.6635    5.5224   31.5804 N   0  0  0  0  0  0  0  0  0  0  0  0
   12.8992    4.7867   30.5671 C   0  0  0  0  0  0  0  0  0  0  0  0
   12.7058    5.1977   29.1584 C   0  0  0  0  0  0  0  0  0  0  0  0
   12.2463    6.4127   28.8322 C   0  0  0  0  0  0  0  0  0  0  0  0
   12.1020    6.6418   27.5432 N   0  0  0  0  0  0  0  0  0  0  0  0
   13.0061    4.2608   28.2910 N   0  0  0  0  0  0  0  0  0  0  0  0
   13.3958    3.2592   29.1610 C   0  0  0  0  0  0  0  0  0  0  0  0
   13.3405    3.5752   30.5794 N   0  0  0  0  0  0  0  0  0  0  0  0
  2  1  1  1  0  0  0
  2  3  1  0  0  0  0
  2  5  1  0  0  0  0
  3  4  1  0  0  0  0
  3 17  1  0  0  0  0
  5  6  1  0  0  0  0
  7  6  1  1  0  0  0
  7  8  1  0  0  0  0
  7  9  1  0  0  0  0
 10  9  1  6  0  0  0
 10 11  1  0  0  0  0
 10 12  1  0  0  0  0
 11 16  1  0  0  0  0
 12 13  1  1  0  0  0
 12 14  1  0  0  0  0
 14 15  1  1  0  0  0
 14 16  1  0  0  0  0
 16 27  1  6  0  0  0
 18 19  2  0  0  0  0
 18 23  1  0  0  0  0
 19 20  1  0  0  0  0
 20 21  2  0  0  0  0
 21 22  1  0  0  0  0
 21 27  1  0  0  0  0
 22 23  2  0  0  0  0
 22 25  1  0  0  0  0
 23 24  1  0  0  0  0
 25 26  2  0  0  0  0
 26 27  1  0  0  0  0
M  END
>  <CHROM.1>
-118.55937287,58.70628483,-176.45321666,60.15291805,-74.53416794,80.31500766
-64.04772342,14.44823708,4.70722484,31.80379905,0.05700483,-0.71276314,0.64777215

>  <Name>
ligand

>  <RI>
0

>  <Rbt.Current_Directory>
/home/itssahil/PROJECTS/Mol_Feturizer/Test_systems_manuscript/rnas/4aob

>  <Rbt.Executable>
rbdock ($Id: //depot/dev/client3/rdock/2013.1/src/exe/rbdock.cxx#4 $)

>  <Rbt.Library>
libRbt.so (2013.1, Build901 2013/11/27)

>  <Rbt.Parameter_File>
/export/apps/rDock/src/rDock_2013.1_src/data/scripts/dock_solv.prm

>  <Rbt.Receptor>
prm/pocket_docking_7.prm

>  <SCORE>
-19.2645

>  <SCORE.INTER>
-17.782

>  <SCORE.INTER.CONST>
1

>  <SCORE.INTER.POLAR>
0

>  <SCORE.INTER.ROT>
7

>  <SCORE.INTER.SOLV>
12.7112

>  <SCORE.INTER.VDW>
-24.3584

>  <SCORE.INTER.norm>
-0.658594

>  <SCORE.INTRA>
-1.48249

>  <SCORE.INTRA.DIHEDRAL>
-1.5346

>  <SCORE.INTRA.DIHEDRAL.0>
6.31833

>  <SCORE.INTRA.POLAR>
0

>  <SCORE.INTRA.POLAR.0>
0

>  <SCORE.INTRA.REPUL>
0

>  <SCORE.INTRA.REPUL.0>
0

>  <SCORE.INTRA.SOLV>
0.220258

>  <SCORE.INTRA.SOLV.lig_0>
-48.4015

>  <SCORE.INTRA.VDW>
-0.825321

>  <SCORE.INTRA.VDW.0>
-2.83256

>  <SCORE.INTRA.norm>
-0.0549071

>  <SCORE.RESTR>
0

>  <SCORE.RESTR.CAVITY>
0

>  <SCORE.RESTR.norm>
0

>  <SCORE.SYSTEM>
0

>  <SCORE.SYSTEM.CONST>
0

>  <SCORE.SYSTEM.DIHEDRAL>
0

>  <SCORE.SYSTEM.SOLV>
0

>  <SCORE.SYSTEM.norm>
0

>  <SCORE.heavy>
27

>  <SCORE.norm>
-0.713501

>  <RMSD>
6.093

$$$$
ligand
 OpenBabel02271912153D
libRbt.so/2013.1/901 2013/11/27
 27 29  0  0  0  0  0  0  0  0999 V2000
   14.9466    7.8540   35.6823 N   0  0  0  0  0  0  0  0  0  0  0  0
   14.3396    7.1370   34.5353 C   0  0  2  0  0  0  0  0  0  0  0  0
   14.1291    8.1460   33.4137 C   0  0  0  0  0  0  0  0  0  0  0  0
   14.9217    8.3708   32.4396 O   0  0  0  0  0  0  0  0  0  0  0  0
   13.0436    6.4704   35.0018 C   0  0  0  0  0  0  0  0  0  0  0  0
   12.2337    5.8877   33.8513 C   0  0  0  0  0  0  0  0  0  0  0  0
   12.6880    4.3392   32.9840 S   0  0  2  0  0  0  0  0  0  0  0  0
   12.2675    3.1706   34.2756 C   0  0  0  0  0  0  0  0  0  0  0  0
   14.4980    4.4917   33.1141 C   0  0  0  0  0  0  0  0  0  0  0  0
   15.2005    3.3907   32.3685 C   0  0  1  0  0  0  0  0  0  0  0  0
   14.2876    2.5698   31.6007 O   0  0  0  0  0  0  0  0  0  0  0  0
   16.2697    3.8710   31.4139 C   0  0  1  0  0  0  0  0  0  0  0  0
   17.4752    3.7554   32.0350 O   0  0  0  0  0  0  0  0  0  0  0  0
   16.2006    2.7857   30.3651 C   0  0  1  0  0  0  0  0  0  0  0  0
   16.9529    1.7626   30.8476 O   0  0  0  0  0  0  0  0  0  0  0  0
   14.7252    2.3345   30.2895 C   0  0  2  0  0  0  0  0  0  0  0  0
   13.1175    8.8443   33.4991 O   0  0  0  0  0  0  0  0  0  0  0  0
   14.5643    4.9457   25.7805 N   0  0  0  0  0  0  0  0  0  0  0  0
   15.3551    3.8465   26.2571 C   0  0  0  0  0  0  0  0  0  0  0  0
   15.2932    3.2130   27.5230 N   0  0  0  0  0  0  0  0  0  0  0  0
   14.3941    3.7368   28.2586 C   0  0  0  0  0  0  0  0  0  0  0  0
   13.5249    4.8662   27.8593 C   0  0  0  0  0  0  0  0  0  0  0  0
   13.6262    5.4468   26.6566 C   0  0  0  0  0  0  0  0  0  0  0  0
   12.8062    6.4540   26.4375 N   0  0  0  0  0  0  0  0  0  0  0  0
   12.6829    5.2380   28.7937 N   0  0  0  0  0  0  0  0  0  0  0  0
   13.0223    4.3323   29.7818 C   0  0  0  0  0  0  0  0  0  0  0  0
   14.0807    3.3884   29.4598 N   0  0  0  0  0  0  0  0  0  0  0  0
  2  1  1  1  0  0  0
  2  3  1  0  0  0  0
  2  5  1  0  0  0  0
  3  4  1  0  0  0  0
  3 17  1  0  0  0  0
  5  6  1  0  0  0  0
  7  6  1  1  0  0  0
  7  8  1  0  0  0  0
  7  9  1  0  0  0  0
 10  9  1  6  0  0  0
 10 11  1  0  0  0  0
 10 12  1  0  0  0  0
 11 16  1  0  0  0  0
 12 13  1  1  0  0  0
 12 14  1  0  0  0  0
 14 15  1  1  0  0  0
 14 16  1  0  0  0  0
 16 27  1  6  0  0  0
 18 19  2  0  0  0  0
 18 23  1  0  0  0  0
 19 20  1  0  0  0  0
 20 21  2  0  0  0  0
 21 22  1  0  0  0  0
 21 27  1  0  0  0  0
 22 23  2  0  0  0  0
 22 25  1  0  0  0  0
 23 24  1  0  0  0  0
 25 26  2  0  0  0  0
 26 27  1  0  0  0  0
M  END
>  <CHROM.1>
95.22281313,171.18558169,75.06611021,72.12290812,-175.07439661,6.78258162
164.72346035,14.26207191,4.82210454,31.10007312,1.84275361,-1.12155556,1.45329726

>  <Name>
ligand

>  <RI>
0

>  <Rbt.Current_Directory>
/home/itssahil/PROJECTS/Mol_Feturizer/Test_systems_manuscript/rnas/4aob

>  <Rbt.Executable>
rbdock ($Id: //depot/dev/client3/rdock/2013.1/src/exe/rbdock.cxx#4 $)

>  <Rbt.Library>
libRbt.so (2013.1, Build901 2013/11/27)

>  <Rbt.Parameter_File>
/export/apps/rDock/src/rDock_2013.1_src/data/scripts/dock_solv.prm

>  <Rbt.Receptor>
prm/pocket_docking_3.prm

>  <SCORE>
-11.7592

>  <SCORE.INTER>
-15.4744

>  <SCORE.INTER.CONST>
1

>  <SCORE.INTER.POLAR>
0

>  <SCORE.INTER.ROT>
7

>  <SCORE.INTER.SOLV>
13.3926

>  <SCORE.INTER.VDW>
-23.0471

>  <SCORE.INTER.norm>
-0.573127

>  <SCORE.INTRA>
3.71526

>  <SCORE.INTRA.DIHEDRAL>
4.6033

>  <SCORE.INTRA.DIHEDRAL.0>
6.31833

>  <SCORE.INTRA.POLAR>
0

>  <SCORE.INTRA.POLAR.0>
0

>  <SCORE.INTRA.REPUL>
0

>  <SCORE.INTRA.REPUL.0>
0

>  <SCORE.INTRA.SOLV>
-0.178957

>  <SCORE.INTRA.SOLV.lig_0>
-48.4015

>  <SCORE.INTRA.VDW>
1.50309

>  <SCORE.INTRA.VDW.0>
-2.83256

>  <SCORE.INTRA.norm>
0.137602

>  <SCORE.RESTR>
0

>  <SCORE.RESTR.CAVITY>
0

>  <SCORE.RESTR.norm>
0

>  <SCORE.SYSTEM>
0

>  <SCORE.SYSTEM.CONST>
0

>  <SCORE.SYSTEM.DIHEDRAL>
0

>  <SCORE.SYSTEM.SOLV>
0

>  <SCORE.SYSTEM.norm>
0

>  <SCORE.heavy>
27

>  <SCORE.norm>
-0.435525

>  <RMSD>
6.096

$$$$
ligand
 OpenBabel02271912153D
libRbt.so/2013.1/901 2013/11/27
 27 29  0  0  0  0  0  0  0  0999 V2000
   14.3975    8.9448   25.0776 N   0  0  0  0  0  0  0  0  0  0  0  0
   13.7942    9.0824   26.4250 C   0  0  2  0  0  0  0  0  0  0  0  0
   12.8784   10.2994   26.4034 C   0  0  0  0  0  0  0  0  0  0  0  0
   11.8466   10.4829   27.1308 O   0  0  0  0  0  0  0  0  0  0  0  0
   14.9176    9.1876   27.4587 C   0  0  0  0  0  0  0  0  0  0  0  0
   15.6636    7.8743   27.6535 C   0  0  0  0  0  0  0  0  0  0  0  0
   16.9830    7.6424   28.9033 S   0  0  2  0  0  0  0  0  0  0  0  0
   16.1108    8.2669   30.3386 C   0  0  0  0  0  0  0  0  0  0  0  0
   18.0521    9.0320   28.4111 C   0  0  0  0  0  0  0  0  0  0  0  0
   19.3730    8.9946   29.1292 C   0  0  1  0  0  0  0  0  0  0  0  0
   19.2211    8.8968   30.5660 O   0  0  0  0  0  0  0  0  0  0  0  0
   20.2792    7.8618   28.7042 C   0  0  1  0  0  0  0  0  0  0  0  0
   21.1717    8.3498   27.7999 O   0  0  0  0  0  0  0  0  0  0  0  0
   21.0322    7.6226   29.9920 C   0  0  1  0  0  0  0  0  0  0  0  0
   22.0297    8.5446   30.0089 O   0  0  0  0  0  0  0  0  0  0  0  0
   20.0482    7.9233   31.1442 C   0  0  2  0  0  0  0  0  0  0  0  0
   13.1403   11.1567   25.5578 O   0  0  0  0  0  0  0  0  0  0  0  0
   16.7641    4.9608   33.9033 N   0  0  0  0  0  0  0  0  0  0  0  0
   17.3770    6.2373   34.1385 C   0  0  0  0  0  0  0  0  0  0  0  0
   18.2596    6.9498   33.2891 N   0  0  0  0  0  0  0  0  0  0  0  0
   18.4710    6.3146   32.2049 C   0  0  0  0  0  0  0  0  0  0  0  0
   17.8843    4.9988   31.8657 C   0  0  0  0  0  0  0  0  0  0  0  0
   17.0649    4.3516   32.7046 C   0  0  0  0  0  0  0  0  0  0  0  0
   16.6294    3.1805   32.2878 N   0  0  0  0  0  0  0  0  0  0  0  0
   18.2607    4.5406   30.6958 N   0  0  0  0  0  0  0  0  0  0  0  0
   19.0830    5.5783   30.2970 C   0  0  0  0  0  0  0  0  0  0  0  0
   19.2174    6.6912   31.2233 N   0  0  0  0  0  0  0  0  0  0  0  0
  2  1  1  6  0  0  0
  2  3  1  0  0  0  0
  2  5  1  0  0  0  0
  3  4  1  0  0  0  0
  3 17  1  0  0  0  0
  5  6  1  0  0  0  0
  7  6  1  6  0  0  0
  7  8  1  0  0  0  0
  7  9  1  0  0  0  0
 10  9  1  6  0  0  0
 10 11  1  0  0  0  0
 10 12  1  0  0  0  0
 11 16  1  0  0  0  0
 12 13  1  6  0  0  0
 12 14  1  0  0  0  0
 14 15  1  1  0  0  0
 14 16  1  0  0  0  0
 16 27  1  6  0  0  0
 18 19  2  0  0  0  0
 18 23  1  0  0  0  0
 19 20  1  0  0  0  0
 20 21  2  0  0  0  0
 21 22  1  0  0  0  0
 21 27  1  0  0  0  0
 22 23  2  0  0  0  0
 22 25  1  0  0  0  0
 23 24  1  0  0  0  0
 25 26  2  0  0  0  0
 26 27  1  0  0  0  0
M  END
>  <CHROM.1>
152.37988562,-70.78242376,-175.60937460,50.99763762,-170.99781820,-52.55674517
-90.99325170,17.37398909,7.63893595,29.63705582,-2.23615842,0.09107099,2.25212999

>  <Name>
ligand

>  <RI>
0

>  <Rbt.Current_Directory>
/home/itssahil/PROJECTS/Mol_Feturizer/Test_systems_manuscript/rnas/4aob

>  <Rbt.Executable>
rbdock ($Id: //depot/dev/client3/rdock/2013.1/src/exe/rbdock.cxx#4 $)

>  <Rbt.Library>
libRbt.so (2013.1, Build901 2013/11/27)

>  <Rbt.Parameter_File>
/export/apps/rDock/src/rDock_2013.1_src/data/scripts/dock_solv.prm

>  <Rbt.Receptor>
prm/pocket_docking_8.prm

>  <SCORE>
-9.52556

>  <SCORE.INTER>
-8.60028

>  <SCORE.INTER.CONST>
1

>  <SCORE.INTER.POLAR>
0

>  <SCORE.INTER.ROT>
7

>  <SCORE.INTER.SOLV>
11.0228

>  <SCORE.INTER.VDW>
-17.6745

>  <SCORE.INTER.norm>
-0.318529

>  <SCORE.INTRA>
-0.925274

>  <SCORE.INTRA.DIHEDRAL>
-1.33659

>  <SCORE.INTRA.DIHEDRAL.0>
6.31833

>  <SCORE.INTRA.POLAR>
0

>  <SCORE.INTRA.POLAR.0>
0

>  <SCORE.INTRA.REPUL>
0

>  <SCORE.INTRA.REPUL.0>
0

>  <SCORE.INTRA.SOLV>
0.138003

>  <SCORE.INTRA.SOLV.lig_0>
-48.4015

>  <SCORE.INTRA.VDW>
-0.325981

>  <SCORE.INTRA.VDW.0>
-2.83256

>  <SCORE.INTRA.norm>
-0.0342694

>  <SCORE.RESTR>
0

>  <SCORE.RESTR.CAVITY>
0

>  <SCORE.RESTR.norm>
0

>  <SCORE.SYSTEM>
0

>  <SCORE.SYSTEM.CONST>
0

>  <SCORE.SYSTEM.DIHEDRAL>
0

>  <SCORE.SYSTEM.SOLV>
0

>  <SCORE.SYSTEM.norm>
0

>  <SCORE.heavy>
27

>  <SCORE.norm>
-0.352798

>  <RMSD>
6.100

$$$$
ligand
 OpenBabel02271912153D
libRbt.so/2013.1/901 2013/11/27
 27 29  0  0  0  0  0  0  0  0999 V2000
   22.2827    6.8712   30.8962 N   0  0  0  0  0  0  0  0  0  0  0  0
   21.2364    6.4770   29.9225 C   0  0  2  0  0  0  0  0  0  0  0  0
   20.9809    7.6665   29.0059 C   0  0  0  0  0  0  0  0  0  0  0  0
   21.5359    7.8857   27.8783 O   0  0  0  0  0  0  0  0  0  0  0  0
   19.9926    6.0268   30.6920 C   0  0  0  0  0  0  0  0  0  0  0  0
   18.8768    5.5417   29.7761 C   0  0  0  0  0  0  0  0  0  0  0  0
   17.2109    5.0758   30.3794 S   0  0  2  0  0  0  0  0  0  0  0  0
   16.4268    4.7633   28.7989 C   0  0  0  0  0  0  0  0  0  0  0  0
   16.6243    6.7401   30.8292 C   0  0  0  0  0  0  0  0  0  0  0  0
   15.1238    6.7925   30.9169 C   0  0  1  0  0  0  0  0  0  0  0  0
   14.6014    5.9709   31.9888 O   0  0  0  0  0  0  0  0  0  0  0  0
   14.5611    8.1817   31.1128 C   0  0  1  0  0  0  0  0  0  0  0  0
   14.1661    8.6539   29.8989 O   0  0  0  0  0  0  0  0  0  0  0  0
   13.3104    7.8570   31.8955 C   0  0  1  0  0  0  0  0  0  0  0  0
   12.3808    7.5048   30.9696 O   0  0  0  0  0  0  0  0  0  0  0  0
   13.6409    6.6280   32.7709 C   0  0  2  0  0  0  0  0  0  0  0  0
   20.2012    8.5195   29.4336 O   0  0  0  0  0  0  0  0  0  0  0  0
   13.8093    7.7035   37.8689 N   0  0  0  0  0  0  0  0  0  0  0  0
   12.8649    7.0142   37.0361 C   0  0  0  0  0  0  0  0  0  0  0  0
   12.9427    6.7786   35.6410 N   0  0  0  0  0  0  0  0  0  0  0  0
   14.0158    7.2595   35.1503 C   0  0  0  0  0  0  0  0  0  0  0  0
   15.0522    7.9803   35.9230 C   0  0  0  0  0  0  0  0  0  0  0  0
   14.9324    8.1945   37.2397 C   0  0  0  0  0  0  0  0  0  0  0  0
   15.9167    8.8662   37.8010 N   0  0  0  0  0  0  0  0  0  0  0  0
   16.0615    8.3917   35.1934 N   0  0  0  0  0  0  0  0  0  0  0  0
   15.6582    7.9204   33.9576 C   0  0  0  0  0  0  0  0  0  0  0  0
   14.3908    7.2085   33.9176 N   0  0  0  0  0  0  0  0  0  0  0  0
  2  1  1  1  0  0  0
  2  3  1  0  0  0  0
  2  5  1  0  0  0  0
  3  4  1  0  0  0  0
  3 17  1  0  0  0  0
  5  6  1  0  0  0  0
  7  6  1  6  0  0  0
  7  8  1  0  0  0  0
  7  9  1  0  0  0  0
 10  9  1  1  0  0  0
 10 11  1  0  0  0  0
 10 12  1  0  0  0  0
 11 16  1  0  0  0  0
 12 13  1  6  0  0  0
 12 14  1  0  0  0  0
 14 15  1  6  0  0  0
 14 16  1  0  0  0  0
 16 27  1  1  0  0  0
 18 19  2  0  0  0  0
 18 23  1  0  0  0  0
 19 20  1  0  0  0  0
 20 21  2  0  0  0  0
 21 22  1  0  0  0  0
 21 27  1  0  0  0  0
 22 23  2  0  0  0  0
 22 25  1  0  0  0  0
 23 24  1  0  0  0  0
 25 26  2  0  0  0  0
 26 27  1  0  0  0  0
M  END
>  <CHROM.1>
93.46720100,-177.47894639,-174.47069468,175.38286680,160.06618996,65.19277825
-140.18940977,16.33427454,7.09643863,32.25399491,-0.80198352,0.07186969,1.36142795

>  <Name>
ligand

>  <RI>
0

>  <Rbt.Current_Directory>
/home/itssahil/PROJECTS/Mol_Feturizer/Test_systems_manuscript/rnas/4aob

>  <Rbt.Executable>
rbdock ($Id: //depot/dev/client3/rdock/2013.1/src/exe/rbdock.cxx#4 $)

>  <Rbt.Library>
libRbt.so (2013.1, Build901 2013/11/27)

>  <Rbt.Parameter_File>
/export/apps/rDock/src/rDock_2013.1_src/data/scripts/dock_solv.prm

>  <Rbt.Receptor>
prm/pocket_docking_8.prm

>  <SCORE>
-14.7351

>  <SCORE.INTER>
-13.5347

>  <SCORE.INTER.CONST>
1

>  <SCORE.INTER.POLAR>
0

>  <SCORE.INTER.ROT>
7

>  <SCORE.INTER.SOLV>
13.6442

>  <SCORE.INTER.VDW>
-21.8379

>  <SCORE.INTER.norm>
-0.501286

>  <SCORE.INTRA>
-1.20035

>  <SCORE.INTRA.DIHEDRAL>
-2.84065

>  <SCORE.INTRA.DIHEDRAL.0>
6.31833

>  <SCORE.INTRA.POLAR>
0

>  <SCORE.INTRA.POLAR.0>
0

>  <SCORE.INTRA.REPUL>
0

>  <SCORE.INTRA.REPUL.0>
0

>  <SCORE.INTRA.SOLV>
-0.792189

>  <SCORE.INTRA.SOLV.lig_0>
-48.4015

>  <SCORE.INTRA.VDW>
0.616074

>  <SCORE.INTRA.VDW.0>
-2.83256

>  <SCORE.INTRA.norm>
-0.0444573

>  <SCORE.RESTR>
0

>  <SCORE.RESTR.CAVITY>
0

>  <SCORE.RESTR.norm>
0

>  <SCORE.SYSTEM>
0

>  <SCORE.SYSTEM.CONST>
0

>  <SCORE.SYSTEM.DIHEDRAL>
0

>  <SCORE.SYSTEM.SOLV>
0

>  <SCORE.SYSTEM.norm>
0

>  <SCORE.heavy>
27

>  <SCORE.norm>
-0.545743

>  <RMSD>
6.171

$$$$
ligand
 OpenBabel02271912153D
libRbt.so/2013.1/901 2013/11/27
 27 29  0  0  0  0  0  0  0  0999 V2000
   16.9149    8.5516   37.8101 N   0  0  0  0  0  0  0  0  0  0  0  0
   16.9860    8.5516   36.3292 C   0  0  2  0  0  0  0  0  0  0  0  0
   18.2207    9.3453   35.9220 C   0  0  0  0  0  0  0  0  0  0  0  0
   18.8525   10.1854   36.6449 O   0  0  0  0  0  0  0  0  0  0  0  0
   15.6830    9.1307   35.7740 C   0  0  0  0  0  0  0  0  0  0  0  0
   14.5795    8.0882   35.6528 C   0  0  0  0  0  0  0  0  0  0  0  0
   14.5367    6.8171   34.3340 S   0  0  2  0  0  0  0  0  0  0  0  0
   14.5156    7.9038   32.9095 C   0  0  0  0  0  0  0  0  0  0  0  0
   12.7962    6.3137   34.5170 C   0  0  0  0  0  0  0  0  0  0  0  0
   12.4596    5.1524   33.6225 C   0  0  1  0  0  0  0  0  0  0  0  0
   12.8165    5.3948   32.2402 O   0  0  0  0  0  0  0  0  0  0  0  0
   13.1128    3.8496   34.0239 C   0  0  1  0  0  0  0  0  0  0  0  0
   12.2078    3.1235   34.7354 O   0  0  0  0  0  0  0  0  0  0  0  0
   13.2511    3.1907   32.6714 C   0  0  1  0  0  0  0  0  0  0  0  0
   12.0445    2.6208   32.4171 O   0  0  0  0  0  0  0  0  0  0  0  0
   13.4996    4.3222   31.6495 C   0  0  2  0  0  0  0  0  0  0  0  0
   18.6018    9.1919   34.7602 O   0  0  0  0  0  0  0  0  0  0  0  0
   17.9439    6.0219   29.5202 N   0  0  0  0  0  0  0  0  0  0  0  0
   16.5986    5.9026   29.0338 C   0  0  0  0  0  0  0  0  0  0  0  0
   15.4600    5.4248   29.7289 N   0  0  0  0  0  0  0  0  0  0  0  0
   15.7531    5.0942   30.9241 C   0  0  0  0  0  0  0  0  0  0  0  0
   17.1046    5.1842   31.5207 C   0  0  0  0  0  0  0  0  0  0  0  0
   18.1582    5.6285   30.8232 C   0  0  0  0  0  0  0  0  0  0  0  0
   19.3068    5.6389   31.4678 N   0  0  0  0  0  0  0  0  0  0  0  0
   17.1588    4.7737   32.7652 N   0  0  0  0  0  0  0  0  0  0  0  0
   15.8323    4.4303   32.9513 C   0  0  0  0  0  0  0  0  0  0  0  0
   14.9457    4.6309   31.8163 N   0  0  0  0  0  0  0  0  0  0  0  0
  2  1  1  1  0  0  0
  2  3  1  0  0  0  0
  2  5  1  0  0  0  0
  3  4  1  0  0  0  0
  3 17  1  0  0  0  0
  5  6  1  0  0  0  0
  7  6  1  1  0  0  0
  7  8  1  0  0  0  0
  7  9  1  0  0  0  0
 10  9  1  1  0  0  0
 10 11  1  0  0  0  0
 10 12  1  0  0  0  0
 11 16  1  0  0  0  0
 12 13  1  1  0  0  0
 12 14  1  0  0  0  0
 14 15  1  6  0  0  0
 14 16  1  0  0  0  0
 16 27  1  1  0  0  0
 18 19  2  0  0  0  0
 18 23  1  0  0  0  0
 19 20  1  0  0  0  0
 20 21  2  0  0  0  0
 21 22  1  0  0  0  0
 21 27  1  0  0  0  0
 22 23  2  0  0  0  0
 22 25  1  0  0  0  0
 23 24  1  0  0  0  0
 25 26  2  0  0  0  0
 26 27  1  0  0  0  0
M  END
>  <CHROM.1>
-19.24978112,-84.77077071,-75.42505633,-58.89244676,-174.86715903,-52.85531919
-102.02758821,15.44406959,6.14871543,33.31764780,0.93622507,0.49605812,0.99754337

>  <Name>
ligand

>  <RI>
0

>  <Rbt.Current_Directory>
/home/itssahil/PROJECTS/Mol_Feturizer/Test_systems_manuscript/rnas/4aob

>  <Rbt.Executable>
rbdock ($Id: //depot/dev/client3/rdock/2013.1/src/exe/rbdock.cxx#4 $)

>  <Rbt.Library>
libRbt.so (2013.1, Build901 2013/11/27)

>  <Rbt.Parameter_File>
/export/apps/rDock/src/rDock_2013.1_src/data/scripts/dock_solv.prm

>  <Rbt.Receptor>
prm/pocket_docking_8.prm

>  <SCORE>
-13.1111

>  <SCORE.INTER>
-12.6864

>  <SCORE.INTER.CONST>
1

>  <SCORE.INTER.POLAR>
0

>  <SCORE.INTER.ROT>
7

>  <SCORE.INTER.SOLV>
14.5193

>  <SCORE.INTER.VDW>
-21.564

>  <SCORE.INTER.norm>
-0.469866

>  <SCORE.INTRA>
-0.424727

>  <SCORE.INTRA.DIHEDRAL>
0.769219

>  <SCORE.INTRA.DIHEDRAL.0>
6.31833

>  <SCORE.INTRA.POLAR>
0

>  <SCORE.INTRA.POLAR.0>
0

>  <SCORE.INTRA.REPUL>
0

>  <SCORE.INTRA.REPUL.0>
0

>  <SCORE.INTRA.SOLV>
0.0372464

>  <SCORE.INTRA.SOLV.lig_0>
-48.4015

>  <SCORE.INTRA.VDW>
-0.82796

>  <SCORE.INTRA.VDW.0>
-2.83256

>  <SCORE.INTRA.norm>
-0.0157306

>  <SCORE.RESTR>
0

>  <SCORE.RESTR.CAVITY>
0

>  <SCORE.RESTR.norm>
0

>  <SCORE.SYSTEM>
0

>  <SCORE.SYSTEM.CONST>
0

>  <SCORE.SYSTEM.DIHEDRAL>
0

>  <SCORE.SYSTEM.SOLV>
0

>  <SCORE.SYSTEM.norm>
0

>  <SCORE.heavy>
27

>  <SCORE.norm>
-0.485597

>  <RMSD>
6.184

$$$$
ligand
 OpenBabel02271912153D
libRbt.so/2013.1/901 2013/11/27
 27 29  0  0  0  0  0  0  0  0999 V2000
   14.8100    8.7186   35.2405 N   0  0  0  0  0  0  0  0  0  0  0  0
   14.6086    7.2758   34.9647 C   0  0  2  0  0  0  0  0  0  0  0  0
   15.6039    6.8640   33.8876 C   0  0  0  0  0  0  0  0  0  0  0  0
   16.6079    6.0918   34.0406 O   0  0  0  0  0  0  0  0  0  0  0  0
   13.1501    7.0512   34.5597 C   0  0  0  0  0  0  0  0  0  0  0  0
   12.7474    5.5830   34.5985 C   0  0  0  0  0  0  0  0  0  0  0  0
   12.8629    4.4693   33.1483 S   0  0  2  0  0  0  0  0  0  0  0  0
   12.1952    2.9828   33.8932 C   0  0  0  0  0  0  0  0  0  0  0  0
   14.6628    4.1940   33.1769 C   0  0  0  0  0  0  0  0  0  0  0  0
   15.0856    3.1938   32.1363 C   0  0  1  0  0  0  0  0  0  0  0  0
   13.9599    2.6147   31.4332 O   0  0  0  0  0  0  0  0  0  0  0  0
   16.0224    3.7475   31.0870 C   0  0  1  0  0  0  0  0  0  0  0  0
   17.2945    3.4118   31.4353 O   0  0  0  0  0  0  0  0  0  0  0  0
   15.6401    2.8876   29.9051 C   0  0  1  0  0  0  0  0  0  0  0  0
   16.3349    1.7300   30.0552 O   0  0  0  0  0  0  0  0  0  0  0  0
   14.1303    2.5907   30.0416 C   0  0  2  0  0  0  0  0  0  0  0  0
   15.4431    7.3781   32.7794 O   0  0  0  0  0  0  0  0  0  0  0  0
   13.3355    5.8863   26.0815 N   0  0  0  0  0  0  0  0  0  0  0  0
   14.0327    4.6373   26.2016 C   0  0  0  0  0  0  0  0  0  0  0  0
   14.1688    3.8226   27.3530 N   0  0  0  0  0  0  0  0  0  0  0  0
   13.5597    4.3282   28.3516 C   0  0  0  0  0  0  0  0  0  0  0  0
   12.8100    5.6041   28.3293 C   0  0  0  0  0  0  0  0  0  0  0  0
   12.7181    6.3520   27.2220 C   0  0  0  0  0  0  0  0  0  0  0  0
   12.0385    7.4736   27.3448 N   0  0  0  0  0  0  0  0  0  0  0  0
   12.2782    5.9222   29.4853 N   0  0  0  0  0  0  0  0  0  0  0  0
   12.6919    4.8361   30.2345 C   0  0  0  0  0  0  0  0  0  0  0  0
   13.4841    3.8338   29.5400 N   0  0  0  0  0  0  0  0  0  0  0  0
  2  1  1  6  0  0  0
  2  3  1  0  0  0  0
  2  5  1  0  0  0  0
  3  4  1  0  0  0  0
  3 17  1  0  0  0  0
  5  6  1  0  0  0  0
  7  6  1  1  0  0  0
  7  8  1  0  0  0  0
  7  9  1  0  0  0  0
 10  9  1  1  0  0  0
 10 11  1  0  0  0  0
 10 12  1  0  0  0  0
 11 16  1  0  0  0  0
 12 13  1  1  0  0  0
 12 14  1  0  0  0  0
 14 15  1  1  0  0  0
 14 16  1  0  0  0  0
 16 27  1  6  0  0  0
 18 19  2  0  0  0  0
 18 23  1  0  0  0  0
 19 20  1  0  0  0  0
 20 21  2  0  0  0  0
 21 22  1  0  0  0  0
 21 27  1  0  0  0  0
 22 23  2  0  0  0  0
 22 25  1  0  0  0  0
 23 24  1  0  0  0  0
 25 26  2  0  0  0  0
 26 27  1  0  0  0  0
M  END
>  <CHROM.1>
111.29148920,-165.38780526,-91.94622187,-178.21440571,175.29711148,-4.42026648
169.23706867,14.14459294,4.89649146,31.16694732,1.30175946,-1.05704982,1.12744602

>  <Name>
ligand

>  <RI>
0

>  <Rbt.Current_Directory>
/home/itssahil/PROJECTS/Mol_Feturizer/Test_systems_manuscript/rnas/4aob

>  <Rbt.Executable>
rbdock ($Id: //depot/dev/client3/rdock/2013.1/src/exe/rbdock.cxx#4 $)

>  <Rbt.Library>
libRbt.so (2013.1, Build901 2013/11/27)

>  <Rbt.Parameter_File>
/export/apps/rDock/src/rDock_2013.1_src/data/scripts/dock_solv.prm

>  <Rbt.Receptor>
prm/pocket_docking_3.prm

>  <SCORE>
-10.426

>  <SCORE.INTER>
-13.9022

>  <SCORE.INTER.CONST>
1

>  <SCORE.INTER.POLAR>
0

>  <SCORE.INTER.ROT>
7

>  <SCORE.INTER.SOLV>
11.3458

>  <SCORE.INTER.VDW>
-21.3167

>  <SCORE.INTER.norm>
-0.514896

>  <SCORE.INTRA>
3.47619

>  <SCORE.INTRA.DIHEDRAL>
6.15947

>  <SCORE.INTRA.DIHEDRAL.0>
6.31833

>  <SCORE.INTRA.POLAR>
0

>  <SCORE.INTRA.POLAR.0>
0

>  <SCORE.INTRA.REPUL>
0

>  <SCORE.INTRA.REPUL.0>
0

>  <SCORE.INTRA.SOLV>
-0.425443

>  <SCORE.INTRA.SOLV.lig_0>
-48.4015

>  <SCORE.INTRA.VDW>
0.609176

>  <SCORE.INTRA.VDW.0>
-2.83256

>  <SCORE.INTRA.norm>
0.128748

>  <SCORE.RESTR>
0

>  <SCORE.RESTR.CAVITY>
0

>  <SCORE.RESTR.norm>
0

>  <SCORE.SYSTEM>
0

>  <SCORE.SYSTEM.CONST>
0

>  <SCORE.SYSTEM.DIHEDRAL>
0

>  <SCORE.SYSTEM.SOLV>
0

>  <SCORE.SYSTEM.norm>
0

>  <SCORE.heavy>
27

>  <SCORE.norm>
-0.386148

>  <RMSD>
6.197

$$$$
ligand
 OpenBabel02271912153D
libRbt.so/2013.1/901 2013/11/27
 27 29  0  0  0  0  0  0  0  0999 V2000
   13.7525    8.4088   32.9480 N   0  0  0  0  0  0  0  0  0  0  0  0
   14.3315    7.3477   33.8066 C   0  0  2  0  0  0  0  0  0  0  0  0
   14.6690    7.9717   35.1546 C   0  0  0  0  0  0  0  0  0  0  0  0
   15.5174    8.9004   35.3672 O   0  0  0  0  0  0  0  0  0  0  0  0
   15.5462    6.7475   33.0955 C   0  0  0  0  0  0  0  0  0  0  0  0
   16.2429    5.6755   33.9228 C   0  0  0  0  0  0  0  0  0  0  0  0
   17.6806    4.7141   33.3185 S   0  0  2  0  0  0  0  0  0  0  0  0
   18.7042    6.0757   32.7628 C   0  0  0  0  0  0  0  0  0  0  0  0
   16.9386    4.0784   31.7818 C   0  0  0  0  0  0  0  0  0  0  0  0
   15.9915    2.9422   32.0540 C   0  0  1  0  0  0  0  0  0  0  0  0
   14.6568    3.3984   32.3815 O   0  0  0  0  0  0  0  0  0  0  0  0
   15.8537    1.9613   30.9122 C   0  0  1  0  0  0  0  0  0  0  0  0
   16.6635    0.8975   31.1673 O   0  0  0  0  0  0  0  0  0  0  0  0
   14.4303    1.5012   31.1237 C   0  0  1  0  0  0  0  0  0  0  0  0
   14.4963    0.5342   32.0756 O   0  0  0  0  0  0  0  0  0  0  0  0
   13.6516    2.7106   31.6867 C   0  0  2  0  0  0  0  0  0  0  0  0
   14.0998    7.4839   36.1326 O   0  0  0  0  0  0  0  0  0  0  0  0
   12.0111    7.2415   29.6981 N   0  0  0  0  0  0  0  0  0  0  0  0
   12.2357    6.7746   31.0369 C   0  0  0  0  0  0  0  0  0  0  0  0
   12.6994    5.5007   31.4490 N   0  0  0  0  0  0  0  0  0  0  0  0
   12.9306    4.7469   30.4480 C   0  0  0  0  0  0  0  0  0  0  0  0
   12.7370    5.1347   29.0328 C   0  0  0  0  0  0  0  0  0  0  0  0
   12.2821    6.3460   28.6867 C   0  0  0  0  0  0  0  0  0  0  0  0
   12.1369    6.5537   27.3941 N   0  0  0  0  0  0  0  0  0  0  0  0
   13.0322    4.1820   28.1810 N   0  0  0  0  0  0  0  0  0  0  0  0
   13.4189    3.1937   29.0674 C   0  0  0  0  0  0  0  0  0  0  0  0
   13.3670    3.5340   30.4803 N   0  0  0  0  0  0  0  0  0  0  0  0
  2  1  1  6  0  0  0
  2  3  1  0  0  0  0
  2  5  1  0  0  0  0
  3  4  1  0  0  0  0
  3 17  1  0  0  0  0
  5  6  1  0  0  0  0
  7  6  1  1  0  0  0
  7  8  1  0  0  0  0
  7  9  1  0  0  0  0
 10  9  1  6  0  0  0
 10 11  1  0  0  0  0
 10 12  1  0  0  0  0
 11 16  1  0  0  0  0
 12 13  1  1  0  0  0
 12 14  1  0  0  0  0
 14 15  1  1  0  0  0
 14 16  1  0  0  0  0
 16 27  1  6  0  0  0
 18 19  2  0  0  0  0
 18 23  1  0  0  0  0
 19 20  1  0  0  0  0
 20 21  2  0  0  0  0
 21 22  1  0  0  0  0
 21 27  1  0  0  0  0
 22 23  2  0  0  0  0
 22 25  1  0  0  0  0
 23 24  1  0  0  0  0
 25 26  2  0  0  0  0
 26 27  1  0  0  0  0
M  END
>  <CHROM.1>
-63.15470654,178.02335993,177.08927028,50.49746905,-76.84665406,85.58340286
-61.29627930,14.66252713,4.95475976,31.82741406,1.11973131,-0.76373682,0.55915237

>  <Name>
ligand

>  <RI>
0

>  <Rbt.Current_Directory>
/home/itssahil/PROJECTS/Mol_Feturizer/Test_systems_manuscript/rnas/4aob

>  <Rbt.Executable>
rbdock ($Id: //depot/dev/client3/rdock/2013.1/src/exe/rbdock.cxx#4 $)

>  <Rbt.Library>
libRbt.so (2013.1, Build901 2013/11/27)

>  <Rbt.Parameter_File>
/export/apps/rDock/src/rDock_2013.1_src/data/scripts/dock_solv.prm

>  <Rbt.Receptor>
prm/pocket_docking_5.prm

>  <SCORE>
-18.0326

>  <SCORE.INTER>
-17.355

>  <SCORE.INTER.CONST>
1

>  <SCORE.INTER.POLAR>
0

>  <SCORE.INTER.ROT>
7

>  <SCORE.INTER.SOLV>
14.0123

>  <SCORE.INTER.VDW>
-24.5074

>  <SCORE.INTER.norm>
-0.642776

>  <SCORE.INTRA>
-0.67766

>  <SCORE.INTRA.DIHEDRAL>
-0.966389

>  <SCORE.INTRA.DIHEDRAL.0>
6.31833

>  <SCORE.INTRA.POLAR>
0

>  <SCORE.INTRA.POLAR.0>
0

>  <SCORE.INTRA.REPUL>
0

>  <SCORE.INTRA.REPUL.0>
0

>  <SCORE.INTRA.SOLV>
0.373638

>  <SCORE.INTRA.SOLV.lig_0>
-48.4015

>  <SCORE.INTRA.VDW>
-0.381285

>  <SCORE.INTRA.VDW.0>
-2.83256

>  <SCORE.INTRA.norm>
-0.0250985

>  <SCORE.RESTR>
0

>  <SCORE.RESTR.CAVITY>
0

>  <SCORE.RESTR.norm>
0

>  <SCORE.SYSTEM>
0

>  <SCORE.SYSTEM.CONST>
0

>  <SCORE.SYSTEM.DIHEDRAL>
0

>  <SCORE.SYSTEM.SOLV>
0

>  <SCORE.SYSTEM.norm>
0

>  <SCORE.heavy>
27

>  <SCORE.norm>
-0.667875

>  <RMSD>
6.281

$$$$
ligand
 OpenBabel02271912153D
libRbt.so/2013.1/901 2013/11/27
 27 29  0  0  0  0  0  0  0  0999 V2000
   13.5660    7.4861   35.3416 N   0  0  0  0  0  0  0  0  0  0  0  0
   14.9643    7.2571   34.9050 C   0  0  2  0  0  0  0  0  0  0  0  0
   15.8139    8.4008   35.4438 C   0  0  0  0  0  0  0  0  0  0  0  0
   15.3867    9.5239   35.8725 O   0  0  0  0  0  0  0  0  0  0  0  0
   14.9917    7.1487   33.3788 C   0  0  0  0  0  0  0  0  0  0  0  0
   16.3913    6.9045   32.8307 C   0  0  0  0  0  0  0  0  0  0  0  0
   17.4008    5.4388   33.2658 S   0  0  2  0  0  0  0  0  0  0  0  0
   18.9783    5.9946   32.6232 C   0  0  0  0  0  0  0  0  0  0  0  0
   16.7849    4.3092   31.9770 C   0  0  0  0  0  0  0  0  0  0  0  0
   15.6437    3.4679   32.4787 C   0  0  1  0  0  0  0  0  0  0  0  0
   14.4711    4.2557   32.7970 O   0  0  0  0  0  0  0  0  0  0  0  0
   15.2006    2.3866   31.5197 C   0  0  1  0  0  0  0  0  0  0  0  0
   15.7828    1.2171   31.9014 O   0  0  0  0  0  0  0  0  0  0  0  0
   13.7355    2.2948   31.8768 C   0  0  1  0  0  0  0  0  0  0  0  0
   13.6751    1.4881   32.9682 O   0  0  0  0  0  0  0  0  0  0  0  0
   13.2857    3.7176   32.2761 C   0  0  2  0  0  0  0  0  0  0  0  0
   17.0338    8.2318   35.4043 O   0  0  0  0  0  0  0  0  0  0  0  0
   11.9544    8.0442   29.6910 N   0  0  0  0  0  0  0  0  0  0  0  0
   12.1157    7.7367   31.0839 C   0  0  0  0  0  0  0  0  0  0  0  0
   12.4965    6.5018   31.6650 N   0  0  0  0  0  0  0  0  0  0  0  0
   12.7132    5.6183   30.7727 C   0  0  0  0  0  0  0  0  0  0  0  0
   12.5806    5.8364   29.3148 C   0  0  0  0  0  0  0  0  0  0  0  0
   12.2032    7.0170   28.8071 C   0  0  0  0  0  0  0  0  0  0  0  0
   12.1056    7.0695   27.4946 N   0  0  0  0  0  0  0  0  0  0  0  0
   12.8459    4.7712   28.5971 N   0  0  0  0  0  0  0  0  0  0  0  0
   13.1526    3.8823   29.6109 C   0  0  0  0  0  0  0  0  0  0  0  0
   13.0806    4.3980   30.9687 N   0  0  0  0  0  0  0  0  0  0  0  0
  2  1  1  6  0  0  0
  2  3  1  0  0  0  0
  2  5  1  0  0  0  0
  3  4  1  0  0  0  0
  3 17  1  0  0  0  0
  5  6  1  0  0  0  0
  7  6  1  6  0  0  0
  7  8  1  0  0  0  0
  7  9  1  0  0  0  0
 10  9  1  6  0  0  0
 10 11  1  0  0  0  0
 10 12  1  0  0  0  0
 11 16  1  0  0  0  0
 12 13  1  1  0  0  0
 12 14  1  0  0  0  0
 14 15  1  1  0  0  0
 14 16  1  0  0  0  0
 16 27  1  6  0  0  0
 18 19  2  0  0  0  0
 18 23  1  0  0  0  0
 19 20  1  0  0  0  0
 20 21  2  0  0  0  0
 21 22  1  0  0  0  0
 21 27  1  0  0  0  0
 22 23  2  0  0  0  0
 22 25  1  0  0  0  0
 23 24  1  0  0  0  0
 25 26  2  0  0  0  0
 26 27  1  0  0  0  0
M  END
>  <CHROM.1>
-17.24122602,-179.69973407,60.21966005,-167.10988158,-93.52554382,65.21739835
-72.72260437,14.59518664,5.54560214,32.16491069,0.67218444,-0.79270469,0.36064289

>  <Name>
ligand

>  <RI>
0

>  <Rbt.Current_Directory>
/home/itssahil/PROJECTS/Mol_Feturizer/Test_systems_manuscript/rnas/4aob

>  <Rbt.Executable>
rbdock ($Id: //depot/dev/client3/rdock/2013.1/src/exe/rbdock.cxx#4 $)

>  <Rbt.Library>
libRbt.so (2013.1, Build901 2013/11/27)

>  <Rbt.Parameter_File>
/export/apps/rDock/src/rDock_2013.1_src/data/scripts/dock_solv.prm

>  <Rbt.Receptor>
prm/pocket_docking_7.prm

>  <SCORE>
-16.2757

>  <SCORE.INTER>
-14.8808

>  <SCORE.INTER.CONST>
1

>  <SCORE.INTER.POLAR>
0

>  <SCORE.INTER.ROT>
7

>  <SCORE.INTER.SOLV>
10.8462

>  <SCORE.INTER.VDW>
-21.8026

>  <SCORE.INTER.norm>
-0.551141

>  <SCORE.INTRA>
-1.4009

>  <SCORE.INTRA.DIHEDRAL>
-0.533942

>  <SCORE.INTRA.DIHEDRAL.0>
6.31833

>  <SCORE.INTRA.POLAR>
0

>  <SCORE.INTRA.POLAR.0>
0

>  <SCORE.INTRA.REPUL>
0

>  <SCORE.INTRA.REPUL.0>
0

>  <SCORE.INTRA.SOLV>
-0.375472

>  <SCORE.INTRA.SOLV.lig_0>
-48.4015

>  <SCORE.INTRA.VDW>
-0.946188

>  <SCORE.INTRA.VDW.0>
-2.83256

>  <SCORE.INTRA.norm>
-0.051885

>  <SCORE.RESTR>
0.00595882

>  <SCORE.RESTR.CAVITY>
0.00595882

>  <SCORE.RESTR.norm>
0.000220697

>  <SCORE.SYSTEM>
0

>  <SCORE.SYSTEM.CONST>
0

>  <SCORE.SYSTEM.DIHEDRAL>
0

>  <SCORE.SYSTEM.SOLV>
0

>  <SCORE.SYSTEM.norm>
0

>  <SCORE.heavy>
27

>  <SCORE.norm>
-0.602805

>  <RMSD>
6.326

$$$$
ligand
 OpenBabel02271912153D
libRbt.so/2013.1/901 2013/11/27
 27 29  0  0  0  0  0  0  0  0999 V2000
   14.7626    8.9839   35.2857 N   0  0  0  0  0  0  0  0  0  0  0  0
   14.6261    7.7163   34.5289 C   0  0  2  0  0  0  0  0  0  0  0  0
   13.5829    6.8612   35.2366 C   0  0  0  0  0  0  0  0  0  0  0  0
   13.1658    7.0121   36.4327 O   0  0  0  0  0  0  0  0  0  0  0  0
   15.9990    7.0465   34.4391 C   0  0  0  0  0  0  0  0  0  0  0  0
   16.0120    5.8542   33.4918 C   0  0  0  0  0  0  0  0  0  0  0  0
   17.4458    4.7282   33.3111 S   0  0  2  0  0  0  0  0  0  0  0  0
   18.6498    5.9143   32.7158 C   0  0  0  0  0  0  0  0  0  0  0  0
   16.9080    3.8656   31.8002 C   0  0  0  0  0  0  0  0  0  0  0  0
   15.8594    2.8296   32.0987 C   0  0  1  0  0  0  0  0  0  0  0  0
   14.5987    3.4161   32.5029 O   0  0  0  0  0  0  0  0  0  0  0  0
   15.5619    1.8970   30.9468 C   0  0  1  0  0  0  0  0  0  0  0  0
   16.2649    0.7477   31.1397 O   0  0  0  0  0  0  0  0  0  0  0  0
   14.1096    1.5849   31.2222 C   0  0  1  0  0  0  0  0  0  0  0  0
   14.1183    0.5934   32.1507 O   0  0  0  0  0  0  0  0  0  0  0  0
   13.4930    2.8558   31.8474 C   0  0  2  0  0  0  0  0  0  0  0  0
   13.1492    5.9007   34.5980 O   0  0  0  0  0  0  0  0  0  0  0  0
   12.1201    7.5465   30.0343 N   0  0  0  0  0  0  0  0  0  0  0  0
   12.3406    7.0236   31.3529 C   0  0  0  0  0  0  0  0  0  0  0  0
   12.7261    5.7092   31.7158 N   0  0  0  0  0  0  0  0  0  0  0  0
   12.8850    4.9737   30.6874 C   0  0  0  0  0  0  0  0  0  0  0  0
   12.6884    5.4180   29.2894 C   0  0  0  0  0  0  0  0  0  0  0  0
   12.3090    6.6672   28.9904 C   0  0  0  0  0  0  0  0  0  0  0  0
   12.1512    6.9249   27.7083 N   0  0  0  0  0  0  0  0  0  0  0  0
   12.9010    4.4752   28.4028 N   0  0  0  0  0  0  0  0  0  0  0  0
   13.2387    3.4358   29.2499 C   0  0  0  0  0  0  0  0  0  0  0  0
   13.2393    3.7340   30.6732 N   0  0  0  0  0  0  0  0  0  0  0  0
  2  1  1  1  0  0  0
  2  3  1  0  0  0  0
  2  5  1  0  0  0  0
  3  4  1  0  0  0  0
  3 17  1  0  0  0  0
  5  6  1  0  0  0  0
  7  6  1  6  0  0  0
  7  8  1  0  0  0  0
  7  9  1  0  0  0  0
 10  9  1  6  0  0  0
 10 11  1  0  0  0  0
 10 12  1  0  0  0  0
 11 16  1  0  0  0  0
 12 13  1  1  0  0  0
 12 14  1  0  0  0  0
 14 15  1  1  0  0  0
 14 16  1  0  0  0  0
 16 27  1  6  0  0  0
 18 19  2  0  0  0  0
 18 23  1  0  0  0  0
 19 20  1  0  0  0  0
 20 21  2  0  0  0  0
 21 22  1  0  0  0  0
 21 27  1  0  0  0  0
 22 23  2  0  0  0  0
 22 25  1  0  0  0  0
 23 24  1  0  0  0  0
 25 26  2  0  0  0  0
 26 27  1  0  0  0  0
M  END
>  <CHROM.1>
-17.50576121,-170.71159837,-172.79303354,-61.88818654,-77.83808511,69.04539348
-64.12426404,14.45270712,4.90457422,32.05565432,1.28195113,-0.77898891,0.68577185

>  <Name>
ligand

>  <RI>
0

>  <Rbt.Current_Directory>
/home/itssahil/PROJECTS/Mol_Feturizer/Test_systems_manuscript/rnas/4aob

>  <Rbt.Executable>
rbdock ($Id: //depot/dev/client3/rdock/2013.1/src/exe/rbdock.cxx#4 $)

>  <Rbt.Library>
libRbt.so (2013.1, Build901 2013/11/27)

>  <Rbt.Parameter_File>
/export/apps/rDock/src/rDock_2013.1_src/data/scripts/dock_solv.prm

>  <Rbt.Receptor>
prm/pocket_docking_6.prm

>  <SCORE>
-20.4869

>  <SCORE.INTER>
-18.5906

>  <SCORE.INTER.CONST>
1

>  <SCORE.INTER.POLAR>
0

>  <SCORE.INTER.ROT>
7

>  <SCORE.INTER.SOLV>
14.5677

>  <SCORE.INTER.VDW>
-25.5163

>  <SCORE.INTER.norm>
-0.688542

>  <SCORE.INTRA>
-1.89623

>  <SCORE.INTRA.DIHEDRAL>
-2.1706

>  <SCORE.INTRA.DIHEDRAL.0>
6.31833

>  <SCORE.INTRA.POLAR>
0

>  <SCORE.INTRA.POLAR.0>
0

>  <SCORE.INTRA.REPUL>
0

>  <SCORE.INTRA.REPUL.0>
0

>  <SCORE.INTRA.SOLV>
-0.695984

>  <SCORE.INTRA.SOLV.lig_0>
-48.4015

>  <SCORE.INTRA.VDW>
-0.462932

>  <SCORE.INTRA.VDW.0>
-2.83256

>  <SCORE.INTRA.norm>
-0.0702306

>  <SCORE.RESTR>
0

>  <SCORE.RESTR.CAVITY>
0

>  <SCORE.RESTR.norm>
0

>  <SCORE.SYSTEM>
0

>  <SCORE.SYSTEM.CONST>
0

>  <SCORE.SYSTEM.DIHEDRAL>
0

>  <SCORE.SYSTEM.SOLV>
0

>  <SCORE.SYSTEM.norm>
0

>  <SCORE.heavy>
27

>  <SCORE.norm>
-0.758773

>  <RMSD>
6.374

$$$$
ligand
 OpenBabel02271912153D
libRbt.so/2013.1/901 2013/11/27
 27 29  0  0  0  0  0  0  0  0999 V2000
   16.1691    9.0878   35.7529 N   0  0  0  0  0  0  0  0  0  0  0  0
   15.0104    8.5214   35.0216 C   0  0  2  0  0  0  0  0  0  0  0  0
   14.1691    7.7353   36.0189 C   0  0  0  0  0  0  0  0  0  0  0  0
   14.3167    7.7185   37.2859 O   0  0  0  0  0  0  0  0  0  0  0  0
   15.5296    7.6687   33.8619 C   0  0  0  0  0  0  0  0  0  0  0  0
   16.5189    6.6019   34.3118 C   0  0  0  0  0  0  0  0  0  0  0  0
   16.8197    5.0523   33.3820 S   0  0  2  0  0  0  0  0  0  0  0  0
   17.4471    5.7645   31.8622 C   0  0  0  0  0  0  0  0  0  0  0  0
   15.0887    4.6487   32.9857 C   0  0  0  0  0  0  0  0  0  0  0  0
   14.9474    3.2297   32.5078 C   0  0  1  0  0  0  0  0  0  0  0  0
   13.5894    2.9061   32.1231 O   0  0  0  0  0  0  0  0  0  0  0  0
   15.8330    2.8784   31.3342 C   0  0  1  0  0  0  0  0  0  0  0  0
   16.9397    2.2469   31.8127 O   0  0  0  0  0  0  0  0  0  0  0  0
   14.9787    1.8327   30.6566 C   0  0  1  0  0  0  0  0  0  0  0  0
   15.2279    0.6724   31.3178 O   0  0  0  0  0  0  0  0  0  0  0  0
   13.5075    2.2408   30.8915 C   0  0  2  0  0  0  0  0  0  0  0  0
   13.3007    7.0064   35.5359 O   0  0  0  0  0  0  0  0  0  0  0  0
   12.1038    7.1559   29.8688 N   0  0  0  0  0  0  0  0  0  0  0  0
   12.2912    6.4153   31.0842 C   0  0  0  0  0  0  0  0  0  0  0  0
   12.6900    5.0632   31.2279 N   0  0  0  0  0  0  0  0  0  0  0  0
   12.8968    4.5194   30.0942 C   0  0  0  0  0  0  0  0  0  0  0  0
   12.7374    5.1967   28.7879 C   0  0  0  0  0  0  0  0  0  0  0  0
   12.3437    6.4736   28.6960 C   0  0  0  0  0  0  0  0  0  0  0  0
   12.2229    6.9476   27.4730 N   0  0  0  0  0  0  0  0  0  0  0  0
   12.9970    4.4248   27.7598 N   0  0  0  0  0  0  0  0  0  0  0  0
   13.3270    3.2590   28.4260 C   0  0  0  0  0  0  0  0  0  0  0  0
   13.2753    3.3058   29.8785 N   0  0  0  0  0  0  0  0  0  0  0  0
  2  1  1  1  0  0  0
  2  3  1  0  0  0  0
  2  5  1  0  0  0  0
  3  4  1  0  0  0  0
  3 17  1  0  0  0  0
  5  6  1  0  0  0  0
  7  6  1  1  0  0  0
  7  8  1  0  0  0  0
  7  9  1  0  0  0  0
 10  9  1  6  0  0  0
 10 11  1  0  0  0  0
 10 12  1  0  0  0  0
 11 16  1  0  0  0  0
 12 13  1  1  0  0  0
 12 14  1  0  0  0  0
 14 15  1  1  0  0  0
 14 16  1  0  0  0  0
 16 27  1  6  0  0  0
 18 19  2  0  0  0  0
 18 23  1  0  0  0  0
 19 20  1  0  0  0  0
 20 21  2  0  0  0  0
 21 22  1  0  0  0  0
 21 27  1  0  0  0  0
 22 23  2  0  0  0  0
 22 25  1  0  0  0  0
 23 24  1  0  0  0  0
 25 26  2  0  0  0  0
 26 27  1  0  0  0  0
M  END
>  <CHROM.1>
9.18005331,54.24620292,155.14504472,62.22404783,-165.62035886,-177.11170024
-15.67919057,14.47506609,5.10767835,32.00446914,1.16368070,-0.86916190,0.69469915

>  <Name>
ligand

>  <RI>
0

>  <Rbt.Current_Directory>
/home/itssahil/PROJECTS/Mol_Feturizer/Test_systems_manuscript/rnas/4aob

>  <Rbt.Executable>
rbdock ($Id: //depot/dev/client3/rdock/2013.1/src/exe/rbdock.cxx#4 $)

>  <Rbt.Library>
libRbt.so (2013.1, Build901 2013/11/27)

>  <Rbt.Parameter_File>
/export/apps/rDock/src/rDock_2013.1_src/data/scripts/dock_solv.prm

>  <Rbt.Receptor>
prm/pocket_docking_5.prm

>  <SCORE>
-15.3274

>  <SCORE.INTER>
-17.1252

>  <SCORE.INTER.CONST>
1

>  <SCORE.INTER.POLAR>
0

>  <SCORE.INTER.ROT>
7

>  <SCORE.INTER.SOLV>
13.3774

>  <SCORE.INTER.VDW>
-24.1426

>  <SCORE.INTER.norm>
-0.634266

>  <SCORE.INTRA>
1.79783

>  <SCORE.INTRA.DIHEDRAL>
0.691269

>  <SCORE.INTRA.DIHEDRAL.0>
6.31833

>  <SCORE.INTRA.POLAR>
0

>  <SCORE.INTRA.POLAR.0>
0

>  <SCORE.INTRA.REPUL>
0

>  <SCORE.INTRA.REPUL.0>
0

>  <SCORE.INTRA.SOLV>
0.289462

>  <SCORE.INTRA.SOLV.lig_0>
-48.4015

>  <SCORE.INTRA.VDW>
1.30746

>  <SCORE.INTRA.VDW.0>
-2.83256

>  <SCORE.INTRA.norm>
0.0665863

>  <SCORE.RESTR>
0

>  <SCORE.RESTR.CAVITY>
0

>  <SCORE.RESTR.norm>
0

>  <SCORE.SYSTEM>
0

>  <SCORE.SYSTEM.CONST>
0

>  <SCORE.SYSTEM.DIHEDRAL>
0

>  <SCORE.SYSTEM.SOLV>
0

>  <SCORE.SYSTEM.norm>
0

>  <SCORE.heavy>
27

>  <SCORE.norm>
-0.56768

>  <RMSD>
6.478

$$$$
ligand
 OpenBabel02271912153D
libRbt.so/2013.1/901 2013/11/27
 27 29  0  0  0  0  0  0  0  0999 V2000
   14.1125    0.6409   31.6472 N   0  0  0  0  0  0  0  0  0  0  0  0
   14.4065    1.9172   32.3422 C   0  0  2  0  0  0  0  0  0  0  0  0
   13.1024    2.6957   32.4583 C   0  0  0  0  0  0  0  0  0  0  0  0
   12.7452    3.4319   33.4370 O   0  0  0  0  0  0  0  0  0  0  0  0
   15.4906    2.6639   31.5619 C   0  0  0  0  0  0  0  0  0  0  0  0
   15.1485    2.8265   30.0869 C   0  0  0  0  0  0  0  0  0  0  0  0
   13.9155    4.0314   29.4669 S   0  0  2  0  0  0  0  0  0  0  0  0
   13.7976    3.4536   27.7749 C   0  0  0  0  0  0  0  0  0  0  0  0
   15.0087    5.4831   29.3508 C   0  0  0  0  0  0  0  0  0  0  0  0
   14.8690    6.3777   30.5517 C   0  0  1  0  0  0  0  0  0  0  0  0
   15.5552    7.6420   30.3850 O   0  0  0  0  0  0  0  0  0  0  0  0
   13.4395    6.6985   30.9243 C   0  0  1  0  0  0  0  0  0  0  0  0
   13.0658    5.8613   31.9302 O   0  0  0  0  0  0  0  0  0  0  0  0
   13.6211    8.0712   31.5286 C   0  0  1  0  0  0  0  0  0  0  0  0
   14.0109    7.8570   32.8122 O   0  0  0  0  0  0  0  0  0  0  0  0
   14.7762    8.7469   30.7570 C   0  0  2  0  0  0  0  0  0  0  0  0
   12.3007    2.5462   31.5344 O   0  0  0  0  0  0  0  0  0  0  0  0
   15.1992    9.7648   25.6620 N   0  0  0  0  0  0  0  0  0  0  0  0
   16.0963    9.2099   26.6356 C   0  0  0  0  0  0  0  0  0  0  0  0
   15.8513    8.9733   28.0110 N   0  0  0  0  0  0  0  0  0  0  0  0
   14.6660    9.3114   28.3342 C   0  0  0  0  0  0  0  0  0  0  0  0
   13.6661    9.8858   27.4064 C   0  0  0  0  0  0  0  0  0  0  0  0
   13.9438   10.1072   26.1150 C   0  0  0  0  0  0  0  0  0  0  0  0
   12.9712   10.6407   25.4048 N   0  0  0  0  0  0  0  0  0  0  0  0
   12.5183   10.1646   27.9766 N   0  0  0  0  0  0  0  0  0  0  0  0
   12.7987    9.7568   29.2678 C   0  0  0  0  0  0  0  0  0  0  0  0
   14.1288    9.2179   29.5027 N   0  0  0  0  0  0  0  0  0  0  0  0
  2  1  1  6  0  0  0
  2  3  1  0  0  0  0
  2  5  1  0  0  0  0
  3  4  1  0  0  0  0
  3 17  1  0  0  0  0
  5  6  1  0  0  0  0
  7  6  1  1  0  0  0
  7  8  1  0  0  0  0
  7  9  1  0  0  0  0
 10  9  1  6  0  0  0
 10 11  1  0  0  0  0
 10 12  1  0  0  0  0
 11 16  1  0  0  0  0
 12 13  1  1  0  0  0
 12 14  1  0  0  0  0
 14 15  1  1  0  0  0
 14 16  1  0  0  0  0
 16 27  1  6  0  0  0
 18 19  2  0  0  0  0
 18 23  1  0  0  0  0
 19 20  1  0  0  0  0
 20 21  2  0  0  0  0
 21 22  1  0  0  0  0
 21 27  1  0  0  0  0
 22 23  2  0  0  0  0
 22 25  1  0  0  0  0
 23 24  1  0  0  0  0
 25 26  2  0  0  0  0
 26 27  1  0  0  0  0
M  END
>  <CHROM.1>
143.90837718,52.54604661,75.28452664,-169.28975815,-98.20634767,-170.39050661
-41.23161780,14.09469098,6.38046864,29.79967318,-1.79357001,1.35964855,-0.32424135

>  <Name>
ligand

>  <RI>
0

>  <Rbt.Current_Directory>
/home/itssahil/PROJECTS/Mol_Feturizer/Test_systems_manuscript/rnas/4aob

>  <Rbt.Executable>
rbdock ($Id: //depot/dev/client3/rdock/2013.1/src/exe/rbdock.cxx#4 $)

>  <Rbt.Library>
libRbt.so (2013.1, Build901 2013/11/27)

>  <Rbt.Parameter_File>
/export/apps/rDock/src/rDock_2013.1_src/data/scripts/dock_solv.prm

>  <Rbt.Receptor>
prm/pocket_docking_6.prm

>  <SCORE>
-8.70745

>  <SCORE.INTER>
-9.18323

>  <SCORE.INTER.CONST>
1

>  <SCORE.INTER.POLAR>
0

>  <SCORE.INTER.ROT>
7

>  <SCORE.INTER.SOLV>
17.7141

>  <SCORE.INTER.VDW>
-20.2935

>  <SCORE.INTER.norm>
-0.34012

>  <SCORE.INTRA>
0.475786

>  <SCORE.INTRA.DIHEDRAL>
1.09407

>  <SCORE.INTRA.DIHEDRAL.0>
6.31833

>  <SCORE.INTRA.POLAR>
0

>  <SCORE.INTRA.POLAR.0>
0

>  <SCORE.INTRA.REPUL>
0

>  <SCORE.INTRA.REPUL.0>
0

>  <SCORE.INTRA.SOLV>
1.0968

>  <SCORE.INTRA.SOLV.lig_0>
-48.4015

>  <SCORE.INTRA.VDW>
-0.619649

>  <SCORE.INTRA.VDW.0>
-2.83256

>  <SCORE.INTRA.norm>
0.0176217

>  <SCORE.RESTR>
0

>  <SCORE.RESTR.CAVITY>
0

>  <SCORE.RESTR.norm>
0

>  <SCORE.SYSTEM>
0

>  <SCORE.SYSTEM.CONST>
0

>  <SCORE.SYSTEM.DIHEDRAL>
0

>  <SCORE.SYSTEM.SOLV>
0

>  <SCORE.SYSTEM.norm>
0

>  <SCORE.heavy>
27

>  <SCORE.norm>
-0.322498

>  <RMSD>
6.538

$$$$
ligand
 OpenBabel02271912153D
libRbt.so/2013.1/901 2013/11/27
 27 29  0  0  0  0  0  0  0  0999 V2000
   15.6535    8.5897   35.1341 N   0  0  0  0  0  0  0  0  0  0  0  0
   14.2803    8.0412   35.2428 C   0  0  2  0  0  0  0  0  0  0  0  0
   14.0669    7.6019   36.6856 C   0  0  0  0  0  0  0  0  0  0  0  0
   13.1624    6.8079   37.1089 O   0  0  0  0  0  0  0  0  0  0  0  0
   14.1242    6.9020   34.2331 C   0  0  0  0  0  0  0  0  0  0  0  0
   13.7274    7.3934   32.8473 C   0  0  0  0  0  0  0  0  0  0  0  0
   13.7594    6.3304   31.3555 S   0  0  2  0  0  0  0  0  0  0  0  0
   12.3922    7.0707   30.4647 C   0  0  0  0  0  0  0  0  0  0  0  0
   13.0327    4.8313   32.0909 C   0  0  0  0  0  0  0  0  0  0  0  0
   13.5728    3.5831   31.4490 C   0  0  1  0  0  0  0  0  0  0  0  0
   12.9798    3.3237   30.1536 O   0  0  0  0  0  0  0  0  0  0  0  0
   15.0719    3.5833   31.2547 C   0  0  1  0  0  0  0  0  0  0  0  0
   15.6324    2.8881   32.2818 O   0  0  0  0  0  0  0  0  0  0  0  0
   15.1826    2.7222   30.0183 C   0  0  1  0  0  0  0  0  0  0  0  0
   15.1418    1.4388   30.4618 O   0  0  0  0  0  0  0  0  0  0  0  0
   13.9238    3.0020   29.1680 C   0  0  2  0  0  0  0  0  0  0  0  0
   14.8131    8.1143   37.5216 O   0  0  0  0  0  0  0  0  0  0  0  0
   12.2114    7.1842   26.5696 N   0  0  0  0  0  0  0  0  0  0  0  0
   11.5531    6.0685   27.1880 C   0  0  0  0  0  0  0  0  0  0  0  0
   12.1440    4.9838   27.8825 N   0  0  0  0  0  0  0  0  0  0  0  0
   13.4124    5.0984   27.9253 C   0  0  0  0  0  0  0  0  0  0  0  0
   14.1833    6.2103   27.3253 C   0  0  0  0  0  0  0  0  0  0  0  0
   13.5858    7.2099   26.6637 C   0  0  0  0  0  0  0  0  0  0  0  0
   14.3903    8.1244   26.1623 N   0  0  0  0  0  0  0  0  0  0  0  0
   15.4798    6.1011   27.4908 N   0  0  0  0  0  0  0  0  0  0  0  0
   15.5210    4.9172   28.2040 C   0  0  0  0  0  0  0  0  0  0  0  0
   14.2416    4.2864   28.4870 N   0  0  0  0  0  0  0  0  0  0  0  0
  2  1  1  1  0  0  0
  2  3  1  0  0  0  0
  2  5  1  0  0  0  0
  3  4  1  0  0  0  0
  3 17  1  0  0  0  0
  5  6  1  0  0  0  0
  7  6  1  1  0  0  0
  7  8  1  0  0  0  0
  7  9  1  0  0  0  0
 10  9  1  6  0  0  0
 10 11  1  0  0  0  0
 10 12  1  0  0  0  0
 11 16  1  0  0  0  0
 12 13  1  1  0  0  0
 12 14  1  0  0  0  0
 14 15  1  1  0  0  0
 14 16  1  0  0  0  0
 16 27  1  6  0  0  0
 18 19  2  0  0  0  0
 18 23  1  0  0  0  0
 19 20  1  0  0  0  0
 20 21  2  0  0  0  0
 21 22  1  0  0  0  0
 21 27  1  0  0  0  0
 22 23  2  0  0  0  0
 22 25  1  0  0  0  0
 23 24  1  0  0  0  0
 25 26  2  0  0  0  0
 26 27  1  0  0  0  0
M  END
>  <CHROM.1>
-162.17213935,-85.45955838,168.44302892,148.07744097,-148.29661516,-77.13518391
-55.60560423,13.96957834,5.65337552,30.93330118,1.26419406,-1.33663387,1.04203176

>  <Name>
ligand

>  <RI>
0

>  <Rbt.Current_Directory>
/home/itssahil/PROJECTS/Mol_Feturizer/Test_systems_manuscript/rnas/4aob

>  <Rbt.Executable>
rbdock ($Id: //depot/dev/client3/rdock/2013.1/src/exe/rbdock.cxx#4 $)

>  <Rbt.Library>
libRbt.so (2013.1, Build901 2013/11/27)

>  <Rbt.Parameter_File>
/export/apps/rDock/src/rDock_2013.1_src/data/scripts/dock_solv.prm

>  <Rbt.Receptor>
prm/pocket_docking_5.prm

>  <SCORE>
-7.10888

>  <SCORE.INTER>
-9.08095

>  <SCORE.INTER.CONST>
1

>  <SCORE.INTER.POLAR>
0

>  <SCORE.INTER.ROT>
7

>  <SCORE.INTER.SOLV>
10.9154

>  <SCORE.INTER.VDW>
-17.9591

>  <SCORE.INTER.norm>
-0.336331

>  <SCORE.INTRA>
1.97206

>  <SCORE.INTRA.DIHEDRAL>
5.27108

>  <SCORE.INTRA.DIHEDRAL.0>
6.31833

>  <SCORE.INTRA.POLAR>
0

>  <SCORE.INTRA.POLAR.0>
0

>  <SCORE.INTRA.REPUL>
0

>  <SCORE.INTRA.REPUL.0>
0

>  <SCORE.INTRA.SOLV>
0.00109127

>  <SCORE.INTRA.SOLV.lig_0>
-48.4015

>  <SCORE.INTRA.VDW>
-0.664023

>  <SCORE.INTRA.VDW.0>
-2.83256

>  <SCORE.INTRA.norm>
0.0730393

>  <SCORE.RESTR>
0

>  <SCORE.RESTR.CAVITY>
0

>  <SCORE.RESTR.norm>
0

>  <SCORE.SYSTEM>
0

>  <SCORE.SYSTEM.CONST>
0

>  <SCORE.SYSTEM.DIHEDRAL>
0

>  <SCORE.SYSTEM.SOLV>
0

>  <SCORE.SYSTEM.norm>
0

>  <SCORE.heavy>
27

>  <SCORE.norm>
-0.263292

>  <RMSD>
6.563

$$$$
ligand
 OpenBabel02271912153D
libRbt.so/2013.1/901 2013/11/27
 27 29  0  0  0  0  0  0  0  0999 V2000
   15.3278    3.6256   31.9111 N   0  0  0  0  0  0  0  0  0  0  0  0
   14.1768    3.4243   30.9984 C   0  0  2  0  0  0  0  0  0  0  0  0
   13.4410    2.1681   31.4466 C   0  0  0  0  0  0  0  0  0  0  0  0
   12.3025    2.1223   32.0205 O   0  0  0  0  0  0  0  0  0  0  0  0
   14.6968    3.3420   29.5616 C   0  0  0  0  0  0  0  0  0  0  0  0
   13.5777    3.2133   28.5367 C   0  0  0  0  0  0  0  0  0  0  0  0
   12.7240    4.6537   27.7930 S   0  0  2  0  0  0  0  0  0  0  0  0
   14.0659    5.2715   26.7790 C   0  0  0  0  0  0  0  0  0  0  0  0
   12.7461    5.7471   29.2491 C   0  0  0  0  0  0  0  0  0  0  0  0
   11.7117    6.8334   29.1403 C   0  0  1  0  0  0  0  0  0  0  0  0
   12.2168    8.1247   29.5580 O   0  0  0  0  0  0  0  0  0  0  0  0
   11.1419    7.0118   27.7516 C   0  0  1  0  0  0  0  0  0  0  0  0
    9.9558    6.3470   27.6917 O   0  0  0  0  0  0  0  0  0  0  0  0
   10.8262    8.4890   27.7785 C   0  0  1  0  0  0  0  0  0  0  0  0
    9.6194    8.5938   28.3934 O   0  0  0  0  0  0  0  0  0  0  0  0
   11.9023    9.1571   28.6627 C   0  0  2  0  0  0  0  0  0  0  0  0
   14.0405    1.1041   31.2822 O   0  0  0  0  0  0  0  0  0  0  0  0
   17.0855    9.1907   28.1077 N   0  0  0  0  0  0  0  0  0  0  0  0
   16.2140    8.9772   29.2282 C   0  0  0  0  0  0  0  0  0  0  0  0
   14.7971    8.9861   29.2442 N   0  0  0  0  0  0  0  0  0  0  0  0
   14.3232    9.2059   28.0819 C   0  0  0  0  0  0  0  0  0  0  0  0
   15.1347    9.4323   26.8651 C   0  0  0  0  0  0  0  0  0  0  0  0
   16.4737    9.4302   26.8965 C   0  0  0  0  0  0  0  0  0  0  0  0
   17.0725    9.6644   25.7470 N   0  0  0  0  0  0  0  0  0  0  0  0
   14.4185    9.6492   25.7878 N   0  0  0  0  0  0  0  0  0  0  0  0
   13.1510    9.5518   26.3318 C   0  0  0  0  0  0  0  0  0  0  0  0
   13.0772    9.2697   27.7565 N   0  0  0  0  0  0  0  0  0  0  0  0
  2  1  1  1  0  0  0
  2  3  1  0  0  0  0
  2  5  1  0  0  0  0
  3  4  1  0  0  0  0
  3 17  1  0  0  0  0
  5  6  1  0  0  0  0
  7  6  1  1  0  0  0
  7  8  1  0  0  0  0
  7  9  1  0  0  0  0
 10  9  1  6  0  0  0
 10 11  1  0  0  0  0
 10 12  1  0  0  0  0
 11 16  1  0  0  0  0
 12 13  1  1  0  0  0
 12 14  1  0  0  0  0
 14 15  1  1  0  0  0
 14 16  1  0  0  0  0
 16 27  1  6  0  0  0
 18 19  2  0  0  0  0
 18 23  1  0  0  0  0
 19 20  1  0  0  0  0
 20 21  2  0  0  0  0
 21 22  1  0  0  0  0
 21 27  1  0  0  0  0
 22 23  2  0  0  0  0
 22 25  1  0  0  0  0
 23 24  1  0  0  0  0
 25 26  2  0  0  0  0
 26 27  1  0  0  0  0
M  END
>  <CHROM.1>
108.19148369,-176.76587863,87.62733349,70.04043536,-160.09291050,-137.11421824
-41.27766020,13.45958423,6.57753895,28.61341099,-1.68850865,-0.02819401,-0.48092638

>  <Name>
ligand

>  <RI>
0

>  <Rbt.Current_Directory>
/home/itssahil/PROJECTS/Mol_Feturizer/Test_systems_manuscript/rnas/4aob

>  <Rbt.Executable>
rbdock ($Id: //depot/dev/client3/rdock/2013.1/src/exe/rbdock.cxx#4 $)

>  <Rbt.Library>
libRbt.so (2013.1, Build901 2013/11/27)

>  <Rbt.Parameter_File>
/export/apps/rDock/src/rDock_2013.1_src/data/scripts/dock_solv.prm

>  <Rbt.Receptor>
prm/pocket_docking_7.prm

>  <SCORE>
-9.75249

>  <SCORE.INTER>
-14.4172

>  <SCORE.INTER.CONST>
1

>  <SCORE.INTER.POLAR>
0

>  <SCORE.INTER.ROT>
7

>  <SCORE.INTER.SOLV>
16.1888

>  <SCORE.INTER.VDW>
-23.2744

>  <SCORE.INTER.norm>
-0.533972

>  <SCORE.INTRA>
4.66475

>  <SCORE.INTRA.DIHEDRAL>
6.26005

>  <SCORE.INTRA.DIHEDRAL.0>
6.31833

>  <SCORE.INTRA.POLAR>
0

>  <SCORE.INTRA.POLAR.0>
0

>  <SCORE.INTRA.REPUL>
0

>  <SCORE.INTRA.REPUL.0>
0

>  <SCORE.INTRA.SOLV>
-0.0900189

>  <SCORE.INTRA.SOLV.lig_0>
-48.4015

>  <SCORE.INTRA.VDW>
1.57973

>  <SCORE.INTRA.VDW.0>
-2.83256

>  <SCORE.INTRA.norm>
0.172768

>  <SCORE.RESTR>
0

>  <SCORE.RESTR.CAVITY>
0

>  <SCORE.RESTR.norm>
0

>  <SCORE.SYSTEM>
0

>  <SCORE.SYSTEM.CONST>
0

>  <SCORE.SYSTEM.DIHEDRAL>
0

>  <SCORE.SYSTEM.SOLV>
0

>  <SCORE.SYSTEM.norm>
0

>  <SCORE.heavy>
27

>  <SCORE.norm>
-0.361203

>  <RMSD>
6.634

$$$$
ligand
 OpenBabel02271912153D
libRbt.so/2013.1/901 2013/11/27
 27 29  0  0  0  0  0  0  0  0999 V2000
   18.9062    7.6142   34.4777 N   0  0  0  0  0  0  0  0  0  0  0  0
   19.9820    8.2652   33.6922 C   0  0  2  0  0  0  0  0  0  0  0  0
   19.9629    9.7528   34.0194 C   0  0  0  0  0  0  0  0  0  0  0  0
   20.2111   10.7085   33.2115 O   0  0  0  0  0  0  0  0  0  0  0  0
   19.7562    7.9683   32.2081 C   0  0  0  0  0  0  0  0  0  0  0  0
   20.2559    6.5885   31.8008 C   0  0  0  0  0  0  0  0  0  0  0  0
   20.1675    5.9524   30.0850 S   0  0  2  0  0  0  0  0  0  0  0  0
   20.5678    7.4657   29.2130 C   0  0  0  0  0  0  0  0  0  0  0  0
   18.3553    5.8409   29.9439 C   0  0  0  0  0  0  0  0  0  0  0  0
   17.8814    4.4157   30.0232 C   0  0  1  0  0  0  0  0  0  0  0  0
   17.9855    3.8696   31.3604 O   0  0  0  0  0  0  0  0  0  0  0  0
   16.4529    4.2102   29.5737 C   0  0  1  0  0  0  0  0  0  0  0  0
   16.4729    3.7732   28.2849 O   0  0  0  0  0  0  0  0  0  0  0  0
   16.0655    3.0341   30.4393 C   0  0  1  0  0  0  0  0  0  0  0  0
   16.5308    1.9345   29.7914 O   0  0  0  0  0  0  0  0  0  0  0  0
   16.8282    3.1939   31.7730 C   0  0  2  0  0  0  0  0  0  0  0  0
   19.7385   10.0436   35.1956 O   0  0  0  0  0  0  0  0  0  0  0  0
   12.4039    4.3657   34.2685 N   0  0  0  0  0  0  0  0  0  0  0  0
   12.9124    3.1628   33.6727 C   0  0  0  0  0  0  0  0  0  0  0  0
   14.1563    2.9713   33.0215 N   0  0  0  0  0  0  0  0  0  0  0  0
   14.8469    4.0422   33.0202 C   0  0  0  0  0  0  0  0  0  0  0  0
   14.4159    5.3290   33.6109 C   0  0  0  0  0  0  0  0  0  0  0  0
   13.2241    5.4711   34.2053 C   0  0  0  0  0  0  0  0  0  0  0  0
   12.9578    6.6741   34.6710 N   0  0  0  0  0  0  0  0  0  0  0  0
   15.2959    6.2918   33.4740 N   0  0  0  0  0  0  0  0  0  0  0  0
   16.2866    5.6026   32.7991 C   0  0  0  0  0  0  0  0  0  0  0  0
   16.0231    4.2007   32.5163 N   0  0  0  0  0  0  0  0  0  0  0  0
  2  1  1  1  0  0  0
  2  3  1  0  0  0  0
  2  5  1  0  0  0  0
  3  4  1  0  0  0  0
  3 17  1  0  0  0  0
  5  6  1  0  0  0  0
  7  6  1  1  0  0  0
  7  8  1  0  0  0  0
  7  9  1  0  0  0  0
 10  9  1  1  0  0  0
 10 11  1  0  0  0  0
 10 12  1  0  0  0  0
 11 16  1  0  0  0  0
 12 13  1  6  0  0  0
 12 14  1  0  0  0  0
 14 15  1  6  0  0  0
 14 16  1  0  0  0  0
 16 27  1  1  0  0  0
 18 19  2  0  0  0  0
 18 23  1  0  0  0  0
 19 20  1  0  0  0  0
 20 21  2  0  0  0  0
 21 22  1  0  0  0  0
 21 27  1  0  0  0  0
 22 23  2  0  0  0  0
 22 25  1  0  0  0  0
 23 24  1  0  0  0  0
 25 26  2  0  0  0  0
 26 27  1  0  0  0  0
M  END
>  <CHROM.1>
-144.51407173,-80.61181458,-178.45501704,38.65152120,-105.28641369,72.32379200
176.26083914,17.22110814,5.70221419,32.08461437,0.45721364,0.53278261,0.81227097

>  <Name>
ligand

>  <RI>
0

>  <Rbt.Current_Directory>
/home/itssahil/PROJECTS/Mol_Feturizer/Test_systems_manuscript/rnas/4aob

>  <Rbt.Executable>
rbdock ($Id: //depot/dev/client3/rdock/2013.1/src/exe/rbdock.cxx#4 $)

>  <Rbt.Library>
libRbt.so (2013.1, Build901 2013/11/27)

>  <Rbt.Parameter_File>
/export/apps/rDock/src/rDock_2013.1_src/data/scripts/dock_solv.prm

>  <Rbt.Receptor>
prm/pocket_docking_8.prm

>  <SCORE>
-10.351

>  <SCORE.INTER>
-11.8245

>  <SCORE.INTER.CONST>
1

>  <SCORE.INTER.POLAR>
0

>  <SCORE.INTER.ROT>
7

>  <SCORE.INTER.SOLV>
14.4998

>  <SCORE.INTER.VDW>
-20.9829

>  <SCORE.INTER.norm>
-0.437946

>  <SCORE.INTRA>
1.47355

>  <SCORE.INTRA.DIHEDRAL>
2.09343

>  <SCORE.INTRA.DIHEDRAL.0>
6.31833

>  <SCORE.INTRA.POLAR>
0

>  <SCORE.INTRA.POLAR.0>
0

>  <SCORE.INTRA.REPUL>
0

>  <SCORE.INTRA.REPUL.0>
0

>  <SCORE.INTRA.SOLV>
-0.0548518

>  <SCORE.INTRA.SOLV.lig_0>
-48.4015

>  <SCORE.INTRA.VDW>
0.454264

>  <SCORE.INTRA.VDW.0>
-2.83256

>  <SCORE.INTRA.norm>
0.0545761

>  <SCORE.RESTR>
0

>  <SCORE.RESTR.CAVITY>
0

>  <SCORE.RESTR.norm>
0

>  <SCORE.SYSTEM>
0

>  <SCORE.SYSTEM.CONST>
0

>  <SCORE.SYSTEM.DIHEDRAL>
0

>  <SCORE.SYSTEM.SOLV>
0

>  <SCORE.SYSTEM.norm>
0

>  <SCORE.heavy>
27

>  <SCORE.norm>
-0.38337

>  <RMSD>
6.638

$$$$
ligand
 OpenBabel02271912153D
libRbt.so/2013.1/901 2013/11/27
 27 29  0  0  0  0  0  0  0  0999 V2000
   13.9127    9.9392   25.3111 N   0  0  0  0  0  0  0  0  0  0  0  0
   15.0020    9.7710   26.3028 C   0  0  2  0  0  0  0  0  0  0  0  0
   16.2646    9.3793   25.5461 C   0  0  0  0  0  0  0  0  0  0  0  0
   16.3681    8.4526   24.6755 O   0  0  0  0  0  0  0  0  0  0  0  0
   14.5685    8.7306   27.3379 C   0  0  0  0  0  0  0  0  0  0  0  0
   15.6318    8.4760   28.3980 C   0  0  0  0  0  0  0  0  0  0  0  0
   15.4385    7.2459   29.7419 S   0  0  2  0  0  0  0  0  0  0  0  0
   14.4593    8.2312   30.8736 C   0  0  0  0  0  0  0  0  0  0  0  0
   17.1220    7.3472   30.4288 C   0  0  0  0  0  0  0  0  0  0  0  0
   17.3733    6.2611   31.4383 C   0  0  1  0  0  0  0  0  0  0  0  0
   18.7840    6.0532   31.6905 O   0  0  0  0  0  0  0  0  0  0  0  0
   16.7163    6.4954   32.7794 C   0  0  1  0  0  0  0  0  0  0  0  0
   15.5550    5.7863   32.8119 O   0  0  0  0  0  0  0  0  0  0  0  0
   17.6973    5.7897   33.6861 C   0  0  1  0  0  0  0  0  0  0  0  0
   17.3579    4.4751   33.6394 O   0  0  0  0  0  0  0  0  0  0  0  0
   19.0955    5.9721   33.0552 C   0  0  2  0  0  0  0  0  0  0  0  0
   17.2900    9.9886   25.8556 O   0  0  0  0  0  0  0  0  0  0  0  0
   20.6928   10.7239   31.6257 N   0  0  0  0  0  0  0  0  0  0  0  0
   20.3259    9.5443   30.8946 C   0  0  0  0  0  0  0  0  0  0  0  0
   19.8934    8.2979   31.4117 N   0  0  0  0  0  0  0  0  0  0  0  0
   19.8421    8.3186   32.6848 C   0  0  0  0  0  0  0  0  0  0  0  0
   20.1932    9.4831   33.5281 C   0  0  0  0  0  0  0  0  0  0  0  0
   20.6123   10.6398   32.9986 C   0  0  0  0  0  0  0  0  0  0  0  0
   20.9109   11.5884   33.8623 N   0  0  0  0  0  0  0  0  0  0  0  0
   20.0716    9.2571   34.8143 N   0  0  0  0  0  0  0  0  0  0  0  0
   19.6358    7.9454   34.7764 C   0  0  0  0  0  0  0  0  0  0  0  0
   19.4822    7.3514   33.4579 N   0  0  0  0  0  0  0  0  0  0  0  0
  2  1  1  6  0  0  0
  2  3  1  0  0  0  0
  2  5  1  0  0  0  0
  3  4  1  0  0  0  0
  3 17  1  0  0  0  0
  5  6  1  0  0  0  0
  7  6  1  6  0  0  0
  7  8  1  0  0  0  0
  7  9  1  0  0  0  0
 10  9  1  6  0  0  0
 10 11  1  0  0  0  0
 10 12  1  0  0  0  0
 11 16  1  0  0  0  0
 12 13  1  6  0  0  0
 12 14  1  0  0  0  0
 14 15  1  6  0  0  0
 14 16  1  0  0  0  0
 16 27  1  1  0  0  0
 18 19  2  0  0  0  0
 18 23  1  0  0  0  0
 19 20  1  0  0  0  0
 20 21  2  0  0  0  0
 21 22  1  0  0  0  0
 21 27  1  0  0  0  0
 22 23  2  0  0  0  0
 22 25  1  0  0  0  0
 23 24  1  0  0  0  0
 25 26  2  0  0  0  0
 26 27  1  0  0  0  0
M  END
>  <CHROM.1>
-49.69895632,179.43195921,-177.87713967,-81.84046759,-170.31204970,162.10489839
-18.55384008,17.60858813,8.11499508,30.75942460,-2.27129371,0.70019133,2.20176640

>  <Name>
ligand

>  <RI>
0

>  <Rbt.Current_Directory>
/home/itssahil/PROJECTS/Mol_Feturizer/Test_systems_manuscript/rnas/4aob

>  <Rbt.Executable>
rbdock ($Id: //depot/dev/client3/rdock/2013.1/src/exe/rbdock.cxx#4 $)

>  <Rbt.Library>
libRbt.so (2013.1, Build901 2013/11/27)

>  <Rbt.Parameter_File>
/export/apps/rDock/src/rDock_2013.1_src/data/scripts/dock_solv.prm

>  <Rbt.Receptor>
prm/pocket_docking_8.prm

>  <SCORE>
-6.15243

>  <SCORE.INTER>
-5.88547

>  <SCORE.INTER.CONST>
1

>  <SCORE.INTER.POLAR>
0

>  <SCORE.INTER.ROT>
7

>  <SCORE.INTER.SOLV>
14.8166

>  <SCORE.INTER.VDW>
-17.1292

>  <SCORE.INTER.norm>
-0.21798

>  <SCORE.INTRA>
-0.26696

>  <SCORE.INTRA.DIHEDRAL>
-0.67062

>  <SCORE.INTRA.DIHEDRAL.0>
6.31833

>  <SCORE.INTRA.POLAR>
0

>  <SCORE.INTRA.POLAR.0>
0

>  <SCORE.INTRA.REPUL>
0

>  <SCORE.INTRA.REPUL.0>
0

>  <SCORE.INTRA.SOLV>
-0.519093

>  <SCORE.INTRA.SOLV.lig_0>
-48.4015

>  <SCORE.INTRA.VDW>
0.327897

>  <SCORE.INTRA.VDW.0>
-2.83256

>  <SCORE.INTRA.norm>
-0.0098874

>  <SCORE.RESTR>
0

>  <SCORE.RESTR.CAVITY>
0

>  <SCORE.RESTR.norm>
0

>  <SCORE.SYSTEM>
0

>  <SCORE.SYSTEM.CONST>
0

>  <SCORE.SYSTEM.DIHEDRAL>
0

>  <SCORE.SYSTEM.SOLV>
0

>  <SCORE.SYSTEM.norm>
0

>  <SCORE.heavy>
27

>  <SCORE.norm>
-0.227868

>  <RMSD>
6.665

$$$$
ligand
 OpenBabel02271912153D
libRbt.so/2013.1/901 2013/11/27
 27 29  0  0  0  0  0  0  0  0999 V2000
   17.6064    6.8225   33.8933 N   0  0  0  0  0  0  0  0  0  0  0  0
   16.8658    5.5395   33.8310 C   0  0  2  0  0  0  0  0  0  0  0  0
   17.5930    4.6289   32.8501 C   0  0  0  0  0  0  0  0  0  0  0  0
   18.4242    4.9929   31.9534 O   0  0  0  0  0  0  0  0  0  0  0  0
   15.4169    5.8267   33.4311 C   0  0  0  0  0  0  0  0  0  0  0  0
   14.5506    4.5743   33.4163 C   0  0  0  0  0  0  0  0  0  0  0  0
   12.7537    4.5979   33.0596 S   0  0  2  0  0  0  0  0  0  0  0  0
   12.4891    2.8349   32.8793 C   0  0  0  0  0  0  0  0  0  0  0  0
   12.8392    5.1982   31.3425 C   0  0  0  0  0  0  0  0  0  0  0  0
   13.7649    4.3564   30.5080 C   0  0  1  0  0  0  0  0  0  0  0  0
   13.0577    3.5574   29.5290 O   0  0  0  0  0  0  0  0  0  0  0  0
   14.8145    5.1443   29.7580 C   0  0  1  0  0  0  0  0  0  0  0  0
   15.9709    5.0986   30.4744 O   0  0  0  0  0  0  0  0  0  0  0  0
   15.0019    4.2586   28.5485 C   0  0  1  0  0  0  0  0  0  0  0  0
   15.8683    3.2872   28.9374 O   0  0  0  0  0  0  0  0  0  0  0  0
   13.6282    3.6186   28.2495 C   0  0  2  0  0  0  0  0  0  0  0  0
   17.2981    3.4336   32.9033 O   0  0  0  0  0  0  0  0  0  0  0  0
   13.4696    7.0174   24.3001 N   0  0  0  0  0  0  0  0  0  0  0  0
   14.3980    5.9917   24.6832 C   0  0  0  0  0  0  0  0  0  0  0  0
   14.3191    5.1158   25.7942 N   0  0  0  0  0  0  0  0  0  0  0  0
   13.2615    5.3250   26.4735 C   0  0  0  0  0  0  0  0  0  0  0  0
   12.2423    6.3513   26.1598 C   0  0  0  0  0  0  0  0  0  0  0  0
   12.3628    7.1699   25.1065 C   0  0  0  0  0  0  0  0  0  0  0  0
   11.3952    8.0504   24.9536 N   0  0  0  0  0  0  0  0  0  0  0  0
   11.2474    6.3833   27.0139 N   0  0  0  0  0  0  0  0  0  0  0  0
   11.6424    5.3669   27.8640 C   0  0  0  0  0  0  0  0  0  0  0  0
   12.8900    4.6956   27.5358 N   0  0  0  0  0  0  0  0  0  0  0  0
  2  1  1  6  0  0  0
  2  3  1  0  0  0  0
  2  5  1  0  0  0  0
  3  4  1  0  0  0  0
  3 17  1  0  0  0  0
  5  6  1  0  0  0  0
  7  6  1  6  0  0  0
  7  8  1  0  0  0  0
  7  9  1  0  0  0  0
 10  9  1  6  0  0  0
 10 11  1  0  0  0  0
 10 12  1  0  0  0  0
 11 16  1  0  0  0  0
 12 13  1  1  0  0  0
 12 14  1  0  0  0  0
 14 15  1  1  0  0  0
 14 16  1  0  0  0  0
 16 27  1  6  0  0  0
 18 19  2  0  0  0  0
 18 23  1  0  0  0  0
 19 20  1  0  0  0  0
 20 21  2  0  0  0  0
 21 22  1  0  0  0  0
 21 27  1  0  0  0  0
 22 23  2  0  0  0  0
 22 25  1  0  0  0  0
 23 24  1  0  0  0  0
 25 26  2  0  0  0  0
 26 27  1  0  0  0  0
M  END
>  <CHROM.1>
-19.12622628,-176.74255074,176.87770481,168.98316976,52.92594062,109.86165146
161.76068438,14.25243158,5.08469600,29.73074985,-1.16374975,-0.08150498,-1.33983907

>  <Name>
ligand

>  <RI>
0

>  <Rbt.Current_Directory>
/home/itssahil/PROJECTS/Mol_Feturizer/Test_systems_manuscript/rnas/4aob

>  <Rbt.Executable>
rbdock ($Id: //depot/dev/client3/rdock/2013.1/src/exe/rbdock.cxx#4 $)

>  <Rbt.Library>
libRbt.so (2013.1, Build901 2013/11/27)

>  <Rbt.Parameter_File>
/export/apps/rDock/src/rDock_2013.1_src/data/scripts/dock_solv.prm

>  <Rbt.Receptor>
prm/pocket_docking_7.prm

>  <SCORE>
-13.1786

>  <SCORE.INTER>
-14.148

>  <SCORE.INTER.CONST>
1

>  <SCORE.INTER.POLAR>
0

>  <SCORE.INTER.ROT>
7

>  <SCORE.INTER.SOLV>
8.30487

>  <SCORE.INTER.VDW>
-20.467

>  <SCORE.INTER.norm>
-0.524

>  <SCORE.INTRA>
0.969431

>  <SCORE.INTRA.DIHEDRAL>
1.80671

>  <SCORE.INTRA.DIHEDRAL.0>
6.31833

>  <SCORE.INTRA.POLAR>
0

>  <SCORE.INTRA.POLAR.0>
0

>  <SCORE.INTRA.REPUL>
0

>  <SCORE.INTRA.REPUL.0>
0

>  <SCORE.INTRA.SOLV>
0.123289

>  <SCORE.INTRA.SOLV.lig_0>
-48.4015

>  <SCORE.INTRA.VDW>
0.0044306

>  <SCORE.INTRA.VDW.0>
-2.83256

>  <SCORE.INTRA.norm>
0.0359048

>  <SCORE.RESTR>
0

>  <SCORE.RESTR.CAVITY>
0

>  <SCORE.RESTR.norm>
0

>  <SCORE.SYSTEM>
0

>  <SCORE.SYSTEM.CONST>
0

>  <SCORE.SYSTEM.DIHEDRAL>
0

>  <SCORE.SYSTEM.SOLV>
0

>  <SCORE.SYSTEM.norm>
0

>  <SCORE.heavy>
27

>  <SCORE.norm>
-0.488095

>  <RMSD>
6.666

$$$$
ligand
 OpenBabel02271912153D
libRbt.so/2013.1/901 2013/11/27
 27 29  0  0  0  0  0  0  0  0999 V2000
   12.0759    2.5223   34.5402 N   0  0  0  0  0  0  0  0  0  0  0  0
   12.1351    3.5407   33.4642 C   0  0  2  0  0  0  0  0  0  0  0  0
   12.8106    2.9038   32.2566 C   0  0  0  0  0  0  0  0  0  0  0  0
   13.8604    2.1791   32.2716 O   0  0  0  0  0  0  0  0  0  0  0  0
   12.8740    4.7722   33.9924 C   0  0  0  0  0  0  0  0  0  0  0  0
   12.5550    6.0344   33.2023 C   0  0  0  0  0  0  0  0  0  0  0  0
   12.6108    6.1174   31.3730 S   0  0  2  0  0  0  0  0  0  0  0  0
   14.3562    5.7868   31.1388 C   0  0  0  0  0  0  0  0  0  0  0  0
   12.4872    7.9252   31.1926 C   0  0  0  0  0  0  0  0  0  0  0  0
   12.1473    8.3180   29.7811 C   0  0  1  0  0  0  0  0  0  0  0  0
   12.6110    9.6487   29.4482 O   0  0  0  0  0  0  0  0  0  0  0  0
   12.6965    7.3839   28.7271 C   0  0  1  0  0  0  0  0  0  0  0  0
   11.7052    6.5245   28.3646 O   0  0  0  0  0  0  0  0  0  0  0  0
   12.8894    8.3526   27.5840 C   0  0  1  0  0  0  0  0  0  0  0  0
   11.6726    8.4648   26.9905 O   0  0  0  0  0  0  0  0  0  0  0  0
   13.2710    9.7110   28.2126 C   0  0  2  0  0  0  0  0  0  0  0  0
   12.3156    3.1686   31.1596 O   0  0  0  0  0  0  0  0  0  0  0  0
   18.1786    9.4425   26.4754 N   0  0  0  0  0  0  0  0  0  0  0  0
   16.9163    9.6812   25.8348 C   0  0  0  0  0  0  0  0  0  0  0  0
   15.6329    9.7384   26.4327 N   0  0  0  0  0  0  0  0  0  0  0  0
   15.7012    9.5571   27.6921 C   0  0  0  0  0  0  0  0  0  0  0  0
   16.9507    9.3097   28.4459 C   0  0  0  0  0  0  0  0  0  0  0  0
   18.1432    9.2487   27.8391 C   0  0  0  0  0  0  0  0  0  0  0  0
   19.1717    9.0025   28.6243 N   0  0  0  0  0  0  0  0  0  0  0  0
   16.7641    9.1414   29.7332 N   0  0  0  0  0  0  0  0  0  0  0  0
   15.3904    9.2905   29.7871 C   0  0  0  0  0  0  0  0  0  0  0  0
   14.7174    9.5561   28.5257 N   0  0  0  0  0  0  0  0  0  0  0  0
  2  1  1  1  0  0  0
  2  3  1  0  0  0  0
  2  5  1  0  0  0  0
  3  4  1  0  0  0  0
  3 17  1  0  0  0  0
  5  6  1  0  0  0  0
  7  6  1  1  0  0  0
  7  8  1  0  0  0  0
  7  9  1  0  0  0  0
 10  9  1  1  0  0  0
 10 11  1  0  0  0  0
 10 12  1  0  0  0  0
 11 16  1  0  0  0  0
 12 13  1  6  0  0  0
 12 14  1  0  0  0  0
 14 15  1  1  0  0  0
 14 16  1  0  0  0  0
 16 27  1  1  0  0  0
 18 19  2  0  0  0  0
 18 23  1  0  0  0  0
 19 20  1  0  0  0  0
 20 21  2  0  0  0  0
 21 22  1  0  0  0  0
 21 27  1  0  0  0  0
 22 23  2  0  0  0  0
 22 25  1  0  0  0  0
 23 24  1  0  0  0  0
 25 26  2  0  0  0  0
 26 27  1  0  0  0  0
M  END
>  <CHROM.1>
-44.43986285,-158.61100067,-48.96461808,-63.19220911,-165.16022621,-154.07200310
-179.70147595,14.01944123,7.18217525,29.85725553,-2.02327929,-0.03438503
-0.76537479

>  <Name>
ligand

>  <RI>
0

>  <Rbt.Current_Directory>
/home/itssahil/PROJECTS/Mol_Feturizer/Test_systems_manuscript/rnas/4aob

>  <Rbt.Executable>
rbdock ($Id: //depot/dev/client3/rdock/2013.1/src/exe/rbdock.cxx#4 $)

>  <Rbt.Library>
libRbt.so (2013.1, Build901 2013/11/27)

>  <Rbt.Parameter_File>
/export/apps/rDock/src/rDock_2013.1_src/data/scripts/dock_solv.prm

>  <Rbt.Receptor>
prm/pocket_docking_7.prm

>  <SCORE>
-13.4723

>  <SCORE.INTER>
-14.2279

>  <SCORE.INTER.CONST>
1

>  <SCORE.INTER.POLAR>
0

>  <SCORE.INTER.ROT>
7

>  <SCORE.INTER.SOLV>
17.8748

>  <SCORE.INTER.VDW>
-23.7102

>  <SCORE.INTER.norm>
-0.52696

>  <SCORE.INTRA>
0.755577

>  <SCORE.INTRA.DIHEDRAL>
2.3987

>  <SCORE.INTRA.DIHEDRAL.0>
6.31833

>  <SCORE.INTRA.POLAR>
0

>  <SCORE.INTRA.POLAR.0>
0

>  <SCORE.INTRA.REPUL>
0

>  <SCORE.INTRA.REPUL.0>
0

>  <SCORE.INTRA.SOLV>
-0.409878

>  <SCORE.INTRA.SOLV.lig_0>
-48.4015

>  <SCORE.INTRA.VDW>
-0.238837

>  <SCORE.INTRA.VDW.0>
-2.83256

>  <SCORE.INTRA.norm>
0.0279843

>  <SCORE.RESTR>
0

>  <SCORE.RESTR.CAVITY>
0

>  <SCORE.RESTR.norm>
0

>  <SCORE.SYSTEM>
0

>  <SCORE.SYSTEM.CONST>
0

>  <SCORE.SYSTEM.DIHEDRAL>
0

>  <SCORE.SYSTEM.SOLV>
0

>  <SCORE.SYSTEM.norm>
0

>  <SCORE.heavy>
27

>  <SCORE.norm>
-0.498976

>  <RMSD>
6.704

$$$$
ligand
 OpenBabel02271912153D
libRbt.so/2013.1/901 2013/11/27
 27 29  0  0  0  0  0  0  0  0999 V2000
   14.8883    6.5834   32.9952 N   0  0  0  0  0  0  0  0  0  0  0  0
   13.9980    5.7569   32.1452 C   0  0  2  0  0  0  0  0  0  0  0  0
   12.9380    6.6749   31.5501 C   0  0  0  0  0  0  0  0  0  0  0  0
   12.6456    7.8510   31.9485 O   0  0  0  0  0  0  0  0  0  0  0  0
   13.4131    4.6282   32.9970 C   0  0  0  0  0  0  0  0  0  0  0  0
   12.5122    3.6946   32.1996 C   0  0  0  0  0  0  0  0  0  0  0  0
   13.1496    2.4449   31.0212 S   0  0  2  0  0  0  0  0  0  0  0  0
   13.9859    1.3726   32.1879 C   0  0  0  0  0  0  0  0  0  0  0  0
   14.4991    3.4334   30.3014 C   0  0  0  0  0  0  0  0  0  0  0  0
   14.6088    3.2208   28.8165 C   0  0  1  0  0  0  0  0  0  0  0  0
   13.4416    3.6920   28.1006 O   0  0  0  0  0  0  0  0  0  0  0  0
   15.8111    3.8813   28.1816 C   0  0  1  0  0  0  0  0  0  0  0  0
   16.7868    2.9425   28.0438 O   0  0  0  0  0  0  0  0  0  0  0  0
   15.2645    4.1647   26.8020 C   0  0  1  0  0  0  0  0  0  0  0  0
   15.4102    3.0071   26.1061 O   0  0  0  0  0  0  0  0  0  0  0  0
   13.7587    4.4636   26.9736 C   0  0  2  0  0  0  0  0  0  0  0  0
   12.2684    6.2009   30.6306 O   0  0  0  0  0  0  0  0  0  0  0  0
   10.9710    8.5144   28.7041 N   0  0  0  0  0  0  0  0  0  0  0  0
   10.6413    7.1552   28.3809 C   0  0  0  0  0  0  0  0  0  0  0  0
   11.5092    6.1339   27.9207 N   0  0  0  0  0  0  0  0  0  0  0  0
   12.7075    6.5557   27.8215 C   0  0  0  0  0  0  0  0  0  0  0  0
   13.1495    7.9330   28.1348 C   0  0  0  0  0  0  0  0  0  0  0  0
   12.2928    8.8734   28.5537 C   0  0  0  0  0  0  0  0  0  0  0  0
   12.8140   10.0621   28.7778 N   0  0  0  0  0  0  0  0  0  0  0  0
   14.4319    8.1305   27.9430 N   0  0  0  0  0  0  0  0  0  0  0  0
   14.7965    6.8679   27.5130 C   0  0  0  0  0  0  0  0  0  0  0  0
   13.7349    5.8768   27.4392 N   0  0  0  0  0  0  0  0  0  0  0  0
  2  1  1  1  0  0  0
  2  3  1  0  0  0  0
  2  5  1  0  0  0  0
  3  4  1  0  0  0  0
  3 17  1  0  0  0  0
  5  6  1  0  0  0  0
  7  6  1  1  0  0  0
  7  8  1  0  0  0  0
  7  9  1  0  0  0  0
 10  9  1  1  0  0  0
 10 11  1  0  0  0  0
 10 12  1  0  0  0  0
 11 16  1  0  0  0  0
 12 13  1  6  0  0  0
 12 14  1  0  0  0  0
 14 15  1  6  0  0  0
 14 16  1  0  0  0  0
 16 27  1  1  0  0  0
 18 19  2  0  0  0  0
 18 23  1  0  0  0  0
 19 20  1  0  0  0  0
 20 21  2  0  0  0  0
 21 22  1  0  0  0  0
 21 27  1  0  0  0  0
 22 23  2  0  0  0  0
 22 25  1  0  0  0  0
 23 24  1  0  0  0  0
 25 26  2  0  0  0  0
 26 27  1  0  0  0  0
M  END
>  <CHROM.1>
-16.03544894,-178.29783598,74.93121651,66.18629626,-139.94593819,64.76945845
-67.72074578,13.57769988,5.34480988,29.44687656,2.43416362,1.10958292,-1.01529099

>  <Name>
ligand

>  <RI>
0

>  <Rbt.Current_Directory>
/home/itssahil/PROJECTS/Mol_Feturizer/Test_systems_manuscript/rnas/4aob

>  <Rbt.Executable>
rbdock ($Id: //depot/dev/client3/rdock/2013.1/src/exe/rbdock.cxx#4 $)

>  <Rbt.Library>
libRbt.so (2013.1, Build901 2013/11/27)

>  <Rbt.Parameter_File>
/export/apps/rDock/src/rDock_2013.1_src/data/scripts/dock_solv.prm

>  <Rbt.Receptor>
prm/pocket_docking_3.prm

>  <SCORE>
-10.5956

>  <SCORE.INTER>
-10.5094

>  <SCORE.INTER.CONST>
1

>  <SCORE.INTER.POLAR>
0

>  <SCORE.INTER.ROT>
7

>  <SCORE.INTER.SOLV>
16.727

>  <SCORE.INTER.VDW>
-20.8486

>  <SCORE.INTER.norm>
-0.389236

>  <SCORE.INTRA>
-0.086214

>  <SCORE.INTRA.DIHEDRAL>
2.08711

>  <SCORE.INTRA.DIHEDRAL.0>
6.31833

>  <SCORE.INTRA.POLAR>
0

>  <SCORE.INTRA.POLAR.0>
0

>  <SCORE.INTRA.REPUL>
0

>  <SCORE.INTRA.REPUL.0>
0

>  <SCORE.INTRA.SOLV>
-0.178122

>  <SCORE.INTRA.SOLV.lig_0>
-48.4015

>  <SCORE.INTRA.VDW>
-1.04071

>  <SCORE.INTRA.VDW.0>
-2.83256

>  <SCORE.INTRA.norm>
-0.00319311

>  <SCORE.RESTR>
0

>  <SCORE.RESTR.CAVITY>
0

>  <SCORE.RESTR.norm>
0

>  <SCORE.SYSTEM>
0

>  <SCORE.SYSTEM.CONST>
0

>  <SCORE.SYSTEM.DIHEDRAL>
0

>  <SCORE.SYSTEM.SOLV>
0

>  <SCORE.SYSTEM.norm>
0

>  <SCORE.heavy>
27

>  <SCORE.norm>
-0.392429

>  <RMSD>
6.737

$$$$
ligand
 OpenBabel02271912153D
libRbt.so/2013.1/901 2013/11/27
 27 29  0  0  0  0  0  0  0  0999 V2000
   17.3016    3.8057   31.1243 N   0  0  0  0  0  0  0  0  0  0  0  0
   16.4526    3.0470   32.0740 C   0  0  2  0  0  0  0  0  0  0  0  0
   16.3763    1.6071   31.5828 C   0  0  0  0  0  0  0  0  0  0  0  0
   15.4292    1.0886   30.9034 O   0  0  0  0  0  0  0  0  0  0  0  0
   15.0859    3.7293   32.1655 C   0  0  0  0  0  0  0  0  0  0  0  0
   15.1724    5.1513   32.7036 C   0  0  0  0  0  0  0  0  0  0  0  0
   13.8038    6.3621   32.5713 S   0  0  2  0  0  0  0  0  0  0  0  0
   12.5212    5.4129   33.3866 C   0  0  0  0  0  0  0  0  0  0  0  0
   13.4386    6.1467   30.8003 C   0  0  0  0  0  0  0  0  0  0  0  0
   12.3675    7.0955   30.3373 C   0  0  1  0  0  0  0  0  0  0  0  0
   12.7314    8.4830   30.5358 O   0  0  0  0  0  0  0  0  0  0  0  0
   11.9898    6.9434   28.8816 C   0  0  1  0  0  0  0  0  0  0  0  0
   10.8654    6.1795   28.8132 O   0  0  0  0  0  0  0  0  0  0  0  0
   11.5867    8.3632   28.5589 C   0  0  1  0  0  0  0  0  0  0  0  0
   10.3012    8.4833   28.9813 O   0  0  0  0  0  0  0  0  0  0  0  0
   12.4859    9.2850   29.4121 C   0  0  2  0  0  0  0  0  0  0  0  0
   17.2998    0.8689   31.9303 O   0  0  0  0  0  0  0  0  0  0  0  0
   14.9354    9.9532   24.8593 N   0  0  0  0  0  0  0  0  0  0  0  0
   13.5644   10.0680   25.2688 C   0  0  0  0  0  0  0  0  0  0  0  0
   13.0212    9.8646   26.5617 N   0  0  0  0  0  0  0  0  0  0  0  0
   13.9292    9.5577   27.4014 C   0  0  0  0  0  0  0  0  0  0  0  0
   15.3677    9.4199   27.0812 C   0  0  0  0  0  0  0  0  0  0  0  0
   15.8380    9.6069   25.8412 C   0  0  0  0  0  0  0  0  0  0  0  0
   17.1349    9.4335   25.6898 N   0  0  0  0  0  0  0  0  0  0  0  0
   16.1063    9.0843   28.1118 N   0  0  0  0  0  0  0  0  0  0  0  0
   15.1259    9.0176   29.0845 C   0  0  0  0  0  0  0  0  0  0  0  0
   13.7682    9.3163   28.6577 N   0  0  0  0  0  0  0  0  0  0  0  0
  2  1  1  6  0  0  0
  2  3  1  0  0  0  0
  2  5  1  0  0  0  0
  3  4  1  0  0  0  0
  3 17  1  0  0  0  0
  5  6  1  0  0  0  0
  7  6  1  6  0  0  0
  7  8  1  0  0  0  0
  7  9  1  0  0  0  0
 10  9  1  6  0  0  0
 10 11  1  0  0  0  0
 10 12  1  0  0  0  0
 11 16  1  0  0  0  0
 12 13  1  1  0  0  0
 12 14  1  0  0  0  0
 14 15  1  1  0  0  0
 14 16  1  0  0  0  0
 16 27  1  6  0  0  0
 18 19  2  0  0  0  0
 18 23  1  0  0  0  0
 19 20  1  0  0  0  0
 20 21  2  0  0  0  0
 21 22  1  0  0  0  0
 21 27  1  0  0  0  0
 22 23  2  0  0  0  0
 22 25  1  0  0  0  0
 23 24  1  0  0  0  0
 25 26  2  0  0  0  0
 26 27  1  0  0  0  0
M  END
>  <CHROM.1>
-98.28851934,-62.11690911,165.20124629,56.33883158,-176.67381262,59.34587708
156.66039435,14.16644175,6.82063359,29.60767597,-1.34830683,0.45349547,-0.76291014

>  <Name>
ligand

>  <RI>
0

>  <Rbt.Current_Directory>
/home/itssahil/PROJECTS/Mol_Feturizer/Test_systems_manuscript/rnas/4aob

>  <Rbt.Executable>
rbdock ($Id: //depot/dev/client3/rdock/2013.1/src/exe/rbdock.cxx#4 $)

>  <Rbt.Library>
libRbt.so (2013.1, Build901 2013/11/27)

>  <Rbt.Parameter_File>
/export/apps/rDock/src/rDock_2013.1_src/data/scripts/dock_solv.prm

>  <Rbt.Receptor>
prm/pocket_docking_6.prm

>  <SCORE>
-12.7446

>  <SCORE.INTER>
-12.8743

>  <SCORE.INTER.CONST>
1

>  <SCORE.INTER.POLAR>
0

>  <SCORE.INTER.ROT>
7

>  <SCORE.INTER.SOLV>
15.8211

>  <SCORE.INTER.VDW>
-22.1232

>  <SCORE.INTER.norm>
-0.476825

>  <SCORE.INTRA>
0.129681

>  <SCORE.INTRA.DIHEDRAL>
-1.68755

>  <SCORE.INTRA.DIHEDRAL.0>
6.31833

>  <SCORE.INTRA.POLAR>
0

>  <SCORE.INTRA.POLAR.0>
0

>  <SCORE.INTRA.REPUL>
0

>  <SCORE.INTRA.REPUL.0>
0

>  <SCORE.INTRA.SOLV>
0.0142281

>  <SCORE.INTRA.SOLV.lig_0>
-48.4015

>  <SCORE.INTRA.VDW>
0.966344

>  <SCORE.INTRA.VDW.0>
-2.83256

>  <SCORE.INTRA.norm>
0.004803

>  <SCORE.RESTR>
0

>  <SCORE.RESTR.CAVITY>
0

>  <SCORE.RESTR.norm>
0

>  <SCORE.SYSTEM>
0

>  <SCORE.SYSTEM.CONST>
0

>  <SCORE.SYSTEM.DIHEDRAL>
0

>  <SCORE.SYSTEM.SOLV>
0

>  <SCORE.SYSTEM.norm>
0

>  <SCORE.heavy>
27

>  <SCORE.norm>
-0.472022

>  <RMSD>
6.754

$$$$
ligand
 OpenBabel02271912153D
libRbt.so/2013.1/901 2013/11/27
 27 29  0  0  0  0  0  0  0  0999 V2000
   13.4323    6.9440   33.7321 N   0  0  0  0  0  0  0  0  0  0  0  0
   13.2801    5.8124   32.7863 C   0  0  2  0  0  0  0  0  0  0  0  0
   12.4857    6.3118   31.5863 C   0  0  0  0  0  0  0  0  0  0  0  0
   12.0891    7.5076   31.3861 O   0  0  0  0  0  0  0  0  0  0  0  0
   12.6072    4.6480   33.5163 C   0  0  0  0  0  0  0  0  0  0  0  0
   13.2119    3.2978   33.1548 C   0  0  0  0  0  0  0  0  0  0  0  0
   13.1480    2.5860   31.4678 S   0  0  2  0  0  0  0  0  0  0  0  0
   14.0405    1.0642   31.7808 C   0  0  0  0  0  0  0  0  0  0  0  0
   14.3923    3.6618   30.6864 C   0  0  0  0  0  0  0  0  0  0  0  0
   14.6100    3.2975   29.2435 C   0  0  1  0  0  0  0  0  0  0  0  0
   13.4090    3.4410   28.4474 O   0  0  0  0  0  0  0  0  0  0  0  0
   15.6919    4.0995   28.5568 C   0  0  1  0  0  0  0  0  0  0  0  0
   16.8348    3.3604   28.5617 O   0  0  0  0  0  0  0  0  0  0  0  0
   15.1663    4.1019   27.1404 C   0  0  1  0  0  0  0  0  0  0  0  0
   15.5636    2.9200   26.6010 O   0  0  0  0  0  0  0  0  0  0  0  0
   13.6248    4.1183   27.2387 C   0  0  2  0  0  0  0  0  0  0  0  0
   12.1538    5.4554   30.7648 O   0  0  0  0  0  0  0  0  0  0  0  0
   10.0075    7.8284   27.8093 N   0  0  0  0  0  0  0  0  0  0  0  0
    9.9422    6.4130   27.5791 C   0  0  0  0  0  0  0  0  0  0  0  0
   11.0186    5.5006   27.4497 N   0  0  0  0  0  0  0  0  0  0  0  0
   12.1414    6.0895   27.5774 C   0  0  0  0  0  0  0  0  0  0  0  0
   12.3150    7.5389   27.8215 C   0  0  0  0  0  0  0  0  0  0  0  0
   11.2694    8.3699   27.9229 C   0  0  0  0  0  0  0  0  0  0  0  0
   11.5648    9.6382   28.1206 N   0  0  0  0  0  0  0  0  0  0  0  0
   13.5696    7.9120   27.9048 N   0  0  0  0  0  0  0  0  0  0  0  0
   14.1855    6.6881   27.7181 C   0  0  0  0  0  0  0  0  0  0  0  0
   13.3088    5.5450   27.5200 N   0  0  0  0  0  0  0  0  0  0  0  0
  2  1  1  1  0  0  0
  2  3  1  0  0  0  0
  2  5  1  0  0  0  0
  3  4  1  0  0  0  0
  3 17  1  0  0  0  0
  5  6  1  0  0  0  0
  7  6  1  1  0  0  0
  7  8  1  0  0  0  0
  7  9  1  0  0  0  0
 10  9  1  1  0  0  0
 10 11  1  0  0  0  0
 10 12  1  0  0  0  0
 11 16  1  0  0  0  0
 12 13  1  6  0  0  0
 12 14  1  0  0  0  0
 14 15  1  1  0  0  0
 14 16  1  0  0  0  0
 16 27  1  1  0  0  0
 18 19  2  0  0  0  0
 18 23  1  0  0  0  0
 19 20  1  0  0  0  0
 20 21  2  0  0  0  0
 21 22  1  0  0  0  0
 21 27  1  0  0  0  0
 22 23  2  0  0  0  0
 22 25  1  0  0  0  0
 23 24  1  0  0  0  0
 25 26  2  0  0  0  0
 26 27  1  0  0  0  0
M  END
>  <CHROM.1>
3.87999294,-139.39664744,-63.75792100,179.25024659,178.50618961,61.25381842
-79.80561741,13.19152654,5.14504778,29.54271724,0.81928836,-0.94953408,1.86578813

>  <Name>
ligand

>  <RI>
0

>  <Rbt.Current_Directory>
/home/itssahil/PROJECTS/Mol_Feturizer/Test_systems_manuscript/rnas/4aob

>  <Rbt.Executable>
rbdock ($Id: //depot/dev/client3/rdock/2013.1/src/exe/rbdock.cxx#4 $)

>  <Rbt.Library>
libRbt.so (2013.1, Build901 2013/11/27)

>  <Rbt.Parameter_File>
/export/apps/rDock/src/rDock_2013.1_src/data/scripts/dock_solv.prm

>  <Rbt.Receptor>
prm/pocket_docking_4.prm

>  <SCORE>
-15.4078

>  <SCORE.INTER>
-14.6622

>  <SCORE.INTER.CONST>
1

>  <SCORE.INTER.POLAR>
0

>  <SCORE.INTER.ROT>
7

>  <SCORE.INTER.SOLV>
15.1029

>  <SCORE.INTER.VDW>
-23.0758

>  <SCORE.INTER.norm>
-0.543045

>  <SCORE.INTRA>
-0.745534

>  <SCORE.INTRA.DIHEDRAL>
1.77904

>  <SCORE.INTRA.DIHEDRAL.0>
6.31833

>  <SCORE.INTRA.POLAR>
0

>  <SCORE.INTRA.POLAR.0>
0

>  <SCORE.INTRA.REPUL>
0

>  <SCORE.INTRA.REPUL.0>
0

>  <SCORE.INTRA.SOLV>
-0.37687

>  <SCORE.INTRA.SOLV.lig_0>
-48.4015

>  <SCORE.INTRA.VDW>
-1.44662

>  <SCORE.INTRA.VDW.0>
-2.83256

>  <SCORE.INTRA.norm>
-0.0276124

>  <SCORE.RESTR>
0

>  <SCORE.RESTR.CAVITY>
0

>  <SCORE.RESTR.norm>
0

>  <SCORE.SYSTEM>
0

>  <SCORE.SYSTEM.CONST>
0

>  <SCORE.SYSTEM.DIHEDRAL>
0

>  <SCORE.SYSTEM.SOLV>
0

>  <SCORE.SYSTEM.norm>
0

>  <SCORE.heavy>
27

>  <SCORE.norm>
-0.570658

>  <RMSD>
6.771

$$$$
ligand
 OpenBabel02271912153D
libRbt.so/2013.1/901 2013/11/27
 27 29  0  0  0  0  0  0  0  0999 V2000
   14.1527    6.8858   24.5037 N   0  0  0  0  0  0  0  0  0  0  0  0
   13.3573    7.3397   23.3376 C   0  0  2  0  0  0  0  0  0  0  0  0
   13.3638    8.8629   23.3335 C   0  0  0  0  0  0  0  0  0  0  0  0
   13.8547    9.6198   24.2355 O   0  0  0  0  0  0  0  0  0  0  0  0
   11.9530    6.7399   23.4365 C   0  0  0  0  0  0  0  0  0  0  0  0
   11.2185    7.1654   24.7009 C   0  0  0  0  0  0  0  0  0  0  0  0
   11.7016    6.6128   26.3795 S   0  0  2  0  0  0  0  0  0  0  0  0
   10.1239    6.8275   27.2012 C   0  0  0  0  0  0  0  0  0  0  0  0
   12.6488    8.0873   26.8742 C   0  0  0  0  0  0  0  0  0  0  0  0
   13.1457    7.9760   28.2894 C   0  0  1  0  0  0  0  0  0  0  0  0
   14.3312    7.1516   28.3982 O   0  0  0  0  0  0  0  0  0  0  0  0
   13.4699    9.3014   28.9399 C   0  0  1  0  0  0  0  0  0  0  0  0
   12.4055    9.6700   29.7039 O   0  0  0  0  0  0  0  0  0  0  0  0
   14.5713    8.8757   29.8823 C   0  0  1  0  0  0  0  0  0  0  0  0
   13.9423    8.3797   30.9795 O   0  0  0  0  0  0  0  0  0  0  0  0
   15.3386    7.7329   29.1814 C   0  0  2  0  0  0  0  0  0  0  0  0
   12.7864    9.4023   22.3880 O   0  0  0  0  0  0  0  0  0  0  0  0
   20.1058    9.4975   28.0259 N   0  0  0  0  0  0  0  0  0  0  0  0
   19.5758    8.7256   29.1139 C   0  0  0  0  0  0  0  0  0  0  0  0
   18.2391    8.2975   29.3086 N   0  0  0  0  0  0  0  0  0  0  0  0
   17.4883    8.6767   28.3514 C   0  0  0  0  0  0  0  0  0  0  0  0
   17.9378    9.4690   27.1849 C   0  0  0  0  0  0  0  0  0  0  0  0
   19.2094    9.8663   27.0466 C   0  0  0  0  0  0  0  0  0  0  0  0
   19.4707   10.5821   25.9722 N   0  0  0  0  0  0  0  0  0  0  0  0
   16.9772    9.7481   26.3366 N   0  0  0  0  0  0  0  0  0  0  0  0
   15.9210    9.1218   26.9723 C   0  0  0  0  0  0  0  0  0  0  0  0
   16.2262    8.4458   28.2231 N   0  0  0  0  0  0  0  0  0  0  0  0
  2  1  1  1  0  0  0
  2  3  1  0  0  0  0
  2  5  1  0  0  0  0
  3  4  1  0  0  0  0
  3 17  1  0  0  0  0
  5  6  1  0  0  0  0
  7  6  1  6  0  0  0
  7  8  1  0  0  0  0
  7  9  1  0  0  0  0
 10  9  1  6  0  0  0
 10 11  1  0  0  0  0
 10 12  1  0  0  0  0
 11 16  1  0  0  0  0
 12 13  1  1  0  0  0
 12 14  1  0  0  0  0
 14 15  1  1  0  0  0
 14 16  1  0  0  0  0
 16 27  1  6  0  0  0
 18 19  2  0  0  0  0
 18 23  1  0  0  0  0
 19 20  1  0  0  0  0
 20 21  2  0  0  0  0
 21 22  1  0  0  0  0
 21 27  1  0  0  0  0
 22 23  2  0  0  0  0
 22 25  1  0  0  0  0
 23 24  1  0  0  0  0
 25 26  2  0  0  0  0
 26 27  1  0  0  0  0
M  END
>  <CHROM.1>
-6.04701735,60.27006988,-68.93711473,-156.16259240,177.11303334,79.55933764
-151.06712662,14.68566872,8.38539054,26.93830502,-2.71205971,0.28916330,1.61900649

>  <Name>
ligand

>  <RI>
0

>  <Rbt.Current_Directory>
/home/itssahil/PROJECTS/Mol_Feturizer/Test_systems_manuscript/rnas/4aob

>  <Rbt.Executable>
rbdock ($Id: //depot/dev/client3/rdock/2013.1/src/exe/rbdock.cxx#4 $)

>  <Rbt.Library>
libRbt.so (2013.1, Build901 2013/11/27)

>  <Rbt.Parameter_File>
/export/apps/rDock/src/rDock_2013.1_src/data/scripts/dock_solv.prm

>  <Rbt.Receptor>
prm/pocket_docking_8.prm

>  <SCORE>
-7.98797

>  <SCORE.INTER>
-8.88773

>  <SCORE.INTER.CONST>
1

>  <SCORE.INTER.POLAR>
0

>  <SCORE.INTER.ROT>
7

>  <SCORE.INTER.SOLV>
14.6133

>  <SCORE.INTER.VDW>
-19.0629

>  <SCORE.INTER.norm>
-0.329175

>  <SCORE.INTRA>
0.899764

>  <SCORE.INTRA.DIHEDRAL>
0.694217

>  <SCORE.INTRA.DIHEDRAL.0>
6.31833

>  <SCORE.INTRA.POLAR>
0

>  <SCORE.INTRA.POLAR.0>
0

>  <SCORE.INTRA.REPUL>
0

>  <SCORE.INTRA.REPUL.0>
0

>  <SCORE.INTRA.SOLV>
2.84466

>  <SCORE.INTRA.SOLV.lig_0>
-48.4015

>  <SCORE.INTRA.VDW>
-0.869676

>  <SCORE.INTRA.VDW.0>
-2.83256

>  <SCORE.INTRA.norm>
0.0333246

>  <SCORE.RESTR>
0

>  <SCORE.RESTR.CAVITY>
0

>  <SCORE.RESTR.norm>
0

>  <SCORE.SYSTEM>
0

>  <SCORE.SYSTEM.CONST>
0

>  <SCORE.SYSTEM.DIHEDRAL>
0

>  <SCORE.SYSTEM.SOLV>
0

>  <SCORE.SYSTEM.norm>
0

>  <SCORE.heavy>
27

>  <SCORE.norm>
-0.295851

>  <RMSD>
6.784

$$$$
ligand
 OpenBabel02271912153D
libRbt.so/2013.1/901 2013/11/27
 27 29  0  0  0  0  0  0  0  0999 V2000
   14.4766    6.7299   34.5551 N   0  0  0  0  0  0  0  0  0  0  0  0
   13.5389    6.6515   33.4093 C   0  0  2  0  0  0  0  0  0  0  0  0
   13.2216    8.0746   32.9686 C   0  0  0  0  0  0  0  0  0  0  0  0
   12.5676    8.4164   31.9280 O   0  0  0  0  0  0  0  0  0  0  0  0
   12.3018    5.8601   33.8392 C   0  0  0  0  0  0  0  0  0  0  0  0
   12.5103    4.3535   33.7629 C   0  0  0  0  0  0  0  0  0  0  0  0
   12.7238    3.4459   32.1858 S   0  0  2  0  0  0  0  0  0  0  0  0
   13.4059    1.9230   32.8387 C   0  0  0  0  0  0  0  0  0  0  0  0
   14.1841    4.3415   31.5680 C   0  0  0  0  0  0  0  0  0  0  0  0
   14.8635    3.5906   30.4561 C   0  0  1  0  0  0  0  0  0  0  0  0
   13.9213    2.9961   29.5310 O   0  0  0  0  0  0  0  0  0  0  0  0
   15.8187    4.4265   29.6352 C   0  0  1  0  0  0  0  0  0  0  0  0
   17.0799    4.2042   30.0962 O   0  0  0  0  0  0  0  0  0  0  0  0
   15.7020    3.7326   28.2983 C   0  0  1  0  0  0  0  0  0  0  0  0
   16.5397    2.6652   28.3660 O   0  0  0  0  0  0  0  0  0  0  0  0
   14.2472    3.2254   28.1866 C   0  0  2  0  0  0  0  0  0  0  0  0
   13.6964    8.9736   33.6650 O   0  0  0  0  0  0  0  0  0  0  0  0
   13.5080    7.0793   24.7550 N   0  0  0  0  0  0  0  0  0  0  0  0
   14.3787    5.9384   24.7858 C   0  0  0  0  0  0  0  0  0  0  0  0
   14.4770    4.9443   25.7908 N   0  0  0  0  0  0  0  0  0  0  0  0
   13.6508    5.1599   26.7366 C   0  0  0  0  0  0  0  0  0  0  0  0
   12.7099    6.3009   26.7960 C   0  0  0  0  0  0  0  0  0  0  0  0
   12.6594    7.2277   25.8304 C   0  0  0  0  0  0  0  0  0  0  0  0
   11.7911    8.2004   26.0171 N   0  0  0  0  0  0  0  0  0  0  0  0
   11.9671    6.3146   27.8768 N   0  0  0  0  0  0  0  0  0  0  0  0
   12.4410    5.1723   28.4952 C   0  0  0  0  0  0  0  0  0  0  0  0
   13.4837    4.4407   27.7937 N   0  0  0  0  0  0  0  0  0  0  0  0
  2  1  1  1  0  0  0
  2  3  1  0  0  0  0
  2  5  1  0  0  0  0
  3  4  1  0  0  0  0
  3 17  1  0  0  0  0
  5  6  1  0  0  0  0
  7  6  1  1  0  0  0
  7  8  1  0  0  0  0
  7  9  1  0  0  0  0
 10  9  1  1  0  0  0
 10 11  1  0  0  0  0
 10 12  1  0  0  0  0
 11 16  1  0  0  0  0
 12 13  1  1  0  0  0
 12 14  1  0  0  0  0
 14 15  1  1  0  0  0
 14 16  1  0  0  0  0
 16 27  1  1  0  0  0
 18 19  2  0  0  0  0
 18 23  1  0  0  0  0
 19 20  1  0  0  0  0
 20 21  2  0  0  0  0
 21 22  1  0  0  0  0
 21 27  1  0  0  0  0
 22 23  2  0  0  0  0
 22 25  1  0  0  0  0
 23 24  1  0  0  0  0
 25 26  2  0  0  0  0
 26 27  1  0  0  0  0
M  END
>  <CHROM.1>
171.96527375,-82.10575800,-67.71030766,163.34255042,163.85355497,41.04450573
166.41276411,13.75328914,5.23669425,29.84813390,1.69009565,-1.13922103,1.68729731

>  <Name>
ligand

>  <RI>
0

>  <Rbt.Current_Directory>
/home/itssahil/PROJECTS/Mol_Feturizer/Test_systems_manuscript/rnas/4aob

>  <Rbt.Executable>
rbdock ($Id: //depot/dev/client3/rdock/2013.1/src/exe/rbdock.cxx#4 $)

>  <Rbt.Library>
libRbt.so (2013.1, Build901 2013/11/27)

>  <Rbt.Parameter_File>
/export/apps/rDock/src/rDock_2013.1_src/data/scripts/dock_solv.prm

>  <Rbt.Receptor>
prm/pocket_docking_4.prm

>  <SCORE>
-12.9948

>  <SCORE.INTER>
-14.2069

>  <SCORE.INTER.CONST>
1

>  <SCORE.INTER.POLAR>
0

>  <SCORE.INTER.ROT>
7

>  <SCORE.INTER.SOLV>
9.49119

>  <SCORE.INTER.VDW>
-20.9017

>  <SCORE.INTER.norm>
-0.526182

>  <SCORE.INTRA>
1.21214

>  <SCORE.INTRA.DIHEDRAL>
0.469399

>  <SCORE.INTRA.DIHEDRAL.0>
6.31833

>  <SCORE.INTRA.POLAR>
0

>  <SCORE.INTRA.POLAR.0>
0

>  <SCORE.INTRA.REPUL>
0

>  <SCORE.INTRA.REPUL.0>
0

>  <SCORE.INTRA.SOLV>
0.705517

>  <SCORE.INTRA.SOLV.lig_0>
-48.4015

>  <SCORE.INTRA.VDW>
0.624683

>  <SCORE.INTRA.VDW.0>
-2.83256

>  <SCORE.INTRA.norm>
0.0448941

>  <SCORE.RESTR>
0

>  <SCORE.RESTR.CAVITY>
0

>  <SCORE.RESTR.norm>
0

>  <SCORE.SYSTEM>
0

>  <SCORE.SYSTEM.CONST>
0

>  <SCORE.SYSTEM.DIHEDRAL>
0

>  <SCORE.SYSTEM.SOLV>
0

>  <SCORE.SYSTEM.norm>
0

>  <SCORE.heavy>
27

>  <SCORE.norm>
-0.481287

>  <RMSD>
6.800

$$$$
ligand
 OpenBabel02271912153D
libRbt.so/2013.1/901 2013/11/27
 27 29  0  0  0  0  0  0  0  0999 V2000
   14.9606    7.3711   33.8309 N   0  0  0  0  0  0  0  0  0  0  0  0
   14.3396    6.1848   33.1941 C   0  0  2  0  0  0  0  0  0  0  0  0
   12.9192    6.0585   33.7295 C   0  0  0  0  0  0  0  0  0  0  0  0
   12.4255    6.6909   34.7214 O   0  0  0  0  0  0  0  0  0  0  0  0
   15.2082    4.9590   33.4850 C   0  0  0  0  0  0  0  0  0  0  0  0
   15.3002    4.0075   32.2996 C   0  0  0  0  0  0  0  0  0  0  0  0
   13.9568    3.7967   31.0719 S   0  0  2  0  0  0  0  0  0  0  0  0
   12.9973    2.5503   31.9301 C   0  0  0  0  0  0  0  0  0  0  0  0
   14.8883    2.8437   29.8308 C   0  0  0  0  0  0  0  0  0  0  0  0
   14.6208    3.3412   28.4369 C   0  0  1  0  0  0  0  0  0  0  0  0
   13.2077    3.5106   28.1696 O   0  0  0  0  0  0  0  0  0  0  0  0
   15.2918    4.6549   28.1067 C   0  0  1  0  0  0  0  0  0  0  0  0
   16.4379    4.3853   27.4238 O   0  0  0  0  0  0  0  0  0  0  0  0
   14.3022    5.2202   27.1150 C   0  0  1  0  0  0  0  0  0  0  0  0
   14.6132    4.6492   25.9222 O   0  0  0  0  0  0  0  0  0  0  0  0
   12.9039    4.7348   27.5570 C   0  0  2  0  0  0  0  0  0  0  0  0
   12.2064    5.2199   33.1754 O   0  0  0  0  0  0  0  0  0  0  0  0
   12.7869    9.6084   29.4033 N   0  0  0  0  0  0  0  0  0  0  0  0
   13.1792    9.0384   28.1456 C   0  0  0  0  0  0  0  0  0  0  0  0
   13.1541    7.6747   27.7613 N   0  0  0  0  0  0  0  0  0  0  0  0
   12.7055    6.9384   28.6996 C   0  0  0  0  0  0  0  0  0  0  0  0
   12.2710    7.4283   30.0269 C   0  0  0  0  0  0  0  0  0  0  0  0
   12.3249    8.7257   30.3551 C   0  0  0  0  0  0  0  0  0  0  0  0
   11.9267    9.0235   31.5747 N   0  0  0  0  0  0  0  0  0  0  0  0
   11.8584    6.4767   30.8298 N   0  0  0  0  0  0  0  0  0  0  0  0
   12.0296    5.3851   29.9985 C   0  0  0  0  0  0  0  0  0  0  0  0
   12.5495    5.6588   28.6683 N   0  0  0  0  0  0  0  0  0  0  0  0
  2  1  1  1  0  0  0
  2  3  1  0  0  0  0
  2  5  1  0  0  0  0
  3  4  1  0  0  0  0
  3 17  1  0  0  0  0
  5  6  1  0  0  0  0
  7  6  1  1  0  0  0
  7  8  1  0  0  0  0
  7  9  1  0  0  0  0
 10  9  1  1  0  0  0
 10 11  1  0  0  0  0
 10 12  1  0  0  0  0
 11 16  1  0  0  0  0
 12 13  1  6  0  0  0
 12 14  1  0  0  0  0
 14 15  1  6  0  0  0
 14 16  1  0  0  0  0
 16 27  1  1  0  0  0
 18 19  2  0  0  0  0
 18 23  1  0  0  0  0
 19 20  1  0  0  0  0
 20 21  2  0  0  0  0
 21 22  1  0  0  0  0
 21 27  1  0  0  0  0
 22 23  2  0  0  0  0
 22 25  1  0  0  0  0
 23 24  1  0  0  0  0
 25 26  2  0  0  0  0
 26 27  1  0  0  0  0
M  END
>  <CHROM.1>
-11.96312538,-141.62567310,-30.52105982,-86.25454631,-135.91781363,-47.93206077
150.52602469,13.57666110,5.62612871,30.25721991,-2.04467120,1.17260555,-1.40109567

>  <Name>
ligand

>  <RI>
0

>  <Rbt.Current_Directory>
/home/itssahil/PROJECTS/Mol_Feturizer/Test_systems_manuscript/rnas/4aob

>  <Rbt.Executable>
rbdock ($Id: //depot/dev/client3/rdock/2013.1/src/exe/rbdock.cxx#4 $)

>  <Rbt.Library>
libRbt.so (2013.1, Build901 2013/11/27)

>  <Rbt.Parameter_File>
/export/apps/rDock/src/rDock_2013.1_src/data/scripts/dock_solv.prm

>  <Rbt.Receptor>
prm/pocket_docking_2.prm

>  <SCORE>
1.33427

>  <SCORE.INTER>
-4.91732

>  <SCORE.INTER.CONST>
1

>  <SCORE.INTER.POLAR>
0

>  <SCORE.INTER.ROT>
7

>  <SCORE.INTER.SOLV>
18.5286

>  <SCORE.INTER.VDW>
-17.7211

>  <SCORE.INTER.norm>
-0.182123

>  <SCORE.INTRA>
4.93583

>  <SCORE.INTRA.DIHEDRAL>
9.32265

>  <SCORE.INTRA.DIHEDRAL.0>
6.31833

>  <SCORE.INTRA.POLAR>
0

>  <SCORE.INTRA.POLAR.0>
0

>  <SCORE.INTRA.REPUL>
0

>  <SCORE.INTRA.REPUL.0>
0

>  <SCORE.INTRA.SOLV>
0.952605

>  <SCORE.INTRA.SOLV.lig_0>
-48.4015

>  <SCORE.INTRA.VDW>
-0.201798

>  <SCORE.INTRA.VDW.0>
-2.83256

>  <SCORE.INTRA.norm>
0.182808

>  <SCORE.RESTR>
1.31576

>  <SCORE.RESTR.CAVITY>
1.31576

>  <SCORE.RESTR.norm>
0.0487319

>  <SCORE.SYSTEM>
0

>  <SCORE.SYSTEM.CONST>
0

>  <SCORE.SYSTEM.DIHEDRAL>
0

>  <SCORE.SYSTEM.SOLV>
0

>  <SCORE.SYSTEM.norm>
0

>  <SCORE.heavy>
27

>  <SCORE.norm>
0.0494175

>  <RMSD>
6.802

$$$$
ligand
 OpenBabel02271912153D
libRbt.so/2013.1/901 2013/11/27
 27 29  0  0  0  0  0  0  0  0999 V2000
   15.1970    6.0752   33.3935 N   0  0  0  0  0  0  0  0  0  0  0  0
   13.8305    5.5027   33.3381 C   0  0  2  0  0  0  0  0  0  0  0  0
   12.9634    6.2701   34.3279 C   0  0  0  0  0  0  0  0  0  0  0  0
   13.3502    6.7948   35.4244 O   0  0  0  0  0  0  0  0  0  0  0  0
   13.9121    4.0045   33.6386 C   0  0  0  0  0  0  0  0  0  0  0  0
   12.7765    3.2136   33.0030 C   0  0  0  0  0  0  0  0  0  0  0  0
   12.9231    2.3656   31.3856 S   0  0  2  0  0  0  0  0  0  0  0  0
   14.0790    1.0799   31.8563 C   0  0  0  0  0  0  0  0  0  0  0  0
   13.9679    3.5961   30.5427 C   0  0  0  0  0  0  0  0  0  0  0  0
   14.1005    3.2961   29.0749 C   0  0  1  0  0  0  0  0  0  0  0  0
   12.9614    3.7572   28.3089 O   0  0  0  0  0  0  0  0  0  0  0  0
   15.3333    3.8863   28.4292 C   0  0  1  0  0  0  0  0  0  0  0  0
   16.2845    2.9150   28.3654 O   0  0  0  0  0  0  0  0  0  0  0  0
   14.8220    4.1052   27.0245 C   0  0  1  0  0  0  0  0  0  0  0  0
   14.9485    2.9062   26.3985 O   0  0  0  0  0  0  0  0  0  0  0  0
   13.3223    4.4542   27.1470 C   0  0  2  0  0  0  0  0  0  0  0  0
   11.7631    6.3346   34.0566 O   0  0  0  0  0  0  0  0  0  0  0  0
   12.1442    8.1051   30.6766 N   0  0  0  0  0  0  0  0  0  0  0  0
   12.0402    6.6735   30.6647 C   0  0  0  0  0  0  0  0  0  0  0  0
   12.4101    5.7815   29.6277 N   0  0  0  0  0  0  0  0  0  0  0  0
   12.8936    6.4086   28.6293 C   0  0  0  0  0  0  0  0  0  0  0  0
   13.0478    7.8782   28.5458 C   0  0  0  0  0  0  0  0  0  0  0  0
   12.6713    8.6874   29.5445 C   0  0  0  0  0  0  0  0  0  0  0  0
   12.8454    9.9757   29.3324 N   0  0  0  0  0  0  0  0  0  0  0  0
   13.5600    8.2899   27.4107 N   0  0  0  0  0  0  0  0  0  0  0  0
   13.7335    7.0707   26.7819 C   0  0  0  0  0  0  0  0  0  0  0  0
   13.3294    5.8918   27.5313 N   0  0  0  0  0  0  0  0  0  0  0  0
  2  1  1  1  0  0  0
  2  3  1  0  0  0  0
  2  5  1  0  0  0  0
  3  4  1  0  0  0  0
  3 17  1  0  0  0  0
  5  6  1  0  0  0  0
  7  6  1  1  0  0  0
  7  8  1  0  0  0  0
  7  9  1  0  0  0  0
 10  9  1  1  0  0  0
 10 11  1  0  0  0  0
 10 12  1  0  0  0  0
 11 16  1  0  0  0  0
 12 13  1  6  0  0  0
 12 14  1  0  0  0  0
 14 15  1  6  0  0  0
 14 16  1  0  0  0  0
 16 27  1  1  0  0  0
 18 19  2  0  0  0  0
 18 23  1  0  0  0  0
 19 20  1  0  0  0  0
 20 21  2  0  0  0  0
 21 22  1  0  0  0  0
 21 27  1  0  0  0  0
 22 23  2  0  0  0  0
 22 25  1  0  0  0  0
 23 24  1  0  0  0  0
 25 26  2  0  0  0  0
 26 27  1  0  0  0  0
M  END
>  <CHROM.1>
-31.75019464,-153.14862291,95.33300400,68.60373178,-170.82508772,81.14379918
-9.94972698,13.51836006,5.16930627,30.26271871,2.13014449,-1.29620286,2.06818285

>  <Name>
ligand

>  <RI>
0

>  <Rbt.Current_Directory>
/home/itssahil/PROJECTS/Mol_Feturizer/Test_systems_manuscript/rnas/4aob

>  <Rbt.Executable>
rbdock ($Id: //depot/dev/client3/rdock/2013.1/src/exe/rbdock.cxx#4 $)

>  <Rbt.Library>
libRbt.so (2013.1, Build901 2013/11/27)

>  <Rbt.Parameter_File>
/export/apps/rDock/src/rDock_2013.1_src/data/scripts/dock_solv.prm

>  <Rbt.Receptor>
prm/pocket_docking_2.prm

>  <SCORE>
-7.32954

>  <SCORE.INTER>
-11.3869

>  <SCORE.INTER.CONST>
1

>  <SCORE.INTER.POLAR>
0

>  <SCORE.INTER.ROT>
7

>  <SCORE.INTER.SOLV>
18.1399

>  <SCORE.INTER.VDW>
-21.9046

>  <SCORE.INTER.norm>
-0.421738

>  <SCORE.INTRA>
2.82518

>  <SCORE.INTRA.DIHEDRAL>
5.71229

>  <SCORE.INTRA.DIHEDRAL.0>
6.31833

>  <SCORE.INTRA.POLAR>
0

>  <SCORE.INTRA.POLAR.0>
0

>  <SCORE.INTRA.REPUL>
0

>  <SCORE.INTRA.REPUL.0>
0

>  <SCORE.INTRA.SOLV>
-0.111414

>  <SCORE.INTRA.SOLV.lig_0>
-48.4015

>  <SCORE.INTRA.VDW>
0.0247376

>  <SCORE.INTRA.VDW.0>
-2.83256

>  <SCORE.INTRA.norm>
0.104636

>  <SCORE.RESTR>
1.2322

>  <SCORE.RESTR.CAVITY>
1.2322

>  <SCORE.RESTR.norm>
0.045637

>  <SCORE.SYSTEM>
0

>  <SCORE.SYSTEM.CONST>
0

>  <SCORE.SYSTEM.DIHEDRAL>
0

>  <SCORE.SYSTEM.SOLV>
0

>  <SCORE.SYSTEM.norm>
0

>  <SCORE.heavy>
27

>  <SCORE.norm>
-0.271464

>  <RMSD>
6.868

$$$$
ligand
 OpenBabel02271912153D
libRbt.so/2013.1/901 2013/11/27
 27 29  0  0  0  0  0  0  0  0999 V2000
   12.8635    6.7892   33.0283 N   0  0  0  0  0  0  0  0  0  0  0  0
   12.5620    6.0098   34.2531 C   0  0  2  0  0  0  0  0  0  0  0  0
   13.2497    6.6986   35.4247 C   0  0  0  0  0  0  0  0  0  0  0  0
   12.8146    6.7699   36.6219 O   0  0  0  0  0  0  0  0  0  0  0  0
   13.0233    4.5659   34.0434 C   0  0  0  0  0  0  0  0  0  0  0  0
   12.0787    3.7692   33.1532 C   0  0  0  0  0  0  0  0  0  0  0  0
   12.6456    2.7616   31.7320 S   0  0  2  0  0  0  0  0  0  0  0  0
   13.7004    1.6139   32.6157 C   0  0  0  0  0  0  0  0  0  0  0  0
   13.8165    3.9592   31.0171 C   0  0  0  0  0  0  0  0  0  0  0  0
   14.7031    3.3173   29.9857 C   0  0  1  0  0  0  0  0  0  0  0  0
   14.0386    3.1483   28.7103 O   0  0  0  0  0  0  0  0  0  0  0  0
   15.9875    4.0678   29.7169 C   0  0  1  0  0  0  0  0  0  0  0  0
   16.9802    3.4811   30.4398 O   0  0  0  0  0  0  0  0  0  0  0  0
   16.2133    3.7034   28.2682 C   0  0  1  0  0  0  0  0  0  0  0  0
   16.8141    2.4851   28.2870 O   0  0  0  0  0  0  0  0  0  0  0  0
   14.8170    3.5669   27.6217 C   0  0  2  0  0  0  0  0  0  0  0  0
   14.3004    7.2870   35.1635 O   0  0  0  0  0  0  0  0  0  0  0  0
   11.1522    7.2601   27.9450 N   0  0  0  0  0  0  0  0  0  0  0  0
   11.2240    5.8986   28.3943 C   0  0  0  0  0  0  0  0  0  0  0  0
   12.3003    4.9885   28.2483 N   0  0  0  0  0  0  0  0  0  0  0  0
   13.2841    5.5292   27.6454 C   0  0  0  0  0  0  0  0  0  0  0  0
   13.3111    6.9232   27.1490 C   0  0  0  0  0  0  0  0  0  0  0  0
   12.2652    7.7470   27.2949 C   0  0  0  0  0  0  0  0  0  0  0  0
   12.4141    8.9544   26.7898 N   0  0  0  0  0  0  0  0  0  0  0  0
   14.4322    7.2468   26.5498 N   0  0  0  0  0  0  0  0  0  0  0  0
   15.1137    6.0505   26.6772 C   0  0  0  0  0  0  0  0  0  0  0  0
   14.4138    4.9757   27.3625 N   0  0  0  0  0  0  0  0  0  0  0  0
  2  1  1  6  0  0  0
  2  3  1  0  0  0  0
  2  5  1  0  0  0  0
  3  4  1  0  0  0  0
  3 17  1  0  0  0  0
  5  6  1  0  0  0  0
  7  6  1  1  0  0  0
  7  8  1  0  0  0  0
  7  9  1  0  0  0  0
 10  9  1  1  0  0  0
 10 11  1  0  0  0  0
 10 12  1  0  0  0  0
 11 16  1  0  0  0  0
 12 13  1  1  0  0  0
 12 14  1  0  0  0  0
 14 15  1  1  0  0  0
 14 16  1  0  0  0  0
 16 27  1  1  0  0  0
 18 19  2  0  0  0  0
 18 23  1  0  0  0  0
 19 20  1  0  0  0  0
 20 21  2  0  0  0  0
 21 22  1  0  0  0  0
 21 27  1  0  0  0  0
 22 23  2  0  0  0  0
 22 25  1  0  0  0  0
 23 24  1  0  0  0  0
 25 26  2  0  0  0  0
 26 27  1  0  0  0  0
M  END
>  <CHROM.1>
145.75962503,-76.35061862,131.04861552,60.90530729,167.00744951,78.79022889
-25.78303584,13.71082333,5.00773886,30.32128881,1.80749707,-1.02198977,1.81185572

>  <Name>
ligand

>  <RI>
0

>  <Rbt.Current_Directory>
/home/itssahil/PROJECTS/Mol_Feturizer/Test_systems_manuscript/rnas/4aob

>  <Rbt.Executable>
rbdock ($Id: //depot/dev/client3/rdock/2013.1/src/exe/rbdock.cxx#4 $)

>  <Rbt.Library>
libRbt.so (2013.1, Build901 2013/11/27)

>  <Rbt.Parameter_File>
/export/apps/rDock/src/rDock_2013.1_src/data/scripts/dock_solv.prm

>  <Rbt.Receptor>
prm/pocket_docking_3.prm

>  <SCORE>
-12.6403

>  <SCORE.INTER>
-15.831

>  <SCORE.INTER.CONST>
1

>  <SCORE.INTER.POLAR>
0

>  <SCORE.INTER.ROT>
7

>  <SCORE.INTER.SOLV>
10.6942

>  <SCORE.INTER.VDW>
-22.3854

>  <SCORE.INTER.norm>
-0.586334

>  <SCORE.INTRA>
3.19071

>  <SCORE.INTRA.DIHEDRAL>
4.2994

>  <SCORE.INTRA.DIHEDRAL.0>
6.31833

>  <SCORE.INTRA.POLAR>
0

>  <SCORE.INTRA.POLAR.0>
0

>  <SCORE.INTRA.REPUL>
0

>  <SCORE.INTRA.REPUL.0>
0

>  <SCORE.INTRA.SOLV>
0.940538

>  <SCORE.INTRA.SOLV.lig_0>
-48.4015

>  <SCORE.INTRA.VDW>
0.570742

>  <SCORE.INTRA.VDW.0>
-2.83256

>  <SCORE.INTRA.norm>
0.118175

>  <SCORE.RESTR>
0

>  <SCORE.RESTR.CAVITY>
0

>  <SCORE.RESTR.norm>
0

>  <SCORE.SYSTEM>
0

>  <SCORE.SYSTEM.CONST>
0

>  <SCORE.SYSTEM.DIHEDRAL>
0

>  <SCORE.SYSTEM.SOLV>
0

>  <SCORE.SYSTEM.norm>
0

>  <SCORE.heavy>
27

>  <SCORE.norm>
-0.46816

>  <RMSD>
6.892

$$$$
ligand
 OpenBabel02271912153D
libRbt.so/2013.1/901 2013/11/27
 27 29  0  0  0  0  0  0  0  0999 V2000
   11.8766    5.6126   33.3825 N   0  0  0  0  0  0  0  0  0  0  0  0
   12.9494    5.2062   34.3218 C   0  0  2  0  0  0  0  0  0  0  0  0
   13.4871    6.4660   34.9881 C   0  0  0  0  0  0  0  0  0  0  0  0
   14.4757    7.1684   34.5920 O   0  0  0  0  0  0  0  0  0  0  0  0
   14.0149    4.4293   33.5454 C   0  0  0  0  0  0  0  0  0  0  0  0
   13.5309    3.0585   33.0920 C   0  0  0  0  0  0  0  0  0  0  0  0
   14.0171    2.2961   31.4985 S   0  0  2  0  0  0  0  0  0  0  0  0
   15.7829    2.5880   31.5849 C   0  0  0  0  0  0  0  0  0  0  0  0
   13.4173    3.6105   30.3898 C   0  0  0  0  0  0  0  0  0  0  0  0
   13.7698    3.3273   28.9555 C   0  0  1  0  0  0  0  0  0  0  0  0
   12.8286    3.9161   28.0258 O   0  0  0  0  0  0  0  0  0  0  0  0
   15.1461    3.8022   28.5486 C   0  0  1  0  0  0  0  0  0  0  0  0
   15.9960    2.7409   28.6107 O   0  0  0  0  0  0  0  0  0  0  0  0
   14.9065    4.0990   27.0868 C   0  0  1  0  0  0  0  0  0  0  0  0
   15.0221    2.9057   26.4478 O   0  0  0  0  0  0  0  0  0  0  0  0
   13.4487    4.5956   26.9675 C   0  0  2  0  0  0  0  0  0  0  0  0
   12.9390    6.7952   36.0415 O   0  0  0  0  0  0  0  0  0  0  0  0
   12.1314    8.2538   30.4397 N   0  0  0  0  0  0  0  0  0  0  0  0
   11.9071    6.8380   30.3643 C   0  0  0  0  0  0  0  0  0  0  0  0
   12.3331    5.9410   29.3535 N   0  0  0  0  0  0  0  0  0  0  0  0
   12.9969    6.5453   28.4491 C   0  0  0  0  0  0  0  0  0  0  0  0
   13.2867    7.9966   28.4379 C   0  0  0  0  0  0  0  0  0  0  0  0
   12.8522    8.8128   29.4070 C   0  0  0  0  0  0  0  0  0  0  0  0
   13.1630   10.0848   29.2647 N   0  0  0  0  0  0  0  0  0  0  0  0
   13.9785    8.3871   27.3942 N   0  0  0  0  0  0  0  0  0  0  0  0
   14.1283    7.1723   26.7510 C   0  0  0  0  0  0  0  0  0  0  0  0
   13.5284    6.0173   27.3997 N   0  0  0  0  0  0  0  0  0  0  0  0
  2  1  1  6  0  0  0
  2  3  1  0  0  0  0
  2  5  1  0  0  0  0
  3  4  1  0  0  0  0
  3 17  1  0  0  0  0
  5  6  1  0  0  0  0
  7  6  1  1  0  0  0
  7  8  1  0  0  0  0
  7  9  1  0  0  0  0
 10  9  1  1  0  0  0
 10 11  1  0  0  0  0
 10 12  1  0  0  0  0
 11 16  1  0  0  0  0
 12 13  1  6  0  0  0
 12 14  1  0  0  0  0
 14 15  1  6  0  0  0
 14 16  1  0  0  0  0
 16 27  1  1  0  0  0
 18 19  2  0  0  0  0
 18 23  1  0  0  0  0
 19 20  1  0  0  0  0
 20 21  2  0  0  0  0
 21 22  1  0  0  0  0
 21 27  1  0  0  0  0
 22 23  2  0  0  0  0
 22 25  1  0  0  0  0
 23 24  1  0  0  0  0
 25 26  2  0  0  0  0
 26 27  1  0  0  0  0
M  END
>  <CHROM.1>
-92.36256947,-70.16688359,144.17684692,47.54451122,175.62742420,151.87232358
-7.61876598,13.67675175,5.29057576,30.30304816,1.93988109,-1.27420091,1.85590843

>  <Name>
ligand

>  <RI>
0

>  <Rbt.Current_Directory>
/home/itssahil/PROJECTS/Mol_Feturizer/Test_systems_manuscript/rnas/4aob

>  <Rbt.Executable>
rbdock ($Id: //depot/dev/client3/rdock/2013.1/src/exe/rbdock.cxx#4 $)

>  <Rbt.Library>
libRbt.so (2013.1, Build901 2013/11/27)

>  <Rbt.Parameter_File>
/export/apps/rDock/src/rDock_2013.1_src/data/scripts/dock_solv.prm

>  <Rbt.Receptor>
prm/pocket_docking_2.prm

>  <SCORE>
-4.75823

>  <SCORE.INTER>
-10.3328

>  <SCORE.INTER.CONST>
1

>  <SCORE.INTER.POLAR>
0

>  <SCORE.INTER.ROT>
7

>  <SCORE.INTER.SOLV>
21.0287

>  <SCORE.INTER.VDW>
-22.1647

>  <SCORE.INTER.norm>
-0.382695

>  <SCORE.INTRA>
3.97565

>  <SCORE.INTRA.DIHEDRAL>
3.41874

>  <SCORE.INTRA.DIHEDRAL.0>
6.31833

>  <SCORE.INTRA.POLAR>
0

>  <SCORE.INTRA.POLAR.0>
0

>  <SCORE.INTRA.REPUL>
0

>  <SCORE.INTRA.REPUL.0>
0

>  <SCORE.INTRA.SOLV>
1.31461

>  <SCORE.INTRA.SOLV.lig_0>
-48.4015

>  <SCORE.INTRA.VDW>
1.60897

>  <SCORE.INTRA.VDW.0>
-2.83256

>  <SCORE.INTRA.norm>
0.147246

>  <SCORE.RESTR>
1.5989

>  <SCORE.RESTR.CAVITY>
1.5989

>  <SCORE.RESTR.norm>
0.0592184

>  <SCORE.SYSTEM>
0

>  <SCORE.SYSTEM.CONST>
0

>  <SCORE.SYSTEM.DIHEDRAL>
0

>  <SCORE.SYSTEM.SOLV>
0

>  <SCORE.SYSTEM.norm>
0

>  <SCORE.heavy>
27

>  <SCORE.norm>
-0.176231

>  <RMSD>
6.935

$$$$
ligand
 OpenBabel02271912153D
libRbt.so/2013.1/901 2013/11/27
 27 29  0  0  0  0  0  0  0  0999 V2000
   12.1652    7.0557   34.7832 N   0  0  0  0  0  0  0  0  0  0  0  0
   13.6467    6.9994   34.8019 C   0  0  2  0  0  0  0  0  0  0  0  0
   14.1181    7.5743   36.1314 C   0  0  0  0  0  0  0  0  0  0  0  0
   15.0892    8.3834   36.3041 O   0  0  0  0  0  0  0  0  0  0  0  0
   14.1834    7.7610   33.5880 C   0  0  0  0  0  0  0  0  0  0  0  0
   15.6298    7.4107   33.2650 C   0  0  0  0  0  0  0  0  0  0  0  0
   16.1678    5.7386   32.7440 S   0  0  2  0  0  0  0  0  0  0  0  0
   17.8828    6.1065   32.3779 C   0  0  0  0  0  0  0  0  0  0  0  0
   15.3742    5.7110   31.1052 C   0  0  0  0  0  0  0  0  0  0  0  0
   15.7969    4.5087   30.3066 C   0  0  1  0  0  0  0  0  0  0  0  0
   14.6910    3.8921   29.6040 O   0  0  0  0  0  0  0  0  0  0  0  0
   16.8687    4.7912   29.2788 C   0  0  1  0  0  0  0  0  0  0  0  0
   18.0700    4.4352   29.8105 O   0  0  0  0  0  0  0  0  0  0  0  0
   16.5178    3.7581   28.2338 C   0  0  1  0  0  0  0  0  0  0  0  0
   17.0907    2.6012   28.6568 O   0  0  0  0  0  0  0  0  0  0  0  0
   14.9815    3.6002   28.2637 C   0  0  2  0  0  0  0  0  0  0  0  0
   13.5300    7.1663   37.1345 O   0  0  0  0  0  0  0  0  0  0  0  0
   11.0343    6.7747   27.0321 N   0  0  0  0  0  0  0  0  0  0  0  0
   11.1718    5.6817   27.9524 C   0  0  0  0  0  0  0  0  0  0  0  0
   12.3220    4.8927   28.2026 N   0  0  0  0  0  0  0  0  0  0  0  0
   13.3081    5.2749   27.4918 C   0  0  0  0  0  0  0  0  0  0  0  0
   13.2702    6.3911   26.5206 C   0  0  0  0  0  0  0  0  0  0  0  0
   12.1567    7.1030   26.3035 C   0  0  0  0  0  0  0  0  0  0  0  0
   12.2547    8.0551   25.3986 N   0  0  0  0  0  0  0  0  0  0  0  0
   14.4087    6.5871   25.8995 N   0  0  0  0  0  0  0  0  0  0  0  0
   15.1659    5.5919   26.4896 C   0  0  0  0  0  0  0  0  0  0  0  0
   14.4956    4.7726   27.4867 N   0  0  0  0  0  0  0  0  0  0  0  0
  2  1  1  1  0  0  0
  2  3  1  0  0  0  0
  2  5  1  0  0  0  0
  3  4  1  0  0  0  0
  3 17  1  0  0  0  0
  5  6  1  0  0  0  0
  7  6  1  1  0  0  0
  7  8  1  0  0  0  0
  7  9  1  0  0  0  0
 10  9  1  6  0  0  0
 10 11  1  0  0  0  0
 10 12  1  0  0  0  0
 11 16  1  0  0  0  0
 12 13  1  1  0  0  0
 12 14  1  0  0  0  0
 14 15  1  1  0  0  0
 14 16  1  0  0  0  0
 16 27  1  6  0  0  0
 18 19  2  0  0  0  0
 18 23  1  0  0  0  0
 19 20  1  0  0  0  0
 20 21  2  0  0  0  0
 21 22  1  0  0  0  0
 21 27  1  0  0  0  0
 22 23  2  0  0  0  0
 22 25  1  0  0  0  0
 23 24  1  0  0  0  0
 25 26  2  0  0  0  0
 26 27  1  0  0  0  0
M  END
>  <CHROM.1>
-136.58918150,-162.05429091,63.97826559,174.20852547,171.70328852,137.67119143
-55.19509944,14.63920471,5.85681217,30.42205603,1.45295526,-0.51684638,1.31838214

>  <Name>
ligand

>  <RI>
0

>  <Rbt.Current_Directory>
/home/itssahil/PROJECTS/Mol_Feturizer/Test_systems_manuscript/rnas/4aob

>  <Rbt.Executable>
rbdock ($Id: //depot/dev/client3/rdock/2013.1/src/exe/rbdock.cxx#4 $)

>  <Rbt.Library>
libRbt.so (2013.1, Build901 2013/11/27)

>  <Rbt.Parameter_File>
/export/apps/rDock/src/rDock_2013.1_src/data/scripts/dock_solv.prm

>  <Rbt.Receptor>
prm/pocket_docking_4.prm

>  <SCORE>
-7.6153

>  <SCORE.INTER>
-8.83206

>  <SCORE.INTER.CONST>
1

>  <SCORE.INTER.POLAR>
0

>  <SCORE.INTER.ROT>
7

>  <SCORE.INTER.SOLV>
12.7446

>  <SCORE.INTER.VDW>
-18.4029

>  <SCORE.INTER.norm>
-0.327113

>  <SCORE.INTRA>
1.21533

>  <SCORE.INTRA.DIHEDRAL>
2.17069

>  <SCORE.INTRA.DIHEDRAL.0>
6.31833

>  <SCORE.INTRA.POLAR>
0

>  <SCORE.INTRA.POLAR.0>
0

>  <SCORE.INTRA.REPUL>
0

>  <SCORE.INTRA.REPUL.0>
0

>  <SCORE.INTRA.SOLV>
-0.44204

>  <SCORE.INTRA.SOLV.lig_0>
-48.4015

>  <SCORE.INTRA.VDW>
0.351006

>  <SCORE.INTRA.VDW.0>
-2.83256

>  <SCORE.INTRA.norm>
0.0450123

>  <SCORE.RESTR>
0.0014196

>  <SCORE.RESTR.CAVITY>
0.0014196

>  <SCORE.RESTR.norm>
5.25778e-05

>  <SCORE.SYSTEM>
0

>  <SCORE.SYSTEM.CONST>
0

>  <SCORE.SYSTEM.DIHEDRAL>
0

>  <SCORE.SYSTEM.SOLV>
0

>  <SCORE.SYSTEM.norm>
0

>  <SCORE.heavy>
27

>  <SCORE.norm>
-0.282048

>  <RMSD>
6.961

$$$$
ligand
 OpenBabel02271912153D
libRbt.so/2013.1/901 2013/11/27
 27 29  0  0  0  0  0  0  0  0999 V2000
   12.5344    5.7310   34.4774 N   0  0  0  0  0  0  0  0  0  0  0  0
   13.2735    4.5072   34.0848 C   0  0  2  0  0  0  0  0  0  0  0  0
   14.3256    4.9074   33.0585 C   0  0  0  0  0  0  0  0  0  0  0  0
   14.2370    5.8620   32.2169 O   0  0  0  0  0  0  0  0  0  0  0  0
   12.2733    3.4764   33.5568 C   0  0  0  0  0  0  0  0  0  0  0  0
   12.9364    2.1678   33.1481 C   0  0  0  0  0  0  0  0  0  0  0  0
   13.1688    1.6596   31.4033 S   0  0  2  0  0  0  0  0  0  0  0  0
   14.7551    0.8426   31.5671 C   0  0  0  0  0  0  0  0  0  0  0  0
   13.5939    3.2905   30.7137 C   0  0  0  0  0  0  0  0  0  0  0  0
   14.4145    3.1636   29.4597 C   0  0  1  0  0  0  0  0  0  0  0  0
   13.5967    3.0676   28.2685 O   0  0  0  0  0  0  0  0  0  0  0  0
   15.3866    4.2993   29.2360 C   0  0  1  0  0  0  0  0  0  0  0  0
   16.6127    3.8995   29.6711 O   0  0  0  0  0  0  0  0  0  0  0  0
   15.4324    4.3201   27.7260 C   0  0  1  0  0  0  0  0  0  0  0  0
   16.3240    3.3576   27.3740 O   0  0  0  0  0  0  0  0  0  0  0  0
   14.0270    3.9099   27.2334 C   0  0  2  0  0  0  0  0  0  0  0  0
   15.3311    4.1966   33.0114 O   0  0  0  0  0  0  0  0  0  0  0  0
   13.7757    9.0933   26.7390 N   0  0  0  0  0  0  0  0  0  0  0  0
   14.7787    8.1184   26.4165 C   0  0  0  0  0  0  0  0  0  0  0  0
   14.7185    6.7141   26.5961 N   0  0  0  0  0  0  0  0  0  0  0  0
   13.6022    6.3598   27.0983 C   0  0  0  0  0  0  0  0  0  0  0  0
   12.5044    7.2843   27.4599 C   0  0  0  0  0  0  0  0  0  0  0  0
   12.6081    8.6084   27.2870 C   0  0  0  0  0  0  0  0  0  0  0  0
   11.5661    9.3177   27.6689 N   0  0  0  0  0  0  0  0  0  0  0  0
   11.4574    6.6830   27.9722 N   0  0  0  0  0  0  0  0  0  0  0  0
   11.8994    5.3736   27.9255 C   0  0  0  0  0  0  0  0  0  0  0  0
   13.2291    5.1577   27.3780 N   0  0  0  0  0  0  0  0  0  0  0  0
  2  1  1  6  0  0  0
  2  3  1  0  0  0  0
  2  5  1  0  0  0  0
  3  4  1  0  0  0  0
  3 17  1  0  0  0  0
  5  6  1  0  0  0  0
  7  6  1  1  0  0  0
  7  8  1  0  0  0  0
  7  9  1  0  0  0  0
 10  9  1  1  0  0  0
 10 11  1  0  0  0  0
 10 12  1  0  0  0  0
 11 16  1  0  0  0  0
 12 13  1  1  0  0  0
 12 14  1  0  0  0  0
 14 15  1  6  0  0  0
 14 16  1  0  0  0  0
 16 27  1  1  0  0  0
 18 19  2  0  0  0  0
 18 23  1  0  0  0  0
 19 20  1  0  0  0  0
 20 21  2  0  0  0  0
 21 22  1  0  0  0  0
 21 27  1  0  0  0  0
 22 23  2  0  0  0  0
 22 25  1  0  0  0  0
 23 24  1  0  0  0  0
 25 26  2  0  0  0  0
 26 27  1  0  0  0  0
M  END
>  <CHROM.1>
-30.72250200,-178.99661785,-106.59536911,144.13829245,155.02619665,88.62946652
147.54256973,13.80774636,4.78162472,29.72915767,1.48011288,-1.06482748,2.14478284

>  <Name>
ligand

>  <RI>
0

>  <Rbt.Current_Directory>
/home/itssahil/PROJECTS/Mol_Feturizer/Test_systems_manuscript/rnas/4aob

>  <Rbt.Executable>
rbdock ($Id: //depot/dev/client3/rdock/2013.1/src/exe/rbdock.cxx#4 $)

>  <Rbt.Library>
libRbt.so (2013.1, Build901 2013/11/27)

>  <Rbt.Parameter_File>
/export/apps/rDock/src/rDock_2013.1_src/data/scripts/dock_solv.prm

>  <Rbt.Receptor>
prm/pocket_docking_3.prm

>  <SCORE>
-11.1107

>  <SCORE.INTER>
-14.9554

>  <SCORE.INTER.CONST>
1

>  <SCORE.INTER.POLAR>
0

>  <SCORE.INTER.ROT>
7

>  <SCORE.INTER.SOLV>
16.3822

>  <SCORE.INTER.VDW>
-23.6977

>  <SCORE.INTER.norm>
-0.553904

>  <SCORE.INTRA>
3.8447

>  <SCORE.INTRA.DIHEDRAL>
6.79341

>  <SCORE.INTRA.DIHEDRAL.0>
6.31833

>  <SCORE.INTRA.POLAR>
0

>  <SCORE.INTRA.POLAR.0>
0

>  <SCORE.INTRA.REPUL>
0

>  <SCORE.INTRA.REPUL.0>
0

>  <SCORE.INTRA.SOLV>
-0.550919

>  <SCORE.INTRA.SOLV.lig_0>
-48.4015

>  <SCORE.INTRA.VDW>
0.723458

>  <SCORE.INTRA.VDW.0>
-2.83256

>  <SCORE.INTRA.norm>
0.142396

>  <SCORE.RESTR>
0

>  <SCORE.RESTR.CAVITY>
0

>  <SCORE.RESTR.norm>
0

>  <SCORE.SYSTEM>
0

>  <SCORE.SYSTEM.CONST>
0

>  <SCORE.SYSTEM.DIHEDRAL>
0

>  <SCORE.SYSTEM.SOLV>
0

>  <SCORE.SYSTEM.norm>
0

>  <SCORE.heavy>
27

>  <SCORE.norm>
-0.411508

>  <RMSD>
6.969

$$$$
ligand
 OpenBabel02271912153D
libRbt.so/2013.1/901 2013/11/27
 27 29  0  0  0  0  0  0  0  0999 V2000
   15.5762    7.6886   33.0631 N   0  0  0  0  0  0  0  0  0  0  0  0
   14.4481    6.7308   32.9713 C   0  0  2  0  0  0  0  0  0  0  0  0
   13.2437    7.3624   33.6573 C   0  0  0  0  0  0  0  0  0  0  0  0
   12.4926    6.8094   34.5278 O   0  0  0  0  0  0  0  0  0  0  0  0
   14.8771    5.4036   33.6008 C   0  0  0  0  0  0  0  0  0  0  0  0
   13.8842    4.2792   33.3385 C   0  0  0  0  0  0  0  0  0  0  0  0
   13.4223    3.7165   31.6572 S   0  0  2  0  0  0  0  0  0  0  0  0
   12.9809    2.0246   32.0483 C   0  0  0  0  0  0  0  0  0  0  0  0
   15.0997    3.5742   30.9626 C   0  0  0  0  0  0  0  0  0  0  0  0
   15.0650    3.1980   29.5068 C   0  0  1  0  0  0  0  0  0  0  0  0
   13.7182    2.9802   29.0216 O   0  0  0  0  0  0  0  0  0  0  0  0
   15.7053    4.2130   28.5876 C   0  0  1  0  0  0  0  0  0  0  0  0
   16.9720    3.7970   28.3138 O   0  0  0  0  0  0  0  0  0  0  0  0
   14.8839    3.9992   27.3378 C   0  0  1  0  0  0  0  0  0  0  0  0
   15.4439    2.9323   26.7104 O   0  0  0  0  0  0  0  0  0  0  0  0
   13.4598    3.6209   27.8015 C   0  0  2  0  0  0  0  0  0  0  0  0
   12.9448    8.4983   33.2847 O   0  0  0  0  0  0  0  0  0  0  0  0
   11.6968    8.2691   26.2329 N   0  0  0  0  0  0  0  0  0  0  0  0
   12.2077    7.1215   25.5383 C   0  0  0  0  0  0  0  0  0  0  0  0
   12.6532    5.8953   26.0914 N   0  0  0  0  0  0  0  0  0  0  0  0
   12.5413    5.8931   27.3608 C   0  0  0  0  0  0  0  0  0  0  0  0
   12.0228    7.0205   28.1675 C   0  0  0  0  0  0  0  0  0  0  0  0
   11.6252    8.1693   27.6053 C   0  0  0  0  0  0  0  0  0  0  0  0
   11.2042    9.0978   28.4393 N   0  0  0  0  0  0  0  0  0  0  0  0
   12.0150    6.7845   29.4576 N   0  0  0  0  0  0  0  0  0  0  0  0
   12.5257    5.4995   29.4587 C   0  0  0  0  0  0  0  0  0  0  0  0
   12.8511    4.9304   28.1607 N   0  0  0  0  0  0  0  0  0  0  0  0
  2  1  1  1  0  0  0
  2  3  1  0  0  0  0
  2  5  1  0  0  0  0
  3  4  1  0  0  0  0
  3 17  1  0  0  0  0
  5  6  1  0  0  0  0
  7  6  1  1  0  0  0
  7  8  1  0  0  0  0
  7  9  1  0  0  0  0
 10  9  1  1  0  0  0
 10 11  1  0  0  0  0
 10 12  1  0  0  0  0
 11 16  1  0  0  0  0
 12 13  1  6  0  0  0
 12 14  1  0  0  0  0
 14 15  1  6  0  0  0
 14 16  1  0  0  0  0
 16 27  1  1  0  0  0
 18 19  2  0  0  0  0
 18 23  1  0  0  0  0
 19 20  1  0  0  0  0
 20 21  2  0  0  0  0
 21 22  1  0  0  0  0
 21 27  1  0  0  0  0
 22 23  2  0  0  0  0
 22 25  1  0  0  0  0
 23 24  1  0  0  0  0
 25 26  2  0  0  0  0
 26 27  1  0  0  0  0
M  END
>  <CHROM.1>
-131.13241933,-169.78433815,59.23018330,153.14328955,-176.36068422,-2.62222387
174.52867859,13.57365636,5.40502174,29.88889050,1.36411395,-1.04495804,1.36574806

>  <Name>
ligand

>  <RI>
0

>  <Rbt.Current_Directory>
/home/itssahil/PROJECTS/Mol_Feturizer/Test_systems_manuscript/rnas/4aob

>  <Rbt.Executable>
rbdock ($Id: //depot/dev/client3/rdock/2013.1/src/exe/rbdock.cxx#4 $)

>  <Rbt.Library>
libRbt.so (2013.1, Build901 2013/11/27)

>  <Rbt.Parameter_File>
/export/apps/rDock/src/rDock_2013.1_src/data/scripts/dock_solv.prm

>  <Rbt.Receptor>
prm/pocket_docking_4.prm

>  <SCORE>
-7.81885

>  <SCORE.INTER>
-9.91868

>  <SCORE.INTER.CONST>
1

>  <SCORE.INTER.POLAR>
0

>  <SCORE.INTER.ROT>
7

>  <SCORE.INTER.SOLV>
14.488

>  <SCORE.INTER.VDW>
-19.7084

>  <SCORE.INTER.norm>
-0.367358

>  <SCORE.INTRA>
2.09982

>  <SCORE.INTRA.DIHEDRAL>
3.93978

>  <SCORE.INTRA.DIHEDRAL.0>
6.31833

>  <SCORE.INTRA.POLAR>
0

>  <SCORE.INTRA.POLAR.0>
0

>  <SCORE.INTRA.REPUL>
0

>  <SCORE.INTRA.REPUL.0>
0

>  <SCORE.INTRA.SOLV>
-0.450915

>  <SCORE.INTRA.SOLV.lig_0>
-48.4015

>  <SCORE.INTRA.VDW>
0.355392

>  <SCORE.INTRA.VDW.0>
-2.83256

>  <SCORE.INTRA.norm>
0.0777713

>  <SCORE.RESTR>
0

>  <SCORE.RESTR.CAVITY>
0

>  <SCORE.RESTR.norm>
0

>  <SCORE.SYSTEM>
0

>  <SCORE.SYSTEM.CONST>
0

>  <SCORE.SYSTEM.DIHEDRAL>
0

>  <SCORE.SYSTEM.SOLV>
0

>  <SCORE.SYSTEM.norm>
0

>  <SCORE.heavy>
27

>  <SCORE.norm>
-0.289587

>  <RMSD>
6.972

$$$$
ligand
 OpenBabel02271912153D
libRbt.so/2013.1/901 2013/11/27
 27 29  0  0  0  0  0  0  0  0999 V2000
   14.5821    6.7086   34.1192 N   0  0  0  0  0  0  0  0  0  0  0  0
   13.4825    6.6453   33.1266 C   0  0  2  0  0  0  0  0  0  0  0  0
   13.0565    8.0734   32.8113 C   0  0  0  0  0  0  0  0  0  0  0  0
   12.4482    8.4672   31.7614 O   0  0  0  0  0  0  0  0  0  0  0  0
   12.3516    5.7880   33.6991 C   0  0  0  0  0  0  0  0  0  0  0  0
   12.6162    4.2947   33.5600 C   0  0  0  0  0  0  0  0  0  0  0  0
   12.6932    3.4326   31.9453 S   0  0  2  0  0  0  0  0  0  0  0  0
   13.5383    1.9431   32.4724 C   0  0  0  0  0  0  0  0  0  0  0  0
   14.0130    4.4294   31.1831 C   0  0  0  0  0  0  0  0  0  0  0  0
   14.5644    3.7667   29.9507 C   0  0  1  0  0  0  0  0  0  0  0  0
   13.5245    3.2457   29.0881 O   0  0  0  0  0  0  0  0  0  0  0  0
   15.4341    4.6636   29.0996 C   0  0  1  0  0  0  0  0  0  0  0  0
   16.7351    4.4062   29.4053 O   0  0  0  0  0  0  0  0  0  0  0  0
   15.1705    4.0752   27.7333 C   0  0  1  0  0  0  0  0  0  0  0  0
   16.0017    3.0058   27.6291 O   0  0  0  0  0  0  0  0  0  0  0  0
   13.7079    3.5784   27.7383 C   0  0  2  0  0  0  0  0  0  0  0  0
   13.3874    8.9291   33.6340 O   0  0  0  0  0  0  0  0  0  0  0  0
   12.5276    7.6021   24.6414 N   0  0  0  0  0  0  0  0  0  0  0  0
   13.3703    6.4505   24.4856 C   0  0  0  0  0  0  0  0  0  0  0  0
   13.6018    5.4079   25.4168 N   0  0  0  0  0  0  0  0  0  0  0  0
   12.9345    5.5878   26.4874 C   0  0  0  0  0  0  0  0  0  0  0  0
   12.0363    6.7361   26.7429 C   0  0  0  0  0  0  0  0  0  0  0  0
   11.8567    7.7090   25.8401 C   0  0  0  0  0  0  0  0  0  0  0  0
   11.0465    8.6822   26.2025 N   0  0  0  0  0  0  0  0  0  0  0  0
   11.4681    6.7068   27.9247 N   0  0  0  0  0  0  0  0  0  0  0  0
   12.0086    5.5302   28.4099 C   0  0  0  0  0  0  0  0  0  0  0  0
   12.9171    4.8205   27.5235 N   0  0  0  0  0  0  0  0  0  0  0  0
  2  1  1  1  0  0  0
  2  3  1  0  0  0  0
  2  5  1  0  0  0  0
  3  4  1  0  0  0  0
  3 17  1  0  0  0  0
  5  6  1  0  0  0  0
  7  6  1  1  0  0  0
  7  8  1  0  0  0  0
  7  9  1  0  0  0  0
 10  9  1  1  0  0  0
 10 11  1  0  0  0  0
 10 12  1  0  0  0  0
 11 16  1  0  0  0  0
 12 13  1  1  0  0  0
 12 14  1  0  0  0  0
 14 15  1  1  0  0  0
 14 16  1  0  0  0  0
 16 27  1  1  0  0  0
 18 19  2  0  0  0  0
 18 23  1  0  0  0  0
 19 20  1  0  0  0  0
 20 21  2  0  0  0  0
 21 22  1  0  0  0  0
 21 27  1  0  0  0  0
 22 23  2  0  0  0  0
 22 25  1  0  0  0  0
 23 24  1  0  0  0  0
 25 26  2  0  0  0  0
 26 27  1  0  0  0  0
M  END
>  <CHROM.1>
157.85870643,-80.09474591,-66.31146010,162.28747827,165.89096565,44.85306495
169.71035250,13.38030543,5.45202818,29.56525018,1.43542178,-1.12193879,1.54114100

>  <Name>
ligand

>  <RI>
0

>  <Rbt.Current_Directory>
/home/itssahil/PROJECTS/Mol_Feturizer/Test_systems_manuscript/rnas/4aob

>  <Rbt.Executable>
rbdock ($Id: //depot/dev/client3/rdock/2013.1/src/exe/rbdock.cxx#4 $)

>  <Rbt.Library>
libRbt.so (2013.1, Build901 2013/11/27)

>  <Rbt.Parameter_File>
/export/apps/rDock/src/rDock_2013.1_src/data/scripts/dock_solv.prm

>  <Rbt.Receptor>
prm/pocket_docking_6.prm

>  <SCORE>
-13.1948

>  <SCORE.INTER>
-14.0284

>  <SCORE.INTER.CONST>
1

>  <SCORE.INTER.POLAR>
0

>  <SCORE.INTER.ROT>
7

>  <SCORE.INTER.SOLV>
9.05998

>  <SCORE.INTER.VDW>
-20.6389

>  <SCORE.INTER.norm>
-0.51957

>  <SCORE.INTRA>
0.833548

>  <SCORE.INTRA.DIHEDRAL>
-0.244587

>  <SCORE.INTRA.DIHEDRAL.0>
6.31833

>  <SCORE.INTRA.POLAR>
0

>  <SCORE.INTRA.POLAR.0>
0

>  <SCORE.INTRA.REPUL>
0

>  <SCORE.INTRA.REPUL.0>
0

>  <SCORE.INTRA.SOLV>
0.795275

>  <SCORE.INTRA.SOLV.lig_0>
-48.4015

>  <SCORE.INTRA.VDW>
0.558204

>  <SCORE.INTRA.VDW.0>
-2.83256

>  <SCORE.INTRA.norm>
0.0308721

>  <SCORE.RESTR>
0

>  <SCORE.RESTR.CAVITY>
0

>  <SCORE.RESTR.norm>
0

>  <SCORE.SYSTEM>
0

>  <SCORE.SYSTEM.CONST>
0

>  <SCORE.SYSTEM.DIHEDRAL>
0

>  <SCORE.SYSTEM.SOLV>
0

>  <SCORE.SYSTEM.norm>
0

>  <SCORE.heavy>
27

>  <SCORE.norm>
-0.488698

>  <RMSD>
7.010

$$$$
ligand
 OpenBabel02271912153D
libRbt.so/2013.1/901 2013/11/27
 27 29  0  0  0  0  0  0  0  0999 V2000
   18.0111    6.7686   32.2057 N   0  0  0  0  0  0  0  0  0  0  0  0
   16.8500    6.3865   33.0450 C   0  0  2  0  0  0  0  0  0  0  0  0
   16.5104    7.5726   33.9383 C   0  0  0  0  0  0  0  0  0  0  0  0
   17.3300    8.2432   34.6497 O   0  0  0  0  0  0  0  0  0  0  0  0
   17.2043    5.1202   33.8277 C   0  0  0  0  0  0  0  0  0  0  0  0
   17.3775    3.9021   32.9302 C   0  0  0  0  0  0  0  0  0  0  0  0
   16.0327    3.2191   31.8902 S   0  0  2  0  0  0  0  0  0  0  0  0
   16.8022    1.6659   31.4362 C   0  0  0  0  0  0  0  0  0  0  0  0
   16.2827    4.2684   30.4230 C   0  0  0  0  0  0  0  0  0  0  0  0
   15.7116    3.6329   29.1852 C   0  0  1  0  0  0  0  0  0  0  0  0
   14.3652    3.1391   29.3854 O   0  0  0  0  0  0  0  0  0  0  0  0
   15.6713    4.5453   27.9807 C   0  0  1  0  0  0  0  0  0  0  0  0
   16.7571    4.2732   27.2065 O   0  0  0  0  0  0  0  0  0  0  0  0
   14.4612    3.9921   27.2651 C   0  0  1  0  0  0  0  0  0  0  0  0
   14.9109    2.9208   26.5611 O   0  0  0  0  0  0  0  0  0  0  0  0
   13.4842    3.5035   28.3573 C   0  0  2  0  0  0  0  0  0  0  0  0
   15.3161    7.8665   34.0139 O   0  0  0  0  0  0  0  0  0  0  0  0
   10.7646    7.7879   27.1645 N   0  0  0  0  0  0  0  0  0  0  0  0
   11.2173    6.6610   26.3990 C   0  0  0  0  0  0  0  0  0  0  0  0
   11.9534    5.5385   26.8529 N   0  0  0  0  0  0  0  0  0  0  0  0
   12.1884    5.6147   28.1030 C   0  0  0  0  0  0  0  0  0  0  0  0
   11.7613    6.7286   28.9790 C   0  0  0  0  0  0  0  0  0  0  0  0
   11.0787    7.7794   28.5060 C   0  0  0  0  0  0  0  0  0  0  0  0
   10.7783    8.7097   29.3887 N   0  0  0  0  0  0  0  0  0  0  0  0
   12.1321    6.5868   30.2291 N   0  0  0  0  0  0  0  0  0  0  0  0
   12.7898    5.3740   30.1369 C   0  0  0  0  0  0  0  0  0  0  0  0
   12.8266    4.7550   28.8216 N   0  0  0  0  0  0  0  0  0  0  0  0
  2  1  1  1  0  0  0
  2  3  1  0  0  0  0
  2  5  1  0  0  0  0
  3  4  1  0  0  0  0
  3 17  1  0  0  0  0
  5  6  1  0  0  0  0
  7  6  1  1  0  0  0
  7  8  1  0  0  0  0
  7  9  1  0  0  0  0
 10  9  1  1  0  0  0
 10 11  1  0  0  0  0
 10 12  1  0  0  0  0
 11 16  1  0  0  0  0
 12 13  1  6  0  0  0
 12 14  1  0  0  0  0
 14 15  1  6  0  0  0
 14 16  1  0  0  0  0
 16 27  1  1  0  0  0
 18 19  2  0  0  0  0
 18 23  1  0  0  0  0
 19 20  1  0  0  0  0
 20 21  2  0  0  0  0
 21 22  1  0  0  0  0
 21 27  1  0  0  0  0
 22 23  2  0  0  0  0
 22 25  1  0  0  0  0
 23 24  1  0  0  0  0
 25 26  2  0  0  0  0
 26 27  1  0  0  0  0
M  END
>  <CHROM.1>
-48.85883878,-67.02146326,-61.79777552,-168.06708996,157.62112915,47.84834060
162.40227922,14.62470829,5.28845044,30.09140139,0.52612041,-0.70288998,0.80493554

>  <Name>
ligand

>  <RI>
0

>  <Rbt.Current_Directory>
/home/itssahil/PROJECTS/Mol_Feturizer/Test_systems_manuscript/rnas/4aob

>  <Rbt.Executable>
rbdock ($Id: //depot/dev/client3/rdock/2013.1/src/exe/rbdock.cxx#4 $)

>  <Rbt.Library>
libRbt.so (2013.1, Build901 2013/11/27)

>  <Rbt.Parameter_File>
/export/apps/rDock/src/rDock_2013.1_src/data/scripts/dock_solv.prm

>  <Rbt.Receptor>
prm/pocket_docking_5.prm

>  <SCORE>
-10.5369

>  <SCORE.INTER>
-10.5574

>  <SCORE.INTER.CONST>
1

>  <SCORE.INTER.POLAR>
0

>  <SCORE.INTER.ROT>
7

>  <SCORE.INTER.SOLV>
19.0678

>  <SCORE.INTER.VDW>
-21.6609

>  <SCORE.INTER.norm>
-0.391015

>  <SCORE.INTRA>
0.0205283

>  <SCORE.INTRA.DIHEDRAL>
-0.959699

>  <SCORE.INTRA.DIHEDRAL.0>
6.31833

>  <SCORE.INTRA.POLAR>
0

>  <SCORE.INTRA.POLAR.0>
0

>  <SCORE.INTRA.REPUL>
0

>  <SCORE.INTRA.REPUL.0>
0

>  <SCORE.INTRA.SOLV>
1.18228

>  <SCORE.INTRA.SOLV.lig_0>
-48.4015

>  <SCORE.INTRA.VDW>
-0.0907614

>  <SCORE.INTRA.VDW.0>
-2.83256

>  <SCORE.INTRA.norm>
0.000760309

>  <SCORE.RESTR>
0

>  <SCORE.RESTR.CAVITY>
0

>  <SCORE.RESTR.norm>
0

>  <SCORE.SYSTEM>
0

>  <SCORE.SYSTEM.CONST>
0

>  <SCORE.SYSTEM.DIHEDRAL>
0

>  <SCORE.SYSTEM.SOLV>
0

>  <SCORE.SYSTEM.norm>
0

>  <SCORE.heavy>
27

>  <SCORE.norm>
-0.390254

>  <RMSD>
7.042

$$$$
ligand
 OpenBabel02271912153D
libRbt.so/2013.1/901 2013/11/27
 27 29  0  0  0  0  0  0  0  0999 V2000
   11.8763    5.6576   33.6424 N   0  0  0  0  0  0  0  0  0  0  0  0
   13.0069    4.8276   34.1232 C   0  0  2  0  0  0  0  0  0  0  0  0
   14.2152    5.1342   33.2478 C   0  0  0  0  0  0  0  0  0  0  0  0
   14.3063    6.0689   32.3843 O   0  0  0  0  0  0  0  0  0  0  0  0
   12.5884    3.3562   34.0847 C   0  0  0  0  0  0  0  0  0  0  0  0
   11.9179    2.9686   32.7735 C   0  0  0  0  0  0  0  0  0  0  0  0
   12.8255    2.2511   31.3529 S   0  0  2  0  0  0  0  0  0  0  0  0
   14.1737    1.4848   32.2505 C   0  0  0  0  0  0  0  0  0  0  0  0
   13.5565    3.7900   30.7096 C   0  0  0  0  0  0  0  0  0  0  0  0
   14.5847    3.5119   29.6478 C   0  0  1  0  0  0  0  0  0  0  0  0
   14.0051    2.9416   28.4496 O   0  0  0  0  0  0  0  0  0  0  0  0
   15.3782    4.7248   29.2186 C   0  0  1  0  0  0  0  0  0  0  0  0
   16.5634    4.7142   29.8877 O   0  0  0  0  0  0  0  0  0  0  0  0
   15.6716    4.3594   27.7824 C   0  0  1  0  0  0  0  0  0  0  0  0
   16.7569    3.5436   27.8271 O   0  0  0  0  0  0  0  0  0  0  0  0
   14.4563    3.5542   27.2718 C   0  0  2  0  0  0  0  0  0  0  0  0
   15.1695    4.3621   33.3558 O   0  0  0  0  0  0  0  0  0  0  0  0
   12.9808    7.5087   24.2125 N   0  0  0  0  0  0  0  0  0  0  0  0
   14.0883    6.5960   24.1807 C   0  0  0  0  0  0  0  0  0  0  0  0
   14.3746    5.5416   25.0829 N   0  0  0  0  0  0  0  0  0  0  0  0
   13.4863    5.4578   25.9927 C   0  0  0  0  0  0  0  0  0  0  0  0
   12.3072    6.3446   26.1097 C   0  0  0  0  0  0  0  0  0  0  0  0
   12.0813    7.3401   25.2425 C   0  0  0  0  0  0  0  0  0  0  0  0
   11.0066    8.0659   25.4733 N   0  0  0  0  0  0  0  0  0  0  0  0
   11.5412    6.0687   27.1380 N   0  0  0  0  0  0  0  0  0  0  0  0
   12.2412    4.9989   27.6647 C   0  0  0  0  0  0  0  0  0  0  0  0
   13.4495    4.6041   26.9583 N   0  0  0  0  0  0  0  0  0  0  0  0
  2  1  1  6  0  0  0
  2  3  1  0  0  0  0
  2  5  1  0  0  0  0
  3  4  1  0  0  0  0
  3 17  1  0  0  0  0
  5  6  1  0  0  0  0
  7  6  1  1  0  0  0
  7  8  1  0  0  0  0
  7  9  1  0  0  0  0
 10  9  1  1  0  0  0
 10 11  1  0  0  0  0
 10 12  1  0  0  0  0
 11 16  1  0  0  0  0
 12 13  1  1  0  0  0
 12 14  1  0  0  0  0
 14 15  1  1  0  0  0
 14 16  1  0  0  0  0
 16 27  1  1  0  0  0
 18 19  2  0  0  0  0
 18 23  1  0  0  0  0
 19 20  1  0  0  0  0
 20 21  2  0  0  0  0
 21 22  1  0  0  0  0
 21 27  1  0  0  0  0
 22 23  2  0  0  0  0
 22 25  1  0  0  0  0
 23 24  1  0  0  0  0
 25 26  2  0  0  0  0
 26 27  1  0  0  0  0
M  END
>  <CHROM.1>
9.26471437,46.88155916,93.58263444,26.82292227,169.91541623,66.53023755,176.70529702
13.66442300,4.63893248,29.31454243,1.51677857,-0.62533664,1.87401110

>  <Name>
ligand

>  <RI>
0

>  <Rbt.Current_Directory>
/home/itssahil/PROJECTS/Mol_Feturizer/Test_systems_manuscript/rnas/4aob

>  <Rbt.Executable>
rbdock ($Id: //depot/dev/client3/rdock/2013.1/src/exe/rbdock.cxx#4 $)

>  <Rbt.Library>
libRbt.so (2013.1, Build901 2013/11/27)

>  <Rbt.Parameter_File>
/export/apps/rDock/src/rDock_2013.1_src/data/scripts/dock_solv.prm

>  <Rbt.Receptor>
prm/pocket_docking_7.prm

>  <SCORE>
-12.9809

>  <SCORE.INTER>
-15.7371

>  <SCORE.INTER.CONST>
1

>  <SCORE.INTER.POLAR>
0

>  <SCORE.INTER.ROT>
7

>  <SCORE.INTER.SOLV>
14.3972

>  <SCORE.INTER.VDW>
-23.5571

>  <SCORE.INTER.norm>
-0.582857

>  <SCORE.INTRA>
2.75625

>  <SCORE.INTRA.DIHEDRAL>
2.69912

>  <SCORE.INTRA.DIHEDRAL.0>
6.31833

>  <SCORE.INTRA.POLAR>
0

>  <SCORE.INTRA.POLAR.0>
0

>  <SCORE.INTRA.REPUL>
0

>  <SCORE.INTRA.REPUL.0>
0

>  <SCORE.INTRA.SOLV>
1.00174

>  <SCORE.INTRA.SOLV.lig_0>
-48.4015

>  <SCORE.INTRA.VDW>
0.905819

>  <SCORE.INTRA.VDW.0>
-2.83256

>  <SCORE.INTRA.norm>
0.102083

>  <SCORE.RESTR>
0

>  <SCORE.RESTR.CAVITY>
0

>  <SCORE.RESTR.norm>
0

>  <SCORE.SYSTEM>
0

>  <SCORE.SYSTEM.CONST>
0

>  <SCORE.SYSTEM.DIHEDRAL>
0

>  <SCORE.SYSTEM.SOLV>
0

>  <SCORE.SYSTEM.norm>
0

>  <SCORE.heavy>
27

>  <SCORE.norm>
-0.480774

>  <RMSD>
7.043

$$$$
ligand
 OpenBabel02271912153D
libRbt.so/2013.1/901 2013/11/27
 27 29  0  0  0  0  0  0  0  0999 V2000
   12.5615    5.4657   32.2058 N   0  0  0  0  0  0  0  0  0  0  0  0
   12.2482    5.1158   33.6121 C   0  0  2  0  0  0  0  0  0  0  0  0
   13.2693    5.8105   34.5037 C   0  0  0  0  0  0  0  0  0  0  0  0
   13.0239    6.4458   35.5824 O   0  0  0  0  0  0  0  0  0  0  0  0
   12.2571    3.5921   33.7538 C   0  0  0  0  0  0  0  0  0  0  0  0
   13.4798    2.9482   33.1138 C   0  0  0  0  0  0  0  0  0  0  0  0
   13.4731    2.2316   31.4277 S   0  0  2  0  0  0  0  0  0  0  0  0
   14.5456    0.8273   31.7248 C   0  0  0  0  0  0  0  0  0  0  0  0
   14.5673    3.4468   30.6262 C   0  0  0  0  0  0  0  0  0  0  0  0
   14.7476    3.1480   29.1633 C   0  0  1  0  0  0  0  0  0  0  0  0
   13.5201    3.2999   28.4102 O   0  0  0  0  0  0  0  0  0  0  0  0
   15.7920    4.0003   28.4794 C   0  0  1  0  0  0  0  0  0  0  0  0
   16.9487    3.2855   28.4185 O   0  0  0  0  0  0  0  0  0  0  0  0
   15.2232    4.0512   27.0807 C   0  0  1  0  0  0  0  0  0  0  0  0
   15.6266    2.9016   26.4798 O   0  0  0  0  0  0  0  0  0  0  0  0
   13.6855    4.0316   27.2256 C   0  0  2  0  0  0  0  0  0  0  0  0
   14.4343    5.7962   34.1024 O   0  0  0  0  0  0  0  0  0  0  0  0
   10.0197    7.6621   27.9710 N   0  0  0  0  0  0  0  0  0  0  0  0
    9.9729    6.2592   27.6706 C   0  0  0  0  0  0  0  0  0  0  0  0
   11.0613    5.3683   27.4986 N   0  0  0  0  0  0  0  0  0  0  0  0
   12.1762    5.9643   27.6583 C   0  0  0  0  0  0  0  0  0  0  0  0
   12.3306    7.4019   27.9745 C   0  0  0  0  0  0  0  0  0  0  0  0
   11.2743    8.2134   28.1145 C   0  0  0  0  0  0  0  0  0  0  0  0
   11.5529    9.4740   28.3758 N   0  0  0  0  0  0  0  0  0  0  0  0
   13.5802    7.7864   28.0794 N   0  0  0  0  0  0  0  0  0  0  0  0
   14.2121    6.5814   27.8335 C   0  0  0  0  0  0  0  0  0  0  0  0
   13.3506    5.4384   27.5767 N   0  0  0  0  0  0  0  0  0  0  0  0
  2  1  1  6  0  0  0
  2  3  1  0  0  0  0
  2  5  1  0  0  0  0
  3  4  1  0  0  0  0
  3 17  1  0  0  0  0
  5  6  1  0  0  0  0
  7  6  1  1  0  0  0
  7  8  1  0  0  0  0
  7  9  1  0  0  0  0
 10  9  1  1  0  0  0
 10 11  1  0  0  0  0
 10 12  1  0  0  0  0
 11 16  1  0  0  0  0
 12 13  1  6  0  0  0
 12 14  1  0  0  0  0
 14 15  1  6  0  0  0
 14 16  1  0  0  0  0
 16 27  1  1  0  0  0
 18 19  2  0  0  0  0
 18 23  1  0  0  0  0
 19 20  1  0  0  0  0
 20 21  2  0  0  0  0
 21 22  1  0  0  0  0
 21 27  1  0  0  0  0
 22 23  2  0  0  0  0
 22 25  1  0  0  0  0
 23 24  1  0  0  0  0
 25 26  2  0  0  0  0
 26 27  1  0  0  0  0
M  END
>  <CHROM.1>
135.17956273,47.23860102,-96.84559661,-142.91017022,-178.64564106,65.85679212
-81.75944305,13.36179326,4.85902708,29.93790109,1.35523121,-0.95298724,1.74538630

>  <Name>
ligand

>  <RI>
0

>  <Rbt.Current_Directory>
/home/itssahil/PROJECTS/Mol_Feturizer/Test_systems_manuscript/rnas/4aob

>  <Rbt.Executable>
rbdock ($Id: //depot/dev/client3/rdock/2013.1/src/exe/rbdock.cxx#4 $)

>  <Rbt.Library>
libRbt.so (2013.1, Build901 2013/11/27)

>  <Rbt.Parameter_File>
/export/apps/rDock/src/rDock_2013.1_src/data/scripts/dock_solv.prm

>  <Rbt.Receptor>
prm/pocket_docking_5.prm

>  <SCORE>
-13.5508

>  <SCORE.INTER>
-17.7457

>  <SCORE.INTER.CONST>
1

>  <SCORE.INTER.POLAR>
0

>  <SCORE.INTER.ROT>
7

>  <SCORE.INTER.SOLV>
17.0253

>  <SCORE.INTER.VDW>
-25.7722

>  <SCORE.INTER.norm>
-0.657249

>  <SCORE.INTRA>
4.19492

>  <SCORE.INTRA.DIHEDRAL>
5.54086

>  <SCORE.INTRA.DIHEDRAL.0>
6.31833

>  <SCORE.INTRA.POLAR>
0

>  <SCORE.INTRA.POLAR.0>
0

>  <SCORE.INTRA.REPUL>
0

>  <SCORE.INTRA.REPUL.0>
0

>  <SCORE.INTRA.SOLV>
2.01167

>  <SCORE.INTRA.SOLV.lig_0>
-48.4015

>  <SCORE.INTRA.VDW>
0.418654

>  <SCORE.INTRA.VDW.0>
-2.83256

>  <SCORE.INTRA.norm>
0.155367

>  <SCORE.RESTR>
0

>  <SCORE.RESTR.CAVITY>
0

>  <SCORE.RESTR.norm>
0

>  <SCORE.SYSTEM>
0

>  <SCORE.SYSTEM.CONST>
0

>  <SCORE.SYSTEM.DIHEDRAL>
0

>  <SCORE.SYSTEM.SOLV>
0

>  <SCORE.SYSTEM.norm>
0

>  <SCORE.heavy>
27

>  <SCORE.norm>
-0.501881

>  <RMSD>
7.056

$$$$
ligand
 OpenBabel02271912153D
libRbt.so/2013.1/901 2013/11/27
 27 29  0  0  0  0  0  0  0  0999 V2000
   14.6677    6.4915   33.6670 N   0  0  0  0  0  0  0  0  0  0  0  0
   13.4673    6.5398   32.7980 C   0  0  2  0  0  0  0  0  0  0  0  0
   13.0547    7.9991   32.6542 C   0  0  0  0  0  0  0  0  0  0  0  0
   13.2443    8.9267   33.5091 O   0  0  0  0  0  0  0  0  0  0  0  0
   12.3777    5.6599   33.4146 C   0  0  0  0  0  0  0  0  0  0  0  0
   12.6886    4.1732   33.3040 C   0  0  0  0  0  0  0  0  0  0  0  0
   12.8106    3.2869   31.7052 S   0  0  2  0  0  0  0  0  0  0  0  0
   13.6586    1.8146   32.2744 C   0  0  0  0  0  0  0  0  0  0  0  0
   14.1370    4.2854   30.9570 C   0  0  0  0  0  0  0  0  0  0  0  0
   14.6560    3.6569   29.6930 C   0  0  1  0  0  0  0  0  0  0  0  0
   13.5923    3.2184   28.8138 O   0  0  0  0  0  0  0  0  0  0  0  0
   15.5587    4.5548   28.8781 C   0  0  1  0  0  0  0  0  0  0  0  0
   16.8492    4.2308   29.1647 O   0  0  0  0  0  0  0  0  0  0  0  0
   15.2659    4.0399   27.4883 C   0  0  1  0  0  0  0  0  0  0  0  0
   16.0520    2.9431   27.3316 O   0  0  0  0  0  0  0  0  0  0  0  0
   13.7841    3.6037   27.4793 C   0  0  2  0  0  0  0  0  0  0  0  0
   12.4290    8.2845   31.6317 O   0  0  0  0  0  0  0  0  0  0  0  0
   12.7919    7.8293   24.5923 N   0  0  0  0  0  0  0  0  0  0  0  0
   13.5907    6.6553   24.3819 C   0  0  0  0  0  0  0  0  0  0  0  0
   13.7723    5.5565   25.2580 N   0  0  0  0  0  0  0  0  0  0  0  0
   13.1019    5.7055   26.3314 C   0  0  0  0  0  0  0  0  0  0  0  0
   12.2465    6.8730   26.6407 C   0  0  0  0  0  0  0  0  0  0  0  0
   12.1138    7.8987   25.7897 C   0  0  0  0  0  0  0  0  0  0  0  0
   11.3384    8.8824   26.1972 N   0  0  0  0  0  0  0  0  0  0  0  0
   11.6658    6.8035   27.8148 N   0  0  0  0  0  0  0  0  0  0  0  0
   12.1554    5.5825   28.2407 C   0  0  0  0  0  0  0  0  0  0  0  0
   13.0444    4.8856   27.3249 N   0  0  0  0  0  0  0  0  0  0  0  0
  2  1  1  1  0  0  0
  2  3  1  0  0  0  0
  2  5  1  0  0  0  0
  3  4  1  0  0  0  0
  3 17  1  0  0  0  0
  5  6  1  0  0  0  0
  7  6  1  1  0  0  0
  7  8  1  0  0  0  0
  7  9  1  0  0  0  0
 10  9  1  1  0  0  0
 10 11  1  0  0  0  0
 10 12  1  0  0  0  0
 11 16  1  0  0  0  0
 12 13  1  1  0  0  0
 12 14  1  0  0  0  0
 14 15  1  1  0  0  0
 14 16  1  0  0  0  0
 16 27  1  1  0  0  0
 18 19  2  0  0  0  0
 18 23  1  0  0  0  0
 19 20  1  0  0  0  0
 20 21  2  0  0  0  0
 21 22  1  0  0  0  0
 21 27  1  0  0  0  0
 22 23  2  0  0  0  0
 22 25  1  0  0  0  0
 23 24  1  0  0  0  0
 25 26  2  0  0  0  0
 26 27  1  0  0  0  0
M  END
>  <CHROM.1>
-28.94175048,-71.37227246,-64.37541728,163.58283547,169.92412985,46.38404067
168.79252603,13.48944767,5.42934558,29.36521310,1.49728356,-1.13250577,1.64668329

>  <Name>
ligand

>  <RI>
0

>  <Rbt.Current_Directory>
/home/itssahil/PROJECTS/Mol_Feturizer/Test_systems_manuscript/rnas/4aob

>  <Rbt.Executable>
rbdock ($Id: //depot/dev/client3/rdock/2013.1/src/exe/rbdock.cxx#4 $)

>  <Rbt.Library>
libRbt.so (2013.1, Build901 2013/11/27)

>  <Rbt.Parameter_File>
/export/apps/rDock/src/rDock_2013.1_src/data/scripts/dock_solv.prm

>  <Rbt.Receptor>
prm/pocket_docking_5.prm

>  <SCORE>
-13.4163

>  <SCORE.INTER>
-13.2637

>  <SCORE.INTER.CONST>
1

>  <SCORE.INTER.POLAR>
0

>  <SCORE.INTER.ROT>
7

>  <SCORE.INTER.SOLV>
8.5613

>  <SCORE.INTER.VDW>
-19.9629

>  <SCORE.INTER.norm>
-0.491247

>  <SCORE.INTRA>
-0.152676

>  <SCORE.INTRA.DIHEDRAL>
-1.79887

>  <SCORE.INTRA.DIHEDRAL.0>
6.31833

>  <SCORE.INTRA.POLAR>
0

>  <SCORE.INTRA.POLAR.0>
0

>  <SCORE.INTRA.REPUL>
0

>  <SCORE.INTRA.REPUL.0>
0

>  <SCORE.INTRA.SOLV>
1.07527

>  <SCORE.INTRA.SOLV.lig_0>
-48.4015

>  <SCORE.INTRA.VDW>
0.209123

>  <SCORE.INTRA.VDW.0>
-2.83256

>  <SCORE.INTRA.norm>
-0.00565466

>  <SCORE.RESTR>
0

>  <SCORE.RESTR.CAVITY>
0

>  <SCORE.RESTR.norm>
0

>  <SCORE.SYSTEM>
0

>  <SCORE.SYSTEM.CONST>
0

>  <SCORE.SYSTEM.DIHEDRAL>
0

>  <SCORE.SYSTEM.SOLV>
0

>  <SCORE.SYSTEM.norm>
0

>  <SCORE.heavy>
27

>  <SCORE.norm>
-0.496901

>  <RMSD>
7.063

$$$$
ligand
 OpenBabel02271912153D
libRbt.so/2013.1/901 2013/11/27
 27 29  0  0  0  0  0  0  0  0999 V2000
   12.6047    5.6807   35.0643 N   0  0  0  0  0  0  0  0  0  0  0  0
   13.7494    5.9827   34.1716 C   0  0  2  0  0  0  0  0  0  0  0  0
   13.3439    7.1416   33.2700 C   0  0  0  0  0  0  0  0  0  0  0  0
   12.7217    7.0546   32.1597 O   0  0  0  0  0  0  0  0  0  0  0  0
   14.1189    4.7145   33.3992 C   0  0  0  0  0  0  0  0  0  0  0  0
   12.9387    4.1215   32.6413 C   0  0  0  0  0  0  0  0  0  0  0  0
   13.1261    3.0272   31.1839 S   0  0  2  0  0  0  0  0  0  0  0  0
   13.9837    1.6666   31.9739 C   0  0  0  0  0  0  0  0  0  0  0  0
   14.4558    3.9435   30.3422 C   0  0  0  0  0  0  0  0  0  0  0  0
   14.6116    3.5029   28.9127 C   0  0  1  0  0  0  0  0  0  0  0  0
   13.3850    3.6346   28.1544 O   0  0  0  0  0  0  0  0  0  0  0  0
   15.6839    4.2443   28.1475 C   0  0  1  0  0  0  0  0  0  0  0  0
   16.8101    3.4800   28.1482 O   0  0  0  0  0  0  0  0  0  0  0  0
   15.1059    4.1885   26.7528 C   0  0  1  0  0  0  0  0  0  0  0  0
   15.4573    2.9724   26.2598 O   0  0  0  0  0  0  0  0  0  0  0  0
   13.5699    4.2457   26.9060 C   0  0  2  0  0  0  0  0  0  0  0  0
   13.7075    8.2612   33.6342 O   0  0  0  0  0  0  0  0  0  0  0  0
   10.0794    8.0028   27.8421 N   0  0  0  0  0  0  0  0  0  0  0  0
    9.9887    6.5736   27.7423 C   0  0  0  0  0  0  0  0  0  0  0  0
   11.0327    5.6500   27.4879 N   0  0  0  0  0  0  0  0  0  0  0  0
   12.1528    6.2432   27.3564 C   0  0  0  0  0  0  0  0  0  0  0  0
   12.3520    7.7070   27.4470 C   0  0  0  0  0  0  0  0  0  0  0  0
   11.3341    8.5472   27.6747 C   0  0  0  0  0  0  0  0  0  0  0  0
   11.6464    9.8262   27.7116 N   0  0  0  0  0  0  0  0  0  0  0  0
   13.5958    8.0810   27.2647 N   0  0  0  0  0  0  0  0  0  0  0  0
   14.1803    6.8439   27.0650 C   0  0  0  0  0  0  0  0  0  0  0  0
   13.2953    5.6916   27.1261 N   0  0  0  0  0  0  0  0  0  0  0  0
  2  1  1  1  0  0  0
  2  3  1  0  0  0  0
  2  5  1  0  0  0  0
  3  4  1  0  0  0  0
  3 17  1  0  0  0  0
  5  6  1  0  0  0  0
  7  6  1  1  0  0  0
  7  8  1  0  0  0  0
  7  9  1  0  0  0  0
 10  9  1  1  0  0  0
 10 11  1  0  0  0  0
 10 12  1  0  0  0  0
 11 16  1  0  0  0  0
 12 13  1  6  0  0  0
 12 14  1  0  0  0  0
 14 15  1  1  0  0  0
 14 16  1  0  0  0  0
 16 27  1  1  0  0  0
 18 19  2  0  0  0  0
 18 23  1  0  0  0  0
 19 20  1  0  0  0  0
 20 21  2  0  0  0  0
 21 22  1  0  0  0  0
 21 27  1  0  0  0  0
 22 23  2  0  0  0  0
 22 25  1  0  0  0  0
 23 24  1  0  0  0  0
 25 26  2  0  0  0  0
 26 27  1  0  0  0  0
M  END
>  <CHROM.1>
-86.42425972,54.87677076,156.89887063,62.76172373,-165.07316716,56.69794965
-70.86135153,13.33710213,5.41748033,29.60502349,1.41548042,-1.02530934,1.61310501

>  <Name>
ligand

>  <RI>
0

>  <Rbt.Current_Directory>
/home/itssahil/PROJECTS/Mol_Feturizer/Test_systems_manuscript/rnas/4aob

>  <Rbt.Executable>
rbdock ($Id: //depot/dev/client3/rdock/2013.1/src/exe/rbdock.cxx#4 $)

>  <Rbt.Library>
libRbt.so (2013.1, Build901 2013/11/27)

>  <Rbt.Parameter_File>
/export/apps/rDock/src/rDock_2013.1_src/data/scripts/dock_solv.prm

>  <Rbt.Receptor>
prm/pocket_docking_4.prm

>  <SCORE>
-10.0727

>  <SCORE.INTER>
-11.5525

>  <SCORE.INTER.CONST>
1

>  <SCORE.INTER.POLAR>
0

>  <SCORE.INTER.ROT>
7

>  <SCORE.INTER.SOLV>
19.722

>  <SCORE.INTER.VDW>
-22.5423

>  <SCORE.INTER.norm>
-0.42787

>  <SCORE.INTRA>
1.47978

>  <SCORE.INTRA.DIHEDRAL>
0.69694

>  <SCORE.INTRA.DIHEDRAL.0>
6.31833

>  <SCORE.INTRA.POLAR>
0

>  <SCORE.INTRA.POLAR.0>
0

>  <SCORE.INTRA.REPUL>
0

>  <SCORE.INTRA.REPUL.0>
0

>  <SCORE.INTRA.SOLV>
-0.0737564

>  <SCORE.INTRA.SOLV.lig_0>
-48.4015

>  <SCORE.INTRA.VDW>
1.16819

>  <SCORE.INTRA.VDW.0>
-2.83256

>  <SCORE.INTRA.norm>
0.0548067

>  <SCORE.RESTR>
0

>  <SCORE.RESTR.CAVITY>
0

>  <SCORE.RESTR.norm>
0

>  <SCORE.SYSTEM>
0

>  <SCORE.SYSTEM.CONST>
0

>  <SCORE.SYSTEM.DIHEDRAL>
0

>  <SCORE.SYSTEM.SOLV>
0

>  <SCORE.SYSTEM.norm>
0

>  <SCORE.heavy>
27

>  <SCORE.norm>
-0.373063

>  <RMSD>
7.077

$$$$
ligand
 OpenBabel02271912153D
libRbt.so/2013.1/901 2013/11/27
 27 29  0  0  0  0  0  0  0  0999 V2000
   14.5258    6.4194   33.1879 N   0  0  0  0  0  0  0  0  0  0  0  0
   13.7305    5.1785   33.0261 C   0  0  2  0  0  0  0  0  0  0  0  0
   12.7324    5.1116   34.1748 C   0  0  0  0  0  0  0  0  0  0  0  0
   12.3987    4.0675   34.8274 O   0  0  0  0  0  0  0  0  0  0  0  0
   14.6859    3.9839   32.9831 C   0  0  0  0  0  0  0  0  0  0  0  0
   13.9727    2.6692   32.6970 C   0  0  0  0  0  0  0  0  0  0  0  0
   13.8804    1.9167   31.0291 S   0  0  2  0  0  0  0  0  0  0  0  0
   15.5830    1.3788   30.8789 C   0  0  0  0  0  0  0  0  0  0  0  0
   13.8274    3.4543   30.0547 C   0  0  0  0  0  0  0  0  0  0  0  0
   14.2259    3.2161   28.6242 C   0  0  1  0  0  0  0  0  0  0  0  0
   13.2088    3.6432   27.6861 O   0  0  0  0  0  0  0  0  0  0  0  0
   15.5135    3.8952   28.2168 C   0  0  1  0  0  0  0  0  0  0  0  0
   16.5176    2.9795   28.2916 O   0  0  0  0  0  0  0  0  0  0  0  0
   15.2372    4.1379   26.7514 C   0  0  1  0  0  0  0  0  0  0  0  0
   15.5395    2.9713   26.1244 O   0  0  0  0  0  0  0  0  0  0  0  0
   13.7205    4.4010   26.6230 C   0  0  2  0  0  0  0  0  0  0  0  0
   12.1587    6.1661   34.4530 O   0  0  0  0  0  0  0  0  0  0  0  0
   10.6197    8.2259   28.3346 N   0  0  0  0  0  0  0  0  0  0  0  0
   10.4123    6.8300   28.0716 C   0  0  0  0  0  0  0  0  0  0  0  0
   11.3572    5.8807   27.6092 N   0  0  0  0  0  0  0  0  0  0  0  0
   12.5036    6.4121   27.4446 C   0  0  0  0  0  0  0  0  0  0  0  0
   12.8205    7.8364   27.6923 C   0  0  0  0  0  0  0  0  0  0  0  0
   11.8929    8.7048   28.1157 C   0  0  0  0  0  0  0  0  0  0  0  0
   12.3036    9.9459   28.2773 N   0  0  0  0  0  0  0  0  0  0  0  0
   14.0689    8.1495   27.4391 N   0  0  0  0  0  0  0  0  0  0  0  0
   14.5382    6.9127   27.0365 C   0  0  0  0  0  0  0  0  0  0  0  0
   13.5767    5.8217   27.0416 N   0  0  0  0  0  0  0  0  0  0  0  0
  2  1  1  1  0  0  0
  2  3  1  0  0  0  0
  2  5  1  0  0  0  0
  3  4  1  0  0  0  0
  3 17  1  0  0  0  0
  5  6  1  0  0  0  0
  7  6  1  1  0  0  0
  7  8  1  0  0  0  0
  7  9  1  0  0  0  0
 10  9  1  1  0  0  0
 10 11  1  0  0  0  0
 10 12  1  0  0  0  0
 11 16  1  0  0  0  0
 12 13  1  6  0  0  0
 12 14  1  0  0  0  0
 14 15  1  6  0  0  0
 14 16  1  0  0  0  0
 16 27  1  1  0  0  0
 18 19  2  0  0  0  0
 18 23  1  0  0  0  0
 19 20  1  0  0  0  0
 20 21  2  0  0  0  0
 21 22  1  0  0  0  0
 21 27  1  0  0  0  0
 22 23  2  0  0  0  0
 22 25  1  0  0  0  0
 23 24  1  0  0  0  0
 25 26  2  0  0  0  0
 26 27  1  0  0  0  0
M  END
>  <CHROM.1>
-140.09863388,-174.99829221,97.63162149,72.13028482,160.07233061,123.58800688
-53.59124020,13.59150935,4.96192107,29.63502478,1.33341841,-1.03881933,1.87146226

>  <Name>
ligand

>  <RI>
0

>  <Rbt.Current_Directory>
/home/itssahil/PROJECTS/Mol_Feturizer/Test_systems_manuscript/rnas/4aob

>  <Rbt.Executable>
rbdock ($Id: //depot/dev/client3/rdock/2013.1/src/exe/rbdock.cxx#4 $)

>  <Rbt.Library>
libRbt.so (2013.1, Build901 2013/11/27)

>  <Rbt.Parameter_File>
/export/apps/rDock/src/rDock_2013.1_src/data/scripts/dock_solv.prm

>  <Rbt.Receptor>
prm/pocket_docking_3.prm

>  <SCORE>
-9.82041

>  <SCORE.INTER>
-14.4665

>  <SCORE.INTER.CONST>
1

>  <SCORE.INTER.POLAR>
0

>  <SCORE.INTER.ROT>
7

>  <SCORE.INTER.SOLV>
16.0762

>  <SCORE.INTER.VDW>
-23.2698

>  <SCORE.INTER.norm>
-0.535798

>  <SCORE.INTRA>
4.64462

>  <SCORE.INTRA.DIHEDRAL>
7.16887

>  <SCORE.INTRA.DIHEDRAL.0>
6.31833

>  <SCORE.INTRA.POLAR>
0

>  <SCORE.INTRA.POLAR.0>
0

>  <SCORE.INTRA.REPUL>
0

>  <SCORE.INTRA.REPUL.0>
0

>  <SCORE.INTRA.SOLV>
-0.253365

>  <SCORE.INTRA.SOLV.lig_0>
-48.4015

>  <SCORE.INTRA.VDW>
1.18686

>  <SCORE.INTRA.VDW.0>
-2.83256

>  <SCORE.INTRA.norm>
0.172023

>  <SCORE.RESTR>
0.0015256

>  <SCORE.RESTR.CAVITY>
0.0015256

>  <SCORE.RESTR.norm>
5.65038e-05

>  <SCORE.SYSTEM>
0

>  <SCORE.SYSTEM.CONST>
0

>  <SCORE.SYSTEM.DIHEDRAL>
0

>  <SCORE.SYSTEM.SOLV>
0

>  <SCORE.SYSTEM.norm>
0

>  <SCORE.heavy>
27

>  <SCORE.norm>
-0.363719

>  <RMSD>
7.156

$$$$
ligand
 OpenBabel02271912153D
libRbt.so/2013.1/901 2013/11/27
 27 29  0  0  0  0  0  0  0  0999 V2000
   14.4211    7.6135   35.4848 N   0  0  0  0  0  0  0  0  0  0  0  0
   15.0631    7.2100   34.2108 C   0  0  2  0  0  0  0  0  0  0  0  0
   16.5679    7.1622   34.4420 C   0  0  0  0  0  0  0  0  0  0  0  0
   17.3587    6.2263   34.0866 O   0  0  0  0  0  0  0  0  0  0  0  0
   14.6492    8.1970   33.1170 C   0  0  0  0  0  0  0  0  0  0  0  0
   13.1779    8.0780   32.7424 C   0  0  0  0  0  0  0  0  0  0  0  0
   12.5011    6.6950   31.7495 S   0  0  2  0  0  0  0  0  0  0  0  0
   12.9563    5.3380   32.8275 C   0  0  0  0  0  0  0  0  0  0  0  0
   13.7777    6.6602   30.4513 C   0  0  0  0  0  0  0  0  0  0  0  0
   13.7662    5.3577   29.6995 C   0  0  1  0  0  0  0  0  0  0  0  0
   12.4621    5.0428   29.1544 O   0  0  0  0  0  0  0  0  0  0  0  0
   14.7496    5.2933   28.5532 C   0  0  1  0  0  0  0  0  0  0  0  0
   15.8629    4.6411   28.9863 O   0  0  0  0  0  0  0  0  0  0  0  0
   14.0159    4.3568   27.6221 C   0  0  1  0  0  0  0  0  0  0  0  0
   14.2999    3.1043   28.0649 O   0  0  0  0  0  0  0  0  0  0  0  0
   12.5078    4.6298   27.8152 C   0  0  2  0  0  0  0  0  0  0  0  0
   17.0451    8.0992   35.0845 O   0  0  0  0  0  0  0  0  0  0  0  0
   10.0737    9.2151   27.3408 N   0  0  0  0  0  0  0  0  0  0  0  0
   10.1174    8.2233   28.3776 C   0  0  0  0  0  0  0  0  0  0  0  0
   10.8377    7.0030   28.3863 N   0  0  0  0  0  0  0  0  0  0  0  0
   11.5076    6.8542   27.3126 C   0  0  0  0  0  0  0  0  0  0  0  0
   11.5338    7.8182   26.1898 C   0  0  0  0  0  0  0  0  0  0  0  0
   10.8257    8.9548   26.2160 C   0  0  0  0  0  0  0  0  0  0  0  0
   10.9232    9.7134   25.1437 N   0  0  0  0  0  0  0  0  0  0  0  0
   12.2891    7.4378   25.1872 N   0  0  0  0  0  0  0  0  0  0  0  0
   12.7436    6.2315   25.6874 C   0  0  0  0  0  0  0  0  0  0  0  0
   12.2706    5.8594   27.0112 N   0  0  0  0  0  0  0  0  0  0  0  0
  2  1  1  1  0  0  0
  2  3  1  0  0  0  0
  2  5  1  0  0  0  0
  3  4  1  0  0  0  0
  3 17  1  0  0  0  0
  5  6  1  0  0  0  0
  7  6  1  1  0  0  0
  7  8  1  0  0  0  0
  7  9  1  0  0  0  0
 10  9  1  6  0  0  0
 10 11  1  0  0  0  0
 10 12  1  0  0  0  0
 11 16  1  0  0  0  0
 12 13  1  1  0  0  0
 12 14  1  0  0  0  0
 14 15  1  1  0  0  0
 14 16  1  0  0  0  0
 16 27  1  6  0  0  0
 18 19  2  0  0  0  0
 18 23  1  0  0  0  0
 19 20  1  0  0  0  0
 20 21  2  0  0  0  0
 21 22  1  0  0  0  0
 21 27  1  0  0  0  0
 22 23  2  0  0  0  0
 22 25  1  0  0  0  0
 23 24  1  0  0  0  0
 25 26  2  0  0  0  0
 26 27  1  0  0  0  0
M  END
>  <CHROM.1>
133.32910456,-69.20315608,-74.03024887,59.62735030,161.96584063,54.42466385
-34.53942453,13.31160184,6.65893336,29.85672564,0.83722274,-0.82188909,1.01231406

>  <Name>
ligand

>  <RI>
0

>  <Rbt.Current_Directory>
/home/itssahil/PROJECTS/Mol_Feturizer/Test_systems_manuscript/rnas/4aob

>  <Rbt.Executable>
rbdock ($Id: //depot/dev/client3/rdock/2013.1/src/exe/rbdock.cxx#4 $)

>  <Rbt.Library>
libRbt.so (2013.1, Build901 2013/11/27)

>  <Rbt.Parameter_File>
/export/apps/rDock/src/rDock_2013.1_src/data/scripts/dock_solv.prm

>  <Rbt.Receptor>
prm/pocket_docking_8.prm

>  <SCORE>
-9.74905

>  <SCORE.INTER>
-9.98454

>  <SCORE.INTER.CONST>
1

>  <SCORE.INTER.POLAR>
0

>  <SCORE.INTER.ROT>
7

>  <SCORE.INTER.SOLV>
9.35324

>  <SCORE.INTER.VDW>
-18.0408

>  <SCORE.INTER.norm>
-0.369798

>  <SCORE.INTRA>
0.235489

>  <SCORE.INTRA.DIHEDRAL>
-1.70744

>  <SCORE.INTRA.DIHEDRAL.0>
6.31833

>  <SCORE.INTRA.POLAR>
0

>  <SCORE.INTRA.POLAR.0>
0

>  <SCORE.INTRA.REPUL>
0

>  <SCORE.INTRA.REPUL.0>
0

>  <SCORE.INTRA.SOLV>
0.989389

>  <SCORE.INTRA.SOLV.lig_0>
-48.4015

>  <SCORE.INTRA.VDW>
0.594514

>  <SCORE.INTRA.VDW.0>
-2.83256

>  <SCORE.INTRA.norm>
0.0087218

>  <SCORE.RESTR>
0

>  <SCORE.RESTR.CAVITY>
0

>  <SCORE.RESTR.norm>
0

>  <SCORE.SYSTEM>
0

>  <SCORE.SYSTEM.CONST>
0

>  <SCORE.SYSTEM.DIHEDRAL>
0

>  <SCORE.SYSTEM.SOLV>
0

>  <SCORE.SYSTEM.norm>
0

>  <SCORE.heavy>
27

>  <SCORE.norm>
-0.361076

>  <RMSD>
7.199

$$$$
ligand
 OpenBabel02271912153D
libRbt.so/2013.1/901 2013/11/27
 27 29  0  0  0  0  0  0  0  0999 V2000
   11.7387    5.9765   33.7509 N   0  0  0  0  0  0  0  0  0  0  0  0
   12.9541    5.3729   34.3483 C   0  0  2  0  0  0  0  0  0  0  0  0
   13.8313    6.5060   34.8649 C   0  0  0  0  0  0  0  0  0  0  0  0
   13.8060    7.0081   36.0374 O   0  0  0  0  0  0  0  0  0  0  0  0
   13.6432    4.5064   33.2919 C   0  0  0  0  0  0  0  0  0  0  0  0
   12.6923    3.5196   32.6277 C   0  0  0  0  0  0  0  0  0  0  0  0
   13.1254    2.5577   31.1298 S   0  0  2  0  0  0  0  0  0  0  0  0
   14.3272    1.4461   31.8584 C   0  0  0  0  0  0  0  0  0  0  0  0
   14.1492    3.8158   30.3020 C   0  0  0  0  0  0  0  0  0  0  0  0
   14.4739    3.4209   28.8876 C   0  0  1  0  0  0  0  0  0  0  0  0
   13.3793    3.6764   27.9747 O   0  0  0  0  0  0  0  0  0  0  0  0
   15.6935    4.1070   28.3156 C   0  0  1  0  0  0  0  0  0  0  0  0
   16.7513    3.2587   28.4338 O   0  0  0  0  0  0  0  0  0  0  0  0
   15.3160    4.1506   26.8534 C   0  0  1  0  0  0  0  0  0  0  0  0
   15.6465    2.9313   26.3539 O   0  0  0  0  0  0  0  0  0  0  0  0
   13.7816    4.3200   26.7956 C   0  0  2  0  0  0  0  0  0  0  0  0
   14.5962    7.0139   34.0430 O   0  0  0  0  0  0  0  0  0  0  0  0
   10.5424    8.1865   28.1118 N   0  0  0  0  0  0  0  0  0  0  0  0
   10.3929    6.7618   28.0193 C   0  0  0  0  0  0  0  0  0  0  0  0
   11.3714    5.8051   27.6515 N   0  0  0  0  0  0  0  0  0  0  0  0
   12.4902    6.3611   27.4010 C   0  0  0  0  0  0  0  0  0  0  0  0
   12.7476    7.8169   27.4725 C   0  0  0  0  0  0  0  0  0  0  0  0
   11.7894    8.6894   27.8108 C   0  0  0  0  0  0  0  0  0  0  0  0
   12.1472    9.9571   27.8164 N   0  0  0  0  0  0  0  0  0  0  0  0
   13.9765    8.1501   27.1575 N   0  0  0  0  0  0  0  0  0  0  0  0
   14.4936    6.8952   26.8932 C   0  0  0  0  0  0  0  0  0  0  0  0
   13.5817    5.7729   27.0472 N   0  0  0  0  0  0  0  0  0  0  0  0
  2  1  1  6  0  0  0
  2  3  1  0  0  0  0
  2  5  1  0  0  0  0
  3  4  1  0  0  0  0
  3 17  1  0  0  0  0
  5  6  1  0  0  0  0
  7  6  1  1  0  0  0
  7  8  1  0  0  0  0
  7  9  1  0  0  0  0
 10  9  1  1  0  0  0
 10 11  1  0  0  0  0
 10 12  1  0  0  0  0
 11 16  1  0  0  0  0
 12 13  1  6  0  0  0
 12 14  1  0  0  0  0
 14 15  1  6  0  0  0
 14 16  1  0  0  0  0
 16 27  1  1  0  0  0
 18 19  2  0  0  0  0
 18 23  1  0  0  0  0
 19 20  1  0  0  0  0
 20 21  2  0  0  0  0
 21 22  1  0  0  0  0
 21 27  1  0  0  0  0
 22 23  2  0  0  0  0
 22 25  1  0  0  0  0
 23 24  1  0  0  0  0
 25 26  2  0  0  0  0
 26 27  1  0  0  0  0
M  END
>  <CHROM.1>
90.92717536,-51.11365845,168.71199419,70.36374325,-169.65978123,79.43994760
-56.23992708,13.49579598,5.28028770,29.80870992,1.55456077,-1.10489098,1.69015042

>  <Name>
ligand

>  <RI>
0

>  <Rbt.Current_Directory>
/home/itssahil/PROJECTS/Mol_Feturizer/Test_systems_manuscript/rnas/4aob

>  <Rbt.Executable>
rbdock ($Id: //depot/dev/client3/rdock/2013.1/src/exe/rbdock.cxx#4 $)

>  <Rbt.Library>
libRbt.so (2013.1, Build901 2013/11/27)

>  <Rbt.Parameter_File>
/export/apps/rDock/src/rDock_2013.1_src/data/scripts/dock_solv.prm

>  <Rbt.Receptor>
prm/pocket_docking_3.prm

>  <SCORE>
-10.9016

>  <SCORE.INTER>
-12.8773

>  <SCORE.INTER.CONST>
1

>  <SCORE.INTER.POLAR>
0

>  <SCORE.INTER.ROT>
7

>  <SCORE.INTER.SOLV>
20.636

>  <SCORE.INTER.VDW>
-23.7302

>  <SCORE.INTER.norm>
-0.476939

>  <SCORE.INTRA>
1.96865

>  <SCORE.INTRA.DIHEDRAL>
0.589066

>  <SCORE.INTRA.DIHEDRAL.0>
6.31833

>  <SCORE.INTRA.POLAR>
0

>  <SCORE.INTRA.POLAR.0>
0

>  <SCORE.INTRA.REPUL>
0

>  <SCORE.INTRA.REPUL.0>
0

>  <SCORE.INTRA.SOLV>
0.0227011

>  <SCORE.INTRA.SOLV.lig_0>
-48.4015

>  <SCORE.INTRA.VDW>
1.66277

>  <SCORE.INTRA.VDW.0>
-2.83256

>  <SCORE.INTRA.norm>
0.0729131

>  <SCORE.RESTR>
0.00706394

>  <SCORE.RESTR.CAVITY>
0.00706394

>  <SCORE.RESTR.norm>
0.000261627

>  <SCORE.SYSTEM>
0

>  <SCORE.SYSTEM.CONST>
0

>  <SCORE.SYSTEM.DIHEDRAL>
0

>  <SCORE.SYSTEM.SOLV>
0

>  <SCORE.SYSTEM.norm>
0

>  <SCORE.heavy>
27

>  <SCORE.norm>
-0.403764

>  <RMSD>
7.211

$$$$
ligand
 OpenBabel02271912153D
libRbt.so/2013.1/901 2013/11/27
 27 29  0  0  0  0  0  0  0  0999 V2000
   14.7260    5.4420   34.0342 N   0  0  0  0  0  0  0  0  0  0  0  0
   13.5773    4.9249   33.2522 C   0  0  2  0  0  0  0  0  0  0  0  0
   12.4745    5.9749   33.2944 C   0  0  0  0  0  0  0  0  0  0  0  0
   11.9212    6.4494   34.3414 O   0  0  0  0  0  0  0  0  0  0  0  0
   13.1521    3.5758   33.8359 C   0  0  0  0  0  0  0  0  0  0  0  0
   12.3149    2.7521   32.8665 C   0  0  0  0  0  0  0  0  0  0  0  0
   12.9584    2.1097   31.2760 S   0  0  2  0  0  0  0  0  0  0  0  0
   14.4658    1.3514   31.8788 C   0  0  0  0  0  0  0  0  0  0  0  0
   13.5242    3.6898   30.5693 C   0  0  0  0  0  0  0  0  0  0  0  0
   14.5619    3.4777   29.5015 C   0  0  1  0  0  0  0  0  0  0  0  0
   13.9970    2.9573   28.2739 O   0  0  0  0  0  0  0  0  0  0  0  0
   15.3400    4.7210   29.1357 C   0  0  1  0  0  0  0  0  0  0  0  0
   16.5216    4.6952   29.8106 O   0  0  0  0  0  0  0  0  0  0  0  0
   15.6463    4.4292   27.6854 C   0  0  1  0  0  0  0  0  0  0  0  0
   16.7431    3.6277   27.6975 O   0  0  0  0  0  0  0  0  0  0  0  0
   14.4455    3.6321   27.1295 C   0  0  2  0  0  0  0  0  0  0  0  0
   12.0472    6.3527   32.2021 O   0  0  0  0  0  0  0  0  0  0  0  0
   12.8838    7.6489   24.1968 N   0  0  0  0  0  0  0  0  0  0  0  0
   13.9974    6.7462   24.1220 C   0  0  0  0  0  0  0  0  0  0  0  0
   14.3083    5.6722   24.9925 N   0  0  0  0  0  0  0  0  0  0  0  0
   13.4377    5.5589   25.9161 C   0  0  0  0  0  0  0  0  0  0  0  0
   12.2543    6.4332   26.0766 C   0  0  0  0  0  0  0  0  0  0  0  0
   12.0049    7.4479   25.2387 C   0  0  0  0  0  0  0  0  0  0  0  0
   10.9293    8.1592   25.5071 N   0  0  0  0  0  0  0  0  0  0  0  0
   11.5097    6.1259   27.1117 N   0  0  0  0  0  0  0  0  0  0  0  0
   12.2274    5.0491   27.5988 C   0  0  0  0  0  0  0  0  0  0  0  0
   13.4252    4.6814   26.8608 N   0  0  0  0  0  0  0  0  0  0  0  0
  2  1  1  1  0  0  0
  2  3  1  0  0  0  0
  2  5  1  0  0  0  0
  3  4  1  0  0  0  0
  3 17  1  0  0  0  0
  5  6  1  0  0  0  0
  7  6  1  1  0  0  0
  7  8  1  0  0  0  0
  7  9  1  0  0  0  0
 10  9  1  1  0  0  0
 10 11  1  0  0  0  0
 10 12  1  0  0  0  0
 11 16  1  0  0  0  0
 12 13  1  1  0  0  0
 12 14  1  0  0  0  0
 14 15  1  1  0  0  0
 14 16  1  0  0  0  0
 16 27  1  1  0  0  0
 18 19  2  0  0  0  0
 18 23  1  0  0  0  0
 19 20  1  0  0  0  0
 20 21  2  0  0  0  0
 21 22  1  0  0  0  0
 21 27  1  0  0  0  0
 22 23  2  0  0  0  0
 22 25  1  0  0  0  0
 23 24  1  0  0  0  0
 25 26  2  0  0  0  0
 26 27  1  0  0  0  0
M  END
>  <CHROM.1>
-57.84490100,-161.05762466,64.48012728,49.98286679,158.40939114,73.43388405
178.66382298,13.53675199,4.77741847,29.25699096,1.54322884,-0.84412423,1.85028626

>  <Name>
ligand

>  <RI>
0

>  <Rbt.Current_Directory>
/home/itssahil/PROJECTS/Mol_Feturizer/Test_systems_manuscript/rnas/4aob

>  <Rbt.Executable>
rbdock ($Id: //depot/dev/client3/rdock/2013.1/src/exe/rbdock.cxx#4 $)

>  <Rbt.Library>
libRbt.so (2013.1, Build901 2013/11/27)

>  <Rbt.Parameter_File>
/export/apps/rDock/src/rDock_2013.1_src/data/scripts/dock_solv.prm

>  <Rbt.Receptor>
prm/pocket_docking_6.prm

>  <SCORE>
-16.1577

>  <SCORE.INTER>
-16.0887

>  <SCORE.INTER.CONST>
1

>  <SCORE.INTER.POLAR>
0

>  <SCORE.INTER.ROT>
7

>  <SCORE.INTER.SOLV>
13.1139

>  <SCORE.INTER.VDW>
-23.3638

>  <SCORE.INTER.norm>
-0.595878

>  <SCORE.INTRA>
-0.0690253

>  <SCORE.INTRA.DIHEDRAL>
-0.772956

>  <SCORE.INTRA.DIHEDRAL.0>
6.31833

>  <SCORE.INTRA.POLAR>
0

>  <SCORE.INTRA.POLAR.0>
0

>  <SCORE.INTRA.REPUL>
0

>  <SCORE.INTRA.REPUL.0>
0

>  <SCORE.INTRA.SOLV>
-0.0569427

>  <SCORE.INTRA.SOLV.lig_0>
-48.4015

>  <SCORE.INTRA.VDW>
0.345924

>  <SCORE.INTRA.VDW.0>
-2.83256

>  <SCORE.INTRA.norm>
-0.00255649

>  <SCORE.RESTR>
0

>  <SCORE.RESTR.CAVITY>
0

>  <SCORE.RESTR.norm>
0

>  <SCORE.SYSTEM>
0

>  <SCORE.SYSTEM.CONST>
0

>  <SCORE.SYSTEM.DIHEDRAL>
0

>  <SCORE.SYSTEM.SOLV>
0

>  <SCORE.SYSTEM.norm>
0

>  <SCORE.heavy>
27

>  <SCORE.norm>
-0.598435

>  <RMSD>
7.220

$$$$
ligand
 OpenBabel02271912153D
libRbt.so/2013.1/901 2013/11/27
 27 29  0  0  0  0  0  0  0  0999 V2000
   14.7046    5.0331   33.7811 N   0  0  0  0  0  0  0  0  0  0  0  0
   13.2612    5.3172   33.5960 C   0  0  2  0  0  0  0  0  0  0  0  0
   12.9223    6.5584   34.4112 C   0  0  0  0  0  0  0  0  0  0  0  0
   12.6961    6.6010   35.6660 O   0  0  0  0  0  0  0  0  0  0  0  0
   12.4594    4.0818   34.0114 C   0  0  0  0  0  0  0  0  0  0  0  0
   13.0182    2.7922   33.4249 C   0  0  0  0  0  0  0  0  0  0  0  0
   12.8843    2.3525   31.6514 S   0  0  2  0  0  0  0  0  0  0  0  0
   14.1649    1.1010   31.5840 C   0  0  0  0  0  0  0  0  0  0  0  0
   13.6902    3.8307   30.9573 C   0  0  0  0  0  0  0  0  0  0  0  0
   14.6066    3.4773   29.8184 C   0  0  1  0  0  0  0  0  0  0  0  0
   13.8944    2.9331   28.6811 O   0  0  0  0  0  0  0  0  0  0  0  0
   15.4358    4.6330   29.3068 C   0  0  1  0  0  0  0  0  0  0  0  0
   16.6698    4.5537   29.8755 O   0  0  0  0  0  0  0  0  0  0  0  0
   15.5849    4.2354   27.8569 C   0  0  1  0  0  0  0  0  0  0  0  0
   16.6169    3.3527   27.8240 O   0  0  0  0  0  0  0  0  0  0  0  0
   14.2832    3.5041   27.4608 C   0  0  2  0  0  0  0  0  0  0  0  0
   12.8043    7.6067   33.7742 O   0  0  0  0  0  0  0  0  0  0  0  0
   12.8319    7.5403   24.4982 N   0  0  0  0  0  0  0  0  0  0  0  0
   13.8774    6.5626   24.3909 C   0  0  0  0  0  0  0  0  0  0  0  0
   14.1640    5.4928   25.2749 N   0  0  0  0  0  0  0  0  0  0  0  0
   13.3399    5.4627   26.2464 C   0  0  0  0  0  0  0  0  0  0  0  0
   12.2276    6.4189   26.4438 C   0  0  0  0  0  0  0  0  0  0  0  0
   12.0003    7.4262   25.5908 C   0  0  0  0  0  0  0  0  0  0  0  0
   10.9905    8.2154   25.8949 N   0  0  0  0  0  0  0  0  0  0  0  0
   11.5224    6.1897   27.5256 N   0  0  0  0  0  0  0  0  0  0  0  0
   12.1929    5.0796   28.0054 C   0  0  0  0  0  0  0  0  0  0  0  0
   13.3213    4.6128   27.2159 N   0  0  0  0  0  0  0  0  0  0  0  0
  2  1  1  1  0  0  0
  2  3  1  0  0  0  0
  2  5  1  0  0  0  0
  3  4  1  0  0  0  0
  3 17  1  0  0  0  0
  5  6  1  0  0  0  0
  7  6  1  1  0  0  0
  7  8  1  0  0  0  0
  7  9  1  0  0  0  0
 10  9  1  1  0  0  0
 10 11  1  0  0  0  0
 10 12  1  0  0  0  0
 11 16  1  0  0  0  0
 12 13  1  1  0  0  0
 12 14  1  0  0  0  0
 14 15  1  1  0  0  0
 14 16  1  0  0  0  0
 16 27  1  1  0  0  0
 18 19  2  0  0  0  0
 18 23  1  0  0  0  0
 19 20  1  0  0  0  0
 20 21  2  0  0  0  0
 21 22  1  0  0  0  0
 21 27  1  0  0  0  0
 22 23  2  0  0  0  0
 22 25  1  0  0  0  0
 23 24  1  0  0  0  0
 25 26  2  0  0  0  0
 26 27  1  0  0  0  0
M  END
>  <CHROM.1>
-80.59842782,-46.97921884,-71.60704359,161.82621128,138.80856138,64.91217196
175.80571384,13.56775639,4.83737480,29.64535874,1.54331620,-1.01557816,1.74491416

>  <Name>
ligand

>  <RI>
0

>  <Rbt.Current_Directory>
/home/itssahil/PROJECTS/Mol_Feturizer/Test_systems_manuscript/rnas/4aob

>  <Rbt.Executable>
rbdock ($Id: //depot/dev/client3/rdock/2013.1/src/exe/rbdock.cxx#4 $)

>  <Rbt.Library>
libRbt.so (2013.1, Build901 2013/11/27)

>  <Rbt.Parameter_File>
/export/apps/rDock/src/rDock_2013.1_src/data/scripts/dock_solv.prm

>  <Rbt.Receptor>
prm/pocket_docking_6.prm

>  <SCORE>
-16.0906

>  <SCORE.INTER>
-18.7425

>  <SCORE.INTER.CONST>
1

>  <SCORE.INTER.POLAR>
0

>  <SCORE.INTER.ROT>
7

>  <SCORE.INTER.SOLV>
12.1157

>  <SCORE.INTER.VDW>
-24.8002

>  <SCORE.INTER.norm>
-0.694166

>  <SCORE.INTRA>
2.6519

>  <SCORE.INTRA.DIHEDRAL>
0.798011

>  <SCORE.INTRA.DIHEDRAL.0>
6.31833

>  <SCORE.INTRA.POLAR>
0

>  <SCORE.INTRA.POLAR.0>
0

>  <SCORE.INTRA.REPUL>
0

>  <SCORE.INTRA.REPUL.0>
0

>  <SCORE.INTRA.SOLV>
2.10216

>  <SCORE.INTRA.SOLV.lig_0>
-48.4015

>  <SCORE.INTRA.VDW>
1.20181

>  <SCORE.INTRA.VDW.0>
-2.83256

>  <SCORE.INTRA.norm>
0.0982185

>  <SCORE.RESTR>
0

>  <SCORE.RESTR.CAVITY>
0

>  <SCORE.RESTR.norm>
0

>  <SCORE.SYSTEM>
0

>  <SCORE.SYSTEM.CONST>
0

>  <SCORE.SYSTEM.DIHEDRAL>
0

>  <SCORE.SYSTEM.SOLV>
0

>  <SCORE.SYSTEM.norm>
0

>  <SCORE.heavy>
27

>  <SCORE.norm>
-0.595947

>  <RMSD>
7.225

$$$$
ligand
 OpenBabel02271912153D
libRbt.so/2013.1/901 2013/11/27
 27 29  0  0  0  0  0  0  0  0999 V2000
   12.9110    7.4279   33.7437 N   0  0  0  0  0  0  0  0  0  0  0  0
   12.6804    6.4493   34.8334 C   0  0  2  0  0  0  0  0  0  0  0  0
   13.4131    6.9495   36.0716 C   0  0  0  0  0  0  0  0  0  0  0  0
   12.9663    6.9501   37.2666 O   0  0  0  0  0  0  0  0  0  0  0  0
   13.1526    5.0711   34.3652 C   0  0  0  0  0  0  0  0  0  0  0  0
   12.1695    4.4038   33.4126 C   0  0  0  0  0  0  0  0  0  0  0  0
   12.6868    3.3148   32.0331 S   0  0  2  0  0  0  0  0  0  0  0  0
   13.4615    2.0130   32.9901 C   0  0  0  0  0  0  0  0  0  0  0  0
   14.0934    4.3052   31.4357 C   0  0  0  0  0  0  0  0  0  0  0  0
   14.8412    3.5980   30.3391 C   0  0  1  0  0  0  0  0  0  0  0  0
   13.9569    2.9886   29.3677 O   0  0  0  0  0  0  0  0  0  0  0  0
   15.7980    4.4806   29.5706 C   0  0  1  0  0  0  0  0  0  0  0  0
   17.0473    4.2931   30.0772 O   0  0  0  0  0  0  0  0  0  0  0  0
   15.7575    3.8073   28.2187 C   0  0  1  0  0  0  0  0  0  0  0  0
   16.6285    2.7680   28.3017 O   0  0  0  0  0  0  0  0  0  0  0  0
   14.3267    3.2530   28.0413 C   0  0  2  0  0  0  0  0  0  0  0  0
   14.5221    7.4502   35.8768 O   0  0  0  0  0  0  0  0  0  0  0  0
   13.5214    7.0779   24.5922 N   0  0  0  0  0  0  0  0  0  0  0  0
   14.4189    5.9583   24.6331 C   0  0  0  0  0  0  0  0  0  0  0  0
   14.5334    4.9698   25.6418 N   0  0  0  0  0  0  0  0  0  0  0  0
   13.6952    5.1684   26.5808 C   0  0  0  0  0  0  0  0  0  0  0  0
   12.7268    6.2866   26.6295 C   0  0  0  0  0  0  0  0  0  0  0  0
   12.6614    7.2091   25.6607 C   0  0  0  0  0  0  0  0  0  0  0  0
   11.7687    8.1613   25.8379 N   0  0  0  0  0  0  0  0  0  0  0  0
   11.9756    6.2858   27.7047 N   0  0  0  0  0  0  0  0  0  0  0  0
   12.4721    5.1569   28.3302 C   0  0  0  0  0  0  0  0  0  0  0  0
   13.5373    4.4485   27.6388 N   0  0  0  0  0  0  0  0  0  0  0  0
  2  1  1  6  0  0  0
  2  3  1  0  0  0  0
  2  5  1  0  0  0  0
  3  4  1  0  0  0  0
  3 17  1  0  0  0  0
  5  6  1  0  0  0  0
  7  6  1  1  0  0  0
  7  8  1  0  0  0  0
  7  9  1  0  0  0  0
 10  9  1  1  0  0  0
 10 11  1  0  0  0  0
 10 12  1  0  0  0  0
 11 16  1  0  0  0  0
 12 13  1  1  0  0  0
 12 14  1  0  0  0  0
 14 15  1  1  0  0  0
 14 16  1  0  0  0  0
 16 27  1  1  0  0  0
 18 19  2  0  0  0  0
 18 23  1  0  0  0  0
 19 20  1  0  0  0  0
 20 21  2  0  0  0  0
 21 22  1  0  0  0  0
 21 27  1  0  0  0  0
 22 23  2  0  0  0  0
 22 25  1  0  0  0  0
 23 24  1  0  0  0  0
 25 26  2  0  0  0  0
 26 27  1  0  0  0  0
M  END
>  <CHROM.1>
137.06340291,-77.12874764,146.20531333,62.74877243,174.77949519,43.65901526
168.65289293,13.75363032,5.07380176,30.18837326,1.68735964,-1.03884825,1.64716365

>  <Name>
ligand

>  <RI>
0

>  <Rbt.Current_Directory>
/home/itssahil/PROJECTS/Mol_Feturizer/Test_systems_manuscript/rnas/4aob

>  <Rbt.Executable>
rbdock ($Id: //depot/dev/client3/rdock/2013.1/src/exe/rbdock.cxx#4 $)

>  <Rbt.Library>
libRbt.so (2013.1, Build901 2013/11/27)

>  <Rbt.Parameter_File>
/export/apps/rDock/src/rDock_2013.1_src/data/scripts/dock_solv.prm

>  <Rbt.Receptor>
prm/pocket_docking_4.prm

>  <SCORE>
-13.5785

>  <SCORE.INTER>
-15.6556

>  <SCORE.INTER.CONST>
1

>  <SCORE.INTER.POLAR>
0

>  <SCORE.INTER.ROT>
7

>  <SCORE.INTER.SOLV>
10.402

>  <SCORE.INTER.VDW>
-22.171

>  <SCORE.INTER.norm>
-0.579836

>  <SCORE.INTRA>
2.05158

>  <SCORE.INTRA.DIHEDRAL>
2.62786

>  <SCORE.INTRA.DIHEDRAL.0>
6.31833

>  <SCORE.INTRA.POLAR>
0

>  <SCORE.INTRA.POLAR.0>
0

>  <SCORE.INTRA.REPUL>
0

>  <SCORE.INTRA.REPUL.0>
0

>  <SCORE.INTRA.SOLV>
0.412342

>  <SCORE.INTRA.SOLV.lig_0>
-48.4015

>  <SCORE.INTRA.VDW>
0.531475

>  <SCORE.INTRA.VDW.0>
-2.83256

>  <SCORE.INTRA.norm>
0.0759843

>  <SCORE.RESTR>
0.0254465

>  <SCORE.RESTR.CAVITY>
0.0254465

>  <SCORE.RESTR.norm>
0.000942465

>  <SCORE.SYSTEM>
0

>  <SCORE.SYSTEM.CONST>
0

>  <SCORE.SYSTEM.DIHEDRAL>
0

>  <SCORE.SYSTEM.SOLV>
0

>  <SCORE.SYSTEM.norm>
0

>  <SCORE.heavy>
27

>  <SCORE.norm>
-0.502909

>  <RMSD>
7.230

$$$$
ligand
 OpenBabel02271912153D
libRbt.so/2013.1/901 2013/11/27
 27 29  0  0  0  0  0  0  0  0999 V2000
   13.0857    3.5806   32.7105 N   0  0  0  0  0  0  0  0  0  0  0  0
   13.1704    2.8383   31.4298 C   0  0  2  0  0  0  0  0  0  0  0  0
   14.2156    1.7425   31.5947 C   0  0  0  0  0  0  0  0  0  0  0  0
   15.4138    1.8953   32.0050 O   0  0  0  0  0  0  0  0  0  0  0  0
   13.5003    3.8267   30.3092 C   0  0  0  0  0  0  0  0  0  0  0  0
   13.5609    3.1649   28.9390 C   0  0  0  0  0  0  0  0  0  0  0  0
   13.7209    4.1041   27.3741 S   0  0  2  0  0  0  0  0  0  0  0  0
   15.2509    4.9663   27.7296 C   0  0  0  0  0  0  0  0  0  0  0  0
   12.4374    5.3562   27.6919 C   0  0  0  0  0  0  0  0  0  0  0  0
   12.9622    6.4832   28.5383 C   0  0  1  0  0  0  0  0  0  0  0  0
   13.5838    7.5267   27.7499 O   0  0  0  0  0  0  0  0  0  0  0  0
   11.9167    7.1490   29.4037 C   0  0  1  0  0  0  0  0  0  0  0  0
   12.0044    6.6217   30.6554 O   0  0  0  0  0  0  0  0  0  0  0  0
   12.4751    8.5513   29.4686 C   0  0  1  0  0  0  0  0  0  0  0  0
   13.4133    8.5261   30.4507 O   0  0  0  0  0  0  0  0  0  0  0  0
   13.1698    8.8158   28.1145 C   0  0  2  0  0  0  0  0  0  0  0  0
   13.8732    0.6128   31.2410 O   0  0  0  0  0  0  0  0  0  0  0  0
   10.5085    7.6967   23.7740 N   0  0  0  0  0  0  0  0  0  0  0  0
   11.6122    7.0698   24.4445 C   0  0  0  0  0  0  0  0  0  0  0  0
   12.2482    7.4769   25.6436 N   0  0  0  0  0  0  0  0  0  0  0  0
   11.7051    8.5258   26.1217 C   0  0  0  0  0  0  0  0  0  0  0  0
   10.5628    9.2419   25.5111 C   0  0  0  0  0  0  0  0  0  0  0  0
    9.9994    8.8312   24.3675 C   0  0  0  0  0  0  0  0  0  0  0  0
    9.0040    9.5706   23.9232 N   0  0  0  0  0  0  0  0  0  0  0  0
   10.1872   10.3036   26.1834 N   0  0  0  0  0  0  0  0  0  0  0  0
   11.0955   10.2488   27.2245 C   0  0  0  0  0  0  0  0  0  0  0  0
   12.0411    9.1442   27.2021 N   0  0  0  0  0  0  0  0  0  0  0  0
  2  1  1  1  0  0  0
  2  3  1  0  0  0  0
  2  5  1  0  0  0  0
  3  4  1  0  0  0  0
  3 17  1  0  0  0  0
  5  6  1  0  0  0  0
  7  6  1  1  0  0  0
  7  8  1  0  0  0  0
  7  9  1  0  0  0  0
 10  9  1  6  0  0  0
 10 11  1  0  0  0  0
 10 12  1  0  0  0  0
 11 16  1  0  0  0  0
 12 13  1  1  0  0  0
 12 14  1  0  0  0  0
 14 15  1  1  0  0  0
 14 16  1  0  0  0  0
 16 27  1  6  0  0  0
 18 19  2  0  0  0  0
 18 23  1  0  0  0  0
 19 20  1  0  0  0  0
 20 21  2  0  0  0  0
 21 22  1  0  0  0  0
 21 27  1  0  0  0  0
 22 23  2  0  0  0  0
 22 25  1  0  0  0  0
 23 24  1  0  0  0  0
 25 26  2  0  0  0  0
 26 27  1  0  0  0  0
M  END
>  <CHROM.1>
-52.60327079,-177.97950352,171.95360878,58.05313444,82.62500336,87.12641567
-14.07279004,12.59200356,6.25154799,28.19574955,0.04838258,-1.20664367,0.91348936

>  <Name>
ligand

>  <RI>
0

>  <Rbt.Current_Directory>
/home/itssahil/PROJECTS/Mol_Feturizer/Test_systems_manuscript/rnas/4aob

>  <Rbt.Executable>
rbdock ($Id: //depot/dev/client3/rdock/2013.1/src/exe/rbdock.cxx#4 $)

>  <Rbt.Library>
libRbt.so (2013.1, Build901 2013/11/27)

>  <Rbt.Parameter_File>
/export/apps/rDock/src/rDock_2013.1_src/data/scripts/dock_solv.prm

>  <Rbt.Receptor>
prm/pocket_docking_7.prm

>  <SCORE>
-8.00806

>  <SCORE.INTER>
-11.184

>  <SCORE.INTER.CONST>
1

>  <SCORE.INTER.POLAR>
0

>  <SCORE.INTER.ROT>
7

>  <SCORE.INTER.SOLV>
7.92361

>  <SCORE.INTER.VDW>
-18.3639

>  <SCORE.INTER.norm>
-0.414222

>  <SCORE.INTRA>
3.17594

>  <SCORE.INTRA.DIHEDRAL>
1.58711

>  <SCORE.INTRA.DIHEDRAL.0>
6.31833

>  <SCORE.INTRA.POLAR>
0

>  <SCORE.INTRA.POLAR.0>
0

>  <SCORE.INTRA.REPUL>
0

>  <SCORE.INTRA.REPUL.0>
0

>  <SCORE.INTRA.SOLV>
0.0263187

>  <SCORE.INTRA.SOLV.lig_0>
-48.4015

>  <SCORE.INTRA.VDW>
2.36922

>  <SCORE.INTRA.VDW.0>
-2.83256

>  <SCORE.INTRA.norm>
0.117627

>  <SCORE.RESTR>
0

>  <SCORE.RESTR.CAVITY>
0

>  <SCORE.RESTR.norm>
0

>  <SCORE.SYSTEM>
0

>  <SCORE.SYSTEM.CONST>
0

>  <SCORE.SYSTEM.DIHEDRAL>
0

>  <SCORE.SYSTEM.SOLV>
0

>  <SCORE.SYSTEM.norm>
0

>  <SCORE.heavy>
27

>  <SCORE.norm>
-0.296595

>  <RMSD>
7.261

$$$$
ligand
 OpenBabel02271912153D
libRbt.so/2013.1/901 2013/11/27
 27 29  0  0  0  0  0  0  0  0999 V2000
   12.5421    6.0934   32.6170 N   0  0  0  0  0  0  0  0  0  0  0  0
   12.4126    5.5185   33.9776 C   0  0  2  0  0  0  0  0  0  0  0  0
   13.1923    6.4093   34.9361 C   0  0  0  0  0  0  0  0  0  0  0  0
   12.7990    6.8176   36.0789 O   0  0  0  0  0  0  0  0  0  0  0  0
   12.9136    4.0728   33.9506 C   0  0  0  0  0  0  0  0  0  0  0  0
   12.0781    3.1766   33.0462 C   0  0  0  0  0  0  0  0  0  0  0  0
   12.7210    2.4221   31.5055 S   0  0  2  0  0  0  0  0  0  0  0  0
   14.0681    1.4728   32.2092 C   0  0  0  0  0  0  0  0  0  0  0  0
   13.5443    3.8950   30.8206 C   0  0  0  0  0  0  0  0  0  0  0  0
   14.5365    3.5269   29.7520 C   0  0  1  0  0  0  0  0  0  0  0  0
   13.9053    2.9498   28.5834 O   0  0  0  0  0  0  0  0  0  0  0  0
   15.3858    4.6804   29.2691 C   0  0  1  0  0  0  0  0  0  0  0  0
   16.5808    4.6276   29.9185 O   0  0  0  0  0  0  0  0  0  0  0  0
   15.6329    4.2527   27.8413 C   0  0  1  0  0  0  0  0  0  0  0  0
   16.6736    3.3812   27.8956 O   0  0  0  0  0  0  0  0  0  0  0  0
   14.3671    3.4981   27.3783 C   0  0  2  0  0  0  0  0  0  0  0  0
   14.2842    6.8119   34.5310 O   0  0  0  0  0  0  0  0  0  0  0  0
   13.1324    7.5257   24.3076 N   0  0  0  0  0  0  0  0  0  0  0  0
   14.2021    6.5684   24.2978 C   0  0  0  0  0  0  0  0  0  0  0  0
   14.4221    5.4985   25.2004 N   0  0  0  0  0  0  0  0  0  0  0  0
   13.5085    5.4466   26.0872 C   0  0  0  0  0  0  0  0  0  0  0  0
   12.3641    6.3805   26.1802 C   0  0  0  0  0  0  0  0  0  0  0  0
   12.2011    7.3889   25.3138 C   0  0  0  0  0  0  0  0  0  0  0  0
   11.1516    8.1571   25.5222 N   0  0  0  0  0  0  0  0  0  0  0  0
   11.5618    6.1311   27.1873 N   0  0  0  0  0  0  0  0  0  0  0  0
   12.2039    5.0307   27.7248 C   0  0  0  0  0  0  0  0  0  0  0  0
   13.4123    4.5902   27.0463 N   0  0  0  0  0  0  0  0  0  0  0  0
  2  1  1  6  0  0  0
  2  3  1  0  0  0  0
  2  5  1  0  0  0  0
  3  4  1  0  0  0  0
  3 17  1  0  0  0  0
  5  6  1  0  0  0  0
  7  6  1  1  0  0  0
  7  8  1  0  0  0  0
  7  9  1  0  0  0  0
 10  9  1  1  0  0  0
 10 11  1  0  0  0  0
 10 12  1  0  0  0  0
 11 16  1  0  0  0  0
 12 13  1  1  0  0  0
 12 14  1  0  0  0  0
 14 15  1  1  0  0  0
 14 16  1  0  0  0  0
 16 27  1  1  0  0  0
 18 19  2  0  0  0  0
 18 23  1  0  0  0  0
 19 20  1  0  0  0  0
 20 21  2  0  0  0  0
 21 22  1  0  0  0  0
 21 27  1  0  0  0  0
 22 23  2  0  0  0  0
 22 25  1  0  0  0  0
 23 24  1  0  0  0  0
 25 26  2  0  0  0  0
 26 27  1  0  0  0  0
M  END
>  <CHROM.1>
135.15422033,-63.24407699,113.42899240,59.65914853,162.44635062,65.45756896
173.32115572,13.55110941,4.88870068,29.59161705,1.61955914,-1.02217152,1.76592968

>  <Name>
ligand

>  <RI>
0

>  <Rbt.Current_Directory>
/home/itssahil/PROJECTS/Mol_Feturizer/Test_systems_manuscript/rnas/4aob

>  <Rbt.Executable>
rbdock ($Id: //depot/dev/client3/rdock/2013.1/src/exe/rbdock.cxx#4 $)

>  <Rbt.Library>
libRbt.so (2013.1, Build901 2013/11/27)

>  <Rbt.Parameter_File>
/export/apps/rDock/src/rDock_2013.1_src/data/scripts/dock_solv.prm

>  <Rbt.Receptor>
prm/pocket_docking_8.prm

>  <SCORE>
-16.7419

>  <SCORE.INTER>
-19.5542

>  <SCORE.INTER.CONST>
1

>  <SCORE.INTER.POLAR>
0

>  <SCORE.INTER.ROT>
7

>  <SCORE.INTER.SOLV>
11.4102

>  <SCORE.INTER.VDW>
-25.1062

>  <SCORE.INTER.norm>
-0.724231

>  <SCORE.INTRA>
2.81232

>  <SCORE.INTRA.DIHEDRAL>
2.75479

>  <SCORE.INTRA.DIHEDRAL.0>
6.31833

>  <SCORE.INTRA.POLAR>
0

>  <SCORE.INTRA.POLAR.0>
0

>  <SCORE.INTRA.REPUL>
0

>  <SCORE.INTRA.REPUL.0>
0

>  <SCORE.INTRA.SOLV>
1.87665

>  <SCORE.INTRA.SOLV.lig_0>
-48.4015

>  <SCORE.INTRA.VDW>
0.496601

>  <SCORE.INTRA.VDW.0>
-2.83256

>  <SCORE.INTRA.norm>
0.10416

>  <SCORE.RESTR>
0

>  <SCORE.RESTR.CAVITY>
0

>  <SCORE.RESTR.norm>
0

>  <SCORE.SYSTEM>
0

>  <SCORE.SYSTEM.CONST>
0

>  <SCORE.SYSTEM.DIHEDRAL>
0

>  <SCORE.SYSTEM.SOLV>
0

>  <SCORE.SYSTEM.norm>
0

>  <SCORE.heavy>
27

>  <SCORE.norm>
-0.620071

>  <RMSD>
7.274

$$$$
ligand
 OpenBabel02271912153D
libRbt.so/2013.1/901 2013/11/27
 27 29  0  0  0  0  0  0  0  0999 V2000
   12.6643    6.6142   32.9241 N   0  0  0  0  0  0  0  0  0  0  0  0
   12.5280    5.9478   34.2415 C   0  0  2  0  0  0  0  0  0  0  0  0
   13.3237    6.7569   35.2576 C   0  0  0  0  0  0  0  0  0  0  0  0
   14.4707    7.2843   35.0736 O   0  0  0  0  0  0  0  0  0  0  0  0
   13.0056    4.4997   34.1122 C   0  0  0  0  0  0  0  0  0  0  0  0
   12.0489    3.6339   33.3033 C   0  0  0  0  0  0  0  0  0  0  0  0
   12.5396    2.7489   31.7760 S   0  0  2  0  0  0  0  0  0  0  0  0
   13.8070    1.6898   32.4707 C   0  0  0  0  0  0  0  0  0  0  0  0
   13.4846    4.0930   30.9909 C   0  0  0  0  0  0  0  0  0  0  0  0
   14.3899    3.5730   29.9083 C   0  0  1  0  0  0  0  0  0  0  0  0
   13.6568    2.9861   28.8060 O   0  0  0  0  0  0  0  0  0  0  0  0
   15.3138    4.6137   29.3181 C   0  0  1  0  0  0  0  0  0  0  0  0
   16.5284    4.4922   29.9200 O   0  0  0  0  0  0  0  0  0  0  0  0
   15.4557    4.0803   27.9118 C   0  0  1  0  0  0  0  0  0  0  0  0
   16.4173    3.1230   27.9792 O   0  0  0  0  0  0  0  0  0  0  0  0
   14.1084    3.4168   27.5503 C   0  0  2  0  0  0  0  0  0  0  0  0
   12.8231    6.8566   36.3791 O   0  0  0  0  0  0  0  0  0  0  0  0
   13.2053    7.4718   24.4013 N   0  0  0  0  0  0  0  0  0  0  0  0
   14.2035    6.4404   24.4210 C   0  0  0  0  0  0  0  0  0  0  0  0
   14.3346    5.3724   25.3429 N   0  0  0  0  0  0  0  0  0  0  0  0
   13.4084    5.4005   26.2176 C   0  0  0  0  0  0  0  0  0  0  0  0
   12.3329    6.4153   26.2803 C   0  0  0  0  0  0  0  0  0  0  0  0
   12.2538    7.4185   25.3964 C   0  0  0  0  0  0  0  0  0  0  0  0
   11.2595    8.2631   25.5783 N   0  0  0  0  0  0  0  0  0  0  0  0
   11.5020    6.2403   27.2800 N   0  0  0  0  0  0  0  0  0  0  0  0
   12.0565    5.1057   27.8431 C   0  0  0  0  0  0  0  0  0  0  0  0
   13.2388    4.5689   27.1883 N   0  0  0  0  0  0  0  0  0  0  0  0
  2  1  1  6  0  0  0
  2  3  1  0  0  0  0
  2  5  1  0  0  0  0
  3  4  1  0  0  0  0
  3 17  1  0  0  0  0
  5  6  1  0  0  0  0
  7  6  1  1  0  0  0
  7  8  1  0  0  0  0
  7  9  1  0  0  0  0
 10  9  1  1  0  0  0
 10 11  1  0  0  0  0
 10 12  1  0  0  0  0
 11 16  1  0  0  0  0
 12 13  1  1  0  0  0
 12 14  1  0  0  0  0
 14 15  1  1  0  0  0
 14 16  1  0  0  0  0
 16 27  1  1  0  0  0
 18 19  2  0  0  0  0
 18 23  1  0  0  0  0
 19 20  1  0  0  0  0
 20 21  2  0  0  0  0
 21 22  1  0  0  0  0
 21 27  1  0  0  0  0
 22 23  2  0  0  0  0
 22 25  1  0  0  0  0
 23 24  1  0  0  0  0
 25 26  2  0  0  0  0
 26 27  1  0  0  0  0
M  END
>  <CHROM.1>
-41.06368658,-71.08636392,121.16138184,61.22329286,162.11980061,64.14953466
168.98271126,13.49058324,5.00307281,29.77282897,1.61487995,-1.09376741,1.69958007

>  <Name>
ligand

>  <RI>
0

>  <Rbt.Current_Directory>
/home/itssahil/PROJECTS/Mol_Feturizer/Test_systems_manuscript/rnas/4aob

>  <Rbt.Executable>
rbdock ($Id: //depot/dev/client3/rdock/2013.1/src/exe/rbdock.cxx#4 $)

>  <Rbt.Library>
libRbt.so (2013.1, Build901 2013/11/27)

>  <Rbt.Parameter_File>
/export/apps/rDock/src/rDock_2013.1_src/data/scripts/dock_solv.prm

>  <Rbt.Receptor>
prm/pocket_docking_7.prm

>  <SCORE>
-16.4607

>  <SCORE.INTER>
-18.9425

>  <SCORE.INTER.CONST>
1

>  <SCORE.INTER.POLAR>
0

>  <SCORE.INTER.ROT>
7

>  <SCORE.INTER.SOLV>
10.8453

>  <SCORE.INTER.VDW>
-24.5101

>  <SCORE.INTER.norm>
-0.701573

>  <SCORE.INTRA>
2.48176

>  <SCORE.INTRA.DIHEDRAL>
3.21873

>  <SCORE.INTRA.DIHEDRAL.0>
6.31833

>  <SCORE.INTRA.POLAR>
0

>  <SCORE.INTRA.POLAR.0>
0

>  <SCORE.INTRA.REPUL>
0

>  <SCORE.INTRA.REPUL.0>
0

>  <SCORE.INTRA.SOLV>
1.25144

>  <SCORE.INTRA.SOLV.lig_0>
-48.4015

>  <SCORE.INTRA.VDW>
0.246676

>  <SCORE.INTRA.VDW.0>
-2.83256

>  <SCORE.INTRA.norm>
0.0919171

>  <SCORE.RESTR>
0

>  <SCORE.RESTR.CAVITY>
0

>  <SCORE.RESTR.norm>
0

>  <SCORE.SYSTEM>
0

>  <SCORE.SYSTEM.CONST>
0

>  <SCORE.SYSTEM.DIHEDRAL>
0

>  <SCORE.SYSTEM.SOLV>
0

>  <SCORE.SYSTEM.norm>
0

>  <SCORE.heavy>
27

>  <SCORE.norm>
-0.609655

>  <RMSD>
7.283

$$$$
ligand
 OpenBabel02271912153D
libRbt.so/2013.1/901 2013/11/27
 27 29  0  0  0  0  0  0  0  0999 V2000
   12.6803    6.1289   32.6030 N   0  0  0  0  0  0  0  0  0  0  0  0
   12.4219    5.5455   33.9414 C   0  0  2  0  0  0  0  0  0  0  0  0
   13.1066    6.4300   34.9753 C   0  0  0  0  0  0  0  0  0  0  0  0
   12.8800    6.4410   36.2307 O   0  0  0  0  0  0  0  0  0  0  0  0
   12.9233    4.0998   33.9532 C   0  0  0  0  0  0  0  0  0  0  0  0
   12.0907    3.1803   33.0697 C   0  0  0  0  0  0  0  0  0  0  0  0
   12.7307    2.4068   31.5372 S   0  0  2  0  0  0  0  0  0  0  0  0
   14.1054    1.5003   32.2437 C   0  0  0  0  0  0  0  0  0  0  0  0
   13.5150    3.8815   30.8117 C   0  0  0  0  0  0  0  0  0  0  0  0
   14.5106    3.5108   29.7471 C   0  0  1  0  0  0  0  0  0  0  0  0
   13.8819    2.9433   28.5725 O   0  0  0  0  0  0  0  0  0  0  0  0
   15.3709    4.6602   29.2740 C   0  0  1  0  0  0  0  0  0  0  0  0
   16.5618    4.5960   29.9299 O   0  0  0  0  0  0  0  0  0  0  0  0
   15.6231    4.2368   27.8458 C   0  0  1  0  0  0  0  0  0  0  0  0
   16.6571    3.3576   27.9023 O   0  0  0  0  0  0  0  0  0  0  0  0
   14.3545    3.4933   27.3724 C   0  0  2  0  0  0  0  0  0  0  0  0
   13.9161    7.2478   34.5344 O   0  0  0  0  0  0  0  0  0  0  0  0
   13.1685    7.5452   24.3145 N   0  0  0  0  0  0  0  0  0  0  0  0
   14.2316    6.5806   24.3070 C   0  0  0  0  0  0  0  0  0  0  0  0
   14.4381    5.5045   25.2055 N   0  0  0  0  0  0  0  0  0  0  0  0
   13.5181    5.4544   26.0857 C   0  0  0  0  0  0  0  0  0  0  0  0
   12.3796    6.3957   26.1758 C   0  0  0  0  0  0  0  0  0  0  0  0
   12.2294    7.4097   25.3137 C   0  0  0  0  0  0  0  0  0  0  0  0
   11.1838    8.1840   25.5189 N   0  0  0  0  0  0  0  0  0  0  0  0
   11.5687    6.1466   27.1762 N   0  0  0  0  0  0  0  0  0  0  0  0
   12.1996    5.0390   27.7122 C   0  0  0  0  0  0  0  0  0  0  0  0
   13.4096    4.5937   27.0397 N   0  0  0  0  0  0  0  0  0  0  0  0
  2  1  1  6  0  0  0
  2  3  1  0  0  0  0
  2  5  1  0  0  0  0
  3  4  1  0  0  0  0
  3 17  1  0  0  0  0
  5  6  1  0  0  0  0
  7  6  1  1  0  0  0
  7  8  1  0  0  0  0
  7  9  1  0  0  0  0
 10  9  1  1  0  0  0
 10 11  1  0  0  0  0
 10 12  1  0  0  0  0
 11 16  1  0  0  0  0
 12 13  1  1  0  0  0
 12 14  1  0  0  0  0
 14 15  1  1  0  0  0
 14 16  1  0  0  0  0
 16 27  1  1  0  0  0
 18 19  2  0  0  0  0
 18 23  1  0  0  0  0
 19 20  1  0  0  0  0
 20 21  2  0  0  0  0
 21 22  1  0  0  0  0
 21 27  1  0  0  0  0
 22 23  2  0  0  0  0
 22 25  1  0  0  0  0
 23 24  1  0  0  0  0
 25 26  2  0  0  0  0
 26 27  1  0  0  0  0
M  END
>  <CHROM.1>
163.35871653,-68.84542054,112.46513592,58.94661828,161.94409811,67.97714763
173.23556369,13.54503476,4.89447736,29.60165459,1.63291872,-1.04163106,1.77773593

>  <Name>
ligand

>  <RI>
0

>  <Rbt.Current_Directory>
/home/itssahil/PROJECTS/Mol_Feturizer/Test_systems_manuscript/rnas/4aob

>  <Rbt.Executable>
rbdock ($Id: //depot/dev/client3/rdock/2013.1/src/exe/rbdock.cxx#4 $)

>  <Rbt.Library>
libRbt.so (2013.1, Build901 2013/11/27)

>  <Rbt.Parameter_File>
/export/apps/rDock/src/rDock_2013.1_src/data/scripts/dock_solv.prm

>  <Rbt.Receptor>
prm/pocket_docking_8.prm

>  <SCORE>
-16.318

>  <SCORE.INTER>
-19.5439

>  <SCORE.INTER.CONST>
1

>  <SCORE.INTER.POLAR>
0

>  <SCORE.INTER.ROT>
7

>  <SCORE.INTER.SOLV>
10.943

>  <SCORE.INTER.VDW>
-24.9436

>  <SCORE.INTER.norm>
-0.723848

>  <SCORE.INTRA>
3.22593

>  <SCORE.INTRA.DIHEDRAL>
3.07823

>  <SCORE.INTRA.DIHEDRAL.0>
6.31833

>  <SCORE.INTRA.POLAR>
0

>  <SCORE.INTRA.POLAR.0>
0

>  <SCORE.INTRA.REPUL>
0

>  <SCORE.INTRA.REPUL.0>
0

>  <SCORE.INTRA.SOLV>
1.91627

>  <SCORE.INTRA.SOLV.lig_0>
-48.4015

>  <SCORE.INTRA.VDW>
0.728677

>  <SCORE.INTRA.VDW.0>
-2.83256

>  <SCORE.INTRA.norm>
0.119479

>  <SCORE.RESTR>
0

>  <SCORE.RESTR.CAVITY>
0

>  <SCORE.RESTR.norm>
0

>  <SCORE.SYSTEM>
0

>  <SCORE.SYSTEM.CONST>
0

>  <SCORE.SYSTEM.DIHEDRAL>
0

>  <SCORE.SYSTEM.SOLV>
0

>  <SCORE.SYSTEM.norm>
0

>  <SCORE.heavy>
27

>  <SCORE.norm>
-0.604369

>  <RMSD>
7.284

$$$$
ligand
 OpenBabel02271912153D
libRbt.so/2013.1/901 2013/11/27
 27 29  0  0  0  0  0  0  0  0999 V2000
   12.4859    5.9745   32.5435 N   0  0  0  0  0  0  0  0  0  0  0  0
   12.3758    5.4023   33.9069 C   0  0  2  0  0  0  0  0  0  0  0  0
   13.1349    6.3174   34.8590 C   0  0  0  0  0  0  0  0  0  0  0  0
   12.7116    6.7661   35.9757 O   0  0  0  0  0  0  0  0  0  0  0  0
   12.9146    3.9702   33.8843 C   0  0  0  0  0  0  0  0  0  0  0  0
   12.1466    3.0669   32.9286 C   0  0  0  0  0  0  0  0  0  0  0  0
   12.8746    2.3704   31.3985 S   0  0  2  0  0  0  0  0  0  0  0  0
   14.2349    1.4641   32.1326 C   0  0  0  0  0  0  0  0  0  0  0  0
   13.6586    3.8896   30.7709 C   0  0  0  0  0  0  0  0  0  0  0  0
   14.6378    3.5916   29.6689 C   0  0  1  0  0  0  0  0  0  0  0  0
   14.0058    2.9942   28.5111 O   0  0  0  0  0  0  0  0  0  0  0  0
   15.4062    4.7973   29.1779 C   0  0  1  0  0  0  0  0  0  0  0  0
   16.6210    4.8043   29.7916 O   0  0  0  0  0  0  0  0  0  0  0  0
   15.6345    4.4020   27.7377 C   0  0  1  0  0  0  0  0  0  0  0  0
   16.7237    3.5903   27.7497 O   0  0  0  0  0  0  0  0  0  0  0  0
   14.4000    3.5826   27.3010 C   0  0  2  0  0  0  0  0  0  0  0  0
   14.2422    6.6974   34.4742 O   0  0  0  0  0  0  0  0  0  0  0  0
   12.8374    7.5546   24.3082 N   0  0  0  0  0  0  0  0  0  0  0  0
   13.9564    6.6572   24.2525 C   0  0  0  0  0  0  0  0  0  0  0  0
   14.2669    5.5956   25.1382 N   0  0  0  0  0  0  0  0  0  0  0  0
   13.3903    5.4888   26.0568 C   0  0  0  0  0  0  0  0  0  0  0  0
   12.2010    6.3583   26.1982 C   0  0  0  0  0  0  0  0  0  0  0  0
   11.9521    7.3613   25.3462 C   0  0  0  0  0  0  0  0  0  0  0  0
   10.8706    8.0698   25.5982 N   0  0  0  0  0  0  0  0  0  0  0  0
   11.4506    6.0596   27.2316 N   0  0  0  0  0  0  0  0  0  0  0  0
   12.1707    4.9928   27.7370 C   0  0  0  0  0  0  0  0  0  0  0  0
   13.3758    4.6229   27.0121 N   0  0  0  0  0  0  0  0  0  0  0  0
  2  1  1  6  0  0  0
  2  3  1  0  0  0  0
  2  5  1  0  0  0  0
  3  4  1  0  0  0  0
  3 17  1  0  0  0  0
  5  6  1  0  0  0  0
  7  6  1  1  0  0  0
  7  8  1  0  0  0  0
  7  9  1  0  0  0  0
 10  9  1  1  0  0  0
 10 11  1  0  0  0  0
 10 12  1  0  0  0  0
 11 16  1  0  0  0  0
 12 13  1  1  0  0  0
 12 14  1  0  0  0  0
 14 15  1  1  0  0  0
 14 16  1  0  0  0  0
 16 27  1  1  0  0  0
 18 19  2  0  0  0  0
 18 23  1  0  0  0  0
 19 20  1  0  0  0  0
 20 21  2  0  0  0  0
 21 22  1  0  0  0  0
 21 27  1  0  0  0  0
 22 23  2  0  0  0  0
 22 25  1  0  0  0  0
 23 24  1  0  0  0  0
 25 26  2  0  0  0  0
 26 27  1  0  0  0  0
M  END
>  <CHROM.1>
131.94146481,-60.11669527,112.55180593,59.17318131,166.16033393,62.43698230
173.87137667,13.52304513,4.89132597,29.53204130,1.57944258,-0.94918164,1.74660960

>  <Name>
ligand

>  <RI>
0

>  <Rbt.Current_Directory>
/home/itssahil/PROJECTS/Mol_Feturizer/Test_systems_manuscript/rnas/4aob

>  <Rbt.Executable>
rbdock ($Id: //depot/dev/client3/rdock/2013.1/src/exe/rbdock.cxx#4 $)

>  <Rbt.Library>
libRbt.so (2013.1, Build901 2013/11/27)

>  <Rbt.Parameter_File>
/export/apps/rDock/src/rDock_2013.1_src/data/scripts/dock_solv.prm

>  <Rbt.Receptor>
prm/pocket_docking_7.prm

>  <SCORE>
-16.5336

>  <SCORE.INTER>
-19.2232

>  <SCORE.INTER.CONST>
1

>  <SCORE.INTER.POLAR>
0

>  <SCORE.INTER.ROT>
7

>  <SCORE.INTER.SOLV>
11.9389

>  <SCORE.INTER.VDW>
-25.0618

>  <SCORE.INTER.norm>
-0.71197

>  <SCORE.INTRA>
2.68954

>  <SCORE.INTRA.DIHEDRAL>
2.41535

>  <SCORE.INTRA.DIHEDRAL.0>
6.31833

>  <SCORE.INTRA.POLAR>
0

>  <SCORE.INTRA.POLAR.0>
0

>  <SCORE.INTRA.REPUL>
0

>  <SCORE.INTRA.REPUL.0>
0

>  <SCORE.INTRA.SOLV>
1.95646

>  <SCORE.INTRA.SOLV.lig_0>
-48.4015

>  <SCORE.INTRA.VDW>
0.503641

>  <SCORE.INTRA.VDW.0>
-2.83256

>  <SCORE.INTRA.norm>
0.0996127

>  <SCORE.RESTR>
0

>  <SCORE.RESTR.CAVITY>
0

>  <SCORE.RESTR.norm>
0

>  <SCORE.SYSTEM>
0

>  <SCORE.SYSTEM.CONST>
0

>  <SCORE.SYSTEM.DIHEDRAL>
0

>  <SCORE.SYSTEM.SOLV>
0

>  <SCORE.SYSTEM.norm>
0

>  <SCORE.heavy>
27

>  <SCORE.norm>
-0.612357

>  <RMSD>
7.288

$$$$
ligand
 OpenBabel02271912153D
libRbt.so/2013.1/901 2013/11/27
 27 29  0  0  0  0  0  0  0  0999 V2000
   12.6303    6.1024   32.6488 N   0  0  0  0  0  0  0  0  0  0  0  0
   12.4313    5.5004   33.9890 C   0  0  2  0  0  0  0  0  0  0  0  0
   13.1638    6.3692   35.0034 C   0  0  0  0  0  0  0  0  0  0  0  0
   12.7427    6.6983   36.1618 O   0  0  0  0  0  0  0  0  0  0  0  0
   12.9300    4.0540   33.9577 C   0  0  0  0  0  0  0  0  0  0  0  0
   12.0979    3.1637   33.0444 C   0  0  0  0  0  0  0  0  0  0  0  0
   12.7536    2.4000   31.5136 S   0  0  2  0  0  0  0  0  0  0  0  0
   14.1158    1.4822   32.2295 C   0  0  0  0  0  0  0  0  0  0  0  0
   13.5527    3.8773   30.8098 C   0  0  0  0  0  0  0  0  0  0  0  0
   14.5420    3.5127   29.7373 C   0  0  1  0  0  0  0  0  0  0  0  0
   13.9074    2.9407   28.5681 O   0  0  0  0  0  0  0  0  0  0  0  0
   15.3910    4.6673   29.2568 C   0  0  1  0  0  0  0  0  0  0  0  0
   16.5876    4.6110   29.9030 O   0  0  0  0  0  0  0  0  0  0  0  0
   15.6342    4.2451   27.8268 C   0  0  1  0  0  0  0  0  0  0  0  0
   16.6743    3.3725   27.8750 O   0  0  0  0  0  0  0  0  0  0  0  0
   14.3666    3.4933   27.3640 C   0  0  2  0  0  0  0  0  0  0  0  0
   14.2420    6.8376   34.6338 O   0  0  0  0  0  0  0  0  0  0  0  0
   13.1239    7.5292   24.3075 N   0  0  0  0  0  0  0  0  0  0  0  0
   14.1921    6.5704   24.2908 C   0  0  0  0  0  0  0  0  0  0  0  0
   14.4147    5.4982   25.1901 N   0  0  0  0  0  0  0  0  0  0  0  0
   13.5050    5.4458   26.0809 C   0  0  0  0  0  0  0  0  0  0  0  0
   12.3624    6.3812   26.1810 C   0  0  0  0  0  0  0  0  0  0  0  0
   12.1970    7.3916   25.3176 C   0  0  0  0  0  0  0  0  0  0  0  0
   11.1495    8.1609   25.5323 N   0  0  0  0  0  0  0  0  0  0  0  0
   11.5643    6.1307   27.1913 N   0  0  0  0  0  0  0  0  0  0  0  0
   12.2072    5.0283   27.7235 C   0  0  0  0  0  0  0  0  0  0  0  0
   13.4119    4.5875   27.0386 N   0  0  0  0  0  0  0  0  0  0  0  0
  2  1  1  6  0  0  0
  2  3  1  0  0  0  0
  2  5  1  0  0  0  0
  3  4  1  0  0  0  0
  3 17  1  0  0  0  0
  5  6  1  0  0  0  0
  7  6  1  1  0  0  0
  7  8  1  0  0  0  0
  7  9  1  0  0  0  0
 10  9  1  1  0  0  0
 10 11  1  0  0  0  0
 10 12  1  0  0  0  0
 11 16  1  0  0  0  0
 12 13  1  1  0  0  0
 12 14  1  0  0  0  0
 14 15  1  1  0  0  0
 14 16  1  0  0  0  0
 16 27  1  1  0  0  0
 18 19  2  0  0  0  0
 18 23  1  0  0  0  0
 19 20  1  0  0  0  0
 20 21  2  0  0  0  0
 21 22  1  0  0  0  0
 21 27  1  0  0  0  0
 22 23  2  0  0  0  0
 22 25  1  0  0  0  0
 23 24  1  0  0  0  0
 25 26  2  0  0  0  0
 26 27  1  0  0  0  0
M  END
>  <CHROM.1>
139.04760726,-65.95544225,114.15345672,57.90126699,162.96833372,66.56683461
173.47961977,13.55583494,4.87759048,29.59963890,1.61922723,-1.01842904,1.76549350

>  <Name>
ligand

>  <RI>
0

>  <Rbt.Current_Directory>
/home/itssahil/PROJECTS/Mol_Feturizer/Test_systems_manuscript/rnas/4aob

>  <Rbt.Executable>
rbdock ($Id: //depot/dev/client3/rdock/2013.1/src/exe/rbdock.cxx#4 $)

>  <Rbt.Library>
libRbt.so (2013.1, Build901 2013/11/27)

>  <Rbt.Parameter_File>
/export/apps/rDock/src/rDock_2013.1_src/data/scripts/dock_solv.prm

>  <Rbt.Receptor>
prm/pocket_docking_6.prm

>  <SCORE>
-16.7317

>  <SCORE.INTER>
-19.528

>  <SCORE.INTER.CONST>
1

>  <SCORE.INTER.POLAR>
0

>  <SCORE.INTER.ROT>
7

>  <SCORE.INTER.SOLV>
11.2489

>  <SCORE.INTER.VDW>
-25.035

>  <SCORE.INTER.norm>
-0.723259

>  <SCORE.INTRA>
2.79628

>  <SCORE.INTRA.DIHEDRAL>
2.8592

>  <SCORE.INTRA.DIHEDRAL.0>
6.31833

>  <SCORE.INTRA.POLAR>
0

>  <SCORE.INTRA.POLAR.0>
0

>  <SCORE.INTRA.REPUL>
0

>  <SCORE.INTRA.REPUL.0>
0

>  <SCORE.INTRA.SOLV>
1.8145

>  <SCORE.INTRA.SOLV.lig_0>
-48.4015

>  <SCORE.INTRA.VDW>
0.459432

>  <SCORE.INTRA.VDW.0>
-2.83256

>  <SCORE.INTRA.norm>
0.103566

>  <SCORE.RESTR>
0

>  <SCORE.RESTR.CAVITY>
0

>  <SCORE.RESTR.norm>
0

>  <SCORE.SYSTEM>
0

>  <SCORE.SYSTEM.CONST>
0

>  <SCORE.SYSTEM.DIHEDRAL>
0

>  <SCORE.SYSTEM.SOLV>
0

>  <SCORE.SYSTEM.norm>
0

>  <SCORE.heavy>
27

>  <SCORE.norm>
-0.619693

>  <RMSD>
7.290

$$$$
ligand
 OpenBabel02271912153D
libRbt.so/2013.1/901 2013/11/27
 27 29  0  0  0  0  0  0  0  0999 V2000
   13.4008    3.9634   32.4510 N   0  0  0  0  0  0  0  0  0  0  0  0
   12.7500    4.0988   31.1256 C   0  0  2  0  0  0  0  0  0  0  0  0
   13.3277    3.0263   30.2112 C   0  0  0  0  0  0  0  0  0  0  0  0
   13.5572    3.1408   28.9615 O   0  0  0  0  0  0  0  0  0  0  0  0
   12.9763    5.5215   30.6095 C   0  0  0  0  0  0  0  0  0  0  0  0
   12.0588    5.8796   29.4480 C   0  0  0  0  0  0  0  0  0  0  0  0
   12.0523    7.5243   28.6409 S   0  0  2  0  0  0  0  0  0  0  0  0
   11.6518    8.5273   30.0706 C   0  0  0  0  0  0  0  0  0  0  0  0
   10.4645    7.3744   27.7619 C   0  0  0  0  0  0  0  0  0  0  0  0
   10.1398    8.6237   26.9901 C   0  0  1  0  0  0  0  0  0  0  0  0
   10.8302    9.7885   27.5035 O   0  0  0  0  0  0  0  0  0  0  0  0
   10.4538    8.5410   25.5138 C   0  0  1  0  0  0  0  0  0  0  0  0
    9.3027    8.2422   24.8519 O   0  0  0  0  0  0  0  0  0  0  0  0
   10.7728    9.9893   25.2255 C   0  0  1  0  0  0  0  0  0  0  0  0
    9.5728   10.5974   25.0362 O   0  0  0  0  0  0  0  0  0  0  0  0
   11.4322   10.5611   26.5000 C   0  0  2  0  0  0  0  0  0  0  0  0
   13.5369    1.9291   30.7315 O   0  0  0  0  0  0  0  0  0  0  0  0
   15.9180    9.5108   28.9390 N   0  0  0  0  0  0  0  0  0  0  0  0
   14.6282    9.9502   29.3906 C   0  0  0  0  0  0  0  0  0  0  0  0
   13.4693   10.1943   28.6126 N   0  0  0  0  0  0  0  0  0  0  0  0
   13.6833    9.9599   27.3786 C   0  0  0  0  0  0  0  0  0  0  0  0
   14.9720    9.4997   26.8147 C   0  0  0  0  0  0  0  0  0  0  0  0
   16.0487    9.2949   27.5845 C   0  0  0  0  0  0  0  0  0  0  0  0
   17.1369    8.9053   26.9528 N   0  0  0  0  0  0  0  0  0  0  0  0
   14.9494    9.3390   25.5131 N   0  0  0  0  0  0  0  0  0  0  0  0
   13.6372    9.6945   25.2610 C   0  0  0  0  0  0  0  0  0  0  0  0
   12.8364   10.0764   26.4132 N   0  0  0  0  0  0  0  0  0  0  0  0
  2  1  1  1  0  0  0
  2  3  1  0  0  0  0
  2  5  1  0  0  0  0
  3  4  1  0  0  0  0
  3 17  1  0  0  0  0
  5  6  1  0  0  0  0
  7  6  1  1  0  0  0
  7  8  1  0  0  0  0
  7  9  1  0  0  0  0
 10  9  1  1  0  0  0
 10 11  1  0  0  0  0
 10 12  1  0  0  0  0
 11 16  1  0  0  0  0
 12 13  1  6  0  0  0
 12 14  1  0  0  0  0
 14 15  1  1  0  0  0
 14 16  1  0  0  0  0
 16 27  1  6  0  0  0
 18 19  2  0  0  0  0
 18 23  1  0  0  0  0
 19 20  1  0  0  0  0
 20 21  2  0  0  0  0
 21 22  1  0  0  0  0
 21 27  1  0  0  0  0
 22 23  2  0  0  0  0
 22 25  1  0  0  0  0
 23 24  1  0  0  0  0
 25 26  2  0  0  0  0
 26 27  1  0  0  0  0
M  END
>  <CHROM.1>
-144.42004773,-164.96445275,178.22678280,-58.98146020,178.92940086,-22.44075092
-52.62063308,12.69689184,7.84423861,27.98503014,1.38149867,0.27365571,2.54362453

>  <Name>
ligand

>  <RI>
0

>  <Rbt.Current_Directory>
/home/itssahil/PROJECTS/Mol_Feturizer/Test_systems_manuscript/rnas/4aob

>  <Rbt.Executable>
rbdock ($Id: //depot/dev/client3/rdock/2013.1/src/exe/rbdock.cxx#4 $)

>  <Rbt.Library>
libRbt.so (2013.1, Build901 2013/11/27)

>  <Rbt.Parameter_File>
/export/apps/rDock/src/rDock_2013.1_src/data/scripts/dock_solv.prm

>  <Rbt.Receptor>
prm/pocket_docking_7.prm

>  <SCORE>
-10.2723

>  <SCORE.INTER>
-11.3291

>  <SCORE.INTER.CONST>
1

>  <SCORE.INTER.POLAR>
0

>  <SCORE.INTER.ROT>
7

>  <SCORE.INTER.SOLV>
12.687

>  <SCORE.INTER.VDW>
-20.0484

>  <SCORE.INTER.norm>
-0.419598

>  <SCORE.INTRA>
1.0568

>  <SCORE.INTRA.DIHEDRAL>
1.55002

>  <SCORE.INTRA.DIHEDRAL.0>
6.31833

>  <SCORE.INTRA.POLAR>
0

>  <SCORE.INTRA.POLAR.0>
0

>  <SCORE.INTRA.REPUL>
0

>  <SCORE.INTRA.REPUL.0>
0

>  <SCORE.INTRA.SOLV>
-0.449821

>  <SCORE.INTRA.SOLV.lig_0>
-48.4015

>  <SCORE.INTRA.VDW>
0.506702

>  <SCORE.INTRA.VDW.0>
-2.83256

>  <SCORE.INTRA.norm>
0.0391408

>  <SCORE.RESTR>
0

>  <SCORE.RESTR.CAVITY>
0

>  <SCORE.RESTR.norm>
0

>  <SCORE.SYSTEM>
0

>  <SCORE.SYSTEM.CONST>
0

>  <SCORE.SYSTEM.DIHEDRAL>
0

>  <SCORE.SYSTEM.SOLV>
0

>  <SCORE.SYSTEM.norm>
0

>  <SCORE.heavy>
27

>  <SCORE.norm>
-0.380457

>  <RMSD>
7.310

$$$$
ligand
 OpenBabel02271912153D
libRbt.so/2013.1/901 2013/11/27
 27 29  0  0  0  0  0  0  0  0999 V2000
   15.6556    8.2872   35.3132 N   0  0  0  0  0  0  0  0  0  0  0  0
   14.3029    7.7297   35.0732 C   0  0  2  0  0  0  0  0  0  0  0  0
   13.7147    7.3367   36.4222 C   0  0  0  0  0  0  0  0  0  0  0  0
   12.7471    6.5291   36.6195 O   0  0  0  0  0  0  0  0  0  0  0  0
   14.4203    6.5560   34.0983 C   0  0  0  0  0  0  0  0  0  0  0  0
   13.0688    6.0854   33.5774 C   0  0  0  0  0  0  0  0  0  0  0  0
   12.8816    4.8580   32.2303 S   0  0  2  0  0  0  0  0  0  0  0  0
   13.7546    3.4884   32.9870 C   0  0  0  0  0  0  0  0  0  0  0  0
   14.1002    5.5578   31.0721 C   0  0  0  0  0  0  0  0  0  0  0  0
   14.4857    4.5660   30.0093 C   0  0  1  0  0  0  0  0  0  0  0  0
   13.3745    4.2122   29.1508 O   0  0  0  0  0  0  0  0  0  0  0  0
   15.6089    5.0261   29.1082 C   0  0  1  0  0  0  0  0  0  0  0  0
   16.7682    4.4757   29.5615 O   0  0  0  0  0  0  0  0  0  0  0  0
   15.2409    4.3069   27.8316 C   0  0  1  0  0  0  0  0  0  0  0  0
   15.7333    3.0480   27.9663 O   0  0  0  0  0  0  0  0  0  0  0  0
   13.6982    4.2427   27.7869 C   0  0  2  0  0  0  0  0  0  0  0  0
   14.1938    7.9042   37.4056 O   0  0  0  0  0  0  0  0  0  0  0  0
    9.9143    7.7406   26.9985 N   0  0  0  0  0  0  0  0  0  0  0  0
    9.9409    6.4301   27.5838 C   0  0  0  0  0  0  0  0  0  0  0  0
   11.0564    5.5719   27.7485 N   0  0  0  0  0  0  0  0  0  0  0  0
   12.1234    6.1112   27.3077 C   0  0  0  0  0  0  0  0  0  0  0  0
   12.2020    7.4554   26.6935 C   0  0  0  0  0  0  0  0  0  0  0  0
   11.1194    8.2295   26.5433 C   0  0  0  0  0  0  0  0  0  0  0  0
   11.3257    9.3941   25.9635 N   0  0  0  0  0  0  0  0  0  0  0  0
   13.4103    7.7868   26.3053 N   0  0  0  0  0  0  0  0  0  0  0  0
   14.0937    6.6460   26.6843 C   0  0  0  0  0  0  0  0  0  0  0  0
   13.3066    5.5986   27.3151 N   0  0  0  0  0  0  0  0  0  0  0  0
  2  1  1  1  0  0  0
  2  3  1  0  0  0  0
  2  5  1  0  0  0  0
  3  4  1  0  0  0  0
  3 17  1  0  0  0  0
  5  6  1  0  0  0  0
  7  6  1  1  0  0  0
  7  8  1  0  0  0  0
  7  9  1  0  0  0  0
 10  9  1  1  0  0  0
 10 11  1  0  0  0  0
 10 12  1  0  0  0  0
 11 16  1  0  0  0  0
 12 13  1  1  0  0  0
 12 14  1  0  0  0  0
 14 15  1  1  0  0  0
 14 16  1  0  0  0  0
 16 27  1  1  0  0  0
 18 19  2  0  0  0  0
 18 23  1  0  0  0  0
 19 20  1  0  0  0  0
 20 21  2  0  0  0  0
 21 22  1  0  0  0  0
 21 27  1  0  0  0  0
 22 23  2  0  0  0  0
 22 25  1  0  0  0  0
 23 24  1  0  0  0  0
 25 26  2  0  0  0  0
 26 27  1  0  0  0  0
M  END
>  <CHROM.1>
-160.73616704,-168.89721617,171.42808322,59.11776625,163.59929143,64.38778342
-62.03987245,13.44338866,6.01362974,30.40361391,1.32224226,-0.80160584,1.35417392

>  <Name>
ligand

>  <RI>
0

>  <Rbt.Current_Directory>
/home/itssahil/PROJECTS/Mol_Feturizer/Test_systems_manuscript/rnas/4aob

>  <Rbt.Executable>
rbdock ($Id: //depot/dev/client3/rdock/2013.1/src/exe/rbdock.cxx#4 $)

>  <Rbt.Library>
libRbt.so (2013.1, Build901 2013/11/27)

>  <Rbt.Parameter_File>
/export/apps/rDock/src/rDock_2013.1_src/data/scripts/dock_solv.prm

>  <Rbt.Receptor>
prm/pocket_docking_4.prm

>  <SCORE>
-11.6329

>  <SCORE.INTER>
-11.3901

>  <SCORE.INTER.CONST>
1

>  <SCORE.INTER.POLAR>
0

>  <SCORE.INTER.ROT>
7

>  <SCORE.INTER.SOLV>
9.76384

>  <SCORE.INTER.VDW>
-19.1147

>  <SCORE.INTER.norm>
-0.421855

>  <SCORE.INTRA>
-0.242786

>  <SCORE.INTRA.DIHEDRAL>
-2.22164

>  <SCORE.INTRA.DIHEDRAL.0>
6.31833

>  <SCORE.INTRA.POLAR>
0

>  <SCORE.INTRA.POLAR.0>
0

>  <SCORE.INTRA.REPUL>
0

>  <SCORE.INTRA.REPUL.0>
0

>  <SCORE.INTRA.SOLV>
-0.724945

>  <SCORE.INTRA.SOLV.lig_0>
-48.4015

>  <SCORE.INTRA.VDW>
1.2305

>  <SCORE.INTRA.VDW.0>
-2.83256

>  <SCORE.INTRA.norm>
-0.00899208

>  <SCORE.RESTR>
0

>  <SCORE.RESTR.CAVITY>
0

>  <SCORE.RESTR.norm>
0

>  <SCORE.SYSTEM>
0

>  <SCORE.SYSTEM.CONST>
0

>  <SCORE.SYSTEM.DIHEDRAL>
0

>  <SCORE.SYSTEM.SOLV>
0

>  <SCORE.SYSTEM.norm>
0

>  <SCORE.heavy>
27

>  <SCORE.norm>
-0.430847

>  <RMSD>
7.354

$$$$
ligand
 OpenBabel02271912153D
libRbt.so/2013.1/901 2013/11/27
 27 29  0  0  0  0  0  0  0  0999 V2000
   14.8545    6.4244   31.6594 N   0  0  0  0  0  0  0  0  0  0  0  0
   13.3774    6.3137   31.7243 C   0  0  2  0  0  0  0  0  0  0  0  0
   13.0126    5.7389   33.0869 C   0  0  0  0  0  0  0  0  0  0  0  0
   13.7568    5.0119   33.8252 O   0  0  0  0  0  0  0  0  0  0  0  0
   12.8967    5.4520   30.5547 C   0  0  0  0  0  0  0  0  0  0  0  0
   13.3694    5.9747   29.2047 C   0  0  0  0  0  0  0  0  0  0  0  0
   13.0445    5.1115   27.6216 S   0  0  2  0  0  0  0  0  0  0  0  0
   13.7935    3.5319   28.0145 C   0  0  0  0  0  0  0  0  0  0  0  0
   14.3067    5.9462   26.6085 C   0  0  0  0  0  0  0  0  0  0  0  0
   13.8120    7.2675   26.0873 C   0  0  1  0  0  0  0  0  0  0  0  0
   13.9060    8.3236   27.0735 O   0  0  0  0  0  0  0  0  0  0  0  0
   14.5304    7.7554   24.8500 C   0  0  1  0  0  0  0  0  0  0  0  0
   13.7743    7.4314   23.7657 O   0  0  0  0  0  0  0  0  0  0  0  0
   14.4167    9.2492   25.0449 C   0  0  1  0  0  0  0  0  0  0  0  0
   13.1848    9.5856   24.5816 O   0  0  0  0  0  0  0  0  0  0  0  0
   14.4694    9.5037   26.5676 C   0  0  2  0  0  0  0  0  0  0  0  0
   11.8644    5.9600   33.4759 O   0  0  0  0  0  0  0  0  0  0  0  0
   18.1895    8.7410   30.1389 N   0  0  0  0  0  0  0  0  0  0  0  0
   16.7558    8.6836   30.1792 C   0  0  0  0  0  0  0  0  0  0  0  0
   15.8446    8.9073   29.1173 N   0  0  0  0  0  0  0  0  0  0  0  0
   16.4564    9.1740   28.0318 C   0  0  0  0  0  0  0  0  0  0  0  0
   17.9272    9.2515   27.8853 C   0  0  0  0  0  0  0  0  0  0  0  0
   18.7534    9.0471   28.9195 C   0  0  0  0  0  0  0  0  0  0  0  0
   20.0385    9.1658   28.6562 N   0  0  0  0  0  0  0  0  0  0  0  0
   18.3198    9.5536   26.6708 N   0  0  0  0  0  0  0  0  0  0  0  0
   17.0881    9.6598   26.0515 C   0  0  0  0  0  0  0  0  0  0  0  0
   15.9209    9.4196   26.8849 N   0  0  0  0  0  0  0  0  0  0  0  0
  2  1  1  1  0  0  0
  2  3  1  0  0  0  0
  2  5  1  0  0  0  0
  3  4  1  0  0  0  0
  3 17  1  0  0  0  0
  5  6  1  0  0  0  0
  7  6  1  1  0  0  0
  7  8  1  0  0  0  0
  7  9  1  0  0  0  0
 10  9  1  1  0  0  0
 10 11  1  0  0  0  0
 10 12  1  0  0  0  0
 11 16  1  0  0  0  0
 12 13  1  6  0  0  0
 12 14  1  0  0  0  0
 14 15  1  1  0  0  0
 14 16  1  0  0  0  0
 16 27  1  1  0  0  0
 18 19  2  0  0  0  0
 18 23  1  0  0  0  0
 19 20  1  0  0  0  0
 20 21  2  0  0  0  0
 21 22  1  0  0  0  0
 21 27  1  0  0  0  0
 22 23  2  0  0  0  0
 22 25  1  0  0  0  0
 23 24  1  0  0  0  0
 25 26  2  0  0  0  0
 26 27  1  0  0  0  0
M  END
>  <CHROM.1>
-25.00235701,-55.22431405,176.27777086,-56.94836018,-83.24865003,80.58520443
-51.60212299,14.91831689,7.46490993,28.34849180,-2.04184983,-0.58868653,-1.30365265

>  <Name>
ligand

>  <RI>
0

>  <Rbt.Current_Directory>
/home/itssahil/PROJECTS/Mol_Feturizer/Test_systems_manuscript/rnas/4aob

>  <Rbt.Executable>
rbdock ($Id: //depot/dev/client3/rdock/2013.1/src/exe/rbdock.cxx#4 $)

>  <Rbt.Library>
libRbt.so (2013.1, Build901 2013/11/27)

>  <Rbt.Parameter_File>
/export/apps/rDock/src/rDock_2013.1_src/data/scripts/dock_solv.prm

>  <Rbt.Receptor>
prm/pocket_docking_7.prm

>  <SCORE>
-11.9362

>  <SCORE.INTER>
-11.7459

>  <SCORE.INTER.CONST>
1

>  <SCORE.INTER.POLAR>
0

>  <SCORE.INTER.ROT>
7

>  <SCORE.INTER.SOLV>
7.42008

>  <SCORE.INTER.VDW>
-18.5707

>  <SCORE.INTER.norm>
-0.435035

>  <SCORE.INTRA>
-0.190281

>  <SCORE.INTRA.DIHEDRAL>
-1.00638

>  <SCORE.INTRA.DIHEDRAL.0>
6.31833

>  <SCORE.INTRA.POLAR>
0

>  <SCORE.INTRA.POLAR.0>
0

>  <SCORE.INTRA.REPUL>
0

>  <SCORE.INTRA.REPUL.0>
0

>  <SCORE.INTRA.SOLV>
0.574955

>  <SCORE.INTRA.SOLV.lig_0>
-48.4015

>  <SCORE.INTRA.VDW>
0.0254303

>  <SCORE.INTRA.VDW.0>
-2.83256

>  <SCORE.INTRA.norm>
-0.00704744

>  <SCORE.RESTR>
0

>  <SCORE.RESTR.CAVITY>
0

>  <SCORE.RESTR.norm>
0

>  <SCORE.SYSTEM>
0

>  <SCORE.SYSTEM.CONST>
0

>  <SCORE.SYSTEM.DIHEDRAL>
0

>  <SCORE.SYSTEM.SOLV>
0

>  <SCORE.SYSTEM.norm>
0

>  <SCORE.heavy>
27

>  <SCORE.norm>
-0.442082

>  <RMSD>
7.375

$$$$
ligand
 OpenBabel02271912153D
libRbt.so/2013.1/901 2013/11/27
 27 29  0  0  0  0  0  0  0  0999 V2000
   16.9013    5.9258   33.3392 N   0  0  0  0  0  0  0  0  0  0  0  0
   16.1547    6.5212   32.2050 C   0  0  2  0  0  0  0  0  0  0  0  0
   17.1729    7.0360   31.1958 C   0  0  0  0  0  0  0  0  0  0  0  0
   18.1708    7.7904   31.4456 O   0  0  0  0  0  0  0  0  0  0  0  0
   15.2300    7.6146   32.7445 C   0  0  0  0  0  0  0  0  0  0  0  0
   14.3443    8.2225   31.6651 C   0  0  0  0  0  0  0  0  0  0  0  0
   12.9111    7.3495   30.9299 S   0  0  2  0  0  0  0  0  0  0  0  0
   13.7988    6.0808   30.0283 C   0  0  0  0  0  0  0  0  0  0  0  0
   12.4920    8.5743   29.6491 C   0  0  0  0  0  0  0  0  0  0  0  0
   11.2977    8.1441   28.8426 C   0  0  1  0  0  0  0  0  0  0  0  0
   10.8910    9.1433   27.8766 O   0  0  0  0  0  0  0  0  0  0  0  0
   11.4937    6.8518   28.0834 C   0  0  1  0  0  0  0  0  0  0  0  0
   10.9375    5.8447   28.8105 O   0  0  0  0  0  0  0  0  0  0  0  0
   10.5917    7.0981   26.8966 C   0  0  1  0  0  0  0  0  0  0  0  0
    9.3402    6.7763   27.3157 O   0  0  0  0  0  0  0  0  0  0  0  0
   10.6504    8.6131   26.6010 C   0  0  2  0  0  0  0  0  0  0  0  0
   16.9683    6.7310   30.0196 O   0  0  0  0  0  0  0  0  0  0  0  0
   13.8217    6.9238   22.8242 N   0  0  0  0  0  0  0  0  0  0  0  0
   12.5146    6.5279   23.2663 C   0  0  0  0  0  0  0  0  0  0  0  0
   11.7449    7.0843   24.3179 N   0  0  0  0  0  0  0  0  0  0  0  0
   12.3565    8.0530   24.8758 C   0  0  0  0  0  0  0  0  0  0  0  0
   13.7002    8.5403   24.4917 C   0  0  0  0  0  0  0  0  0  0  0  0
   14.4011    7.9758   23.4996 C   0  0  0  0  0  0  0  0  0  0  0  0
   15.5910    8.4937   23.2743 N   0  0  0  0  0  0  0  0  0  0  0  0
   14.1249    9.5435   25.2221 N   0  0  0  0  0  0  0  0  0  0  0  0
   13.0382    9.6896   26.0646 C   0  0  0  0  0  0  0  0  0  0  0  0
   11.9285    8.7734   25.8558 N   0  0  0  0  0  0  0  0  0  0  0  0
  2  1  1  1  0  0  0
  2  3  1  0  0  0  0
  2  5  1  0  0  0  0
  3  4  1  0  0  0  0
  3 17  1  0  0  0  0
  5  6  1  0  0  0  0
  7  6  1  1  0  0  0
  7  8  1  0  0  0  0
  7  9  1  0  0  0  0
 10  9  1  6  0  0  0
 10 11  1  0  0  0  0
 10 12  1  0  0  0  0
 11 16  1  0  0  0  0
 12 13  1  1  0  0  0
 12 14  1  0  0  0  0
 14 15  1  1  0  0  0
 14 16  1  0  0  0  0
 16 27  1  6  0  0  0
 18 19  2  0  0  0  0
 18 23  1  0  0  0  0
 19 20  1  0  0  0  0
 20 21  2  0  0  0  0
 21 22  1  0  0  0  0
 21 27  1  0  0  0  0
 22 23  2  0  0  0  0
 22 25  1  0  0  0  0
 23 24  1  0  0  0  0
 25 26  2  0  0  0  0
 26 27  1  0  0  0  0
M  END
>  <CHROM.1>
-50.49959182,-175.94043330,73.27912651,-68.88840760,-179.46450728,176.14237892
153.08583367,13.40557258,7.59227295,28.07012814,-1.13403907,-0.01814369,-1.44415534

>  <Name>
ligand

>  <RI>
0

>  <Rbt.Current_Directory>
/home/itssahil/PROJECTS/Mol_Feturizer/Test_systems_manuscript/rnas/4aob

>  <Rbt.Executable>
rbdock ($Id: //depot/dev/client3/rdock/2013.1/src/exe/rbdock.cxx#4 $)

>  <Rbt.Library>
libRbt.so (2013.1, Build901 2013/11/27)

>  <Rbt.Parameter_File>
/export/apps/rDock/src/rDock_2013.1_src/data/scripts/dock_solv.prm

>  <Rbt.Receptor>
prm/pocket_docking_7.prm

>  <SCORE>
-4.52395

>  <SCORE.INTER>
-4.16988

>  <SCORE.INTER.CONST>
1

>  <SCORE.INTER.POLAR>
0

>  <SCORE.INTER.ROT>
7

>  <SCORE.INTER.SOLV>
12.6613

>  <SCORE.INTER.VDW>
-15.267

>  <SCORE.INTER.norm>
-0.15444

>  <SCORE.INTRA>
-0.354064

>  <SCORE.INTRA.DIHEDRAL>
-2.1113

>  <SCORE.INTRA.DIHEDRAL.0>
6.31833

>  <SCORE.INTRA.POLAR>
0

>  <SCORE.INTRA.POLAR.0>
0

>  <SCORE.INTRA.REPUL>
0

>  <SCORE.INTRA.REPUL.0>
0

>  <SCORE.INTRA.SOLV>
-0.236736

>  <SCORE.INTRA.SOLV.lig_0>
-48.4015

>  <SCORE.INTRA.VDW>
0.819957

>  <SCORE.INTRA.VDW.0>
-2.83256

>  <SCORE.INTRA.norm>
-0.0131135

>  <SCORE.RESTR>
0

>  <SCORE.RESTR.CAVITY>
0

>  <SCORE.RESTR.norm>
0

>  <SCORE.SYSTEM>
0

>  <SCORE.SYSTEM.CONST>
0

>  <SCORE.SYSTEM.DIHEDRAL>
0

>  <SCORE.SYSTEM.SOLV>
0

>  <SCORE.SYSTEM.norm>
0

>  <SCORE.heavy>
27

>  <SCORE.norm>
-0.167554

>  <RMSD>
7.379

$$$$
ligand
 OpenBabel02271912153D
libRbt.so/2013.1/901 2013/11/27
 27 29  0  0  0  0  0  0  0  0999 V2000
   15.2732    7.0165   32.0103 N   0  0  0  0  0  0  0  0  0  0  0  0
   13.9852    6.7886   31.3122 C   0  0  2  0  0  0  0  0  0  0  0  0
   13.1582    5.8315   32.1610 C   0  0  0  0  0  0  0  0  0  0  0  0
   12.0854    6.1132   32.7912 O   0  0  0  0  0  0  0  0  0  0  0  0
   14.2746    6.2567   29.9069 C   0  0  0  0  0  0  0  0  0  0  0  0
   13.0121    6.0713   29.0756 C   0  0  0  0  0  0  0  0  0  0  0  0
   12.9615    5.0935   27.5271 S   0  0  2  0  0  0  0  0  0  0  0  0
   13.7172    3.5859   28.1326 C   0  0  0  0  0  0  0  0  0  0  0  0
   14.3181    5.9319   26.6479 C   0  0  0  0  0  0  0  0  0  0  0  0
   13.8448    7.1890   25.9714 C   0  0  1  0  0  0  0  0  0  0  0  0
   13.9047    8.3443   26.8423 O   0  0  0  0  0  0  0  0  0  0  0  0
   14.6082    7.5440   24.7159 C   0  0  1  0  0  0  0  0  0  0  0  0
   13.8913    7.1047   23.6457 O   0  0  0  0  0  0  0  0  0  0  0  0
   14.4899    9.0498   24.7464 C   0  0  1  0  0  0  0  0  0  0  0  0
   13.2761    9.3322   24.2058 O   0  0  0  0  0  0  0  0  0  0  0  0
   14.4880    9.4651   26.2343 C   0  0  2  0  0  0  0  0  0  0  0  0
   13.6116    4.6926   32.2867 O   0  0  0  0  0  0  0  0  0  0  0  0
   18.0750    9.0209   29.9907 N   0  0  0  0  0  0  0  0  0  0  0  0
   16.6411    8.9552   29.9823 C   0  0  0  0  0  0  0  0  0  0  0  0
   15.7694    9.0858   28.8728 N   0  0  0  0  0  0  0  0  0  0  0  0
   16.4202    9.2698   27.7929 C   0  0  0  0  0  0  0  0  0  0  0  0
   17.8950    9.3473   27.6953 C   0  0  0  0  0  0  0  0  0  0  0  0
   18.6827    9.2330   28.7725 C   0  0  0  0  0  0  0  0  0  0  0  0
   19.9762    9.3408   28.5483 N   0  0  0  0  0  0  0  0  0  0  0  0
   18.3315    9.5545   26.4759 N   0  0  0  0  0  0  0  0  0  0  0  0
   17.1234    9.6008   25.8048 C   0  0  0  0  0  0  0  0  0  0  0  0
   15.9269    9.4185   26.6109 N   0  0  0  0  0  0  0  0  0  0  0  0
  2  1  1  1  0  0  0
  2  3  1  0  0  0  0
  2  5  1  0  0  0  0
  3  4  1  0  0  0  0
  3 17  1  0  0  0  0
  5  6  1  0  0  0  0
  7  6  1  1  0  0  0
  7  8  1  0  0  0  0
  7  9  1  0  0  0  0
 10  9  1  1  0  0  0
 10 11  1  0  0  0  0
 10 12  1  0  0  0  0
 11 16  1  0  0  0  0
 12 13  1  6  0  0  0
 12 14  1  0  0  0  0
 14 15  1  1  0  0  0
 14 16  1  0  0  0  0
 16 27  1  1  0  0  0
 18 19  2  0  0  0  0
 18 23  1  0  0  0  0
 19 20  1  0  0  0  0
 20 21  2  0  0  0  0
 21 22  1  0  0  0  0
 21 27  1  0  0  0  0
 22 23  2  0  0  0  0
 22 25  1  0  0  0  0
 23 24  1  0  0  0  0
 25 26  2  0  0  0  0
 26 27  1  0  0  0  0
M  END
>  <CHROM.1>
111.62811494,-176.44544749,-164.91396303,51.42457612,-83.17622864,87.78955004
-50.04062624,14.98863834,7.53086053,28.07265701,-2.10930381,-0.63516902,-1.31137750

>  <Name>
ligand

>  <RI>
0

>  <Rbt.Current_Directory>
/home/itssahil/PROJECTS/Mol_Feturizer/Test_systems_manuscript/rnas/4aob

>  <Rbt.Executable>
rbdock ($Id: //depot/dev/client3/rdock/2013.1/src/exe/rbdock.cxx#4 $)

>  <Rbt.Library>
libRbt.so (2013.1, Build901 2013/11/27)

>  <Rbt.Parameter_File>
/export/apps/rDock/src/rDock_2013.1_src/data/scripts/dock_solv.prm

>  <Rbt.Receptor>
prm/pocket_docking_7.prm

>  <SCORE>
-10.4109

>  <SCORE.INTER>
-10.2124

>  <SCORE.INTER.CONST>
1

>  <SCORE.INTER.POLAR>
0

>  <SCORE.INTER.ROT>
7

>  <SCORE.INTER.SOLV>
8.24701

>  <SCORE.INTER.VDW>
-17.8239

>  <SCORE.INTER.norm>
-0.378235

>  <SCORE.INTRA>
-0.198539

>  <SCORE.INTRA.DIHEDRAL>
0.397257

>  <SCORE.INTRA.DIHEDRAL.0>
6.31833

>  <SCORE.INTRA.POLAR>
0

>  <SCORE.INTRA.POLAR.0>
0

>  <SCORE.INTRA.REPUL>
0

>  <SCORE.INTRA.REPUL.0>
0

>  <SCORE.INTRA.SOLV>
-0.0131348

>  <SCORE.INTRA.SOLV.lig_0>
-48.4015

>  <SCORE.INTRA.VDW>
-0.3906

>  <SCORE.INTRA.VDW.0>
-2.83256

>  <SCORE.INTRA.norm>
-0.0073533

>  <SCORE.RESTR>
0

>  <SCORE.RESTR.CAVITY>
0

>  <SCORE.RESTR.norm>
0

>  <SCORE.SYSTEM>
0

>  <SCORE.SYSTEM.CONST>
0

>  <SCORE.SYSTEM.DIHEDRAL>
0

>  <SCORE.SYSTEM.SOLV>
0

>  <SCORE.SYSTEM.norm>
0

>  <SCORE.heavy>
27

>  <SCORE.norm>
-0.385589

>  <RMSD>
7.420

$$$$
ligand
 OpenBabel02271912153D
libRbt.so/2013.1/901 2013/11/27
 27 29  0  0  0  0  0  0  0  0999 V2000
   17.2149    5.5231   32.6408 N   0  0  0  0  0  0  0  0  0  0  0  0
   17.2717    5.0385   31.2407 C   0  0  2  0  0  0  0  0  0  0  0  0
   18.3053    5.8764   30.4992 C   0  0  0  0  0  0  0  0  0  0  0  0
   19.3428    5.4403   29.8983 O   0  0  0  0  0  0  0  0  0  0  0  0
   15.8705    5.1269   30.6322 C   0  0  0  0  0  0  0  0  0  0  0  0
   15.7741    4.4453   29.2737 C   0  0  0  0  0  0  0  0  0  0  0  0
   14.2176    4.3292   28.3144 S   0  0  2  0  0  0  0  0  0  0  0  0
   14.8747    3.5952   26.8177 C   0  0  0  0  0  0  0  0  0  0  0  0
   14.0442    6.0915   27.8893 C   0  0  0  0  0  0  0  0  0  0  0  0
   13.7302    6.9242   29.1017 C   0  0  1  0  0  0  0  0  0  0  0  0
   13.8054    8.3453   28.8337 O   0  0  0  0  0  0  0  0  0  0  0  0
   12.3674    6.6607   29.7003 C   0  0  1  0  0  0  0  0  0  0  0  0
   12.5231    5.8069   30.7487 O   0  0  0  0  0  0  0  0  0  0  0  0
   12.0583    8.0233   30.2748 C   0  0  1  0  0  0  0  0  0  0  0  0
   12.6873    8.0640   31.4782 O   0  0  0  0  0  0  0  0  0  0  0  0
   12.7069    9.0605   29.3316 C   0  0  2  0  0  0  0  0  0  0  0  0
   18.1397    7.0968   30.5391 O   0  0  0  0  0  0  0  0  0  0  0  0
   11.4746   11.1530   24.7188 N   0  0  0  0  0  0  0  0  0  0  0  0
   12.6210   11.2590   25.5763 C   0  0  0  0  0  0  0  0  0  0  0  0
   12.8392   10.6202   26.8221 N   0  0  0  0  0  0  0  0  0  0  0  0
   11.8561    9.8731   27.1369 C   0  0  0  0  0  0  0  0  0  0  0  0
   10.6344    9.6921   26.3213 C   0  0  0  0  0  0  0  0  0  0  0  0
   10.4616   10.3270   25.1547 C   0  0  0  0  0  0  0  0  0  0  0  0
    9.3205   10.0922   24.5401 N   0  0  0  0  0  0  0  0  0  0  0  0
    9.7567    8.8806   26.8612 N   0  0  0  0  0  0  0  0  0  0  0  0
   10.4352    8.5465   28.0188 C   0  0  0  0  0  0  0  0  0  0  0  0
   11.7451    9.1515   28.1997 N   0  0  0  0  0  0  0  0  0  0  0  0
  2  1  1  1  0  0  0
  2  3  1  0  0  0  0
  2  5  1  0  0  0  0
  3  4  1  0  0  0  0
  3 17  1  0  0  0  0
  5  6  1  0  0  0  0
  7  6  1  1  0  0  0
  7  8  1  0  0  0  0
  7  9  1  0  0  0  0
 10  9  1  6  0  0  0
 10 11  1  0  0  0  0
 10 12  1  0  0  0  0
 11 16  1  0  0  0  0
 12 13  1  1  0  0  0
 12 14  1  0  0  0  0
 14 15  1  1  0  0  0
 14 16  1  0  0  0  0
 16 27  1  6  0  0  0
 18 19  2  0  0  0  0
 18 23  1  0  0  0  0
 19 20  1  0  0  0  0
 20 21  2  0  0  0  0
 21 22  1  0  0  0  0
 21 27  1  0  0  0  0
 22 23  2  0  0  0  0
 22 25  1  0  0  0  0
 23 24  1  0  0  0  0
 25 26  2  0  0  0  0
 26 27  1  0  0  0  0
M  END
>  <CHROM.1>
121.99795378,-170.74278074,177.86978863,174.26223137,-68.86592847,170.43463850
-72.02535533,13.67222644,7.37045673,28.59553177,-0.41861267,-0.71991148,0.25696462

>  <Name>
ligand

>  <RI>
0

>  <Rbt.Current_Directory>
/home/itssahil/PROJECTS/Mol_Feturizer/Test_systems_manuscript/rnas/4aob

>  <Rbt.Executable>
rbdock ($Id: //depot/dev/client3/rdock/2013.1/src/exe/rbdock.cxx#4 $)

>  <Rbt.Library>
libRbt.so (2013.1, Build901 2013/11/27)

>  <Rbt.Parameter_File>
/export/apps/rDock/src/rDock_2013.1_src/data/scripts/dock_solv.prm

>  <Rbt.Receptor>
prm/pocket_docking_8.prm

>  <SCORE>
-10.3779

>  <SCORE.INTER>
-9.16311

>  <SCORE.INTER.CONST>
1

>  <SCORE.INTER.POLAR>
0

>  <SCORE.INTER.ROT>
7

>  <SCORE.INTER.SOLV>
8.85614

>  <SCORE.INTER.VDW>
-17.3275

>  <SCORE.INTER.norm>
-0.339374

>  <SCORE.INTRA>
-1.21478

>  <SCORE.INTRA.DIHEDRAL>
-2.43165

>  <SCORE.INTRA.DIHEDRAL.0>
6.31833

>  <SCORE.INTRA.POLAR>
0

>  <SCORE.INTRA.POLAR.0>
0

>  <SCORE.INTRA.REPUL>
0

>  <SCORE.INTRA.REPUL.0>
0

>  <SCORE.INTRA.SOLV>
-0.306447

>  <SCORE.INTRA.SOLV.lig_0>
-48.4015

>  <SCORE.INTRA.VDW>
0.154273

>  <SCORE.INTRA.VDW.0>
-2.83256

>  <SCORE.INTRA.norm>
-0.0449917

>  <SCORE.RESTR>
0

>  <SCORE.RESTR.CAVITY>
0

>  <SCORE.RESTR.norm>
0

>  <SCORE.SYSTEM>
0

>  <SCORE.SYSTEM.CONST>
0

>  <SCORE.SYSTEM.DIHEDRAL>
0

>  <SCORE.SYSTEM.SOLV>
0

>  <SCORE.SYSTEM.norm>
0

>  <SCORE.heavy>
27

>  <SCORE.norm>
-0.384366

>  <RMSD>
7.423

$$$$
ligand
 OpenBabel02271912153D
libRbt.so/2013.1/901 2013/11/27
 27 29  0  0  0  0  0  0  0  0999 V2000
   13.6729    7.7295   33.7471 N   0  0  0  0  0  0  0  0  0  0  0  0
   14.6991    7.0214   34.5495 C   0  0  2  0  0  0  0  0  0  0  0  0
   15.5310    8.0720   35.2737 C   0  0  0  0  0  0  0  0  0  0  0  0
   15.4172    8.4159   36.4969 O   0  0  0  0  0  0  0  0  0  0  0  0
   15.5246    6.1315   33.6176 C   0  0  0  0  0  0  0  0  0  0  0  0
   14.8035    4.8441   33.2410 C   0  0  0  0  0  0  0  0  0  0  0  0
   15.4362    3.6658   31.9888 S   0  0  2  0  0  0  0  0  0  0  0  0
   17.1684    3.6866   32.4465 C   0  0  0  0  0  0  0  0  0  0  0  0
   15.3609    4.7650   30.5388 C   0  0  0  0  0  0  0  0  0  0  0  0
   15.3273    3.9837   29.2541 C   0  0  1  0  0  0  0  0  0  0  0  0
   14.0081    3.4686   28.9519 O   0  0  0  0  0  0  0  0  0  0  0  0
   15.7844    4.7621   28.0416 C   0  0  1  0  0  0  0  0  0  0  0  0
   17.0864    4.4465   27.8015 O   0  0  0  0  0  0  0  0  0  0  0  0
   14.9570    4.0960   26.9672 C   0  0  1  0  0  0  0  0  0  0  0  0
   15.6390    2.9722   26.6246 O   0  0  0  0  0  0  0  0  0  0  0  0
   13.6182    3.6928   27.6238 C   0  0  2  0  0  0  0  0  0  0  0  0
   16.3523    8.6792   34.5842 O   0  0  0  0  0  0  0  0  0  0  0  0
   11.9559    7.9150   25.0579 N   0  0  0  0  0  0  0  0  0  0  0  0
   12.7062    6.7549   24.6683 C   0  0  0  0  0  0  0  0  0  0  0  0
   13.0914    5.6552   25.4746 N   0  0  0  0  0  0  0  0  0  0  0  0
   12.6704    5.7886   26.6699 C   0  0  0  0  0  0  0  0  0  0  0  0
   11.8866    6.9409   27.1684 C   0  0  0  0  0  0  0  0  0  0  0  0
   11.5557    7.9682   26.3753 C   0  0  0  0  0  0  0  0  0  0  0  0
   10.8742    8.9375   26.9504 N   0  0  0  0  0  0  0  0  0  0  0  0
   11.5784    6.8568   28.4405 N   0  0  0  0  0  0  0  0  0  0  0  0
   12.1671    5.6418   28.7391 C   0  0  0  0  0  0  0  0  0  0  0  0
   12.8440    4.9634   27.6454 N   0  0  0  0  0  0  0  0  0  0  0  0
  2  1  1  6  0  0  0
  2  3  1  0  0  0  0
  2  5  1  0  0  0  0
  3  4  1  0  0  0  0
  3 17  1  0  0  0  0
  5  6  1  0  0  0  0
  7  6  1  1  0  0  0
  7  8  1  0  0  0  0
  7  9  1  0  0  0  0
 10  9  1  1  0  0  0
 10 11  1  0  0  0  0
 10 12  1  0  0  0  0
 11 16  1  0  0  0  0
 12 13  1  6  0  0  0
 12 14  1  0  0  0  0
 14 15  1  1  0  0  0
 14 16  1  0  0  0  0
 16 27  1  1  0  0  0
 18 19  2  0  0  0  0
 18 23  1  0  0  0  0
 19 20  1  0  0  0  0
 20 21  2  0  0  0  0
 21 22  1  0  0  0  0
 21 27  1  0  0  0  0
 22 23  2  0  0  0  0
 22 25  1  0  0  0  0
 23 24  1  0  0  0  0
 25 26  2  0  0  0  0
 26 27  1  0  0  0  0
M  END
>  <CHROM.1>
101.05141767,-77.95860363,172.50340521,41.97746494,-158.76206191,79.82208556
154.88472559,14.27886457,5.71671698,29.79046198,1.06024218,-0.88256824,1.07224397

>  <Name>
ligand

>  <RI>
0

>  <Rbt.Current_Directory>
/home/itssahil/PROJECTS/Mol_Feturizer/Test_systems_manuscript/rnas/4aob

>  <Rbt.Executable>
rbdock ($Id: //depot/dev/client3/rdock/2013.1/src/exe/rbdock.cxx#4 $)

>  <Rbt.Library>
libRbt.so (2013.1, Build901 2013/11/27)

>  <Rbt.Parameter_File>
/export/apps/rDock/src/rDock_2013.1_src/data/scripts/dock_solv.prm

>  <Rbt.Receptor>
prm/pocket_docking_5.prm

>  <SCORE>
-7.42747

>  <SCORE.INTER>
-9.60927

>  <SCORE.INTER.CONST>
1

>  <SCORE.INTER.POLAR>
0

>  <SCORE.INTER.ROT>
7

>  <SCORE.INTER.SOLV>
12.2616

>  <SCORE.INTER.VDW>
-18.76

>  <SCORE.INTER.norm>
-0.355899

>  <SCORE.INTRA>
2.1818

>  <SCORE.INTRA.DIHEDRAL>
2.02607

>  <SCORE.INTRA.DIHEDRAL.0>
6.31833

>  <SCORE.INTRA.POLAR>
0

>  <SCORE.INTRA.POLAR.0>
0

>  <SCORE.INTRA.REPUL>
0

>  <SCORE.INTRA.REPUL.0>
0

>  <SCORE.INTRA.SOLV>
-0.284324

>  <SCORE.INTRA.SOLV.lig_0>
-48.4015

>  <SCORE.INTRA.VDW>
1.31093

>  <SCORE.INTRA.VDW.0>
-2.83256

>  <SCORE.INTRA.norm>
0.0808074

>  <SCORE.RESTR>
0

>  <SCORE.RESTR.CAVITY>
0

>  <SCORE.RESTR.norm>
0

>  <SCORE.SYSTEM>
0

>  <SCORE.SYSTEM.CONST>
0

>  <SCORE.SYSTEM.DIHEDRAL>
0

>  <SCORE.SYSTEM.SOLV>
0

>  <SCORE.SYSTEM.norm>
0

>  <SCORE.heavy>
27

>  <SCORE.norm>
-0.275092

>  <RMSD>
7.444

$$$$
ligand
 OpenBabel02271912153D
libRbt.so/2013.1/901 2013/11/27
 27 29  0  0  0  0  0  0  0  0999 V2000
   19.2361    7.3110   34.2621 N   0  0  0  0  0  0  0  0  0  0  0  0
   18.0086    7.2818   33.4311 C   0  0  2  0  0  0  0  0  0  0  0  0
   17.1169    6.1640   33.9562 C   0  0  0  0  0  0  0  0  0  0  0  0
   17.4546    4.9465   34.1327 O   0  0  0  0  0  0  0  0  0  0  0  0
   18.4104    7.0988   31.9660 C   0  0  0  0  0  0  0  0  0  0  0  0
   19.0453    5.7415   31.6944 C   0  0  0  0  0  0  0  0  0  0  0  0
   19.5486    5.1821   30.0240 S   0  0  2  0  0  0  0  0  0  0  0  0
   20.8156    6.4063   29.6976 C   0  0  0  0  0  0  0  0  0  0  0  0
   18.1059    5.7988   29.0996 C   0  0  0  0  0  0  0  0  0  0  0  0
   16.8929    4.9404   29.3311 C   0  0  1  0  0  0  0  0  0  0  0  0
   15.6638    5.7060   29.3361 O   0  0  0  0  0  0  0  0  0  0  0  0
   16.7158    3.8299   28.3209 C   0  0  1  0  0  0  0  0  0  0  0  0
   17.2095    2.6826   28.8615 O   0  0  0  0  0  0  0  0  0  0  0  0
   15.2098    3.7100   28.3149 C   0  0  1  0  0  0  0  0  0  0  0  0
   14.9013    2.9240   29.3791 O   0  0  0  0  0  0  0  0  0  0  0  0
   14.6503    5.1292   28.5574 C   0  0  2  0  0  0  0  0  0  0  0  0
   15.9430    6.4680   34.1750 O   0  0  0  0  0  0  0  0  0  0  0  0
   16.0933    9.2749   25.7457 N   0  0  0  0  0  0  0  0  0  0  0  0
   16.2077    8.9368   27.1361 C   0  0  0  0  0  0  0  0  0  0  0  0
   15.7749    7.7529   27.7834 N   0  0  0  0  0  0  0  0  0  0  0  0
   15.2426    6.9423   26.9567 C   0  0  0  0  0  0  0  0  0  0  0  0
   15.0829    7.1940   25.5069 C   0  0  0  0  0  0  0  0  0  0  0  0
   15.4934    8.3344   24.9369 C   0  0  0  0  0  0  0  0  0  0  0  0
   15.2728    8.4378   23.6425 N   0  0  0  0  0  0  0  0  0  0  0  0
   14.4937    6.2139   24.8645 N   0  0  0  0  0  0  0  0  0  0  0  0
   14.2888    5.3406   25.9168 C   0  0  0  0  0  0  0  0  0  0  0  0
   14.7559    5.7783   27.2225 N   0  0  0  0  0  0  0  0  0  0  0  0
  2  1  1  1  0  0  0
  2  3  1  0  0  0  0
  2  5  1  0  0  0  0
  3  4  1  0  0  0  0
  3 17  1  0  0  0  0
  5  6  1  0  0  0  0
  7  6  1  1  0  0  0
  7  8  1  0  0  0  0
  7  9  1  0  0  0  0
 10  9  1  6  0  0  0
 10 11  1  0  0  0  0
 10 12  1  0  0  0  0
 11 16  1  0  0  0  0
 12 13  1  1  0  0  0
 12 14  1  0  0  0  0
 14 15  1  1  0  0  0
 14 16  1  0  0  0  0
 16 27  1  6  0  0  0
 18 19  2  0  0  0  0
 18 23  1  0  0  0  0
 19 20  1  0  0  0  0
 20 21  2  0  0  0  0
 21 22  1  0  0  0  0
 21 27  1  0  0  0  0
 22 23  2  0  0  0  0
 22 25  1  0  0  0  0
 23 24  1  0  0  0  0
 25 26  2  0  0  0  0
 26 27  1  0  0  0  0
M  END
>  <CHROM.1>
-53.18128503,66.22270361,176.50777538,63.77021704,-74.90048432,145.61260299
-25.59607935,16.75352104,6.03027341,29.19152501,-0.82254462,-0.96199444,-0.77308721

>  <Name>
ligand

>  <RI>
0

>  <Rbt.Current_Directory>
/home/itssahil/PROJECTS/Mol_Feturizer/Test_systems_manuscript/rnas/4aob

>  <Rbt.Executable>
rbdock ($Id: //depot/dev/client3/rdock/2013.1/src/exe/rbdock.cxx#4 $)

>  <Rbt.Library>
libRbt.so (2013.1, Build901 2013/11/27)

>  <Rbt.Parameter_File>
/export/apps/rDock/src/rDock_2013.1_src/data/scripts/dock_solv.prm

>  <Rbt.Receptor>
prm/pocket_docking_8.prm

>  <SCORE>
-7.91201

>  <SCORE.INTER>
-8.89889

>  <SCORE.INTER.CONST>
1

>  <SCORE.INTER.POLAR>
0

>  <SCORE.INTER.ROT>
7

>  <SCORE.INTER.SOLV>
15.0415

>  <SCORE.INTER.VDW>
-19.2131

>  <SCORE.INTER.norm>
-0.329589

>  <SCORE.INTRA>
0.986881

>  <SCORE.INTRA.DIHEDRAL>
0.537287

>  <SCORE.INTRA.DIHEDRAL.0>
6.31833

>  <SCORE.INTRA.POLAR>
0

>  <SCORE.INTRA.POLAR.0>
0

>  <SCORE.INTRA.REPUL>
0

>  <SCORE.INTRA.REPUL.0>
0

>  <SCORE.INTRA.SOLV>
-0.00416204

>  <SCORE.INTRA.SOLV.lig_0>
-48.4015

>  <SCORE.INTRA.VDW>
0.720319

>  <SCORE.INTRA.VDW.0>
-2.83256

>  <SCORE.INTRA.norm>
0.0365512

>  <SCORE.RESTR>
0

>  <SCORE.RESTR.CAVITY>
0

>  <SCORE.RESTR.norm>
0

>  <SCORE.SYSTEM>
0

>  <SCORE.SYSTEM.CONST>
0

>  <SCORE.SYSTEM.DIHEDRAL>
0

>  <SCORE.SYSTEM.SOLV>
0

>  <SCORE.SYSTEM.norm>
0

>  <SCORE.heavy>
27

>  <SCORE.norm>
-0.293037

>  <RMSD>
7.452

$$$$
ligand
 OpenBabel02271912153D
libRbt.so/2013.1/901 2013/11/27
 27 29  0  0  0  0  0  0  0  0999 V2000
   15.1040    3.2042   26.4425 N   0  0  0  0  0  0  0  0  0  0  0  0
   15.9304    4.2876   27.0268 C   0  0  2  0  0  0  0  0  0  0  0  0
   16.2141    3.9257   28.4790 C   0  0  0  0  0  0  0  0  0  0  0  0
   15.3761    3.4586   29.3199 O   0  0  0  0  0  0  0  0  0  0  0  0
   15.1858    5.6149   26.8674 C   0  0  0  0  0  0  0  0  0  0  0  0
   13.7771    5.5730   27.4445 C   0  0  0  0  0  0  0  0  0  0  0  0
   12.6237    6.9953   27.3874 S   0  0  2  0  0  0  0  0  0  0  0  0
   11.3068    6.3181   28.3963 C   0  0  0  0  0  0  0  0  0  0  0  0
   12.0202    6.7701   25.6841 C   0  0  0  0  0  0  0  0  0  0  0  0
   12.6554    7.7519   24.7382 C   0  0  1  0  0  0  0  0  0  0  0  0
   12.5841    9.1148   25.2222 O   0  0  0  0  0  0  0  0  0  0  0  0
   14.1085    7.4687   24.4326 C   0  0  1  0  0  0  0  0  0  0  0  0
   14.1705    6.8057   23.2456 O   0  0  0  0  0  0  0  0  0  0  0  0
   14.6100    8.8727   24.1879 C   0  0  1  0  0  0  0  0  0  0  0  0
   14.2920    9.1548   22.8976 O   0  0  0  0  0  0  0  0  0  0  0  0
   13.8022    9.8018   25.1209 C   0  0  2  0  0  0  0  0  0  0  0  0
   17.3539    4.1644   28.8817 O   0  0  0  0  0  0  0  0  0  0  0  0
   18.2213    9.1671   27.8122 N   0  0  0  0  0  0  0  0  0  0  0  0
   17.9339    9.3769   26.4215 C   0  0  0  0  0  0  0  0  0  0  0  0
   16.6672    9.5461   25.8095 N   0  0  0  0  0  0  0  0  0  0  0  0
   15.7287    9.5047   26.6704 C   0  0  0  0  0  0  0  0  0  0  0  0
   15.9205    9.2993   28.1235 C   0  0  0  0  0  0  0  0  0  0  0  0
   17.1358    9.1287   28.6600 C   0  0  0  0  0  0  0  0  0  0  0  0
   17.1633    8.9358   29.9627 N   0  0  0  0  0  0  0  0  0  0  0  0
   14.8000    9.2830   28.8051 N   0  0  0  0  0  0  0  0  0  0  0  0
   13.9015    9.4856   27.7739 C   0  0  0  0  0  0  0  0  0  0  0  0
   14.4661    9.6319   26.4418 N   0  0  0  0  0  0  0  0  0  0  0  0
  2  1  1  1  0  0  0
  2  3  1  0  0  0  0
  2  5  1  0  0  0  0
  3  4  1  0  0  0  0
  3 17  1  0  0  0  0
  5  6  1  0  0  0  0
  7  6  1  6  0  0  0
  7  8  1  0  0  0  0
  7  9  1  0  0  0  0
 10  9  1  1  0  0  0
 10 11  1  0  0  0  0
 10 12  1  0  0  0  0
 11 16  1  0  0  0  0
 12 13  1  6  0  0  0
 12 14  1  0  0  0  0
 14 15  1  6  0  0  0
 14 16  1  0  0  0  0
 16 27  1  1  0  0  0
 18 19  2  0  0  0  0
 18 23  1  0  0  0  0
 19 20  1  0  0  0  0
 20 21  2  0  0  0  0
 21 22  1  0  0  0  0
 21 27  1  0  0  0  0
 22 23  2  0  0  0  0
 22 25  1  0  0  0  0
 23 24  1  0  0  0  0
 25 26  2  0  0  0  0
 26 27  1  0  0  0  0
M  END
>  <CHROM.1>
-43.57790024,54.20060105,-179.06108383,-173.22399355,-103.07644142,-49.87341991
144.92568908,14.77899015,7.42289079,26.75471847,1.17987508,0.66714372,2.71572020

>  <Name>
ligand

>  <RI>
0

>  <Rbt.Current_Directory>
/home/itssahil/PROJECTS/Mol_Feturizer/Test_systems_manuscript/rnas/4aob

>  <Rbt.Executable>
rbdock ($Id: //depot/dev/client3/rdock/2013.1/src/exe/rbdock.cxx#4 $)

>  <Rbt.Library>
libRbt.so (2013.1, Build901 2013/11/27)

>  <Rbt.Parameter_File>
/export/apps/rDock/src/rDock_2013.1_src/data/scripts/dock_solv.prm

>  <Rbt.Receptor>
prm/pocket_docking_7.prm

>  <SCORE>
-7.99775

>  <SCORE.INTER>
-8.20851

>  <SCORE.INTER.CONST>
1

>  <SCORE.INTER.POLAR>
0

>  <SCORE.INTER.ROT>
7

>  <SCORE.INTER.SOLV>
18.3547

>  <SCORE.INTER.VDW>
-19.8573

>  <SCORE.INTER.norm>
-0.304019

>  <SCORE.INTRA>
0.210759

>  <SCORE.INTRA.DIHEDRAL>
0.392024

>  <SCORE.INTRA.DIHEDRAL.0>
6.31833

>  <SCORE.INTRA.POLAR>
0

>  <SCORE.INTRA.POLAR.0>
0

>  <SCORE.INTRA.REPUL>
0

>  <SCORE.INTRA.REPUL.0>
0

>  <SCORE.INTRA.SOLV>
0.364767

>  <SCORE.INTRA.SOLV.lig_0>
-48.4015

>  <SCORE.INTRA.VDW>
-0.167637

>  <SCORE.INTRA.VDW.0>
-2.83256

>  <SCORE.INTRA.norm>
0.00780588

>  <SCORE.RESTR>
0

>  <SCORE.RESTR.CAVITY>
0

>  <SCORE.RESTR.norm>
0

>  <SCORE.SYSTEM>
0

>  <SCORE.SYSTEM.CONST>
0

>  <SCORE.SYSTEM.DIHEDRAL>
0

>  <SCORE.SYSTEM.SOLV>
0

>  <SCORE.SYSTEM.norm>
0

>  <SCORE.heavy>
27

>  <SCORE.norm>
-0.296213

>  <RMSD>
7.460

$$$$
ligand
 OpenBabel02271912153D
libRbt.so/2013.1/901 2013/11/27
 27 29  0  0  0  0  0  0  0  0999 V2000
   19.0947    6.6258   33.0060 N   0  0  0  0  0  0  0  0  0  0  0  0
   18.0044    5.9562   32.2567 C   0  0  2  0  0  0  0  0  0  0  0  0
   17.7792    4.5873   32.8858 C   0  0  0  0  0  0  0  0  0  0  0  0
   17.5485    3.4975   32.2640 O   0  0  0  0  0  0  0  0  0  0  0  0
   18.3937    5.8871   30.7784 C   0  0  0  0  0  0  0  0  0  0  0  0
   17.3020    5.2764   29.9098 C   0  0  0  0  0  0  0  0  0  0  0  0
   15.5288    5.7085   30.0705 S   0  0  2  0  0  0  0  0  0  0  0  0
   14.9100    4.8625   28.6172 C   0  0  0  0  0  0  0  0  0  0  0  0
   15.6380    7.4478   29.5420 C   0  0  0  0  0  0  0  0  0  0  0  0
   14.4347    8.2357   29.9818 C   0  0  1  0  0  0  0  0  0  0  0  0
   14.4548    9.5987   29.4932 O   0  0  0  0  0  0  0  0  0  0  0  0
   13.1122    7.6366   29.5609 C   0  0  1  0  0  0  0  0  0  0  0  0
   12.6116    6.9334   30.6132 O   0  0  0  0  0  0  0  0  0  0  0  0
   12.2807    8.8905   29.4242 C   0  0  1  0  0  0  0  0  0  0  0  0
   11.8579    9.1876   30.6806 O   0  0  0  0  0  0  0  0  0  0  0  0
   13.2334   10.0042   28.9364 C   0  0  2  0  0  0  0  0  0  0  0  0
   17.7666    4.5551   34.1176 O   0  0  0  0  0  0  0  0  0  0  0  0
   11.0515   10.1741   24.2051 N   0  0  0  0  0  0  0  0  0  0  0  0
   10.6241   10.6066   25.5054 C   0  0  0  0  0  0  0  0  0  0  0  0
   11.3278   10.5083   26.7314 N   0  0  0  0  0  0  0  0  0  0  0  0
   12.4710    9.9701   26.5661 C   0  0  0  0  0  0  0  0  0  0  0  0
   13.0050    9.4967   25.2695 C   0  0  0  0  0  0  0  0  0  0  0  0
   12.3000    9.5954   24.1350 C   0  0  0  0  0  0  0  0  0  0  0  0
   12.8845    9.1174   23.0557 N   0  0  0  0  0  0  0  0  0  0  0  0
   14.2018    8.9668   25.3552 N   0  0  0  0  0  0  0  0  0  0  0  0
   14.4213    9.1149   26.7124 C   0  0  0  0  0  0  0  0  0  0  0  0
   13.3556    9.7435   27.4764 N   0  0  0  0  0  0  0  0  0  0  0  0
  2  1  1  1  0  0  0
  2  3  1  0  0  0  0
  2  5  1  0  0  0  0
  3  4  1  0  0  0  0
  3 17  1  0  0  0  0
  5  6  1  0  0  0  0
  7  6  1  6  0  0  0
  7  8  1  0  0  0  0
  7  9  1  0  0  0  0
 10  9  1  6  0  0  0
 10 11  1  0  0  0  0
 10 12  1  0  0  0  0
 11 16  1  0  0  0  0
 12 13  1  1  0  0  0
 12 14  1  0  0  0  0
 14 15  1  1  0  0  0
 14 16  1  0  0  0  0
 16 27  1  6  0  0  0
 18 19  2  0  0  0  0
 18 23  1  0  0  0  0
 19 20  1  0  0  0  0
 20 21  2  0  0  0  0
 21 22  1  0  0  0  0
 21 27  1  0  0  0  0
 22 23  2  0  0  0  0
 22 25  1  0  0  0  0
 23 24  1  0  0  0  0
 25 26  2  0  0  0  0
 26 27  1  0  0  0  0
M  END
>  <CHROM.1>
-139.58663675,-177.08114379,44.04391243,171.14052880,-161.17787766,-175.96758464
-179.66631903,14.52589976,7.68750964,28.95393620,0.79181490,-0.66105310,1.64959396

>  <Name>
ligand

>  <RI>
0

>  <Rbt.Current_Directory>
/home/itssahil/PROJECTS/Mol_Feturizer/Test_systems_manuscript/rnas/4aob

>  <Rbt.Executable>
rbdock ($Id: //depot/dev/client3/rdock/2013.1/src/exe/rbdock.cxx#4 $)

>  <Rbt.Library>
libRbt.so (2013.1, Build901 2013/11/27)

>  <Rbt.Parameter_File>
/export/apps/rDock/src/rDock_2013.1_src/data/scripts/dock_solv.prm

>  <Rbt.Receptor>
prm/pocket_docking_6.prm

>  <SCORE>
-7.60683

>  <SCORE.INTER>
-7.18623

>  <SCORE.INTER.CONST>
1

>  <SCORE.INTER.POLAR>
0

>  <SCORE.INTER.ROT>
7

>  <SCORE.INTER.SOLV>
11.5337

>  <SCORE.INTER.VDW>
-16.9021

>  <SCORE.INTER.norm>
-0.266157

>  <SCORE.INTRA>
-0.435013

>  <SCORE.INTRA.DIHEDRAL>
-0.387679

>  <SCORE.INTRA.DIHEDRAL.0>
6.31833

>  <SCORE.INTRA.POLAR>
0

>  <SCORE.INTRA.POLAR.0>
0

>  <SCORE.INTRA.REPUL>
0

>  <SCORE.INTRA.REPUL.0>
0

>  <SCORE.INTRA.SOLV>
-0.410455

>  <SCORE.INTRA.SOLV.lig_0>
-48.4015

>  <SCORE.INTRA.VDW>
-0.0359459

>  <SCORE.INTRA.VDW.0>
-2.83256

>  <SCORE.INTRA.norm>
-0.0161116

>  <SCORE.RESTR>
0.0144159

>  <SCORE.RESTR.CAVITY>
0.0144159

>  <SCORE.RESTR.norm>
0.000533923

>  <SCORE.SYSTEM>
0

>  <SCORE.SYSTEM.CONST>
0

>  <SCORE.SYSTEM.DIHEDRAL>
0

>  <SCORE.SYSTEM.SOLV>
0

>  <SCORE.SYSTEM.norm>
0

>  <SCORE.heavy>
27

>  <SCORE.norm>
-0.281734

>  <RMSD>
7.501

$$$$
ligand
 OpenBabel02271912153D
libRbt.so/2013.1/901 2013/11/27
 27 29  0  0  0  0  0  0  0  0999 V2000
   15.8252    3.1835   32.2505 N   0  0  0  0  0  0  0  0  0  0  0  0
   14.6703    2.8808   31.3714 C   0  0  2  0  0  0  0  0  0  0  0  0
   14.5600    1.3663   31.2519 C   0  0  0  0  0  0  0  0  0  0  0  0
   15.5226    0.5499   31.0665 O   0  0  0  0  0  0  0  0  0  0  0  0
   14.8785    3.5812   30.0269 C   0  0  0  0  0  0  0  0  0  0  0  0
   13.7124    3.3762   29.0691 C   0  0  0  0  0  0  0  0  0  0  0  0
   13.6442    4.1152   27.3940 S   0  0  2  0  0  0  0  0  0  0  0  0
   15.2779    3.6491   26.8245 C   0  0  0  0  0  0  0  0  0  0  0  0
   13.8376    5.8612   27.8740 C   0  0  0  0  0  0  0  0  0  0  0  0
   13.7113    6.7776   26.6882 C   0  0  1  0  0  0  0  0  0  0  0  0
   13.7344    8.1763   27.0626 O   0  0  0  0  0  0  0  0  0  0  0  0
   14.7814    6.5854   25.6379 C   0  0  1  0  0  0  0  0  0  0  0  0
   14.2710    5.7976   24.6523 O   0  0  0  0  0  0  0  0  0  0  0  0
   14.8723    7.9892   25.0870 C   0  0  1  0  0  0  0  0  0  0  0  0
   13.8645    8.0927   24.1819 O   0  0  0  0  0  0  0  0  0  0  0  0
   14.5919    8.9478   26.2654 C   0  0  2  0  0  0  0  0  0  0  0  0
   13.4181    0.9043   31.2842 O   0  0  0  0  0  0  0  0  0  0  0  0
   19.5631   10.5113   26.3964 N   0  0  0  0  0  0  0  0  0  0  0  0
   18.4853   10.7243   25.4726 C   0  0  0  0  0  0  0  0  0  0  0  0
   17.1555   10.2425   25.5590 N   0  0  0  0  0  0  0  0  0  0  0  0
   16.9800    9.5579   26.6192 C   0  0  0  0  0  0  0  0  0  0  0  0
   18.0223    9.2858   27.6342 C   0  0  0  0  0  0  0  0  0  0  0  0
   19.2727    9.7487   27.5066 C   0  0  0  0  0  0  0  0  0  0  0  0
   20.1059    9.4168   28.4712 N   0  0  0  0  0  0  0  0  0  0  0  0
   17.6037    8.5459   28.6331 N   0  0  0  0  0  0  0  0  0  0  0  0
   16.2899    8.3586   28.2447 C   0  0  0  0  0  0  0  0  0  0  0  0
   15.8868    8.9882   26.9974 N   0  0  0  0  0  0  0  0  0  0  0  0
  2  1  1  1  0  0  0
  2  3  1  0  0  0  0
  2  5  1  0  0  0  0
  3  4  1  0  0  0  0
  3 17  1  0  0  0  0
  5  6  1  0  0  0  0
  7  6  1  1  0  0  0
  7  8  1  0  0  0  0
  7  9  1  0  0  0  0
 10  9  1  1  0  0  0
 10 11  1  0  0  0  0
 10 12  1  0  0  0  0
 11 16  1  0  0  0  0
 12 13  1  6  0  0  0
 12 14  1  0  0  0  0
 14 15  1  6  0  0  0
 14 16  1  0  0  0  0
 16 27  1  1  0  0  0
 18 19  2  0  0  0  0
 18 23  1  0  0  0  0
 19 20  1  0  0  0  0
 20 21  2  0  0  0  0
 21 22  1  0  0  0  0
 21 27  1  0  0  0  0
 22 23  2  0  0  0  0
 22 25  1  0  0  0  0
 23 24  1  0  0  0  0
 25 26  2  0  0  0  0
 26 27  1  0  0  0  0
M  END
>  <CHROM.1>
-43.90355417,-177.67292054,178.71202376,48.56408098,-175.40371799,174.49149266
178.01118723,15.55399480,6.34446038,27.74670730,-1.99324080,-0.63553993,-0.75616630

>  <Name>
ligand

>  <RI>
0

>  <Rbt.Current_Directory>
/home/itssahil/PROJECTS/Mol_Feturizer/Test_systems_manuscript/rnas/4aob

>  <Rbt.Executable>
rbdock ($Id: //depot/dev/client3/rdock/2013.1/src/exe/rbdock.cxx#4 $)

>  <Rbt.Library>
libRbt.so (2013.1, Build901 2013/11/27)

>  <Rbt.Parameter_File>
/export/apps/rDock/src/rDock_2013.1_src/data/scripts/dock_solv.prm

>  <Rbt.Receptor>
prm/pocket_docking_7.prm

>  <SCORE>
-17.9701

>  <SCORE.INTER>
-17.0322

>  <SCORE.INTER.CONST>
1

>  <SCORE.INTER.POLAR>
0

>  <SCORE.INTER.ROT>
7

>  <SCORE.INTER.SOLV>
12.0942

>  <SCORE.INTER.VDW>
-23.6529

>  <SCORE.INTER.norm>
-0.630822

>  <SCORE.INTRA>
-0.94384

>  <SCORE.INTRA.DIHEDRAL>
-2.56236

>  <SCORE.INTRA.DIHEDRAL.0>
6.31833

>  <SCORE.INTRA.POLAR>
0

>  <SCORE.INTRA.POLAR.0>
0

>  <SCORE.INTRA.REPUL>
0

>  <SCORE.INTRA.REPUL.0>
0

>  <SCORE.INTRA.SOLV>
-0.536967

>  <SCORE.INTRA.SOLV.lig_0>
-48.4015

>  <SCORE.INTRA.VDW>
0.605822

>  <SCORE.INTRA.VDW.0>
-2.83256

>  <SCORE.INTRA.norm>
-0.0349571

>  <SCORE.RESTR>
0.00594648

>  <SCORE.RESTR.CAVITY>
0.00594648

>  <SCORE.RESTR.norm>
0.00022024

>  <SCORE.SYSTEM>
0

>  <SCORE.SYSTEM.CONST>
0

>  <SCORE.SYSTEM.DIHEDRAL>
0

>  <SCORE.SYSTEM.SOLV>
0

>  <SCORE.SYSTEM.norm>
0

>  <SCORE.heavy>
27

>  <SCORE.norm>
-0.665559

>  <RMSD>
7.694

$$$$
ligand
 OpenBabel02271912153D
libRbt.so/2013.1/901 2013/11/27
 27 29  0  0  0  0  0  0  0  0999 V2000
   14.5610    8.3930   34.6452 N   0  0  0  0  0  0  0  0  0  0  0  0
   13.3593    7.6960   34.1272 C   0  0  2  0  0  0  0  0  0  0  0  0
   12.9943    6.5979   35.1179 C   0  0  0  0  0  0  0  0  0  0  0  0
   12.7725    5.3725   34.8413 O   0  0  0  0  0  0  0  0  0  0  0  0
   13.6632    7.1688   32.7232 C   0  0  0  0  0  0  0  0  0  0  0  0
   12.4644    6.4863   32.0779 C   0  0  0  0  0  0  0  0  0  0  0  0
   12.4702    5.8581   30.3569 S   0  0  2  0  0  0  0  0  0  0  0  0
   13.9365    4.8323   30.4467 C   0  0  0  0  0  0  0  0  0  0  0  0
   13.0542    7.3725   29.5312 C   0  0  0  0  0  0  0  0  0  0  0  0
   11.9122    8.1631   28.9543 C   0  0  1  0  0  0  0  0  0  0  0  0
   12.2385    9.5630   28.7795 O   0  0  0  0  0  0  0  0  0  0  0  0
   11.4178    7.6561   27.6188 C   0  0  1  0  0  0  0  0  0  0  0  0
   10.3216    6.8802   27.8395 O   0  0  0  0  0  0  0  0  0  0  0  0
   10.9349    8.9484   27.0030 C   0  0  1  0  0  0  0  0  0  0  0  0
    9.6864    9.1464   27.5006 O   0  0  0  0  0  0  0  0  0  0  0  0
   11.8678   10.0642   27.5235 C   0  0  2  0  0  0  0  0  0  0  0  0
   12.8487    6.9541   36.2885 O   0  0  0  0  0  0  0  0  0  0  0  0
   17.0122    9.2797   27.2164 N   0  0  0  0  0  0  0  0  0  0  0  0
   16.0773    9.2822   28.3057 C   0  0  0  0  0  0  0  0  0  0  0  0
   14.6788    9.5045   28.2531 N   0  0  0  0  0  0  0  0  0  0  0  0
   14.2876    9.7068   27.0574 C   0  0  0  0  0  0  0  0  0  0  0  0
   15.1688    9.7190   25.8683 C   0  0  0  0  0  0  0  0  0  0  0  0
   16.4897    9.5184   25.9640 C   0  0  0  0  0  0  0  0  0  0  0  0
   17.1596    9.5752   24.8314 N   0  0  0  0  0  0  0  0  0  0  0  0
   14.5348    9.9610   24.7459 N   0  0  0  0  0  0  0  0  0  0  0  0
   13.2480   10.0949   25.2339 C   0  0  0  0  0  0  0  0  0  0  0  0
   13.0790    9.9325   26.6691 N   0  0  0  0  0  0  0  0  0  0  0  0
  2  1  1  1  0  0  0
  2  3  1  0  0  0  0
  2  5  1  0  0  0  0
  3  4  1  0  0  0  0
  3 17  1  0  0  0  0
  5  6  1  0  0  0  0
  7  6  1  1  0  0  0
  7  8  1  0  0  0  0
  7  9  1  0  0  0  0
 10  9  1  6  0  0  0
 10 11  1  0  0  0  0
 10 12  1  0  0  0  0
 11 16  1  0  0  0  0
 12 13  1  1  0  0  0
 12 14  1  0  0  0  0
 14 15  1  1  0  0  0
 14 16  1  0  0  0  0
 16 27  1  6  0  0  0
 18 19  2  0  0  0  0
 18 23  1  0  0  0  0
 19 20  1  0  0  0  0
 20 21  2  0  0  0  0
 21 22  1  0  0  0  0
 21 27  1  0  0  0  0
 22 23  2  0  0  0  0
 22 25  1  0  0  0  0
 23 24  1  0  0  0  0
 25 26  2  0  0  0  0
 26 27  1  0  0  0  0
M  END
>  <CHROM.1>
-129.43352356,-177.48595960,175.46178573,53.42173728,-97.83837109,156.89957726
-14.57961612,13.30627997,8.11729789,29.38563674,-1.72110885,-0.21296136,-1.23787797

>  <Name>
ligand

>  <RI>
0

>  <Rbt.Current_Directory>
/home/itssahil/PROJECTS/Mol_Feturizer/Test_systems_manuscript/rnas/4aob

>  <Rbt.Executable>
rbdock ($Id: //depot/dev/client3/rdock/2013.1/src/exe/rbdock.cxx#4 $)

>  <Rbt.Library>
libRbt.so (2013.1, Build901 2013/11/27)

>  <Rbt.Parameter_File>
/export/apps/rDock/src/rDock_2013.1_src/data/scripts/dock_solv.prm

>  <Rbt.Receptor>
prm/pocket_docking_6.prm

>  <SCORE>
-11.6821

>  <SCORE.INTER>
-12.8491

>  <SCORE.INTER.CONST>
1

>  <SCORE.INTER.POLAR>
0

>  <SCORE.INTER.ROT>
7

>  <SCORE.INTER.SOLV>
18.3388

>  <SCORE.INTER.VDW>
-22.9456

>  <SCORE.INTER.norm>
-0.475891

>  <SCORE.INTRA>
1.16149

>  <SCORE.INTRA.DIHEDRAL>
0.434385

>  <SCORE.INTRA.DIHEDRAL.0>
6.31833

>  <SCORE.INTRA.POLAR>
0

>  <SCORE.INTRA.POLAR.0>
0

>  <SCORE.INTRA.REPUL>
0

>  <SCORE.INTRA.REPUL.0>
0

>  <SCORE.INTRA.SOLV>
-0.650707

>  <SCORE.INTRA.SOLV.lig_0>
-48.4015

>  <SCORE.INTRA.VDW>
1.26965

>  <SCORE.INTRA.VDW.0>
-2.83256

>  <SCORE.INTRA.norm>
0.0430183

>  <SCORE.RESTR>
0.00545742

>  <SCORE.RESTR.CAVITY>
0.00545742

>  <SCORE.RESTR.norm>
0.000202127

>  <SCORE.SYSTEM>
0

>  <SCORE.SYSTEM.CONST>
0

>  <SCORE.SYSTEM.DIHEDRAL>
0

>  <SCORE.SYSTEM.SOLV>
0

>  <SCORE.SYSTEM.norm>
0

>  <SCORE.heavy>
27

>  <SCORE.norm>
-0.432671

>  <RMSD>
7.699

$$$$
ligand
 OpenBabel02271912153D
libRbt.so/2013.1/901 2013/11/27
 27 29  0  0  0  0  0  0  0  0999 V2000
   15.7482    3.0138   32.2517 N   0  0  0  0  0  0  0  0  0  0  0  0
   14.5267    2.8948   31.4197 C   0  0  2  0  0  0  0  0  0  0  0  0
   14.1873    1.4147   31.2994 C   0  0  0  0  0  0  0  0  0  0  0  0
   15.0159    0.4599   31.1288 O   0  0  0  0  0  0  0  0  0  0  0  0
   14.7829    3.5694   30.0703 C   0  0  0  0  0  0  0  0  0  0  0  0
   13.5848    3.4875   29.1339 C   0  0  0  0  0  0  0  0  0  0  0  0
   13.5765    4.1994   27.4458 S   0  0  2  0  0  0  0  0  0  0  0  0
   15.1163    3.5036   26.8496 C   0  0  0  0  0  0  0  0  0  0  0  0
   14.0188    5.9104   27.8849 C   0  0  0  0  0  0  0  0  0  0  0  0
   13.9229    6.8283   26.6974 C   0  0  1  0  0  0  0  0  0  0  0  0
   14.0070    8.2257   27.0677 O   0  0  0  0  0  0  0  0  0  0  0  0
   14.9767    6.5888   25.6404 C   0  0  1  0  0  0  0  0  0  0  0  0
   14.4270    5.8205   24.6606 O   0  0  0  0  0  0  0  0  0  0  0  0
   15.1224    7.9861   25.0849 C   0  0  1  0  0  0  0  0  0  0  0  0
   14.1136    8.1294   24.1864 O   0  0  0  0  0  0  0  0  0  0  0  0
   14.8905    8.9586   26.2624 C   0  0  2  0  0  0  0  0  0  0  0  0
   12.9877    1.1333   31.3148 O   0  0  0  0  0  0  0  0  0  0  0  0
   19.8536   10.5376   26.4848 N   0  0  0  0  0  0  0  0  0  0  0  0
   18.7672   10.8194   25.5899 C   0  0  0  0  0  0  0  0  0  0  0  0
   17.4409   10.3236   25.6462 N   0  0  0  0  0  0  0  0  0  0  0  0
   17.2779    9.5526   26.6475 C   0  0  0  0  0  0  0  0  0  0  0  0
   18.3298    9.2042   27.6287 C   0  0  0  0  0  0  0  0  0  0  0  0
   19.5764    9.6840   27.5304 C   0  0  0  0  0  0  0  0  0  0  0  0
   20.4193    9.2789   28.4579 N   0  0  0  0  0  0  0  0  0  0  0  0
   17.9235    8.3817   28.5660 N   0  0  0  0  0  0  0  0  0  0  0  0
   16.6077    8.2187   28.1734 C   0  0  0  0  0  0  0  0  0  0  0  0
   16.1910    8.9466   26.9855 N   0  0  0  0  0  0  0  0  0  0  0  0
  2  1  1  1  0  0  0
  2  3  1  0  0  0  0
  2  5  1  0  0  0  0
  3  4  1  0  0  0  0
  3 17  1  0  0  0  0
  5  6  1  0  0  0  0
  7  6  1  1  0  0  0
  7  8  1  0  0  0  0
  7  9  1  0  0  0  0
 10  9  1  1  0  0  0
 10 11  1  0  0  0  0
 10 12  1  0  0  0  0
 11 16  1  0  0  0  0
 12 13  1  6  0  0  0
 12 14  1  0  0  0  0
 14 15  1  6  0  0  0
 14 16  1  0  0  0  0
 16 27  1  1  0  0  0
 18 19  2  0  0  0  0
 18 23  1  0  0  0  0
 19 20  1  0  0  0  0
 20 21  2  0  0  0  0
 21 22  1  0  0  0  0
 21 27  1  0  0  0  0
 22 23  2  0  0  0  0
 22 25  1  0  0  0  0
 23 24  1  0  0  0  0
 25 26  2  0  0  0  0
 26 27  1  0  0  0  0
M  END
>  <CHROM.1>
-40.66947377,179.41702685,-179.98109366,49.72072177,-172.55667555,168.46059159
-176.37525950,15.64363489,6.34468671,27.76990877,-2.07236235,-0.61839625
-0.80060442

>  <Name>
ligand

>  <RI>
0

>  <Rbt.Current_Directory>
/home/itssahil/PROJECTS/Mol_Feturizer/Test_systems_manuscript/rnas/4aob

>  <Rbt.Executable>
rbdock ($Id: //depot/dev/client3/rdock/2013.1/src/exe/rbdock.cxx#4 $)

>  <Rbt.Library>
libRbt.so (2013.1, Build901 2013/11/27)

>  <Rbt.Parameter_File>
/export/apps/rDock/src/rDock_2013.1_src/data/scripts/dock_solv.prm

>  <Rbt.Receptor>
prm/pocket_docking_8.prm

>  <SCORE>
-18.6113

>  <SCORE.INTER>
-17.6438

>  <SCORE.INTER.CONST>
1

>  <SCORE.INTER.POLAR>
0

>  <SCORE.INTER.ROT>
7

>  <SCORE.INTER.SOLV>
12.2599

>  <SCORE.INTER.VDW>
-24.1159

>  <SCORE.INTER.norm>
-0.653476

>  <SCORE.INTRA>
-0.967481

>  <SCORE.INTRA.DIHEDRAL>
-2.06766

>  <SCORE.INTRA.DIHEDRAL.0>
6.31833

>  <SCORE.INTRA.POLAR>
0

>  <SCORE.INTRA.POLAR.0>
0

>  <SCORE.INTRA.REPUL>
0

>  <SCORE.INTRA.REPUL.0>
0

>  <SCORE.INTRA.SOLV>
-0.560994

>  <SCORE.INTRA.SOLV.lig_0>
-48.4015

>  <SCORE.INTRA.VDW>
0.346844

>  <SCORE.INTRA.VDW.0>
-2.83256

>  <SCORE.INTRA.norm>
-0.0358326

>  <SCORE.RESTR>
0

>  <SCORE.RESTR.CAVITY>
0

>  <SCORE.RESTR.norm>
0

>  <SCORE.SYSTEM>
0

>  <SCORE.SYSTEM.CONST>
0

>  <SCORE.SYSTEM.DIHEDRAL>
0

>  <SCORE.SYSTEM.SOLV>
0

>  <SCORE.SYSTEM.norm>
0

>  <SCORE.heavy>
27

>  <SCORE.norm>
-0.689309

>  <RMSD>
7.731

$$$$
ligand
 OpenBabel02271912153D
libRbt.so/2013.1/901 2013/11/27
 27 29  0  0  0  0  0  0  0  0999 V2000
   15.9245    4.3762   31.7455 N   0  0  0  0  0  0  0  0  0  0  0  0
   16.8019    5.5537   31.9501 C   0  0  2  0  0  0  0  0  0  0  0  0
   17.5343    5.3650   33.2722 C   0  0  0  0  0  0  0  0  0  0  0  0
   18.0767    6.2817   33.9743 O   0  0  0  0  0  0  0  0  0  0  0  0
   15.9437    6.8200   31.9081 C   0  0  0  0  0  0  0  0  0  0  0  0
   15.2427    7.0123   30.5699 C   0  0  0  0  0  0  0  0  0  0  0  0
   14.1113    8.4099   30.2184 S   0  0  2  0  0  0  0  0  0  0  0  0
   12.8305    8.0298   31.4125 C   0  0  0  0  0  0  0  0  0  0  0  0
   13.4277    7.7992   28.6449 C   0  0  0  0  0  0  0  0  0  0  0  0
   12.3282    8.6908   28.1368 C   0  0  1  0  0  0  0  0  0  0  0  0
   12.8232    9.9644   27.6574 O   0  0  0  0  0  0  0  0  0  0  0  0
   11.5067    8.0890   27.0197 C   0  0  1  0  0  0  0  0  0  0  0  0
   10.3709    7.5701   27.5611 O   0  0  0  0  0  0  0  0  0  0  0  0
   11.1142    9.3408   26.2705 C   0  0  1  0  0  0  0  0  0  0  0  0
   10.0347    9.8375   26.9289 O   0  0  0  0  0  0  0  0  0  0  0  0
   12.2911   10.3311   26.4130 C   0  0  2  0  0  0  0  0  0  0  0  0
   17.6547    4.2019   33.6611 O   0  0  0  0  0  0  0  0  0  0  0  0
   17.2249    9.1009   25.2645 N   0  0  0  0  0  0  0  0  0  0  0  0
   16.5646    9.5083   26.4723 C   0  0  0  0  0  0  0  0  0  0  0  0
   15.1922    9.8096   26.6559 N   0  0  0  0  0  0  0  0  0  0  0  0
   14.5382    9.6648   25.5720 C   0  0  0  0  0  0  0  0  0  0  0  0
   15.1235    9.2449   24.2790 C   0  0  0  0  0  0  0  0  0  0  0  0
   16.4302    8.9834   24.1451 C   0  0  0  0  0  0  0  0  0  0  0  0
   16.8229    8.6391   22.9359 N   0  0  0  0  0  0  0  0  0  0  0  0
   14.2500    9.1788   23.3028 N   0  0  0  0  0  0  0  0  0  0  0  0
   13.1099    9.5534   23.9895 C   0  0  0  0  0  0  0  0  0  0  0  0
   13.2737    9.8521   25.4033 N   0  0  0  0  0  0  0  0  0  0  0  0
  2  1  1  1  0  0  0
  2  3  1  0  0  0  0
  2  5  1  0  0  0  0
  3  4  1  0  0  0  0
  3 17  1  0  0  0  0
  5  6  1  0  0  0  0
  7  6  1  1  0  0  0
  7  8  1  0  0  0  0
  7  9  1  0  0  0  0
 10  9  1  6  0  0  0
 10 11  1  0  0  0  0
 10 12  1  0  0  0  0
 11 16  1  0  0  0  0
 12 13  1  1  0  0  0
 12 14  1  0  0  0  0
 14 15  1  1  0  0  0
 14 16  1  0  0  0  0
 16 27  1  6  0  0  0
 18 19  2  0  0  0  0
 18 23  1  0  0  0  0
 19 20  1  0  0  0  0
 20 21  2  0  0  0  0
 21 22  1  0  0  0  0
 21 27  1  0  0  0  0
 22 23  2  0  0  0  0
 22 25  1  0  0  0  0
 23 24  1  0  0  0  0
 25 26  2  0  0  0  0
 26 27  1  0  0  0  0
M  END
>  <CHROM.1>
-159.24415501,-61.42191871,178.43024009,-63.65062250,174.47881750,71.11379619
-26.18152254,14.41460671,8.16769912,28.19213799,-1.21015814,0.21086305,-1.19782633

>  <Name>
ligand

>  <RI>
0

>  <Rbt.Current_Directory>
/home/itssahil/PROJECTS/Mol_Feturizer/Test_systems_manuscript/rnas/4aob

>  <Rbt.Executable>
rbdock ($Id: //depot/dev/client3/rdock/2013.1/src/exe/rbdock.cxx#4 $)

>  <Rbt.Library>
libRbt.so (2013.1, Build901 2013/11/27)

>  <Rbt.Parameter_File>
/export/apps/rDock/src/rDock_2013.1_src/data/scripts/dock_solv.prm

>  <Rbt.Receptor>
prm/pocket_docking_7.prm

>  <SCORE>
-9.33563

>  <SCORE.INTER>
-8.58888

>  <SCORE.INTER.CONST>
1

>  <SCORE.INTER.POLAR>
0

>  <SCORE.INTER.ROT>
7

>  <SCORE.INTER.SOLV>
14.645

>  <SCORE.INTER.VDW>
-18.8742

>  <SCORE.INTER.norm>
-0.318107

>  <SCORE.INTRA>
-0.746756

>  <SCORE.INTRA.DIHEDRAL>
-2.88856

>  <SCORE.INTRA.DIHEDRAL.0>
6.31833

>  <SCORE.INTRA.POLAR>
0

>  <SCORE.INTRA.POLAR.0>
0

>  <SCORE.INTRA.REPUL>
0

>  <SCORE.INTRA.REPUL.0>
0

>  <SCORE.INTRA.SOLV>
-0.0208958

>  <SCORE.INTRA.SOLV.lig_0>
-48.4015

>  <SCORE.INTRA.VDW>
0.707974

>  <SCORE.INTRA.VDW.0>
-2.83256

>  <SCORE.INTRA.norm>
-0.0276576

>  <SCORE.RESTR>
0

>  <SCORE.RESTR.CAVITY>
0

>  <SCORE.RESTR.norm>
0

>  <SCORE.SYSTEM>
0

>  <SCORE.SYSTEM.CONST>
0

>  <SCORE.SYSTEM.DIHEDRAL>
0

>  <SCORE.SYSTEM.SOLV>
0

>  <SCORE.SYSTEM.norm>
0

>  <SCORE.heavy>
27

>  <SCORE.norm>
-0.345764

>  <RMSD>
7.850

$$$$
ligand
 OpenBabel02271912153D
libRbt.so/2013.1/901 2013/11/27
 27 29  0  0  0  0  0  0  0  0999 V2000
   12.7374    2.0078   32.7297 N   0  0  0  0  0  0  0  0  0  0  0  0
   13.2179    1.9108   31.3304 C   0  0  2  0  0  0  0  0  0  0  0  0
   14.5765    1.2221   31.3510 C   0  0  0  0  0  0  0  0  0  0  0  0
   14.8557    0.0843   30.8460 O   0  0  0  0  0  0  0  0  0  0  0  0
   13.2599    3.3160   30.7261 C   0  0  0  0  0  0  0  0  0  0  0  0
   13.4741    3.3027   29.2184 C   0  0  0  0  0  0  0  0  0  0  0  0
   13.7492    4.8191   28.2277 S   0  0  2  0  0  0  0  0  0  0  0  0
   15.2366    5.4060   29.0363 C   0  0  0  0  0  0  0  0  0  0  0  0
   12.4313    5.8446   28.9540 C   0  0  0  0  0  0  0  0  0  0  0  0
   12.7672    7.3088   28.8820 C   0  0  1  0  0  0  0  0  0  0  0  0
   13.1423    7.7274   27.5475 O   0  0  0  0  0  0  0  0  0  0  0  0
   11.6527    8.2248   29.3337 C   0  0  1  0  0  0  0  0  0  0  0  0
   11.8946    8.5818   30.6246 O   0  0  0  0  0  0  0  0  0  0  0  0
   11.9346    9.4349   28.4742 C   0  0  1  0  0  0  0  0  0  0  0  0
   12.9025   10.1295   29.1270 O   0  0  0  0  0  0  0  0  0  0  0  0
   12.5056    8.9081   27.1391 C   0  0  2  0  0  0  0  0  0  0  0  0
   15.4689    1.8078   31.9665 O   0  0  0  0  0  0  0  0  0  0  0  0
    8.4285   10.1963   24.1570 N   0  0  0  0  0  0  0  0  0  0  0  0
    9.5312   10.9404   24.6965 C   0  0  0  0  0  0  0  0  0  0  0  0
   10.5962   10.4612   25.4991 N   0  0  0  0  0  0  0  0  0  0  0  0
   10.4897    9.2087   25.7085 C   0  0  0  0  0  0  0  0  0  0  0  0
    9.3969    8.3536   25.1937 C   0  0  0  0  0  0  0  0  0  0  0  0
    8.4001    8.8502   24.4496 C   0  0  0  0  0  0  0  0  0  0  0  0
    7.4818    7.9840   24.0734 N   0  0  0  0  0  0  0  0  0  0  0  0
    9.4987    7.0963   25.5533 N   0  0  0  0  0  0  0  0  0  0  0  0
   10.6654    7.1631   26.2924 C   0  0  0  0  0  0  0  0  0  0  0  0
   11.2959    8.4697   26.3915 N   0  0  0  0  0  0  0  0  0  0  0  0
  2  1  1  1  0  0  0
  2  3  1  0  0  0  0
  2  5  1  0  0  0  0
  3  4  1  0  0  0  0
  3 17  1  0  0  0  0
  5  6  1  0  0  0  0
  7  6  1  1  0  0  0
  7  8  1  0  0  0  0
  7  9  1  0  0  0  0
 10  9  1  6  0  0  0
 10 11  1  0  0  0  0
 10 12  1  0  0  0  0
 11 16  1  0  0  0  0
 12 13  1  1  0  0  0
 12 14  1  0  0  0  0
 14 15  1  1  0  0  0
 14 16  1  0  0  0  0
 16 27  1  6  0  0  0
 18 19  2  0  0  0  0
 18 23  1  0  0  0  0
 19 20  1  0  0  0  0
 20 21  2  0  0  0  0
 21 22  1  0  0  0  0
 21 27  1  0  0  0  0
 22 23  2  0  0  0  0
 22 25  1  0  0  0  0
 23 24  1  0  0  0  0
 25 26  2  0  0  0  0
 26 27  1  0  0  0  0
M  END
>  <CHROM.1>
114.78905147,-168.65279075,-173.25206812,59.74139801,152.03245794,51.63390143
-171.72529175,12.08580818,6.47194504,28.15964980,0.84397533,0.83883650,3.06326320

>  <Name>
ligand

>  <RI>
0

>  <Rbt.Current_Directory>
/home/itssahil/PROJECTS/Mol_Feturizer/Test_systems_manuscript/rnas/4aob

>  <Rbt.Executable>
rbdock ($Id: //depot/dev/client3/rdock/2013.1/src/exe/rbdock.cxx#4 $)

>  <Rbt.Library>
libRbt.so (2013.1, Build901 2013/11/27)

>  <Rbt.Parameter_File>
/export/apps/rDock/src/rDock_2013.1_src/data/scripts/dock_solv.prm

>  <Rbt.Receptor>
prm/pocket_docking_8.prm

>  <SCORE>
-11.3961

>  <SCORE.INTER>
-11.1221

>  <SCORE.INTER.CONST>
1

>  <SCORE.INTER.POLAR>
0

>  <SCORE.INTER.ROT>
7

>  <SCORE.INTER.SOLV>
14.1544

>  <SCORE.INTER.VDW>
-20.3996

>  <SCORE.INTER.norm>
-0.411931

>  <SCORE.INTRA>
-0.273977

>  <SCORE.INTRA.DIHEDRAL>
-1.28307

>  <SCORE.INTRA.DIHEDRAL.0>
6.31833

>  <SCORE.INTRA.POLAR>
0

>  <SCORE.INTRA.POLAR.0>
0

>  <SCORE.INTRA.REPUL>
0

>  <SCORE.INTRA.REPUL.0>
0

>  <SCORE.INTRA.SOLV>
-0.717316

>  <SCORE.INTRA.SOLV.lig_0>
-48.4015

>  <SCORE.INTRA.VDW>
0.726214

>  <SCORE.INTRA.VDW.0>
-2.83256

>  <SCORE.INTRA.norm>
-0.0101473

>  <SCORE.RESTR>
0

>  <SCORE.RESTR.CAVITY>
0

>  <SCORE.RESTR.norm>
0

>  <SCORE.SYSTEM>
0

>  <SCORE.SYSTEM.CONST>
0

>  <SCORE.SYSTEM.DIHEDRAL>
0

>  <SCORE.SYSTEM.SOLV>
0

>  <SCORE.SYSTEM.norm>
0

>  <SCORE.heavy>
27

>  <SCORE.norm>
-0.422078

>  <RMSD>
7.853

$$$$
ligand
 OpenBabel02271912153D
libRbt.so/2013.1/901 2013/11/27
 27 29  0  0  0  0  0  0  0  0999 V2000
   16.6511    2.6934   29.0706 N   0  0  0  0  0  0  0  0  0  0  0  0
   15.9630    3.0156   30.3438 C   0  0  2  0  0  0  0  0  0  0  0  0
   16.7208    2.3253   31.4706 C   0  0  0  0  0  0  0  0  0  0  0  0
   17.2612    2.8925   32.4775 O   0  0  0  0  0  0  0  0  0  0  0  0
   14.5012    2.5755   30.2381 C   0  0  0  0  0  0  0  0  0  0  0  0
   13.7448    3.3048   29.1358 C   0  0  0  0  0  0  0  0  0  0  0  0
   13.6662    5.1308   29.0077 S   0  0  2  0  0  0  0  0  0  0  0  0
   12.7706    5.4713   30.5218 C   0  0  0  0  0  0  0  0  0  0  0  0
   12.3872    5.2442   27.7164 C   0  0  0  0  0  0  0  0  0  0  0  0
   11.8038    6.6281   27.6363 C   0  0  1  0  0  0  0  0  0  0  0  0
   12.7498    7.6011   27.1310 O   0  0  0  0  0  0  0  0  0  0  0  0
   10.5648    6.7311   26.7765 C   0  0  1  0  0  0  0  0  0  0  0  0
    9.4772    6.6892   27.5937 O   0  0  0  0  0  0  0  0  0  0  0  0
   10.6985    8.1523   26.2817 C   0  0  1  0  0  0  0  0  0  0  0  0
   10.1949    8.9332   27.2727 O   0  0  0  0  0  0  0  0  0  0  0  0
   12.2109    8.4323   26.1387 C   0  0  2  0  0  0  0  0  0  0  0  0
   16.8654    1.1069   31.3563 O   0  0  0  0  0  0  0  0  0  0  0  0
   15.5643    7.9983   22.1712 N   0  0  0  0  0  0  0  0  0  0  0  0
   15.5756    8.7470   23.3958 C   0  0  0  0  0  0  0  0  0  0  0  0
   14.5882    8.7705   24.4119 N   0  0  0  0  0  0  0  0  0  0  0  0
   13.6151    7.9981   24.1285 C   0  0  0  0  0  0  0  0  0  0  0  0
   13.5116    7.1822   22.8981 C   0  0  0  0  0  0  0  0  0  0  0  0
   14.4621    7.2003   21.9546 C   0  0  0  0  0  0  0  0  0  0  0  0
   14.2358    6.4428   20.9011 N   0  0  0  0  0  0  0  0  0  0  0  0
   12.4089    6.4756   22.8264 N   0  0  0  0  0  0  0  0  0  0  0  0
   11.8211    6.8462   24.0219 C   0  0  0  0  0  0  0  0  0  0  0  0
   12.5637    7.7876   24.8447 N   0  0  0  0  0  0  0  0  0  0  0  0
  2  1  1  6  0  0  0
  2  3  1  0  0  0  0
  2  5  1  0  0  0  0
  3  4  1  0  0  0  0
  3 17  1  0  0  0  0
  5  6  1  0  0  0  0
  7  6  1  1  0  0  0
  7  8  1  0  0  0  0
  7  9  1  0  0  0  0
 10  9  1  6  0  0  0
 10 11  1  0  0  0  0
 10 12  1  0  0  0  0
 11 16  1  0  0  0  0
 12 13  1  1  0  0  0
 12 14  1  0  0  0  0
 14 15  1  1  0  0  0
 14 16  1  0  0  0  0
 16 27  1  6  0  0  0
 18 19  2  0  0  0  0
 18 23  1  0  0  0  0
 19 20  1  0  0  0  0
 20 21  2  0  0  0  0
 21 22  1  0  0  0  0
 21 27  1  0  0  0  0
 22 23  2  0  0  0  0
 22 25  1  0  0  0  0
 23 24  1  0  0  0  0
 25 26  2  0  0  0  0
 26 27  1  0  0  0  0
M  END
>  <CHROM.1>
121.13523402,-61.89472695,-53.97841859,-64.49336687,164.07724669,68.81498384
-91.08783885,13.56725195,5.92790538,26.96338290,-1.23249770,0.48223968,-1.12640755

>  <Name>
ligand

>  <RI>
0

>  <Rbt.Current_Directory>
/home/itssahil/PROJECTS/Mol_Feturizer/Test_systems_manuscript/rnas/4aob

>  <Rbt.Executable>
rbdock ($Id: //depot/dev/client3/rdock/2013.1/src/exe/rbdock.cxx#4 $)

>  <Rbt.Library>
libRbt.so (2013.1, Build901 2013/11/27)

>  <Rbt.Parameter_File>
/export/apps/rDock/src/rDock_2013.1_src/data/scripts/dock_solv.prm

>  <Rbt.Receptor>
prm/pocket_docking_7.prm

>  <SCORE>
-9.12141

>  <SCORE.INTER>
-8.96974

>  <SCORE.INTER.CONST>
1

>  <SCORE.INTER.POLAR>
0

>  <SCORE.INTER.ROT>
7

>  <SCORE.INTER.SOLV>
13.467

>  <SCORE.INTER.VDW>
-18.7355

>  <SCORE.INTER.norm>
-0.332213

>  <SCORE.INTRA>
-0.151669

>  <SCORE.INTRA.DIHEDRAL>
-2.5128

>  <SCORE.INTRA.DIHEDRAL.0>
6.31833

>  <SCORE.INTRA.POLAR>
0

>  <SCORE.INTRA.POLAR.0>
0

>  <SCORE.INTRA.REPUL>
0

>  <SCORE.INTRA.REPUL.0>
0

>  <SCORE.INTRA.SOLV>
0.546547

>  <SCORE.INTRA.SOLV.lig_0>
-48.4015

>  <SCORE.INTRA.VDW>
0.831459

>  <SCORE.INTRA.VDW.0>
-2.83256

>  <SCORE.INTRA.norm>
-0.00561738

>  <SCORE.RESTR>
0

>  <SCORE.RESTR.CAVITY>
0

>  <SCORE.RESTR.norm>
0

>  <SCORE.SYSTEM>
0

>  <SCORE.SYSTEM.CONST>
0

>  <SCORE.SYSTEM.DIHEDRAL>
0

>  <SCORE.SYSTEM.SOLV>
0

>  <SCORE.SYSTEM.norm>
0

>  <SCORE.heavy>
27

>  <SCORE.norm>
-0.33783

>  <RMSD>
7.929

$$$$
ligand
 OpenBabel02271912153D
libRbt.so/2013.1/901 2013/11/27
 27 29  0  0  0  0  0  0  0  0999 V2000
   15.9382    8.9656   36.1505 N   0  0  0  0  0  0  0  0  0  0  0  0
   14.7080    8.2718   35.6993 C   0  0  2  0  0  0  0  0  0  0  0  0
   14.0170    7.7004   36.9306 C   0  0  0  0  0  0  0  0  0  0  0  0
   14.3739    7.8668   38.1441 O   0  0  0  0  0  0  0  0  0  0  0  0
   15.0933    7.2059   34.6711 C   0  0  0  0  0  0  0  0  0  0  0  0
   15.4459    7.7978   33.3130 C   0  0  0  0  0  0  0  0  0  0  0  0
   16.0255    6.7908   31.8964 S   0  0  2  0  0  0  0  0  0  0  0  0
   17.7604    6.6830   32.3311 C   0  0  0  0  0  0  0  0  0  0  0  0
   15.9812    8.0898   30.6209 C   0  0  0  0  0  0  0  0  0  0  0  0
   14.5906    8.6298   30.4300 C   0  0  1  0  0  0  0  0  0  0  0  0
   14.5797    9.9053   29.7446 O   0  0  0  0  0  0  0  0  0  0  0  0
   13.6670    7.7104   29.6639 C   0  0  1  0  0  0  0  0  0  0  0  0
   12.9098    7.0250   30.5633 O   0  0  0  0  0  0  0  0  0  0  0  0
   12.7657    8.7261   29.0017 C   0  0  1  0  0  0  0  0  0  0  0  0
   11.8315    9.0485   29.9337 O   0  0  0  0  0  0  0  0  0  0  0  0
   13.6359    9.9685   28.7094 C   0  0  2  0  0  0  0  0  0  0  0  0
   13.0539    6.9625   36.7152 O   0  0  0  0  0  0  0  0  0  0  0  0
   13.6638    9.5589   23.5127 N   0  0  0  0  0  0  0  0  0  0  0  0
   12.7103   10.0672   24.4577 C   0  0  0  0  0  0  0  0  0  0  0  0
   12.8302   10.1302   25.8682 N   0  0  0  0  0  0  0  0  0  0  0  0
   13.9532    9.6707   26.2576 C   0  0  0  0  0  0  0  0  0  0  0  0
   15.0030    9.1305   25.3650 C   0  0  0  0  0  0  0  0  0  0  0  0
   14.8431    9.0757   24.0364 C   0  0  0  0  0  0  0  0  0  0  0  0
   15.8465    8.5536   23.3613 N   0  0  0  0  0  0  0  0  0  0  0  0
   16.0676    8.7051   26.0021 N   0  0  0  0  0  0  0  0  0  0  0  0
   15.6852    8.9863   27.3008 C   0  0  0  0  0  0  0  0  0  0  0  0
   14.3751    9.5932   27.4736 N   0  0  0  0  0  0  0  0  0  0  0  0
  2  1  1  1  0  0  0
  2  3  1  0  0  0  0
  2  5  1  0  0  0  0
  3  4  1  0  0  0  0
  3 17  1  0  0  0  0
  5  6  1  0  0  0  0
  7  6  1  1  0  0  0
  7  8  1  0  0  0  0
  7  9  1  0  0  0  0
 10  9  1  6  0  0  0
 10 11  1  0  0  0  0
 10 12  1  0  0  0  0
 11 16  1  0  0  0  0
 12 13  1  1  0  0  0
 12 14  1  0  0  0  0
 14 15  1  1  0  0  0
 14 16  1  0  0  0  0
 16 27  1  6  0  0  0
 18 19  2  0  0  0  0
 18 23  1  0  0  0  0
 19 20  1  0  0  0  0
 20 21  2  0  0  0  0
 21 22  1  0  0  0  0
 21 27  1  0  0  0  0
 22 23  2  0  0  0  0
 22 25  1  0  0  0  0
 23 24  1  0  0  0  0
 25 26  2  0  0  0  0
 26 27  1  0  0  0  0
M  END
>  <CHROM.1>
4.63487232,-74.93693978,176.96330919,-83.12723806,-61.18286206,162.48723662
-170.88789313,14.55670187,8.43414831,30.17630401,-1.52142752,0.33832433,-1.42362478

>  <Name>
ligand

>  <RI>
0

>  <Rbt.Current_Directory>
/home/itssahil/PROJECTS/Mol_Feturizer/Test_systems_manuscript/rnas/4aob

>  <Rbt.Executable>
rbdock ($Id: //depot/dev/client3/rdock/2013.1/src/exe/rbdock.cxx#4 $)

>  <Rbt.Library>
libRbt.so (2013.1, Build901 2013/11/27)

>  <Rbt.Parameter_File>
/export/apps/rDock/src/rDock_2013.1_src/data/scripts/dock_solv.prm

>  <Rbt.Receptor>
prm/pocket_docking_6.prm

>  <SCORE>
-10.3573

>  <SCORE.INTER>
-10.2961

>  <SCORE.INTER.CONST>
1

>  <SCORE.INTER.POLAR>
0

>  <SCORE.INTER.ROT>
7

>  <SCORE.INTER.SOLV>
17.4001

>  <SCORE.INTER.VDW>
-20.9307

>  <SCORE.INTER.norm>
-0.381336

>  <SCORE.INTRA>
-0.0612125

>  <SCORE.INTRA.DIHEDRAL>
-0.385143

>  <SCORE.INTRA.DIHEDRAL.0>
6.31833

>  <SCORE.INTRA.POLAR>
0

>  <SCORE.INTRA.POLAR.0>
0

>  <SCORE.INTRA.REPUL>
0

>  <SCORE.INTRA.REPUL.0>
0

>  <SCORE.INTRA.SOLV>
-0.0251791

>  <SCORE.INTRA.SOLV.lig_0>
-48.4015

>  <SCORE.INTRA.VDW>
0.143948

>  <SCORE.INTRA.VDW.0>
-2.83256

>  <SCORE.INTRA.norm>
-0.00226713

>  <SCORE.RESTR>
0

>  <SCORE.RESTR.CAVITY>
0

>  <SCORE.RESTR.norm>
0

>  <SCORE.SYSTEM>
0

>  <SCORE.SYSTEM.CONST>
0

>  <SCORE.SYSTEM.DIHEDRAL>
0

>  <SCORE.SYSTEM.SOLV>
0

>  <SCORE.SYSTEM.norm>
0

>  <SCORE.heavy>
27

>  <SCORE.norm>
-0.383603

>  <RMSD>
8.054

$$$$
ligand
 OpenBabel02271912153D
libRbt.so/2013.1/901 2013/11/27
 27 29  0  0  0  0  0  0  0  0999 V2000
   18.6222    4.7560   29.0668 N   0  0  0  0  0  0  0  0  0  0  0  0
   18.7177    6.2091   29.3458 C   0  0  2  0  0  0  0  0  0  0  0  0
   19.4863    6.3837   30.6493 C   0  0  0  0  0  0  0  0  0  0  0  0
   20.5849    7.0142   30.8012 O   0  0  0  0  0  0  0  0  0  0  0  0
   17.3049    6.7951   29.3921 C   0  0  0  0  0  0  0  0  0  0  0  0
   17.3004    8.3154   29.4808 C   0  0  0  0  0  0  0  0  0  0  0  0
   15.7674    9.3121   29.5944 S   0  0  2  0  0  0  0  0  0  0  0  0
   14.9872    8.4563   30.9616 C   0  0  0  0  0  0  0  0  0  0  0  0
   14.9171    8.6460   28.1282 C   0  0  0  0  0  0  0  0  0  0  0  0
   13.4662    9.0413   28.1035 C   0  0  1  0  0  0  0  0  0  0  0  0
   13.2294   10.2352   27.3191 O   0  0  0  0  0  0  0  0  0  0  0  0
   12.5403    7.9726   27.5691 C   0  0  1  0  0  0  0  0  0  0  0  0
   11.9918    7.3185   28.6291 O   0  0  0  0  0  0  0  0  0  0  0  0
   11.4562    8.8341   26.9649 C   0  0  1  0  0  0  0  0  0  0  0  0
   10.6365    9.1668   27.9959 O   0  0  0  0  0  0  0  0  0  0  0  0
   12.1463   10.1113   26.4371 C   0  0  2  0  0  0  0  0  0  0  0  0
   19.0179    5.8081   31.6330 O   0  0  0  0  0  0  0  0  0  0  0  0
   11.5408    7.5965   21.9113 N   0  0  0  0  0  0  0  0  0  0  0  0
   10.6553    7.8950   23.0009 C   0  0  0  0  0  0  0  0  0  0  0  0
   10.9471    8.6065   24.1910 N   0  0  0  0  0  0  0  0  0  0  0  0
   12.1585    9.0016   24.2080 C   0  0  0  0  0  0  0  0  0  0  0  0
   13.1466    8.7506   23.1350 C   0  0  0  0  0  0  0  0  0  0  0  0
   12.8329    8.0599   22.0312 C   0  0  0  0  0  0  0  0  0  0  0  0
   13.8110    7.8919   21.1652 N   0  0  0  0  0  0  0  0  0  0  0  0
   14.3341    9.2474   23.3866 N   0  0  0  0  0  0  0  0  0  0  0  0
   14.0869    9.8183   24.6215 C   0  0  0  0  0  0  0  0  0  0  0  0
   12.7359    9.6786   25.1412 N   0  0  0  0  0  0  0  0  0  0  0  0
  2  1  1  1  0  0  0
  2  3  1  0  0  0  0
  2  5  1  0  0  0  0
  3  4  1  0  0  0  0
  3 17  1  0  0  0  0
  5  6  1  0  0  0  0
  7  6  1  6  0  0  0
  7  8  1  0  0  0  0
  7  9  1  0  0  0  0
 10  9  1  6  0  0  0
 10 11  1  0  0  0  0
 10 12  1  0  0  0  0
 11 16  1  0  0  0  0
 12 13  1  1  0  0  0
 12 14  1  0  0  0  0
 14 15  1  1  0  0  0
 14 16  1  0  0  0  0
 16 27  1  6  0  0  0
 18 19  2  0  0  0  0
 18 23  1  0  0  0  0
 19 20  1  0  0  0  0
 20 21  2  0  0  0  0
 21 22  1  0  0  0  0
 21 27  1  0  0  0  0
 22 23  2  0  0  0  0
 22 25  1  0  0  0  0
 23 24  1  0  0  0  0
 25 26  2  0  0  0  0
 26 27  1  0  0  0  0
M  END
>  <CHROM.1>
119.78436673,-172.02747550,-178.42261784,51.47646911,167.01525481,94.67610309
153.37843346,14.49911911,8.22088049,27.10513122,-0.74855033,0.39838628,-1.70206091

>  <Name>
ligand

>  <RI>
0

>  <Rbt.Current_Directory>
/home/itssahil/PROJECTS/Mol_Feturizer/Test_systems_manuscript/rnas/4aob

>  <Rbt.Executable>
rbdock ($Id: //depot/dev/client3/rdock/2013.1/src/exe/rbdock.cxx#4 $)

>  <Rbt.Library>
libRbt.so (2013.1, Build901 2013/11/27)

>  <Rbt.Parameter_File>
/export/apps/rDock/src/rDock_2013.1_src/data/scripts/dock_solv.prm

>  <Rbt.Receptor>
prm/pocket_docking_7.prm

>  <SCORE>
-4.70134

>  <SCORE.INTER>
-5.68964

>  <SCORE.INTER.CONST>
1

>  <SCORE.INTER.POLAR>
0

>  <SCORE.INTER.ROT>
7

>  <SCORE.INTER.SOLV>
11.6575

>  <SCORE.INTER.VDW>
-15.9456

>  <SCORE.INTER.norm>
-0.210727

>  <SCORE.INTRA>
0.988296

>  <SCORE.INTRA.DIHEDRAL>
0.46418

>  <SCORE.INTRA.DIHEDRAL.0>
6.31833

>  <SCORE.INTRA.POLAR>
0

>  <SCORE.INTRA.POLAR.0>
0

>  <SCORE.INTRA.REPUL>
0

>  <SCORE.INTRA.REPUL.0>
0

>  <SCORE.INTRA.SOLV>
-0.711084

>  <SCORE.INTRA.SOLV.lig_0>
-48.4015

>  <SCORE.INTRA.VDW>
1.11175

>  <SCORE.INTRA.VDW.0>
-2.83256

>  <SCORE.INTRA.norm>
0.0366035

>  <SCORE.RESTR>
0

>  <SCORE.RESTR.CAVITY>
0

>  <SCORE.RESTR.norm>
0

>  <SCORE.SYSTEM>
0

>  <SCORE.SYSTEM.CONST>
0

>  <SCORE.SYSTEM.DIHEDRAL>
0

>  <SCORE.SYSTEM.SOLV>
0

>  <SCORE.SYSTEM.norm>
0

>  <SCORE.heavy>
27

>  <SCORE.norm>
-0.174124

>  <RMSD>
8.100

$$$$
ligand
 OpenBabel02271912153D
libRbt.so/2013.1/901 2013/11/27
 27 29  0  0  0  0  0  0  0  0999 V2000
   15.1351    3.7200   30.7288 N   0  0  0  0  0  0  0  0  0  0  0  0
   15.5239    2.5733   29.8730 C   0  0  2  0  0  0  0  0  0  0  0  0
   16.0280    1.4616   30.7843 C   0  0  0  0  0  0  0  0  0  0  0  0
   17.0892    1.4862   31.4920 O   0  0  0  0  0  0  0  0  0  0  0  0
   16.5687    3.0472   28.8603 C   0  0  0  0  0  0  0  0  0  0  0  0
   15.9667    3.8896   27.7435 C   0  0  0  0  0  0  0  0  0  0  0  0
   14.9553    5.3870   28.0460 S   0  0  2  0  0  0  0  0  0  0  0  0
   13.3315    4.6757   27.7850 C   0  0  0  0  0  0  0  0  0  0  0  0
   15.3021    6.2532   26.4821 C   0  0  0  0  0  0  0  0  0  0  0  0
   14.8625    7.6904   26.5370 C   0  0  1  0  0  0  0  0  0  0  0  0
   15.7377    8.5676   25.7877 O   0  0  0  0  0  0  0  0  0  0  0  0
   13.4590    7.9305   26.0296 C   0  0  1  0  0  0  0  0  0  0  0  0
   12.6247    7.9899   27.1033 O   0  0  0  0  0  0  0  0  0  0  0  0
   13.6031    9.3366   25.4963 C   0  0  1  0  0  0  0  0  0  0  0  0
   13.4587   10.1526   26.5728 O   0  0  0  0  0  0  0  0  0  0  0  0
   15.0458    9.4621   24.9586 C   0  0  2  0  0  0  0  0  0  0  0  0
   15.3654    0.4227   30.7851 O   0  0  0  0  0  0  0  0  0  0  0  0
   17.5625    7.7884   20.7113 N   0  0  0  0  0  0  0  0  0  0  0  0
   17.9944    8.3824   21.9448 C   0  0  0  0  0  0  0  0  0  0  0  0
   17.1958    8.7908   23.0417 N   0  0  0  0  0  0  0  0  0  0  0  0
   15.9618    8.5557   22.8278 C   0  0  0  0  0  0  0  0  0  0  0  0
   15.4172    7.9436   21.5953 C   0  0  0  0  0  0  0  0  0  0  0  0
   16.2067    7.5850   20.5745 C   0  0  0  0  0  0  0  0  0  0  0  0
   15.5913    7.0703   19.5298 N   0  0  0  0  0  0  0  0  0  0  0  0
   14.1120    7.8137   21.6046 N   0  0  0  0  0  0  0  0  0  0  0  0
   13.8380    8.3418   22.8528 C   0  0  0  0  0  0  0  0  0  0  0  0
   14.9801    8.8009   23.6271 N   0  0  0  0  0  0  0  0  0  0  0  0
  2  1  1  1  0  0  0
  2  3  1  0  0  0  0
  2  5  1  0  0  0  0
  3  4  1  0  0  0  0
  3 17  1  0  0  0  0
  5  6  1  0  0  0  0
  7  6  1  6  0  0  0
  7  8  1  0  0  0  0
  7  9  1  0  0  0  0
 10  9  1  6  0  0  0
 10 11  1  0  0  0  0
 10 12  1  0  0  0  0
 11 16  1  0  0  0  0
 12 13  1  1  0  0  0
 12 14  1  0  0  0  0
 14 15  1  1  0  0  0
 14 16  1  0  0  0  0
 16 27  1  6  0  0  0
 18 19  2  0  0  0  0
 18 23  1  0  0  0  0
 19 20  1  0  0  0  0
 20 21  2  0  0  0  0
 21 22  1  0  0  0  0
 21 27  1  0  0  0  0
 22 23  2  0  0  0  0
 22 25  1  0  0  0  0
 23 24  1  0  0  0  0
 25 26  2  0  0  0  0
 26 27  1  0  0  0  0
M  END
>  <CHROM.1>
-67.09259781,-74.55763086,54.68492265,-101.31505682,-166.80395383,145.36522648
-67.58289526,15.25255400,6.38182221,25.92157852,1.55848371,-0.91362878,2.20384312

>  <Name>
ligand

>  <RI>
0

>  <Rbt.Current_Directory>
/home/itssahil/PROJECTS/Mol_Feturizer/Test_systems_manuscript/rnas/4aob

>  <Rbt.Executable>
rbdock ($Id: //depot/dev/client3/rdock/2013.1/src/exe/rbdock.cxx#4 $)

>  <Rbt.Library>
libRbt.so (2013.1, Build901 2013/11/27)

>  <Rbt.Parameter_File>
/export/apps/rDock/src/rDock_2013.1_src/data/scripts/dock_solv.prm

>  <Rbt.Receptor>
prm/pocket_docking_8.prm

>  <SCORE>
-11.2734

>  <SCORE.INTER>
-14.5094

>  <SCORE.INTER.CONST>
1

>  <SCORE.INTER.POLAR>
0

>  <SCORE.INTER.ROT>
7

>  <SCORE.INTER.SOLV>
13.2459

>  <SCORE.INTER.VDW>
-22.3549

>  <SCORE.INTER.norm>
-0.537384

>  <SCORE.INTRA>
3.23599

>  <SCORE.INTRA.DIHEDRAL>
5.0547

>  <SCORE.INTRA.DIHEDRAL.0>
6.31833

>  <SCORE.INTRA.POLAR>
0

>  <SCORE.INTRA.POLAR.0>
0

>  <SCORE.INTRA.REPUL>
0

>  <SCORE.INTRA.REPUL.0>
0

>  <SCORE.INTRA.SOLV>
1.95127

>  <SCORE.INTRA.SOLV.lig_0>
-48.4015

>  <SCORE.INTRA.VDW>
-0.26699

>  <SCORE.INTRA.VDW.0>
-2.83256

>  <SCORE.INTRA.norm>
0.119852

>  <SCORE.RESTR>
0

>  <SCORE.RESTR.CAVITY>
0

>  <SCORE.RESTR.norm>
0

>  <SCORE.SYSTEM>
0

>  <SCORE.SYSTEM.CONST>
0

>  <SCORE.SYSTEM.DIHEDRAL>
0

>  <SCORE.SYSTEM.SOLV>
0

>  <SCORE.SYSTEM.norm>
0

>  <SCORE.heavy>
27

>  <SCORE.norm>
-0.417532

>  <RMSD>
8.735

$$$$
ligand
 OpenBabel02271912153D
libRbt.so/2013.1/901 2013/11/27
 27 29  0  0  0  0  0  0  0  0999 V2000
   13.6280    4.1941   31.8137 N   0  0  0  0  0  0  0  0  0  0  0  0
   13.1503    3.0745   30.9672 C   0  0  2  0  0  0  0  0  0  0  0  0
   13.4022    1.7772   31.7247 C   0  0  0  0  0  0  0  0  0  0  0  0
   13.8745    0.6965   31.2384 O   0  0  0  0  0  0  0  0  0  0  0  0
   13.8683    3.1372   29.6173 C   0  0  0  0  0  0  0  0  0  0  0  0
   13.6968    4.4804   28.9207 C   0  0  0  0  0  0  0  0  0  0  0  0
   14.5507    4.9213   27.3609 S   0  0  2  0  0  0  0  0  0  0  0  0
   16.2299    4.5330   27.8510 C   0  0  0  0  0  0  0  0  0  0  0  0
   14.4635    6.7332   27.5219 C   0  0  0  0  0  0  0  0  0  0  0  0
   15.3853    7.4194   26.5518 C   0  0  1  0  0  0  0  0  0  0  0  0
   14.9106    7.3427   25.1859 O   0  0  0  0  0  0  0  0  0  0  0  0
   15.6271    8.8810   26.8524 C   0  0  1  0  0  0  0  0  0  0  0  0
   16.8075    8.9863   27.5216 O   0  0  0  0  0  0  0  0  0  0  0  0
   15.8560    9.4082   25.4552 C   0  0  1  0  0  0  0  0  0  0  0  0
   17.1599    9.1490   25.1757 O   0  0  0  0  0  0  0  0  0  0  0  0
   14.9626    8.5717   24.5128 C   0  0  2  0  0  0  0  0  0  0  0  0
   13.0601    1.7686   32.9085 O   0  0  0  0  0  0  0  0  0  0  0  0
   10.4020    9.9125   22.3731 N   0  0  0  0  0  0  0  0  0  0  0  0
   11.5610    9.2257   21.8775 C   0  0  0  0  0  0  0  0  0  0  0  0
   12.7528    8.9114   22.5765 N   0  0  0  0  0  0  0  0  0  0  0  0
   12.6993    9.3123   23.7849 C   0  0  0  0  0  0  0  0  0  0  0  0
   11.5514   10.0226   24.3918 C   0  0  0  0  0  0  0  0  0  0  0  0
   10.4479   10.3135   23.6906 C   0  0  0  0  0  0  0  0  0  0  0  0
    9.5100   10.9660   24.3460 N   0  0  0  0  0  0  0  0  0  0  0  0
   11.7370   10.3443   25.6497 N   0  0  0  0  0  0  0  0  0  0  0  0
   13.0061    9.8269   25.8337 C   0  0  0  0  0  0  0  0  0  0  0  0
   13.6137    9.1763   24.6838 N   0  0  0  0  0  0  0  0  0  0  0  0
  2  1  1  1  0  0  0
  2  3  1  0  0  0  0
  2  5  1  0  0  0  0
  3  4  1  0  0  0  0
  3 17  1  0  0  0  0
  5  6  1  0  0  0  0
  7  6  1  1  0  0  0
  7  8  1  0  0  0  0
  7  9  1  0  0  0  0
 10  9  1  1  0  0  0
 10 11  1  0  0  0  0
 10 12  1  0  0  0  0
 11 16  1  0  0  0  0
 12 13  1  1  0  0  0
 12 14  1  0  0  0  0
 14 15  1  6  0  0  0
 14 16  1  0  0  0  0
 16 27  1  1  0  0  0
 18 19  2  0  0  0  0
 18 23  1  0  0  0  0
 19 20  1  0  0  0  0
 20 21  2  0  0  0  0
 21 22  1  0  0  0  0
 21 27  1  0  0  0  0
 22 23  2  0  0  0  0
 22 25  1  0  0  0  0
 23 24  1  0  0  0  0
 25 26  2  0  0  0  0
 26 27  1  0  0  0  0
M  END
>  <CHROM.1>
-136.56546513,-55.62804317,174.54751513,-52.29057554,165.82496592,72.28802342
-108.14522634,13.74447940,6.95830495,26.80242023,1.42673452,0.08151276,2.37822073

>  <Name>
ligand

>  <RI>
0

>  <Rbt.Current_Directory>
/home/itssahil/PROJECTS/Mol_Feturizer/Test_systems_manuscript/rnas/4aob

>  <Rbt.Executable>
rbdock ($Id: //depot/dev/client3/rdock/2013.1/src/exe/rbdock.cxx#4 $)

>  <Rbt.Library>
libRbt.so (2013.1, Build901 2013/11/27)

>  <Rbt.Parameter_File>
/export/apps/rDock/src/rDock_2013.1_src/data/scripts/dock_solv.prm

>  <Rbt.Receptor>
prm/pocket_docking_8.prm

>  <SCORE>
-12.2509

>  <SCORE.INTER>
-12.7603

>  <SCORE.INTER.CONST>
1

>  <SCORE.INTER.POLAR>
0

>  <SCORE.INTER.ROT>
7

>  <SCORE.INTER.SOLV>
13.1703

>  <SCORE.INTER.VDW>
-21.1636

>  <SCORE.INTER.norm>
-0.472604

>  <SCORE.INTRA>
0.509386

>  <SCORE.INTRA.DIHEDRAL>
-1.78836

>  <SCORE.INTRA.DIHEDRAL.0>
6.31833

>  <SCORE.INTRA.POLAR>
0

>  <SCORE.INTRA.POLAR.0>
0

>  <SCORE.INTRA.REPUL>
0

>  <SCORE.INTRA.REPUL.0>
0

>  <SCORE.INTRA.SOLV>
-0.0134993

>  <SCORE.INTRA.SOLV.lig_0>
-48.4015

>  <SCORE.INTRA.VDW>
1.41032

>  <SCORE.INTRA.VDW.0>
-2.83256

>  <SCORE.INTRA.norm>
0.0188662

>  <SCORE.RESTR>
0

>  <SCORE.RESTR.CAVITY>
0

>  <SCORE.RESTR.norm>
0

>  <SCORE.SYSTEM>
0

>  <SCORE.SYSTEM.CONST>
0

>  <SCORE.SYSTEM.DIHEDRAL>
0

>  <SCORE.SYSTEM.SOLV>
0

>  <SCORE.SYSTEM.norm>
0

>  <SCORE.heavy>
27

>  <SCORE.norm>
-0.453738

>  <RMSD>
8.737

$$$$
ligand
 OpenBabel02271912153D
libRbt.so/2013.1/901 2013/11/27
 27 29  0  0  0  0  0  0  0  0999 V2000
    6.4017    6.3215   23.4541 N   0  0  0  0  0  0  0  0  0  0  0  0
    6.9877    6.1227   22.1067 C   0  0  2  0  0  0  0  0  0  0  0  0
    7.3070    4.6414   21.9514 C   0  0  0  0  0  0  0  0  0  0  0  0
    7.5961    3.8272   22.8901 O   0  0  0  0  0  0  0  0  0  0  0  0
    8.2155    7.0252   21.9661 C   0  0  0  0  0  0  0  0  0  0  0  0
    9.3026    6.7034   22.9828 C   0  0  0  0  0  0  0  0  0  0  0  0
   10.8808    7.6272   23.0948 S   0  0  2  0  0  0  0  0  0  0  0  0
   10.2163    9.2686   23.3684 C   0  0  0  0  0  0  0  0  0  0  0  0
   11.3074    7.6252   21.3244 C   0  0  0  0  0  0  0  0  0  0  0  0
   12.7739    7.8795   21.1089 C   0  0  1  0  0  0  0  0  0  0  0  0
   13.2411    9.0595   21.8063 O   0  0  0  0  0  0  0  0  0  0  0  0
   13.6706    6.7368   21.5276 C   0  0  1  0  0  0  0  0  0  0  0  0
   13.9814    6.0135   20.4174 O   0  0  0  0  0  0  0  0  0  0  0  0
   14.9115    7.5011   21.9258 C   0  0  1  0  0  0  0  0  0  0  0  0
   15.5842    7.7343   20.7688 O   0  0  0  0  0  0  0  0  0  0  0  0
   14.4343    8.8484   22.5118 C   0  0  2  0  0  0  0  0  0  0  0  0
    7.3394    4.2147   20.7958 O   0  0  0  0  0  0  0  0  0  0  0  0
   12.1591   10.3222   26.9644 N   0  0  0  0  0  0  0  0  0  0  0  0
   12.3450   10.9608   25.6923 C   0  0  0  0  0  0  0  0  0  0  0  0
   12.9845   10.4389   24.5406 N   0  0  0  0  0  0  0  0  0  0  0  0
   13.4045    9.2529   24.7426 C   0  0  0  0  0  0  0  0  0  0  0  0
   13.2579    8.5071   26.0126 C   0  0  0  0  0  0  0  0  0  0  0  0
   12.6587    9.0436   27.0835 C   0  0  0  0  0  0  0  0  0  0  0  0
   12.6132    8.2794   28.1554 N   0  0  0  0  0  0  0  0  0  0  0  0
   13.7825    7.3053   25.9806 N   0  0  0  0  0  0  0  0  0  0  0  0
   14.2549    7.2959   24.6811 C   0  0  0  0  0  0  0  0  0  0  0  0
   14.0206    8.4984   23.8977 N   0  0  0  0  0  0  0  0  0  0  0  0
  2  1  1  1  0  0  0
  2  3  1  0  0  0  0
  2  5  1  0  0  0  0
  3  4  1  0  0  0  0
  3 17  1  0  0  0  0
  5  6  1  0  0  0  0
  7  6  1  6  0  0  0
  7  8  1  0  0  0  0
  7  9  1  0  0  0  0
 10  9  1  1  0  0  0
 10 11  1  0  0  0  0
 10 12  1  0  0  0  0
 11 16  1  0  0  0  0
 12 13  1  6  0  0  0
 12 14  1  0  0  0  0
 14 15  1  6  0  0  0
 14 16  1  0  0  0  0
 16 27  1  1  0  0  0
 18 19  2  0  0  0  0
 18 23  1  0  0  0  0
 19 20  1  0  0  0  0
 20 21  2  0  0  0  0
 21 22  1  0  0  0  0
 21 27  1  0  0  0  0
 22 23  2  0  0  0  0
 22 25  1  0  0  0  0
 23 24  1  0  0  0  0
 25 26  2  0  0  0  0
 26 27  1  0  0  0  0
M  END
>  <CHROM.1>
-28.30826596,61.20500337,-178.74980941,57.83930922,-159.86940743,-51.52536913
-64.76688729,11.61811197,7.61694389,23.30105194,2.61052215,-0.31933094,-2.02434488

>  <Name>
ligand

>  <RI>
0

>  <Rbt.Current_Directory>
/home/itssahil/PROJECTS/Mol_Feturizer/Test_systems_manuscript/rnas/4aob

>  <Rbt.Executable>
rbdock ($Id: //depot/dev/client3/rdock/2013.1/src/exe/rbdock.cxx#4 $)

>  <Rbt.Library>
libRbt.so (2013.1, Build901 2013/11/27)

>  <Rbt.Parameter_File>
/export/apps/rDock/src/rDock_2013.1_src/data/scripts/dock_solv.prm

>  <Rbt.Receptor>
prm/blind_docking_40.prm

>  <SCORE>
-9.64539

>  <SCORE.INTER>
-8.35826

>  <SCORE.INTER.CONST>
1

>  <SCORE.INTER.POLAR>
0

>  <SCORE.INTER.ROT>
7

>  <SCORE.INTER.SOLV>
8.94793

>  <SCORE.INTER.VDW>
-16.8215

>  <SCORE.INTER.norm>
-0.309565

>  <SCORE.INTRA>
-1.28713

>  <SCORE.INTRA.DIHEDRAL>
-0.898319

>  <SCORE.INTRA.DIHEDRAL.0>
6.31833

>  <SCORE.INTRA.POLAR>
0

>  <SCORE.INTRA.POLAR.0>
0

>  <SCORE.INTRA.REPUL>
0

>  <SCORE.INTRA.REPUL.0>
0

>  <SCORE.INTRA.SOLV>
0.144614

>  <SCORE.INTRA.SOLV.lig_0>
-48.4015

>  <SCORE.INTRA.VDW>
-0.910275

>  <SCORE.INTRA.VDW.0>
-2.83256

>  <SCORE.INTRA.norm>
-0.0476714

>  <SCORE.RESTR>
0

>  <SCORE.RESTR.CAVITY>
0

>  <SCORE.RESTR.norm>
0

>  <SCORE.SYSTEM>
0

>  <SCORE.SYSTEM.CONST>
0

>  <SCORE.SYSTEM.DIHEDRAL>
0

>  <SCORE.SYSTEM.SOLV>
0

>  <SCORE.SYSTEM.norm>
0

>  <SCORE.heavy>
27

>  <SCORE.norm>
-0.357237

>  <RMSD>
10.056

$$$$
ligand
 OpenBabel02271912153D
libRbt.so/2013.1/901 2013/11/27
 27 29  0  0  0  0  0  0  0  0999 V2000
   10.3124    8.3195   25.5548 N   0  0  0  0  0  0  0  0  0  0  0  0
   11.3320    9.3771   25.3543 C   0  0  2  0  0  0  0  0  0  0  0  0
   11.2389   10.3426   26.5288 C   0  0  0  0  0  0  0  0  0  0  0  0
   10.2698   11.1321   26.7842 O   0  0  0  0  0  0  0  0  0  0  0  0
   11.0879   10.0454   23.9996 C   0  0  0  0  0  0  0  0  0  0  0  0
   11.3118    9.0994   22.8273 C   0  0  0  0  0  0  0  0  0  0  0  0
   10.9124    9.5343   21.0929 S   0  0  2  0  0  0  0  0  0  0  0  0
    9.1247    9.5066   21.2103 C   0  0  0  0  0  0  0  0  0  0  0  0
   11.3182    7.9336   20.3253 C   0  0  0  0  0  0  0  0  0  0  0  0
   12.7722    7.8536   19.9493 C   0  0  1  0  0  0  0  0  0  0  0  0
   13.6120    8.6671   20.8036 O   0  0  0  0  0  0  0  0  0  0  0  0
   13.3440    6.4545   19.9734 C   0  0  1  0  0  0  0  0  0  0  0  0
   13.3398    5.9731   18.7003 O   0  0  0  0  0  0  0  0  0  0  0  0
   14.7798    6.7572   20.3328 C   0  0  1  0  0  0  0  0  0  0  0  0
   15.3867    7.0907   19.1641 O   0  0  0  0  0  0  0  0  0  0  0  0
   14.7547    7.9936   21.2585 C   0  0  2  0  0  0  0  0  0  0  0  0
   12.2266   10.3951   27.2637 O   0  0  0  0  0  0  0  0  0  0  0  0
   14.3909    8.6582   26.4161 N   0  0  0  0  0  0  0  0  0  0  0  0
   14.7727    9.5208   25.3341 C   0  0  0  0  0  0  0  0  0  0  0  0
   14.8216    9.2148   23.9514 N   0  0  0  0  0  0  0  0  0  0  0  0
   14.4565    8.0141   23.7306 C   0  0  0  0  0  0  0  0  0  0  0  0
   14.0404    7.0498   24.7734 C   0  0  0  0  0  0  0  0  0  0  0  0
   14.0224    7.3758   26.0724 C   0  0  0  0  0  0  0  0  0  0  0  0
   13.6510    6.4179   26.8967 N   0  0  0  0  0  0  0  0  0  0  0  0
   13.7200    5.8691   24.3006 N   0  0  0  0  0  0  0  0  0  0  0  0
   13.9307    6.0969   22.9531 C   0  0  0  0  0  0  0  0  0  0  0  0
   14.3825    7.4290   22.5840 N   0  0  0  0  0  0  0  0  0  0  0  0
  2  1  1  1  0  0  0
  2  3  1  0  0  0  0
  2  5  1  0  0  0  0
  3  4  1  0  0  0  0
  3 17  1  0  0  0  0
  5  6  1  0  0  0  0
  7  6  1  1  0  0  0
  7  8  1  0  0  0  0
  7  9  1  0  0  0  0
 10  9  1  1  0  0  0
 10 11  1  0  0  0  0
 10 12  1  0  0  0  0
 11 16  1  0  0  0  0
 12 13  1  6  0  0  0
 12 14  1  0  0  0  0
 14 15  1  6  0  0  0
 14 16  1  0  0  0  0
 16 27  1  1  0  0  0
 18 19  2  0  0  0  0
 18 23  1  0  0  0  0
 19 20  1  0  0  0  0
 20 21  2  0  0  0  0
 21 22  1  0  0  0  0
 21 27  1  0  0  0  0
 22 23  2  0  0  0  0
 22 25  1  0  0  0  0
 23 24  1  0  0  0  0
 25 26  2  0  0  0  0
 26 27  1  0  0  0  0
M  END
>  <CHROM.1>
-67.81428883,-65.48721212,172.53770377,-70.85782685,-87.58403045,28.59722763
-86.66385560,12.80375804,8.31327871,23.11371029,1.82138387,-0.57193196,1.37985361

>  <Name>
ligand

>  <RI>
0

>  <Rbt.Current_Directory>
/home/itssahil/PROJECTS/Mol_Feturizer/Test_systems_manuscript/rnas/4aob

>  <Rbt.Executable>
rbdock ($Id: //depot/dev/client3/rdock/2013.1/src/exe/rbdock.cxx#4 $)

>  <Rbt.Library>
libRbt.so (2013.1, Build901 2013/11/27)

>  <Rbt.Parameter_File>
/export/apps/rDock/src/rDock_2013.1_src/data/scripts/dock_solv.prm

>  <Rbt.Receptor>
prm/blind_docking_80.prm

>  <SCORE>
-13.6821

>  <SCORE.INTER>
-12.7008

>  <SCORE.INTER.CONST>
1

>  <SCORE.INTER.POLAR>
0

>  <SCORE.INTER.ROT>
7

>  <SCORE.INTER.SOLV>
8.74211

>  <SCORE.INTER.VDW>
-19.6479

>  <SCORE.INTER.norm>
-0.470398

>  <SCORE.INTRA>
-0.982655

>  <SCORE.INTRA.DIHEDRAL>
1.02385

>  <SCORE.INTRA.DIHEDRAL.0>
6.31833

>  <SCORE.INTRA.POLAR>
0

>  <SCORE.INTRA.POLAR.0>
0

>  <SCORE.INTRA.REPUL>
0

>  <SCORE.INTRA.REPUL.0>
0

>  <SCORE.INTRA.SOLV>
1.38237

>  <SCORE.INTRA.SOLV.lig_0>
-48.4015

>  <SCORE.INTRA.VDW>
-2.18577

>  <SCORE.INTRA.VDW.0>
-2.83256

>  <SCORE.INTRA.norm>
-0.0363946

>  <SCORE.RESTR>
0.00130262

>  <SCORE.RESTR.CAVITY>
0.00130262

>  <SCORE.RESTR.norm>
4.82451e-05

>  <SCORE.SYSTEM>
0

>  <SCORE.SYSTEM.CONST>
0

>  <SCORE.SYSTEM.DIHEDRAL>
0

>  <SCORE.SYSTEM.SOLV>
0

>  <SCORE.SYSTEM.norm>
0

>  <SCORE.heavy>
27

>  <SCORE.norm>
-0.506745

>  <RMSD>
10.231

$$$$
ligand
 OpenBabel02271912153D
libRbt.so/2013.1/901 2013/11/27
 27 29  0  0  0  0  0  0  0  0999 V2000
    7.4124   10.6170   19.7950 N   0  0  0  0  0  0  0  0  0  0  0  0
    7.6763   10.4847   21.2480 C   0  0  2  0  0  0  0  0  0  0  0  0
    8.1755   11.8314   21.7554 C   0  0  0  0  0  0  0  0  0  0  0  0
    8.2089   12.9231   21.0963 O   0  0  0  0  0  0  0  0  0  0  0  0
    8.6763    9.3469   21.4648 C   0  0  0  0  0  0  0  0  0  0  0  0
    8.7711    8.9158   22.9223 C   0  0  0  0  0  0  0  0  0  0  0  0
    9.4896    7.3165   23.4539 S   0  0  2  0  0  0  0  0  0  0  0  0
    8.1516    6.2364   22.9501 C   0  0  0  0  0  0  0  0  0  0  0  0
    9.2388    7.5043   25.2478 C   0  0  0  0  0  0  0  0  0  0  0  0
   10.3311    8.3256   25.8756 C   0  0  1  0  0  0  0  0  0  0  0  0
   11.6442    7.7489   25.6754 O   0  0  0  0  0  0  0  0  0  0  0  0
   10.3971    9.7528   25.3818 C   0  0  1  0  0  0  0  0  0  0  0  0
    9.7527   10.5432   26.2831 O   0  0  0  0  0  0  0  0  0  0  0  0
   11.8768   10.0199   25.5294 C   0  0  1  0  0  0  0  0  0  0  0  0
   12.0588   10.3589   26.8323 O   0  0  0  0  0  0  0  0  0  0  0  0
   12.5994    8.6834   25.2505 C   0  0  2  0  0  0  0  0  0  0  0  0
    8.6403   11.8394   22.8966 O   0  0  0  0  0  0  0  0  0  0  0  0
   13.9645    6.0322   20.9748 N   0  0  0  0  0  0  0  0  0  0  0  0
   14.0734    5.7623   22.3805 C   0  0  0  0  0  0  0  0  0  0  0  0
   13.6479    6.5762   23.4595 N   0  0  0  0  0  0  0  0  0  0  0  0
   13.1051    7.6507   23.0418 C   0  0  0  0  0  0  0  0  0  0  0  0
   12.9404    8.0186   21.6177 C   0  0  0  0  0  0  0  0  0  0  0  0
   13.3706    7.2260   20.6275 C   0  0  0  0  0  0  0  0  0  0  0  0
   13.1795    7.6820   19.4066 N   0  0  0  0  0  0  0  0  0  0  0  0
   12.3619    9.1820   21.4382 N   0  0  0  0  0  0  0  0  0  0  0  0
   12.1573    9.5422   22.7575 C   0  0  0  0  0  0  0  0  0  0  0  0
   12.6087    8.5958   23.7651 N   0  0  0  0  0  0  0  0  0  0  0  0
  2  1  1  6  0  0  0
  2  3  1  0  0  0  0
  2  5  1  0  0  0  0
  3  4  1  0  0  0  0
  3 17  1  0  0  0  0
  5  6  1  0  0  0  0
  7  6  1  6  0  0  0
  7  8  1  0  0  0  0
  7  9  1  0  0  0  0
 10  9  1  6  0  0  0
 10 11  1  0  0  0  0
 10 12  1  0  0  0  0
 11 16  1  0  0  0  0
 12 13  1  1  0  0  0
 12 14  1  0  0  0  0
 14 15  1  1  0  0  0
 14 16  1  0  0  0  0
 16 27  1  6  0  0  0
 18 19  2  0  0  0  0
 18 23  1  0  0  0  0
 19 20  1  0  0  0  0
 20 21  2  0  0  0  0
 21 22  1  0  0  0  0
 21 27  1  0  0  0  0
 22 23  2  0  0  0  0
 22 25  1  0  0  0  0
 23 24  1  0  0  0  0
 25 26  2  0  0  0  0
 26 27  1  0  0  0  0
M  END
>  <CHROM.1>
7.81224739,-166.73162618,162.26844600,-73.95109251,-82.32767037,-58.94645271
-73.46377015,10.77439169,8.81860862,23.14574839,-3.10329219,-0.65636057,1.47320889

>  <Name>
ligand

>  <RI>
0

>  <Rbt.Current_Directory>
/home/itssahil/PROJECTS/Mol_Feturizer/Test_systems_manuscript/rnas/4aob

>  <Rbt.Executable>
rbdock ($Id: //depot/dev/client3/rdock/2013.1/src/exe/rbdock.cxx#4 $)

>  <Rbt.Library>
libRbt.so (2013.1, Build901 2013/11/27)

>  <Rbt.Parameter_File>
/export/apps/rDock/src/rDock_2013.1_src/data/scripts/dock_solv.prm

>  <Rbt.Receptor>
prm/blind_docking_60.prm

>  <SCORE>
-10.879

>  <SCORE.INTER>
-9.30083

>  <SCORE.INTER.CONST>
1

>  <SCORE.INTER.POLAR>
0

>  <SCORE.INTER.ROT>
7

>  <SCORE.INTER.SOLV>
12.2242

>  <SCORE.INTER.VDW>
-18.542

>  <SCORE.INTER.norm>
-0.344475

>  <SCORE.INTRA>
-1.57817

>  <SCORE.INTRA.DIHEDRAL>
-0.699415

>  <SCORE.INTRA.DIHEDRAL.0>
6.31833

>  <SCORE.INTRA.POLAR>
0

>  <SCORE.INTRA.POLAR.0>
0

>  <SCORE.INTRA.REPUL>
0

>  <SCORE.INTRA.REPUL.0>
0

>  <SCORE.INTRA.SOLV>
-0.401785

>  <SCORE.INTRA.SOLV.lig_0>
-48.4015

>  <SCORE.INTRA.VDW>
-1.02757

>  <SCORE.INTRA.VDW.0>
-2.83256

>  <SCORE.INTRA.norm>
-0.0584508

>  <SCORE.RESTR>
0

>  <SCORE.RESTR.CAVITY>
0

>  <SCORE.RESTR.norm>
0

>  <SCORE.SYSTEM>
0

>  <SCORE.SYSTEM.CONST>
0

>  <SCORE.SYSTEM.DIHEDRAL>
0

>  <SCORE.SYSTEM.SOLV>
0

>  <SCORE.SYSTEM.norm>
0

>  <SCORE.heavy>
27

>  <SCORE.norm>
-0.402926

>  <RMSD>
10.272

$$$$
ligand
 OpenBabel02271912153D
libRbt.so/2013.1/901 2013/11/27
 27 29  0  0  0  0  0  0  0  0999 V2000
   12.8401    6.4552   19.9399 N   0  0  0  0  0  0  0  0  0  0  0  0
   13.4916    7.7485   19.6216 C   0  0  2  0  0  0  0  0  0  0  0  0
   14.9756    7.4818   19.4051 C   0  0  0  0  0  0  0  0  0  0  0  0
   15.5757    6.3678   19.5674 O   0  0  0  0  0  0  0  0  0  0  0  0
   13.2125    8.7332   20.7592 C   0  0  0  0  0  0  0  0  0  0  0  0
   14.0152    8.4241   22.0159 C   0  0  0  0  0  0  0  0  0  0  0  0
   13.7584    9.2872   23.6115 S   0  0  2  0  0  0  0  0  0  0  0  0
   15.1533    8.6140   24.5124 C   0  0  0  0  0  0  0  0  0  0  0  0
   12.3455    8.3070   24.2108 C   0  0  0  0  0  0  0  0  0  0  0  0
   11.8506    8.8063   25.5404 C   0  0  1  0  0  0  0  0  0  0  0  0
   11.1327   10.0591   25.4307 O   0  0  0  0  0  0  0  0  0  0  0  0
   10.9428    7.8409   26.2677 C   0  0  1  0  0  0  0  0  0  0  0  0
   11.6894    7.1655   27.1836 O   0  0  0  0  0  0  0  0  0  0  0  0
   10.0720    8.8128   27.0289 C   0  0  1  0  0  0  0  0  0  0  0  0
   10.7775    9.1411   28.1424 O   0  0  0  0  0  0  0  0  0  0  0  0
    9.9225   10.0665   26.1389 C   0  0  2  0  0  0  0  0  0  0  0  0
   15.6600    8.4591   19.0969 O   0  0  0  0  0  0  0  0  0  0  0  0
    5.9364   11.4827   23.0927 N   0  0  0  0  0  0  0  0  0  0  0  0
    6.8329   12.2091   23.9465 C   0  0  0  0  0  0  0  0  0  0  0  0
    7.8988   11.6974   24.7276 N   0  0  0  0  0  0  0  0  0  0  0  0
    8.0106   10.4359   24.5869 C   0  0  0  0  0  0  0  0  0  0  0  0
    7.1425    9.5989   23.7289 C   0  0  0  0  0  0  0  0  0  0  0  0
    6.1353   10.1213   23.0171 C   0  0  0  0  0  0  0  0  0  0  0  0
    5.4286    9.2624   22.3116 N   0  0  0  0  0  0  0  0  0  0  0  0
    7.4468    8.3233   23.7576 N   0  0  0  0  0  0  0  0  0  0  0  0
    8.5157    8.3624   24.6338 C   0  0  0  0  0  0  0  0  0  0  0  0
    8.8814    9.6710   25.1520 N   0  0  0  0  0  0  0  0  0  0  0  0
  2  1  1  1  0  0  0
  2  3  1  0  0  0  0
  2  5  1  0  0  0  0
  3  4  1  0  0  0  0
  3 17  1  0  0  0  0
  5  6  1  0  0  0  0
  7  6  1  6  0  0  0
  7  8  1  0  0  0  0
  7  9  1  0  0  0  0
 10  9  1  6  0  0  0
 10 11  1  0  0  0  0
 10 12  1  0  0  0  0
 11 16  1  0  0  0  0
 12 13  1  1  0  0  0
 12 14  1  0  0  0  0
 14 15  1  1  0  0  0
 14 16  1  0  0  0  0
 16 27  1  6  0  0  0
 18 19  2  0  0  0  0
 18 23  1  0  0  0  0
 19 20  1  0  0  0  0
 20 21  2  0  0  0  0
 21 22  1  0  0  0  0
 21 27  1  0  0  0  0
 22 23  2  0  0  0  0
 22 25  1  0  0  0  0
 23 24  1  0  0  0  0
 25 26  2  0  0  0  0
 26 27  1  0  0  0  0
M  END
>  <CHROM.1>
-4.92500946,73.57347431,-172.30341904,-172.08330111,-178.47894761,73.30184105
-105.32053012,10.99545007,8.97325542,23.61312952,0.50674296,0.29091536,-1.62118609

>  <Name>
ligand

>  <RI>
0

>  <Rbt.Current_Directory>
/home/itssahil/PROJECTS/Mol_Feturizer/Test_systems_manuscript/rnas/4aob

>  <Rbt.Executable>
rbdock ($Id: //depot/dev/client3/rdock/2013.1/src/exe/rbdock.cxx#4 $)

>  <Rbt.Library>
libRbt.so (2013.1, Build901 2013/11/27)

>  <Rbt.Parameter_File>
/export/apps/rDock/src/rDock_2013.1_src/data/scripts/dock_solv.prm

>  <Rbt.Receptor>
prm/blind_docking_100.prm

>  <SCORE>
-12.0547

>  <SCORE.INTER>
-12.6047

>  <SCORE.INTER.CONST>
1

>  <SCORE.INTER.POLAR>
0

>  <SCORE.INTER.ROT>
7

>  <SCORE.INTER.SOLV>
11.8056

>  <SCORE.INTER.VDW>
-20.605

>  <SCORE.INTER.norm>
-0.46684

>  <SCORE.INTRA>
0.550017

>  <SCORE.INTRA.DIHEDRAL>
-0.590534

>  <SCORE.INTRA.DIHEDRAL.0>
6.31833

>  <SCORE.INTRA.POLAR>
0

>  <SCORE.INTRA.POLAR.0>
0

>  <SCORE.INTRA.REPUL>
0

>  <SCORE.INTRA.REPUL.0>
0

>  <SCORE.INTRA.SOLV>
-0.251478

>  <SCORE.INTRA.SOLV.lig_0>
-48.4015

>  <SCORE.INTRA.VDW>
0.971023

>  <SCORE.INTRA.VDW.0>
-2.83256

>  <SCORE.INTRA.norm>
0.020371

>  <SCORE.RESTR>
0

>  <SCORE.RESTR.CAVITY>
0

>  <SCORE.RESTR.norm>
0

>  <SCORE.SYSTEM>
0

>  <SCORE.SYSTEM.CONST>
0

>  <SCORE.SYSTEM.DIHEDRAL>
0

>  <SCORE.SYSTEM.SOLV>
0

>  <SCORE.SYSTEM.norm>
0

>  <SCORE.heavy>
27

>  <SCORE.norm>
-0.446469

>  <RMSD>
10.464

$$$$
ligand
 OpenBabel02271912153D
libRbt.so/2013.1/901 2013/11/27
 27 29  0  0  0  0  0  0  0  0999 V2000
    7.5434   12.2036   21.9284 N   0  0  0  0  0  0  0  0  0  0  0  0
    7.7593   10.8043   22.3685 C   0  0  2  0  0  0  0  0  0  0  0  0
    7.4440   10.7301   23.8569 C   0  0  0  0  0  0  0  0  0  0  0  0
    7.0850    9.6905   24.5033 O   0  0  0  0  0  0  0  0  0  0  0  0
    9.1960   10.3989   22.0324 C   0  0  0  0  0  0  0  0  0  0  0  0
    9.4926    8.9444   22.3727 C   0  0  0  0  0  0  0  0  0  0  0  0
   11.1536    8.1901   22.2037 S   0  0  2  0  0  0  0  0  0  0  0  0
   12.0836    9.3544   23.1986 C   0  0  0  0  0  0  0  0  0  0  0  0
   11.5012    8.7113   20.4938 C   0  0  0  0  0  0  0  0  0  0  0  0
   12.7678    8.0896   19.9730 C   0  0  1  0  0  0  0  0  0  0  0  0
   13.9455    8.5611   20.6714 O   0  0  0  0  0  0  0  0  0  0  0  0
   12.7916    6.5796   20.0395 C   0  0  1  0  0  0  0  0  0  0  0  0
   12.4536    6.0962   18.8129 O   0  0  0  0  0  0  0  0  0  0  0  0
   14.2724    6.3421   20.2218 C   0  0  1  0  0  0  0  0  0  0  0  0
   14.8072    6.3933   18.9741 O   0  0  0  0  0  0  0  0  0  0  0  0
   14.8135    7.5275   21.0513 C   0  0  2  0  0  0  0  0  0  0  0  0
    7.4911   11.7967   24.4722 O   0  0  0  0  0  0  0  0  0  0  0  0
   15.2844    8.5022   26.1507 N   0  0  0  0  0  0  0  0  0  0  0  0
   15.8016    9.1380   24.9722 C   0  0  0  0  0  0  0  0  0  0  0  0
   15.5877    8.7728   23.6199 N   0  0  0  0  0  0  0  0  0  0  0  0
   14.8251    7.7558   23.5310 C   0  0  0  0  0  0  0  0  0  0  0  0
   14.2377    7.0341   24.6819 C   0  0  0  0  0  0  0  0  0  0  0  0
   14.4775    7.4041   25.9466 C   0  0  0  0  0  0  0  0  0  0  0  0
   13.9090    6.6638   26.8760 N   0  0  0  0  0  0  0  0  0  0  0  0
   13.4946    6.0098   24.3370 N   0  0  0  0  0  0  0  0  0  0  0  0
   13.6121    6.0941   22.9618 C   0  0  0  0  0  0  0  0  0  0  0  0
   14.4313    7.1795   22.4468 N   0  0  0  0  0  0  0  0  0  0  0  0
  2  1  1  1  0  0  0
  2  3  1  0  0  0  0
  2  5  1  0  0  0  0
  3  4  1  0  0  0  0
  3 17  1  0  0  0  0
  5  6  1  0  0  0  0
  7  6  1  1  0  0  0
  7  8  1  0  0  0  0
  7  9  1  0  0  0  0
 10  9  1  1  0  0  0
 10 11  1  0  0  0  0
 10 12  1  0  0  0  0
 11 16  1  0  0  0  0
 12 13  1  6  0  0  0
 12 14  1  0  0  0  0
 14 15  1  6  0  0  0
 14 16  1  0  0  0  0
 16 27  1  1  0  0  0
 18 19  2  0  0  0  0
 18 23  1  0  0  0  0
 19 20  1  0  0  0  0
 20 21  2  0  0  0  0
 21 22  1  0  0  0  0
 21 27  1  0  0  0  0
 22 23  2  0  0  0  0
 22 25  1  0  0  0  0
 23 24  1  0  0  0  0
 25 26  2  0  0  0  0
 26 27  1  0  0  0  0
M  END
>  <CHROM.1>
155.41711116,-176.60767507,-175.39521566,54.57226655,-172.89908410,-66.29483081
-84.42541721,12.18667299,8.34814937,22.61505718,2.96616454,-0.46993640,1.35958354

>  <Name>
ligand

>  <RI>
0

>  <Rbt.Current_Directory>
/home/itssahil/PROJECTS/Mol_Feturizer/Test_systems_manuscript/rnas/4aob

>  <Rbt.Executable>
rbdock ($Id: //depot/dev/client3/rdock/2013.1/src/exe/rbdock.cxx#4 $)

>  <Rbt.Library>
libRbt.so (2013.1, Build901 2013/11/27)

>  <Rbt.Parameter_File>
/export/apps/rDock/src/rDock_2013.1_src/data/scripts/dock_solv.prm

>  <Rbt.Receptor>
prm/blind_docking_60.prm

>  <SCORE>
-14.0644

>  <SCORE.INTER>
-12.6133

>  <SCORE.INTER.CONST>
1

>  <SCORE.INTER.POLAR>
0

>  <SCORE.INTER.ROT>
7

>  <SCORE.INTER.SOLV>
8.69153

>  <SCORE.INTER.VDW>
-19.5727

>  <SCORE.INTER.norm>
-0.467158

>  <SCORE.INTRA>
-1.45112

>  <SCORE.INTRA.DIHEDRAL>
-1.96182

>  <SCORE.INTRA.DIHEDRAL.0>
6.31833

>  <SCORE.INTRA.POLAR>
0

>  <SCORE.INTRA.POLAR.0>
0

>  <SCORE.INTRA.REPUL>
0

>  <SCORE.INTRA.REPUL.0>
0

>  <SCORE.INTRA.SOLV>
-0.470809

>  <SCORE.INTRA.SOLV.lig_0>
-48.4015

>  <SCORE.INTRA.VDW>
-0.234803

>  <SCORE.INTRA.VDW.0>
-2.83256

>  <SCORE.INTRA.norm>
-0.0537451

>  <SCORE.RESTR>
0

>  <SCORE.RESTR.CAVITY>
0

>  <SCORE.RESTR.norm>
0

>  <SCORE.SYSTEM>
0

>  <SCORE.SYSTEM.CONST>
0

>  <SCORE.SYSTEM.DIHEDRAL>
0

>  <SCORE.SYSTEM.SOLV>
0

>  <SCORE.SYSTEM.norm>
0

>  <SCORE.heavy>
27

>  <SCORE.norm>
-0.520903

>  <RMSD>
10.836

$$$$
ligand
 OpenBabel02271912153D
libRbt.so/2013.1/901 2013/11/27
 27 29  0  0  0  0  0  0  0  0999 V2000
    5.0237    7.4125   23.2117 N   0  0  0  0  0  0  0  0  0  0  0  0
    5.0211    8.8828   23.0204 C   0  0  2  0  0  0  0  0  0  0  0  0
    3.8235    9.2371   22.1484 C   0  0  0  0  0  0  0  0  0  0  0  0
    2.9031   10.0741   22.4310 O   0  0  0  0  0  0  0  0  0  0  0  0
    6.3603    9.3018   22.4099 C   0  0  0  0  0  0  0  0  0  0  0  0
    6.5349   10.8136   22.3542 C   0  0  0  0  0  0  0  0  0  0  0  0
    6.7816   11.8535   23.8422 S   0  0  2  0  0  0  0  0  0  0  0  0
    6.6279   13.4658   23.0758 C   0  0  0  0  0  0  0  0  0  0  0  0
    8.5804   11.6302   24.0180 C   0  0  0  0  0  0  0  0  0  0  0  0
    8.9081   10.4912   24.9438 C   0  0  1  0  0  0  0  0  0  0  0  0
    8.6199    9.1988   24.3577 O   0  0  0  0  0  0  0  0  0  0  0  0
   10.3489   10.4563   25.3998 C   0  0  1  0  0  0  0  0  0  0  0  0
   10.4172   11.0291   26.6326 O   0  0  0  0  0  0  0  0  0  0  0  0
   10.5356    8.9687   25.5865 C   0  0  1  0  0  0  0  0  0  0  0  0
   10.0364    8.6894   26.8187 O   0  0  0  0  0  0  0  0  0  0  0  0
    9.6615    8.2740   24.5191 C   0  0  2  0  0  0  0  0  0  0  0  0
    3.7169    8.6056   21.0956 O   0  0  0  0  0  0  0  0  0  0  0  0
   13.5973    6.4282   21.6421 N   0  0  0  0  0  0  0  0  0  0  0  0
   12.9916    6.0059   22.8731 C   0  0  0  0  0  0  0  0  0  0  0  0
   11.9026    6.6006   23.5573 N   0  0  0  0  0  0  0  0  0  0  0  0
   11.4628    7.6187   22.9296 C   0  0  0  0  0  0  0  0  0  0  0  0
   12.0129    8.1304   21.6545 C   0  0  0  0  0  0  0  0  0  0  0  0
   13.0541    7.5461   21.0475 C   0  0  0  0  0  0  0  0  0  0  0  0
   13.4562    8.1146   19.9294 N   0  0  0  0  0  0  0  0  0  0  0  0
   11.3989    9.2001   21.2081 N   0  0  0  0  0  0  0  0  0  0  0  0
   10.4547    9.3556   22.2063 C   0  0  0  0  0  0  0  0  0  0  0  0
   10.4789    8.3750   23.2798 N   0  0  0  0  0  0  0  0  0  0  0  0
  2  1  1  6  0  0  0
  2  3  1  0  0  0  0
  2  5  1  0  0  0  0
  3  4  1  0  0  0  0
  3 17  1  0  0  0  0
  5  6  1  0  0  0  0
  7  6  1  6  0  0  0
  7  8  1  0  0  0  0
  7  9  1  0  0  0  0
 10  9  1  6  0  0  0
 10 11  1  0  0  0  0
 10 12  1  0  0  0  0
 11 16  1  0  0  0  0
 12 13  1  1  0  0  0
 12 14  1  0  0  0  0
 14 15  1  1  0  0  0
 14 16  1  0  0  0  0
 16 27  1  6  0  0  0
 18 19  2  0  0  0  0
 18 23  1  0  0  0  0
 19 20  1  0  0  0  0
 20 21  2  0  0  0  0
 21 22  1  0  0  0  0
 21 27  1  0  0  0  0
 22 23  2  0  0  0  0
 22 25  1  0  0  0  0
 23 24  1  0  0  0  0
 25 26  2  0  0  0  0
 26 27  1  0  0  0  0
M  END
>  <CHROM.1>
125.19861182,-171.94673237,70.03156814,-170.95598175,-92.94781265,71.88001669
-172.59414086,8.85598369,9.28221778,23.26265857,2.91081822,-0.24729898,0.91123021

>  <Name>
ligand

>  <RI>
0

>  <Rbt.Current_Directory>
/home/itssahil/PROJECTS/Mol_Feturizer/Test_systems_manuscript/rnas/4aob

>  <Rbt.Executable>
rbdock ($Id: //depot/dev/client3/rdock/2013.1/src/exe/rbdock.cxx#4 $)

>  <Rbt.Library>
libRbt.so (2013.1, Build901 2013/11/27)

>  <Rbt.Parameter_File>
/export/apps/rDock/src/rDock_2013.1_src/data/scripts/dock_solv.prm

>  <Rbt.Receptor>
prm/blind_docking_40.prm

>  <SCORE>
-17.0387

>  <SCORE.INTER>
-15.8422

>  <SCORE.INTER.CONST>
1

>  <SCORE.INTER.POLAR>
0

>  <SCORE.INTER.ROT>
7

>  <SCORE.INTER.SOLV>
8.43011

>  <SCORE.INTER.VDW>
-21.6382

>  <SCORE.INTER.norm>
-0.586749

>  <SCORE.INTRA>
-1.19895

>  <SCORE.INTRA.DIHEDRAL>
0.079921

>  <SCORE.INTRA.DIHEDRAL.0>
6.31833

>  <SCORE.INTRA.POLAR>
0

>  <SCORE.INTRA.POLAR.0>
0

>  <SCORE.INTRA.REPUL>
0

>  <SCORE.INTRA.REPUL.0>
0

>  <SCORE.INTRA.SOLV>
-0.40065

>  <SCORE.INTRA.SOLV.lig_0>
-48.4015

>  <SCORE.INTRA.VDW>
-1.03858

>  <SCORE.INTRA.VDW.0>
-2.83256

>  <SCORE.INTRA.norm>
-0.0444055

>  <SCORE.RESTR>
0.00249356

>  <SCORE.RESTR.CAVITY>
0.00249356

>  <SCORE.RESTR.norm>
9.2354e-05

>  <SCORE.SYSTEM>
0

>  <SCORE.SYSTEM.CONST>
0

>  <SCORE.SYSTEM.DIHEDRAL>
0

>  <SCORE.SYSTEM.SOLV>
0

>  <SCORE.SYSTEM.norm>
0

>  <SCORE.heavy>
27

>  <SCORE.norm>
-0.631062

>  <RMSD>
10.940

$$$$
ligand
 OpenBabel02271912153D
libRbt.so/2013.1/901 2013/11/27
 27 29  0  0  0  0  0  0  0  0999 V2000
    7.4470   10.2023   21.1019 N   0  0  0  0  0  0  0  0  0  0  0  0
    8.3609    9.0755   20.7960 C   0  0  2  0  0  0  0  0  0  0  0  0
    8.0055    7.9219   21.7251 C   0  0  0  0  0  0  0  0  0  0  0  0
    7.7825    8.0012   22.9787 O   0  0  0  0  0  0  0  0  0  0  0  0
    9.8050    9.5569   20.9526 C   0  0  0  0  0  0  0  0  0  0  0  0
   10.8254    8.4836   20.5979 C   0  0  0  0  0  0  0  0  0  0  0  0
   11.1768    7.9583   18.8783 S   0  0  2  0  0  0  0  0  0  0  0  0
    9.6657    7.0505   18.5570 C   0  0  0  0  0  0  0  0  0  0  0  0
   12.3919    6.6537   19.2499 C   0  0  0  0  0  0  0  0  0  0  0  0
   13.7862    7.2088   19.3483 C   0  0  1  0  0  0  0  0  0  0  0  0
   13.8778    8.3187   20.2739 O   0  0  0  0  0  0  0  0  0  0  0  0
   14.8289    6.1981   19.7682 C   0  0  1  0  0  0  0  0  0  0  0  0
   15.4550    5.7450   18.6478 O   0  0  0  0  0  0  0  0  0  0  0  0
   15.8018    7.1003   20.4907 C   0  0  1  0  0  0  0  0  0  0  0  0
   16.5811    7.6480   19.5221 O   0  0  0  0  0  0  0  0  0  0  0  0
   14.9642    8.2157   21.1545 C   0  0  2  0  0  0  0  0  0  0  0  0
    7.9899    6.8015   21.2124 O   0  0  0  0  0  0  0  0  0  0  0  0
   15.1736    7.6432   26.3317 N   0  0  0  0  0  0  0  0  0  0  0  0
   15.8736    8.4840   25.4023 C   0  0  0  0  0  0  0  0  0  0  0  0
   15.7140    8.5498   23.9959 N   0  0  0  0  0  0  0  0  0  0  0  0
   14.8143    7.7418   23.5945 C   0  0  0  0  0  0  0  0  0  0  0  0
   14.0342    6.8393   24.4706 C   0  0  0  0  0  0  0  0  0  0  0  0
   14.2269    6.7978   25.7954 C   0  0  0  0  0  0  0  0  0  0  0  0
   13.4801    5.9360   26.4546 N   0  0  0  0  0  0  0  0  0  0  0  0
   13.1727    6.0920   23.8227 N   0  0  0  0  0  0  0  0  0  0  0  0
   13.4102    6.5333   22.5339 C   0  0  0  0  0  0  0  0  0  0  0  0
   14.4240    7.5641   22.3785 N   0  0  0  0  0  0  0  0  0  0  0  0
  2  1  1  1  0  0  0
  2  3  1  0  0  0  0
  2  5  1  0  0  0  0
  3  4  1  0  0  0  0
  3 17  1  0  0  0  0
  5  6  1  0  0  0  0
  7  6  1  1  0  0  0
  7  8  1  0  0  0  0
  7  9  1  0  0  0  0
 10  9  1  1  0  0  0
 10 11  1  0  0  0  0
 10 12  1  0  0  0  0
 11 16  1  0  0  0  0
 12 13  1  6  0  0  0
 12 14  1  0  0  0  0
 14 15  1  6  0  0  0
 14 16  1  0  0  0  0
 16 27  1  1  0  0  0
 18 19  2  0  0  0  0
 18 23  1  0  0  0  0
 19 20  1  0  0  0  0
 20 21  2  0  0  0  0
 21 22  1  0  0  0  0
 21 27  1  0  0  0  0
 22 23  2  0  0  0  0
 22 25  1  0  0  0  0
 23 24  1  0  0  0  0
 25 26  2  0  0  0  0
 26 27  1  0  0  0  0
M  END
>  <CHROM.1>
-45.30780316,-177.43255405,73.59574573,-72.41247335,-87.41524203,52.97494932
-148.61992730,12.58608214,7.58316385,21.62889976,2.71308091,0.16461338,-1.58783545

>  <Name>
ligand

>  <RI>
0

>  <Rbt.Current_Directory>
/home/itssahil/PROJECTS/Mol_Feturizer/Test_systems_manuscript/rnas/4aob

>  <Rbt.Executable>
rbdock ($Id: //depot/dev/client3/rdock/2013.1/src/exe/rbdock.cxx#4 $)

>  <Rbt.Library>
libRbt.so (2013.1, Build901 2013/11/27)

>  <Rbt.Parameter_File>
/export/apps/rDock/src/rDock_2013.1_src/data/scripts/dock_solv.prm

>  <Rbt.Receptor>
prm/blind_docking_100.prm

>  <SCORE>
-11.0376

>  <SCORE.INTER>
-9.22218

>  <SCORE.INTER.CONST>
1

>  <SCORE.INTER.POLAR>
0

>  <SCORE.INTER.ROT>
7

>  <SCORE.INTER.SOLV>
11.6778

>  <SCORE.INTER.VDW>
-18.3074

>  <SCORE.INTER.norm>
-0.341562

>  <SCORE.INTRA>
-1.81537

>  <SCORE.INTRA.DIHEDRAL>
-1.57709

>  <SCORE.INTRA.DIHEDRAL.0>
6.31833

>  <SCORE.INTRA.POLAR>
0

>  <SCORE.INTRA.POLAR.0>
0

>  <SCORE.INTRA.REPUL>
0

>  <SCORE.INTRA.REPUL.0>
0

>  <SCORE.INTRA.SOLV>
-0.542299

>  <SCORE.INTRA.SOLV.lig_0>
-48.4015

>  <SCORE.INTRA.VDW>
-0.755679

>  <SCORE.INTRA.VDW.0>
-2.83256

>  <SCORE.INTRA.norm>
-0.067236

>  <SCORE.RESTR>
0

>  <SCORE.RESTR.CAVITY>
0

>  <SCORE.RESTR.norm>
0

>  <SCORE.SYSTEM>
0

>  <SCORE.SYSTEM.CONST>
0

>  <SCORE.SYSTEM.DIHEDRAL>
0

>  <SCORE.SYSTEM.SOLV>
0

>  <SCORE.SYSTEM.norm>
0

>  <SCORE.heavy>
27

>  <SCORE.norm>
-0.408798

>  <RMSD>
11.029

$$$$
ligand
 OpenBabel02271912153D
libRbt.so/2013.1/901 2013/11/27
 27 29  0  0  0  0  0  0  0  0999 V2000
    6.6758   13.8348   21.0759 N   0  0  0  0  0  0  0  0  0  0  0  0
    7.5533   12.9413   21.8696 C   0  0  2  0  0  0  0  0  0  0  0  0
    7.9977   11.8000   20.9639 C   0  0  0  0  0  0  0  0  0  0  0  0
    9.0096   11.0437   21.1410 O   0  0  0  0  0  0  0  0  0  0  0  0
    6.7857   12.4697   23.1065 C   0  0  0  0  0  0  0  0  0  0  0  0
    7.7014   11.9358   24.2000 C   0  0  0  0  0  0  0  0  0  0  0  0
    8.7708   10.4636   23.9870 S   0  0  2  0  0  0  0  0  0  0  0  0
    7.5169    9.1925   24.1384 C   0  0  0  0  0  0  0  0  0  0  0  0
    9.5650   10.4821   25.6256 C   0  0  0  0  0  0  0  0  0  0  0  0
   10.9439    9.8833   25.5783 C   0  0  1  0  0  0  0  0  0  0  0  0
   10.9294    8.4853   25.2011 O   0  0  0  0  0  0  0  0  0  0  0  0
   11.8934   10.5843   24.6338 C   0  0  1  0  0  0  0  0  0  0  0  0
   12.6607   11.4403   25.3624 O   0  0  0  0  0  0  0  0  0  0  0  0
   12.7750    9.4257   24.2303 C   0  0  1  0  0  0  0  0  0  0  0  0
   13.6956    9.3041   25.2218 O   0  0  0  0  0  0  0  0  0  0  0  0
   11.8779    8.1682   24.2183 C   0  0  2  0  0  0  0  0  0  0  0  0
    7.3381   11.6392   19.9356 O   0  0  0  0  0  0  0  0  0  0  0  0
    7.9228    6.5855   21.2138 N   0  0  0  0  0  0  0  0  0  0  0  0
    8.3163    6.2927   22.5629 C   0  0  0  0  0  0  0  0  0  0  0  0
    9.4276    6.8052   23.2771 N   0  0  0  0  0  0  0  0  0  0  0  0
   10.0961    7.6244   22.5660 C   0  0  0  0  0  0  0  0  0  0  0  0
    9.7711    7.9962   21.1708 C   0  0  0  0  0  0  0  0  0  0  0  0
    8.7180    7.4766   20.5266 C   0  0  0  0  0  0  0  0  0  0  0  0
    8.5544    7.8775   19.2827 N   0  0  0  0  0  0  0  0  0  0  0  0
   10.6153    8.8505   20.6435 N   0  0  0  0  0  0  0  0  0  0  0  0
   11.4706    9.0195   21.7168 C   0  0  0  0  0  0  0  0  0  0  0  0
   11.1555    8.2679   22.9212 N   0  0  0  0  0  0  0  0  0  0  0  0
  2  1  1  6  0  0  0
  2  3  1  0  0  0  0
  2  5  1  0  0  0  0
  3  4  1  0  0  0  0
  3 17  1  0  0  0  0
  5  6  1  0  0  0  0
  7  6  1  1  0  0  0
  7  8  1  0  0  0  0
  7  9  1  0  0  0  0
 10  9  1  6  0  0  0
 10 11  1  0  0  0  0
 10 12  1  0  0  0  0
 11 16  1  0  0  0  0
 12 13  1  1  0  0  0
 12 14  1  0  0  0  0
 14 15  1  1  0  0  0
 14 16  1  0  0  0  0
 16 27  1  6  0  0  0
 18 19  2  0  0  0  0
 18 23  1  0  0  0  0
 19 20  1  0  0  0  0
 20 21  2  0  0  0  0
 21 22  1  0  0  0  0
 21 27  1  0  0  0  0
 22 23  2  0  0  0  0
 22 25  1  0  0  0  0
 23 24  1  0  0  0  0
 25 26  2  0  0  0  0
 26 27  1  0  0  0  0
M  END
>  <CHROM.1>
159.85656968,-161.30569887,-62.85984442,-76.36322418,-151.18083163,-63.03826245
-57.52291466,9.59243785,9.71409989,22.92168052,-3.11355692,0.74272734,-2.61545778

>  <Name>
ligand

>  <RI>
0

>  <Rbt.Current_Directory>
/home/itssahil/PROJECTS/Mol_Feturizer/Test_systems_manuscript/rnas/4aob

>  <Rbt.Executable>
rbdock ($Id: //depot/dev/client3/rdock/2013.1/src/exe/rbdock.cxx#4 $)

>  <Rbt.Library>
libRbt.so (2013.1, Build901 2013/11/27)

>  <Rbt.Parameter_File>
/export/apps/rDock/src/rDock_2013.1_src/data/scripts/dock_solv.prm

>  <Rbt.Receptor>
prm/blind_docking_100.prm

>  <SCORE>
-15.1674

>  <SCORE.INTER>
-13.1328

>  <SCORE.INTER.CONST>
1

>  <SCORE.INTER.POLAR>
0

>  <SCORE.INTER.ROT>
7

>  <SCORE.INTER.SOLV>
11.0121

>  <SCORE.INTER.VDW>
-20.6926

>  <SCORE.INTER.norm>
-0.486399

>  <SCORE.INTRA>
-2.03459

>  <SCORE.INTRA.DIHEDRAL>
1.479

>  <SCORE.INTRA.DIHEDRAL.0>
6.31833

>  <SCORE.INTRA.POLAR>
0

>  <SCORE.INTRA.POLAR.0>
0

>  <SCORE.INTRA.REPUL>
0

>  <SCORE.INTRA.REPUL.0>
0

>  <SCORE.INTRA.SOLV>
-0.0729418

>  <SCORE.INTRA.SOLV.lig_0>
-48.4015

>  <SCORE.INTRA.VDW>
-2.73762

>  <SCORE.INTRA.VDW.0>
-2.83256

>  <SCORE.INTRA.norm>
-0.0753553

>  <SCORE.RESTR>
0

>  <SCORE.RESTR.CAVITY>
0

>  <SCORE.RESTR.norm>
0

>  <SCORE.SYSTEM>
0

>  <SCORE.SYSTEM.CONST>
0

>  <SCORE.SYSTEM.DIHEDRAL>
0

>  <SCORE.SYSTEM.SOLV>
0

>  <SCORE.SYSTEM.norm>
0

>  <SCORE.heavy>
27

>  <SCORE.norm>
-0.561755

>  <RMSD>
11.206

$$$$
ligand
 OpenBabel02271912153D
libRbt.so/2013.1/901 2013/11/27
 27 29  0  0  0  0  0  0  0  0999 V2000
    9.9860    7.5913   18.3499 N   0  0  0  0  0  0  0  0  0  0  0  0
   11.2867    7.6533   17.6409 C   0  0  2  0  0  0  0  0  0  0  0  0
   11.0048    7.9641   16.1766 C   0  0  0  0  0  0  0  0  0  0  0  0
   11.6168    7.4777   15.1685 O   0  0  0  0  0  0  0  0  0  0  0  0
   12.0237    6.3284   17.8482 C   0  0  0  0  0  0  0  0  0  0  0  0
   12.3690    6.0686   19.3085 C   0  0  0  0  0  0  0  0  0  0  0  0
   13.5438    7.1003   20.2636 S   0  0  2  0  0  0  0  0  0  0  0  0
   15.0758    6.4750   19.5762 C   0  0  0  0  0  0  0  0  0  0  0  0
   13.4051    6.2376   21.8613 C   0  0  0  0  0  0  0  0  0  0  0  0
   13.9927    7.0511   22.9815 C   0  0  1  0  0  0  0  0  0  0  0  0
   14.1244    8.4522   22.6403 O   0  0  0  0  0  0  0  0  0  0  0  0
   13.2112    6.9843   24.2738 C   0  0  1  0  0  0  0  0  0  0  0  0
   13.8082    6.0672   25.0830 O   0  0  0  0  0  0  0  0  0  0  0  0
   13.5167    8.3499   24.8433 C   0  0  1  0  0  0  0  0  0  0  0  0
   14.7246    8.2298   25.4533 O   0  0  0  0  0  0  0  0  0  0  0  0
   13.6519    9.3119   23.6422 C   0  0  2  0  0  0  0  0  0  0  0  0
   10.1356    8.8109   15.9624 O   0  0  0  0  0  0  0  0  0  0  0  0
    8.9330   10.9407   25.1435 N   0  0  0  0  0  0  0  0  0  0  0  0
   10.1965   10.8232   25.8146 C   0  0  0  0  0  0  0  0  0  0  0  0
   11.4272   10.3662   25.2813 N   0  0  0  0  0  0  0  0  0  0  0  0
   11.3105   10.0541   24.0514 C   0  0  0  0  0  0  0  0  0  0  0  0
   10.0568   10.1441   23.2698 C   0  0  0  0  0  0  0  0  0  0  0  0
    8.9103   10.5683   23.8171 C   0  0  0  0  0  0  0  0  0  0  0  0
    7.8651   10.5811   23.0157 N   0  0  0  0  0  0  0  0  0  0  0  0
   10.1845    9.7548   22.0238 N   0  0  0  0  0  0  0  0  0  0  0  0
   11.5272    9.4248   22.0232 C   0  0  0  0  0  0  0  0  0  0  0  0
   12.2413    9.6125   23.2760 N   0  0  0  0  0  0  0  0  0  0  0  0
  2  1  1  1  0  0  0
  2  3  1  0  0  0  0
  2  5  1  0  0  0  0
  3  4  1  0  0  0  0
  3 17  1  0  0  0  0
  5  6  1  0  0  0  0
  7  6  1  6  0  0  0
  7  8  1  0  0  0  0
  7  9  1  0  0  0  0
 10  9  1  6  0  0  0
 10 11  1  0  0  0  0
 10 12  1  0  0  0  0
 11 16  1  0  0  0  0
 12 13  1  1  0  0  0
 12 14  1  0  0  0  0
 14 15  1  6  0  0  0
 14 16  1  0  0  0  0
 16 27  1  6  0  0  0
 18 19  2  0  0  0  0
 18 23  1  0  0  0  0
 19 20  1  0  0  0  0
 20 21  2  0  0  0  0
 21 22  1  0  0  0  0
 21 27  1  0  0  0  0
 22 23  2  0  0  0  0
 22 25  1  0  0  0  0
 23 24  1  0  0  0  0
 25 26  2  0  0  0  0
 26 27  1  0  0  0  0
M  END
>  <CHROM.1>
-141.68027186,-63.38811710,-65.42184661,-76.14354629,-165.49110285,18.83475066
160.07693194,11.99487117,8.34044385,21.67227836,1.57641294,0.58986566,-1.83672035

>  <Name>
ligand

>  <RI>
0

>  <Rbt.Current_Directory>
/home/itssahil/PROJECTS/Mol_Feturizer/Test_systems_manuscript/rnas/4aob

>  <Rbt.Executable>
rbdock ($Id: //depot/dev/client3/rdock/2013.1/src/exe/rbdock.cxx#4 $)

>  <Rbt.Library>
libRbt.so (2013.1, Build901 2013/11/27)

>  <Rbt.Parameter_File>
/export/apps/rDock/src/rDock_2013.1_src/data/scripts/dock_solv.prm

>  <Rbt.Receptor>
prm/blind_docking_80.prm

>  <SCORE>
-13.8595

>  <SCORE.INTER>
-15.8784

>  <SCORE.INTER.CONST>
1

>  <SCORE.INTER.POLAR>
0

>  <SCORE.INTER.ROT>
7

>  <SCORE.INTER.SOLV>
8.48279

>  <SCORE.INTER.VDW>
-21.6798

>  <SCORE.INTER.norm>
-0.588087

>  <SCORE.INTRA>
2.01889

>  <SCORE.INTRA.DIHEDRAL>
2.71224

>  <SCORE.INTRA.DIHEDRAL.0>
6.31833

>  <SCORE.INTRA.POLAR>
0

>  <SCORE.INTRA.POLAR.0>
0

>  <SCORE.INTRA.REPUL>
0

>  <SCORE.INTRA.REPUL.0>
0

>  <SCORE.INTRA.SOLV>
0.464538

>  <SCORE.INTRA.SOLV.lig_0>
-48.4015

>  <SCORE.INTRA.VDW>
0.430497

>  <SCORE.INTRA.VDW.0>
-2.83256

>  <SCORE.INTRA.norm>
0.0747736

>  <SCORE.RESTR>
0

>  <SCORE.RESTR.CAVITY>
0

>  <SCORE.RESTR.norm>
0

>  <SCORE.SYSTEM>
0

>  <SCORE.SYSTEM.CONST>
0

>  <SCORE.SYSTEM.DIHEDRAL>
0

>  <SCORE.SYSTEM.SOLV>
0

>  <SCORE.SYSTEM.norm>
0

>  <SCORE.heavy>
27

>  <SCORE.norm>
-0.513314

>  <RMSD>
11.286

$$$$
ligand
 OpenBabel02271912153D
libRbt.so/2013.1/901 2013/11/27
 27 29  0  0  0  0  0  0  0  0999 V2000
    8.6143   11.7957   22.1136 N   0  0  0  0  0  0  0  0  0  0  0  0
    7.2193   12.0064   22.5696 C   0  0  2  0  0  0  0  0  0  0  0  0
    6.9159   13.4957   22.4683 C   0  0  0  0  0  0  0  0  0  0  0  0
    6.4596   14.2399   23.3986 O   0  0  0  0  0  0  0  0  0  0  0  0
    7.0771   11.4542   23.9896 C   0  0  0  0  0  0  0  0  0  0  0  0
    7.3610    9.9603   24.0719 C   0  0  0  0  0  0  0  0  0  0  0  0
    9.0310    9.2399   23.8514 S   0  0  2  0  0  0  0  0  0  0  0  0
    8.6430    7.5324   24.2318 C   0  0  0  0  0  0  0  0  0  0  0  0
    9.7856    9.8623   25.3874 C   0  0  0  0  0  0  0  0  0  0  0  0
   11.2674    9.6070   25.4183 C   0  0  1  0  0  0  0  0  0  0  0  0
   11.6195    8.3137   24.8703 O   0  0  0  0  0  0  0  0  0  0  0  0
   12.0907   10.6371   24.6792 C   0  0  1  0  0  0  0  0  0  0  0  0
   12.5703   11.5284   25.5891 O   0  0  0  0  0  0  0  0  0  0  0  0
   13.2540    9.7821   24.2340 C   0  0  1  0  0  0  0  0  0  0  0  0
   14.0968    9.7287   25.2981 O   0  0  0  0  0  0  0  0  0  0  0  0
   12.6899    8.3692   23.9663 C   0  0  2  0  0  0  0  0  0  0  0  0
    7.0799   14.0055   21.3585 O   0  0  0  0  0  0  0  0  0  0  0  0
   12.2855    6.5717   19.0898 N   0  0  0  0  0  0  0  0  0  0  0  0
   13.0067    6.1278   20.2489 C   0  0  0  0  0  0  0  0  0  0  0  0
   13.0249    6.7112   21.5401 N   0  0  0  0  0  0  0  0  0  0  0  0
   12.2760    7.7408   21.5926 C   0  0  0  0  0  0  0  0  0  0  0  0
   11.4893    8.2749   20.4584 C   0  0  0  0  0  0  0  0  0  0  0  0
   11.5118    7.7006   19.2486 C   0  0  0  0  0  0  0  0  0  0  0  0
   10.7817    8.2888   18.3234 N   0  0  0  0  0  0  0  0  0  0  0  0
   10.8036    9.3530   20.7550 N   0  0  0  0  0  0  0  0  0  0  0  0
   11.1580    9.4915   22.0844 C   0  0  0  0  0  0  0  0  0  0  0  0
   12.0679    8.4916   22.6200 N   0  0  0  0  0  0  0  0  0  0  0  0
  2  1  1  1  0  0  0
  2  3  1  0  0  0  0
  2  5  1  0  0  0  0
  3  4  1  0  0  0  0
  3 17  1  0  0  0  0
  5  6  1  0  0  0  0
  7  6  1  1  0  0  0
  7  8  1  0  0  0  0
  7  9  1  0  0  0  0
 10  9  1  6  0  0  0
 10 11  1  0  0  0  0
 10 12  1  0  0  0  0
 11 16  1  0  0  0  0
 12 13  1  1  0  0  0
 12 14  1  0  0  0  0
 14 15  1  1  0  0  0
 14 16  1  0  0  0  0
 16 27  1  6  0  0  0
 18 19  2  0  0  0  0
 18 23  1  0  0  0  0
 19 20  1  0  0  0  0
 20 21  2  0  0  0  0
 21 22  1  0  0  0  0
 21 27  1  0  0  0  0
 22 23  2  0  0  0  0
 22 25  1  0  0  0  0
 23 24  1  0  0  0  0
 25 26  2  0  0  0  0
 26 27  1  0  0  0  0
M  END
>  <CHROM.1>
-127.09583936,-61.05424257,69.73705465,174.73314653,-171.40421572,-39.30995405
-126.10620241,10.42044725,9.68628610,22.84634588,2.64977009,-0.64433632,1.17639906

>  <Name>
ligand

>  <RI>
0

>  <Rbt.Current_Directory>
/home/itssahil/PROJECTS/Mol_Feturizer/Test_systems_manuscript/rnas/4aob

>  <Rbt.Executable>
rbdock ($Id: //depot/dev/client3/rdock/2013.1/src/exe/rbdock.cxx#4 $)

>  <Rbt.Library>
libRbt.so (2013.1, Build901 2013/11/27)

>  <Rbt.Parameter_File>
/export/apps/rDock/src/rDock_2013.1_src/data/scripts/dock_solv.prm

>  <Rbt.Receptor>
prm/blind_docking_40.prm

>  <SCORE>
-10.01

>  <SCORE.INTER>
-11.41

>  <SCORE.INTER.CONST>
1

>  <SCORE.INTER.POLAR>
0

>  <SCORE.INTER.ROT>
7

>  <SCORE.INTER.SOLV>
12.1431

>  <SCORE.INTER.VDW>
-19.921

>  <SCORE.INTER.norm>
-0.422594

>  <SCORE.INTRA>
1.4

>  <SCORE.INTRA.DIHEDRAL>
-0.632021

>  <SCORE.INTRA.DIHEDRAL.0>
6.31833

>  <SCORE.INTRA.POLAR>
0

>  <SCORE.INTRA.POLAR.0>
0

>  <SCORE.INTRA.REPUL>
0

>  <SCORE.INTRA.REPUL.0>
0

>  <SCORE.INTRA.SOLV>
2.41565

>  <SCORE.INTRA.SOLV.lig_0>
-48.4015

>  <SCORE.INTRA.VDW>
0.508182

>  <SCORE.INTRA.VDW.0>
-2.83256

>  <SCORE.INTRA.norm>
0.0518518

>  <SCORE.RESTR>
0

>  <SCORE.RESTR.CAVITY>
0

>  <SCORE.RESTR.norm>
0

>  <SCORE.SYSTEM>
0

>  <SCORE.SYSTEM.CONST>
0

>  <SCORE.SYSTEM.DIHEDRAL>
0

>  <SCORE.SYSTEM.SOLV>
0

>  <SCORE.SYSTEM.norm>
0

>  <SCORE.heavy>
27

>  <SCORE.norm>
-0.370742

>  <RMSD>
11.289

$$$$
ligand
 OpenBabel02271912153D
libRbt.so/2013.1/901 2013/11/27
 27 29  0  0  0  0  0  0  0  0999 V2000
    8.6475    5.8034   18.4979 N   0  0  0  0  0  0  0  0  0  0  0  0
    8.1137    7.1478   18.8237 C   0  0  2  0  0  0  0  0  0  0  0  0
    6.9273    7.4130   17.9059 C   0  0  0  0  0  0  0  0  0  0  0  0
    6.8384    7.0958   16.6734 O   0  0  0  0  0  0  0  0  0  0  0  0
    9.2387    8.1739   18.6718 C   0  0  0  0  0  0  0  0  0  0  0  0
   10.1510    8.2324   19.8898 C   0  0  0  0  0  0  0  0  0  0  0  0
    9.5861    8.7786   21.5448 S   0  0  2  0  0  0  0  0  0  0  0  0
    8.6683    7.3136   22.0161 C   0  0  0  0  0  0  0  0  0  0  0  0
    8.2928    9.9416   21.0054 C   0  0  0  0  0  0  0  0  0  0  0  0
    7.6385   10.6225   22.1760 C   0  0  1  0  0  0  0  0  0  0  0  0
    7.6242    9.7937   23.3633 O   0  0  0  0  0  0  0  0  0  0  0  0
    8.2746   11.9375   22.5647 C   0  0  1  0  0  0  0  0  0  0  0  0
    7.5442   12.9423   22.0087 O   0  0  0  0  0  0  0  0  0  0  0  0
    7.9900   11.9453   24.0484 C   0  0  1  0  0  0  0  0  0  0  0  0
    6.7198   12.4102   24.1746 O   0  0  0  0  0  0  0  0  0  0  0  0
    8.0373   10.4743   24.5175 C   0  0  2  0  0  0  0  0  0  0  0  0
    5.9926    8.0450   18.4013 O   0  0  0  0  0  0  0  0  0  0  0  0
   11.9841    8.7645   27.4628 N   0  0  0  0  0  0  0  0  0  0  0  0
   10.5648    8.8431   27.6631 C   0  0  0  0  0  0  0  0  0  0  0  0
    9.5836    9.3293   26.7638 N   0  0  0  0  0  0  0  0  0  0  0  0
   10.1098    9.7110   25.6678 C   0  0  0  0  0  0  0  0  0  0  0  0
   11.5572    9.6661   25.3621 C   0  0  0  0  0  0  0  0  0  0  0  0
   12.4539    9.2119   26.2472 C   0  0  0  0  0  0  0  0  0  0  0  0
   13.7110    9.2452   25.8553 N   0  0  0  0  0  0  0  0  0  0  0  0
   11.8580   10.1257   24.1710 N   0  0  0  0  0  0  0  0  0  0  0  0
   10.5909   10.4546   23.7256 C   0  0  0  0  0  0  0  0  0  0  0  0
    9.4936   10.1956   24.6440 N   0  0  0  0  0  0  0  0  0  0  0  0
  2  1  1  6  0  0  0
  2  3  1  0  0  0  0
  2  5  1  0  0  0  0
  3  4  1  0  0  0  0
  3 17  1  0  0  0  0
  5  6  1  0  0  0  0
  7  6  1  6  0  0  0
  7  8  1  0  0  0  0
  7  9  1  0  0  0  0
 10  9  1  6  0  0  0
 10 11  1  0  0  0  0
 10 12  1  0  0  0  0
 11 16  1  0  0  0  0
 12 13  1  6  0  0  0
 12 14  1  0  0  0  0
 14 15  1  6  0  0  0
 14 16  1  0  0  0  0
 16 27  1  6  0  0  0
 18 19  2  0  0  0  0
 18 23  1  0  0  0  0
 19 20  1  0  0  0  0
 20 21  2  0  0  0  0
 21 22  1  0  0  0  0
 21 27  1  0  0  0  0
 22 23  2  0  0  0  0
 22 25  1  0  0  0  0
 23 24  1  0  0  0  0
 25 26  2  0  0  0  0
 26 27  1  0  0  0  0
M  END
>  <CHROM.1>
-39.20060836,-81.47272434,-64.73874063,75.18304473,-178.07790943,-30.21052086
-125.92876611,9.13063096,9.36856834,22.58339822,-2.09976984,-0.69373378,0.93692711

>  <Name>
ligand

>  <RI>
0

>  <Rbt.Current_Directory>
/home/itssahil/PROJECTS/Mol_Feturizer/Test_systems_manuscript/rnas/4aob

>  <Rbt.Executable>
rbdock ($Id: //depot/dev/client3/rdock/2013.1/src/exe/rbdock.cxx#4 $)

>  <Rbt.Library>
libRbt.so (2013.1, Build901 2013/11/27)

>  <Rbt.Parameter_File>
/export/apps/rDock/src/rDock_2013.1_src/data/scripts/dock_solv.prm

>  <Rbt.Receptor>
prm/blind_docking_60.prm

>  <SCORE>
-6.88056

>  <SCORE.INTER>
-9.08288

>  <SCORE.INTER.CONST>
1

>  <SCORE.INTER.POLAR>
0

>  <SCORE.INTER.ROT>
7

>  <SCORE.INTER.SOLV>
8.5147

>  <SCORE.INTER.VDW>
-17.1602

>  <SCORE.INTER.norm>
-0.336403

>  <SCORE.INTRA>
2.20232

>  <SCORE.INTRA.DIHEDRAL>
2.74455

>  <SCORE.INTRA.DIHEDRAL.0>
6.31833

>  <SCORE.INTRA.POLAR>
0

>  <SCORE.INTRA.POLAR.0>
0

>  <SCORE.INTRA.REPUL>
0

>  <SCORE.INTRA.REPUL.0>
0

>  <SCORE.INTRA.SOLV>
0.942298

>  <SCORE.INTRA.SOLV.lig_0>
-48.4015

>  <SCORE.INTRA.VDW>
0.358896

>  <SCORE.INTRA.VDW.0>
-2.83256

>  <SCORE.INTRA.norm>
0.0815674

>  <SCORE.RESTR>
0

>  <SCORE.RESTR.CAVITY>
0

>  <SCORE.RESTR.norm>
0

>  <SCORE.SYSTEM>
0

>  <SCORE.SYSTEM.CONST>
0

>  <SCORE.SYSTEM.DIHEDRAL>
0

>  <SCORE.SYSTEM.SOLV>
0

>  <SCORE.SYSTEM.norm>
0

>  <SCORE.heavy>
27

>  <SCORE.norm>
-0.254835

>  <RMSD>
11.306

$$$$
ligand
 OpenBabel02271912153D
libRbt.so/2013.1/901 2013/11/27
 27 29  0  0  0  0  0  0  0  0999 V2000
    9.0021    8.8821   15.2471 N   0  0  0  0  0  0  0  0  0  0  0  0
    9.2903    8.2682   16.5656 C   0  0  2  0  0  0  0  0  0  0  0  0
    8.2943    8.8329   17.5702 C   0  0  0  0  0  0  0  0  0  0  0  0
    8.5501    9.6632   18.5044 O   0  0  0  0  0  0  0  0  0  0  0  0
   10.7484    8.5526   16.9325 C   0  0  0  0  0  0  0  0  0  0  0  0
   11.1918    7.8223   18.1932 C   0  0  0  0  0  0  0  0  0  0  0  0
   12.7935    8.1344   19.0261 S   0  0  2  0  0  0  0  0  0  0  0  0
   13.0939    6.4870   19.6638 C   0  0  0  0  0  0  0  0  0  0  0  0
   12.1604    9.0459   20.4699 C   0  0  0  0  0  0  0  0  0  0  0  0
   10.7222    8.7070   20.7505 C   0  0  1  0  0  0  0  0  0  0  0  0
   10.5511    7.3406   21.1984 O   0  0  0  0  0  0  0  0  0  0  0  0
   10.0650    9.5942   21.7829 C   0  0  1  0  0  0  0  0  0  0  0  0
    9.3557   10.5533   21.1275 O   0  0  0  0  0  0  0  0  0  0  0  0
    9.0678    8.6254   22.3740 C   0  0  1  0  0  0  0  0  0  0  0  0
    7.9993    8.6434   21.5353 O   0  0  0  0  0  0  0  0  0  0  0  0
    9.7237    7.2277   22.3248 C   0  0  2  0  0  0  0  0  0  0  0  0
    7.1453    8.3939   17.4959 O   0  0  0  0  0  0  0  0  0  0  0  0
   14.3850    5.9955   24.3070 N   0  0  0  0  0  0  0  0  0  0  0  0
   13.8095    5.8866   22.9965 C   0  0  0  0  0  0  0  0  0  0  0  0
   12.5114    6.2730   22.5800 N   0  0  0  0  0  0  0  0  0  0  0  0
   11.8480    6.7777   23.5438 C   0  0  0  0  0  0  0  0  0  0  0  0
   12.3515    6.9387   24.9262 C   0  0  0  0  0  0  0  0  0  0  0  0
   13.5817    6.5462   25.2817 C   0  0  0  0  0  0  0  0  0  0  0  0
   13.8961    6.7288   26.5477 N   0  0  0  0  0  0  0  0  0  0  0  0
   11.4781    7.4740   25.7453 N   0  0  0  0  0  0  0  0  0  0  0  0
   10.4235    7.6552   24.8696 C   0  0  0  0  0  0  0  0  0  0  0  0
   10.6424    7.2326   23.4954 N   0  0  0  0  0  0  0  0  0  0  0  0
  2  1  1  6  0  0  0
  2  3  1  0  0  0  0
  2  5  1  0  0  0  0
  3  4  1  0  0  0  0
  3 17  1  0  0  0  0
  5  6  1  0  0  0  0
  7  6  1  6  0  0  0
  7  8  1  0  0  0  0
  7  9  1  0  0  0  0
 10  9  1  1  0  0  0
 10 11  1  0  0  0  0
 10 12  1  0  0  0  0
 11 16  1  0  0  0  0
 12 13  1  6  0  0  0
 12 14  1  0  0  0  0
 14 15  1  6  0  0  0
 14 16  1  0  0  0  0
 16 27  1  1  0  0  0
 18 19  2  0  0  0  0
 18 23  1  0  0  0  0
 19 20  1  0  0  0  0
 20 21  2  0  0  0  0
 21 22  1  0  0  0  0
 21 27  1  0  0  0  0
 22 23  2  0  0  0  0
 22 25  1  0  0  0  0
 23 24  1  0  0  0  0
 25 26  2  0  0  0  0
 26 27  1  0  0  0  0
M  END
>  <CHROM.1>
-108.19002790,-173.12373730,-171.05916934,-148.05816714,23.90035030,67.62850381
-31.31805498,10.94064147,7.91366712,21.10323192,-2.04658961,-0.39410583,1.64641998

>  <Name>
ligand

>  <RI>
0

>  <Rbt.Current_Directory>
/home/itssahil/PROJECTS/Mol_Feturizer/Test_systems_manuscript/rnas/4aob

>  <Rbt.Executable>
rbdock ($Id: //depot/dev/client3/rdock/2013.1/src/exe/rbdock.cxx#4 $)

>  <Rbt.Library>
libRbt.so (2013.1, Build901 2013/11/27)

>  <Rbt.Parameter_File>
/export/apps/rDock/src/rDock_2013.1_src/data/scripts/dock_solv.prm

>  <Rbt.Receptor>
prm/blind_docking_60.prm

>  <SCORE>
-9.32637

>  <SCORE.INTER>
-11.7046

>  <SCORE.INTER.CONST>
1

>  <SCORE.INTER.POLAR>
0

>  <SCORE.INTER.ROT>
7

>  <SCORE.INTER.SOLV>
12.1182

>  <SCORE.INTER.VDW>
-20.1091

>  <SCORE.INTER.norm>
-0.433502

>  <SCORE.INTRA>
2.37819

>  <SCORE.INTRA.DIHEDRAL>
2.46247

>  <SCORE.INTRA.DIHEDRAL.0>
6.31833

>  <SCORE.INTRA.POLAR>
0

>  <SCORE.INTRA.POLAR.0>
0

>  <SCORE.INTRA.REPUL>
0

>  <SCORE.INTRA.REPUL.0>
0

>  <SCORE.INTRA.SOLV>
-0.358524

>  <SCORE.INTRA.SOLV.lig_0>
-48.4015

>  <SCORE.INTRA.VDW>
1.32622

>  <SCORE.INTRA.VDW.0>
-2.83256

>  <SCORE.INTRA.norm>
0.0880812

>  <SCORE.RESTR>
0

>  <SCORE.RESTR.CAVITY>
0

>  <SCORE.RESTR.norm>
0

>  <SCORE.SYSTEM>
0

>  <SCORE.SYSTEM.CONST>
0

>  <SCORE.SYSTEM.DIHEDRAL>
0

>  <SCORE.SYSTEM.SOLV>
0

>  <SCORE.SYSTEM.norm>
0

>  <SCORE.heavy>
27

>  <SCORE.norm>
-0.345421

>  <RMSD>
11.321

$$$$
ligand
 OpenBabel02271912153D
libRbt.so/2013.1/901 2013/11/27
 27 29  0  0  0  0  0  0  0  0999 V2000
    6.3918   13.8416   23.1078 N   0  0  0  0  0  0  0  0  0  0  0  0
    7.5919   13.1469   22.5830 C   0  0  2  0  0  0  0  0  0  0  0  0
    7.5361   13.2051   21.0619 C   0  0  0  0  0  0  0  0  0  0  0  0
    6.8113   12.4795   20.3031 O   0  0  0  0  0  0  0  0  0  0  0  0
    7.6147   11.7197   23.1345 C   0  0  0  0  0  0  0  0  0  0  0  0
    8.8374   10.9327   22.6816 C   0  0  0  0  0  0  0  0  0  0  0  0
    9.0547   10.3059   20.9739 S   0  0  2  0  0  0  0  0  0  0  0  0
    7.9257    8.9166   21.0483 C   0  0  0  0  0  0  0  0  0  0  0  0
   10.6935    9.5406   21.1863 C   0  0  0  0  0  0  0  0  0  0  0  0
   10.7081    8.5772   22.3411 C   0  0  1  0  0  0  0  0  0  0  0  0
   11.2826    7.2958   21.9877 O   0  0  0  0  0  0  0  0  0  0  0  0
   11.4568    9.0752   23.5562 C   0  0  1  0  0  0  0  0  0  0  0  0
   10.5493    9.5833   24.4342 O   0  0  0  0  0  0  0  0  0  0  0  0
   11.9459    7.7644   24.1262 C   0  0  1  0  0  0  0  0  0  0  0  0
   10.9070    7.2692   24.8479 O   0  0  0  0  0  0  0  0  0  0  0  0
   12.2158    6.8310   22.9254 C   0  0  2  0  0  0  0  0  0  0  0  0
    8.3123   13.9962   20.5234 O   0  0  0  0  0  0  0  0  0  0  0  0
   15.8949    6.5467   19.2432 N   0  0  0  0  0  0  0  0  0  0  0  0
   14.5922    5.9605   19.3844 C   0  0  0  0  0  0  0  0  0  0  0  0
   13.6721    6.1281   20.4489 N   0  0  0  0  0  0  0  0  0  0  0  0
   14.1319    6.9175   21.3373 C   0  0  0  0  0  0  0  0  0  0  0  0
   15.4566    7.5753   21.2823 C   0  0  0  0  0  0  0  0  0  0  0  0
   16.3032    7.3780   20.2634 C   0  0  0  0  0  0  0  0  0  0  0  0
   17.4567    8.0081   20.3489 N   0  0  0  0  0  0  0  0  0  0  0  0
   15.7105    8.3346   22.3212 N   0  0  0  0  0  0  0  0  0  0  0  0
   14.5356    8.1564   23.0281 C   0  0  0  0  0  0  0  0  0  0  0  0
   13.5422    7.2827   22.4243 N   0  0  0  0  0  0  0  0  0  0  0  0
  2  1  1  1  0  0  0
  2  3  1  0  0  0  0
  2  5  1  0  0  0  0
  3  4  1  0  0  0  0
  3 17  1  0  0  0  0
  5  6  1  0  0  0  0
  7  6  1  1  0  0  0
  7  8  1  0  0  0  0
  7  9  1  0  0  0  0
 10  9  1  6  0  0  0
 10 11  1  0  0  0  0
 10 12  1  0  0  0  0
 11 16  1  0  0  0  0
 12 13  1  1  0  0  0
 12 14  1  0  0  0  0
 14 15  1  1  0  0  0
 14 16  1  0  0  0  0
 16 27  1  6  0  0  0
 18 19  2  0  0  0  0
 18 23  1  0  0  0  0
 19 20  1  0  0  0  0
 20 21  2  0  0  0  0
 21 22  1  0  0  0  0
 21 27  1  0  0  0  0
 22 23  2  0  0  0  0
 22 25  1  0  0  0  0
 23 24  1  0  0  0  0
 25 26  2  0  0  0  0
 26 27  1  0  0  0  0
M  END
>  <CHROM.1>
-77.62914028,-178.37641219,-72.83220348,-75.92138552,53.50798786,130.64785841
-64.72210946,11.29032395,9.24794923,21.86457797,2.90056191,0.57258614,-1.00947285

>  <Name>
ligand

>  <RI>
0

>  <Rbt.Current_Directory>
/home/itssahil/PROJECTS/Mol_Feturizer/Test_systems_manuscript/rnas/4aob

>  <Rbt.Executable>
rbdock ($Id: //depot/dev/client3/rdock/2013.1/src/exe/rbdock.cxx#4 $)

>  <Rbt.Library>
libRbt.so (2013.1, Build901 2013/11/27)

>  <Rbt.Parameter_File>
/export/apps/rDock/src/rDock_2013.1_src/data/scripts/dock_solv.prm

>  <Rbt.Receptor>
prm/blind_docking_80.prm

>  <SCORE>
-12.4033

>  <SCORE.INTER>
-14.4968

>  <SCORE.INTER.CONST>
1

>  <SCORE.INTER.POLAR>
0

>  <SCORE.INTER.ROT>
7

>  <SCORE.INTER.SOLV>
16.9745

>  <SCORE.INTER.VDW>
-23.5893

>  <SCORE.INTER.norm>
-0.536917

>  <SCORE.INTRA>
2.09344

>  <SCORE.INTRA.DIHEDRAL>
2.62338

>  <SCORE.INTRA.DIHEDRAL.0>
6.31833

>  <SCORE.INTRA.POLAR>
0

>  <SCORE.INTRA.POLAR.0>
0

>  <SCORE.INTRA.REPUL>
0

>  <SCORE.INTRA.REPUL.0>
0

>  <SCORE.INTRA.SOLV>
-0.238987

>  <SCORE.INTRA.SOLV.lig_0>
-48.4015

>  <SCORE.INTRA.VDW>
0.901244

>  <SCORE.INTRA.VDW.0>
-2.83256

>  <SCORE.INTRA.norm>
0.0775348

>  <SCORE.RESTR>
0

>  <SCORE.RESTR.CAVITY>
0

>  <SCORE.RESTR.norm>
0

>  <SCORE.SYSTEM>
0

>  <SCORE.SYSTEM.CONST>
0

>  <SCORE.SYSTEM.DIHEDRAL>
0

>  <SCORE.SYSTEM.SOLV>
0

>  <SCORE.SYSTEM.norm>
0

>  <SCORE.heavy>
27

>  <SCORE.norm>
-0.459383

>  <RMSD>
11.423

$$$$
ligand
 OpenBabel02271912153D
libRbt.so/2013.1/901 2013/11/27
 27 29  0  0  0  0  0  0  0  0999 V2000
    5.9883    8.1161   18.5788 N   0  0  0  0  0  0  0  0  0  0  0  0
    6.6217    8.6836   19.7934 C   0  0  2  0  0  0  0  0  0  0  0  0
    7.4004    9.9245   19.3763 C   0  0  0  0  0  0  0  0  0  0  0  0
    8.0035   10.1016   18.2661 O   0  0  0  0  0  0  0  0  0  0  0  0
    7.4970    7.6078   20.4402 C   0  0  0  0  0  0  0  0  0  0  0  0
    7.8680    7.9375   21.8799 C   0  0  0  0  0  0  0  0  0  0  0  0
    8.8034    6.7952   22.9647 S   0  0  2  0  0  0  0  0  0  0  0  0
    7.6783    5.4012   22.9262 C   0  0  0  0  0  0  0  0  0  0  0  0
    8.4404    7.5975   24.5587 C   0  0  0  0  0  0  0  0  0  0  0  0
    9.4040    8.7157   24.8468 C   0  0  1  0  0  0  0  0  0  0  0  0
   10.7793    8.3440   24.5875 O   0  0  0  0  0  0  0  0  0  0  0  0
    9.1360    9.9829   24.0674 C   0  0  1  0  0  0  0  0  0  0  0  0
    8.4391   10.8339   24.8689 O   0  0  0  0  0  0  0  0  0  0  0  0
   10.5401   10.5277   23.9495 C   0  0  1  0  0  0  0  0  0  0  0  0
   10.7785   11.1798   25.1172 O   0  0  0  0  0  0  0  0  0  0  0  0
   11.4831    9.3081   23.8517 C   0  0  2  0  0  0  0  0  0  0  0  0
    7.4948   10.8128   20.2251 O   0  0  0  0  0  0  0  0  0  0  0  0
   13.0608    6.1543   20.0126 N   0  0  0  0  0  0  0  0  0  0  0  0
   13.3809    6.2463   21.4089 C   0  0  0  0  0  0  0  0  0  0  0  0
   12.8664    7.1597   22.3624 N   0  0  0  0  0  0  0  0  0  0  0  0
   12.0171    7.9494   21.8344 C   0  0  0  0  0  0  0  0  0  0  0  0
   11.6156    7.9324   20.4100 C   0  0  0  0  0  0  0  0  0  0  0  0
   12.1379    7.0605   19.5377 C   0  0  0  0  0  0  0  0  0  0  0  0
   11.7084    7.1668   18.2971 N   0  0  0  0  0  0  0  0  0  0  0  0
   10.7328    8.8519   20.1011 N   0  0  0  0  0  0  0  0  0  0  0  0
   10.5756    9.4443   21.3405 C   0  0  0  0  0  0  0  0  0  0  0  0
   11.3635    8.8884   22.4291 N   0  0  0  0  0  0  0  0  0  0  0  0
  2  1  1  6  0  0  0
  2  3  1  0  0  0  0
  2  5  1  0  0  0  0
  3  4  1  0  0  0  0
  3 17  1  0  0  0  0
  5  6  1  0  0  0  0
  7  6  1  6  0  0  0
  7  8  1  0  0  0  0
  7  9  1  0  0  0  0
 10  9  1  6  0  0  0
 10 11  1  0  0  0  0
 10 12  1  0  0  0  0
 11 16  1  0  0  0  0
 12 13  1  1  0  0  0
 12 14  1  0  0  0  0
 14 15  1  1  0  0  0
 14 16  1  0  0  0  0
 16 27  1  6  0  0  0
 18 19  2  0  0  0  0
 18 23  1  0  0  0  0
 19 20  1  0  0  0  0
 20 21  2  0  0  0  0
 21 22  1  0  0  0  0
 21 27  1  0  0  0  0
 22 23  2  0  0  0  0
 22 25  1  0  0  0  0
 23 24  1  0  0  0  0
 25 26  2  0  0  0  0
 26 27  1  0  0  0  0
M  END
>  <CHROM.1>
-33.51387175,-163.44421280,175.41093673,-59.03093840,-85.31733239,-45.68788567
-77.47887783,9.73575006,8.43036219,21.87350888,2.07202945,0.36304321,-1.85665960

>  <Name>
ligand

>  <RI>
0

>  <Rbt.Current_Directory>
/home/itssahil/PROJECTS/Mol_Feturizer/Test_systems_manuscript/rnas/4aob

>  <Rbt.Executable>
rbdock ($Id: //depot/dev/client3/rdock/2013.1/src/exe/rbdock.cxx#4 $)

>  <Rbt.Library>
libRbt.so (2013.1, Build901 2013/11/27)

>  <Rbt.Parameter_File>
/export/apps/rDock/src/rDock_2013.1_src/data/scripts/dock_solv.prm

>  <Rbt.Receptor>
prm/blind_docking_60.prm

>  <SCORE>
-11.1367

>  <SCORE.INTER>
-8.43785

>  <SCORE.INTER.CONST>
1

>  <SCORE.INTER.POLAR>
0

>  <SCORE.INTER.ROT>
7

>  <SCORE.INTER.SOLV>
14.3009

>  <SCORE.INTER.VDW>
-18.6589

>  <SCORE.INTER.norm>
-0.312513

>  <SCORE.INTRA>
-2.69889

>  <SCORE.INTRA.DIHEDRAL>
-0.535688

>  <SCORE.INTRA.DIHEDRAL.0>
6.31833

>  <SCORE.INTRA.POLAR>
0

>  <SCORE.INTRA.POLAR.0>
0

>  <SCORE.INTRA.REPUL>
0

>  <SCORE.INTRA.REPUL.0>
0

>  <SCORE.INTRA.SOLV>
-0.494851

>  <SCORE.INTRA.SOLV.lig_0>
-48.4015

>  <SCORE.INTRA.VDW>
-2.18362

>  <SCORE.INTRA.VDW.0>
-2.83256

>  <SCORE.INTRA.norm>
-0.0999587

>  <SCORE.RESTR>
0

>  <SCORE.RESTR.CAVITY>
0

>  <SCORE.RESTR.norm>
0

>  <SCORE.SYSTEM>
0

>  <SCORE.SYSTEM.CONST>
0

>  <SCORE.SYSTEM.DIHEDRAL>
0

>  <SCORE.SYSTEM.SOLV>
0

>  <SCORE.SYSTEM.norm>
0

>  <SCORE.heavy>
27

>  <SCORE.norm>
-0.412472

>  <RMSD>
11.483

$$$$
ligand
 OpenBabel02271912153D
libRbt.so/2013.1/901 2013/11/27
 27 29  0  0  0  0  0  0  0  0999 V2000
    6.0346   14.4183   23.3902 N   0  0  0  0  0  0  0  0  0  0  0  0
    7.1755   13.5786   22.9526 C   0  0  2  0  0  0  0  0  0  0  0  0
    7.2407   13.6369   21.4319 C   0  0  0  0  0  0  0  0  0  0  0  0
    8.1793   14.1461   20.7338 O   0  0  0  0  0  0  0  0  0  0  0  0
    6.9808   12.1617   23.4969 C   0  0  0  0  0  0  0  0  0  0  0  0
    8.1986   11.2740   23.2777 C   0  0  0  0  0  0  0  0  0  0  0  0
    8.9742   11.0167   21.6380 S   0  0  2  0  0  0  0  0  0  0  0  0
    7.6306   10.1442   20.8355 C   0  0  0  0  0  0  0  0  0  0  0  0
   10.1310    9.6900   22.1048 C   0  0  0  0  0  0  0  0  0  0  0  0
   11.0377    9.3202   20.9632 C   0  0  1  0  0  0  0  0  0  0  0  0
   12.4278    9.6168   21.2400 O   0  0  0  0  0  0  0  0  0  0  0  0
   10.9696    7.8643   20.5623 C   0  0  1  0  0  0  0  0  0  0  0  0
   10.1392    7.7588   19.4891 O   0  0  0  0  0  0  0  0  0  0  0  0
   12.3793    7.6579   20.0596 C   0  0  1  0  0  0  0  0  0  0  0  0
   12.3809    8.1119   18.7792 O   0  0  0  0  0  0  0  0  0  0  0  0
   13.2931    8.5620   20.9162 C   0  0  2  0  0  0  0  0  0  0  0  0
    6.2590   13.1951   20.8324 O   0  0  0  0  0  0  0  0  0  0  0  0
   14.4664    8.5673   25.9954 N   0  0  0  0  0  0  0  0  0  0  0  0
   14.3254    9.6051   25.0137 C   0  0  0  0  0  0  0  0  0  0  0  0
   13.9884    9.4690   23.6441 N   0  0  0  0  0  0  0  0  0  0  0  0
   13.7934    8.2482   23.3352 C   0  0  0  0  0  0  0  0  0  0  0  0
   13.9082    7.1084   24.2724 C   0  0  0  0  0  0  0  0  0  0  0  0
   14.2439    7.2798   25.5577 C   0  0  0  0  0  0  0  0  0  0  0  0
   14.3300    6.1799   26.2772 N   0  0  0  0  0  0  0  0  0  0  0  0
   13.6716    5.9442   23.7166 N   0  0  0  0  0  0  0  0  0  0  0  0
   13.4009    6.3576   22.4252 C   0  0  0  0  0  0  0  0  0  0  0  0
   13.4666    7.7887   22.1756 N   0  0  0  0  0  0  0  0  0  0  0  0
  2  1  1  6  0  0  0
  2  3  1  0  0  0  0
  2  5  1  0  0  0  0
  3  4  1  0  0  0  0
  3 17  1  0  0  0  0
  5  6  1  0  0  0  0
  7  6  1  1  0  0  0
  7  8  1  0  0  0  0
  7  9  1  0  0  0  0
 10  9  1  1  0  0  0
 10 11  1  0  0  0  0
 10 12  1  0  0  0  0
 11 16  1  0  0  0  0
 12 13  1  6  0  0  0
 12 14  1  0  0  0  0
 14 15  1  6  0  0  0
 14 16  1  0  0  0  0
 16 27  1  1  0  0  0
 18 19  2  0  0  0  0
 18 23  1  0  0  0  0
 19 20  1  0  0  0  0
 20 21  2  0  0  0  0
 21 22  1  0  0  0  0
 21 27  1  0  0  0  0
 22 23  2  0  0  0  0
 22 25  1  0  0  0  0
 23 24  1  0  0  0  0
 25 26  2  0  0  0  0
 26 27  1  0  0  0  0
M  END
>  <CHROM.1>
114.68565481,-171.50237023,-53.84808534,-66.09719101,-174.88962223,115.41485822
-51.12782651,10.88568457,9.70394932,22.29383119,-3.10969768,0.71237436,-1.93903309

>  <Name>
ligand

>  <RI>
0

>  <Rbt.Current_Directory>
/home/itssahil/PROJECTS/Mol_Feturizer/Test_systems_manuscript/rnas/4aob

>  <Rbt.Executable>
rbdock ($Id: //depot/dev/client3/rdock/2013.1/src/exe/rbdock.cxx#4 $)

>  <Rbt.Library>
libRbt.so (2013.1, Build901 2013/11/27)

>  <Rbt.Parameter_File>
/export/apps/rDock/src/rDock_2013.1_src/data/scripts/dock_solv.prm

>  <Rbt.Receptor>
prm/blind_docking_100.prm

>  <SCORE>
-14.561

>  <SCORE.INTER>
-15.3385

>  <SCORE.INTER.CONST>
1

>  <SCORE.INTER.POLAR>
0

>  <SCORE.INTER.ROT>
7

>  <SCORE.INTER.SOLV>
16.8084

>  <SCORE.INTER.VDW>
-24.0951

>  <SCORE.INTER.norm>
-0.568093

>  <SCORE.INTRA>
0.777492

>  <SCORE.INTRA.DIHEDRAL>
2.91

>  <SCORE.INTRA.DIHEDRAL.0>
6.31833

>  <SCORE.INTRA.POLAR>
0

>  <SCORE.INTRA.POLAR.0>
0

>  <SCORE.INTRA.REPUL>
0

>  <SCORE.INTRA.REPUL.0>
0

>  <SCORE.INTRA.SOLV>
-0.515222

>  <SCORE.INTRA.SOLV.lig_0>
-48.4015

>  <SCORE.INTRA.VDW>
-0.419897

>  <SCORE.INTRA.VDW.0>
-2.83256

>  <SCORE.INTRA.norm>
0.028796

>  <SCORE.RESTR>
0

>  <SCORE.RESTR.CAVITY>
0

>  <SCORE.RESTR.norm>
0

>  <SCORE.SYSTEM>
0

>  <SCORE.SYSTEM.CONST>
0

>  <SCORE.SYSTEM.DIHEDRAL>
0

>  <SCORE.SYSTEM.SOLV>
0

>  <SCORE.SYSTEM.norm>
0

>  <SCORE.heavy>
27

>  <SCORE.norm>
-0.539297

>  <RMSD>
11.608

$$$$
ligand
 OpenBabel02271912153D
libRbt.so/2013.1/901 2013/11/27
 27 29  0  0  0  0  0  0  0  0999 V2000
    7.6232   12.9469   20.3362 N   0  0  0  0  0  0  0  0  0  0  0  0
    6.9536   12.7138   21.6384 C   0  0  2  0  0  0  0  0  0  0  0  0
    6.5661   14.0705   22.2124 C   0  0  0  0  0  0  0  0  0  0  0  0
    6.6382   15.1943   21.6128 O   0  0  0  0  0  0  0  0  0  0  0  0
    7.8994   11.9208   22.5430 C   0  0  0  0  0  0  0  0  0  0  0  0
    8.0259   10.4612   22.1276 C   0  0  0  0  0  0  0  0  0  0  0  0
    8.8401    9.9232   20.5771 S   0  0  2  0  0  0  0  0  0  0  0  0
    8.2553    8.2300   20.5361 C   0  0  0  0  0  0  0  0  0  0  0  0
   10.5394    9.7763   21.2153 C   0  0  0  0  0  0  0  0  0  0  0  0
   10.5931    8.9240   22.4532 C   0  0  1  0  0  0  0  0  0  0  0  0
   11.0638    7.5815   22.1829 O   0  0  0  0  0  0  0  0  0  0  0  0
   11.4648    9.4827   23.5546 C   0  0  1  0  0  0  0  0  0  0  0  0
   10.6617   10.1261   24.4454 O   0  0  0  0  0  0  0  0  0  0  0  0
   11.9237    8.2012   24.2101 C   0  0  1  0  0  0  0  0  0  0  0  0
   10.9204    7.8417   25.0525 O   0  0  0  0  0  0  0  0  0  0  0  0
   12.0422    7.1461   23.0881 C   0  0  2  0  0  0  0  0  0  0  0  0
    6.2016   14.0741   23.3895 O   0  0  0  0  0  0  0  0  0  0  0  0
   15.2755    6.4894   19.0520 N   0  0  0  0  0  0  0  0  0  0  0  0
   13.9439    6.0337   19.3345 C   0  0  0  0  0  0  0  0  0  0  0  0
   13.1594    6.2946   20.4853 N   0  0  0  0  0  0  0  0  0  0  0  0
   13.7829    7.0389   21.3106 C   0  0  0  0  0  0  0  0  0  0  0  0
   15.1521    7.5640   21.1107 C   0  0  0  0  0  0  0  0  0  0  0  0
   15.8656    7.2810   20.0131 C   0  0  0  0  0  0  0  0  0  0  0  0
   17.0773    7.7958   19.9709 N   0  0  0  0  0  0  0  0  0  0  0  0
   15.5845    8.2991   22.1072 N   0  0  0  0  0  0  0  0  0  0  0  0
   14.4773    8.2392   22.9334 C   0  0  0  0  0  0  0  0  0  0  0  0
   13.3470    7.4642   22.4471 N   0  0  0  0  0  0  0  0  0  0  0  0
  2  1  1  6  0  0  0
  2  3  1  0  0  0  0
  2  5  1  0  0  0  0
  3  4  1  0  0  0  0
  3 17  1  0  0  0  0
  5  6  1  0  0  0  0
  7  6  1  1  0  0  0
  7  8  1  0  0  0  0
  7  9  1  0  0  0  0
 10  9  1  6  0  0  0
 10 11  1  0  0  0  0
 10 12  1  0  0  0  0
 11 16  1  0  0  0  0
 12 13  1  1  0  0  0
 12 14  1  0  0  0  0
 14 15  1  1  0  0  0
 14 16  1  0  0  0  0
 16 27  1  6  0  0  0
 18 19  2  0  0  0  0
 18 23  1  0  0  0  0
 19 20  1  0  0  0  0
 20 21  2  0  0  0  0
 21 22  1  0  0  0  0
 21 27  1  0  0  0  0
 22 23  2  0  0  0  0
 22 25  1  0  0  0  0
 23 24  1  0  0  0  0
 25 26  2  0  0  0  0
 26 27  1  0  0  0  0
M  END
>  <CHROM.1>
8.50478139,-73.30882041,68.22449651,-166.01066196,52.02520177,101.53514790
-59.20161402,11.02539645,9.39776825,21.83226839,3.13059138,-0.65588117,1.72403420

>  <Name>
ligand

>  <RI>
0

>  <Rbt.Current_Directory>
/home/itssahil/PROJECTS/Mol_Feturizer/Test_systems_manuscript/rnas/4aob

>  <Rbt.Executable>
rbdock ($Id: //depot/dev/client3/rdock/2013.1/src/exe/rbdock.cxx#4 $)

>  <Rbt.Library>
libRbt.so (2013.1, Build901 2013/11/27)

>  <Rbt.Parameter_File>
/export/apps/rDock/src/rDock_2013.1_src/data/scripts/dock_solv.prm

>  <Rbt.Receptor>
prm/blind_docking_40.prm

>  <SCORE>
-10.4097

>  <SCORE.INTER>
-13.5366

>  <SCORE.INTER.CONST>
1

>  <SCORE.INTER.POLAR>
0

>  <SCORE.INTER.ROT>
7

>  <SCORE.INTER.SOLV>
14.8183

>  <SCORE.INTER.VDW>
-22.2305

>  <SCORE.INTER.norm>
-0.501357

>  <SCORE.INTRA>
3.12692

>  <SCORE.INTRA.DIHEDRAL>
3.14434

>  <SCORE.INTRA.DIHEDRAL.0>
6.31833

>  <SCORE.INTRA.POLAR>
0

>  <SCORE.INTRA.POLAR.0>
0

>  <SCORE.INTRA.REPUL>
0

>  <SCORE.INTRA.REPUL.0>
0

>  <SCORE.INTRA.SOLV>
1.41165

>  <SCORE.INTRA.SOLV.lig_0>
-48.4015

>  <SCORE.INTRA.VDW>
0.848922

>  <SCORE.INTRA.VDW.0>
-2.83256

>  <SCORE.INTRA.norm>
0.115812

>  <SCORE.RESTR>
0

>  <SCORE.RESTR.CAVITY>
0

>  <SCORE.RESTR.norm>
0

>  <SCORE.SYSTEM>
0

>  <SCORE.SYSTEM.CONST>
0

>  <SCORE.SYSTEM.DIHEDRAL>
0

>  <SCORE.SYSTEM.SOLV>
0

>  <SCORE.SYSTEM.norm>
0

>  <SCORE.heavy>
27

>  <SCORE.norm>
-0.385545

>  <RMSD>
11.643

$$$$
ligand
 OpenBabel02271912153D
libRbt.so/2013.1/901 2013/11/27
 27 29  0  0  0  0  0  0  0  0999 V2000
   11.1288    7.3085   28.2830 N   0  0  0  0  0  0  0  0  0  0  0  0
   11.6165    8.6692   27.9525 C   0  0  2  0  0  0  0  0  0  0  0  0
   10.5949    9.3184   27.0278 C   0  0  0  0  0  0  0  0  0  0  0  0
   10.4589   10.5678   26.8089 O   0  0  0  0  0  0  0  0  0  0  0  0
   13.0101    8.5549   27.3310 C   0  0  0  0  0  0  0  0  0  0  0  0
   13.0097    7.7742   26.0234 C   0  0  0  0  0  0  0  0  0  0  0  0
   14.3986    7.8108   24.8292 S   0  0  2  0  0  0  0  0  0  0  0  0
   14.3229    9.5430   24.3771 C   0  0  0  0  0  0  0  0  0  0  0  0
   13.5702    6.9678   23.4438 C   0  0  0  0  0  0  0  0  0  0  0  0
   14.4990    6.7806   22.2758 C   0  0  1  0  0  0  0  0  0  0  0  0
   13.9703    5.8635   21.2876 O   0  0  0  0  0  0  0  0  0  0  0  0
   14.8474    8.0589   21.5481 C   0  0  1  0  0  0  0  0  0  0  0  0
   16.0561    8.4892   22.0026 O   0  0  0  0  0  0  0  0  0  0  0  0
   15.0591    7.5237   20.1513 C   0  0  1  0  0  0  0  0  0  0  0  0
   16.3320    7.0494   20.1305 O   0  0  0  0  0  0  0  0  0  0  0  0
   14.0784    6.3434   19.9745 C   0  0  2  0  0  0  0  0  0  0  0  0
    9.7930    8.5539   26.4883 O   0  0  0  0  0  0  0  0  0  0  0  0
   10.0277    6.9519   16.7502 N   0  0  0  0  0  0  0  0  0  0  0  0
   11.1805    6.0966   16.7366 C   0  0  0  0  0  0  0  0  0  0  0  0
   12.2215    6.0221   17.6950 N   0  0  0  0  0  0  0  0  0  0  0  0
   12.0253    6.8370   18.6548 C   0  0  0  0  0  0  0  0  0  0  0  0
   10.8690    7.7544   18.7642 C   0  0  0  0  0  0  0  0  0  0  0  0
    9.9132    7.8036   17.8273 C   0  0  0  0  0  0  0  0  0  0  0  0
    8.9512    8.6783   18.0379 N   0  0  0  0  0  0  0  0  0  0  0  0
   10.8938    8.5063   19.8386 N   0  0  0  0  0  0  0  0  0  0  0  0
   12.0691    8.0529   20.4087 C   0  0  0  0  0  0  0  0  0  0  0  0
   12.7795    7.0098   19.6862 N   0  0  0  0  0  0  0  0  0  0  0  0
  2  1  1  6  0  0  0
  2  3  1  0  0  0  0
  2  5  1  0  0  0  0
  3  4  1  0  0  0  0
  3 17  1  0  0  0  0
  5  6  1  0  0  0  0
  7  6  1  1  0  0  0
  7  8  1  0  0  0  0
  7  9  1  0  0  0  0
 10  9  1  1  0  0  0
 10 11  1  0  0  0  0
 10 12  1  0  0  0  0
 11 16  1  0  0  0  0
 12 13  1  1  0  0  0
 12 14  1  0  0  0  0
 14 15  1  1  0  0  0
 14 16  1  0  0  0  0
 16 27  1  1  0  0  0
 18 19  2  0  0  0  0
 18 23  1  0  0  0  0
 19 20  1  0  0  0  0
 20 21  2  0  0  0  0
 21 22  1  0  0  0  0
 21 27  1  0  0  0  0
 22 23  2  0  0  0  0
 22 25  1  0  0  0  0
 23 24  1  0  0  0  0
 25 26  2  0  0  0  0
 26 27  1  0  0  0  0
M  END
>  <CHROM.1>
160.04896333,62.47643289,164.12981069,-63.98246142,-177.57194714,167.15818485
-130.31705828,12.64347735,7.76040882,22.24347626,1.53828238,-0.18393762,1.38785298

>  <Name>
ligand

>  <RI>
0

>  <Rbt.Current_Directory>
/home/itssahil/PROJECTS/Mol_Feturizer/Test_systems_manuscript/rnas/4aob

>  <Rbt.Executable>
rbdock ($Id: //depot/dev/client3/rdock/2013.1/src/exe/rbdock.cxx#4 $)

>  <Rbt.Library>
libRbt.so (2013.1, Build901 2013/11/27)

>  <Rbt.Parameter_File>
/export/apps/rDock/src/rDock_2013.1_src/data/scripts/dock_solv.prm

>  <Rbt.Receptor>
prm/blind_docking_100.prm

>  <SCORE>
-9.55214

>  <SCORE.INTER>
-9.99797

>  <SCORE.INTER.CONST>
1

>  <SCORE.INTER.POLAR>
0

>  <SCORE.INTER.ROT>
7

>  <SCORE.INTER.SOLV>
12.4731

>  <SCORE.INTER.VDW>
-19.0897

>  <SCORE.INTER.norm>
-0.370295

>  <SCORE.INTRA>
0.445823

>  <SCORE.INTRA.DIHEDRAL>
-1.21441

>  <SCORE.INTRA.DIHEDRAL.0>
6.31833

>  <SCORE.INTRA.POLAR>
0

>  <SCORE.INTRA.POLAR.0>
0

>  <SCORE.INTRA.REPUL>
0

>  <SCORE.INTRA.REPUL.0>
0

>  <SCORE.INTRA.SOLV>
0.211241

>  <SCORE.INTRA.SOLV.lig_0>
-48.4015

>  <SCORE.INTRA.VDW>
0.947407

>  <SCORE.INTRA.VDW.0>
-2.83256

>  <SCORE.INTRA.norm>
0.016512

>  <SCORE.RESTR>
0

>  <SCORE.RESTR.CAVITY>
0

>  <SCORE.RESTR.norm>
0

>  <SCORE.SYSTEM>
0

>  <SCORE.SYSTEM.CONST>
0

>  <SCORE.SYSTEM.DIHEDRAL>
0

>  <SCORE.SYSTEM.SOLV>
0

>  <SCORE.SYSTEM.norm>
0

>  <SCORE.heavy>
27

>  <SCORE.norm>
-0.353783

>  <RMSD>
11.742

$$$$
ligand
 OpenBabel02271912153D
libRbt.so/2013.1/901 2013/11/27
 27 29  0  0  0  0  0  0  0  0999 V2000
    6.4665    6.8478   23.1602 N   0  0  0  0  0  0  0  0  0  0  0  0
    6.6071    6.2817   21.7972 C   0  0  2  0  0  0  0  0  0  0  0  0
    6.5545    4.7639   21.9153 C   0  0  0  0  0  0  0  0  0  0  0  0
    5.7467    3.9853   21.3081 O   0  0  0  0  0  0  0  0  0  0  0  0
    7.9102    6.7968   21.1823 C   0  0  0  0  0  0  0  0  0  0  0  0
    7.9261    8.3108   21.0185 C   0  0  0  0  0  0  0  0  0  0  0  0
    6.8035    9.2120   19.8852 S   0  0  2  0  0  0  0  0  0  0  0  0
    7.4127    8.5664   18.3287 C   0  0  0  0  0  0  0  0  0  0  0  0
    7.5811   10.8545   20.0038 C   0  0  0  0  0  0  0  0  0  0  0  0
    7.1230   11.5957   21.2296 C   0  0  1  0  0  0  0  0  0  0  0  0
    6.9988   10.7330   22.3860 O   0  0  0  0  0  0  0  0  0  0  0  0
    8.0191   12.7448   21.6317 C   0  0  1  0  0  0  0  0  0  0  0  0
    7.4749   13.8953   21.1496 O   0  0  0  0  0  0  0  0  0  0  0  0
    7.8057   12.7410   23.1274 C   0  0  1  0  0  0  0  0  0  0  0  0
    6.6570   13.4360   23.3345 O   0  0  0  0  0  0  0  0  0  0  0  0
    7.5860   11.2690   23.5410 C   0  0  2  0  0  0  0  0  0  0  0  0
    7.3376    4.2581   22.7212 O   0  0  0  0  0  0  0  0  0  0  0  0
   11.7723   10.0048   26.3786 N   0  0  0  0  0  0  0  0  0  0  0  0
   10.4727   10.5165   26.7102 C   0  0  0  0  0  0  0  0  0  0  0  0
    9.4030   10.8145   25.8300 N   0  0  0  0  0  0  0  0  0  0  0  0
    9.7137   10.5573   24.6213 C   0  0  0  0  0  0  0  0  0  0  0  0
   11.0211   10.0238   24.1778 C   0  0  0  0  0  0  0  0  0  0  0  0
   12.0119    9.7693   25.0423 C   0  0  0  0  0  0  0  0  0  0  0  0
   13.1298    9.3164   24.5129 N   0  0  0  0  0  0  0  0  0  0  0  0
   11.1066    9.8521   22.8803 N   0  0  0  0  0  0  0  0  0  0  0  0
    9.8432   10.2746   22.5094 C   0  0  0  0  0  0  0  0  0  0  0  0
    8.9643   10.7095   23.5831 N   0  0  0  0  0  0  0  0  0  0  0  0
  2  1  1  1  0  0  0
  2  3  1  0  0  0  0
  2  5  1  0  0  0  0
  3  4  1  0  0  0  0
  3 17  1  0  0  0  0
  5  6  1  0  0  0  0
  7  6  1  1  0  0  0
  7  8  1  0  0  0  0
  7  9  1  0  0  0  0
 10  9  1  6  0  0  0
 10 11  1  0  0  0  0
 10 12  1  0  0  0  0
 11 16  1  0  0  0  0
 12 13  1  6  0  0  0
 12 14  1  0  0  0  0
 14 15  1  6  0  0  0
 14 16  1  0  0  0  0
 16 27  1  6  0  0  0
 18 19  2  0  0  0  0
 18 23  1  0  0  0  0
 19 20  1  0  0  0  0
 20 21  2  0  0  0  0
 21 22  1  0  0  0  0
 21 27  1  0  0  0  0
 22 23  2  0  0  0  0
 22 25  1  0  0  0  0
 23 24  1  0  0  0  0
 25 26  2  0  0  0  0
 26 27  1  0  0  0  0
M  END
>  <CHROM.1>
124.05040227,-62.43516434,-65.45775416,-65.34823159,-82.05806695,39.49341870
-155.81304130,8.34395858,9.52406852,22.54362774,-2.34460123,-0.83012975,-0.06010252

>  <Name>
ligand

>  <RI>
0

>  <Rbt.Current_Directory>
/home/itssahil/PROJECTS/Mol_Feturizer/Test_systems_manuscript/rnas/4aob

>  <Rbt.Executable>
rbdock ($Id: //depot/dev/client3/rdock/2013.1/src/exe/rbdock.cxx#4 $)

>  <Rbt.Library>
libRbt.so (2013.1, Build901 2013/11/27)

>  <Rbt.Parameter_File>
/export/apps/rDock/src/rDock_2013.1_src/data/scripts/dock_solv.prm

>  <Rbt.Receptor>
prm/blind_docking_100.prm

>  <SCORE>
-14.1456

>  <SCORE.INTER>
-13.4819

>  <SCORE.INTER.CONST>
1

>  <SCORE.INTER.POLAR>
0

>  <SCORE.INTER.ROT>
7

>  <SCORE.INTER.SOLV>
10.4962

>  <SCORE.INTER.VDW>
-20.7533

>  <SCORE.INTER.norm>
-0.49933

>  <SCORE.INTRA>
-0.663655

>  <SCORE.INTRA.DIHEDRAL>
-1.29556

>  <SCORE.INTRA.DIHEDRAL.0>
6.31833

>  <SCORE.INTRA.POLAR>
0

>  <SCORE.INTRA.POLAR.0>
0

>  <SCORE.INTRA.REPUL>
0

>  <SCORE.INTRA.REPUL.0>
0

>  <SCORE.INTRA.SOLV>
0.754648

>  <SCORE.INTRA.SOLV.lig_0>
-48.4015

>  <SCORE.INTRA.VDW>
-0.393199

>  <SCORE.INTRA.VDW.0>
-2.83256

>  <SCORE.INTRA.norm>
-0.0245798

>  <SCORE.RESTR>
0

>  <SCORE.RESTR.CAVITY>
0

>  <SCORE.RESTR.norm>
0

>  <SCORE.SYSTEM>
0

>  <SCORE.SYSTEM.CONST>
0

>  <SCORE.SYSTEM.DIHEDRAL>
0

>  <SCORE.SYSTEM.SOLV>
0

>  <SCORE.SYSTEM.norm>
0

>  <SCORE.heavy>
27

>  <SCORE.norm>
-0.523909

>  <RMSD>
11.871

$$$$
ligand
 OpenBabel02271912153D
libRbt.so/2013.1/901 2013/11/27
 27 29  0  0  0  0  0  0  0  0999 V2000
   11.3090    8.6951   16.3587 N   0  0  0  0  0  0  0  0  0  0  0  0
   10.6774    7.7211   17.2811 C   0  0  2  0  0  0  0  0  0  0  0  0
   10.2512    6.5108   16.4602 C   0  0  0  0  0  0  0  0  0  0  0  0
    9.1180    5.9267   16.5058 O   0  0  0  0  0  0  0  0  0  0  0  0
    9.5129    8.4071   17.9988 C   0  0  0  0  0  0  0  0  0  0  0  0
    8.9407    7.5649   19.1312 C   0  0  0  0  0  0  0  0  0  0  0  0
    7.6426    8.1663   20.2757 S   0  0  2  0  0  0  0  0  0  0  0  0
    6.3639    8.5242   19.0727 C   0  0  0  0  0  0  0  0  0  0  0  0
    8.3583    9.8002   20.6422 C   0  0  0  0  0  0  0  0  0  0  0  0
    7.4793   10.5932   21.5698 C   0  0  1  0  0  0  0  0  0  0  0  0
    7.0316    9.8183   22.7081 O   0  0  0  0  0  0  0  0  0  0  0  0
    8.1240   11.8464   22.1165 C   0  0  1  0  0  0  0  0  0  0  0  0
    7.7028   12.9013   21.3666 O   0  0  0  0  0  0  0  0  0  0  0  0
    7.4302   11.9434   23.4550 C   0  0  1  0  0  0  0  0  0  0  0  0
    6.2388   12.5470   23.2064 O   0  0  0  0  0  0  0  0  0  0  0  0
    7.1728   10.4955   23.9278 C   0  0  2  0  0  0  0  0  0  0  0  0
   11.1138    6.0263   15.7257 O   0  0  0  0  0  0  0  0  0  0  0  0
   10.7941    6.7693   24.3483 N   0  0  0  0  0  0  0  0  0  0  0  0
    9.5572    6.8668   23.6264 C   0  0  0  0  0  0  0  0  0  0  0  0
    8.6538    7.9578   23.5891 N   0  0  0  0  0  0  0  0  0  0  0  0
    9.0726    8.9292   24.2995 C   0  0  0  0  0  0  0  0  0  0  0  0
   10.3332    8.9298   25.0751 C   0  0  0  0  0  0  0  0  0  0  0  0
   11.1528    7.8706   25.0947 C   0  0  0  0  0  0  0  0  0  0  0  0
   12.2308    7.9962   25.8410 N   0  0  0  0  0  0  0  0  0  0  0  0
   10.5428   10.0420   25.7379 N   0  0  0  0  0  0  0  0  0  0  0  0
    9.4100   10.7447   25.3704 C   0  0  0  0  0  0  0  0  0  0  0  0
    8.4904   10.0669   24.4707 N   0  0  0  0  0  0  0  0  0  0  0  0
  2  1  1  6  0  0  0
  2  3  1  0  0  0  0
  2  5  1  0  0  0  0
  3  4  1  0  0  0  0
  3 17  1  0  0  0  0
  5  6  1  0  0  0  0
  7  6  1  6  0  0  0
  7  8  1  0  0  0  0
  7  9  1  0  0  0  0
 10  9  1  1  0  0  0
 10 11  1  0  0  0  0
 10 12  1  0  0  0  0
 11 16  1  0  0  0  0
 12 13  1  6  0  0  0
 12 14  1  0  0  0  0
 14 15  1  6  0  0  0
 14 16  1  0  0  0  0
 16 27  1  6  0  0  0
 18 19  2  0  0  0  0
 18 23  1  0  0  0  0
 19 20  1  0  0  0  0
 20 21  2  0  0  0  0
 21 22  1  0  0  0  0
 21 27  1  0  0  0  0
 22 23  2  0  0  0  0
 22 25  1  0  0  0  0
 23 24  1  0  0  0  0
 25 26  2  0  0  0  0
 26 27  1  0  0  0  0
M  END
>  <CHROM.1>
-132.72150239,-170.64560787,174.33566205,59.03477705,178.63334161,47.12784901
-30.89209121,8.95296294,8.99715339,21.50847624,-1.41871447,-0.81334236,1.31378378

>  <Name>
ligand

>  <RI>
0

>  <Rbt.Current_Directory>
/home/itssahil/PROJECTS/Mol_Feturizer/Test_systems_manuscript/rnas/4aob

>  <Rbt.Executable>
rbdock ($Id: //depot/dev/client3/rdock/2013.1/src/exe/rbdock.cxx#4 $)

>  <Rbt.Library>
libRbt.so (2013.1, Build901 2013/11/27)

>  <Rbt.Parameter_File>
/export/apps/rDock/src/rDock_2013.1_src/data/scripts/dock_solv.prm

>  <Rbt.Receptor>
prm/blind_docking_100.prm

>  <SCORE>
-10.834

>  <SCORE.INTER>
-9.95244

>  <SCORE.INTER.CONST>
1

>  <SCORE.INTER.POLAR>
0

>  <SCORE.INTER.ROT>
7

>  <SCORE.INTER.SOLV>
9.28621

>  <SCORE.INTER.VDW>
-17.997

>  <SCORE.INTER.norm>
-0.368609

>  <SCORE.INTRA>
-0.881577

>  <SCORE.INTRA.DIHEDRAL>
-2.01822

>  <SCORE.INTRA.DIHEDRAL.0>
6.31833

>  <SCORE.INTRA.POLAR>
0

>  <SCORE.INTRA.POLAR.0>
0

>  <SCORE.INTRA.REPUL>
0

>  <SCORE.INTRA.REPUL.0>
0

>  <SCORE.INTRA.SOLV>
-0.685355

>  <SCORE.INTRA.SOLV.lig_0>
-48.4015

>  <SCORE.INTRA.VDW>
0.47021

>  <SCORE.INTRA.VDW.0>
-2.83256

>  <SCORE.INTRA.norm>
-0.032651

>  <SCORE.RESTR>
0

>  <SCORE.RESTR.CAVITY>
0

>  <SCORE.RESTR.norm>
0

>  <SCORE.SYSTEM>
0

>  <SCORE.SYSTEM.CONST>
0

>  <SCORE.SYSTEM.DIHEDRAL>
0

>  <SCORE.SYSTEM.SOLV>
0

>  <SCORE.SYSTEM.norm>
0

>  <SCORE.heavy>
27

>  <SCORE.norm>
-0.40126

>  <RMSD>
11.885

$$$$
ligand
 OpenBabel02271912153D
libRbt.so/2013.1/901 2013/11/27
 27 29  0  0  0  0  0  0  0  0999 V2000
   11.0295    6.4790   28.5390 N   0  0  0  0  0  0  0  0  0  0  0  0
   12.1334    7.4688   28.5466 C   0  0  2  0  0  0  0  0  0  0  0  0
   11.5317    8.8399   28.2670 C   0  0  0  0  0  0  0  0  0  0  0  0
   10.4401    9.0757   27.6504 O   0  0  0  0  0  0  0  0  0  0  0  0
   13.1813    7.0450   27.5150 C   0  0  0  0  0  0  0  0  0  0  0  0
   12.5888    6.8263   26.1293 C   0  0  0  0  0  0  0  0  0  0  0  0
   13.5700    6.9394   24.5862 S   0  0  2  0  0  0  0  0  0  0  0  0
   14.0608    8.6588   24.7013 C   0  0  0  0  0  0  0  0  0  0  0  0
   12.1868    6.9650   23.4020 C   0  0  0  0  0  0  0  0  0  0  0  0
   12.6715    7.1456   21.9897 C   0  0  1  0  0  0  0  0  0  0  0  0
   11.6267    6.9248   21.0117 O   0  0  0  0  0  0  0  0  0  0  0  0
   13.2606    8.5082   21.7047 C   0  0  1  0  0  0  0  0  0  0  0  0
   14.6152    8.4115   21.7953 O   0  0  0  0  0  0  0  0  0  0  0  0
   12.9187    8.6475   20.2397 C   0  0  1  0  0  0  0  0  0  0  0  0
   13.8937    7.9778   19.5715 O   0  0  0  0  0  0  0  0  0  0  0  0
   11.5719    7.9215   20.0269 C   0  0  2  0  0  0  0  0  0  0  0  0
   12.2032    9.8077   28.6289 O   0  0  0  0  0  0  0  0  0  0  0  0
    7.1352   10.5172   19.1595 N   0  0  0  0  0  0  0  0  0  0  0  0
    7.8456    9.5053   18.4302 C   0  0  0  0  0  0  0  0  0  0  0  0
    9.0583    8.8643   18.7858 N   0  0  0  0  0  0  0  0  0  0  0  0
    9.4941    9.2885   19.9056 C   0  0  0  0  0  0  0  0  0  0  0  0
    8.8347   10.3220   20.7348 C   0  0  0  0  0  0  0  0  0  0  0  0
    7.6952   10.9142   20.3542 C   0  0  0  0  0  0  0  0  0  0  0  0
    7.2257   11.8308   21.1753 N   0  0  0  0  0  0  0  0  0  0  0  0
    9.4814   10.6003   21.8414 N   0  0  0  0  0  0  0  0  0  0  0  0
   10.5489    9.7317   21.7077 C   0  0  0  0  0  0  0  0  0  0  0  0
   10.5657    8.9049   20.5115 N   0  0  0  0  0  0  0  0  0  0  0  0
  2  1  1  6  0  0  0
  2  3  1  0  0  0  0
  2  5  1  0  0  0  0
  3  4  1  0  0  0  0
  3 17  1  0  0  0  0
  5  6  1  0  0  0  0
  7  6  1  1  0  0  0
  7  8  1  0  0  0  0
  7  9  1  0  0  0  0
 10  9  1  1  0  0  0
 10 11  1  0  0  0  0
 10 12  1  0  0  0  0
 11 16  1  0  0  0  0
 12 13  1  6  0  0  0
 12 14  1  0  0  0  0
 14 15  1  6  0  0  0
 14 16  1  0  0  0  0
 16 27  1  1  0  0  0
 18 19  2  0  0  0  0
 18 23  1  0  0  0  0
 19 20  1  0  0  0  0
 20 21  2  0  0  0  0
 21 22  1  0  0  0  0
 21 27  1  0  0  0  0
 22 23  2  0  0  0  0
 22 25  1  0  0  0  0
 23 24  1  0  0  0  0
 25 26  2  0  0  0  0
 26 27  1  0  0  0  0
M  END
>  <CHROM.1>
-24.48640939,53.89462736,156.17514912,-62.12284788,176.36052947,169.36651651
-122.49719079,11.35588278,8.56053731,23.00048303,1.12464740,-0.50021423,1.59453470

>  <Name>
ligand

>  <RI>
0

>  <Rbt.Current_Directory>
/home/itssahil/PROJECTS/Mol_Feturizer/Test_systems_manuscript/rnas/4aob

>  <Rbt.Executable>
rbdock ($Id: //depot/dev/client3/rdock/2013.1/src/exe/rbdock.cxx#4 $)

>  <Rbt.Library>
libRbt.so (2013.1, Build901 2013/11/27)

>  <Rbt.Parameter_File>
/export/apps/rDock/src/rDock_2013.1_src/data/scripts/dock_solv.prm

>  <Rbt.Receptor>
prm/blind_docking_80.prm

>  <SCORE>
-10.9305

>  <SCORE.INTER>
-11.9688

>  <SCORE.INTER.CONST>
1

>  <SCORE.INTER.POLAR>
0

>  <SCORE.INTER.ROT>
7

>  <SCORE.INTER.SOLV>
14.3662

>  <SCORE.INTER.VDW>
-21.0346

>  <SCORE.INTER.norm>
-0.44329

>  <SCORE.INTRA>
1.03776

>  <SCORE.INTRA.DIHEDRAL>
-0.701729

>  <SCORE.INTRA.DIHEDRAL.0>
6.31833

>  <SCORE.INTRA.POLAR>
0

>  <SCORE.INTRA.POLAR.0>
0

>  <SCORE.INTRA.REPUL>
0

>  <SCORE.INTRA.REPUL.0>
0

>  <SCORE.INTRA.SOLV>
0.24587

>  <SCORE.INTRA.SOLV.lig_0>
-48.4015

>  <SCORE.INTRA.VDW>
1.26569

>  <SCORE.INTRA.VDW.0>
-2.83256

>  <SCORE.INTRA.norm>
0.0384356

>  <SCORE.RESTR>
0.000598487

>  <SCORE.RESTR.CAVITY>
0.000598487

>  <SCORE.RESTR.norm>
2.21662e-05

>  <SCORE.SYSTEM>
0

>  <SCORE.SYSTEM.CONST>
0

>  <SCORE.SYSTEM.DIHEDRAL>
0

>  <SCORE.SYSTEM.SOLV>
0

>  <SCORE.SYSTEM.norm>
0

>  <SCORE.heavy>
27

>  <SCORE.norm>
-0.404833

>  <RMSD>
11.888

$$$$
ligand
 OpenBabel02271912153D
libRbt.so/2013.1/901 2013/11/27
 27 29  0  0  0  0  0  0  0  0999 V2000
    7.1790   11.5494   23.1041 N   0  0  0  0  0  0  0  0  0  0  0  0
    7.8343   12.3873   22.0711 C   0  0  2  0  0  0  0  0  0  0  0  0
    7.1558   13.7510   22.0781 C   0  0  0  0  0  0  0  0  0  0  0  0
    6.2225   14.1278   22.8620 O   0  0  0  0  0  0  0  0  0  0  0  0
    7.7392   11.6700   20.7228 C   0  0  0  0  0  0  0  0  0  0  0  0
    8.5483   10.3805   20.6832 C   0  0  0  0  0  0  0  0  0  0  0  0
    8.6433    9.2971   19.2088 S   0  0  2  0  0  0  0  0  0  0  0  0
    6.9725    8.6506   19.2382 C   0  0  0  0  0  0  0  0  0  0  0  0
    9.6366    7.9559   19.9374 C   0  0  0  0  0  0  0  0  0  0  0  0
   11.1102    8.2332   19.8204 C   0  0  1  0  0  0  0  0  0  0  0  0
   11.5205    9.3888   20.5906 O   0  0  0  0  0  0  0  0  0  0  0  0
   11.9943    7.0835   20.2467 C   0  0  1  0  0  0  0  0  0  0  0  0
   12.3795    6.4084   19.1294 O   0  0  0  0  0  0  0  0  0  0  0  0
   13.1998    7.8435   20.7484 C   0  0  1  0  0  0  0  0  0  0  0  0
   13.9373    8.1296   19.6440 O   0  0  0  0  0  0  0  0  0  0  0  0
   12.6721    9.1613   21.3575 C   0  0  2  0  0  0  0  0  0  0  0  0
    7.5154   14.5371   21.1999 O   0  0  0  0  0  0  0  0  0  0  0  0
   13.1817    9.4404   26.5380 N   0  0  0  0  0  0  0  0  0  0  0  0
   13.8595   10.0759   25.4437 C   0  0  0  0  0  0  0  0  0  0  0  0
   13.6146    9.9175   24.0571 N   0  0  0  0  0  0  0  0  0  0  0  0
   12.6551    9.1058   23.8470 C   0  0  0  0  0  0  0  0  0  0  0  0
   11.8912    8.4053   24.9036 C   0  0  0  0  0  0  0  0  0  0  0  0
   12.1651    8.5724   26.2040 C   0  0  0  0  0  0  0  0  0  0  0  0
   11.4226    7.8743   27.0385 N   0  0  0  0  0  0  0  0  0  0  0  0
   10.9571    7.6106   24.4385 N   0  0  0  0  0  0  0  0  0  0  0  0
   11.1327    7.8192   23.0830 C   0  0  0  0  0  0  0  0  0  0  0  0
   12.1810    8.7520   22.7013 N   0  0  0  0  0  0  0  0  0  0  0  0
  2  1  1  1  0  0  0
  2  3  1  0  0  0  0
  2  5  1  0  0  0  0
  3  4  1  0  0  0  0
  3 17  1  0  0  0  0
  5  6  1  0  0  0  0
  7  6  1  1  0  0  0
  7  8  1  0  0  0  0
  7  9  1  0  0  0  0
 10  9  1  1  0  0  0
 10 11  1  0  0  0  0
 10 12  1  0  0  0  0
 11 16  1  0  0  0  0
 12 13  1  6  0  0  0
 12 14  1  0  0  0  0
 14 15  1  6  0  0  0
 14 16  1  0  0  0  0
 16 27  1  1  0  0  0
 18 19  2  0  0  0  0
 18 23  1  0  0  0  0
 19 20  1  0  0  0  0
 20 21  2  0  0  0  0
 21 22  1  0  0  0  0
 21 27  1  0  0  0  0
 22 23  2  0  0  0  0
 22 25  1  0  0  0  0
 23 24  1  0  0  0  0
 25 26  2  0  0  0  0
 26 27  1  0  0  0  0
M  END
>  <CHROM.1>
2.29061837,-66.37515633,-179.77425126,-70.64677282,-87.02916027,65.12912000
-139.31562450,10.49608217,9.57621770,22.02256048,3.04404948,0.69069003,-1.97834158

>  <Name>
ligand

>  <RI>
0

>  <Rbt.Current_Directory>
/home/itssahil/PROJECTS/Mol_Feturizer/Test_systems_manuscript/rnas/4aob

>  <Rbt.Executable>
rbdock ($Id: //depot/dev/client3/rdock/2013.1/src/exe/rbdock.cxx#4 $)

>  <Rbt.Library>
libRbt.so (2013.1, Build901 2013/11/27)

>  <Rbt.Parameter_File>
/export/apps/rDock/src/rDock_2013.1_src/data/scripts/dock_solv.prm

>  <Rbt.Receptor>
prm/blind_docking_60.prm

>  <SCORE>
-14.803

>  <SCORE.INTER>
-13.8696

>  <SCORE.INTER.CONST>
1

>  <SCORE.INTER.POLAR>
0

>  <SCORE.INTER.ROT>
7

>  <SCORE.INTER.SOLV>
8.9325

>  <SCORE.INTER.VDW>
-20.4906

>  <SCORE.INTER.norm>
-0.513689

>  <SCORE.INTRA>
-0.933401

>  <SCORE.INTRA.DIHEDRAL>
-2.14488

>  <SCORE.INTRA.DIHEDRAL.0>
6.31833

>  <SCORE.INTRA.POLAR>
0

>  <SCORE.INTRA.POLAR.0>
0

>  <SCORE.INTRA.REPUL>
0

>  <SCORE.INTRA.REPUL.0>
0

>  <SCORE.INTRA.SOLV>
-0.106906

>  <SCORE.INTRA.SOLV.lig_0>
-48.4015

>  <SCORE.INTRA.VDW>
0.192492

>  <SCORE.INTRA.VDW.0>
-2.83256

>  <SCORE.INTRA.norm>
-0.0345704

>  <SCORE.RESTR>
0

>  <SCORE.RESTR.CAVITY>
0

>  <SCORE.RESTR.norm>
0

>  <SCORE.SYSTEM>
0

>  <SCORE.SYSTEM.CONST>
0

>  <SCORE.SYSTEM.DIHEDRAL>
0

>  <SCORE.SYSTEM.SOLV>
0

>  <SCORE.SYSTEM.norm>
0

>  <SCORE.heavy>
27

>  <SCORE.norm>
-0.548259

>  <RMSD>
11.920

$$$$
ligand
 OpenBabel02271912153D
libRbt.so/2013.1/901 2013/11/27
 27 29  0  0  0  0  0  0  0  0999 V2000
    5.9827    7.7173   18.7277 N   0  0  0  0  0  0  0  0  0  0  0  0
    7.4396    7.5476   18.9442 C   0  0  2  0  0  0  0  0  0  0  0  0
    8.0717    8.9333   18.9672 C   0  0  0  0  0  0  0  0  0  0  0  0
    7.8376    9.8854   18.1510 O   0  0  0  0  0  0  0  0  0  0  0  0
    7.9989    6.6446   17.8426 C   0  0  0  0  0  0  0  0  0  0  0  0
    9.4418    6.2296   18.0972 C   0  0  0  0  0  0  0  0  0  0  0  0
   10.8382    7.4150   18.1342 S   0  0  2  0  0  0  0  0  0  0  0  0
   11.2829    7.3656   16.3991 C   0  0  0  0  0  0  0  0  0  0  0  0
   12.0726    6.3352   18.9258 C   0  0  0  0  0  0  0  0  0  0  0  0
   13.3891    7.0398   19.1056 C   0  0  1  0  0  0  0  0  0  0  0  0
   13.2621    8.2695   19.8597 O   0  0  0  0  0  0  0  0  0  0  0  0
   14.4493    6.2096   19.7925 C   0  0  1  0  0  0  0  0  0  0  0  0
   15.2548    5.6745   18.8349 O   0  0  0  0  0  0  0  0  0  0  0  0
   15.2371    7.2981   20.4832 C   0  0  1  0  0  0  0  0  0  0  0  0
   16.0885    7.7856   19.5435 O   0  0  0  0  0  0  0  0  0  0  0  0
   14.2268    8.4011   20.8688 C   0  0  2  0  0  0  0  0  0  0  0  0
    8.9315    9.1198   19.8300 O   0  0  0  0  0  0  0  0  0  0  0  0
   13.2895    8.9585   25.9664 N   0  0  0  0  0  0  0  0  0  0  0  0
   13.9578    9.7722   24.9908 C   0  0  0  0  0  0  0  0  0  0  0  0
   14.1395    9.5058   23.6110 N   0  0  0  0  0  0  0  0  0  0  0  0
   13.6051    8.3974   23.2801 C   0  0  0  0  0  0  0  0  0  0  0  0
   12.8909    7.4910   24.2069 C   0  0  0  0  0  0  0  0  0  0  0  0
   12.7541    7.7742   25.5089 C   0  0  0  0  0  0  0  0  0  0  0  0
   12.1142    6.8730   26.2254 N   0  0  0  0  0  0  0  0  0  0  0  0
   12.4376    6.4021   23.6332 N   0  0  0  0  0  0  0  0  0  0  0  0
   12.8649    6.6306   22.3381 C   0  0  0  0  0  0  0  0  0  0  0  0
   13.5865    7.8711   22.1031 N   0  0  0  0  0  0  0  0  0  0  0  0
  2  1  1  6  0  0  0
  2  3  1  0  0  0  0
  2  5  1  0  0  0  0
  3  4  1  0  0  0  0
  3 17  1  0  0  0  0
  5  6  1  0  0  0  0
  7  6  1  6  0  0  0
  7  8  1  0  0  0  0
  7  9  1  0  0  0  0
 10  9  1  1  0  0  0
 10 11  1  0  0  0  0
 10 12  1  0  0  0  0
 11 16  1  0  0  0  0
 12 13  1  6  0  0  0
 12 14  1  0  0  0  0
 14 15  1  6  0  0  0
 14 16  1  0  0  0  0
 16 27  1  1  0  0  0
 18 19  2  0  0  0  0
 18 23  1  0  0  0  0
 19 20  1  0  0  0  0
 20 21  2  0  0  0  0
 21 22  1  0  0  0  0
 21 27  1  0  0  0  0
 22 23  2  0  0  0  0
 22 25  1  0  0  0  0
 23 24  1  0  0  0  0
 25 26  2  0  0  0  0
 26 27  1  0  0  0  0
M  END
>  <CHROM.1>
-45.15037404,-170.93497327,-64.62772309,-89.82197149,179.91468974,56.22886620
-135.09886355,11.90820719,7.67526497,20.66251745,2.31977792,0.16293387,-1.75784685

>  <Name>
ligand

>  <RI>
0

>  <Rbt.Current_Directory>
/home/itssahil/PROJECTS/Mol_Feturizer/Test_systems_manuscript/rnas/4aob

>  <Rbt.Executable>
rbdock ($Id: //depot/dev/client3/rdock/2013.1/src/exe/rbdock.cxx#4 $)

>  <Rbt.Library>
libRbt.so (2013.1, Build901 2013/11/27)

>  <Rbt.Parameter_File>
/export/apps/rDock/src/rDock_2013.1_src/data/scripts/dock_solv.prm

>  <Rbt.Receptor>
prm/blind_docking_80.prm

>  <SCORE>
-13.1584

>  <SCORE.INTER>
-11.4496

>  <SCORE.INTER.CONST>
1

>  <SCORE.INTER.POLAR>
0

>  <SCORE.INTER.ROT>
7

>  <SCORE.INTER.SOLV>
12.9541

>  <SCORE.INTER.VDW>
-20.2178

>  <SCORE.INTER.norm>
-0.424061

>  <SCORE.INTRA>
-1.70881

>  <SCORE.INTRA.DIHEDRAL>
-1.28497

>  <SCORE.INTRA.DIHEDRAL.0>
6.31833

>  <SCORE.INTRA.POLAR>
0

>  <SCORE.INTRA.POLAR.0>
0

>  <SCORE.INTRA.REPUL>
0

>  <SCORE.INTRA.REPUL.0>
0

>  <SCORE.INTRA.SOLV>
-0.707237

>  <SCORE.INTRA.SOLV.lig_0>
-48.4015

>  <SCORE.INTRA.VDW>
-0.712701

>  <SCORE.INTRA.VDW.0>
-2.83256

>  <SCORE.INTRA.norm>
-0.0632891

>  <SCORE.RESTR>
0

>  <SCORE.RESTR.CAVITY>
0

>  <SCORE.RESTR.norm>
0

>  <SCORE.SYSTEM>
0

>  <SCORE.SYSTEM.CONST>
0

>  <SCORE.SYSTEM.DIHEDRAL>
0

>  <SCORE.SYSTEM.SOLV>
0

>  <SCORE.SYSTEM.norm>
0

>  <SCORE.heavy>
27

>  <SCORE.norm>
-0.48735

>  <RMSD>
11.928

$$$$
ligand
 OpenBabel02271912153D
libRbt.so/2013.1/901 2013/11/27
 27 29  0  0  0  0  0  0  0  0999 V2000
    5.0625    6.7043   21.4924 N   0  0  0  0  0  0  0  0  0  0  0  0
    6.2186    6.1439   20.7522 C   0  0  2  0  0  0  0  0  0  0  0  0
    6.8370    5.0499   21.6130 C   0  0  0  0  0  0  0  0  0  0  0  0
    7.3794    5.2035   22.7574 O   0  0  0  0  0  0  0  0  0  0  0  0
    7.1906    7.2795   20.4249 C   0  0  0  0  0  0  0  0  0  0  0  0
    6.5956    8.3079   19.4722 C   0  0  0  0  0  0  0  0  0  0  0  0
    7.5722    9.6590   18.7124 S   0  0  2  0  0  0  0  0  0  0  0  0
    8.8762    8.6729   17.9791 C   0  0  0  0  0  0  0  0  0  0  0  0
    8.3314   10.3150   20.2321 C   0  0  0  0  0  0  0  0  0  0  0  0
    7.3366   11.0794   21.0615 C   0  0  1  0  0  0  0  0  0  0  0  0
    6.7321   10.2642   22.0944 O   0  0  0  0  0  0  0  0  0  0  0  0
    7.9057   12.3028   21.7430 C   0  0  1  0  0  0  0  0  0  0  0  0
    7.5974   13.3913   20.9864 O   0  0  0  0  0  0  0  0  0  0  0  0
    7.0341   12.3533   22.9760 C   0  0  1  0  0  0  0  0  0  0  0  0
    5.8915   12.9789   22.5906 O   0  0  0  0  0  0  0  0  0  0  0  0
    6.7068   10.8904   23.3487 C   0  0  2  0  0  0  0  0  0  0  0  0
    6.8573    3.9213   21.1187 O   0  0  0  0  0  0  0  0  0  0  0  0
    9.3130    6.9805   25.6060 N   0  0  0  0  0  0  0  0  0  0  0  0
    8.0577    7.0605   24.9142 C   0  0  0  0  0  0  0  0  0  0  0  0
    7.4562    8.2028   24.3299 N   0  0  0  0  0  0  0  0  0  0  0  0
    8.1897    9.2350   24.4719 C   0  0  0  0  0  0  0  0  0  0  0  0
    9.4988    9.2557   25.1622 C   0  0  0  0  0  0  0  0  0  0  0  0
   10.0254    8.1549   25.7142 C   0  0  0  0  0  0  0  0  0  0  0  0
   11.1866    8.3164   26.3147 N   0  0  0  0  0  0  0  0  0  0  0  0
   10.0602   10.4407   25.1903 N   0  0  0  0  0  0  0  0  0  0  0  0
    9.1001   11.1654   24.5083 C   0  0  0  0  0  0  0  0  0  0  0  0
    7.9346   10.4264   24.0500 N   0  0  0  0  0  0  0  0  0  0  0  0
  2  1  1  1  0  0  0
  2  3  1  0  0  0  0
  2  5  1  0  0  0  0
  3  4  1  0  0  0  0
  3 17  1  0  0  0  0
  5  6  1  0  0  0  0
  7  6  1  1  0  0  0
  7  8  1  0  0  0  0
  7  9  1  0  0  0  0
 10  9  1  1  0  0  0
 10 11  1  0  0  0  0
 10 12  1  0  0  0  0
 11 16  1  0  0  0  0
 12 13  1  6  0  0  0
 12 14  1  0  0  0  0
 14 15  1  6  0  0  0
 14 16  1  0  0  0  0
 16 27  1  1  0  0  0
 18 19  2  0  0  0  0
 18 23  1  0  0  0  0
 19 20  1  0  0  0  0
 20 21  2  0  0  0  0
 21 22  1  0  0  0  0
 21 27  1  0  0  0  0
 22 23  2  0  0  0  0
 22 25  1  0  0  0  0
 23 24  1  0  0  0  0
 25 26  2  0  0  0  0
 26 27  1  0  0  0  0
M  END
>  <CHROM.1>
-63.40111254,-64.79421647,-171.49797745,54.19054316,-73.68562204,95.17581344
-68.15047830,7.76600631,9.06173815,22.32185445,-2.54450732,-1.20430269,-0.11899927

>  <Name>
ligand

>  <RI>
0

>  <Rbt.Current_Directory>
/home/itssahil/PROJECTS/Mol_Feturizer/Test_systems_manuscript/rnas/4aob

>  <Rbt.Executable>
rbdock ($Id: //depot/dev/client3/rdock/2013.1/src/exe/rbdock.cxx#4 $)

>  <Rbt.Library>
libRbt.so (2013.1, Build901 2013/11/27)

>  <Rbt.Parameter_File>
/export/apps/rDock/src/rDock_2013.1_src/data/scripts/dock_solv.prm

>  <Rbt.Receptor>
prm/blind_docking_40.prm

>  <SCORE>
-14.282

>  <SCORE.INTER>
-14.5732

>  <SCORE.INTER.CONST>
1

>  <SCORE.INTER.POLAR>
0

>  <SCORE.INTER.ROT>
7

>  <SCORE.INTER.SOLV>
7.88738

>  <SCORE.INTER.VDW>
-20.6113

>  <SCORE.INTER.norm>
-0.539749

>  <SCORE.INTRA>
0.291247

>  <SCORE.INTRA.DIHEDRAL>
0.581392

>  <SCORE.INTRA.DIHEDRAL.0>
6.31833

>  <SCORE.INTRA.POLAR>
0

>  <SCORE.INTRA.POLAR.0>
0

>  <SCORE.INTRA.REPUL>
0

>  <SCORE.INTRA.REPUL.0>
0

>  <SCORE.INTRA.SOLV>
0.205272

>  <SCORE.INTRA.SOLV.lig_0>
-48.4015

>  <SCORE.INTRA.VDW>
-0.102086

>  <SCORE.INTRA.VDW.0>
-2.83256

>  <SCORE.INTRA.norm>
0.0107869

>  <SCORE.RESTR>
0

>  <SCORE.RESTR.CAVITY>
0

>  <SCORE.RESTR.norm>
0

>  <SCORE.SYSTEM>
0

>  <SCORE.SYSTEM.CONST>
0

>  <SCORE.SYSTEM.DIHEDRAL>
0

>  <SCORE.SYSTEM.SOLV>
0

>  <SCORE.SYSTEM.norm>
0

>  <SCORE.heavy>
27

>  <SCORE.norm>
-0.528962

>  <RMSD>
11.932

$$$$
ligand
 OpenBabel02271912153D
libRbt.so/2013.1/901 2013/11/27
 27 29  0  0  0  0  0  0  0  0999 V2000
    7.6691    6.3121   15.9021 N   0  0  0  0  0  0  0  0  0  0  0  0
    8.9896    5.6405   15.9616 C   0  0  2  0  0  0  0  0  0  0  0  0
    8.9144    4.3876   15.0986 C   0  0  0  0  0  0  0  0  0  0  0  0
    8.0433    3.4598   15.1860 O   0  0  0  0  0  0  0  0  0  0  0  0
    9.3277    5.3488   17.4252 C   0  0  0  0  0  0  0  0  0  0  0  0
    9.4071    6.6105   18.2742 C   0  0  0  0  0  0  0  0  0  0  0  0
   10.8856    7.6907   18.3355 S   0  0  2  0  0  0  0  0  0  0  0  0
   11.3204    7.6555   16.5976 C   0  0  0  0  0  0  0  0  0  0  0  0
   12.0411    6.5041   19.0925 C   0  0  0  0  0  0  0  0  0  0  0  0
   13.4286    7.0747   19.1986 C   0  0  1  0  0  0  0  0  0  0  0  0
   13.4867    8.2363   20.0614 O   0  0  0  0  0  0  0  0  0  0  0  0
   14.4649    6.0978   19.7053 C   0  0  1  0  0  0  0  0  0  0  0  0
   15.1258    5.5862   18.6311 O   0  0  0  0  0  0  0  0  0  0  0  0
   15.4109    7.0472   20.4024 C   0  0  1  0  0  0  0  0  0  0  0  0
   16.2146    7.5447   19.4266 O   0  0  0  0  0  0  0  0  0  0  0  0
   14.5477    8.1922   20.9770 C   0  0  2  0  0  0  0  0  0  0  0  0
    9.8218    4.2428   14.2775 O   0  0  0  0  0  0  0  0  0  0  0  0
   14.7966    7.6877   26.1595 N   0  0  0  0  0  0  0  0  0  0  0  0
   15.5478    8.4526   25.2049 C   0  0  0  0  0  0  0  0  0  0  0  0
   15.3705    8.5088   23.8002 N   0  0  0  0  0  0  0  0  0  0  0  0
   14.4005    7.7716   23.4269 C   0  0  0  0  0  0  0  0  0  0  0  0
   13.5634    6.9511   24.3306 C   0  0  0  0  0  0  0  0  0  0  0  0
   13.7744    6.9152   25.6528 C   0  0  0  0  0  0  0  0  0  0  0  0
   12.9702    6.1289   26.3384 N   0  0  0  0  0  0  0  0  0  0  0  0
   12.6324    6.2674   23.7093 N   0  0  0  0  0  0  0  0  0  0  0  0
   12.8837    6.6667   22.4095 C   0  0  0  0  0  0  0  0  0  0  0  0
   13.9764    7.6074   22.2204 N   0  0  0  0  0  0  0  0  0  0  0  0
  2  1  1  1  0  0  0
  2  3  1  0  0  0  0
  2  5  1  0  0  0  0
  3  4  1  0  0  0  0
  3 17  1  0  0  0  0
  5  6  1  0  0  0  0
  7  6  1  6  0  0  0
  7  8  1  0  0  0  0
  7  9  1  0  0  0  0
 10  9  1  1  0  0  0
 10 11  1  0  0  0  0
 10 12  1  0  0  0  0
 11 16  1  0  0  0  0
 12 13  1  6  0  0  0
 12 14  1  0  0  0  0
 14 15  1  6  0  0  0
 14 16  1  0  0  0  0
 16 27  1  1  0  0  0
 18 19  2  0  0  0  0
 18 23  1  0  0  0  0
 19 20  1  0  0  0  0
 20 21  2  0  0  0  0
 21 22  1  0  0  0  0
 21 27  1  0  0  0  0
 22 23  2  0  0  0  0
 22 25  1  0  0  0  0
 23 24  1  0  0  0  0
 25 26  2  0  0  0  0
 26 27  1  0  0  0  0
M  END
>  <CHROM.1>
-53.36489839,-60.43197248,-81.45286814,40.53689582,176.04612751,62.96242895
-154.81947620,12.44536985,6.70824121,20.05754085,2.15068144,-0.30963643,-1.62108258

>  <Name>
ligand

>  <RI>
0

>  <Rbt.Current_Directory>
/home/itssahil/PROJECTS/Mol_Feturizer/Test_systems_manuscript/rnas/4aob

>  <Rbt.Executable>
rbdock ($Id: //depot/dev/client3/rdock/2013.1/src/exe/rbdock.cxx#4 $)

>  <Rbt.Library>
libRbt.so (2013.1, Build901 2013/11/27)

>  <Rbt.Parameter_File>
/export/apps/rDock/src/rDock_2013.1_src/data/scripts/dock_solv.prm

>  <Rbt.Receptor>
prm/blind_docking_80.prm

>  <SCORE>
-10.6322

>  <SCORE.INTER>
-11.133

>  <SCORE.INTER.CONST>
1

>  <SCORE.INTER.POLAR>
0

>  <SCORE.INTER.ROT>
7

>  <SCORE.INTER.SOLV>
12.0391

>  <SCORE.INTER.VDW>
-19.7017

>  <SCORE.INTER.norm>
-0.412335

>  <SCORE.INTRA>
0.500874

>  <SCORE.INTRA.DIHEDRAL>
-1.24587

>  <SCORE.INTRA.DIHEDRAL.0>
6.31833

>  <SCORE.INTRA.POLAR>
0

>  <SCORE.INTRA.POLAR.0>
0

>  <SCORE.INTRA.REPUL>
0

>  <SCORE.INTRA.REPUL.0>
0

>  <SCORE.INTRA.SOLV>
0.781634

>  <SCORE.INTRA.SOLV.lig_0>
-48.4015

>  <SCORE.INTRA.VDW>
0.732994

>  <SCORE.INTRA.VDW.0>
-2.83256

>  <SCORE.INTRA.norm>
0.0185509

>  <SCORE.RESTR>
0

>  <SCORE.RESTR.CAVITY>
0

>  <SCORE.RESTR.norm>
0

>  <SCORE.SYSTEM>
0

>  <SCORE.SYSTEM.CONST>
0

>  <SCORE.SYSTEM.DIHEDRAL>
0

>  <SCORE.SYSTEM.SOLV>
0

>  <SCORE.SYSTEM.norm>
0

>  <SCORE.heavy>
27

>  <SCORE.norm>
-0.393784

>  <RMSD>
12.042

$$$$
ligand
 OpenBabel02271912153D
libRbt.so/2013.1/901 2013/11/27
 27 29  0  0  0  0  0  0  0  0999 V2000
   15.0884    7.8025   25.9073 N   0  0  0  0  0  0  0  0  0  0  0  0
   13.6278    7.7675   25.6545 C   0  0  2  0  0  0  0  0  0  0  0  0
   13.2979    6.4258   25.0134 C   0  0  0  0  0  0  0  0  0  0  0  0
   13.1227    6.2044   23.7693 O   0  0  0  0  0  0  0  0  0  0  0  0
   13.2509    8.9658   24.7806 C   0  0  0  0  0  0  0  0  0  0  0  0
   11.7522    9.0624   24.5281 C   0  0  0  0  0  0  0  0  0  0  0  0
   10.8259   10.6427   24.5620 S   0  0  2  0  0  0  0  0  0  0  0  0
   10.4555   10.7033   26.3141 C   0  0  0  0  0  0  0  0  0  0  0  0
    9.2750   10.0491   23.8145 C   0  0  0  0  0  0  0  0  0  0  0  0
    8.4151   11.1905   23.3457 C   0  0  1  0  0  0  0  0  0  0  0  0
    8.9468   11.8373   22.1643 O   0  0  0  0  0  0  0  0  0  0  0  0
    6.9877   10.8045   23.0316 C   0  0  1  0  0  0  0  0  0  0  0  0
    6.2177   11.1151   24.1100 O   0  0  0  0  0  0  0  0  0  0  0  0
    6.6695   11.8099   21.9498 C   0  0  1  0  0  0  0  0  0  0  0  0
    6.3213   12.9500   22.6013 O   0  0  0  0  0  0  0  0  0  0  0  0
    7.9810   12.0547   21.1713 C   0  0  2  0  0  0  0  0  0  0  0  0
   13.1328    5.4830   25.7895 O   0  0  0  0  0  0  0  0  0  0  0  0
   10.6817    7.8978   19.5586 N   0  0  0  0  0  0  0  0  0  0  0  0
   10.8883    8.8671   20.5969 C   0  0  0  0  0  0  0  0  0  0  0  0
   10.0594    9.9628   20.9436 N   0  0  0  0  0  0  0  0  0  0  0  0
    9.0240   10.0116   20.2024 C   0  0  0  0  0  0  0  0  0  0  0  0
    8.7172    9.0594   19.1117 C   0  0  0  0  0  0  0  0  0  0  0  0
    9.5363    8.0444   18.8068 C   0  0  0  0  0  0  0  0  0  0  0  0
    9.1540    7.2840   17.8015 N   0  0  0  0  0  0  0  0  0  0  0  0
    7.5975    9.3237   18.4819 N   0  0  0  0  0  0  0  0  0  0  0  0
    7.1973   10.4443   19.1862 C   0  0  0  0  0  0  0  0  0  0  0  0
    8.0720   10.8791   20.2635 N   0  0  0  0  0  0  0  0  0  0  0  0
  2  1  1  6  0  0  0
  2  3  1  0  0  0  0
  2  5  1  0  0  0  0
  3  4  1  0  0  0  0
  3 17  1  0  0  0  0
  5  6  1  0  0  0  0
  7  6  1  1  0  0  0
  7  8  1  0  0  0  0
  7  9  1  0  0  0  0
 10  9  1  6  0  0  0
 10 11  1  0  0  0  0
 10 12  1  0  0  0  0
 11 16  1  0  0  0  0
 12 13  1  1  0  0  0
 12 14  1  0  0  0  0
 14 15  1  1  0  0  0
 14 16  1  0  0  0  0
 16 27  1  6  0  0  0
 18 19  2  0  0  0  0
 18 23  1  0  0  0  0
 19 20  1  0  0  0  0
 20 21  2  0  0  0  0
 21 22  1  0  0  0  0
 21 27  1  0  0  0  0
 22 23  2  0  0  0  0
 22 25  1  0  0  0  0
 23 24  1  0  0  0  0
 25 26  2  0  0  0  0
 26 27  1  0  0  0  0
M  END
>  <CHROM.1>
-99.32459584,-176.79763849,138.47470156,-87.22868324,-164.18909697,72.07870422
-14.84196490,9.91801539,9.56727877,22.54610741,-0.38531694,0.70523145,-1.99988181

>  <Name>
ligand

>  <RI>
0

>  <Rbt.Current_Directory>
/home/itssahil/PROJECTS/Mol_Feturizer/Test_systems_manuscript/rnas/4aob

>  <Rbt.Executable>
rbdock ($Id: //depot/dev/client3/rdock/2013.1/src/exe/rbdock.cxx#4 $)

>  <Rbt.Library>
libRbt.so (2013.1, Build901 2013/11/27)

>  <Rbt.Parameter_File>
/export/apps/rDock/src/rDock_2013.1_src/data/scripts/dock_solv.prm

>  <Rbt.Receptor>
prm/blind_docking_80.prm

>  <SCORE>
-11.8709

>  <SCORE.INTER>
-13.9493

>  <SCORE.INTER.CONST>
1

>  <SCORE.INTER.POLAR>
0

>  <SCORE.INTER.ROT>
7

>  <SCORE.INTER.SOLV>
9.09157

>  <SCORE.INTER.VDW>
-20.5967

>  <SCORE.INTER.norm>
-0.516641

>  <SCORE.INTRA>
2.0684

>  <SCORE.INTRA.DIHEDRAL>
4.40037

>  <SCORE.INTRA.DIHEDRAL.0>
6.31833

>  <SCORE.INTRA.POLAR>
0

>  <SCORE.INTRA.POLAR.0>
0

>  <SCORE.INTRA.REPUL>
0

>  <SCORE.INTRA.REPUL.0>
0

>  <SCORE.INTRA.SOLV>
-0.779357

>  <SCORE.INTRA.SOLV.lig_0>
-48.4015

>  <SCORE.INTRA.VDW>
0.257892

>  <SCORE.INTRA.VDW.0>
-2.83256

>  <SCORE.INTRA.norm>
0.0766073

>  <SCORE.RESTR>
0.0100328

>  <SCORE.RESTR.CAVITY>
0.0100328

>  <SCORE.RESTR.norm>
0.000371587

>  <SCORE.SYSTEM>
0

>  <SCORE.SYSTEM.CONST>
0

>  <SCORE.SYSTEM.DIHEDRAL>
0

>  <SCORE.SYSTEM.SOLV>
0

>  <SCORE.SYSTEM.norm>
0

>  <SCORE.heavy>
27

>  <SCORE.norm>
-0.439662

>  <RMSD>
12.079

$$$$
ligand
 OpenBabel02271912153D
libRbt.so/2013.1/901 2013/11/27
 27 29  0  0  0  0  0  0  0  0999 V2000
    6.4559   14.5736   17.8019 N   0  0  0  0  0  0  0  0  0  0  0  0
    6.7287   14.6527   19.2571 C   0  0  2  0  0  0  0  0  0  0  0  0
    7.9100   15.5929   19.4593 C   0  0  0  0  0  0  0  0  0  0  0  0
    8.0682   16.4125   20.4241 O   0  0  0  0  0  0  0  0  0  0  0  0
    6.9810   13.2398   19.7879 C   0  0  0  0  0  0  0  0  0  0  0  0
    6.9650   13.1705   21.3092 C   0  0  0  0  0  0  0  0  0  0  0  0
    6.9017   11.5962   22.2441 S   0  0  2  0  0  0  0  0  0  0  0  0
    6.1981   12.2150   23.7714 C   0  0  0  0  0  0  0  0  0  0  0  0
    8.6777   11.4464   22.6180 C   0  0  0  0  0  0  0  0  0  0  0  0
    8.9355   10.3985   23.6656 C   0  0  1  0  0  0  0  0  0  0  0  0
    8.8021    9.0524   23.1490 O   0  0  0  0  0  0  0  0  0  0  0  0
   10.2989   10.4889   24.3122 C   0  0  1  0  0  0  0  0  0  0  0  0
   10.1643   11.1498   25.4943 O   0  0  0  0  0  0  0  0  0  0  0  0
   10.5386    9.0332   24.6380 C   0  0  1  0  0  0  0  0  0  0  0  0
    9.8894    8.8092   25.8100 O   0  0  0  0  0  0  0  0  0  0  0  0
    9.8600    8.2104   23.5205 C   0  0  2  0  0  0  0  0  0  0  0  0
    8.7606   15.5901   18.5677 O   0  0  0  0  0  0  0  0  0  0  0  0
   14.0923    6.2391   21.2017 N   0  0  0  0  0  0  0  0  0  0  0  0
   13.3208    5.8464   22.3468 C   0  0  0  0  0  0  0  0  0  0  0  0
   12.1664    6.4744   22.8767 N   0  0  0  0  0  0  0  0  0  0  0  0
   11.8373    7.4941   22.1871 C   0  0  0  0  0  0  0  0  0  0  0  0
   12.5615    7.9770   20.9901 C   0  0  0  0  0  0  0  0  0  0  0  0
   13.6587    7.3615   20.5303 C   0  0  0  0  0  0  0  0  0  0  0  0
   14.2171    7.9064   19.4691 N   0  0  0  0  0  0  0  0  0  0  0  0
   12.0372    9.0546   20.4569 N   0  0  0  0  0  0  0  0  0  0  0  0
   10.9747    9.2442   21.3212 C   0  0  0  0  0  0  0  0  0  0  0  0
   10.8347    8.2770   22.3980 N   0  0  0  0  0  0  0  0  0  0  0  0
  2  1  1  6  0  0  0
  2  3  1  0  0  0  0
  2  5  1  0  0  0  0
  3  4  1  0  0  0  0
  3 17  1  0  0  0  0
  5  6  1  0  0  0  0
  7  6  1  6  0  0  0
  7  8  1  0  0  0  0
  7  9  1  0  0  0  0
 10  9  1  6  0  0  0
 10 11  1  0  0  0  0
 10 12  1  0  0  0  0
 11 16  1  0  0  0  0
 12 13  1  1  0  0  0
 12 14  1  0  0  0  0
 14 15  1  1  0  0  0
 14 16  1  0  0  0  0
 16 27  1  6  0  0  0
 18 19  2  0  0  0  0
 18 23  1  0  0  0  0
 19 20  1  0  0  0  0
 20 21  2  0  0  0  0
 21 22  1  0  0  0  0
 21 27  1  0  0  0  0
 22 23  2  0  0  0  0
 22 25  1  0  0  0  0
 23 24  1  0  0  0  0
 25 26  2  0  0  0  0
 26 27  1  0  0  0  0
M  END
>  <CHROM.1>
143.71757795,-167.25670408,167.47202707,-156.32530877,166.75010615,74.64129503
-166.59350775,9.70339936,10.57525860,21.88861243,-2.47090818,-0.74373835
2.14252958

>  <Name>
ligand

>  <RI>
0

>  <Rbt.Current_Directory>
/home/itssahil/PROJECTS/Mol_Feturizer/Test_systems_manuscript/rnas/4aob

>  <Rbt.Executable>
rbdock ($Id: //depot/dev/client3/rdock/2013.1/src/exe/rbdock.cxx#4 $)

>  <Rbt.Library>
libRbt.so (2013.1, Build901 2013/11/27)

>  <Rbt.Parameter_File>
/export/apps/rDock/src/rDock_2013.1_src/data/scripts/dock_solv.prm

>  <Rbt.Receptor>
prm/blind_docking_60.prm

>  <SCORE>
-16.2092

>  <SCORE.INTER>
-16.4315

>  <SCORE.INTER.CONST>
1

>  <SCORE.INTER.POLAR>
0

>  <SCORE.INTER.ROT>
7

>  <SCORE.INTER.SOLV>
14.6626

>  <SCORE.INTER.VDW>
-24.1085

>  <SCORE.INTER.norm>
-0.608573

>  <SCORE.INTRA>
0.222236

>  <SCORE.INTRA.DIHEDRAL>
1.15112

>  <SCORE.INTRA.DIHEDRAL.0>
6.31833

>  <SCORE.INTRA.POLAR>
0

>  <SCORE.INTRA.POLAR.0>
0

>  <SCORE.INTRA.REPUL>
0

>  <SCORE.INTRA.REPUL.0>
0

>  <SCORE.INTRA.SOLV>
-0.750004

>  <SCORE.INTRA.SOLV.lig_0>
-48.4015

>  <SCORE.INTRA.VDW>
0.0216783

>  <SCORE.INTRA.VDW.0>
-2.83256

>  <SCORE.INTRA.norm>
0.00823096

>  <SCORE.RESTR>
0

>  <SCORE.RESTR.CAVITY>
0

>  <SCORE.RESTR.norm>
0

>  <SCORE.SYSTEM>
0

>  <SCORE.SYSTEM.CONST>
0

>  <SCORE.SYSTEM.DIHEDRAL>
0

>  <SCORE.SYSTEM.SOLV>
0

>  <SCORE.SYSTEM.norm>
0

>  <SCORE.heavy>
27

>  <SCORE.norm>
-0.600342

>  <RMSD>
12.209

$$$$
ligand
 OpenBabel02271912153D
libRbt.so/2013.1/901 2013/11/27
 27 29  0  0  0  0  0  0  0  0999 V2000
   12.5904    9.6064   27.6154 N   0  0  0  0  0  0  0  0  0  0  0  0
   12.5404    9.6845   26.1357 C   0  0  2  0  0  0  0  0  0  0  0  0
   13.9564    9.9366   25.6342 C   0  0  0  0  0  0  0  0  0  0  0  0
   14.3060   10.1369   24.4238 O   0  0  0  0  0  0  0  0  0  0  0  0
   11.5511   10.7807   25.7340 C   0  0  0  0  0  0  0  0  0  0  0  0
   10.1055   10.4090   26.0359 C   0  0  0  0  0  0  0  0  0  0  0  0
    9.1574    9.1816   25.0606 S   0  0  2  0  0  0  0  0  0  0  0  0
   10.2195    7.7596   25.3068 C   0  0  0  0  0  0  0  0  0  0  0  0
    9.6064    9.7712   23.3971 C   0  0  0  0  0  0  0  0  0  0  0  0
    8.6818   10.8611   22.9287 C   0  0  1  0  0  0  0  0  0  0  0  0
    9.0801   11.4164   21.6520 O   0  0  0  0  0  0  0  0  0  0  0  0
    7.2380   10.4347   22.7921 C   0  0  1  0  0  0  0  0  0  0  0  0
    6.5737   10.8226   23.9149 O   0  0  0  0  0  0  0  0  0  0  0  0
    6.7938   11.3457   21.6718 C   0  0  1  0  0  0  0  0  0  0  0  0
    6.4902   12.5306   22.2627 O   0  0  0  0  0  0  0  0  0  0  0  0
    8.0159   11.5417   20.7477 C   0  0  2  0  0  0  0  0  0  0  0  0
   14.8471    9.8841   26.4841 O   0  0  0  0  0  0  0  0  0  0  0  0
   10.6166    7.2912   19.2165 N   0  0  0  0  0  0  0  0  0  0  0  0
   10.9059    8.3426   20.1500 C   0  0  0  0  0  0  0  0  0  0  0  0
   10.0963    9.4557   20.4871 N   0  0  0  0  0  0  0  0  0  0  0  0
    8.9942    9.4361   19.8478 C   0  0  0  0  0  0  0  0  0  0  0  0
    8.6000    8.3967   18.8706 C   0  0  0  0  0  0  0  0  0  0  0  0
    9.4024    7.3674   18.5696 C   0  0  0  0  0  0  0  0  0  0  0  0
    8.9382    6.5254   17.6693 N   0  0  0  0  0  0  0  0  0  0  0  0
    7.4212    8.6001   18.3328 N   0  0  0  0  0  0  0  0  0  0  0  0
    7.0722    9.7703   18.9814 C   0  0  0  0  0  0  0  0  0  0  0  0
    8.0386   10.2977   19.9314 N   0  0  0  0  0  0  0  0  0  0  0  0
  2  1  1  1  0  0  0
  2  3  1  0  0  0  0
  2  5  1  0  0  0  0
  3  4  1  0  0  0  0
  3 17  1  0  0  0  0
  5  6  1  0  0  0  0
  7  6  1  1  0  0  0
  7  8  1  0  0  0  0
  7  9  1  0  0  0  0
 10  9  1  6  0  0  0
 10 11  1  0  0  0  0
 10 12  1  0  0  0  0
 11 16  1  0  0  0  0
 12 13  1  1  0  0  0
 12 14  1  0  0  0  0
 14 15  1  1  0  0  0
 14 16  1  0  0  0  0
 16 27  1  6  0  0  0
 18 19  2  0  0  0  0
 18 23  1  0  0  0  0
 19 20  1  0  0  0  0
 20 21  2  0  0  0  0
 21 22  1  0  0  0  0
 21 27  1  0  0  0  0
 22 23  2  0  0  0  0
 22 25  1  0  0  0  0
 23 24  1  0  0  0  0
 25 26  2  0  0  0  0
 26 27  1  0  0  0  0
M  END
>  <CHROM.1>
-175.87267918,-69.69513341,-73.56089852,59.02870597,-86.65833679,175.58519756
-14.51971633,9.69798414,9.70362253,22.58892094,-0.92636192,0.43654902,-1.97929776

>  <Name>
ligand

>  <RI>
0

>  <Rbt.Current_Directory>
/home/itssahil/PROJECTS/Mol_Feturizer/Test_systems_manuscript/rnas/4aob

>  <Rbt.Executable>
rbdock ($Id: //depot/dev/client3/rdock/2013.1/src/exe/rbdock.cxx#4 $)

>  <Rbt.Library>
libRbt.so (2013.1, Build901 2013/11/27)

>  <Rbt.Parameter_File>
/export/apps/rDock/src/rDock_2013.1_src/data/scripts/dock_solv.prm

>  <Rbt.Receptor>
prm/blind_docking_60.prm

>  <SCORE>
-11.9757

>  <SCORE.INTER>
-13.3504

>  <SCORE.INTER.CONST>
1

>  <SCORE.INTER.POLAR>
0

>  <SCORE.INTER.ROT>
7

>  <SCORE.INTER.SOLV>
9.54053

>  <SCORE.INTER.VDW>
-20.3471

>  <SCORE.INTER.norm>
-0.494461

>  <SCORE.INTRA>
1.34815

>  <SCORE.INTRA.DIHEDRAL>
-1.26901

>  <SCORE.INTRA.DIHEDRAL.0>
6.31833

>  <SCORE.INTRA.POLAR>
0

>  <SCORE.INTRA.POLAR.0>
0

>  <SCORE.INTRA.REPUL>
0

>  <SCORE.INTRA.REPUL.0>
0

>  <SCORE.INTRA.SOLV>
1.15929

>  <SCORE.INTRA.SOLV.lig_0>
-48.4015

>  <SCORE.INTRA.VDW>
1.40301

>  <SCORE.INTRA.VDW.0>
-2.83256

>  <SCORE.INTRA.norm>
0.0499316

>  <SCORE.RESTR>
0.0265965

>  <SCORE.RESTR.CAVITY>
0.0265965

>  <SCORE.RESTR.norm>
0.000985056

>  <SCORE.SYSTEM>
0

>  <SCORE.SYSTEM.CONST>
0

>  <SCORE.SYSTEM.DIHEDRAL>
0

>  <SCORE.SYSTEM.SOLV>
0

>  <SCORE.SYSTEM.norm>
0

>  <SCORE.heavy>
27

>  <SCORE.norm>
-0.443544

>  <RMSD>
12.290

$$$$
ligand
 OpenBabel02271912153D
libRbt.so/2013.1/901 2013/11/27
 27 29  0  0  0  0  0  0  0  0999 V2000
   14.0033    8.0148   24.3626 N   0  0  0  0  0  0  0  0  0  0  0  0
   12.7533    7.2586   24.1095 C   0  0  2  0  0  0  0  0  0  0  0  0
   12.3338    6.6006   25.4177 C   0  0  0  0  0  0  0  0  0  0  0  0
   13.0588    5.8539   26.1556 O   0  0  0  0  0  0  0  0  0  0  0  0
   13.0044    6.2567   22.9805 C   0  0  0  0  0  0  0  0  0  0  0  0
   13.1720    6.9278   21.6238 C   0  0  0  0  0  0  0  0  0  0  0  0
   11.7717    7.6084   20.6581 S   0  0  2  0  0  0  0  0  0  0  0  0
   12.6593    8.0484   19.1651 C   0  0  0  0  0  0  0  0  0  0  0  0
   11.5973    9.1932   21.5380 C   0  0  0  0  0  0  0  0  0  0  0  0
   10.7436    9.0516   22.7681 C   0  0  1  0  0  0  0  0  0  0  0  0
   10.5641   10.3071   23.4669 O   0  0  0  0  0  0  0  0  0  0  0  0
    9.3638    8.4927   22.5055 C   0  0  1  0  0  0  0  0  0  0  0  0
    9.3863    7.1605   22.7832 O   0  0  0  0  0  0  0  0  0  0  0  0
    8.5860    9.1674   23.6111 C   0  0  1  0  0  0  0  0  0  0  0  0
    8.7902    8.4072   24.7183 O   0  0  0  0  0  0  0  0  0  0  0  0
    9.2314   10.5543   23.8258 C   0  0  2  0  0  0  0  0  0  0  0  0
   11.1607    6.7698   25.7549 O   0  0  0  0  0  0  0  0  0  0  0  0
    6.3513   14.6482   22.3699 N   0  0  0  0  0  0  0  0  0  0  0  0
    6.7734   14.1416   23.6449 C   0  0  0  0  0  0  0  0  0  0  0  0
    7.5763   13.0041   23.9081 N   0  0  0  0  0  0  0  0  0  0  0  0
    7.9308   12.4287   22.8279 C   0  0  0  0  0  0  0  0  0  0  0  0
    7.5542   12.8742   21.4676 C   0  0  0  0  0  0  0  0  0  0  0  0
    6.7802   13.9480   21.2634 C   0  0  0  0  0  0  0  0  0  0  0  0
    6.5046   14.2226   20.0050 N   0  0  0  0  0  0  0  0  0  0  0  0
    8.0314   12.1115   20.5132 N   0  0  0  0  0  0  0  0  0  0  0  0
    8.7161   11.1866   21.2796 C   0  0  0  0  0  0  0  0  0  0  0  0
    8.6675   11.3759   22.7206 N   0  0  0  0  0  0  0  0  0  0  0  0
  2  1  1  1  0  0  0
  2  3  1  0  0  0  0
  2  5  1  0  0  0  0
  3  4  1  0  0  0  0
  3 17  1  0  0  0  0
  5  6  1  0  0  0  0
  7  6  1  1  0  0  0
  7  8  1  0  0  0  0
  7  9  1  0  0  0  0
 10  9  1  6  0  0  0
 10 11  1  0  0  0  0
 10 12  1  0  0  0  0
 11 16  1  0  0  0  0
 12 13  1  1  0  0  0
 12 14  1  0  0  0  0
 14 15  1  1  0  0  0
 14 16  1  0  0  0  0
 16 27  1  6  0  0  0
 18 19  2  0  0  0  0
 18 23  1  0  0  0  0
 19 20  1  0  0  0  0
 20 21  2  0  0  0  0
 21 22  1  0  0  0  0
 21 27  1  0  0  0  0
 22 23  2  0  0  0  0
 22 25  1  0  0  0  0
 23 24  1  0  0  0  0
 25 26  2  0  0  0  0
 26 27  1  0  0  0  0
M  END
>  <CHROM.1>
-53.05601977,-70.61510859,-75.55876050,-174.13172847,-84.74290209,-178.60107947
-135.43254348,10.04812226,9.62448636,22.72848710,0.38926127,-0.82973385,1.83639204

>  <Name>
ligand

>  <RI>
0

>  <Rbt.Current_Directory>
/home/itssahil/PROJECTS/Mol_Feturizer/Test_systems_manuscript/rnas/4aob

>  <Rbt.Executable>
rbdock ($Id: //depot/dev/client3/rdock/2013.1/src/exe/rbdock.cxx#4 $)

>  <Rbt.Library>
libRbt.so (2013.1, Build901 2013/11/27)

>  <Rbt.Parameter_File>
/export/apps/rDock/src/rDock_2013.1_src/data/scripts/dock_solv.prm

>  <Rbt.Receptor>
prm/blind_docking_80.prm

>  <SCORE>
-16.8485

>  <SCORE.INTER>
-15.9919

>  <SCORE.INTER.CONST>
1

>  <SCORE.INTER.POLAR>
0

>  <SCORE.INTER.ROT>
7

>  <SCORE.INTER.SOLV>
11.5889

>  <SCORE.INTER.VDW>
-22.7909

>  <SCORE.INTER.norm>
-0.592292

>  <SCORE.INTRA>
-0.856585

>  <SCORE.INTRA.DIHEDRAL>
-0.855655

>  <SCORE.INTRA.DIHEDRAL.0>
6.31833

>  <SCORE.INTRA.POLAR>
0

>  <SCORE.INTRA.POLAR.0>
0

>  <SCORE.INTRA.REPUL>
0

>  <SCORE.INTRA.REPUL.0>
0

>  <SCORE.INTRA.SOLV>
2.03678

>  <SCORE.INTRA.SOLV.lig_0>
-48.4015

>  <SCORE.INTRA.VDW>
-1.44715

>  <SCORE.INTRA.VDW.0>
-2.83256

>  <SCORE.INTRA.norm>
-0.0317254

>  <SCORE.RESTR>
0

>  <SCORE.RESTR.CAVITY>
0

>  <SCORE.RESTR.norm>
0

>  <SCORE.SYSTEM>
0

>  <SCORE.SYSTEM.CONST>
0

>  <SCORE.SYSTEM.DIHEDRAL>
0

>  <SCORE.SYSTEM.SOLV>
0

>  <SCORE.SYSTEM.norm>
0

>  <SCORE.heavy>
27

>  <SCORE.norm>
-0.624017

>  <RMSD>
12.324

$$$$
ligand
 OpenBabel02271912153D
libRbt.so/2013.1/901 2013/11/27
 27 29  0  0  0  0  0  0  0  0999 V2000
    6.5261   14.4409   17.4661 N   0  0  0  0  0  0  0  0  0  0  0  0
    6.8684   14.7130   18.8828 C   0  0  2  0  0  0  0  0  0  0  0  0
    8.1375   15.5553   18.9020 C   0  0  0  0  0  0  0  0  0  0  0  0
    8.3505   16.5863   19.6225 O   0  0  0  0  0  0  0  0  0  0  0  0
    7.0151   13.3793   19.6185 C   0  0  0  0  0  0  0  0  0  0  0  0
    7.1380   13.5491   21.1269 C   0  0  0  0  0  0  0  0  0  0  0  0
    6.8923   12.1780   22.3171 S   0  0  2  0  0  0  0  0  0  0  0  0
    6.6637   13.1482   23.8061 C   0  0  0  0  0  0  0  0  0  0  0  0
    8.6221   11.6197   22.4285 C   0  0  0  0  0  0  0  0  0  0  0  0
    8.8103   10.6211   23.5372 C   0  0  1  0  0  0  0  0  0  0  0  0
    8.3977    9.2859   23.1577 O   0  0  0  0  0  0  0  0  0  0  0  0
   10.2306   10.5156   24.0438 C   0  0  1  0  0  0  0  0  0  0  0  0
   10.3364   11.2733   25.1694 O   0  0  0  0  0  0  0  0  0  0  0  0
   10.2552    9.0678   24.4748 C   0  0  1  0  0  0  0  0  0  0  0  0
    9.7066    9.0469   25.7174 O   0  0  0  0  0  0  0  0  0  0  0  0
    9.3323    8.2994   23.5032 C   0  0  2  0  0  0  0  0  0  0  0  0
    9.0132   15.2299   18.0984 O   0  0  0  0  0  0  0  0  0  0  0  0
   13.5595    6.1479   21.3408 N   0  0  0  0  0  0  0  0  0  0  0  0
   12.9607    6.0553   22.6421 C   0  0  0  0  0  0  0  0  0  0  0  0
   11.7856    6.6955   23.1081 N   0  0  0  0  0  0  0  0  0  0  0  0
   11.2554    7.4094   22.1955 C   0  0  0  0  0  0  0  0  0  0  0  0
   11.7903    7.5661   20.8244 C   0  0  0  0  0  0  0  0  0  0  0  0
   12.9138    6.9538   20.4286 C   0  0  0  0  0  0  0  0  0  0  0  0
   13.2894    7.1944   19.1892 N   0  0  0  0  0  0  0  0  0  0  0  0
   11.0743    8.3635   20.0682 N   0  0  0  0  0  0  0  0  0  0  0  0
   10.0818    8.7035   20.9688 C   0  0  0  0  0  0  0  0  0  0  0  0
   10.1785    8.1118   22.2937 N   0  0  0  0  0  0  0  0  0  0  0  0
  2  1  1  6  0  0  0
  2  3  1  0  0  0  0
  2  5  1  0  0  0  0
  3  4  1  0  0  0  0
  3 17  1  0  0  0  0
  5  6  1  0  0  0  0
  7  6  1  6  0  0  0
  7  8  1  0  0  0  0
  7  9  1  0  0  0  0
 10  9  1  6  0  0  0
 10 11  1  0  0  0  0
 10 12  1  0  0  0  0
 11 16  1  0  0  0  0
 12 13  1  1  0  0  0
 12 14  1  0  0  0  0
 14 15  1  1  0  0  0
 14 16  1  0  0  0  0
 16 27  1  6  0  0  0
 18 19  2  0  0  0  0
 18 23  1  0  0  0  0
 19 20  1  0  0  0  0
 20 21  2  0  0  0  0
 21 22  1  0  0  0  0
 21 27  1  0  0  0  0
 22 23  2  0  0  0  0
 22 25  1  0  0  0  0
 23 24  1  0  0  0  0
 25 26  2  0  0  0  0
 26 27  1  0  0  0  0
M  END
>  <CHROM.1>
135.33341032,-170.46887700,163.59767627,-162.97152751,170.09845479,80.28540448
171.90232308,9.48432940,10.61947459,21.72254638,-2.47042656,-0.88476245,2.04106837

>  <Name>
ligand

>  <RI>
0

>  <Rbt.Current_Directory>
/home/itssahil/PROJECTS/Mol_Feturizer/Test_systems_manuscript/rnas/4aob

>  <Rbt.Executable>
rbdock ($Id: //depot/dev/client3/rdock/2013.1/src/exe/rbdock.cxx#4 $)

>  <Rbt.Library>
libRbt.so (2013.1, Build901 2013/11/27)

>  <Rbt.Parameter_File>
/export/apps/rDock/src/rDock_2013.1_src/data/scripts/dock_solv.prm

>  <Rbt.Receptor>
prm/blind_docking_100.prm

>  <SCORE>
-16.6815

>  <SCORE.INTER>
-16.9434

>  <SCORE.INTER.CONST>
1

>  <SCORE.INTER.POLAR>
0

>  <SCORE.INTER.ROT>
7

>  <SCORE.INTER.SOLV>
15.4055

>  <SCORE.INTER.VDW>
-24.6974

>  <SCORE.INTER.norm>
-0.627532

>  <SCORE.INTRA>
0.261876

>  <SCORE.INTRA.DIHEDRAL>
1.1567

>  <SCORE.INTRA.DIHEDRAL.0>
6.31833

>  <SCORE.INTRA.POLAR>
0

>  <SCORE.INTRA.POLAR.0>
0

>  <SCORE.INTRA.REPUL>
0

>  <SCORE.INTRA.REPUL.0>
0

>  <SCORE.INTRA.SOLV>
-0.759528

>  <SCORE.INTRA.SOLV.lig_0>
-48.4015

>  <SCORE.INTRA.VDW>
0.0632908

>  <SCORE.INTRA.VDW.0>
-2.83256

>  <SCORE.INTRA.norm>
0.00969912

>  <SCORE.RESTR>
0

>  <SCORE.RESTR.CAVITY>
0

>  <SCORE.RESTR.norm>
0

>  <SCORE.SYSTEM>
0

>  <SCORE.SYSTEM.CONST>
0

>  <SCORE.SYSTEM.DIHEDRAL>
0

>  <SCORE.SYSTEM.SOLV>
0

>  <SCORE.SYSTEM.norm>
0

>  <SCORE.heavy>
27

>  <SCORE.norm>
-0.617832

>  <RMSD>
12.367

$$$$
ligand
 OpenBabel02271912153D
libRbt.so/2013.1/901 2013/11/27
 27 29  0  0  0  0  0  0  0  0999 V2000
   11.8835    7.4777   22.2144 N   0  0  0  0  0  0  0  0  0  0  0  0
   12.5489    8.7981   22.1044 C   0  0  2  0  0  0  0  0  0  0  0  0
   13.4985    8.7436   20.9146 C   0  0  0  0  0  0  0  0  0  0  0  0
   14.5416    8.0164   20.8118 O   0  0  0  0  0  0  0  0  0  0  0  0
   13.2527    9.1063   23.4278 C   0  0  0  0  0  0  0  0  0  0  0  0
   12.2786    9.2926   24.5835 C   0  0  0  0  0  0  0  0  0  0  0  0
   11.0317   10.6336   24.6423 S   0  0  2  0  0  0  0  0  0  0  0  0
   10.2399   10.2011   26.1904 C   0  0  0  0  0  0  0  0  0  0  0  0
    9.8925    9.9825   23.3795 C   0  0  0  0  0  0  0  0  0  0  0  0
    8.9310   11.0376   22.9058 C   0  0  1  0  0  0  0  0  0  0  0  0
    9.0494   11.2995   21.4865 O   0  0  0  0  0  0  0  0  0  0  0  0
    7.4779   10.7198   23.1751 C   0  0  1  0  0  0  0  0  0  0  0  0
    7.1045   11.3731   24.3091 O   0  0  0  0  0  0  0  0  0  0  0  0
    6.8272   11.4326   22.0128 C   0  0  1  0  0  0  0  0  0  0  0  0
    6.7159   12.7311   22.3963 O   0  0  0  0  0  0  0  0  0  0  0  0
    7.8127   11.3399   20.8269 C   0  0  2  0  0  0  0  0  0  0  0  0
   13.2535    9.5235   19.9926 O   0  0  0  0  0  0  0  0  0  0  0  0
    9.8698    6.9723   18.8606 N   0  0  0  0  0  0  0  0  0  0  0  0
   10.4370    8.1923   19.3610 C   0  0  0  0  0  0  0  0  0  0  0  0
    9.7560    9.3192   19.8848 N   0  0  0  0  0  0  0  0  0  0  0  0
    8.4947    9.1380   19.8850 C   0  0  0  0  0  0  0  0  0  0  0  0
    7.8140    7.9177   19.3972 C   0  0  0  0  0  0  0  0  0  0  0  0
    8.4955    6.8796   18.8954 C   0  0  0  0  0  0  0  0  0  0  0  0
    7.7661    5.8650   18.4788 N   0  0  0  0  0  0  0  0  0  0  0  0
    6.5068    7.9719   19.4892 N   0  0  0  0  0  0  0  0  0  0  0  0
    6.3680    9.2310   20.0436 C   0  0  0  0  0  0  0  0  0  0  0  0
    7.5969    9.9647   20.3012 N   0  0  0  0  0  0  0  0  0  0  0  0
  2  1  1  1  0  0  0
  2  3  1  0  0  0  0
  2  5  1  0  0  0  0
  3  4  1  0  0  0  0
  3 17  1  0  0  0  0
  5  6  1  0  0  0  0
  7  6  1  1  0  0  0
  7  8  1  0  0  0  0
  7  9  1  0  0  0  0
 10  9  1  6  0  0  0
 10 11  1  0  0  0  0
 10 12  1  0  0  0  0
 11 16  1  0  0  0  0
 12 13  1  1  0  0  0
 12 14  1  0  0  0  0
 14 15  1  1  0  0  0
 14 16  1  0  0  0  0
 16 27  1  1  0  0  0
 18 19  2  0  0  0  0
 18 23  1  0  0  0  0
 19 20  1  0  0  0  0
 20 21  2  0  0  0  0
 21 22  1  0  0  0  0
 21 27  1  0  0  0  0
 22 23  2  0  0  0  0
 22 25  1  0  0  0  0
 23 24  1  0  0  0  0
 25 26  2  0  0  0  0
 26 27  1  0  0  0  0
M  END
>  <CHROM.1>
-65.64251079,-65.73721986,-62.96765171,177.85885225,-164.31317031,119.49419221
-33.05664162,9.71451859,9.48276029,21.69144648,-0.48254175,0.28630511,-2.16383819

>  <Name>
ligand

>  <RI>
0

>  <Rbt.Current_Directory>
/home/itssahil/PROJECTS/Mol_Feturizer/Test_systems_manuscript/rnas/4aob

>  <Rbt.Executable>
rbdock ($Id: //depot/dev/client3/rdock/2013.1/src/exe/rbdock.cxx#4 $)

>  <Rbt.Library>
libRbt.so (2013.1, Build901 2013/11/27)

>  <Rbt.Parameter_File>
/export/apps/rDock/src/rDock_2013.1_src/data/scripts/dock_solv.prm

>  <Rbt.Receptor>
prm/blind_docking_60.prm

>  <SCORE>
-10.6084

>  <SCORE.INTER>
-12.2532

>  <SCORE.INTER.CONST>
1

>  <SCORE.INTER.POLAR>
0

>  <SCORE.INTER.ROT>
7

>  <SCORE.INTER.SOLV>
9.10013

>  <SCORE.INTER.VDW>
-19.4688

>  <SCORE.INTER.norm>
-0.453822

>  <SCORE.INTRA>
1.64475

>  <SCORE.INTRA.DIHEDRAL>
3.79621

>  <SCORE.INTRA.DIHEDRAL.0>
6.31833

>  <SCORE.INTRA.POLAR>
0

>  <SCORE.INTRA.POLAR.0>
0

>  <SCORE.INTRA.REPUL>
0

>  <SCORE.INTRA.REPUL.0>
0

>  <SCORE.INTRA.SOLV>
2.0152

>  <SCORE.INTRA.SOLV.lig_0>
-48.4015

>  <SCORE.INTRA.VDW>
-1.26096

>  <SCORE.INTRA.VDW.0>
-2.83256

>  <SCORE.INTRA.norm>
0.0609167

>  <SCORE.RESTR>
0

>  <SCORE.RESTR.CAVITY>
0

>  <SCORE.RESTR.norm>
0

>  <SCORE.SYSTEM>
0

>  <SCORE.SYSTEM.CONST>
0

>  <SCORE.SYSTEM.DIHEDRAL>
0

>  <SCORE.SYSTEM.SOLV>
0

>  <SCORE.SYSTEM.norm>
0

>  <SCORE.heavy>
27

>  <SCORE.norm>
-0.392905

>  <RMSD>
12.385

$$$$
ligand
 OpenBabel02271912153D
libRbt.so/2013.1/901 2013/11/27
 27 29  0  0  0  0  0  0  0  0999 V2000
    7.3163    7.8126   20.9968 N   0  0  0  0  0  0  0  0  0  0  0  0
    8.0065    7.9658   19.6935 C   0  0  2  0  0  0  0  0  0  0  0  0
    7.1496    8.8690   18.8158 C   0  0  0  0  0  0  0  0  0  0  0  0
    7.5028    9.9829   18.3042 O   0  0  0  0  0  0  0  0  0  0  0  0
    8.2364    6.5776   19.0923 C   0  0  0  0  0  0  0  0  0  0  0  0
    9.0275    6.6225   17.7918 C   0  0  0  0  0  0  0  0  0  0  0  0
   10.6078    7.5307   17.6062 S   0  0  2  0  0  0  0  0  0  0  0  0
   11.1262    6.8551   16.0297 C   0  0  0  0  0  0  0  0  0  0  0  0
   11.5889    6.5925   18.8201 C   0  0  0  0  0  0  0  0  0  0  0  0
   12.9786    7.1508   18.9576 C   0  0  1  0  0  0  0  0  0  0  0  0
   12.9878    8.5939   19.0773 O   0  0  0  0  0  0  0  0  0  0  0  0
   13.7529    6.6063   20.1361 C   0  0  1  0  0  0  0  0  0  0  0  0
   14.5650    5.6111   19.6862 O   0  0  0  0  0  0  0  0  0  0  0  0
   14.6324    7.7936   20.4513 C   0  0  1  0  0  0  0  0  0  0  0  0
   15.6838    7.7073   19.5954 O   0  0  0  0  0  0  0  0  0  0  0  0
   13.8103    9.0572   20.1141 C   0  0  2  0  0  0  0  0  0  0  0  0
    5.9870    8.5019   18.6369 O   0  0  0  0  0  0  0  0  0  0  0  0
   13.3071    9.3228   25.2959 N   0  0  0  0  0  0  0  0  0  0  0  0
   14.4379    9.2172   24.4181 C   0  0  0  0  0  0  0  0  0  0  0  0
   14.4396    9.1617   23.0021 N   0  0  0  0  0  0  0  0  0  0  0  0
   13.2559    9.2313   22.5355 C   0  0  0  0  0  0  0  0  0  0  0  0
   12.0281    9.3472   23.3539 C   0  0  0  0  0  0  0  0  0  0  0  0
   12.0700    9.3817   24.6921 C   0  0  0  0  0  0  0  0  0  0  0  0
   10.9036    9.4664   25.2982 N   0  0  0  0  0  0  0  0  0  0  0  0
   10.9254    9.3905   22.6450 N   0  0  0  0  0  0  0  0  0  0  0  0
   11.4660    9.3077   21.3750 C   0  0  0  0  0  0  0  0  0  0  0  0
   12.9148    9.2149   21.2921 N   0  0  0  0  0  0  0  0  0  0  0  0
  2  1  1  1  0  0  0
  2  3  1  0  0  0  0
  2  5  1  0  0  0  0
  3  4  1  0  0  0  0
  3 17  1  0  0  0  0
  5  6  1  0  0  0  0
  7  6  1  1  0  0  0
  7  8  1  0  0  0  0
  7  9  1  0  0  0  0
 10  9  1  1  0  0  0
 10 11  1  0  0  0  0
 10 12  1  0  0  0  0
 11 16  1  0  0  0  0
 12 13  1  6  0  0  0
 12 14  1  0  0  0  0
 14 15  1  6  0  0  0
 14 16  1  0  0  0  0
 16 27  1  1  0  0  0
 18 19  2  0  0  0  0
 18 23  1  0  0  0  0
 19 20  1  0  0  0  0
 20 21  2  0  0  0  0
 21 22  1  0  0  0  0
 21 27  1  0  0  0  0
 22 23  2  0  0  0  0
 22 25  1  0  0  0  0
 23 24  1  0  0  0  0
 25 26  2  0  0  0  0
 26 27  1  0  0  0  0
M  END
>  <CHROM.1>
120.60394658,-176.06355565,50.24897289,167.74343185,-177.41078822,46.08435925
157.89339905,11.43940732,8.18969255,20.41415778,2.42352873,0.15050385,-1.94452989

>  <Name>
ligand

>  <RI>
0

>  <Rbt.Current_Directory>
/home/itssahil/PROJECTS/Mol_Feturizer/Test_systems_manuscript/rnas/4aob

>  <Rbt.Executable>
rbdock ($Id: //depot/dev/client3/rdock/2013.1/src/exe/rbdock.cxx#4 $)

>  <Rbt.Library>
libRbt.so (2013.1, Build901 2013/11/27)

>  <Rbt.Parameter_File>
/export/apps/rDock/src/rDock_2013.1_src/data/scripts/dock_solv.prm

>  <Rbt.Receptor>
prm/blind_docking_40.prm

>  <SCORE>
-14.9417

>  <SCORE.INTER>
-13.6513

>  <SCORE.INTER.CONST>
1

>  <SCORE.INTER.POLAR>
0

>  <SCORE.INTER.ROT>
7

>  <SCORE.INTER.SOLV>
7.81374

>  <SCORE.INTER.VDW>
-19.9721

>  <SCORE.INTER.norm>
-0.505602

>  <SCORE.INTRA>
-1.29043

>  <SCORE.INTRA.DIHEDRAL>
-1.5256

>  <SCORE.INTRA.DIHEDRAL.0>
6.31833

>  <SCORE.INTRA.POLAR>
0

>  <SCORE.INTRA.POLAR.0>
0

>  <SCORE.INTRA.REPUL>
0

>  <SCORE.INTRA.REPUL.0>
0

>  <SCORE.INTRA.SOLV>
-0.635773

>  <SCORE.INTRA.SOLV.lig_0>
-48.4015

>  <SCORE.INTRA.VDW>
-0.209739

>  <SCORE.INTRA.VDW.0>
-2.83256

>  <SCORE.INTRA.norm>
-0.0477935

>  <SCORE.RESTR>
0

>  <SCORE.RESTR.CAVITY>
0

>  <SCORE.RESTR.norm>
0

>  <SCORE.SYSTEM>
0

>  <SCORE.SYSTEM.CONST>
0

>  <SCORE.SYSTEM.DIHEDRAL>
0

>  <SCORE.SYSTEM.SOLV>
0

>  <SCORE.SYSTEM.norm>
0

>  <SCORE.heavy>
27

>  <SCORE.norm>
-0.553396

>  <RMSD>
12.432

$$$$
ligand
 OpenBabel02271912153D
libRbt.so/2013.1/901 2013/11/27
 27 29  0  0  0  0  0  0  0  0999 V2000
    6.3596    4.2887   16.4299 N   0  0  0  0  0  0  0  0  0  0  0  0
    7.7445    4.3256   16.9580 C   0  0  2  0  0  0  0  0  0  0  0  0
    7.7987    3.4268   18.1866 C   0  0  0  0  0  0  0  0  0  0  0  0
    8.7554    2.6485   18.5131 O   0  0  0  0  0  0  0  0  0  0  0  0
    8.1198    5.7794   17.2537 C   0  0  0  0  0  0  0  0  0  0  0  0
    9.5335    5.9231   17.8014 C   0  0  0  0  0  0  0  0  0  0  0  0
   10.4074    7.5287   17.9222 S   0  0  2  0  0  0  0  0  0  0  0  0
   10.8177    7.7459   16.1916 C   0  0  0  0  0  0  0  0  0  0  0  0
   11.9586    6.9236   18.6597 C   0  0  0  0  0  0  0  0  0  0  0  0
   12.0756    7.3218   20.1053 C   0  0  1  0  0  0  0  0  0  0  0  0
   12.7919    6.3418   20.8948 O   0  0  0  0  0  0  0  0  0  0  0  0
   12.7579    8.6519   20.3299 C   0  0  1  0  0  0  0  0  0  0  0  0
   11.7950    9.5985   20.5007 O   0  0  0  0  0  0  0  0  0  0  0  0
   13.3882    8.4057   21.6807 C   0  0  1  0  0  0  0  0  0  0  0  0
   12.4079    8.6439   22.5904 O   0  0  0  0  0  0  0  0  0  0  0  0
   13.7668    6.9088   21.7279 C   0  0  2  0  0  0  0  0  0  0  0  0
    6.7905    3.4201   18.8951 O   0  0  0  0  0  0  0  0  0  0  0  0
   18.6954    8.5095   21.1602 N   0  0  0  0  0  0  0  0  0  0  0  0
   17.6862    8.7534   22.1515 C   0  0  0  0  0  0  0  0  0  0  0  0
   16.3655    8.2417   22.1947 N   0  0  0  0  0  0  0  0  0  0  0  0
   16.1347    7.4742   21.2040 C   0  0  0  0  0  0  0  0  0  0  0  0
   17.1071    7.1553   20.1348 C   0  0  0  0  0  0  0  0  0  0  0  0
   18.3424    7.6727   20.1240 C   0  0  0  0  0  0  0  0  0  0  0  0
   19.0995    7.3228   19.1046 N   0  0  0  0  0  0  0  0  0  0  0  0
   16.6324    6.3497   19.2150 N   0  0  0  0  0  0  0  0  0  0  0  0
   15.3573    6.1578   19.7143 C   0  0  0  0  0  0  0  0  0  0  0  0
   15.0366    6.8461   20.9545 N   0  0  0  0  0  0  0  0  0  0  0  0
  2  1  1  1  0  0  0
  2  3  1  0  0  0  0
  2  5  1  0  0  0  0
  3  4  1  0  0  0  0
  3 17  1  0  0  0  0
  5  6  1  0  0  0  0
  7  6  1  6  0  0  0
  7  8  1  0  0  0  0
  7  9  1  0  0  0  0
 10  9  1  6  0  0  0
 10 11  1  0  0  0  0
 10 12  1  0  0  0  0
 11 16  1  0  0  0  0
 12 13  1  1  0  0  0
 12 14  1  0  0  0  0
 14 15  1  1  0  0  0
 14 16  1  0  0  0  0
 16 27  1  6  0  0  0
 18 19  2  0  0  0  0
 18 23  1  0  0  0  0
 19 20  1  0  0  0  0
 20 21  2  0  0  0  0
 21 22  1  0  0  0  0
 21 27  1  0  0  0  0
 22 23  2  0  0  0  0
 22 25  1  0  0  0  0
 23 24  1  0  0  0  0
 25 26  2  0  0  0  0
 26 27  1  0  0  0  0
M  END
>  <CHROM.1>
140.91065289,-179.90330792,166.67970797,-75.50391765,-107.73363382,147.70993942
165.43011132,12.63237532,6.77147350,19.55358050,-2.67751213,-0.03160403,0.74595102

>  <Name>
ligand

>  <RI>
0

>  <Rbt.Current_Directory>
/home/itssahil/PROJECTS/Mol_Feturizer/Test_systems_manuscript/rnas/4aob

>  <Rbt.Executable>
rbdock ($Id: //depot/dev/client3/rdock/2013.1/src/exe/rbdock.cxx#4 $)

>  <Rbt.Library>
libRbt.so (2013.1, Build901 2013/11/27)

>  <Rbt.Parameter_File>
/export/apps/rDock/src/rDock_2013.1_src/data/scripts/dock_solv.prm

>  <Rbt.Receptor>
prm/blind_docking_40.prm

>  <SCORE>
-12.7049

>  <SCORE.INTER>
-14.5417

>  <SCORE.INTER.CONST>
1

>  <SCORE.INTER.POLAR>
0

>  <SCORE.INTER.ROT>
7

>  <SCORE.INTER.SOLV>
14.1099

>  <SCORE.INTER.VDW>
-22.6644

>  <SCORE.INTER.norm>
-0.53858

>  <SCORE.INTRA>
1.83671

>  <SCORE.INTRA.DIHEDRAL>
3.77508

>  <SCORE.INTRA.DIHEDRAL.0>
6.31833

>  <SCORE.INTRA.POLAR>
0

>  <SCORE.INTRA.POLAR.0>
0

>  <SCORE.INTRA.REPUL>
0

>  <SCORE.INTRA.REPUL.0>
0

>  <SCORE.INTRA.SOLV>
-0.710655

>  <SCORE.INTRA.SOLV.lig_0>
-48.4015

>  <SCORE.INTRA.VDW>
0.304501

>  <SCORE.INTRA.VDW.0>
-2.83256

>  <SCORE.INTRA.norm>
0.0680264

>  <SCORE.RESTR>
0

>  <SCORE.RESTR.CAVITY>
0

>  <SCORE.RESTR.norm>
0

>  <SCORE.SYSTEM>
0

>  <SCORE.SYSTEM.CONST>
0

>  <SCORE.SYSTEM.DIHEDRAL>
0

>  <SCORE.SYSTEM.SOLV>
0

>  <SCORE.SYSTEM.norm>
0

>  <SCORE.heavy>
27

>  <SCORE.norm>
-0.470553

>  <RMSD>
12.527

$$$$
ligand
 OpenBabel02271912153D
libRbt.so/2013.1/901 2013/11/27
 27 29  0  0  0  0  0  0  0  0999 V2000
    3.8439    7.4978   20.6705 N   0  0  0  0  0  0  0  0  0  0  0  0
    4.6923    7.1199   19.5147 C   0  0  2  0  0  0  0  0  0  0  0  0
    4.1079    5.8537   18.9020 C   0  0  0  0  0  0  0  0  0  0  0  0
    4.7467    4.9673   18.2434 O   0  0  0  0  0  0  0  0  0  0  0  0
    6.1343    6.9497   19.9976 C   0  0  0  0  0  0  0  0  0  0  0  0
    6.7710    8.2649   20.4264 C   0  0  0  0  0  0  0  0  0  0  0  0
    7.1145    9.6416   19.2674 S   0  0  2  0  0  0  0  0  0  0  0  0
    8.3526    8.8388   18.2509 C   0  0  0  0  0  0  0  0  0  0  0  0
    8.0930   10.6878   20.3918 C   0  0  0  0  0  0  0  0  0  0  0  0
    7.2104   11.5229   21.2781 C   0  0  1  0  0  0  0  0  0  0  0  0
    6.4861   10.7281   22.2479 O   0  0  0  0  0  0  0  0  0  0  0  0
    7.9427   12.5978   22.0485 C   0  0  1  0  0  0  0  0  0  0  0  0
    7.8002   13.7726   21.3763 O   0  0  0  0  0  0  0  0  0  0  0  0
    7.0762   12.6806   23.2833 C   0  0  1  0  0  0  0  0  0  0  0  0
    6.0384   13.4907   22.9481 O   0  0  0  0  0  0  0  0  0  0  0  0
    6.5394   11.2562   23.5457 C   0  0  2  0  0  0  0  0  0  0  0  0
    2.8888    5.7131   19.0140 O   0  0  0  0  0  0  0  0  0  0  0  0
    8.6559    6.8049   25.2434 N   0  0  0  0  0  0  0  0  0  0  0  0
    7.4505    7.1152   24.5282 C   0  0  0  0  0  0  0  0  0  0  0  0
    6.9873    8.3880   24.1123 N   0  0  0  0  0  0  0  0  0  0  0  0
    7.8043    9.3081   24.4435 C   0  0  0  0  0  0  0  0  0  0  0  0
    9.0726    9.0918   25.1751 C   0  0  0  0  0  0  0  0  0  0  0  0
    9.4668    7.8721   25.5632 C   0  0  0  0  0  0  0  0  0  0  0  0
   10.6055    7.8228   26.2234 N   0  0  0  0  0  0  0  0  0  0  0  0
    9.7383   10.1968   25.4121 N   0  0  0  0  0  0  0  0  0  0  0  0
    8.8852   11.1099   24.8202 C   0  0  0  0  0  0  0  0  0  0  0  0
    7.6818   10.5699   24.2080 N   0  0  0  0  0  0  0  0  0  0  0  0
  2  1  1  1  0  0  0
  2  3  1  0  0  0  0
  2  5  1  0  0  0  0
  3  4  1  0  0  0  0
  3 17  1  0  0  0  0
  5  6  1  0  0  0  0
  7  6  1  1  0  0  0
  7  8  1  0  0  0  0
  7  9  1  0  0  0  0
 10  9  1  1  0  0  0
 10 11  1  0  0  0  0
 10 12  1  0  0  0  0
 11 16  1  0  0  0  0
 12 13  1  6  0  0  0
 12 14  1  0  0  0  0
 14 15  1  6  0  0  0
 14 16  1  0  0  0  0
 16 27  1  1  0  0  0
 18 19  2  0  0  0  0
 18 23  1  0  0  0  0
 19 20  1  0  0  0  0
 20 21  2  0  0  0  0
 21 22  1  0  0  0  0
 21 27  1  0  0  0  0
 22 23  2  0  0  0  0
 22 25  1  0  0  0  0
 23 24  1  0  0  0  0
 25 26  2  0  0  0  0
 26 27  1  0  0  0  0
M  END
>  <CHROM.1>
-153.26746498,-68.16711482,-65.54693838,-65.60774746,-82.65700246,68.73808668
-62.18937160,7.06667107,9.28708605,22.03041280,-2.86750769,-1.04501203,-0.29273042

>  <Name>
ligand

>  <RI>
0

>  <Rbt.Current_Directory>
/home/itssahil/PROJECTS/Mol_Feturizer/Test_systems_manuscript/rnas/4aob

>  <Rbt.Executable>
rbdock ($Id: //depot/dev/client3/rdock/2013.1/src/exe/rbdock.cxx#4 $)

>  <Rbt.Library>
libRbt.so (2013.1, Build901 2013/11/27)

>  <Rbt.Parameter_File>
/export/apps/rDock/src/rDock_2013.1_src/data/scripts/dock_solv.prm

>  <Rbt.Receptor>
prm/blind_docking_40.prm

>  <SCORE>
-15.7591

>  <SCORE.INTER>
-14.9761

>  <SCORE.INTER.CONST>
1

>  <SCORE.INTER.POLAR>
0

>  <SCORE.INTER.ROT>
7

>  <SCORE.INTER.SOLV>
10.6265

>  <SCORE.INTER.VDW>
-21.7929

>  <SCORE.INTER.norm>
-0.554671

>  <SCORE.INTRA>
-0.782948

>  <SCORE.INTRA.DIHEDRAL>
-2.1831

>  <SCORE.INTRA.DIHEDRAL.0>
6.31833

>  <SCORE.INTRA.POLAR>
0

>  <SCORE.INTRA.POLAR.0>
0

>  <SCORE.INTRA.REPUL>
0

>  <SCORE.INTRA.REPUL.0>
0

>  <SCORE.INTRA.SOLV>
0.339524

>  <SCORE.INTRA.SOLV.lig_0>
-48.4015

>  <SCORE.INTRA.VDW>
0.138837

>  <SCORE.INTRA.VDW.0>
-2.83256

>  <SCORE.INTRA.norm>
-0.0289981

>  <SCORE.RESTR>
0

>  <SCORE.RESTR.CAVITY>
0

>  <SCORE.RESTR.norm>
0

>  <SCORE.SYSTEM>
0

>  <SCORE.SYSTEM.CONST>
0

>  <SCORE.SYSTEM.DIHEDRAL>
0

>  <SCORE.SYSTEM.SOLV>
0

>  <SCORE.SYSTEM.norm>
0

>  <SCORE.heavy>
27

>  <SCORE.norm>
-0.583669

>  <RMSD>
12.577

$$$$
ligand
 OpenBabel02271912153D
libRbt.so/2013.1/901 2013/11/27
 27 29  0  0  0  0  0  0  0  0999 V2000
    8.6234    6.5764   16.7654 N   0  0  0  0  0  0  0  0  0  0  0  0
    7.9778    7.8797   16.4775 C   0  0  2  0  0  0  0  0  0  0  0  0
    8.9932    8.7522   15.7508 C   0  0  0  0  0  0  0  0  0  0  0  0
    9.9615    9.3896   16.2833 O   0  0  0  0  0  0  0  0  0  0  0  0
    7.4882    8.4876   17.7937 C   0  0  0  0  0  0  0  0  0  0  0  0
    8.5901    8.5933   18.8396 C   0  0  0  0  0  0  0  0  0  0  0  0
    8.3154    9.2503   20.5276 S   0  0  2  0  0  0  0  0  0  0  0  0
    6.9137    8.2345   20.9901 C   0  0  0  0  0  0  0  0  0  0  0  0
    7.5600   10.8416   20.0656 C   0  0  0  0  0  0  0  0  0  0  0  0
    7.1372   11.6253   21.2776 C   0  0  1  0  0  0  0  0  0  0  0  0
    7.0198   10.7982   22.4604 O   0  0  0  0  0  0  0  0  0  0  0  0
    8.0599   12.7695   21.6303 C   0  0  1  0  0  0  0  0  0  0  0  0
    7.5265   13.9152   21.1251 O   0  0  0  0  0  0  0  0  0  0  0  0
    7.8742   12.8121   23.1290 C   0  0  1  0  0  0  0  0  0  0  0  0
    6.7414   13.5326   23.3367 O   0  0  0  0  0  0  0  0  0  0  0  0
    7.6371   11.3566   23.5888 C   0  0  2  0  0  0  0  0  0  0  0  0
    8.8163    8.8908   14.5392 O   0  0  0  0  0  0  0  0  0  0  0  0
   11.7979    9.9726   26.4078 N   0  0  0  0  0  0  0  0  0  0  0  0
   10.5062   10.4986   26.7472 C   0  0  0  0  0  0  0  0  0  0  0  0
    9.4428   10.8301   25.8713 N   0  0  0  0  0  0  0  0  0  0  0  0
    9.7514   10.5908   24.6584 C   0  0  0  0  0  0  0  0  0  0  0  0
   11.0509   10.0450   24.2067 C   0  0  0  0  0  0  0  0  0  0  0  0
   12.0361    9.7585   25.0677 C   0  0  0  0  0  0  0  0  0  0  0  0
   13.1475    9.2979   24.5314 N   0  0  0  0  0  0  0  0  0  0  0  0
   11.1358    9.8964   22.9063 N   0  0  0  0  0  0  0  0  0  0  0  0
    9.8800   10.3458   22.5418 C   0  0  0  0  0  0  0  0  0  0  0  0
    9.0062   10.7745   23.6223 N   0  0  0  0  0  0  0  0  0  0  0  0
  2  1  1  1  0  0  0
  2  3  1  0  0  0  0
  2  5  1  0  0  0  0
  3  4  1  0  0  0  0
  3 17  1  0  0  0  0
  5  6  1  0  0  0  0
  7  6  1  6  0  0  0
  7  8  1  0  0  0  0
  7  9  1  0  0  0  0
 10  9  1  6  0  0  0
 10 11  1  0  0  0  0
 10 12  1  0  0  0  0
 11 16  1  0  0  0  0
 12 13  1  6  0  0  0
 12 14  1  0  0  0  0
 14 15  1  6  0  0  0
 14 16  1  0  0  0  0
 16 27  1  6  0  0  0
 18 19  2  0  0  0  0
 18 23  1  0  0  0  0
 19 20  1  0  0  0  0
 20 21  2  0  0  0  0
 21 22  1  0  0  0  0
 21 27  1  0  0  0  0
 22 23  2  0  0  0  0
 22 25  1  0  0  0  0
 23 24  1  0  0  0  0
 25 26  2  0  0  0  0
 26 27  1  0  0  0  0
M  END
>  <CHROM.1>
-78.42496128,54.11819792,-178.86542843,51.74564401,177.05931106,-18.70443181
-152.86681596,8.91111437,10.18270862,21.37905389,-1.82281526,-0.70968471
1.13186996

>  <Name>
ligand

>  <RI>
0

>  <Rbt.Current_Directory>
/home/itssahil/PROJECTS/Mol_Feturizer/Test_systems_manuscript/rnas/4aob

>  <Rbt.Executable>
rbdock ($Id: //depot/dev/client3/rdock/2013.1/src/exe/rbdock.cxx#4 $)

>  <Rbt.Library>
libRbt.so (2013.1, Build901 2013/11/27)

>  <Rbt.Parameter_File>
/export/apps/rDock/src/rDock_2013.1_src/data/scripts/dock_solv.prm

>  <Rbt.Receptor>
prm/blind_docking_80.prm

>  <SCORE>
-13.1899

>  <SCORE.INTER>
-16.1293

>  <SCORE.INTER.CONST>
1

>  <SCORE.INTER.POLAR>
0

>  <SCORE.INTER.ROT>
7

>  <SCORE.INTER.SOLV>
10.4596

>  <SCORE.INTER.VDW>
-22.5061

>  <SCORE.INTER.norm>
-0.597383

>  <SCORE.INTRA>
2.93943

>  <SCORE.INTRA.DIHEDRAL>
1.13042

>  <SCORE.INTRA.DIHEDRAL.0>
6.31833

>  <SCORE.INTRA.POLAR>
0

>  <SCORE.INTRA.POLAR.0>
0

>  <SCORE.INTRA.REPUL>
0

>  <SCORE.INTRA.REPUL.0>
0

>  <SCORE.INTRA.SOLV>
0.184792

>  <SCORE.INTRA.SOLV.lig_0>
-48.4015

>  <SCORE.INTRA.VDW>
2.28183

>  <SCORE.INTRA.VDW.0>
-2.83256

>  <SCORE.INTRA.norm>
0.108868

>  <SCORE.RESTR>
0

>  <SCORE.RESTR.CAVITY>
0

>  <SCORE.RESTR.norm>
0

>  <SCORE.SYSTEM>
0

>  <SCORE.SYSTEM.CONST>
0

>  <SCORE.SYSTEM.DIHEDRAL>
0

>  <SCORE.SYSTEM.SOLV>
0

>  <SCORE.SYSTEM.norm>
0

>  <SCORE.heavy>
27

>  <SCORE.norm>
-0.488515

>  <RMSD>
12.582

$$$$
ligand
 OpenBabel02271912153D
libRbt.so/2013.1/901 2013/11/27
 27 29  0  0  0  0  0  0  0  0999 V2000
    6.9180    4.5101   18.8418 N   0  0  0  0  0  0  0  0  0  0  0  0
    7.6104    4.1034   17.5955 C   0  0  2  0  0  0  0  0  0  0  0  0
    7.6676    2.5814   17.5697 C   0  0  0  0  0  0  0  0  0  0  0  0
    6.9761    1.8108   16.8243 O   0  0  0  0  0  0  0  0  0  0  0  0
    8.9911    4.7623   17.5622 C   0  0  0  0  0  0  0  0  0  0  0  0
    8.9177    6.2834   17.5529 C   0  0  0  0  0  0  0  0  0  0  0  0
   10.3957    7.3615   17.4531 S   0  0  2  0  0  0  0  0  0  0  0  0
   11.1060    6.7100   15.9426 C   0  0  0  0  0  0  0  0  0  0  0  0
   11.3799    6.5726   18.7666 C   0  0  0  0  0  0  0  0  0  0  0  0
   12.7604    7.1631   18.8532 C   0  0  1  0  0  0  0  0  0  0  0  0
   12.7405    8.6061   18.9724 O   0  0  0  0  0  0  0  0  0  0  0  0
   13.5897    6.6378   20.0027 C   0  0  1  0  0  0  0  0  0  0  0  0
   14.4077    5.6613   19.5235 O   0  0  0  0  0  0  0  0  0  0  0  0
   14.4522    7.8455   20.2855 C   0  0  1  0  0  0  0  0  0  0  0  0
   15.4734    7.7828   19.3917 O   0  0  0  0  0  0  0  0  0  0  0  0
   13.5893    9.0894   19.9785 C   0  0  2  0  0  0  0  0  0  0  0  0
    8.4190    2.0557   18.3927 O   0  0  0  0  0  0  0  0  0  0  0  0
   13.2686    9.3369   25.1757 N   0  0  0  0  0  0  0  0  0  0  0  0
   14.3688    9.2553   24.2573 C   0  0  0  0  0  0  0  0  0  0  0  0
   14.3204    9.2020   22.8421 N   0  0  0  0  0  0  0  0  0  0  0  0
   13.1195    9.2486   22.4187 C   0  0  0  0  0  0  0  0  0  0  0  0
   11.9200    9.3386   23.2811 C   0  0  0  0  0  0  0  0  0  0  0  0
   12.0095    9.3719   24.6171 C   0  0  0  0  0  0  0  0  0  0  0  0
   10.8644    9.4324   25.2651 N   0  0  0  0  0  0  0  0  0  0  0  0
   10.7917    9.3610   22.6126 N   0  0  0  0  0  0  0  0  0  0  0  0
   11.2875    9.2909   21.3237 C   0  0  0  0  0  0  0  0  0  0  0  0
   12.7340    9.2273   21.1884 N   0  0  0  0  0  0  0  0  0  0  0  0
  2  1  1  1  0  0  0
  2  3  1  0  0  0  0
  2  5  1  0  0  0  0
  3  4  1  0  0  0  0
  3 17  1  0  0  0  0
  5  6  1  0  0  0  0
  7  6  1  1  0  0  0
  7  8  1  0  0  0  0
  7  9  1  0  0  0  0
 10  9  1  1  0  0  0
 10 11  1  0  0  0  0
 10 12  1  0  0  0  0
 11 16  1  0  0  0  0
 12 13  1  6  0  0  0
 12 14  1  0  0  0  0
 14 15  1  6  0  0  0
 14 16  1  0  0  0  0
 16 27  1  1  0  0  0
 18 19  2  0  0  0  0
 18 23  1  0  0  0  0
 19 20  1  0  0  0  0
 20 21  2  0  0  0  0
 21 22  1  0  0  0  0
 21 27  1  0  0  0  0
 22 23  2  0  0  0  0
 22 25  1  0  0  0  0
 23 24  1  0  0  0  0
 25 26  2  0  0  0  0
 26 27  1  0  0  0  0
M  END
>  <CHROM.1>
106.85562900,-61.56904958,-177.69671263,56.12191837,174.42264891,52.69179378
157.66277842,11.41675651,7.06282657,20.00836501,2.22082987,-0.46909017,-2.00052177

>  <Name>
ligand

>  <RI>
0

>  <Rbt.Current_Directory>
/home/itssahil/PROJECTS/Mol_Feturizer/Test_systems_manuscript/rnas/4aob

>  <Rbt.Executable>
rbdock ($Id: //depot/dev/client3/rdock/2013.1/src/exe/rbdock.cxx#4 $)

>  <Rbt.Library>
libRbt.so (2013.1, Build901 2013/11/27)

>  <Rbt.Parameter_File>
/export/apps/rDock/src/rDock_2013.1_src/data/scripts/dock_solv.prm

>  <Rbt.Receptor>
prm/blind_docking_60.prm

>  <SCORE>
-13.9162

>  <SCORE.INTER>
-13.5728

>  <SCORE.INTER.CONST>
1

>  <SCORE.INTER.POLAR>
0

>  <SCORE.INTER.ROT>
7

>  <SCORE.INTER.SOLV>
8.72414

>  <SCORE.INTER.VDW>
-20.2232

>  <SCORE.INTER.norm>
-0.502694

>  <SCORE.INTRA>
-0.343433

>  <SCORE.INTRA.DIHEDRAL>
-2.87148

>  <SCORE.INTRA.DIHEDRAL.0>
6.31833

>  <SCORE.INTRA.POLAR>
0

>  <SCORE.INTRA.POLAR.0>
0

>  <SCORE.INTRA.REPUL>
0

>  <SCORE.INTRA.REPUL.0>
0

>  <SCORE.INTRA.SOLV>
-0.0621938

>  <SCORE.INTRA.SOLV.lig_0>
-48.4015

>  <SCORE.INTRA.VDW>
1.1234

>  <SCORE.INTRA.VDW.0>
-2.83256

>  <SCORE.INTRA.norm>
-0.0127197

>  <SCORE.RESTR>
0

>  <SCORE.RESTR.CAVITY>
0

>  <SCORE.RESTR.norm>
0

>  <SCORE.SYSTEM>
0

>  <SCORE.SYSTEM.CONST>
0

>  <SCORE.SYSTEM.DIHEDRAL>
0

>  <SCORE.SYSTEM.SOLV>
0

>  <SCORE.SYSTEM.norm>
0

>  <SCORE.heavy>
27

>  <SCORE.norm>
-0.515414

>  <RMSD>
12.585

$$$$
ligand
 OpenBabel02271912153D
libRbt.so/2013.1/901 2013/11/27
 27 29  0  0  0  0  0  0  0  0999 V2000
    6.6471    3.3877   18.6826 N   0  0  0  0  0  0  0  0  0  0  0  0
    7.6587    3.7700   17.6683 C   0  0  2  0  0  0  0  0  0  0  0  0
    8.6294    2.6060   17.5166 C   0  0  0  0  0  0  0  0  0  0  0  0
    9.3712    2.1153   18.4312 O   0  0  0  0  0  0  0  0  0  0  0  0
    8.3347    5.0688   18.1128 C   0  0  0  0  0  0  0  0  0  0  0  0
    9.3294    5.5961   17.0873 C   0  0  0  0  0  0  0  0  0  0  0  0
   10.3754    7.0739   17.3675 S   0  0  2  0  0  0  0  0  0  0  0  0
   11.3726    6.9871   15.8813 C   0  0  0  0  0  0  0  0  0  0  0  0
   11.4610    6.3814   18.6552 C   0  0  0  0  0  0  0  0  0  0  0  0
   12.7754    7.1095   18.7205 C   0  0  1  0  0  0  0  0  0  0  0  0
   12.6113    8.5471   18.7775 O   0  0  0  0  0  0  0  0  0  0  0  0
   13.6444    6.7187   19.8939 C   0  0  1  0  0  0  0  0  0  0  0  0
   14.5589    5.8090   19.4595 O   0  0  0  0  0  0  0  0  0  0  0  0
   14.3806    8.0172   20.1272 C   0  0  1  0  0  0  0  0  0  0  0  0
   15.4094    8.0186   19.2400 O   0  0  0  0  0  0  0  0  0  0  0  0
   13.4006    9.1547   19.7644 C   0  0  2  0  0  0  0  0  0  0  0  0
    8.7387    2.1390   16.3815 O   0  0  0  0  0  0  0  0  0  0  0  0
   13.0042    9.2810   24.9608 N   0  0  0  0  0  0  0  0  0  0  0  0
   14.1180    9.2294   24.0567 C   0  0  0  0  0  0  0  0  0  0  0  0
   14.0901    9.2080   22.6401 N   0  0  0  0  0  0  0  0  0  0  0  0
   12.8949    9.2545   22.2006 C   0  0  0  0  0  0  0  0  0  0  0  0
   11.6826    9.3150   23.0475 C   0  0  0  0  0  0  0  0  0  0  0  0
   11.7529    9.3186   24.3851 C   0  0  0  0  0  0  0  0  0  0  0  0
   10.5982    9.3549   25.0177 N   0  0  0  0  0  0  0  0  0  0  0  0
   10.5638    9.3434   22.3636 N   0  0  0  0  0  0  0  0  0  0  0  0
   11.0784    9.3068   21.0807 C   0  0  0  0  0  0  0  0  0  0  0  0
   12.5272    9.2581   20.9648 N   0  0  0  0  0  0  0  0  0  0  0  0
  2  1  1  1  0  0  0
  2  3  1  0  0  0  0
  2  5  1  0  0  0  0
  3  4  1  0  0  0  0
  3 17  1  0  0  0  0
  5  6  1  0  0  0  0
  7  6  1  6  0  0  0
  7  8  1  0  0  0  0
  7  9  1  0  0  0  0
 10  9  1  1  0  0  0
 10 11  1  0  0  0  0
 10 12  1  0  0  0  0
 11 16  1  0  0  0  0
 12 13  1  6  0  0  0
 12 14  1  0  0  0  0
 14 15  1  6  0  0  0
 14 16  1  0  0  0  0
 16 27  1  1  0  0  0
 18 19  2  0  0  0  0
 18 23  1  0  0  0  0
 19 20  1  0  0  0  0
 20 21  2  0  0  0  0
 21 22  1  0  0  0  0
 21 27  1  0  0  0  0
 22 23  2  0  0  0  0
 22 25  1  0  0  0  0
 23 24  1  0  0  0  0
 25 26  2  0  0  0  0
 26 27  1  0  0  0  0
M  END
>  <CHROM.1>
-60.76973078,-176.16831435,-176.11664202,174.28757623,156.46142331,49.47716828
151.19940970,11.46499187,7.01011036,19.86375145,2.14288779,-0.48976132,-2.05314132

>  <Name>
ligand

>  <RI>
0

>  <Rbt.Current_Directory>
/home/itssahil/PROJECTS/Mol_Feturizer/Test_systems_manuscript/rnas/4aob

>  <Rbt.Executable>
rbdock ($Id: //depot/dev/client3/rdock/2013.1/src/exe/rbdock.cxx#4 $)

>  <Rbt.Library>
libRbt.so (2013.1, Build901 2013/11/27)

>  <Rbt.Parameter_File>
/export/apps/rDock/src/rDock_2013.1_src/data/scripts/dock_solv.prm

>  <Rbt.Receptor>
prm/blind_docking_60.prm

>  <SCORE>
-14.9835

>  <SCORE.INTER>
-14.3277

>  <SCORE.INTER.CONST>
1

>  <SCORE.INTER.POLAR>
0

>  <SCORE.INTER.ROT>
7

>  <SCORE.INTER.SOLV>
10.4507

>  <SCORE.INTER.VDW>
-21.302

>  <SCORE.INTER.norm>
-0.530654

>  <SCORE.INTRA>
-0.655838

>  <SCORE.INTRA.DIHEDRAL>
-2.03046

>  <SCORE.INTRA.DIHEDRAL.0>
6.31833

>  <SCORE.INTRA.POLAR>
0

>  <SCORE.INTRA.POLAR.0>
0

>  <SCORE.INTRA.REPUL>
0

>  <SCORE.INTRA.REPUL.0>
0

>  <SCORE.INTRA.SOLV>
-0.759739

>  <SCORE.INTRA.SOLV.lig_0>
-48.4015

>  <SCORE.INTRA.VDW>
0.739264

>  <SCORE.INTRA.VDW.0>
-2.83256

>  <SCORE.INTRA.norm>
-0.0242903

>  <SCORE.RESTR>
0

>  <SCORE.RESTR.CAVITY>
0

>  <SCORE.RESTR.norm>
0

>  <SCORE.SYSTEM>
0

>  <SCORE.SYSTEM.CONST>
0

>  <SCORE.SYSTEM.DIHEDRAL>
0

>  <SCORE.SYSTEM.SOLV>
0

>  <SCORE.SYSTEM.norm>
0

>  <SCORE.heavy>
27

>  <SCORE.norm>
-0.554944

>  <RMSD>
12.654

$$$$
ligand
 OpenBabel02271912153D
libRbt.so/2013.1/901 2013/11/27
 27 29  0  0  0  0  0  0  0  0999 V2000
   13.6417    9.4078   28.0695 N   0  0  0  0  0  0  0  0  0  0  0  0
   13.0597    9.7923   26.7612 C   0  0  2  0  0  0  0  0  0  0  0  0
   11.5998    9.3574   26.7549 C   0  0  0  0  0  0  0  0  0  0  0  0
   11.1679    8.1570   26.7603 O   0  0  0  0  0  0  0  0  0  0  0  0
   13.8881    9.1502   25.6463 C   0  0  0  0  0  0  0  0  0  0  0  0
   13.3555    9.4724   24.2565 C   0  0  0  0  0  0  0  0  0  0  0  0
   11.8508    8.7005   23.5517 S   0  0  2  0  0  0  0  0  0  0  0  0
   12.3462    8.6612   21.8302 C   0  0  0  0  0  0  0  0  0  0  0  0
   10.7486   10.1468   23.6495 C   0  0  0  0  0  0  0  0  0  0  0  0
    9.3610    9.7563   24.0784 C   0  0  1  0  0  0  0  0  0  0  0  0
    8.5937   10.8825   24.5681 O   0  0  0  0  0  0  0  0  0  0  0  0
    8.5371    9.1006   22.9938 C   0  0  1  0  0  0  0  0  0  0  0  0
    8.6022    7.7524   23.1688 O   0  0  0  0  0  0  0  0  0  0  0  0
    7.1516    9.5392   23.4068 C   0  0  1  0  0  0  0  0  0  0  0  0
    6.7621    8.6626   24.3687 O   0  0  0  0  0  0  0  0  0  0  0  0
    7.2987   10.9432   24.0339 C   0  0  2  0  0  0  0  0  0  0  0  0
   10.7674   10.2630   26.6815 O   0  0  0  0  0  0  0  0  0  0  0  0
    6.2220   15.5688   21.8847 N   0  0  0  0  0  0  0  0  0  0  0  0
    6.0079   15.0134   23.1909 C   0  0  0  0  0  0  0  0  0  0  0  0
    6.3619   13.7232   23.6579 N   0  0  0  0  0  0  0  0  0  0  0  0
    6.9450   13.0467   22.7490 C   0  0  0  0  0  0  0  0  0  0  0  0
    7.2171   13.5293   21.3766 C   0  0  0  0  0  0  0  0  0  0  0  0
    6.8522   14.7525   20.9709 C   0  0  0  0  0  0  0  0  0  0  0  0
    7.1368   15.0478   19.7193 N   0  0  0  0  0  0  0  0  0  0  0  0
    7.8193   12.6452   20.6177 N   0  0  0  0  0  0  0  0  0  0  0  0
    7.9308   11.6049   21.5218 C   0  0  0  0  0  0  0  0  0  0  0  0
    7.3970   11.8436   22.8533 N   0  0  0  0  0  0  0  0  0  0  0  0
  2  1  1  1  0  0  0
  2  3  1  0  0  0  0
  2  5  1  0  0  0  0
  3  4  1  0  0  0  0
  3 17  1  0  0  0  0
  5  6  1  0  0  0  0
  7  6  1  1  0  0  0
  7  8  1  0  0  0  0
  7  9  1  0  0  0  0
 10  9  1  6  0  0  0
 10 11  1  0  0  0  0
 10 12  1  0  0  0  0
 11 16  1  0  0  0  0
 12 13  1  1  0  0  0
 12 14  1  0  0  0  0
 14 15  1  1  0  0  0
 14 16  1  0  0  0  0
 16 27  1  6  0  0  0
 18 19  2  0  0  0  0
 18 23  1  0  0  0  0
 19 20  1  0  0  0  0
 20 21  2  0  0  0  0
 21 22  1  0  0  0  0
 21 27  1  0  0  0  0
 22 23  2  0  0  0  0
 22 25  1  0  0  0  0
 23 24  1  0  0  0  0
 25 26  2  0  0  0  0
 26 27  1  0  0  0  0
M  END
>  <CHROM.1>
-67.26509182,179.22499779,-74.95917715,-146.92255874,-140.00986834,161.72874644
-107.69009773,9.38453669,10.77974491,23.71821245,-0.27552071,-0.80015553
0.52543392

>  <Name>
ligand

>  <RI>
0

>  <Rbt.Current_Directory>
/home/itssahil/PROJECTS/Mol_Feturizer/Test_systems_manuscript/rnas/4aob

>  <Rbt.Executable>
rbdock ($Id: //depot/dev/client3/rdock/2013.1/src/exe/rbdock.cxx#4 $)

>  <Rbt.Library>
libRbt.so (2013.1, Build901 2013/11/27)

>  <Rbt.Parameter_File>
/export/apps/rDock/src/rDock_2013.1_src/data/scripts/dock_solv.prm

>  <Rbt.Receptor>
prm/blind_docking_80.prm

>  <SCORE>
-12.4758

>  <SCORE.INTER>
-14.1681

>  <SCORE.INTER.CONST>
1

>  <SCORE.INTER.POLAR>
0

>  <SCORE.INTER.ROT>
7

>  <SCORE.INTER.SOLV>
10.5841

>  <SCORE.INTER.VDW>
-21.2401

>  <SCORE.INTER.norm>
-0.524745

>  <SCORE.INTRA>
1.64498

>  <SCORE.INTRA.DIHEDRAL>
6.12841

>  <SCORE.INTRA.DIHEDRAL.0>
6.31833

>  <SCORE.INTRA.POLAR>
0

>  <SCORE.INTRA.POLAR.0>
0

>  <SCORE.INTRA.REPUL>
0

>  <SCORE.INTRA.REPUL.0>
0

>  <SCORE.INTRA.SOLV>
-0.479966

>  <SCORE.INTRA.SOLV.lig_0>
-48.4015

>  <SCORE.INTRA.VDW>
-1.17924

>  <SCORE.INTRA.VDW.0>
-2.83256

>  <SCORE.INTRA.norm>
0.0609253

>  <SCORE.RESTR>
0.0473245

>  <SCORE.RESTR.CAVITY>
0.0473245

>  <SCORE.RESTR.norm>
0.00175276

>  <SCORE.SYSTEM>
0

>  <SCORE.SYSTEM.CONST>
0

>  <SCORE.SYSTEM.DIHEDRAL>
0

>  <SCORE.SYSTEM.SOLV>
0

>  <SCORE.SYSTEM.norm>
0

>  <SCORE.heavy>
27

>  <SCORE.norm>
-0.462067

>  <RMSD>
12.662

$$$$
ligand
 OpenBabel02271912153D
libRbt.so/2013.1/901 2013/11/27
 27 29  0  0  0  0  0  0  0  0999 V2000
    7.0602    6.6096   19.1140 N   0  0  0  0  0  0  0  0  0  0  0  0
    7.9311    7.7364   18.7013 C   0  0  2  0  0  0  0  0  0  0  0  0
    7.4050    9.0006   19.3686 C   0  0  0  0  0  0  0  0  0  0  0  0
    6.2242    9.1852   19.8149 O   0  0  0  0  0  0  0  0  0  0  0  0
    7.9406    7.8168   17.1732 C   0  0  0  0  0  0  0  0  0  0  0  0
    8.9055    8.8697   16.6447 C   0  0  0  0  0  0  0  0  0  0  0  0
   10.7196    8.6247   16.5694 S   0  0  2  0  0  0  0  0  0  0  0  0
   10.7493    7.1001   15.6285 C   0  0  0  0  0  0  0  0  0  0  0  0
   10.9775    8.0758   18.2865 C   0  0  0  0  0  0  0  0  0  0  0  0
   12.4299    7.8053   18.5681 C   0  0  1  0  0  0  0  0  0  0  0  0
   13.1211    8.9680   19.0853 O   0  0  0  0  0  0  0  0  0  0  0  0
   12.6738    6.6776   19.5448 C   0  0  1  0  0  0  0  0  0  0  0  0
   12.9545    5.5528   18.8317 O   0  0  0  0  0  0  0  0  0  0  0  0
   13.9659    7.1425   20.1746 C   0  0  1  0  0  0  0  0  0  0  0  0
   14.9495    6.7493   19.3240 O   0  0  0  0  0  0  0  0  0  0  0  0
   13.9144    8.6860   20.2066 C   0  0  2  0  0  0  0  0  0  0  0  0
    8.1913    9.9476   19.4260 O   0  0  0  0  0  0  0  0  0  0  0  0
   13.5639    9.4800   25.3468 N   0  0  0  0  0  0  0  0  0  0  0  0
   14.6670    9.2608   24.4547 C   0  0  0  0  0  0  0  0  0  0  0  0
   14.6273    9.0640   23.0520 N   0  0  0  0  0  0  0  0  0  0  0  0
   13.4326    9.1142   22.6119 C   0  0  0  0  0  0  0  0  0  0  0  0
   12.2311    9.3399   23.4462 C   0  0  0  0  0  0  0  0  0  0  0  0
   12.3116    9.5071   24.7727 C   0  0  0  0  0  0  0  0  0  0  0  0
   11.1649    9.6792   25.3974 N   0  0  0  0  0  0  0  0  0  0  0  0
   11.1099    9.3379   22.7656 N   0  0  0  0  0  0  0  0  0  0  0  0
   11.6124    9.1159   21.4967 C   0  0  0  0  0  0  0  0  0  0  0  0
   13.0561    8.9815   21.3858 N   0  0  0  0  0  0  0  0  0  0  0  0
  2  1  1  6  0  0  0
  2  3  1  0  0  0  0
  2  5  1  0  0  0  0
  3  4  1  0  0  0  0
  3 17  1  0  0  0  0
  5  6  1  0  0  0  0
  7  6  1  1  0  0  0
  7  8  1  0  0  0  0
  7  9  1  0  0  0  0
 10  9  1  1  0  0  0
 10 11  1  0  0  0  0
 10 12  1  0  0  0  0
 11 16  1  0  0  0  0
 12 13  1  6  0  0  0
 12 14  1  0  0  0  0
 14 15  1  6  0  0  0
 14 16  1  0  0  0  0
 16 27  1  1  0  0  0
 18 19  2  0  0  0  0
 18 23  1  0  0  0  0
 19 20  1  0  0  0  0
 20 21  2  0  0  0  0
 21 22  1  0  0  0  0
 21 27  1  0  0  0  0
 22 23  2  0  0  0  0
 22 25  1  0  0  0  0
 23 24  1  0  0  0  0
 25 26  2  0  0  0  0
 26 27  1  0  0  0  0
M  END
>  <CHROM.1>
-21.65801540,-174.98535889,77.08223541,54.56128229,-178.93529602,91.43322069
-165.66187424,11.33519490,8.40608307,20.13756912,2.22796439,0.19040944,-1.87344710

>  <Name>
ligand

>  <RI>
0

>  <Rbt.Current_Directory>
/home/itssahil/PROJECTS/Mol_Feturizer/Test_systems_manuscript/rnas/4aob

>  <Rbt.Executable>
rbdock ($Id: //depot/dev/client3/rdock/2013.1/src/exe/rbdock.cxx#4 $)

>  <Rbt.Library>
libRbt.so (2013.1, Build901 2013/11/27)

>  <Rbt.Parameter_File>
/export/apps/rDock/src/rDock_2013.1_src/data/scripts/dock_solv.prm

>  <Rbt.Receptor>
prm/blind_docking_100.prm

>  <SCORE>
-15.228

>  <SCORE.INTER>
-15.4677

>  <SCORE.INTER.CONST>
1

>  <SCORE.INTER.POLAR>
0

>  <SCORE.INTER.ROT>
7

>  <SCORE.INTER.SOLV>
8.63733

>  <SCORE.INTER.VDW>
-21.4576

>  <SCORE.INTER.norm>
-0.572877

>  <SCORE.INTRA>
0.23972

>  <SCORE.INTRA.DIHEDRAL>
0.877987

>  <SCORE.INTRA.DIHEDRAL.0>
6.31833

>  <SCORE.INTRA.POLAR>
0

>  <SCORE.INTRA.POLAR.0>
0

>  <SCORE.INTRA.REPUL>
0

>  <SCORE.INTRA.REPUL.0>
0

>  <SCORE.INTRA.SOLV>
-0.397337

>  <SCORE.INTRA.SOLV.lig_0>
-48.4015

>  <SCORE.INTRA.VDW>
-0.000604778

>  <SCORE.INTRA.VDW.0>
-2.83256

>  <SCORE.INTRA.norm>
0.00887853

>  <SCORE.RESTR>
0

>  <SCORE.RESTR.CAVITY>
0

>  <SCORE.RESTR.norm>
0

>  <SCORE.SYSTEM>
0

>  <SCORE.SYSTEM.CONST>
0

>  <SCORE.SYSTEM.DIHEDRAL>
0

>  <SCORE.SYSTEM.SOLV>
0

>  <SCORE.SYSTEM.norm>
0

>  <SCORE.heavy>
27

>  <SCORE.norm>
-0.563999

>  <RMSD>
12.672

$$$$
ligand
 OpenBabel02271912153D
libRbt.so/2013.1/901 2013/11/27
 27 29  0  0  0  0  0  0  0  0999 V2000
    8.9331    5.3067   16.0301 N   0  0  0  0  0  0  0  0  0  0  0  0
    7.4828    5.4112   16.3202 C   0  0  2  0  0  0  0  0  0  0  0  0
    6.7550    4.4216   15.4195 C   0  0  0  0  0  0  0  0  0  0  0  0
    7.1546    3.9952   14.2855 O   0  0  0  0  0  0  0  0  0  0  0  0
    7.0419    6.8611   16.1083 C   0  0  0  0  0  0  0  0  0  0  0  0
    7.6986    7.8255   17.0869 C   0  0  0  0  0  0  0  0  0  0  0  0
    7.5812    7.6478   18.9066 S   0  0  2  0  0  0  0  0  0  0  0  0
    5.8347    7.9973   19.1019 C   0  0  0  0  0  0  0  0  0  0  0  0
    8.3880    9.2128   19.3715 C   0  0  0  0  0  0  0  0  0  0  0  0
    8.3780    9.4186   20.8613 C   0  0  1  0  0  0  0  0  0  0  0  0
    8.9123    8.2821   21.5822 O   0  0  0  0  0  0  0  0  0  0  0  0
    9.1461   10.6350   21.3255 C   0  0  1  0  0  0  0  0  0  0  0  0
    8.2578   11.6471   21.5228 O   0  0  0  0  0  0  0  0  0  0  0  0
    9.5977   10.1637   22.6879 C   0  0  1  0  0  0  0  0  0  0  0  0
    8.5471   10.3884   23.5193 O   0  0  0  0  0  0  0  0  0  0  0  0
    9.8347    8.6414   22.5753 C   0  0  2  0  0  0  0  0  0  0  0  0
    5.6484    4.0477   15.8121 O   0  0  0  0  0  0  0  0  0  0  0  0
   14.3854    6.1321   22.1635 N   0  0  0  0  0  0  0  0  0  0  0  0
   13.1878    5.8875   22.9162 C   0  0  0  0  0  0  0  0  0  0  0  0
   11.9970    6.6553   22.9327 N   0  0  0  0  0  0  0  0  0  0  0  0
   12.0819    7.6568   22.1494 C   0  0  0  0  0  0  0  0  0  0  0  0
   13.2669    7.9922   21.3285 C   0  0  0  0  0  0  0  0  0  0  0  0
   14.3794    7.2467   21.3535 C   0  0  0  0  0  0  0  0  0  0  0  0
   15.3668    7.6682   20.5903 N   0  0  0  0  0  0  0  0  0  0  0  0
   13.1188    9.0796   20.6102 N   0  0  0  0  0  0  0  0  0  0  0  0
   11.8313    9.4240   20.9786 C   0  0  0  0  0  0  0  0  0  0  0  0
   11.1722    8.5439   21.9302 N   0  0  0  0  0  0  0  0  0  0  0  0
  2  1  1  6  0  0  0
  2  3  1  0  0  0  0
  2  5  1  0  0  0  0
  3  4  1  0  0  0  0
  3 17  1  0  0  0  0
  5  6  1  0  0  0  0
  7  6  1  6  0  0  0
  7  8  1  0  0  0  0
  7  9  1  0  0  0  0
 10  9  1  6  0  0  0
 10 11  1  0  0  0  0
 10 12  1  0  0  0  0
 11 16  1  0  0  0  0
 12 13  1  1  0  0  0
 12 14  1  0  0  0  0
 14 15  1  1  0  0  0
 14 16  1  0  0  0  0
 16 27  1  6  0  0  0
 18 19  2  0  0  0  0
 18 23  1  0  0  0  0
 19 20  1  0  0  0  0
 20 21  2  0  0  0  0
 21 22  1  0  0  0  0
 21 27  1  0  0  0  0
 22 23  2  0  0  0  0
 22 25  1  0  0  0  0
 23 24  1  0  0  0  0
 25 26  2  0  0  0  0
 26 27  1  0  0  0  0
M  END
>  <CHROM.1>
-26.62705640,-64.50771780,-56.67121525,-67.94729263,176.49648506,52.33642183
-108.73173869,9.62922267,7.71175063,19.88019570,-2.31077799,-0.37405061,0.80710565

>  <Name>
ligand

>  <RI>
0

>  <Rbt.Current_Directory>
/home/itssahil/PROJECTS/Mol_Feturizer/Test_systems_manuscript/rnas/4aob

>  <Rbt.Executable>
rbdock ($Id: //depot/dev/client3/rdock/2013.1/src/exe/rbdock.cxx#4 $)

>  <Rbt.Library>
libRbt.so (2013.1, Build901 2013/11/27)

>  <Rbt.Parameter_File>
/export/apps/rDock/src/rDock_2013.1_src/data/scripts/dock_solv.prm

>  <Rbt.Receptor>
prm/blind_docking_100.prm

>  <SCORE>
-12.0931

>  <SCORE.INTER>
-11.2966

>  <SCORE.INTER.CONST>
1

>  <SCORE.INTER.POLAR>
0

>  <SCORE.INTER.ROT>
7

>  <SCORE.INTER.SOLV>
9.9728

>  <SCORE.INTER.VDW>
-19.122

>  <SCORE.INTER.norm>
-0.418393

>  <SCORE.INTRA>
-0.796492

>  <SCORE.INTRA.DIHEDRAL>
-2.80969

>  <SCORE.INTRA.DIHEDRAL.0>
6.31833

>  <SCORE.INTRA.POLAR>
0

>  <SCORE.INTRA.POLAR.0>
0

>  <SCORE.INTRA.REPUL>
0

>  <SCORE.INTRA.REPUL.0>
0

>  <SCORE.INTRA.SOLV>
0.405131

>  <SCORE.INTRA.SOLV.lig_0>
-48.4015

>  <SCORE.INTRA.VDW>
0.405789

>  <SCORE.INTRA.VDW.0>
-2.83256

>  <SCORE.INTRA.norm>
-0.0294997

>  <SCORE.RESTR>
0

>  <SCORE.RESTR.CAVITY>
0

>  <SCORE.RESTR.norm>
0

>  <SCORE.SYSTEM>
0

>  <SCORE.SYSTEM.CONST>
0

>  <SCORE.SYSTEM.DIHEDRAL>
0

>  <SCORE.SYSTEM.SOLV>
0

>  <SCORE.SYSTEM.norm>
0

>  <SCORE.heavy>
27

>  <SCORE.norm>
-0.447893

>  <RMSD>
12.680

$$$$
ligand
 OpenBabel02271912153D
libRbt.so/2013.1/901 2013/11/27
 27 29  0  0  0  0  0  0  0  0999 V2000
    7.1594    3.9753   17.0455 N   0  0  0  0  0  0  0  0  0  0  0  0
    7.2397    5.4557   17.0297 C   0  0  2  0  0  0  0  0  0  0  0  0
    6.4861    5.9500   15.8016 C   0  0  0  0  0  0  0  0  0  0  0  0
    6.9170    6.7781   14.9320 O   0  0  0  0  0  0  0  0  0  0  0  0
    8.7130    5.8688   17.0435 C   0  0  0  0  0  0  0  0  0  0  0  0
    8.9019    7.3719   17.1995 C   0  0  0  0  0  0  0  0  0  0  0  0
   10.5459    8.1754   17.2897 S   0  0  2  0  0  0  0  0  0  0  0  0
   11.2731    7.4738   15.8100 C   0  0  0  0  0  0  0  0  0  0  0  0
   11.2513    7.1699   18.6342 C   0  0  0  0  0  0  0  0  0  0  0  0
   12.6888    7.5267   18.8955 C   0  0  1  0  0  0  0  0  0  0  0  0
   12.8325    8.8132   19.5443 O   0  0  0  0  0  0  0  0  0  0  0  0
   13.4344    6.5208   19.7424 C   0  0  1  0  0  0  0  0  0  0  0  0
   14.1426    5.7088   18.9109 O   0  0  0  0  0  0  0  0  0  0  0  0
   14.4251    7.4306   20.4303 C   0  0  1  0  0  0  0  0  0  0  0  0
   15.4462    7.5922   19.5490 O   0  0  0  0  0  0  0  0  0  0  0  0
   13.7151    8.7874   20.6335 C   0  0  2  0  0  0  0  0  0  0  0  0
    5.3289    5.5446   15.6793 O   0  0  0  0  0  0  0  0  0  0  0  0
   13.0199    9.4029   25.7631 N   0  0  0  0  0  0  0  0  0  0  0  0
   14.0275    9.8487   24.8430 C   0  0  0  0  0  0  0  0  0  0  0  0
   14.0966    9.6165   23.4468 N   0  0  0  0  0  0  0  0  0  0  0  0
   13.1005    8.9325   23.0423 C   0  0  0  0  0  0  0  0  0  0  0  0
   12.0092    8.4316   23.9076 C   0  0  0  0  0  0  0  0  0  0  0  0
   11.9898    8.6614   25.2269 C   0  0  0  0  0  0  0  0  0  0  0  0
   10.9720    8.1423   25.8823 N   0  0  0  0  0  0  0  0  0  0  0  0
   11.1006    7.7406   23.2616 N   0  0  0  0  0  0  0  0  0  0  0  0
   11.6223    7.8144   21.9833 C   0  0  0  0  0  0  0  0  0  0  0  0
   12.8625    8.5585   21.8314 N   0  0  0  0  0  0  0  0  0  0  0  0
  2  1  1  6  0  0  0
  2  3  1  0  0  0  0
  2  5  1  0  0  0  0
  3  4  1  0  0  0  0
  3 17  1  0  0  0  0
  5  6  1  0  0  0  0
  7  6  1  6  0  0  0
  7  8  1  0  0  0  0
  7  9  1  0  0  0  0
 10  9  1  1  0  0  0
 10 11  1  0  0  0  0
 10 12  1  0  0  0  0
 11 16  1  0  0  0  0
 12 13  1  6  0  0  0
 12 14  1  0  0  0  0
 14 15  1  6  0  0  0
 14 16  1  0  0  0  0
 16 27  1  1  0  0  0
 18 19  2  0  0  0  0
 18 23  1  0  0  0  0
 19 20  1  0  0  0  0
 20 21  2  0  0  0  0
 21 22  1  0  0  0  0
 21 27  1  0  0  0  0
 22 23  2  0  0  0  0
 22 25  1  0  0  0  0
 23 24  1  0  0  0  0
 25 26  2  0  0  0  0
 26 27  1  0  0  0  0
M  END
>  <CHROM.1>
-129.95583563,-173.01727786,178.57491205,52.39338180,175.80789002,72.22811235
-152.20431465,11.24268696,7.52464420,19.85825550,2.18792548,-0.18905045,-1.77323880

>  <Name>
ligand

>  <RI>
0

>  <Rbt.Current_Directory>
/home/itssahil/PROJECTS/Mol_Feturizer/Test_systems_manuscript/rnas/4aob

>  <Rbt.Executable>
rbdock ($Id: //depot/dev/client3/rdock/2013.1/src/exe/rbdock.cxx#4 $)

>  <Rbt.Library>
libRbt.so (2013.1, Build901 2013/11/27)

>  <Rbt.Parameter_File>
/export/apps/rDock/src/rDock_2013.1_src/data/scripts/dock_solv.prm

>  <Rbt.Receptor>
prm/blind_docking_100.prm

>  <SCORE>
-12.9469

>  <SCORE.INTER>
-11.9246

>  <SCORE.INTER.CONST>
1

>  <SCORE.INTER.POLAR>
0

>  <SCORE.INTER.ROT>
7

>  <SCORE.INTER.SOLV>
6.84164

>  <SCORE.INTER.VDW>
-18.4969

>  <SCORE.INTER.norm>
-0.441652

>  <SCORE.INTRA>
-1.02229

>  <SCORE.INTRA.DIHEDRAL>
-2.56862

>  <SCORE.INTRA.DIHEDRAL.0>
6.31833

>  <SCORE.INTRA.POLAR>
0

>  <SCORE.INTRA.POLAR.0>
0

>  <SCORE.INTRA.REPUL>
0

>  <SCORE.INTRA.REPUL.0>
0

>  <SCORE.INTRA.SOLV>
-0.81985

>  <SCORE.INTRA.SOLV.lig_0>
-48.4015

>  <SCORE.INTRA.VDW>
0.671947

>  <SCORE.INTRA.VDW.0>
-2.83256

>  <SCORE.INTRA.norm>
-0.0378625

>  <SCORE.RESTR>
0

>  <SCORE.RESTR.CAVITY>
0

>  <SCORE.RESTR.norm>
0

>  <SCORE.SYSTEM>
0

>  <SCORE.SYSTEM.CONST>
0

>  <SCORE.SYSTEM.DIHEDRAL>
0

>  <SCORE.SYSTEM.SOLV>
0

>  <SCORE.SYSTEM.norm>
0

>  <SCORE.heavy>
27

>  <SCORE.norm>
-0.479514

>  <RMSD>
12.715

$$$$
ligand
 OpenBabel02271912153D
libRbt.so/2013.1/901 2013/11/27
 27 29  0  0  0  0  0  0  0  0999 V2000
   10.1060    6.3848   15.3833 N   0  0  0  0  0  0  0  0  0  0  0  0
    9.0996    7.2116   16.0916 C   0  0  2  0  0  0  0  0  0  0  0  0
    7.8544    7.2806   15.2170 C   0  0  0  0  0  0  0  0  0  0  0  0
    7.7768    7.7900   14.0499 O   0  0  0  0  0  0  0  0  0  0  0  0
    9.7096    8.5836   16.3867 C   0  0  0  0  0  0  0  0  0  0  0  0
    8.8466    9.4239   17.3185 C   0  0  0  0  0  0  0  0  0  0  0  0
    8.7390    9.1342   19.1244 S   0  0  2  0  0  0  0  0  0  0  0  0
    7.8366    7.5864   19.0982 C   0  0  0  0  0  0  0  0  0  0  0  0
    7.4595   10.3718   19.5086 C   0  0  0  0  0  0  0  0  0  0  0  0
    7.4162   10.6839   20.9792 C   0  0  1  0  0  0  0  0  0  0  0  0
    7.6290    9.5114   21.8020 O   0  0  0  0  0  0  0  0  0  0  0  0
    8.4211   11.7219   21.4238 C   0  0  1  0  0  0  0  0  0  0  0  0
    7.7851   12.9229   21.4978 O   0  0  0  0  0  0  0  0  0  0  0  0
    8.6742   11.2613   22.8402 C   0  0  1  0  0  0  0  0  0  0  0  0
    7.6614   11.7825   23.5806 O   0  0  0  0  0  0  0  0  0  0  0  0
    8.5539    9.7213   22.8347 C   0  0  2  0  0  0  0  0  0  0  0  0
    6.8164    6.8483   15.7211 O   0  0  0  0  0  0  0  0  0  0  0  0
   12.5909    6.4385   23.1517 N   0  0  0  0  0  0  0  0  0  0  0  0
   11.3546    6.5553   23.8718 C   0  0  0  0  0  0  0  0  0  0  0  0
   10.3198    7.5038   23.6783 N   0  0  0  0  0  0  0  0  0  0  0  0
   10.5971    8.3022   22.7247 C   0  0  0  0  0  0  0  0  0  0  0  0
   11.8386    8.2618   21.9199 C   0  0  0  0  0  0  0  0  0  0  0  0
   12.7995    7.3566   22.1456 C   0  0  0  0  0  0  0  0  0  0  0  0
   13.8607    7.4445   21.3704 N   0  0  0  0  0  0  0  0  0  0  0  0
   11.9008    9.1960   21.0013 N   0  0  0  0  0  0  0  0  0  0  0  0
   10.6885    9.8214   21.2279 C   0  0  0  0  0  0  0  0  0  0  0  0
    9.8647    9.2714   22.2926 N   0  0  0  0  0  0  0  0  0  0  0  0
  2  1  1  6  0  0  0
  2  3  1  0  0  0  0
  2  5  1  0  0  0  0
  3  4  1  0  0  0  0
  3 17  1  0  0  0  0
  5  6  1  0  0  0  0
  7  6  1  6  0  0  0
  7  8  1  0  0  0  0
  7  9  1  0  0  0  0
 10  9  1  6  0  0  0
 10 11  1  0  0  0  0
 10 12  1  0  0  0  0
 11 16  1  0  0  0  0
 12 13  1  1  0  0  0
 12 14  1  0  0  0  0
 14 15  1  1  0  0  0
 14 16  1  0  0  0  0
 16 27  1  6  0  0  0
 18 19  2  0  0  0  0
 18 23  1  0  0  0  0
 19 20  1  0  0  0  0
 20 21  2  0  0  0  0
 21 22  1  0  0  0  0
 21 27  1  0  0  0  0
 22 23  2  0  0  0  0
 22 25  1  0  0  0  0
 23 24  1  0  0  0  0
 25 26  2  0  0  0  0
 26 27  1  0  0  0  0
M  END
>  <CHROM.1>
-62.45508287,-170.15075195,75.91669537,-69.92408996,-163.04219266,-38.25330808
-116.91211907,9.37129329,8.87484035,20.11676473,-1.92101924,-0.69950129,1.12540567

>  <Name>
ligand

>  <RI>
0

>  <Rbt.Current_Directory>
/home/itssahil/PROJECTS/Mol_Feturizer/Test_systems_manuscript/rnas/4aob

>  <Rbt.Executable>
rbdock ($Id: //depot/dev/client3/rdock/2013.1/src/exe/rbdock.cxx#4 $)

>  <Rbt.Library>
libRbt.so (2013.1, Build901 2013/11/27)

>  <Rbt.Parameter_File>
/export/apps/rDock/src/rDock_2013.1_src/data/scripts/dock_solv.prm

>  <Rbt.Receptor>
prm/blind_docking_40.prm

>  <SCORE>
-13.5024

>  <SCORE.INTER>
-13.4276

>  <SCORE.INTER.CONST>
1

>  <SCORE.INTER.POLAR>
0

>  <SCORE.INTER.ROT>
7

>  <SCORE.INTER.SOLV>
11.4065

>  <SCORE.INTER.VDW>
-21.0206

>  <SCORE.INTER.norm>
-0.49732

>  <SCORE.INTRA>
-0.0747201

>  <SCORE.INTRA.DIHEDRAL>
1.37111

>  <SCORE.INTRA.DIHEDRAL.0>
6.31833

>  <SCORE.INTRA.POLAR>
0

>  <SCORE.INTRA.POLAR.0>
0

>  <SCORE.INTRA.REPUL>
0

>  <SCORE.INTRA.REPUL.0>
0

>  <SCORE.INTRA.SOLV>
-0.311092

>  <SCORE.INTRA.SOLV.lig_0>
-48.4015

>  <SCORE.INTRA.VDW>
-0.604731

>  <SCORE.INTRA.VDW.0>
-2.83256

>  <SCORE.INTRA.norm>
-0.00276741

>  <SCORE.RESTR>
0

>  <SCORE.RESTR.CAVITY>
0

>  <SCORE.RESTR.norm>
0

>  <SCORE.SYSTEM>
0

>  <SCORE.SYSTEM.CONST>
0

>  <SCORE.SYSTEM.DIHEDRAL>
0

>  <SCORE.SYSTEM.SOLV>
0

>  <SCORE.SYSTEM.norm>
0

>  <SCORE.heavy>
27

>  <SCORE.norm>
-0.500087

>  <RMSD>
12.721

$$$$
ligand
 OpenBabel02271912153D
libRbt.so/2013.1/901 2013/11/27
 27 29  0  0  0  0  0  0  0  0999 V2000
   13.6665    9.3389   26.0835 N   0  0  0  0  0  0  0  0  0  0  0  0
   12.1863    9.3319   25.9991 C   0  0  2  0  0  0  0  0  0  0  0  0
   11.7207    7.8851   26.1001 C   0  0  0  0  0  0  0  0  0  0  0  0
   11.9694    6.9504   25.2682 O   0  0  0  0  0  0  0  0  0  0  0  0
   11.7645   10.0147   24.6962 C   0  0  0  0  0  0  0  0  0  0  0  0
   12.3951    9.3763   23.4657 C   0  0  0  0  0  0  0  0  0  0  0  0
   11.6337    7.9816   22.5538 S   0  0  2  0  0  0  0  0  0  0  0  0
   12.7491    7.9317   21.1524 C   0  0  0  0  0  0  0  0  0  0  0  0
   10.1737    8.8598   21.9108 C   0  0  0  0  0  0  0  0  0  0  0  0
    9.0660    8.9086   22.9270 C   0  0  1  0  0  0  0  0  0  0  0  0
    9.0761   10.1325   23.7008 O   0  0  0  0  0  0  0  0  0  0  0  0
    7.6794    8.7693   22.3415 C   0  0  1  0  0  0  0  0  0  0  0  0
    7.2888    7.4730   22.4811 O   0  0  0  0  0  0  0  0  0  0  0  0
    6.8854    9.5854   23.3345 C   0  0  1  0  0  0  0  0  0  0  0  0
    6.6355    8.7508   24.3769 O   0  0  0  0  0  0  0  0  0  0  0  0
    7.8107   10.7262   23.8126 C   0  0  2  0  0  0  0  0  0  0  0  0
   10.9876    7.6196   27.0543 O   0  0  0  0  0  0  0  0  0  0  0  0
    6.2985   15.4412   22.1827 N   0  0  0  0  0  0  0  0  0  0  0  0
    6.2544   14.7749   23.4534 C   0  0  0  0  0  0  0  0  0  0  0  0
    6.7149   13.4730   23.7710 N   0  0  0  0  0  0  0  0  0  0  0  0
    7.2242   12.9016   22.7522 C   0  0  0  0  0  0  0  0  0  0  0  0
    7.3218   13.5036   21.4037 C   0  0  0  0  0  0  0  0  0  0  0  0
    6.8602   14.7335   21.1424 C   0  0  0  0  0  0  0  0  0  0  0  0
    6.9920   15.1404   19.8966 N   0  0  0  0  0  0  0  0  0  0  0  0
    7.8759   12.7149   20.5142 N   0  0  0  0  0  0  0  0  0  0  0  0
    8.1324   11.6147   21.3115 C   0  0  0  0  0  0  0  0  0  0  0  0
    7.7382   11.7199   22.7073 N   0  0  0  0  0  0  0  0  0  0  0  0
  2  1  1  6  0  0  0
  2  3  1  0  0  0  0
  2  5  1  0  0  0  0
  3  4  1  0  0  0  0
  3 17  1  0  0  0  0
  5  6  1  0  0  0  0
  7  6  1  1  0  0  0
  7  8  1  0  0  0  0
  7  9  1  0  0  0  0
 10  9  1  6  0  0  0
 10 11  1  0  0  0  0
 10 12  1  0  0  0  0
 11 16  1  0  0  0  0
 12 13  1  1  0  0  0
 12 14  1  0  0  0  0
 14 15  1  1  0  0  0
 14 16  1  0  0  0  0
 16 27  1  6  0  0  0
 18 19  2  0  0  0  0
 18 23  1  0  0  0  0
 19 20  1  0  0  0  0
 20 21  2  0  0  0  0
 21 22  1  0  0  0  0
 21 27  1  0  0  0  0
 22 23  2  0  0  0  0
 22 25  1  0  0  0  0
 23 24  1  0  0  0  0
 25 26  2  0  0  0  0
 26 27  1  0  0  0  0
M  END
>  <CHROM.1>
-64.05108488,55.88280341,88.97915466,172.01720420,-83.32257246,94.84133853
-140.13518406,9.24894922,10.34441131,23.20905916,0.15908420,-0.89187534,1.32416513

>  <Name>
ligand

>  <RI>
0

>  <Rbt.Current_Directory>
/home/itssahil/PROJECTS/Mol_Feturizer/Test_systems_manuscript/rnas/4aob

>  <Rbt.Executable>
rbdock ($Id: //depot/dev/client3/rdock/2013.1/src/exe/rbdock.cxx#4 $)

>  <Rbt.Library>
libRbt.so (2013.1, Build901 2013/11/27)

>  <Rbt.Parameter_File>
/export/apps/rDock/src/rDock_2013.1_src/data/scripts/dock_solv.prm

>  <Rbt.Receptor>
prm/blind_docking_100.prm

>  <SCORE>
-11.1665

>  <SCORE.INTER>
-12.6669

>  <SCORE.INTER.CONST>
1

>  <SCORE.INTER.POLAR>
0

>  <SCORE.INTER.ROT>
7

>  <SCORE.INTER.SOLV>
8.37141

>  <SCORE.INTER.VDW>
-19.5017

>  <SCORE.INTER.norm>
-0.469145

>  <SCORE.INTRA>
1.47798

>  <SCORE.INTRA.DIHEDRAL>
3.21368

>  <SCORE.INTRA.DIHEDRAL.0>
6.31833

>  <SCORE.INTRA.POLAR>
0

>  <SCORE.INTRA.POLAR.0>
0

>  <SCORE.INTRA.REPUL>
0

>  <SCORE.INTRA.REPUL.0>
0

>  <SCORE.INTRA.SOLV>
0.422076

>  <SCORE.INTRA.SOLV.lig_0>
-48.4015

>  <SCORE.INTRA.VDW>
-0.339892

>  <SCORE.INTRA.VDW.0>
-2.83256

>  <SCORE.INTRA.norm>
0.0547401

>  <SCORE.RESTR>
0.0224346

>  <SCORE.RESTR.CAVITY>
0.0224346

>  <SCORE.RESTR.norm>
0.000830912

>  <SCORE.SYSTEM>
0

>  <SCORE.SYSTEM.CONST>
0

>  <SCORE.SYSTEM.DIHEDRAL>
0

>  <SCORE.SYSTEM.SOLV>
0

>  <SCORE.SYSTEM.norm>
0

>  <SCORE.heavy>
27

>  <SCORE.norm>
-0.413574

>  <RMSD>
12.762

$$$$
ligand
 OpenBabel02271912153D
libRbt.so/2013.1/901 2013/11/27
 27 29  0  0  0  0  0  0  0  0999 V2000
   10.1988   10.7815   25.9521 N   0  0  0  0  0  0  0  0  0  0  0  0
    9.5884    9.4815   25.5838 C   0  0  2  0  0  0  0  0  0  0  0  0
   10.6813    8.4218   25.6375 C   0  0  0  0  0  0  0  0  0  0  0  0
   10.8492    7.4655   24.8099 O   0  0  0  0  0  0  0  0  0  0  0  0
    8.9412    9.6152   24.2037 C   0  0  0  0  0  0  0  0  0  0  0  0
    9.9240   10.0724   23.1340 C   0  0  0  0  0  0  0  0  0  0  0  0
    9.4690   10.2779   21.3712 S   0  0  2  0  0  0  0  0  0  0  0  0
    7.9699   11.2354   21.5871 C   0  0  0  0  0  0  0  0  0  0  0  0
    8.8606    8.5894   21.0630 C   0  0  0  0  0  0  0  0  0  0  0  0
    8.4106    8.4154   19.6385 C   0  0  1  0  0  0  0  0  0  0  0  0
    9.3645    8.9450   18.6864 O   0  0  0  0  0  0  0  0  0  0  0  0
    8.1432    6.9813   19.2424 C   0  0  1  0  0  0  0  0  0  0  0  0
    6.8035    6.7592   19.3338 O   0  0  0  0  0  0  0  0  0  0  0  0
    8.4880    7.0399   17.7726 C   0  0  1  0  0  0  0  0  0  0  0  0
    7.3772    7.5204   17.1555 O   0  0  0  0  0  0  0  0  0  0  0  0
    9.6312    8.0682   17.6253 C   0  0  2  0  0  0  0  0  0  0  0  0
   11.4354    8.4732   26.6107 O   0  0  0  0  0  0  0  0  0  0  0  0
   13.9094    7.7981   20.5916 N   0  0  0  0  0  0  0  0  0  0  0  0
   12.8350    8.7449   20.4926 C   0  0  0  0  0  0  0  0  0  0  0  0
   11.7072    8.6965   19.6361 N   0  0  0  0  0  0  0  0  0  0  0  0
   11.7228    7.6494   18.9101 C   0  0  0  0  0  0  0  0  0  0  0  0
   12.7791    6.6131   18.9405 C   0  0  0  0  0  0  0  0  0  0  0  0
   13.8375    6.7048   19.7562 C   0  0  0  0  0  0  0  0  0  0  0  0
   14.7130    5.7247   19.6683 N   0  0  0  0  0  0  0  0  0  0  0  0
   12.5802    5.6339   18.0908 N   0  0  0  0  0  0  0  0  0  0  0  0
   11.3892    6.0561   17.5292 C   0  0  0  0  0  0  0  0  0  0  0  0
   10.8413    7.3048   18.0344 N   0  0  0  0  0  0  0  0  0  0  0  0
  2  1  1  6  0  0  0
  2  3  1  0  0  0  0
  2  5  1  0  0  0  0
  3  4  1  0  0  0  0
  3 17  1  0  0  0  0
  5  6  1  0  0  0  0
  7  6  1  1  0  0  0
  7  8  1  0  0  0  0
  7  9  1  0  0  0  0
 10  9  1  1  0  0  0
 10 11  1  0  0  0  0
 10 12  1  0  0  0  0
 11 16  1  0  0  0  0
 12 13  1  6  0  0  0
 12 14  1  0  0  0  0
 14 15  1  6  0  0  0
 14 16  1  0  0  0  0
 16 27  1  1  0  0  0
 18 19  2  0  0  0  0
 18 23  1  0  0  0  0
 19 20  1  0  0  0  0
 20 21  2  0  0  0  0
 21 22  1  0  0  0  0
 21 27  1  0  0  0  0
 22 23  2  0  0  0  0
 22 25  1  0  0  0  0
 23 24  1  0  0  0  0
 25 26  2  0  0  0  0
 26 27  1  0  0  0  0
M  END
>  <CHROM.1>
-139.48387737,56.74650473,178.08123238,48.48217877,-179.16795770,46.71993910
-21.60187361,10.34223007,8.23945661,20.85112505,1.63516343,-0.35340093,1.24424898

>  <Name>
ligand

>  <RI>
0

>  <Rbt.Current_Directory>
/home/itssahil/PROJECTS/Mol_Feturizer/Test_systems_manuscript/rnas/4aob

>  <Rbt.Executable>
rbdock ($Id: //depot/dev/client3/rdock/2013.1/src/exe/rbdock.cxx#4 $)

>  <Rbt.Library>
libRbt.so (2013.1, Build901 2013/11/27)

>  <Rbt.Parameter_File>
/export/apps/rDock/src/rDock_2013.1_src/data/scripts/dock_solv.prm

>  <Rbt.Receptor>
prm/blind_docking_40.prm

>  <SCORE>
-8.9477

>  <SCORE.INTER>
-8.61813

>  <SCORE.INTER.CONST>
1

>  <SCORE.INTER.POLAR>
0

>  <SCORE.INTER.ROT>
7

>  <SCORE.INTER.SOLV>
14.6403

>  <SCORE.INTER.VDW>
-18.8922

>  <SCORE.INTER.norm>
-0.31919

>  <SCORE.INTRA>
-0.329566

>  <SCORE.INTRA.DIHEDRAL>
-2.36648

>  <SCORE.INTRA.DIHEDRAL.0>
6.31833

>  <SCORE.INTRA.POLAR>
0

>  <SCORE.INTRA.POLAR.0>
0

>  <SCORE.INTRA.REPUL>
0

>  <SCORE.INTRA.REPUL.0>
0

>  <SCORE.INTRA.SOLV>
0.0698348

>  <SCORE.INTRA.SOLV.lig_0>
-48.4015

>  <SCORE.INTRA.VDW>
0.818758

>  <SCORE.INTRA.VDW.0>
-2.83256

>  <SCORE.INTRA.norm>
-0.0122062

>  <SCORE.RESTR>
0

>  <SCORE.RESTR.CAVITY>
0

>  <SCORE.RESTR.norm>
0

>  <SCORE.SYSTEM>
0

>  <SCORE.SYSTEM.CONST>
0

>  <SCORE.SYSTEM.DIHEDRAL>
0

>  <SCORE.SYSTEM.SOLV>
0

>  <SCORE.SYSTEM.norm>
0

>  <SCORE.heavy>
27

>  <SCORE.norm>
-0.331396

>  <RMSD>
12.768

$$$$
ligand
 OpenBabel02271912153D
libRbt.so/2013.1/901 2013/11/27
 27 29  0  0  0  0  0  0  0  0999 V2000
    6.9502   15.9853   20.4405 N   0  0  0  0  0  0  0  0  0  0  0  0
    7.5698   14.6728   20.1376 C   0  0  2  0  0  0  0  0  0  0  0  0
    7.3033   14.3591   18.6710 C   0  0  0  0  0  0  0  0  0  0  0  0
    6.7288   13.3164   18.2126 O   0  0  0  0  0  0  0  0  0  0  0  0
    6.9970   13.6256   21.0951 C   0  0  0  0  0  0  0  0  0  0  0  0
    7.7901   12.3255   21.0890 C   0  0  0  0  0  0  0  0  0  0  0  0
    7.4633   10.9421   22.2449 S   0  0  2  0  0  0  0  0  0  0  0  0
    7.9894   11.7289   23.7663 C   0  0  0  0  0  0  0  0  0  0  0  0
    8.8785    9.8887   21.7934 C   0  0  0  0  0  0  0  0  0  0  0  0
    9.2363    8.9384   22.9029 C   0  0  1  0  0  0  0  0  0  0  0  0
    8.0937    8.1888   23.3819 O   0  0  0  0  0  0  0  0  0  0  0  0
   10.3023    7.9307   22.5379 C   0  0  1  0  0  0  0  0  0  0  0  0
   11.4957    8.3882   23.0057 O   0  0  0  0  0  0  0  0  0  0  0  0
    9.8905    6.7736   23.4178 C   0  0  1  0  0  0  0  0  0  0  0  0
   10.4202    7.0375   24.6406 O   0  0  0  0  0  0  0  0  0  0  0  0
    8.3495    6.8167   23.5159 C   0  0  2  0  0  0  0  0  0  0  0  0
    7.7399   15.1747   17.8569 O   0  0  0  0  0  0  0  0  0  0  0  0
    6.6850    2.5773   20.9798 N   0  0  0  0  0  0  0  0  0  0  0  0
    6.9931    2.8472   22.3556 C   0  0  0  0  0  0  0  0  0  0  0  0
    7.4357    4.0662   22.9265 N   0  0  0  0  0  0  0  0  0  0  0  0
    7.5335    4.9809   22.0446 C   0  0  0  0  0  0  0  0  0  0  0  0
    7.2350    4.8057   20.6056 C   0  0  0  0  0  0  0  0  0  0  0  0
    6.8325    3.6308   20.1040 C   0  0  0  0  0  0  0  0  0  0  0  0
    6.6203    3.6072   18.8043 N   0  0  0  0  0  0  0  0  0  0  0  0
    7.4221    5.8911   19.8935 N   0  0  0  0  0  0  0  0  0  0  0  0
    7.8343    6.7529   20.8932 C   0  0  0  0  0  0  0  0  0  0  0  0
    7.9016    6.2015   22.2371 N   0  0  0  0  0  0  0  0  0  0  0  0
  2  1  1  1  0  0  0
  2  3  1  0  0  0  0
  2  5  1  0  0  0  0
  3  4  1  0  0  0  0
  3 17  1  0  0  0  0
  5  6  1  0  0  0  0
  7  6  1  6  0  0  0
  7  8  1  0  0  0  0
  7  9  1  0  0  0  0
 10  9  1  6  0  0  0
 10 11  1  0  0  0  0
 10 12  1  0  0  0  0
 11 16  1  0  0  0  0
 12 13  1  1  0  0  0
 12 14  1  0  0  0  0
 14 15  1  1  0  0  0
 14 16  1  0  0  0  0
 16 27  1  6  0  0  0
 18 19  2  0  0  0  0
 18 23  1  0  0  0  0
 19 20  1  0  0  0  0
 20 21  2  0  0  0  0
 21 22  1  0  0  0  0
 21 27  1  0  0  0  0
 22 23  2  0  0  0  0
 22 25  1  0  0  0  0
 23 24  1  0  0  0  0
 25 26  2  0  0  0  0
 26 27  1  0  0  0  0
M  END
>  <CHROM.1>
-123.88057229,-166.70311222,173.60868040,-68.05274716,157.08457972,51.33444357
-155.55176359,7.99522985,8.80411563,21.51382349,1.63245200,-1.00896745,-0.12590890

>  <Name>
ligand

>  <RI>
0

>  <Rbt.Current_Directory>
/home/itssahil/PROJECTS/Mol_Feturizer/Test_systems_manuscript/rnas/4aob

>  <Rbt.Executable>
rbdock ($Id: //depot/dev/client3/rdock/2013.1/src/exe/rbdock.cxx#4 $)

>  <Rbt.Library>
libRbt.so (2013.1, Build901 2013/11/27)

>  <Rbt.Parameter_File>
/export/apps/rDock/src/rDock_2013.1_src/data/scripts/dock_solv.prm

>  <Rbt.Receptor>
prm/blind_docking_100.prm

>  <SCORE>
-15.2493

>  <SCORE.INTER>
-14.4597

>  <SCORE.INTER.CONST>
1

>  <SCORE.INTER.POLAR>
0

>  <SCORE.INTER.ROT>
7

>  <SCORE.INTER.SOLV>
12.2853

>  <SCORE.INTER.VDW>
-22.0015

>  <SCORE.INTER.norm>
-0.535543

>  <SCORE.INTRA>
-0.789608

>  <SCORE.INTRA.DIHEDRAL>
-1.70904

>  <SCORE.INTRA.DIHEDRAL.0>
6.31833

>  <SCORE.INTRA.POLAR>
0

>  <SCORE.INTRA.POLAR.0>
0

>  <SCORE.INTRA.REPUL>
0

>  <SCORE.INTRA.REPUL.0>
0

>  <SCORE.INTRA.SOLV>
-0.752068

>  <SCORE.INTRA.SOLV.lig_0>
-48.4015

>  <SCORE.INTRA.VDW>
0.440947

>  <SCORE.INTRA.VDW.0>
-2.83256

>  <SCORE.INTRA.norm>
-0.0292447

>  <SCORE.RESTR>
0

>  <SCORE.RESTR.CAVITY>
0

>  <SCORE.RESTR.norm>
0

>  <SCORE.SYSTEM>
0

>  <SCORE.SYSTEM.CONST>
0

>  <SCORE.SYSTEM.DIHEDRAL>
0

>  <SCORE.SYSTEM.SOLV>
0

>  <SCORE.SYSTEM.norm>
0

>  <SCORE.heavy>
27

>  <SCORE.norm>
-0.564787

>  <RMSD>
12.771

$$$$
ligand
 OpenBabel02271912153D
libRbt.so/2013.1/901 2013/11/27
 27 29  0  0  0  0  0  0  0  0999 V2000
   12.1101    5.1354   18.1852 N   0  0  0  0  0  0  0  0  0  0  0  0
   13.0241    6.2086   18.6446 C   0  0  2  0  0  0  0  0  0  0  0  0
   14.4309    5.6278   18.7062 C   0  0  0  0  0  0  0  0  0  0  0  0
   14.8269    4.5449   18.1604 O   0  0  0  0  0  0  0  0  0  0  0  0
   12.5264    6.7354   19.9923 C   0  0  0  0  0  0  0  0  0  0  0  0
   13.1865    8.0484   20.3917 C   0  0  0  0  0  0  0  0  0  0  0  0
   12.7725    8.9562   21.9283 S   0  0  2  0  0  0  0  0  0  0  0  0
   13.0993    7.6511   23.1117 C   0  0  0  0  0  0  0  0  0  0  0  0
   10.9595    8.9387   21.7580 C   0  0  0  0  0  0  0  0  0  0  0  0
   10.2779    9.1376   23.0838 C   0  0  1  0  0  0  0  0  0  0  0  0
   10.4048   10.4937   23.5754 O   0  0  0  0  0  0  0  0  0  0  0  0
    8.8028    8.8070   23.0797 C   0  0  1  0  0  0  0  0  0  0  0  0
    8.6492    7.5487   23.5750 O   0  0  0  0  0  0  0  0  0  0  0  0
    8.3094    9.7674   24.1364 C   0  0  1  0  0  0  0  0  0  0  0  0
    8.5436    9.1541   25.3258 O   0  0  0  0  0  0  0  0  0  0  0  0
    9.1942   11.0297   24.0374 C   0  0  2  0  0  0  0  0  0  0  0  0
   15.2400    6.2463   19.3999 O   0  0  0  0  0  0  0  0  0  0  0  0
    6.1850   14.9236   22.3177 N   0  0  0  0  0  0  0  0  0  0  0  0
    6.6034   14.5026   23.6247 C   0  0  0  0  0  0  0  0  0  0  0  0
    7.4447   13.4132   23.9614 N   0  0  0  0  0  0  0  0  0  0  0  0
    7.8405   12.7956   22.9195 C   0  0  0  0  0  0  0  0  0  0  0  0
    7.4714   13.1529   21.5314 C   0  0  0  0  0  0  0  0  0  0  0  0
    6.6604   14.1831   21.2574 C   0  0  0  0  0  0  0  0  0  0  0  0
    6.3970   14.3792   19.9818 N   0  0  0  0  0  0  0  0  0  0  0  0
    7.9947   12.3601   20.6271 N   0  0  0  0  0  0  0  0  0  0  0  0
    8.7007   11.5049   21.4530 C   0  0  0  0  0  0  0  0  0  0  0  0
    8.6190   11.7685   22.8808 N   0  0  0  0  0  0  0  0  0  0  0  0
  2  1  1  1  0  0  0
  2  3  1  0  0  0  0
  2  5  1  0  0  0  0
  3  4  1  0  0  0  0
  3 17  1  0  0  0  0
  5  6  1  0  0  0  0
  7  6  1  6  0  0  0
  7  8  1  0  0  0  0
  7  9  1  0  0  0  0
 10  9  1  6  0  0  0
 10 11  1  0  0  0  0
 10 12  1  0  0  0  0
 11 16  1  0  0  0  0
 12 13  1  1  0  0  0
 12 14  1  0  0  0  0
 14 15  1  1  0  0  0
 14 16  1  0  0  0  0
 16 27  1  6  0  0  0
 18 19  2  0  0  0  0
 18 23  1  0  0  0  0
 19 20  1  0  0  0  0
 20 21  2  0  0  0  0
 21 22  1  0  0  0  0
 21 27  1  0  0  0  0
 22 23  2  0  0  0  0
 22 25  1  0  0  0  0
 23 24  1  0  0  0  0
 25 26  2  0  0  0  0
 26 27  1  0  0  0  0
M  END
>  <CHROM.1>
15.94989162,-166.25210469,178.34297479,56.23283000,158.26368921,71.75987461
-151.46488955,10.22910619,9.72939609,21.77691707,0.05463842,0.86652912,-1.23257275

>  <Name>
ligand

>  <RI>
0

>  <Rbt.Current_Directory>
/home/itssahil/PROJECTS/Mol_Feturizer/Test_systems_manuscript/rnas/4aob

>  <Rbt.Executable>
rbdock ($Id: //depot/dev/client3/rdock/2013.1/src/exe/rbdock.cxx#4 $)

>  <Rbt.Library>
libRbt.so (2013.1, Build901 2013/11/27)

>  <Rbt.Parameter_File>
/export/apps/rDock/src/rDock_2013.1_src/data/scripts/dock_solv.prm

>  <Rbt.Receptor>
prm/blind_docking_80.prm

>  <SCORE>
-17.2444

>  <SCORE.INTER>
-17.3487

>  <SCORE.INTER.CONST>
1

>  <SCORE.INTER.POLAR>
0

>  <SCORE.INTER.ROT>
7

>  <SCORE.INTER.SOLV>
20.8126

>  <SCORE.INTER.VDW>
-26.77

>  <SCORE.INTER.norm>
-0.642546

>  <SCORE.INTRA>
0.104379

>  <SCORE.INTRA.DIHEDRAL>
-1.53894

>  <SCORE.INTRA.DIHEDRAL.0>
6.31833

>  <SCORE.INTRA.POLAR>
0

>  <SCORE.INTRA.POLAR.0>
0

>  <SCORE.INTRA.REPUL>
0

>  <SCORE.INTRA.REPUL.0>
0

>  <SCORE.INTRA.SOLV>
-0.790506

>  <SCORE.INTRA.SOLV.lig_0>
-48.4015

>  <SCORE.INTRA.VDW>
1.2691

>  <SCORE.INTRA.VDW.0>
-2.83256

>  <SCORE.INTRA.norm>
0.00386589

>  <SCORE.RESTR>
0

>  <SCORE.RESTR.CAVITY>
0

>  <SCORE.RESTR.norm>
0

>  <SCORE.SYSTEM>
0

>  <SCORE.SYSTEM.CONST>
0

>  <SCORE.SYSTEM.DIHEDRAL>
0

>  <SCORE.SYSTEM.SOLV>
0

>  <SCORE.SYSTEM.norm>
0

>  <SCORE.heavy>
27

>  <SCORE.norm>
-0.63868

>  <RMSD>
12.795

$$$$
ligand
 OpenBabel02271912153D
libRbt.so/2013.1/901 2013/11/27
 27 29  0  0  0  0  0  0  0  0999 V2000
    3.7794    4.6760   17.9776 N   0  0  0  0  0  0  0  0  0  0  0  0
    5.1288    5.1973   17.6525 C   0  0  2  0  0  0  0  0  0  0  0  0
    6.1188    4.0484   17.7940 C   0  0  0  0  0  0  0  0  0  0  0  0
    7.0648    3.9654   18.6458 O   0  0  0  0  0  0  0  0  0  0  0  0
    5.4354    6.3787   18.5756 C   0  0  0  0  0  0  0  0  0  0  0  0
    6.7071    7.1186   18.1826 C   0  0  0  0  0  0  0  0  0  0  0  0
    7.0270    8.8698   18.6159 S   0  0  2  0  0  0  0  0  0  0  0  0
    8.7119    8.9942   18.0192 C   0  0  0  0  0  0  0  0  0  0  0  0
    7.2217    8.6594   20.4142 C   0  0  0  0  0  0  0  0  0  0  0  0
    7.0974    9.9703   21.1408 C   0  0  1  0  0  0  0  0  0  0  0  0
    7.3570    9.8453   22.5599 O   0  0  0  0  0  0  0  0  0  0  0  0
    8.0096   11.0577   20.6206 C   0  0  1  0  0  0  0  0  0  0  0  0
    7.2898   11.8469   19.7770 O   0  0  0  0  0  0  0  0  0  0  0  0
    8.2362   11.8475   21.8884 C   0  0  1  0  0  0  0  0  0  0  0  0
    7.1608   12.6694   22.0043 O   0  0  0  0  0  0  0  0  0  0  0  0
    8.2227   10.8323   23.0525 C   0  0  2  0  0  0  0  0  0  0  0  0
    6.0184    3.1442   16.9628 O   0  0  0  0  0  0  0  0  0  0  0  0
   12.9656   10.4175   25.1756 N   0  0  0  0  0  0  0  0  0  0  0  0
   11.7689   11.1107   25.5605 C   0  0  0  0  0  0  0  0  0  0  0  0
   10.5218   11.1354   24.8882 N   0  0  0  0  0  0  0  0  0  0  0  0
   10.5515   10.4219   23.8328 C   0  0  0  0  0  0  0  0  0  0  0  0
   11.7305    9.6661   23.3540 C   0  0  0  0  0  0  0  0  0  0  0  0
   12.8966    9.6815   24.0128 C   0  0  0  0  0  0  0  0  0  0  0  0
   13.8702    8.9820   23.4673 N   0  0  0  0  0  0  0  0  0  0  0  0
   11.5194    9.0151   22.2351 N   0  0  0  0  0  0  0  0  0  0  0  0
   10.1985    9.3599   22.0150 C   0  0  0  0  0  0  0  0  0  0  0  0
    9.5822   10.2291   23.0046 N   0  0  0  0  0  0  0  0  0  0  0  0
  2  1  1  1  0  0  0
  2  3  1  0  0  0  0
  2  5  1  0  0  0  0
  3  4  1  0  0  0  0
  3 17  1  0  0  0  0
  5  6  1  0  0  0  0
  7  6  1  6  0  0  0
  7  8  1  0  0  0  0
  7  9  1  0  0  0  0
 10  9  1  6  0  0  0
 10 11  1  0  0  0  0
 10 12  1  0  0  0  0
 11 16  1  0  0  0  0
 12 13  1  6  0  0  0
 12 14  1  0  0  0  0
 14 15  1  1  0  0  0
 14 16  1  0  0  0  0
 16 27  1  6  0  0  0
 18 19  2  0  0  0  0
 18 23  1  0  0  0  0
 19 20  1  0  0  0  0
 20 21  2  0  0  0  0
 21 22  1  0  0  0  0
 21 27  1  0  0  0  0
 22 23  2  0  0  0  0
 22 25  1  0  0  0  0
 23 24  1  0  0  0  0
 25 26  2  0  0  0  0
 26 27  1  0  0  0  0
M  END
>  <CHROM.1>
-115.02049337,-171.25670991,155.83260216,174.05028631,-163.10146980,-175.27247400
-145.64427367,8.44184094,8.82585994,20.96234180,2.31410071,0.59280142,-2.76287939

>  <Name>
ligand

>  <RI>
0

>  <Rbt.Current_Directory>
/home/itssahil/PROJECTS/Mol_Feturizer/Test_systems_manuscript/rnas/4aob

>  <Rbt.Executable>
rbdock ($Id: //depot/dev/client3/rdock/2013.1/src/exe/rbdock.cxx#4 $)

>  <Rbt.Library>
libRbt.so (2013.1, Build901 2013/11/27)

>  <Rbt.Parameter_File>
/export/apps/rDock/src/rDock_2013.1_src/data/scripts/dock_solv.prm

>  <Rbt.Receptor>
prm/blind_docking_100.prm

>  <SCORE>
-12.1455

>  <SCORE.INTER>
-12.4135

>  <SCORE.INTER.CONST>
1

>  <SCORE.INTER.POLAR>
0

>  <SCORE.INTER.ROT>
7

>  <SCORE.INTER.SOLV>
14.8436

>  <SCORE.INTER.VDW>
-21.4902

>  <SCORE.INTER.norm>
-0.45976

>  <SCORE.INTRA>
0.268056

>  <SCORE.INTRA.DIHEDRAL>
0.761682

>  <SCORE.INTRA.DIHEDRAL.0>
6.31833

>  <SCORE.INTRA.POLAR>
0

>  <SCORE.INTRA.POLAR.0>
0

>  <SCORE.INTRA.REPUL>
0

>  <SCORE.INTRA.REPUL.0>
0

>  <SCORE.INTRA.SOLV>
-0.551615

>  <SCORE.INTRA.SOLV.lig_0>
-48.4015

>  <SCORE.INTRA.VDW>
0.163022

>  <SCORE.INTRA.VDW.0>
-2.83256

>  <SCORE.INTRA.norm>
0.00992798

>  <SCORE.RESTR>
0

>  <SCORE.RESTR.CAVITY>
0

>  <SCORE.RESTR.norm>
0

>  <SCORE.SYSTEM>
0

>  <SCORE.SYSTEM.CONST>
0

>  <SCORE.SYSTEM.DIHEDRAL>
0

>  <SCORE.SYSTEM.SOLV>
0

>  <SCORE.SYSTEM.norm>
0

>  <SCORE.heavy>
27

>  <SCORE.norm>
-0.449832

>  <RMSD>
12.822

$$$$
ligand
 OpenBabel02271912153D
libRbt.so/2013.1/901 2013/11/27
 27 29  0  0  0  0  0  0  0  0999 V2000
    6.4291    4.5346   18.8102 N   0  0  0  0  0  0  0  0  0  0  0  0
    5.5309    5.3629   17.9701 C   0  0  2  0  0  0  0  0  0  0  0  0
    5.0763    4.5098   16.7929 C   0  0  0  0  0  0  0  0  0  0  0  0
    5.7781    3.6467   16.1682 O   0  0  0  0  0  0  0  0  0  0  0  0
    6.2807    6.6282   17.5477 C   0  0  0  0  0  0  0  0  0  0  0  0
    6.6216    7.5316   18.7254 C   0  0  0  0  0  0  0  0  0  0  0  0
    7.4153    9.1722   18.5382 S   0  0  2  0  0  0  0  0  0  0  0  0
    8.9291    8.6518   17.7331 C   0  0  0  0  0  0  0  0  0  0  0  0
    7.9128    9.4178   20.2727 C   0  0  0  0  0  0  0  0  0  0  0  0
    7.0716   10.4672   20.9458 C   0  0  1  0  0  0  0  0  0  0  0  0
    6.4762    9.9949   22.1784 O   0  0  0  0  0  0  0  0  0  0  0  0
    7.8149   11.7414   21.2759 C   0  0  1  0  0  0  0  0  0  0  0  0
    7.5555   12.6493   20.2956 O   0  0  0  0  0  0  0  0  0  0  0  0
    7.0578   12.1828   22.5065 C   0  0  1  0  0  0  0  0  0  0  0  0
    5.9556   12.8293   22.0455 O   0  0  0  0  0  0  0  0  0  0  0  0
    6.6177   10.8977   23.2420 C   0  0  2  0  0  0  0  0  0  0  0  0
    3.9355    4.7247   16.3796 O   0  0  0  0  0  0  0  0  0  0  0  0
    9.3449    7.0503   25.4634 N   0  0  0  0  0  0  0  0  0  0  0  0
    8.1066    7.0915   24.7386 C   0  0  0  0  0  0  0  0  0  0  0  0
    7.4673    8.2208   24.1694 N   0  0  0  0  0  0  0  0  0  0  0  0
    8.1467    9.2817   24.3607 C   0  0  0  0  0  0  0  0  0  0  0  0
    9.4341    9.3437   25.0882 C   0  0  0  0  0  0  0  0  0  0  0  0
    9.9974    8.2532   25.6244 C   0  0  0  0  0  0  0  0  0  0  0  0
   11.1329    8.4515   26.2619 N   0  0  0  0  0  0  0  0  0  0  0  0
    9.9375   10.5524   25.1651 N   0  0  0  0  0  0  0  0  0  0  0  0
    8.9629   11.2508   24.4764 C   0  0  0  0  0  0  0  0  0  0  0  0
    7.8467   10.4716   23.9648 N   0  0  0  0  0  0  0  0  0  0  0  0
  2  1  1  1  0  0  0
  2  3  1  0  0  0  0
  2  5  1  0  0  0  0
  3  4  1  0  0  0  0
  3 17  1  0  0  0  0
  5  6  1  0  0  0  0
  7  6  1  1  0  0  0
  7  8  1  0  0  0  0
  7  9  1  0  0  0  0
 10  9  1  1  0  0  0
 10 11  1  0  0  0  0
 10 12  1  0  0  0  0
 11 16  1  0  0  0  0
 12 13  1  6  0  0  0
 12 14  1  0  0  0  0
 14 15  1  6  0  0  0
 14 16  1  0  0  0  0
 16 27  1  1  0  0  0
 18 19  2  0  0  0  0
 18 23  1  0  0  0  0
 19 20  1  0  0  0  0
 20 21  2  0  0  0  0
 21 22  1  0  0  0  0
 21 27  1  0  0  0  0
 22 23  2  0  0  0  0
 22 25  1  0  0  0  0
 23 24  1  0  0  0  0
 25 26  2  0  0  0  0
 26 27  1  0  0  0  0
M  END
>  <CHROM.1>
-36.63882947,-65.16016308,-175.72465675,-59.92320367,-108.01600231,126.71600265
-49.33829690,7.45645834,8.71824172,21.25025779,-2.54285697,-1.16201756,0.09083513

>  <Name>
ligand

>  <RI>
0

>  <Rbt.Current_Directory>
/home/itssahil/PROJECTS/Mol_Feturizer/Test_systems_manuscript/rnas/4aob

>  <Rbt.Executable>
rbdock ($Id: //depot/dev/client3/rdock/2013.1/src/exe/rbdock.cxx#4 $)

>  <Rbt.Library>
libRbt.so (2013.1, Build901 2013/11/27)

>  <Rbt.Parameter_File>
/export/apps/rDock/src/rDock_2013.1_src/data/scripts/dock_solv.prm

>  <Rbt.Receptor>
prm/blind_docking_60.prm

>  <SCORE>
-13.1598

>  <SCORE.INTER>
-16.0406

>  <SCORE.INTER.CONST>
1

>  <SCORE.INTER.POLAR>
0

>  <SCORE.INTER.ROT>
7

>  <SCORE.INTER.SOLV>
7.95549

>  <SCORE.INTER.VDW>
-21.6122

>  <SCORE.INTER.norm>
-0.594097

>  <SCORE.INTRA>
2.88083

>  <SCORE.INTRA.DIHEDRAL>
5.08424

>  <SCORE.INTRA.DIHEDRAL.0>
6.31833

>  <SCORE.INTRA.POLAR>
0

>  <SCORE.INTRA.POLAR.0>
0

>  <SCORE.INTRA.REPUL>
0

>  <SCORE.INTRA.REPUL.0>
0

>  <SCORE.INTRA.SOLV>
-0.116776

>  <SCORE.INTRA.SOLV.lig_0>
-48.4015

>  <SCORE.INTRA.VDW>
0.397097

>  <SCORE.INTRA.VDW.0>
-2.83256

>  <SCORE.INTRA.norm>
0.106697

>  <SCORE.RESTR>
0

>  <SCORE.RESTR.CAVITY>
0

>  <SCORE.RESTR.norm>
0

>  <SCORE.SYSTEM>
0

>  <SCORE.SYSTEM.CONST>
0

>  <SCORE.SYSTEM.DIHEDRAL>
0

>  <SCORE.SYSTEM.SOLV>
0

>  <SCORE.SYSTEM.norm>
0

>  <SCORE.heavy>
27

>  <SCORE.norm>
-0.4874

>  <RMSD>
12.834

$$$$
ligand
 OpenBabel02271912153D
libRbt.so/2013.1/901 2013/11/27
 27 29  0  0  0  0  0  0  0  0999 V2000
    7.5328    6.1889   15.5679 N   0  0  0  0  0  0  0  0  0  0  0  0
    7.6122    7.5851   15.0752 C   0  0  2  0  0  0  0  0  0  0  0  0
    7.4678    7.5531   13.5592 C   0  0  0  0  0  0  0  0  0  0  0  0
    7.1710    6.5359   12.8487 O   0  0  0  0  0  0  0  0  0  0  0  0
    8.9330    8.1984   15.5453 C   0  0  0  0  0  0  0  0  0  0  0  0
    8.9402    8.5099   17.0360 C   0  0  0  0  0  0  0  0  0  0  0  0
    8.6579    7.2438   18.3298 S   0  0  2  0  0  0  0  0  0  0  0  0
    6.8677    7.3019   18.3812 C   0  0  0  0  0  0  0  0  0  0  0  0
    9.1621    8.2329   19.7734 C   0  0  0  0  0  0  0  0  0  0  0  0
   10.6287    8.5638   19.7317 C   0  0  1  0  0  0  0  0  0  0  0  0
   11.0143    9.5074   20.7602 O   0  0  0  0  0  0  0  0  0  0  0  0
   11.5399    7.3656   19.8694 C   0  0  1  0  0  0  0  0  0  0  0  0
   11.9377    6.9903   18.6231 O   0  0  0  0  0  0  0  0  0  0  0  0
   12.7289    8.0086   20.5441 C   0  0  1  0  0  0  0  0  0  0  0  0
   13.4570    8.5706   19.5443 O   0  0  0  0  0  0  0  0  0  0  0  0
   12.1727    9.1272   21.4527 C   0  0  2  0  0  0  0  0  0  0  0  0
    7.7191    8.6063   12.9709 O   0  0  0  0  0  0  0  0  0  0  0  0
    9.9206    9.3070   26.1506 N   0  0  0  0  0  0  0  0  0  0  0  0
   10.1943   10.2977   25.1485 C   0  0  0  0  0  0  0  0  0  0  0  0
   10.8154   10.1138   23.8882 N   0  0  0  0  0  0  0  0  0  0  0  0
   11.1249    8.8923   23.6994 C   0  0  0  0  0  0  0  0  0  0  0  0
   10.8811    7.7975   24.6651 C   0  0  0  0  0  0  0  0  0  0  0  0
   10.3035    8.0172   25.8534 C   0  0  0  0  0  0  0  0  0  0  0  0
   10.1639    6.9590   26.6252 N   0  0  0  0  0  0  0  0  0  0  0  0
   11.2995    6.6260   24.2492 N   0  0  0  0  0  0  0  0  0  0  0  0
   11.8026    6.9880   23.0131 C   0  0  0  0  0  0  0  0  0  0  0  0
   11.6944    8.3934   22.6557 N   0  0  0  0  0  0  0  0  0  0  0  0
  2  1  1  6  0  0  0
  2  3  1  0  0  0  0
  2  5  1  0  0  0  0
  3  4  1  0  0  0  0
  3 17  1  0  0  0  0
  5  6  1  0  0  0  0
  7  6  1  6  0  0  0
  7  8  1  0  0  0  0
  7  9  1  0  0  0  0
 10  9  1  1  0  0  0
 10 11  1  0  0  0  0
 10 12  1  0  0  0  0
 11 16  1  0  0  0  0
 12 13  1  6  0  0  0
 12 14  1  0  0  0  0
 14 15  1  6  0  0  0
 14 16  1  0  0  0  0
 16 27  1  1  0  0  0
 18 19  2  0  0  0  0
 18 23  1  0  0  0  0
 19 20  1  0  0  0  0
 20 21  2  0  0  0  0
 21 22  1  0  0  0  0
 21 27  1  0  0  0  0
 22 23  2  0  0  0  0
 22 25  1  0  0  0  0
 23 24  1  0  0  0  0
 25 26  2  0  0  0  0
 26 27  1  0  0  0  0
M  END
>  <CHROM.1>
7.72072320,-72.89805668,58.25940329,-86.29268954,-66.03278315,171.61145552
-72.39529377,9.97778774,8.00793407,19.96672029,1.87868106,-0.16273740,-1.61586609

>  <Name>
ligand

>  <RI>
0

>  <Rbt.Current_Directory>
/home/itssahil/PROJECTS/Mol_Feturizer/Test_systems_manuscript/rnas/4aob

>  <Rbt.Executable>
rbdock ($Id: //depot/dev/client3/rdock/2013.1/src/exe/rbdock.cxx#4 $)

>  <Rbt.Library>
libRbt.so (2013.1, Build901 2013/11/27)

>  <Rbt.Parameter_File>
/export/apps/rDock/src/rDock_2013.1_src/data/scripts/dock_solv.prm

>  <Rbt.Receptor>
prm/blind_docking_100.prm

>  <SCORE>
-9.49314

>  <SCORE.INTER>
-10.7366

>  <SCORE.INTER.CONST>
1

>  <SCORE.INTER.POLAR>
0

>  <SCORE.INTER.ROT>
7

>  <SCORE.INTER.SOLV>
10.4207

>  <SCORE.INTER.VDW>
-18.898

>  <SCORE.INTER.norm>
-0.397653

>  <SCORE.INTRA>
1.24349

>  <SCORE.INTRA.DIHEDRAL>
-1.13927

>  <SCORE.INTRA.DIHEDRAL.0>
6.31833

>  <SCORE.INTRA.POLAR>
0

>  <SCORE.INTRA.POLAR.0>
0

>  <SCORE.INTRA.REPUL>
0

>  <SCORE.INTRA.REPUL.0>
0

>  <SCORE.INTRA.SOLV>
2.39423

>  <SCORE.INTRA.SOLV.lig_0>
-48.4015

>  <SCORE.INTRA.VDW>
0.616015

>  <SCORE.INTRA.VDW.0>
-2.83256

>  <SCORE.INTRA.norm>
0.0460553

>  <SCORE.RESTR>
0

>  <SCORE.RESTR.CAVITY>
0

>  <SCORE.RESTR.norm>
0

>  <SCORE.SYSTEM>
0

>  <SCORE.SYSTEM.CONST>
0

>  <SCORE.SYSTEM.DIHEDRAL>
0

>  <SCORE.SYSTEM.SOLV>
0

>  <SCORE.SYSTEM.norm>
0

>  <SCORE.heavy>
27

>  <SCORE.norm>
-0.351598

>  <RMSD>
12.908

$$$$
ligand
 OpenBabel02271912153D
libRbt.so/2013.1/901 2013/11/27
 27 29  0  0  0  0  0  0  0  0999 V2000
    7.0281    6.2429   18.4558 N   0  0  0  0  0  0  0  0  0  0  0  0
    6.7819    7.7044   18.4137 C   0  0  2  0  0  0  0  0  0  0  0  0
    8.1337    8.4028   18.3412 C   0  0  0  0  0  0  0  0  0  0  0  0
    9.1678    8.1234   19.0340 O   0  0  0  0  0  0  0  0  0  0  0  0
    5.9603    8.1005   19.6424 C   0  0  0  0  0  0  0  0  0  0  0  0
    6.7281    7.9252   20.9459 C   0  0  0  0  0  0  0  0  0  0  0  0
    7.2556    6.2938   21.5913 S   0  0  2  0  0  0  0  0  0  0  0  0
    5.6476    5.6496   22.0495 C   0  0  0  0  0  0  0  0  0  0  0  0
    7.9603    6.8574   23.1731 C   0  0  0  0  0  0  0  0  0  0  0  0
    9.4220    7.1859   23.0413 C   0  0  1  0  0  0  0  0  0  0  0  0
    9.7016    8.0224   21.8929 O   0  0  0  0  0  0  0  0  0  0  0  0
   10.0137    7.8805   24.2465 C   0  0  1  0  0  0  0  0  0  0  0  0
   10.6424    6.9446   25.0087 O   0  0  0  0  0  0  0  0  0  0  0  0
   11.0866    8.7088   23.5792 C   0  0  1  0  0  0  0  0  0  0  0  0
   12.1459    7.8737   23.4180 O   0  0  0  0  0  0  0  0  0  0  0  0
   10.5414    9.1055   22.1894 C   0  0  2  0  0  0  0  0  0  0  0  0
    8.2036    9.3645   17.5740 O   0  0  0  0  0  0  0  0  0  0  0  0
    6.9212   12.4449   20.4813 N   0  0  0  0  0  0  0  0  0  0  0  0
    7.5984   11.3308   19.8806 C   0  0  0  0  0  0  0  0  0  0  0  0
    8.5724   10.4845   20.4662 N   0  0  0  0  0  0  0  0  0  0  0  0
    8.8065   10.8159   21.6741 C   0  0  0  0  0  0  0  0  0  0  0  0
    8.1591   11.9415   22.3845 C   0  0  0  0  0  0  0  0  0  0  0  0
    7.2528   12.7272   21.7885 C   0  0  0  0  0  0  0  0  0  0  0  0
    6.7697   13.7044   22.5277 N   0  0  0  0  0  0  0  0  0  0  0  0
    8.5739   12.0925   23.6196 N   0  0  0  0  0  0  0  0  0  0  0  0
    9.4818   11.0517   23.6854 C   0  0  0  0  0  0  0  0  0  0  0  0
    9.6315   10.2454   22.4844 N   0  0  0  0  0  0  0  0  0  0  0  0
  2  1  1  1  0  0  0
  2  3  1  0  0  0  0
  2  5  1  0  0  0  0
  3  4  1  0  0  0  0
  3 17  1  0  0  0  0
  5  6  1  0  0  0  0
  7  6  1  6  0  0  0
  7  8  1  0  0  0  0
  7  9  1  0  0  0  0
 10  9  1  1  0  0  0
 10 11  1  0  0  0  0
 10 12  1  0  0  0  0
 11 16  1  0  0  0  0
 12 13  1  1  0  0  0
 12 14  1  0  0  0  0
 14 15  1  6  0  0  0
 14 16  1  0  0  0  0
 16 27  1  1  0  0  0
 18 19  2  0  0  0  0
 18 23  1  0  0  0  0
 19 20  1  0  0  0  0
 20 21  2  0  0  0  0
 21 22  1  0  0  0  0
 21 27  1  0  0  0  0
 22 23  2  0  0  0  0
 22 25  1  0  0  0  0
 23 24  1  0  0  0  0
 25 26  2  0  0  0  0
 26 27  1  0  0  0  0
M  END
>  <CHROM.1>
-44.43855802,66.66470271,-65.89843300,-70.51649858,-90.14863527,47.86507925
-63.99275973,8.41968400,8.94199444,21.53811146,-2.42566827,-0.95967299,0.09003587

>  <Name>
ligand

>  <RI>
0

>  <Rbt.Current_Directory>
/home/itssahil/PROJECTS/Mol_Feturizer/Test_systems_manuscript/rnas/4aob

>  <Rbt.Executable>
rbdock ($Id: //depot/dev/client3/rdock/2013.1/src/exe/rbdock.cxx#4 $)

>  <Rbt.Library>
libRbt.so (2013.1, Build901 2013/11/27)

>  <Rbt.Parameter_File>
/export/apps/rDock/src/rDock_2013.1_src/data/scripts/dock_solv.prm

>  <Rbt.Receptor>
prm/blind_docking_40.prm

>  <SCORE>
-12.1812

>  <SCORE.INTER>
-10.133

>  <SCORE.INTER.CONST>
1

>  <SCORE.INTER.POLAR>
0

>  <SCORE.INTER.ROT>
7

>  <SCORE.INTER.SOLV>
9.94112

>  <SCORE.INTER.VDW>
-18.3357

>  <SCORE.INTER.norm>
-0.375297

>  <SCORE.INTRA>
-2.04817

>  <SCORE.INTRA.DIHEDRAL>
-1.30207

>  <SCORE.INTRA.DIHEDRAL.0>
6.31833

>  <SCORE.INTRA.POLAR>
0

>  <SCORE.INTRA.POLAR.0>
0

>  <SCORE.INTRA.REPUL>
0

>  <SCORE.INTRA.REPUL.0>
0

>  <SCORE.INTRA.SOLV>
1.77174

>  <SCORE.INTRA.SOLV.lig_0>
-48.4015

>  <SCORE.INTRA.VDW>
-2.28301

>  <SCORE.INTRA.VDW.0>
-2.83256

>  <SCORE.INTRA.norm>
-0.0758583

>  <SCORE.RESTR>
0

>  <SCORE.RESTR.CAVITY>
0

>  <SCORE.RESTR.norm>
0

>  <SCORE.SYSTEM>
0

>  <SCORE.SYSTEM.CONST>
0

>  <SCORE.SYSTEM.DIHEDRAL>
0

>  <SCORE.SYSTEM.SOLV>
0

>  <SCORE.SYSTEM.norm>
0

>  <SCORE.heavy>
27

>  <SCORE.norm>
-0.451155

>  <RMSD>
12.914

$$$$
ligand
 OpenBabel02271912153D
libRbt.so/2013.1/901 2013/11/27
 27 29  0  0  0  0  0  0  0  0999 V2000
    9.1218    6.1418   14.6869 N   0  0  0  0  0  0  0  0  0  0  0  0
    9.5027    7.0432   15.8008 C   0  0  2  0  0  0  0  0  0  0  0  0
    8.4728    8.1636   15.8665 C   0  0  0  0  0  0  0  0  0  0  0  0
    7.9040    8.6076   16.9185 O   0  0  0  0  0  0  0  0  0  0  0  0
   10.9289    7.5442   15.5625 C   0  0  0  0  0  0  0  0  0  0  0  0
   11.6052    8.0252   16.8394 C   0  0  0  0  0  0  0  0  0  0  0  0
   11.7471    6.9994   18.3507 S   0  0  2  0  0  0  0  0  0  0  0  0
   10.1920    7.4389   19.1247 C   0  0  0  0  0  0  0  0  0  0  0  0
   12.9715    8.0144   19.2378 C   0  0  0  0  0  0  0  0  0  0  0  0
   13.2445    7.4738   20.6144 C   0  0  1  0  0  0  0  0  0  0  0  0
   14.2119    6.3963   20.6059 O   0  0  0  0  0  0  0  0  0  0  0  0
   13.7439    8.5060   21.5994 C   0  0  1  0  0  0  0  0  0  0  0  0
   12.6860    8.9263   22.3455 O   0  0  0  0  0  0  0  0  0  0  0  0
   14.6013    7.6361   22.4885 C   0  0  1  0  0  0  0  0  0  0  0  0
   13.7454    7.0624   23.3738 O   0  0  0  0  0  0  0  0  0  0  0  0
   15.2046    6.5371   21.5860 C   0  0  2  0  0  0  0  0  0  0  0  0
    8.1243    8.6402   14.7849 O   0  0  0  0  0  0  0  0  0  0  0  0
   19.0858    6.3184   18.1128 N   0  0  0  0  0  0  0  0  0  0  0  0
   18.0547    5.3978   18.5002 C   0  0  0  0  0  0  0  0  0  0  0  0
   17.0377    5.5859   19.4688 N   0  0  0  0  0  0  0  0  0  0  0  0
   17.1150    6.7408   20.0018 C   0  0  0  0  0  0  0  0  0  0  0  0
   18.1341    7.7611   19.6687 C   0  0  0  0  0  0  0  0  0  0  0  0
   19.0883    7.5369   18.7560 C   0  0  0  0  0  0  0  0  0  0  0  0
   19.9437    8.5212   18.5701 N   0  0  0  0  0  0  0  0  0  0  0  0
   18.0152    8.8690   20.3606 N   0  0  0  0  0  0  0  0  0  0  0  0
   16.9114    8.5433   21.1271 C   0  0  0  0  0  0  0  0  0  0  0  0
   16.3374    7.2250   20.9092 N   0  0  0  0  0  0  0  0  0  0  0  0
  2  1  1  6  0  0  0
  2  3  1  0  0  0  0
  2  5  1  0  0  0  0
  3  4  1  0  0  0  0
  3 17  1  0  0  0  0
  5  6  1  0  0  0  0
  7  6  1  6  0  0  0
  7  8  1  0  0  0  0
  7  9  1  0  0  0  0
 10  9  1  6  0  0  0
 10 11  1  0  0  0  0
 10 12  1  0  0  0  0
 11 16  1  0  0  0  0
 12 13  1  1  0  0  0
 12 14  1  0  0  0  0
 14 15  1  1  0  0  0
 14 16  1  0  0  0  0
 16 27  1  6  0  0  0
 18 19  2  0  0  0  0
 18 23  1  0  0  0  0
 19 20  1  0  0  0  0
 20 21  2  0  0  0  0
 21 22  1  0  0  0  0
 21 27  1  0  0  0  0
 22 23  2  0  0  0  0
 22 25  1  0  0  0  0
 23 24  1  0  0  0  0
 25 26  2  0  0  0  0
 26 27  1  0  0  0  0
M  END
>  <CHROM.1>
134.27315394,-158.35705145,54.08767943,-87.97748368,175.93188233,82.68632956
-69.81461756,13.74669551,7.46248952,19.04909499,-2.71320715,-0.09445972,1.46913673

>  <Name>
ligand

>  <RI>
0

>  <Rbt.Current_Directory>
/home/itssahil/PROJECTS/Mol_Feturizer/Test_systems_manuscript/rnas/4aob

>  <Rbt.Executable>
rbdock ($Id: //depot/dev/client3/rdock/2013.1/src/exe/rbdock.cxx#4 $)

>  <Rbt.Library>
libRbt.so (2013.1, Build901 2013/11/27)

>  <Rbt.Parameter_File>
/export/apps/rDock/src/rDock_2013.1_src/data/scripts/dock_solv.prm

>  <Rbt.Receptor>
prm/blind_docking_60.prm

>  <SCORE>
-7.50759

>  <SCORE.INTER>
-8.05443

>  <SCORE.INTER.CONST>
1

>  <SCORE.INTER.POLAR>
0

>  <SCORE.INTER.ROT>
7

>  <SCORE.INTER.SOLV>
17.5965

>  <SCORE.INTER.VDW>
-19.5018

>  <SCORE.INTER.norm>
-0.298312

>  <SCORE.INTRA>
0.546837

>  <SCORE.INTRA.DIHEDRAL>
1.64668

>  <SCORE.INTRA.DIHEDRAL.0>
6.31833

>  <SCORE.INTRA.POLAR>
0

>  <SCORE.INTRA.POLAR.0>
0

>  <SCORE.INTRA.REPUL>
0

>  <SCORE.INTRA.REPUL.0>
0

>  <SCORE.INTRA.SOLV>
-0.600156

>  <SCORE.INTRA.SOLV.lig_0>
-48.4015

>  <SCORE.INTRA.VDW>
0.0235766

>  <SCORE.INTRA.VDW.0>
-2.83256

>  <SCORE.INTRA.norm>
0.0202532

>  <SCORE.RESTR>
0

>  <SCORE.RESTR.CAVITY>
0

>  <SCORE.RESTR.norm>
0

>  <SCORE.SYSTEM>
0

>  <SCORE.SYSTEM.CONST>
0

>  <SCORE.SYSTEM.DIHEDRAL>
0

>  <SCORE.SYSTEM.SOLV>
0

>  <SCORE.SYSTEM.norm>
0

>  <SCORE.heavy>
27

>  <SCORE.norm>
-0.278059

>  <RMSD>
12.939

$$$$
ligand
 OpenBabel02271912153D
libRbt.so/2013.1/901 2013/11/27
 27 29  0  0  0  0  0  0  0  0999 V2000
    7.3010    6.5874   14.3216 N   0  0  0  0  0  0  0  0  0  0  0  0
    8.0520    6.5794   15.6001 C   0  0  2  0  0  0  0  0  0  0  0  0
    8.0091    7.9895   16.1745 C   0  0  0  0  0  0  0  0  0  0  0  0
    7.3550    8.3683   17.2022 O   0  0  0  0  0  0  0  0  0  0  0  0
    9.4724    6.0767   15.3332 C   0  0  0  0  0  0  0  0  0  0  0  0
   10.2777    5.8807   16.6108 C   0  0  0  0  0  0  0  0  0  0  0  0
   10.5667    7.2148   17.8327 S   0  0  2  0  0  0  0  0  0  0  0  0
   11.4861    8.3447   16.7894 C   0  0  0  0  0  0  0  0  0  0  0  0
   11.8582    6.3892   18.8158 C   0  0  0  0  0  0  0  0  0  0  0  0
   11.9833    6.9970   20.1858 C   0  0  1  0  0  0  0  0  0  0  0  0
   12.7879    6.1903   21.0796 O   0  0  0  0  0  0  0  0  0  0  0  0
   12.5741    8.3883   20.1965 C   0  0  1  0  0  0  0  0  0  0  0  0
   11.5505    9.2827   20.2663 O   0  0  0  0  0  0  0  0  0  0  0  0
   13.2547    8.3808   21.5453 C   0  0  1  0  0  0  0  0  0  0  0  0
   12.2834    8.6802   22.4466 O   0  0  0  0  0  0  0  0  0  0  0  0
   13.7407    6.9350   21.7894 C   0  0  2  0  0  0  0  0  0  0  0  0
    8.6266    8.8485   15.5426 O   0  0  0  0  0  0  0  0  0  0  0  0
   18.6781    8.4579   21.0988 N   0  0  0  0  0  0  0  0  0  0  0  0
   17.6954    8.7239   22.1108 C   0  0  0  0  0  0  0  0  0  0  0  0
   16.3686    8.2323   22.1875 N   0  0  0  0  0  0  0  0  0  0  0  0
   16.1041    7.4613   21.2081 C   0  0  0  0  0  0  0  0  0  0  0  0
   17.0471    7.1204   20.1195 C   0  0  0  0  0  0  0  0  0  0  0  0
   18.2894    7.6193   20.0770 C   0  0  0  0  0  0  0  0  0  0  0  0
   19.0179    7.2509   19.0433 N   0  0  0  0  0  0  0  0  0  0  0  0
   16.5399    6.3155   19.2167 N   0  0  0  0  0  0  0  0  0  0  0  0
   15.2738    6.1461   19.7460 C   0  0  0  0  0  0  0  0  0  0  0  0
   14.9915    6.8478   20.9880 N   0  0  0  0  0  0  0  0  0  0  0  0
  2  1  1  6  0  0  0
  2  3  1  0  0  0  0
  2  5  1  0  0  0  0
  3  4  1  0  0  0  0
  3 17  1  0  0  0  0
  5  6  1  0  0  0  0
  7  6  1  6  0  0  0
  7  8  1  0  0  0  0
  7  9  1  0  0  0  0
 10  9  1  6  0  0  0
 10 11  1  0  0  0  0
 10 12  1  0  0  0  0
 11 16  1  0  0  0  0
 12 13  1  1  0  0  0
 12 14  1  0  0  0  0
 14 15  1  1  0  0  0
 14 16  1  0  0  0  0
 16 27  1  6  0  0  0
 18 19  2  0  0  0  0
 18 23  1  0  0  0  0
 19 20  1  0  0  0  0
 20 21  2  0  0  0  0
 21 22  1  0  0  0  0
 21 27  1  0  0  0  0
 22 23  2  0  0  0  0
 22 25  1  0  0  0  0
 23 24  1  0  0  0  0
 25 26  2  0  0  0  0
 26 27  1  0  0  0  0
M  END
>  <CHROM.1>
109.18593316,-173.45440286,-56.84024362,-62.47163668,-159.59188095,167.60433595
174.58542865,12.76638654,7.46608970,19.07147259,-2.63009446,-0.14385140,1.26113139

>  <Name>
ligand

>  <RI>
0

>  <Rbt.Current_Directory>
/home/itssahil/PROJECTS/Mol_Feturizer/Test_systems_manuscript/rnas/4aob

>  <Rbt.Executable>
rbdock ($Id: //depot/dev/client3/rdock/2013.1/src/exe/rbdock.cxx#4 $)

>  <Rbt.Library>
libRbt.so (2013.1, Build901 2013/11/27)

>  <Rbt.Parameter_File>
/export/apps/rDock/src/rDock_2013.1_src/data/scripts/dock_solv.prm

>  <Rbt.Receptor>
prm/blind_docking_80.prm

>  <SCORE>
-15.4039

>  <SCORE.INTER>
-14.4644

>  <SCORE.INTER.CONST>
1

>  <SCORE.INTER.POLAR>
0

>  <SCORE.INTER.ROT>
7

>  <SCORE.INTER.SOLV>
16.5317

>  <SCORE.INTER.VDW>
-23.4201

>  <SCORE.INTER.norm>
-0.535718

>  <SCORE.INTRA>
-0.939512

>  <SCORE.INTRA.DIHEDRAL>
-0.319558

>  <SCORE.INTRA.DIHEDRAL.0>
6.31833

>  <SCORE.INTRA.POLAR>
0

>  <SCORE.INTRA.POLAR.0>
0

>  <SCORE.INTRA.REPUL>
0

>  <SCORE.INTRA.REPUL.0>
0

>  <SCORE.INTRA.SOLV>
-0.427272

>  <SCORE.INTRA.SOLV.lig_0>
-48.4015

>  <SCORE.INTRA.VDW>
-0.566097

>  <SCORE.INTRA.VDW.0>
-2.83256

>  <SCORE.INTRA.norm>
-0.0347967

>  <SCORE.RESTR>
0

>  <SCORE.RESTR.CAVITY>
0

>  <SCORE.RESTR.norm>
0

>  <SCORE.SYSTEM>
0

>  <SCORE.SYSTEM.CONST>
0

>  <SCORE.SYSTEM.DIHEDRAL>
0

>  <SCORE.SYSTEM.SOLV>
0

>  <SCORE.SYSTEM.norm>
0

>  <SCORE.heavy>
27

>  <SCORE.norm>
-0.570515

>  <RMSD>
12.965

$$$$
ligand
 OpenBabel02271912153D
libRbt.so/2013.1/901 2013/11/27
 27 29  0  0  0  0  0  0  0  0999 V2000
    8.6401   11.5154   23.5086 N   0  0  0  0  0  0  0  0  0  0  0  0
    8.7048   10.7174   24.7565 C   0  0  2  0  0  0  0  0  0  0  0  0
   10.1291   10.8013   25.2900 C   0  0  0  0  0  0  0  0  0  0  0  0
   11.1990   10.7921   24.5952 O   0  0  0  0  0  0  0  0  0  0  0  0
    8.2558    9.2870   24.4497 C   0  0  0  0  0  0  0  0  0  0  0  0
    6.8018    9.2089   24.0036 C   0  0  0  0  0  0  0  0  0  0  0  0
    6.2185    9.7924   22.3678 S   0  0  2  0  0  0  0  0  0  0  0  0
    4.4664    9.9011   22.7268 C   0  0  0  0  0  0  0  0  0  0  0  0
    6.3755    8.2205   21.4618 C   0  0  0  0  0  0  0  0  0  0  0  0
    6.6521    8.4495   20.0014 C   0  0  1  0  0  0  0  0  0  0  0  0
    7.4311    9.6471   19.7650 O   0  0  0  0  0  0  0  0  0  0  0  0
    7.3772    7.3112   19.3206 C   0  0  1  0  0  0  0  0  0  0  0  0
    6.4543    6.5463   18.6758 O   0  0  0  0  0  0  0  0  0  0  0  0
    8.1430    8.0737   18.2648 C   0  0  1  0  0  0  0  0  0  0  0  0
    7.2690    8.2588   17.2414 O   0  0  0  0  0  0  0  0  0  0  0  0
    8.4986    9.4460   18.8783 C   0  0  2  0  0  0  0  0  0  0  0  0
   10.2453   10.8240   26.5165 O   0  0  0  0  0  0  0  0  0  0  0  0
   12.8645    6.6943   19.6142 N   0  0  0  0  0  0  0  0  0  0  0  0
   11.9154    6.7713   18.5400 C   0  0  0  0  0  0  0  0  0  0  0  0
   10.7550    7.5804   18.4589 N   0  0  0  0  0  0  0  0  0  0  0  0
   10.6210    8.3019   19.5007 C   0  0  0  0  0  0  0  0  0  0  0  0
   11.5448    8.3002   20.6570 C   0  0  0  0  0  0  0  0  0  0  0  0
   12.6239    7.5080   20.6998 C   0  0  0  0  0  0  0  0  0  0  0  0
   13.3503    7.5907   21.7954 N   0  0  0  0  0  0  0  0  0  0  0  0
   11.1891    9.1213   21.6160 N   0  0  0  0  0  0  0  0  0  0  0  0
   10.0392    9.6450   21.0544 C   0  0  0  0  0  0  0  0  0  0  0  0
    9.6779    9.1491   19.7360 N   0  0  0  0  0  0  0  0  0  0  0  0
  2  1  1  6  0  0  0
  2  3  1  0  0  0  0
  2  5  1  0  0  0  0
  3  4  1  0  0  0  0
  3 17  1  0  0  0  0
  5  6  1  0  0  0  0
  7  6  1  1  0  0  0
  7  8  1  0  0  0  0
  7  9  1  0  0  0  0
 10  9  1  1  0  0  0
 10 11  1  0  0  0  0
 10 12  1  0  0  0  0
 11 16  1  0  0  0  0
 12 13  1  6  0  0  0
 12 14  1  0  0  0  0
 14 15  1  6  0  0  0
 14 16  1  0  0  0  0
 16 27  1  1  0  0  0
 18 19  2  0  0  0  0
 18 23  1  0  0  0  0
 19 20  1  0  0  0  0
 20 21  2  0  0  0  0
 21 22  1  0  0  0  0
 21 27  1  0  0  0  0
 22 23  2  0  0  0  0
 22 25  1  0  0  0  0
 23 24  1  0  0  0  0
 25 26  2  0  0  0  0
 26 27  1  0  0  0  0
M  END
>  <CHROM.1>
-38.56747727,-63.84451168,72.03502495,-162.65487577,-150.95455733,32.15986641
142.03275200,8.95470668,8.93345938,21.32128556,1.72407344,-0.12357805,1.14121736

>  <Name>
ligand

>  <RI>
0

>  <Rbt.Current_Directory>
/home/itssahil/PROJECTS/Mol_Feturizer/Test_systems_manuscript/rnas/4aob

>  <Rbt.Executable>
rbdock ($Id: //depot/dev/client3/rdock/2013.1/src/exe/rbdock.cxx#4 $)

>  <Rbt.Library>
libRbt.so (2013.1, Build901 2013/11/27)

>  <Rbt.Parameter_File>
/export/apps/rDock/src/rDock_2013.1_src/data/scripts/dock_solv.prm

>  <Rbt.Receptor>
prm/blind_docking_60.prm

>  <SCORE>
-8.88271

>  <SCORE.INTER>
-12.1223

>  <SCORE.INTER.CONST>
1

>  <SCORE.INTER.POLAR>
0

>  <SCORE.INTER.ROT>
7

>  <SCORE.INTER.SOLV>
7.79233

>  <SCORE.INTER.VDW>
-18.9457

>  <SCORE.INTER.norm>
-0.448975

>  <SCORE.INTRA>
3.21512

>  <SCORE.INTRA.DIHEDRAL>
4.35903

>  <SCORE.INTRA.DIHEDRAL.0>
6.31833

>  <SCORE.INTRA.POLAR>
0

>  <SCORE.INTRA.POLAR.0>
0

>  <SCORE.INTRA.REPUL>
0.000519723

>  <SCORE.INTRA.REPUL.0>
0

>  <SCORE.INTRA.SOLV>
1.69747

>  <SCORE.INTRA.SOLV.lig_0>
-48.4015

>  <SCORE.INTRA.VDW>
0.184272

>  <SCORE.INTRA.VDW.0>
-2.83256

>  <SCORE.INTRA.norm>
0.119079

>  <SCORE.RESTR>
0.0244873

>  <SCORE.RESTR.CAVITY>
0.0244873

>  <SCORE.RESTR.norm>
0.000906937

>  <SCORE.SYSTEM>
0

>  <SCORE.SYSTEM.CONST>
0

>  <SCORE.SYSTEM.DIHEDRAL>
0

>  <SCORE.SYSTEM.SOLV>
0

>  <SCORE.SYSTEM.norm>
0

>  <SCORE.heavy>
27

>  <SCORE.norm>
-0.328989

>  <RMSD>
12.997

$$$$
ligand
 OpenBabel02271912153D
libRbt.so/2013.1/901 2013/11/27
 27 29  0  0  0  0  0  0  0  0999 V2000
    8.2369    7.3999   20.9183 N   0  0  0  0  0  0  0  0  0  0  0  0
    8.2660    8.2083   22.1608 C   0  0  2  0  0  0  0  0  0  0  0  0
    7.6513    9.5663   21.8477 C   0  0  0  0  0  0  0  0  0  0  0  0
    8.0780   10.7003   22.2471 O   0  0  0  0  0  0  0  0  0  0  0  0
    9.7111    8.2970   22.6564 C   0  0  0  0  0  0  0  0  0  0  0  0
   10.2791    6.9432   23.0611 C   0  0  0  0  0  0  0  0  0  0  0  0
   11.9210    6.7352   23.8470 S   0  0  2  0  0  0  0  0  0  0  0  0
   11.6471    7.7250   25.3153 C   0  0  0  0  0  0  0  0  0  0  0  0
   12.8718    7.8393   22.7547 C   0  0  0  0  0  0  0  0  0  0  0  0
   13.6418    7.0650   21.7207 C   0  0  1  0  0  0  0  0  0  0  0  0
   12.8242    6.0824   21.0402 O   0  0  0  0  0  0  0  0  0  0  0  0
   14.2814    7.9217   20.6520 C   0  0  1  0  0  0  0  0  0  0  0  0
   15.5868    8.1124   20.9868 O   0  0  0  0  0  0  0  0  0  0  0  0
   14.2541    6.9614   19.4860 C   0  0  1  0  0  0  0  0  0  0  0  0
   15.3454    6.1673   19.6406 O   0  0  0  0  0  0  0  0  0  0  0  0
   12.9796    6.1036   19.6468 C   0  0  2  0  0  0  0  0  0  0  0  0
    6.6097    9.5482   21.1895 O   0  0  0  0  0  0  0  0  0  0  0  0
   10.3144    7.9548   15.5670 N   0  0  0  0  0  0  0  0  0  0  0  0
   11.3523    6.9727   15.7047 C   0  0  0  0  0  0  0  0  0  0  0  0
   11.9976    6.5477   16.8925 N   0  0  0  0  0  0  0  0  0  0  0  0
   11.5318    7.1519   17.9131 C   0  0  0  0  0  0  0  0  0  0  0  0
   10.4614    8.1735   17.8776 C   0  0  0  0  0  0  0  0  0  0  0  0
    9.8873    8.5576   16.7301 C   0  0  0  0  0  0  0  0  0  0  0  0
    8.9623    9.4891   16.8379 N   0  0  0  0  0  0  0  0  0  0  0  0
   10.1602    8.6614   19.0572 N   0  0  0  0  0  0  0  0  0  0  0  0
   11.0427    7.9367   19.8371 C   0  0  0  0  0  0  0  0  0  0  0  0
   11.8971    6.9894   19.1390 N   0  0  0  0  0  0  0  0  0  0  0  0
  2  1  1  6  0  0  0
  2  3  1  0  0  0  0
  2  5  1  0  0  0  0
  3  4  1  0  0  0  0
  3 17  1  0  0  0  0
  5  6  1  0  0  0  0
  7  6  1  6  0  0  0
  7  8  1  0  0  0  0
  7  9  1  0  0  0  0
 10  9  1  1  0  0  0
 10 11  1  0  0  0  0
 10 12  1  0  0  0  0
 11 16  1  0  0  0  0
 12 13  1  1  0  0  0
 12 14  1  0  0  0  0
 14 15  1  1  0  0  0
 14 16  1  0  0  0  0
 16 27  1  6  0  0  0
 18 19  2  0  0  0  0
 18 23  1  0  0  0  0
 19 20  1  0  0  0  0
 20 21  2  0  0  0  0
 21 22  1  0  0  0  0
 21 27  1  0  0  0  0
 22 23  2  0  0  0  0
 22 25  1  0  0  0  0
 23 24  1  0  0  0  0
 25 26  2  0  0  0  0
 26 27  1  0  0  0  0
M  END
>  <CHROM.1>
-138.28395612,-64.27449724,-173.83482471,59.94559632,-100.65729544,48.84641367
-169.22585687,11.23333897,7.72943055,20.43031334,1.65618658,-0.36166096,1.56632745

>  <Name>
ligand

>  <RI>
0

>  <Rbt.Current_Directory>
/home/itssahil/PROJECTS/Mol_Feturizer/Test_systems_manuscript/rnas/4aob

>  <Rbt.Executable>
rbdock ($Id: //depot/dev/client3/rdock/2013.1/src/exe/rbdock.cxx#4 $)

>  <Rbt.Library>
libRbt.so (2013.1, Build901 2013/11/27)

>  <Rbt.Parameter_File>
/export/apps/rDock/src/rDock_2013.1_src/data/scripts/dock_solv.prm

>  <Rbt.Receptor>
prm/blind_docking_60.prm

>  <SCORE>
-9.00848

>  <SCORE.INTER>
-8.80261

>  <SCORE.INTER.CONST>
1

>  <SCORE.INTER.POLAR>
0

>  <SCORE.INTER.ROT>
7

>  <SCORE.INTER.SOLV>
13.7789

>  <SCORE.INTER.VDW>
-18.728

>  <SCORE.INTER.norm>
-0.326023

>  <SCORE.INTRA>
-0.205866

>  <SCORE.INTRA.DIHEDRAL>
-0.297325

>  <SCORE.INTRA.DIHEDRAL.0>
6.31833

>  <SCORE.INTRA.POLAR>
0

>  <SCORE.INTRA.POLAR.0>
0

>  <SCORE.INTRA.REPUL>
0

>  <SCORE.INTRA.REPUL.0>
0

>  <SCORE.INTRA.SOLV>
1.20123

>  <SCORE.INTRA.SOLV.lig_0>
-48.4015

>  <SCORE.INTRA.VDW>
-0.657817

>  <SCORE.INTRA.VDW.0>
-2.83256

>  <SCORE.INTRA.norm>
-0.00762466

>  <SCORE.RESTR>
0

>  <SCORE.RESTR.CAVITY>
0

>  <SCORE.RESTR.norm>
0

>  <SCORE.SYSTEM>
0

>  <SCORE.SYSTEM.CONST>
0

>  <SCORE.SYSTEM.DIHEDRAL>
0

>  <SCORE.SYSTEM.SOLV>
0

>  <SCORE.SYSTEM.norm>
0

>  <SCORE.heavy>
27

>  <SCORE.norm>
-0.333647

>  <RMSD>
13.032

$$$$
ligand
 OpenBabel02271912153D
libRbt.so/2013.1/901 2013/11/27
 27 29  0  0  0  0  0  0  0  0999 V2000
    6.9747    3.9042   17.2495 N   0  0  0  0  0  0  0  0  0  0  0  0
    7.0144    5.3826   17.1443 C   0  0  2  0  0  0  0  0  0  0  0  0
    6.1598    5.7879   15.9503 C   0  0  0  0  0  0  0  0  0  0  0  0
    6.5079    6.5637   14.9993 O   0  0  0  0  0  0  0  0  0  0  0  0
    8.4734    5.8284   17.0245 C   0  0  0  0  0  0  0  0  0  0  0  0
    8.6338    7.3416   17.0850 C   0  0  0  0  0  0  0  0  0  0  0  0
   10.2623    8.1798   17.1291 S   0  0  2  0  0  0  0  0  0  0  0  0
   11.0133    7.3901   15.7068 C   0  0  0  0  0  0  0  0  0  0  0  0
   10.9755    7.2841   18.5452 C   0  0  0  0  0  0  0  0  0  0  0  0
   12.4532    7.5347   18.6703 C   0  0  1  0  0  0  0  0  0  0  0  0
   12.7578    8.9167   18.9776 O   0  0  0  0  0  0  0  0  0  0  0  0
   13.1401    6.6890   19.7182 C   0  0  1  0  0  0  0  0  0  0  0  0
   13.7190    5.6276   19.0932 O   0  0  0  0  0  0  0  0  0  0  0  0
   14.2512    7.6250   20.1326 C   0  0  1  0  0  0  0  0  0  0  0  0
   15.2346    7.4560   19.2107 O   0  0  0  0  0  0  0  0  0  0  0  0
   13.6907    9.0596   20.0146 C   0  0  2  0  0  0  0  0  0  0  0  0
    5.0038    5.3613   15.9446 O   0  0  0  0  0  0  0  0  0  0  0  0
   13.5675    9.3003   25.2205 N   0  0  0  0  0  0  0  0  0  0  0  0
   14.6303    9.1850   24.2625 C   0  0  0  0  0  0  0  0  0  0  0  0
   14.5287    9.1381   22.8499 N   0  0  0  0  0  0  0  0  0  0  0  0
   13.3155    9.2263   22.4706 C   0  0  0  0  0  0  0  0  0  0  0  0
   12.1518    9.3536   23.3763 C   0  0  0  0  0  0  0  0  0  0  0  0
   12.2909    9.3794   24.7082 C   0  0  0  0  0  0  0  0  0  0  0  0
   11.1727    9.4760   25.3976 N   0  0  0  0  0  0  0  0  0  0  0  0
   11.0014    9.4160   22.7494 N   0  0  0  0  0  0  0  0  0  0  0  0
   11.4474    9.3336   21.4432 C   0  0  0  0  0  0  0  0  0  0  0  0
   12.8851    9.2221   21.2551 N   0  0  0  0  0  0  0  0  0  0  0  0
  2  1  1  6  0  0  0
  2  3  1  0  0  0  0
  2  5  1  0  0  0  0
  3  4  1  0  0  0  0
  3 17  1  0  0  0  0
  5  6  1  0  0  0  0
  7  6  1  6  0  0  0
  7  8  1  0  0  0  0
  7  9  1  0  0  0  0
 10  9  1  1  0  0  0
 10 11  1  0  0  0  0
 10 12  1  0  0  0  0
 11 16  1  0  0  0  0
 12 13  1  6  0  0  0
 12 14  1  0  0  0  0
 14 15  1  6  0  0  0
 14 16  1  0  0  0  0
 16 27  1  1  0  0  0
 18 19  2  0  0  0  0
 18 23  1  0  0  0  0
 19 20  1  0  0  0  0
 20 21  2  0  0  0  0
 21 22  1  0  0  0  0
 21 27  1  0  0  0  0
 22 23  2  0  0  0  0
 22 25  1  0  0  0  0
 23 24  1  0  0  0  0
 25 26  2  0  0  0  0
 26 27  1  0  0  0  0
M  END
>  <CHROM.1>
-129.26562897,-172.85394650,174.01231542,51.98625659,167.69048111,65.00928499
171.09088373,11.14661423,7.71057343,19.61221603,2.25387853,-0.12695275,-1.88934946

>  <Name>
ligand

>  <RI>
0

>  <Rbt.Current_Directory>
/home/itssahil/PROJECTS/Mol_Feturizer/Test_systems_manuscript/rnas/4aob

>  <Rbt.Executable>
rbdock ($Id: //depot/dev/client3/rdock/2013.1/src/exe/rbdock.cxx#4 $)

>  <Rbt.Library>
libRbt.so (2013.1, Build901 2013/11/27)

>  <Rbt.Parameter_File>
/export/apps/rDock/src/rDock_2013.1_src/data/scripts/dock_solv.prm

>  <Rbt.Receptor>
prm/blind_docking_40.prm

>  <SCORE>
-14.6377

>  <SCORE.INTER>
-13.6408

>  <SCORE.INTER.CONST>
1

>  <SCORE.INTER.POLAR>
0

>  <SCORE.INTER.ROT>
7

>  <SCORE.INTER.SOLV>
6.90849

>  <SCORE.INTER.VDW>
-19.6634

>  <SCORE.INTER.norm>
-0.505217

>  <SCORE.INTRA>
-0.996862

>  <SCORE.INTRA.DIHEDRAL>
-2.76241

>  <SCORE.INTRA.DIHEDRAL.0>
6.31833

>  <SCORE.INTRA.POLAR>
0

>  <SCORE.INTRA.POLAR.0>
0

>  <SCORE.INTRA.REPUL>
0

>  <SCORE.INTRA.REPUL.0>
0

>  <SCORE.INTRA.SOLV>
-0.794713

>  <SCORE.INTRA.SOLV.lig_0>
-48.4015

>  <SCORE.INTRA.VDW>
0.781699

>  <SCORE.INTRA.VDW.0>
-2.83256

>  <SCORE.INTRA.norm>
-0.0369208

>  <SCORE.RESTR>
0

>  <SCORE.RESTR.CAVITY>
0

>  <SCORE.RESTR.norm>
0

>  <SCORE.SYSTEM>
0

>  <SCORE.SYSTEM.CONST>
0

>  <SCORE.SYSTEM.DIHEDRAL>
0

>  <SCORE.SYSTEM.SOLV>
0

>  <SCORE.SYSTEM.norm>
0

>  <SCORE.heavy>
27

>  <SCORE.norm>
-0.542137

>  <RMSD>
13.039

$$$$
ligand
 OpenBabel02271912153D
libRbt.so/2013.1/901 2013/11/27
 27 29  0  0  0  0  0  0  0  0999 V2000
    9.4777    9.9717   24.4451 N   0  0  0  0  0  0  0  0  0  0  0  0
    8.2825    9.5622   23.6692 C   0  0  2  0  0  0  0  0  0  0  0  0
    7.7588    8.2644   24.2707 C   0  0  0  0  0  0  0  0  0  0  0  0
    8.4626    7.2852   24.6869 O   0  0  0  0  0  0  0  0  0  0  0  0
    8.6732    9.4327   22.1954 C   0  0  0  0  0  0  0  0  0  0  0  0
    7.4939    9.0693   21.3031 C   0  0  0  0  0  0  0  0  0  0  0  0
    7.6287    8.8772   19.4860 S   0  0  2  0  0  0  0  0  0  0  0  0
    5.9774    8.2660   19.1540 C   0  0  0  0  0  0  0  0  0  0  0  0
    8.6570    7.3745   19.4608 C   0  0  0  0  0  0  0  0  0  0  0  0
    9.3597    7.2077   18.1416 C   0  0  1  0  0  0  0  0  0  0  0  0
   10.4322    8.1635   17.9592 O   0  0  0  0  0  0  0  0  0  0  0  0
    9.9521    5.8343   17.9226 C   0  0  1  0  0  0  0  0  0  0  0  0
    9.0823    5.1140   17.1628 O   0  0  0  0  0  0  0  0  0  0  0  0
   11.1290    6.1865   17.0433 C   0  0  1  0  0  0  0  0  0  0  0  0
   10.6294    6.2794   15.7835 O   0  0  0  0  0  0  0  0  0  0  0  0
   11.6196    7.5799   17.4950 C   0  0  2  0  0  0  0  0  0  0  0  0
    6.5332    8.1397   24.3008 O   0  0  0  0  0  0  0  0  0  0  0  0
   12.9075    8.8898   22.3736 N   0  0  0  0  0  0  0  0  0  0  0  0
   11.9613    9.4114   21.4284 C   0  0  0  0  0  0  0  0  0  0  0  0
   11.6980    8.9509   20.1145 N   0  0  0  0  0  0  0  0  0  0  0  0
   12.4234    7.9445   19.8235 C   0  0  0  0  0  0  0  0  0  0  0  0
   13.4216    7.3299   20.7271 C   0  0  0  0  0  0  0  0  0  0  0  0
   13.6501    7.8061   21.9579 C   0  0  0  0  0  0  0  0  0  0  0  0
   14.5787    7.1786   22.6499 N   0  0  0  0  0  0  0  0  0  0  0  0
   14.0535    6.3100   20.1973 N   0  0  0  0  0  0  0  0  0  0  0  0
   13.4432    6.2814   18.9569 C   0  0  0  0  0  0  0  0  0  0  0  0
   12.4226    7.2884   18.7135 N   0  0  0  0  0  0  0  0  0  0  0  0
  2  1  1  1  0  0  0
  2  3  1  0  0  0  0
  2  5  1  0  0  0  0
  3  4  1  0  0  0  0
  3 17  1  0  0  0  0
  5  6  1  0  0  0  0
  7  6  1  1  0  0  0
  7  8  1  0  0  0  0
  7  9  1  0  0  0  0
 10  9  1  1  0  0  0
 10 11  1  0  0  0  0
 10 12  1  0  0  0  0
 11 16  1  0  0  0  0
 12 13  1  6  0  0  0
 12 14  1  0  0  0  0
 14 15  1  6  0  0  0
 14 16  1  0  0  0  0
 16 27  1  1  0  0  0
 18 19  2  0  0  0  0
 18 23  1  0  0  0  0
 19 20  1  0  0  0  0
 20 21  2  0  0  0  0
 21 22  1  0  0  0  0
 21 27  1  0  0  0  0
 22 23  2  0  0  0  0
 22 25  1  0  0  0  0
 23 24  1  0  0  0  0
 25 26  2  0  0  0  0
 26 27  1  0  0  0  0
M  END
>  <CHROM.1>
-40.26998391,-177.64613043,178.64029102,173.26617048,-159.76152983,71.98794824
-30.86842589,10.20920851,7.81452941,20.36131809,-2.16104496,0.12204570,-1.86778502

>  <Name>
ligand

>  <RI>
0

>  <Rbt.Current_Directory>
/home/itssahil/PROJECTS/Mol_Feturizer/Test_systems_manuscript/rnas/4aob

>  <Rbt.Executable>
rbdock ($Id: //depot/dev/client3/rdock/2013.1/src/exe/rbdock.cxx#4 $)

>  <Rbt.Library>
libRbt.so (2013.1, Build901 2013/11/27)

>  <Rbt.Parameter_File>
/export/apps/rDock/src/rDock_2013.1_src/data/scripts/dock_solv.prm

>  <Rbt.Receptor>
prm/blind_docking_100.prm

>  <SCORE>
-11.4049

>  <SCORE.INTER>
-9.9389

>  <SCORE.INTER.CONST>
1

>  <SCORE.INTER.POLAR>
0

>  <SCORE.INTER.ROT>
7

>  <SCORE.INTER.SOLV>
8.89061

>  <SCORE.INTER.VDW>
-17.8561

>  <SCORE.INTER.norm>
-0.368107

>  <SCORE.INTRA>
-1.46601

>  <SCORE.INTRA.DIHEDRAL>
-0.818408

>  <SCORE.INTRA.DIHEDRAL.0>
6.31833

>  <SCORE.INTRA.POLAR>
0

>  <SCORE.INTRA.POLAR.0>
0

>  <SCORE.INTRA.REPUL>
0

>  <SCORE.INTRA.REPUL.0>
0

>  <SCORE.INTRA.SOLV>
-0.801007

>  <SCORE.INTRA.SOLV.lig_0>
-48.4015

>  <SCORE.INTRA.VDW>
-0.656303

>  <SCORE.INTRA.VDW.0>
-2.83256

>  <SCORE.INTRA.norm>
-0.0542967

>  <SCORE.RESTR>
0

>  <SCORE.RESTR.CAVITY>
0

>  <SCORE.RESTR.norm>
0

>  <SCORE.SYSTEM>
0

>  <SCORE.SYSTEM.CONST>
0

>  <SCORE.SYSTEM.DIHEDRAL>
0

>  <SCORE.SYSTEM.SOLV>
0

>  <SCORE.SYSTEM.norm>
0

>  <SCORE.heavy>
27

>  <SCORE.norm>
-0.422404

>  <RMSD>
13.040

$$$$
ligand
 OpenBabel02271912153D
libRbt.so/2013.1/901 2013/11/27
 27 29  0  0  0  0  0  0  0  0999 V2000
   15.3139    9.3013   25.5073 N   0  0  0  0  0  0  0  0  0  0  0  0
   14.2566    9.8694   24.6368 C   0  0  2  0  0  0  0  0  0  0  0  0
   13.2080   10.5116   25.5358 C   0  0  0  0  0  0  0  0  0  0  0  0
   12.4584   11.4998   25.2375 O   0  0  0  0  0  0  0  0  0  0  0  0
   13.6954    8.7538   23.7524 C   0  0  0  0  0  0  0  0  0  0  0  0
   12.5090    9.2083   22.9126 C   0  0  0  0  0  0  0  0  0  0  0  0
   11.6886    8.1415   21.6695 S   0  0  2  0  0  0  0  0  0  0  0  0
   12.7335    8.5113   20.2617 C   0  0  0  0  0  0  0  0  0  0  0  0
   10.2087    9.1645   21.3877 C   0  0  0  0  0  0  0  0  0  0  0  0
    9.4065    9.3354   22.6483 C   0  0  1  0  0  0  0  0  0  0  0  0
    9.6220   10.6239   23.2731 O   0  0  0  0  0  0  0  0  0  0  0  0
    7.9145    9.1810   22.4609 C   0  0  1  0  0  0  0  0  0  0  0  0
    7.5713    7.9138   22.8198 O   0  0  0  0  0  0  0  0  0  0  0  0
    7.4107   10.1052   23.5447 C   0  0  1  0  0  0  0  0  0  0  0  0
    7.4412    9.3759   24.6904 O   0  0  0  0  0  0  0  0  0  0  0  0
    8.4316   11.2592   23.6544 C   0  0  2  0  0  0  0  0  0  0  0  0
   13.1257   10.0574   26.6783 O   0  0  0  0  0  0  0  0  0  0  0  0
    6.0728   15.6027   21.9976 N   0  0  0  0  0  0  0  0  0  0  0  0
    6.2926   15.0328   23.2966 C   0  0  0  0  0  0  0  0  0  0  0  0
    6.9683   13.8292   23.6171 N   0  0  0  0  0  0  0  0  0  0  0  0
    7.4110   13.2547   22.5694 C   0  0  0  0  0  0  0  0  0  0  0  0
    7.2423   13.7623   21.1894 C   0  0  0  0  0  0  0  0  0  0  0  0
    6.5830   14.8986   20.9287 C   0  0  0  0  0  0  0  0  0  0  0  0
    6.4887   15.2253   19.6562 N   0  0  0  0  0  0  0  0  0  0  0  0
    7.7765   12.9883   20.2751 N   0  0  0  0  0  0  0  0  0  0  0  0
    8.2883   11.9934   21.0875 C   0  0  0  0  0  0  0  0  0  0  0  0
    8.0740   12.1500   22.5173 N   0  0  0  0  0  0  0  0  0  0  0  0
  2  1  1  1  0  0  0
  2  3  1  0  0  0  0
  2  5  1  0  0  0  0
  3  4  1  0  0  0  0
  3 17  1  0  0  0  0
  5  6  1  0  0  0  0
  7  6  1  1  0  0  0
  7  8  1  0  0  0  0
  7  9  1  0  0  0  0
 10  9  1  6  0  0  0
 10 11  1  0  0  0  0
 10 12  1  0  0  0  0
 11 16  1  0  0  0  0
 12 13  1  1  0  0  0
 12 14  1  0  0  0  0
 14 15  1  1  0  0  0
 14 16  1  0  0  0  0
 16 27  1  6  0  0  0
 18 19  2  0  0  0  0
 18 23  1  0  0  0  0
 19 20  1  0  0  0  0
 20 21  2  0  0  0  0
 21 22  1  0  0  0  0
 21 27  1  0  0  0  0
 22 23  2  0  0  0  0
 22 25  1  0  0  0  0
 23 24  1  0  0  0  0
 25 26  2  0  0  0  0
 26 27  1  0  0  0  0
M  END
>  <CHROM.1>
151.19031944,174.54259992,175.68797801,-87.03089060,-60.86793014,101.50377001
-151.47168271,9.72573337,10.94050621,22.86834712,-0.33729924,-0.61538506
0.57800545

>  <Name>
ligand

>  <RI>
0

>  <Rbt.Current_Directory>
/home/itssahil/PROJECTS/Mol_Feturizer/Test_systems_manuscript/rnas/4aob

>  <Rbt.Executable>
rbdock ($Id: //depot/dev/client3/rdock/2013.1/src/exe/rbdock.cxx#4 $)

>  <Rbt.Library>
libRbt.so (2013.1, Build901 2013/11/27)

>  <Rbt.Parameter_File>
/export/apps/rDock/src/rDock_2013.1_src/data/scripts/dock_solv.prm

>  <Rbt.Receptor>
prm/blind_docking_40.prm

>  <SCORE>
-15.9369

>  <SCORE.INTER>
-16.9627

>  <SCORE.INTER.CONST>
1

>  <SCORE.INTER.POLAR>
0

>  <SCORE.INTER.ROT>
7

>  <SCORE.INTER.SOLV>
13.1882

>  <SCORE.INTER.VDW>
-23.9712

>  <SCORE.INTER.norm>
-0.628247

>  <SCORE.INTRA>
1.02574

>  <SCORE.INTRA.DIHEDRAL>
2.39105

>  <SCORE.INTRA.DIHEDRAL.0>
6.31833

>  <SCORE.INTRA.POLAR>
0

>  <SCORE.INTRA.POLAR.0>
0

>  <SCORE.INTRA.REPUL>
0

>  <SCORE.INTRA.REPUL.0>
0

>  <SCORE.INTRA.SOLV>
-0.694036

>  <SCORE.INTRA.SOLV.lig_0>
-48.4015

>  <SCORE.INTRA.VDW>
0.177233

>  <SCORE.INTRA.VDW.0>
-2.83256

>  <SCORE.INTRA.norm>
0.0379903

>  <SCORE.RESTR>
0

>  <SCORE.RESTR.CAVITY>
0

>  <SCORE.RESTR.norm>
0

>  <SCORE.SYSTEM>
0

>  <SCORE.SYSTEM.CONST>
0

>  <SCORE.SYSTEM.DIHEDRAL>
0

>  <SCORE.SYSTEM.SOLV>
0

>  <SCORE.SYSTEM.norm>
0

>  <SCORE.heavy>
27

>  <SCORE.norm>
-0.590256

>  <RMSD>
13.064

$$$$
ligand
 OpenBabel02271912153D
libRbt.so/2013.1/901 2013/11/27
 27 29  0  0  0  0  0  0  0  0999 V2000
    6.3425    4.3522   15.7325 N   0  0  0  0  0  0  0  0  0  0  0  0
    6.0047    4.9694   17.0376 C   0  0  2  0  0  0  0  0  0  0  0  0
    4.4948    4.8812   17.2179 C   0  0  0  0  0  0  0  0  0  0  0  0
    3.6289    4.7430   16.2912 O   0  0  0  0  0  0  0  0  0  0  0  0
    6.5343    6.4050   17.0547 C   0  0  0  0  0  0  0  0  0  0  0  0
    6.5278    7.0186   18.4484 C   0  0  0  0  0  0  0  0  0  0  0  0
    6.8525    8.7932   18.7681 S   0  0  2  0  0  0  0  0  0  0  0  0
    8.4925    8.9023   18.0546 C   0  0  0  0  0  0  0  0  0  0  0  0
    7.1685    8.6796   20.5579 C   0  0  0  0  0  0  0  0  0  0  0  0
    7.1077   10.0302   21.2168 C   0  0  1  0  0  0  0  0  0  0  0  0
    7.3945    9.9695   22.6349 O   0  0  0  0  0  0  0  0  0  0  0  0
    8.0463   11.0546   20.6213 C   0  0  1  0  0  0  0  0  0  0  0  0
    7.3365   11.8250   19.7523 O   0  0  0  0  0  0  0  0  0  0  0  0
    8.3296   11.9002   21.8407 C   0  0  1  0  0  0  0  0  0  0  0  0
    7.2872   12.7662   21.9353 O   0  0  0  0  0  0  0  0  0  0  0  0
    8.3059   10.9480   23.0568 C   0  0  2  0  0  0  0  0  0  0  0  0
    4.0805    5.0131   18.3709 O   0  0  0  0  0  0  0  0  0  0  0  0
   12.9815   10.2625   25.2576 N   0  0  0  0  0  0  0  0  0  0  0  0
   11.8048   10.9876   25.6451 C   0  0  0  0  0  0  0  0  0  0  0  0
   10.5746   11.0880   24.9492 N   0  0  0  0  0  0  0  0  0  0  0  0
   10.5993   10.4152   23.8674 C   0  0  0  0  0  0  0  0  0  0  0  0
   11.7581    9.6319   23.3831 C   0  0  0  0  0  0  0  0  0  0  0  0
   12.9092    9.5753   24.0655 C   0  0  0  0  0  0  0  0  0  0  0  0
   13.8664    8.8591   23.5127 N   0  0  0  0  0  0  0  0  0  0  0  0
   11.5461    9.0335   22.2354 N   0  0  0  0  0  0  0  0  0  0  0  0
   10.2448    9.4390   22.0024 C   0  0  0  0  0  0  0  0  0  0  0  0
    9.6415   10.2933   23.0128 N   0  0  0  0  0  0  0  0  0  0  0  0
  2  1  1  6  0  0  0
  2  3  1  0  0  0  0
  2  5  1  0  0  0  0
  3  4  1  0  0  0  0
  3 17  1  0  0  0  0
  5  6  1  0  0  0  0
  7  6  1  6  0  0  0
  7  8  1  0  0  0  0
  7  9  1  0  0  0  0
 10  9  1  6  0  0  0
 10 11  1  0  0  0  0
 10 12  1  0  0  0  0
 11 16  1  0  0  0  0
 12 13  1  6  0  0  0
 12 14  1  0  0  0  0
 14 15  1  1  0  0  0
 14 16  1  0  0  0  0
 16 27  1  6  0  0  0
 18 19  2  0  0  0  0
 18 23  1  0  0  0  0
 19 20  1  0  0  0  0
 20 21  2  0  0  0  0
 21 22  1  0  0  0  0
 21 27  1  0  0  0  0
 22 23  2  0  0  0  0
 22 25  1  0  0  0  0
 23 24  1  0  0  0  0
 25 26  2  0  0  0  0
 26 27  1  0  0  0  0
M  END
>  <CHROM.1>
-21.88661152,-166.74900177,-170.25999680,-58.86251620,-164.45936123,-178.31588123
-139.86485305,8.32791258,8.93006306,20.79189999,-2.31953300,-0.54254302,0.50975570

>  <Name>
ligand

>  <RI>
0

>  <Rbt.Current_Directory>
/home/itssahil/PROJECTS/Mol_Feturizer/Test_systems_manuscript/rnas/4aob

>  <Rbt.Executable>
rbdock ($Id: //depot/dev/client3/rdock/2013.1/src/exe/rbdock.cxx#4 $)

>  <Rbt.Library>
libRbt.so (2013.1, Build901 2013/11/27)

>  <Rbt.Parameter_File>
/export/apps/rDock/src/rDock_2013.1_src/data/scripts/dock_solv.prm

>  <Rbt.Receptor>
prm/blind_docking_100.prm

>  <SCORE>
-15.2555

>  <SCORE.INTER>
-14.8791

>  <SCORE.INTER.CONST>
1

>  <SCORE.INTER.POLAR>
0

>  <SCORE.INTER.ROT>
7

>  <SCORE.INTER.SOLV>
12.5399

>  <SCORE.INTER.VDW>
-22.366

>  <SCORE.INTER.norm>
-0.551078

>  <SCORE.INTRA>
-0.376372

>  <SCORE.INTRA.DIHEDRAL>
-0.574131

>  <SCORE.INTRA.DIHEDRAL.0>
6.31833

>  <SCORE.INTRA.POLAR>
0

>  <SCORE.INTRA.POLAR.0>
0

>  <SCORE.INTRA.REPUL>
0

>  <SCORE.INTRA.REPUL.0>
0

>  <SCORE.INTRA.SOLV>
-0.560065

>  <SCORE.INTRA.SOLV.lig_0>
-48.4015

>  <SCORE.INTRA.VDW>
0.190725

>  <SCORE.INTRA.VDW.0>
-2.83256

>  <SCORE.INTRA.norm>
-0.0139397

>  <SCORE.RESTR>
0

>  <SCORE.RESTR.CAVITY>
0

>  <SCORE.RESTR.norm>
0

>  <SCORE.SYSTEM>
0

>  <SCORE.SYSTEM.CONST>
0

>  <SCORE.SYSTEM.DIHEDRAL>
0

>  <SCORE.SYSTEM.SOLV>
0

>  <SCORE.SYSTEM.norm>
0

>  <SCORE.heavy>
27

>  <SCORE.norm>
-0.565018

>  <RMSD>
13.071

$$$$
ligand
 OpenBabel02271912153D
libRbt.so/2013.1/901 2013/11/27
 27 29  0  0  0  0  0  0  0  0999 V2000
    7.2162    3.6768   17.4856 N   0  0  0  0  0  0  0  0  0  0  0  0
    7.1833    5.1592   17.4883 C   0  0  2  0  0  0  0  0  0  0  0  0
    6.2863    5.6074   16.3417 C   0  0  0  0  0  0  0  0  0  0  0  0
    5.0229    5.4489   16.2629 O   0  0  0  0  0  0  0  0  0  0  0  0
    8.6167    5.6832   17.3768 C   0  0  0  0  0  0  0  0  0  0  0  0
    8.7086    7.1918   17.5642 C   0  0  0  0  0  0  0  0  0  0  0  0
   10.2917    8.1137   17.5438 S   0  0  2  0  0  0  0  0  0  0  0  0
   10.9237    7.5341   15.9705 C   0  0  0  0  0  0  0  0  0  0  0  0
   11.1920    7.1079   18.7662 C   0  0  0  0  0  0  0  0  0  0  0  0
   12.6429    7.4966   18.8409 C   0  0  1  0  0  0  0  0  0  0  0  0
   12.8275    8.8840   19.2126 O   0  0  0  0  0  0  0  0  0  0  0  0
   13.4586    6.6694   19.8080 C   0  0  1  0  0  0  0  0  0  0  0  0
   14.1058    5.7046   19.0991 O   0  0  0  0  0  0  0  0  0  0  0  0
   14.4933    7.6878   20.2262 C   0  0  1  0  0  0  0  0  0  0  0  0
   15.4420    7.6653   19.2542 O   0  0  0  0  0  0  0  0  0  0  0  0
   13.7920    9.0641   20.2144 C   0  0  2  0  0  0  0  0  0  0  0  0
    6.8579    6.1221   15.3790 O   0  0  0  0  0  0  0  0  0  0  0  0
    9.2683    9.8498   22.6830 N   0  0  0  0  0  0  0  0  0  0  0  0
    9.6541    9.8653   21.3004 C   0  0  0  0  0  0  0  0  0  0  0  0
   10.9375    9.6224   20.7512 N   0  0  0  0  0  0  0  0  0  0  0  0
   11.7872    9.3552   21.6624 C   0  0  0  0  0  0  0  0  0  0  0  0
   11.4891    9.3089   23.1114 C   0  0  0  0  0  0  0  0  0  0  0  0
   10.2638    9.5597   23.5905 C   0  0  0  0  0  0  0  0  0  0  0  0
   10.1402    9.5044   24.9007 N   0  0  0  0  0  0  0  0  0  0  0  0
   12.5317    9.0234   23.8543 N   0  0  0  0  0  0  0  0  0  0  0  0
   13.4871    8.8839   22.8644 C   0  0  0  0  0  0  0  0  0  0  0  0
   13.0361    9.0810   21.4961 N   0  0  0  0  0  0  0  0  0  0  0  0
  2  1  1  6  0  0  0
  2  3  1  0  0  0  0
  2  5  1  0  0  0  0
  3  4  1  0  0  0  0
  3 17  1  0  0  0  0
  5  6  1  0  0  0  0
  7  6  1  6  0  0  0
  7  8  1  0  0  0  0
  7  9  1  0  0  0  0
 10  9  1  1  0  0  0
 10 11  1  0  0  0  0
 10 12  1  0  0  0  0
 11 16  1  0  0  0  0
 12 13  1  6  0  0  0
 12 14  1  0  0  0  0
 14 15  1  6  0  0  0
 14 16  1  0  0  0  0
 16 27  1  1  0  0  0
 18 19  2  0  0  0  0
 18 23  1  0  0  0  0
 19 20  1  0  0  0  0
 20 21  2  0  0  0  0
 21 22  1  0  0  0  0
 21 27  1  0  0  0  0
 22 23  2  0  0  0  0
 22 25  1  0  0  0  0
 23 24  1  0  0  0  0
 25 26  2  0  0  0  0
 26 27  1  0  0  0  0
M  END
>  <CHROM.1>
68.26751731,-172.06674395,177.88433717,53.56749566,171.72188172,59.59932628
-22.46764315,10.77016977,7.70300943,19.53426859,2.27411434,-0.05314370,-2.05289902

>  <Name>
ligand

>  <RI>
0

>  <Rbt.Current_Directory>
/home/itssahil/PROJECTS/Mol_Feturizer/Test_systems_manuscript/rnas/4aob

>  <Rbt.Executable>
rbdock ($Id: //depot/dev/client3/rdock/2013.1/src/exe/rbdock.cxx#4 $)

>  <Rbt.Library>
libRbt.so (2013.1, Build901 2013/11/27)

>  <Rbt.Parameter_File>
/export/apps/rDock/src/rDock_2013.1_src/data/scripts/dock_solv.prm

>  <Rbt.Receptor>
prm/blind_docking_80.prm

>  <SCORE>
-13.6362

>  <SCORE.INTER>
-13.1344

>  <SCORE.INTER.CONST>
1

>  <SCORE.INTER.POLAR>
0

>  <SCORE.INTER.ROT>
7

>  <SCORE.INTER.SOLV>
7.37268

>  <SCORE.INTER.VDW>
-19.4805

>  <SCORE.INTER.norm>
-0.486458

>  <SCORE.INTRA>
-0.50183

>  <SCORE.INTRA.DIHEDRAL>
-3.08234

>  <SCORE.INTRA.DIHEDRAL.0>
6.31833

>  <SCORE.INTRA.POLAR>
0

>  <SCORE.INTRA.POLAR.0>
0

>  <SCORE.INTRA.REPUL>
0

>  <SCORE.INTRA.REPUL.0>
0

>  <SCORE.INTRA.SOLV>
-0.725217

>  <SCORE.INTRA.SOLV.lig_0>
-48.4015

>  <SCORE.INTRA.VDW>
1.40195

>  <SCORE.INTRA.VDW.0>
-2.83256

>  <SCORE.INTRA.norm>
-0.0185863

>  <SCORE.RESTR>
0

>  <SCORE.RESTR.CAVITY>
0

>  <SCORE.RESTR.norm>
0

>  <SCORE.SYSTEM>
0

>  <SCORE.SYSTEM.CONST>
0

>  <SCORE.SYSTEM.DIHEDRAL>
0

>  <SCORE.SYSTEM.SOLV>
0

>  <SCORE.SYSTEM.norm>
0

>  <SCORE.heavy>
27

>  <SCORE.norm>
-0.505044

>  <RMSD>
13.174

$$$$
ligand
 OpenBabel02271912153D
libRbt.so/2013.1/901 2013/11/27
 27 29  0  0  0  0  0  0  0  0999 V2000
   12.8650    7.8034   21.2606 N   0  0  0  0  0  0  0  0  0  0  0  0
   11.5125    8.1119   21.7839 C   0  0  2  0  0  0  0  0  0  0  0  0
   10.6660    8.6130   20.6209 C   0  0  0  0  0  0  0  0  0  0  0  0
   10.1187    9.7612   20.5229 O   0  0  0  0  0  0  0  0  0  0  0  0
   11.6445    9.1289   22.9197 C   0  0  0  0  0  0  0  0  0  0  0  0
   10.2982    9.5457   23.4966 C   0  0  0  0  0  0  0  0  0  0  0  0
   10.1088   10.8525   24.7666 S   0  0  2  0  0  0  0  0  0  0  0  0
   10.0731    9.8116   26.2247 C   0  0  0  0  0  0  0  0  0  0  0  0
    8.3545   11.2443   24.4744 C   0  0  0  0  0  0  0  0  0  0  0  0
    8.1874   12.2225   23.3443 C   0  0  1  0  0  0  0  0  0  0  0  0
    8.7787   11.7505   22.1096 O   0  0  0  0  0  0  0  0  0  0  0  0
    6.7504   12.5769   23.0370 C   0  0  1  0  0  0  0  0  0  0  0  0
    6.4652   13.7584   23.6496 O   0  0  0  0  0  0  0  0  0  0  0  0
    6.8531   12.8542   21.5555 C   0  0  1  0  0  0  0  0  0  0  0  0
    7.2938   14.1351   21.4529 O   0  0  0  0  0  0  0  0  0  0  0  0
    7.9356   11.9027   20.9995 C   0  0  2  0  0  0  0  0  0  0  0  0
   10.4518    7.8000   19.7200 O   0  0  0  0  0  0  0  0  0  0  0  0
    6.6707    7.8362   17.9931 N   0  0  0  0  0  0  0  0  0  0  0  0
    7.5080    8.9857   17.7977 C   0  0  0  0  0  0  0  0  0  0  0  0
    7.7795   10.0318   18.7141 N   0  0  0  0  0  0  0  0  0  0  0  0
    7.1775    9.8440   19.8214 C   0  0  0  0  0  0  0  0  0  0  0  0
    6.2989    8.6918   20.1233 C   0  0  0  0  0  0  0  0  0  0  0  0
    6.0568    7.7309   19.2222 C   0  0  0  0  0  0  0  0  0  0  0  0
    5.2412    6.7735   19.6132 N   0  0  0  0  0  0  0  0  0  0  0  0
    5.7826    8.7254   21.3286 N   0  0  0  0  0  0  0  0  0  0  0  0
    6.3459    9.9022   21.7866 C   0  0  0  0  0  0  0  0  0  0  0  0
    7.2210   10.6047   20.8617 N   0  0  0  0  0  0  0  0  0  0  0  0
  2  1  1  6  0  0  0
  2  3  1  0  0  0  0
  2  5  1  0  0  0  0
  3  4  1  0  0  0  0
  3 17  1  0  0  0  0
  5  6  1  0  0  0  0
  7  6  1  6  0  0  0
  7  8  1  0  0  0  0
  7  9  1  0  0  0  0
 10  9  1  1  0  0  0
 10 11  1  0  0  0  0
 10 12  1  0  0  0  0
 11 16  1  0  0  0  0
 12 13  1  1  0  0  0
 12 14  1  0  0  0  0
 14 15  1  1  0  0  0
 14 16  1  0  0  0  0
 16 27  1  1  0  0  0
 18 19  2  0  0  0  0
 18 23  1  0  0  0  0
 19 20  1  0  0  0  0
 20 21  2  0  0  0  0
 21 22  1  0  0  0  0
 21 27  1  0  0  0  0
 22 23  2  0  0  0  0
 22 25  1  0  0  0  0
 23 24  1  0  0  0  0
 25 26  2  0  0  0  0
 26 27  1  0  0  0  0
M  END
>  <CHROM.1>
-118.86383215,178.16147719,-174.58669294,-95.80547375,-83.91511533,57.02325575
-124.37824667,8.43902965,10.12400634,21.65806025,-1.15369997,0.52488799,-2.33791628

>  <Name>
ligand

>  <RI>
0

>  <Rbt.Current_Directory>
/home/itssahil/PROJECTS/Mol_Feturizer/Test_systems_manuscript/rnas/4aob

>  <Rbt.Executable>
rbdock ($Id: //depot/dev/client3/rdock/2013.1/src/exe/rbdock.cxx#4 $)

>  <Rbt.Library>
libRbt.so (2013.1, Build901 2013/11/27)

>  <Rbt.Parameter_File>
/export/apps/rDock/src/rDock_2013.1_src/data/scripts/dock_solv.prm

>  <Rbt.Receptor>
prm/blind_docking_100.prm

>  <SCORE>
-20.3111

>  <SCORE.INTER>
-18.4783

>  <SCORE.INTER.CONST>
1

>  <SCORE.INTER.POLAR>
0

>  <SCORE.INTER.ROT>
7

>  <SCORE.INTER.SOLV>
9.69242

>  <SCORE.INTER.VDW>
-23.8163

>  <SCORE.INTER.norm>
-0.68438

>  <SCORE.INTRA>
-1.83285

>  <SCORE.INTRA.DIHEDRAL>
-0.420439

>  <SCORE.INTRA.DIHEDRAL.0>
6.31833

>  <SCORE.INTRA.POLAR>
0

>  <SCORE.INTRA.POLAR.0>
0

>  <SCORE.INTRA.REPUL>
0

>  <SCORE.INTRA.REPUL.0>
0

>  <SCORE.INTRA.SOLV>
-0.641644

>  <SCORE.INTRA.SOLV.lig_0>
-48.4015

>  <SCORE.INTRA.VDW>
-1.30181

>  <SCORE.INTRA.VDW.0>
-2.83256

>  <SCORE.INTRA.norm>
-0.0678833

>  <SCORE.RESTR>
0

>  <SCORE.RESTR.CAVITY>
0

>  <SCORE.RESTR.norm>
0

>  <SCORE.SYSTEM>
0

>  <SCORE.SYSTEM.CONST>
0

>  <SCORE.SYSTEM.DIHEDRAL>
0

>  <SCORE.SYSTEM.SOLV>
0

>  <SCORE.SYSTEM.norm>
0

>  <SCORE.heavy>
27

>  <SCORE.norm>
-0.752264

>  <RMSD>
13.187

$$$$
ligand
 OpenBabel02271912153D
libRbt.so/2013.1/901 2013/11/27
 27 29  0  0  0  0  0  0  0  0999 V2000
   15.2250    5.7425   19.4134 N   0  0  0  0  0  0  0  0  0  0  0  0
   14.3472    6.9332   19.5146 C   0  0  2  0  0  0  0  0  0  0  0  0
   15.1996    8.1652   19.2391 C   0  0  0  0  0  0  0  0  0  0  0  0
   16.4435    8.2963   19.4903 O   0  0  0  0  0  0  0  0  0  0  0  0
   13.6930    6.9459   20.8979 C   0  0  0  0  0  0  0  0  0  0  0  0
   12.5962    7.9952   21.0210 C   0  0  0  0  0  0  0  0  0  0  0  0
   11.8716    8.5102   22.6230 S   0  0  2  0  0  0  0  0  0  0  0  0
   11.4144    6.8939   23.2468 C   0  0  0  0  0  0  0  0  0  0  0  0
   10.3035    9.1872   21.9915 C   0  0  0  0  0  0  0  0  0  0  0  0
    9.2679    9.2885   23.0775 C   0  0  1  0  0  0  0  0  0  0  0  0
    9.3307   10.5483   23.7886 O   0  0  0  0  0  0  0  0  0  0  0  0
    7.8445    9.1254   22.5956 C   0  0  1  0  0  0  0  0  0  0  0  0
    7.4646    7.8386   22.8241 O   0  0  0  0  0  0  0  0  0  0  0  0
    7.1202    9.9910   23.5999 C   0  0  1  0  0  0  0  0  0  0  0  0
    6.9424    9.2086   24.6961 O   0  0  0  0  0  0  0  0  0  0  0  0
    8.0758   11.1507   23.9578 C   0  0  2  0  0  0  0  0  0  0  0  0
   14.6043    9.1414   18.7798 O   0  0  0  0  0  0  0  0  0  0  0  0
    6.1574   15.6382   22.1257 N   0  0  0  0  0  0  0  0  0  0  0  0
    6.1567   15.0201   23.4213 C   0  0  0  0  0  0  0  0  0  0  0  0
    6.7311   13.7799   23.7953 N   0  0  0  0  0  0  0  0  0  0  0  0
    7.3059   13.2196   22.8057 C   0  0  0  0  0  0  0  0  0  0  0  0
    7.3670   13.7758   21.4355 C   0  0  0  0  0  0  0  0  0  0  0  0
    6.7973   14.9463   21.1205 C   0  0  0  0  0  0  0  0  0  0  0  0
    6.9089   15.3155   19.8611 N   0  0  0  0  0  0  0  0  0  0  0  0
    8.0045   13.0084   20.5840 N   0  0  0  0  0  0  0  0  0  0  0  0
    8.3502   11.9684   21.4271 C   0  0  0  0  0  0  0  0  0  0  0  0
    7.9277   12.0901   22.8133 N   0  0  0  0  0  0  0  0  0  0  0  0
  2  1  1  1  0  0  0
  2  3  1  0  0  0  0
  2  5  1  0  0  0  0
  3  4  1  0  0  0  0
  3 17  1  0  0  0  0
  5  6  1  0  0  0  0
  7  6  1  6  0  0  0
  7  8  1  0  0  0  0
  7  9  1  0  0  0  0
 10  9  1  6  0  0  0
 10 11  1  0  0  0  0
 10 12  1  0  0  0  0
 11 16  1  0  0  0  0
 12 13  1  1  0  0  0
 12 14  1  0  0  0  0
 14 15  1  1  0  0  0
 14 16  1  0  0  0  0
 16 27  1  6  0  0  0
 18 19  2  0  0  0  0
 18 23  1  0  0  0  0
 19 20  1  0  0  0  0
 20 21  2  0  0  0  0
 21 22  1  0  0  0  0
 21 27  1  0  0  0  0
 22 23  2  0  0  0  0
 22 25  1  0  0  0  0
 23 24  1  0  0  0  0
 25 26  2  0  0  0  0
 26 27  1  0  0  0  0
M  END
>  <CHROM.1>
-30.17847995,-170.34464261,-166.52492445,-53.36091310,161.00951945,88.32630336
-147.29285694,9.93364558,10.31117536,21.89766947,-0.43015272,0.58618301,-0.52523051

>  <Name>
ligand

>  <RI>
0

>  <Rbt.Current_Directory>
/home/itssahil/PROJECTS/Mol_Feturizer/Test_systems_manuscript/rnas/4aob

>  <Rbt.Executable>
rbdock ($Id: //depot/dev/client3/rdock/2013.1/src/exe/rbdock.cxx#4 $)

>  <Rbt.Library>
libRbt.so (2013.1, Build901 2013/11/27)

>  <Rbt.Parameter_File>
/export/apps/rDock/src/rDock_2013.1_src/data/scripts/dock_solv.prm

>  <Rbt.Receptor>
prm/blind_docking_60.prm

>  <SCORE>
-15.4132

>  <SCORE.INTER>
-15.7902

>  <SCORE.INTER.CONST>
1

>  <SCORE.INTER.POLAR>
0

>  <SCORE.INTER.ROT>
7

>  <SCORE.INTER.SOLV>
15.2556

>  <SCORE.INTER.VDW>
-23.8787

>  <SCORE.INTER.norm>
-0.584824

>  <SCORE.INTRA>
0.37701

>  <SCORE.INTRA.DIHEDRAL>
0.812652

>  <SCORE.INTRA.DIHEDRAL.0>
6.31833

>  <SCORE.INTRA.POLAR>
0

>  <SCORE.INTRA.POLAR.0>
0

>  <SCORE.INTRA.REPUL>
0

>  <SCORE.INTRA.REPUL.0>
0

>  <SCORE.INTRA.SOLV>
-0.800938

>  <SCORE.INTRA.SOLV.lig_0>
-48.4015

>  <SCORE.INTRA.VDW>
0.371153

>  <SCORE.INTRA.VDW.0>
-2.83256

>  <SCORE.INTRA.norm>
0.0139633

>  <SCORE.RESTR>
0

>  <SCORE.RESTR.CAVITY>
0

>  <SCORE.RESTR.norm>
0

>  <SCORE.SYSTEM>
0

>  <SCORE.SYSTEM.CONST>
0

>  <SCORE.SYSTEM.DIHEDRAL>
0

>  <SCORE.SYSTEM.SOLV>
0

>  <SCORE.SYSTEM.norm>
0

>  <SCORE.heavy>
27

>  <SCORE.norm>
-0.57086

>  <RMSD>
13.208

$$$$
ligand
 OpenBabel02271912153D
libRbt.so/2013.1/901 2013/11/27
 27 29  0  0  0  0  0  0  0  0999 V2000
    7.7740   15.8759   18.9901 N   0  0  0  0  0  0  0  0  0  0  0  0
    6.8786   14.7664   18.5830 C   0  0  2  0  0  0  0  0  0  0  0  0
    5.7937   15.3485   17.6860 C   0  0  0  0  0  0  0  0  0  0  0  0
    4.6211   15.6985   18.0465 O   0  0  0  0  0  0  0  0  0  0  0  0
    6.3273   14.0921   19.8412 C   0  0  0  0  0  0  0  0  0  0  0  0
    7.3807   13.2819   20.5848 C   0  0  0  0  0  0  0  0  0  0  0  0
    7.0080   12.2577   22.0575 S   0  0  2  0  0  0  0  0  0  0  0  0
    7.1636   13.5238   23.3158 C   0  0  0  0  0  0  0  0  0  0  0  0
    8.5888   11.3587   22.1537 C   0  0  0  0  0  0  0  0  0  0  0  0
    8.6685   10.5118   23.3939 C   0  0  1  0  0  0  0  0  0  0  0  0
    7.4432    9.7830   23.6482 O   0  0  0  0  0  0  0  0  0  0  0  0
    9.7895    9.4978   23.3827 C   0  0  1  0  0  0  0  0  0  0  0  0
   10.8364   10.0159   24.0813 O   0  0  0  0  0  0  0  0  0  0  0  0
    9.1770    8.4108   24.2345 C   0  0  1  0  0  0  0  0  0  0  0  0
    9.3980    8.7864   25.5212 O   0  0  0  0  0  0  0  0  0  0  0  0
    7.6576    8.4321   23.9570 C   0  0  2  0  0  0  0  0  0  0  0  0
    6.0713   15.4320   16.4883 O   0  0  0  0  0  0  0  0  0  0  0  0
    7.2160    3.8758   21.4630 N   0  0  0  0  0  0  0  0  0  0  0  0
    7.2593    4.2416   22.8505 C   0  0  0  0  0  0  0  0  0  0  0  0
    7.3749    5.5401   23.4060 N   0  0  0  0  0  0  0  0  0  0  0  0
    7.4295    6.4293   22.4950 C   0  0  0  0  0  0  0  0  0  0  0  0
    7.3871    6.1563   21.0409 C   0  0  0  0  0  0  0  0  0  0  0  0
    7.2919    4.9111   20.5569 C   0  0  0  0  0  0  0  0  0  0  0  0
    7.2842    4.8075   19.2439 N   0  0  0  0  0  0  0  0  0  0  0  0
    7.4712    7.2355   20.3002 N   0  0  0  0  0  0  0  0  0  0  0  0
    7.5604    8.1906   21.2960 C   0  0  0  0  0  0  0  0  0  0  0  0
    7.5290    7.7035   22.6659 N   0  0  0  0  0  0  0  0  0  0  0  0
  2  1  1  1  0  0  0
  2  3  1  0  0  0  0
  2  5  1  0  0  0  0
  3  4  1  0  0  0  0
  3 17  1  0  0  0  0
  5  6  1  0  0  0  0
  7  6  1  6  0  0  0
  7  8  1  0  0  0  0
  7  9  1  0  0  0  0
 10  9  1  6  0  0  0
 10 11  1  0  0  0  0
 10 12  1  0  0  0  0
 11 16  1  0  0  0  0
 12 13  1  1  0  0  0
 12 14  1  0  0  0  0
 14 15  1  1  0  0  0
 14 16  1  0  0  0  0
 16 27  1  6  0  0  0
 18 19  2  0  0  0  0
 18 23  1  0  0  0  0
 19 20  1  0  0  0  0
 20 21  2  0  0  0  0
 21 22  1  0  0  0  0
 21 27  1  0  0  0  0
 22 23  2  0  0  0  0
 22 25  1  0  0  0  0
 23 24  1  0  0  0  0
 25 26  2  0  0  0  0
 26 27  1  0  0  0  0
M  END
>  <CHROM.1>
-96.80187075,-71.42894999,-175.35385282,-86.09196262,173.54526195,44.01963042
-167.64694250,7.54809764,10.09729205,21.56045819,-1.93942531,1.12498960,3.08941456

>  <Name>
ligand

>  <RI>
0

>  <Rbt.Current_Directory>
/home/itssahil/PROJECTS/Mol_Feturizer/Test_systems_manuscript/rnas/4aob

>  <Rbt.Executable>
rbdock ($Id: //depot/dev/client3/rdock/2013.1/src/exe/rbdock.cxx#4 $)

>  <Rbt.Library>
libRbt.so (2013.1, Build901 2013/11/27)

>  <Rbt.Parameter_File>
/export/apps/rDock/src/rDock_2013.1_src/data/scripts/dock_solv.prm

>  <Rbt.Receptor>
prm/blind_docking_40.prm

>  <SCORE>
-14.5721

>  <SCORE.INTER>
-14.1881

>  <SCORE.INTER.CONST>
1

>  <SCORE.INTER.POLAR>
0

>  <SCORE.INTER.ROT>
7

>  <SCORE.INTER.SOLV>
13.0326

>  <SCORE.INTER.VDW>
-22.0696

>  <SCORE.INTER.norm>
-0.525485

>  <SCORE.INTRA>
-0.384023

>  <SCORE.INTRA.DIHEDRAL>
-0.679299

>  <SCORE.INTRA.DIHEDRAL.0>
6.31833

>  <SCORE.INTRA.POLAR>
0

>  <SCORE.INTRA.POLAR.0>
0

>  <SCORE.INTRA.REPUL>
0

>  <SCORE.INTRA.REPUL.0>
0

>  <SCORE.INTRA.SOLV>
-0.17697

>  <SCORE.INTRA.SOLV.lig_0>
-48.4015

>  <SCORE.INTRA.VDW>
0.044111

>  <SCORE.INTRA.VDW.0>
-2.83256

>  <SCORE.INTRA.norm>
-0.0142231

>  <SCORE.RESTR>
0

>  <SCORE.RESTR.CAVITY>
0

>  <SCORE.RESTR.norm>
0

>  <SCORE.SYSTEM>
0

>  <SCORE.SYSTEM.CONST>
0

>  <SCORE.SYSTEM.DIHEDRAL>
0

>  <SCORE.SYSTEM.SOLV>
0

>  <SCORE.SYSTEM.norm>
0

>  <SCORE.heavy>
27

>  <SCORE.norm>
-0.539708

>  <RMSD>
13.217

$$$$
ligand
 OpenBabel02271912153D
libRbt.so/2013.1/901 2013/11/27
 27 29  0  0  0  0  0  0  0  0999 V2000
    7.8227    3.0181   16.6085 N   0  0  0  0  0  0  0  0  0  0  0  0
    6.9769    4.0237   17.2952 C   0  0  2  0  0  0  0  0  0  0  0  0
    5.9955    4.5831   16.2733 C   0  0  0  0  0  0  0  0  0  0  0  0
    4.9479    5.2661   16.5254 O   0  0  0  0  0  0  0  0  0  0  0  0
    7.8838    5.0909   17.9118 C   0  0  0  0  0  0  0  0  0  0  0  0
    8.7264    5.8195   16.8732 C   0  0  0  0  0  0  0  0  0  0  0  0
    9.9316    7.1327   17.2968 S   0  0  2  0  0  0  0  0  0  0  0  0
   10.6326    7.3939   15.6686 C   0  0  0  0  0  0  0  0  0  0  0  0
   11.1666    6.0893   18.1347 C   0  0  0  0  0  0  0  0  0  0  0  0
   12.4179    6.8608   18.4526 C   0  0  1  0  0  0  0  0  0  0  0  0
   12.1379    8.1640   19.0185 O   0  0  0  0  0  0  0  0  0  0  0  0
   13.3551    6.1581   19.4080 C   0  0  1  0  0  0  0  0  0  0  0  0
   14.3263    5.5469   18.6761 O   0  0  0  0  0  0  0  0  0  0  0  0
   13.9892    7.3494   20.0871 C   0  0  1  0  0  0  0  0  0  0  0  0
   14.9839    7.7570   19.2566 O   0  0  0  0  0  0  0  0  0  0  0  0
   12.9070    8.4496   20.1555 C   0  0  2  0  0  0  0  0  0  0  0  0
    6.2180    4.2928   15.0966 O   0  0  0  0  0  0  0  0  0  0  0  0
    8.9282    9.5289   23.3460 N   0  0  0  0  0  0  0  0  0  0  0  0
    9.4690   10.1806   22.1869 C   0  0  0  0  0  0  0  0  0  0  0  0
   10.5676    9.7721   21.3906 N   0  0  0  0  0  0  0  0  0  0  0  0
   11.0684    8.6814   21.8188 C   0  0  0  0  0  0  0  0  0  0  0  0
   10.5818    7.9311   22.9981 C   0  0  0  0  0  0  0  0  0  0  0  0
    9.5477    8.3606   23.7330 C   0  0  0  0  0  0  0  0  0  0  0  0
    9.2303    7.6087   24.7669 N   0  0  0  0  0  0  0  0  0  0  0  0
   11.2679    6.8417   23.2485 N   0  0  0  0  0  0  0  0  0  0  0  0
   12.1858    6.9066   22.2164 C   0  0  0  0  0  0  0  0  0  0  0  0
   12.0688    8.0422   21.3156 N   0  0  0  0  0  0  0  0  0  0  0  0
  2  1  1  6  0  0  0
  2  3  1  0  0  0  0
  2  5  1  0  0  0  0
  3  4  1  0  0  0  0
  3 17  1  0  0  0  0
  5  6  1  0  0  0  0
  7  6  1  6  0  0  0
  7  8  1  0  0  0  0
  7  9  1  0  0  0  0
 10  9  1  1  0  0  0
 10 11  1  0  0  0  0
 10 12  1  0  0  0  0
 11 16  1  0  0  0  0
 12 13  1  6  0  0  0
 12 14  1  0  0  0  0
 14 15  1  6  0  0  0
 14 16  1  0  0  0  0
 16 27  1  1  0  0  0
 18 19  2  0  0  0  0
 18 23  1  0  0  0  0
 19 20  1  0  0  0  0
 20 21  2  0  0  0  0
 21 22  1  0  0  0  0
 21 27  1  0  0  0  0
 22 23  2  0  0  0  0
 22 25  1  0  0  0  0
 23 24  1  0  0  0  0
 25 26  2  0  0  0  0
 26 27  1  0  0  0  0
M  END
>  <CHROM.1>
165.36688617,60.39691579,-178.97263531,174.71608433,172.04632713,44.95411012
-77.17822888,10.32814687,6.89126175,19.40192202,-2.18560949,0.14902475,1.13972802

>  <Name>
ligand

>  <RI>
0

>  <Rbt.Current_Directory>
/home/itssahil/PROJECTS/Mol_Feturizer/Test_systems_manuscript/rnas/4aob

>  <Rbt.Executable>
rbdock ($Id: //depot/dev/client3/rdock/2013.1/src/exe/rbdock.cxx#4 $)

>  <Rbt.Library>
libRbt.so (2013.1, Build901 2013/11/27)

>  <Rbt.Parameter_File>
/export/apps/rDock/src/rDock_2013.1_src/data/scripts/dock_solv.prm

>  <Rbt.Receptor>
prm/blind_docking_100.prm

>  <SCORE>
-11.3038

>  <SCORE.INTER>
-11.3015

>  <SCORE.INTER.CONST>
1

>  <SCORE.INTER.POLAR>
0

>  <SCORE.INTER.ROT>
7

>  <SCORE.INTER.SOLV>
10.3852

>  <SCORE.INTER.VDW>
-19.2628

>  <SCORE.INTER.norm>
-0.418575

>  <SCORE.INTRA>
-0.00225319

>  <SCORE.INTRA.DIHEDRAL>
-2.24076

>  <SCORE.INTRA.DIHEDRAL.0>
6.31833

>  <SCORE.INTRA.POLAR>
0

>  <SCORE.INTRA.POLAR.0>
0

>  <SCORE.INTRA.REPUL>
0

>  <SCORE.INTRA.REPUL.0>
0

>  <SCORE.INTRA.SOLV>
0.00311157

>  <SCORE.INTRA.SOLV.lig_0>
-48.4015

>  <SCORE.INTRA.VDW>
1.11657

>  <SCORE.INTRA.VDW.0>
-2.83256

>  <SCORE.INTRA.norm>
-8.34514e-05

>  <SCORE.RESTR>
0

>  <SCORE.RESTR.CAVITY>
0

>  <SCORE.RESTR.norm>
0

>  <SCORE.SYSTEM>
0

>  <SCORE.SYSTEM.CONST>
0

>  <SCORE.SYSTEM.DIHEDRAL>
0

>  <SCORE.SYSTEM.SOLV>
0

>  <SCORE.SYSTEM.norm>
0

>  <SCORE.heavy>
27

>  <SCORE.norm>
-0.418658

>  <RMSD>
13.262

$$$$
ligand
 OpenBabel02271912153D
libRbt.so/2013.1/901 2013/11/27
 27 29  0  0  0  0  0  0  0  0999 V2000
    7.9399    3.6930   16.3546 N   0  0  0  0  0  0  0  0  0  0  0  0
    7.0432    4.8243   16.6931 C   0  0  2  0  0  0  0  0  0  0  0  0
    5.8771    4.8038   15.7133 C   0  0  0  0  0  0  0  0  0  0  0  0
    5.9571    4.7052   14.4439 O   0  0  0  0  0  0  0  0  0  0  0  0
    7.8509    6.1232   16.6467 C   0  0  0  0  0  0  0  0  0  0  0  0
    9.0163    6.1275   17.6270 C   0  0  0  0  0  0  0  0  0  0  0  0
   10.3437    7.3901   17.6065 S   0  0  2  0  0  0  0  0  0  0  0  0
   11.1348    6.9281   16.0666 C   0  0  0  0  0  0  0  0  0  0  0  0
   11.4185    6.6554   18.8798 C   0  0  0  0  0  0  0  0  0  0  0  0
   12.7841    7.2856   18.8813 C   0  0  1  0  0  0  0  0  0  0  0  0
   12.7385    8.7086   19.1460 O   0  0  0  0  0  0  0  0  0  0  0  0
   13.7454    6.6826   19.8800 C   0  0  1  0  0  0  0  0  0  0  0  0
   14.5332    5.7882   19.2229 O   0  0  0  0  0  0  0  0  0  0  0  0
   14.6007    7.8884   20.1913 C   0  0  1  0  0  0  0  0  0  0  0  0
   15.5216    7.9506   19.1945 O   0  0  0  0  0  0  0  0  0  0  0  0
   13.6769    9.1232   20.1019 C   0  0  2  0  0  0  0  0  0  0  0  0
    4.7570    4.9534   16.2046 O   0  0  0  0  0  0  0  0  0  0  0  0
    9.2080    9.8220   22.6932 N   0  0  0  0  0  0  0  0  0  0  0  0
    9.5594    9.8641   21.3020 C   0  0  0  0  0  0  0  0  0  0  0  0
   10.8312    9.6433   20.7175 N   0  0  0  0  0  0  0  0  0  0  0  0
   11.7057    9.3701   21.6032 C   0  0  0  0  0  0  0  0  0  0  0  0
   11.4439    9.2970   23.0581 C   0  0  0  0  0  0  0  0  0  0  0  0
   10.2283    9.5274   23.5711 C   0  0  0  0  0  0  0  0  0  0  0  0
   10.1376    9.4495   24.8828 N   0  0  0  0  0  0  0  0  0  0  0  0
   12.5072    9.0102   23.7703 N   0  0  0  0  0  0  0  0  0  0  0  0
   13.4393    8.8967   22.7552 C   0  0  0  0  0  0  0  0  0  0  0  0
   12.9527    9.1114   21.4018 N   0  0  0  0  0  0  0  0  0  0  0  0
  2  1  1  6  0  0  0
  2  3  1  0  0  0  0
  2  5  1  0  0  0  0
  3  4  1  0  0  0  0
  3 17  1  0  0  0  0
  5  6  1  0  0  0  0
  7  6  1  6  0  0  0
  7  8  1  0  0  0  0
  7  9  1  0  0  0  0
 10  9  1  1  0  0  0
 10 11  1  0  0  0  0
 10 12  1  0  0  0  0
 11 16  1  0  0  0  0
 12 13  1  6  0  0  0
 12 14  1  0  0  0  0
 14 15  1  6  0  0  0
 14 16  1  0  0  0  0
 16 27  1  1  0  0  0
 18 19  2  0  0  0  0
 18 23  1  0  0  0  0
 19 20  1  0  0  0  0
 20 21  2  0  0  0  0
 21 22  1  0  0  0  0
 21 27  1  0  0  0  0
 22 23  2  0  0  0  0
 22 25  1  0  0  0  0
 23 24  1  0  0  0  0
 25 26  2  0  0  0  0
 26 27  1  0  0  0  0
M  END
>  <CHROM.1>
-48.75119476,-59.88660323,168.54318185,-68.74444128,166.32280572,60.10862257
-32.96216512,10.74697253,7.47571232,19.37955269,-2.24448572,0.04954788,1.04123874

>  <Name>
ligand

>  <RI>
0

>  <Rbt.Current_Directory>
/home/itssahil/PROJECTS/Mol_Feturizer/Test_systems_manuscript/rnas/4aob

>  <Rbt.Executable>
rbdock ($Id: //depot/dev/client3/rdock/2013.1/src/exe/rbdock.cxx#4 $)

>  <Rbt.Library>
libRbt.so (2013.1, Build901 2013/11/27)

>  <Rbt.Parameter_File>
/export/apps/rDock/src/rDock_2013.1_src/data/scripts/dock_solv.prm

>  <Rbt.Receptor>
prm/blind_docking_40.prm

>  <SCORE>
-14.195

>  <SCORE.INTER>
-12.9856

>  <SCORE.INTER.CONST>
1

>  <SCORE.INTER.POLAR>
0

>  <SCORE.INTER.ROT>
7

>  <SCORE.INTER.SOLV>
8.97961

>  <SCORE.INTER.VDW>
-19.917

>  <SCORE.INTER.norm>
-0.48095

>  <SCORE.INTRA>
-1.20936

>  <SCORE.INTRA.DIHEDRAL>
-2.8467

>  <SCORE.INTRA.DIHEDRAL.0>
6.31833

>  <SCORE.INTRA.POLAR>
0

>  <SCORE.INTRA.POLAR.0>
0

>  <SCORE.INTRA.REPUL>
0

>  <SCORE.INTRA.REPUL.0>
0

>  <SCORE.INTRA.SOLV>
0.131957

>  <SCORE.INTRA.SOLV.lig_0>
-48.4015

>  <SCORE.INTRA.VDW>
0.148013

>  <SCORE.INTRA.VDW.0>
-2.83256

>  <SCORE.INTRA.norm>
-0.0447911

>  <SCORE.RESTR>
0

>  <SCORE.RESTR.CAVITY>
0

>  <SCORE.RESTR.norm>
0

>  <SCORE.SYSTEM>
0

>  <SCORE.SYSTEM.CONST>
0

>  <SCORE.SYSTEM.DIHEDRAL>
0

>  <SCORE.SYSTEM.SOLV>
0

>  <SCORE.SYSTEM.norm>
0

>  <SCORE.heavy>
27

>  <SCORE.norm>
-0.525741

>  <RMSD>
13.353

$$$$
ligand
 OpenBabel02271912153D
libRbt.so/2013.1/901 2013/11/27
 27 29  0  0  0  0  0  0  0  0999 V2000
    9.5430   -0.6699   16.0952 N   0  0  0  0  0  0  0  0  0  0  0  0
    8.9725   -0.7727   17.4599 C   0  0  2  0  0  0  0  0  0  0  0  0
   10.1318   -0.8322   18.4462 C   0  0  0  0  0  0  0  0  0  0  0  0
   11.0132   -1.7512   18.5232 O   0  0  0  0  0  0  0  0  0  0  0  0
    8.0612   -2.0005   17.5210 C   0  0  0  0  0  0  0  0  0  0  0  0
    7.4830   -2.2362   18.9100 C   0  0  0  0  0  0  0  0  0  0  0  0
    8.4371   -2.9843   20.2835 S   0  0  2  0  0  0  0  0  0  0  0  0
    8.3723   -4.6964   19.7588 C   0  0  0  0  0  0  0  0  0  0  0  0
    7.1564   -2.8808   21.5740 C   0  0  0  0  0  0  0  0  0  0  0  0
    6.9798   -1.4705   22.0656 C   0  0  1  0  0  0  0  0  0  0  0  0
    5.8940   -1.3456   23.0155 O   0  0  0  0  0  0  0  0  0  0  0  0
    8.2084   -0.8829   22.7216 C   0  0  1  0  0  0  0  0  0  0  0  0
    8.8558   -0.1182   21.8004 O   0  0  0  0  0  0  0  0  0  0  0  0
    7.5609    0.0589   23.7096 C   0  0  1  0  0  0  0  0  0  0  0  0
    7.2763    1.1865   23.0074 O   0  0  0  0  0  0  0  0  0  0  0  0
    6.2389   -0.6047   24.1549 C   0  0  2  0  0  0  0  0  0  0  0  0
   10.1776    0.0738   19.2802 O   0  0  0  0  0  0  0  0  0  0  0  0
    6.2672   -5.5680   25.7486 N   0  0  0  0  0  0  0  0  0  0  0  0
    5.7495   -4.9082   24.5836 C   0  0  0  0  0  0  0  0  0  0  0  0
    5.8166   -3.5301   24.2606 N   0  0  0  0  0  0  0  0  0  0  0  0
    6.4369   -2.8743   25.1600 C   0  0  0  0  0  0  0  0  0  0  0  0
    7.0112   -3.4606   26.3917 C   0  0  0  0  0  0  0  0  0  0  0  0
    6.9127   -4.7679   26.6660 C   0  0  0  0  0  0  0  0  0  0  0  0
    7.4499   -5.1547   27.8048 N   0  0  0  0  0  0  0  0  0  0  0  0
    7.5926   -2.5809   27.1717 N   0  0  0  0  0  0  0  0  0  0  0  0
    7.3868   -1.4378   26.4213 C   0  0  0  0  0  0  0  0  0  0  0  0
    6.6751   -1.6071   25.1645 N   0  0  0  0  0  0  0  0  0  0  0  0
  2  1  1  6  0  0  0
  2  3  1  0  0  0  0
  2  5  1  0  0  0  0
  3  4  1  0  0  0  0
  3 17  1  0  0  0  0
  5  6  1  0  0  0  0
  7  6  1  6  0  0  0
  7  8  1  0  0  0  0
  7  9  1  0  0  0  0
 10  9  1  1  0  0  0
 10 11  1  0  0  0  0
 10 12  1  0  0  0  0
 11 16  1  0  0  0  0
 12 13  1  6  0  0  0
 12 14  1  0  0  0  0
 14 15  1  6  0  0  0
 14 16  1  0  0  0  0
 16 27  1  1  0  0  0
 18 19  2  0  0  0  0
 18 23  1  0  0  0  0
 19 20  1  0  0  0  0
 20 21  2  0  0  0  0
 21 22  1  0  0  0  0
 21 27  1  0  0  0  0
 22 23  2  0  0  0  0
 22 25  1  0  0  0  0
 23 24  1  0  0  0  0
 25 26  2  0  0  0  0
 26 27  1  0  0  0  0
M  END
>  <CHROM.1>
-63.52717172,176.91525005,-77.63754433,-76.78907636,-74.16954380,175.40913220
-17.94416276,7.76584119,-2.13243632,22.30313579,0.09881594,-1.26590991,-2.77112953

>  <Name>
ligand

>  <RI>
0

>  <Rbt.Current_Directory>
/home/itssahil/PROJECTS/Mol_Feturizer/Test_systems_manuscript/rnas/4aob

>  <Rbt.Executable>
rbdock ($Id: //depot/dev/client3/rdock/2013.1/src/exe/rbdock.cxx#4 $)

>  <Rbt.Library>
libRbt.so (2013.1, Build901 2013/11/27)

>  <Rbt.Parameter_File>
/export/apps/rDock/src/rDock_2013.1_src/data/scripts/dock_solv.prm

>  <Rbt.Receptor>
prm/blind_docking_60.prm

>  <SCORE>
-12.2911

>  <SCORE.INTER>
-10.5128

>  <SCORE.INTER.CONST>
1

>  <SCORE.INTER.POLAR>
0

>  <SCORE.INTER.ROT>
7

>  <SCORE.INTER.SOLV>
6.92955

>  <SCORE.INTER.VDW>
-17.585

>  <SCORE.INTER.norm>
-0.389363

>  <SCORE.INTRA>
-1.77829

>  <SCORE.INTRA.DIHEDRAL>
-1.728

>  <SCORE.INTRA.DIHEDRAL.0>
6.31833

>  <SCORE.INTRA.POLAR>
0

>  <SCORE.INTRA.POLAR.0>
0

>  <SCORE.INTRA.REPUL>
0

>  <SCORE.INTRA.REPUL.0>
0

>  <SCORE.INTRA.SOLV>
-0.296023

>  <SCORE.INTRA.SOLV.lig_0>
-48.4015

>  <SCORE.INTRA.VDW>
-0.766281

>  <SCORE.INTRA.VDW.0>
-2.83256

>  <SCORE.INTRA.norm>
-0.0658627

>  <SCORE.RESTR>
0

>  <SCORE.RESTR.CAVITY>
0

>  <SCORE.RESTR.norm>
0

>  <SCORE.SYSTEM>
0

>  <SCORE.SYSTEM.CONST>
0

>  <SCORE.SYSTEM.DIHEDRAL>
0

>  <SCORE.SYSTEM.SOLV>
0

>  <SCORE.SYSTEM.norm>
0

>  <SCORE.heavy>
27

>  <SCORE.norm>
-0.455225

>  <RMSD>
13.389

$$$$
ligand
 OpenBabel02271912153D
libRbt.so/2013.1/901 2013/11/27
 27 29  0  0  0  0  0  0  0  0999 V2000
    6.4336    6.2375   15.2593 N   0  0  0  0  0  0  0  0  0  0  0  0
    6.8629    5.1562   16.1784 C   0  0  2  0  0  0  0  0  0  0  0  0
    5.7437    4.1247   16.2394 C   0  0  0  0  0  0  0  0  0  0  0  0
    5.8845    2.8600   16.3296 O   0  0  0  0  0  0  0  0  0  0  0  0
    7.1954    5.7708   17.5398 C   0  0  0  0  0  0  0  0  0  0  0  0
    6.0027    6.4713   18.1770 C   0  0  0  0  0  0  0  0  0  0  0  0
    6.0740    7.2913   19.8138 S   0  0  2  0  0  0  0  0  0  0  0  0
    4.3996    7.9265   19.8728 C   0  0  0  0  0  0  0  0  0  0  0  0
    7.0672    8.7402   19.3337 C   0  0  0  0  0  0  0  0  0  0  0  0
    7.1992    9.7200   20.4670 C   0  0  1  0  0  0  0  0  0  0  0  0
    7.7973    9.1283   21.6456 O   0  0  0  0  0  0  0  0  0  0  0  0
    8.0102   10.9510   20.1326 C   0  0  1  0  0  0  0  0  0  0  0  0
    7.1466   11.9544   19.8167 O   0  0  0  0  0  0  0  0  0  0  0  0
    8.5883   11.2692   21.4917 C   0  0  1  0  0  0  0  0  0  0  0  0
    7.6218   11.9639   22.1465 O   0  0  0  0  0  0  0  0  0  0  0  0
    8.8106    9.9183   22.2071 C   0  0  2  0  0  0  0  0  0  0  0  0
    4.5977    4.5653   16.1349 O   0  0  0  0  0  0  0  0  0  0  0  0
   13.9217    9.0555   22.7614 N   0  0  0  0  0  0  0  0  0  0  0  0
   12.9016    9.5449   23.6449 C   0  0  0  0  0  0  0  0  0  0  0  0
   11.5238    9.7273   23.3688 N   0  0  0  0  0  0  0  0  0  0  0  0
   11.2417    9.3802   22.1756 C   0  0  0  0  0  0  0  0  0  0  0  0
   12.2171    8.8599   21.1916 C   0  0  0  0  0  0  0  0  0  0  0  0
   13.5151    8.7166   21.4893 C   0  0  0  0  0  0  0  0  0  0  0  0
   14.2776    8.2622   20.5161 N   0  0  0  0  0  0  0  0  0  0  0  0
   11.6890    8.5821   20.0236 N   0  0  0  0  0  0  0  0  0  0  0  0
   10.3740    8.9243   20.2794 C   0  0  0  0  0  0  0  0  0  0  0  0
   10.0805    9.4159   21.6161 N   0  0  0  0  0  0  0  0  0  0  0  0
  2  1  1  6  0  0  0
  2  3  1  0  0  0  0
  2  5  1  0  0  0  0
  3  4  1  0  0  0  0
  3 17  1  0  0  0  0
  5  6  1  0  0  0  0
  7  6  1  6  0  0  0
  7  8  1  0  0  0  0
  7  9  1  0  0  0  0
 10  9  1  6  0  0  0
 10 11  1  0  0  0  0
 10 12  1  0  0  0  0
 11 16  1  0  0  0  0
 12 13  1  1  0  0  0
 12 14  1  0  0  0  0
 14 15  1  1  0  0  0
 14 16  1  0  0  0  0
 16 27  1  6  0  0  0
 18 19  2  0  0  0  0
 18 23  1  0  0  0  0
 19 20  1  0  0  0  0
 20 21  2  0  0  0  0
 21 22  1  0  0  0  0
 21 27  1  0  0  0  0
 22 23  2  0  0  0  0
 22 25  1  0  0  0  0
 23 24  1  0  0  0  0
 25 26  2  0  0  0  0
 26 27  1  0  0  0  0
M  END
>  <CHROM.1>
143.64144333,60.71038570,179.37586390,177.73213870,174.34285651,57.99154827
-147.52985924,8.53496676,8.24921464,19.93859342,-2.32328475,-0.23828774,0.64165918

>  <Name>
ligand

>  <RI>
0

>  <Rbt.Current_Directory>
/home/itssahil/PROJECTS/Mol_Feturizer/Test_systems_manuscript/rnas/4aob

>  <Rbt.Executable>
rbdock ($Id: //depot/dev/client3/rdock/2013.1/src/exe/rbdock.cxx#4 $)

>  <Rbt.Library>
libRbt.so (2013.1, Build901 2013/11/27)

>  <Rbt.Parameter_File>
/export/apps/rDock/src/rDock_2013.1_src/data/scripts/dock_solv.prm

>  <Rbt.Receptor>
prm/blind_docking_100.prm

>  <SCORE>
-13.3264

>  <SCORE.INTER>
-12.1056

>  <SCORE.INTER.CONST>
1

>  <SCORE.INTER.POLAR>
0

>  <SCORE.INTER.ROT>
7

>  <SCORE.INTER.SOLV>
13.3388

>  <SCORE.INTER.VDW>
-20.7833

>  <SCORE.INTER.norm>
-0.448355

>  <SCORE.INTRA>
-1.22126

>  <SCORE.INTRA.DIHEDRAL>
-3.05211

>  <SCORE.INTRA.DIHEDRAL.0>
6.31833

>  <SCORE.INTRA.POLAR>
0

>  <SCORE.INTRA.POLAR.0>
0

>  <SCORE.INTRA.REPUL>
0

>  <SCORE.INTRA.REPUL.0>
0

>  <SCORE.INTRA.SOLV>
-0.0665188

>  <SCORE.INTRA.SOLV.lig_0>
-48.4015

>  <SCORE.INTRA.VDW>
0.338054

>  <SCORE.INTRA.VDW.0>
-2.83256

>  <SCORE.INTRA.norm>
-0.0452319

>  <SCORE.RESTR>
0.000437739

>  <SCORE.RESTR.CAVITY>
0.000437739

>  <SCORE.RESTR.norm>
1.62125e-05

>  <SCORE.SYSTEM>
0

>  <SCORE.SYSTEM.CONST>
0

>  <SCORE.SYSTEM.DIHEDRAL>
0

>  <SCORE.SYSTEM.SOLV>
0

>  <SCORE.SYSTEM.norm>
0

>  <SCORE.heavy>
27

>  <SCORE.norm>
-0.49357

>  <RMSD>
13.453

$$$$
ligand
 OpenBabel02271912153D
libRbt.so/2013.1/901 2013/11/27
 27 29  0  0  0  0  0  0  0  0999 V2000
    7.4200    6.4774   18.1535 N   0  0  0  0  0  0  0  0  0  0  0  0
    6.4888    7.3910   18.8582 C   0  0  2  0  0  0  0  0  0  0  0  0
    7.0731    8.7961   18.7889 C   0  0  0  0  0  0  0  0  0  0  0  0
    6.9206    9.7223   19.6528 O   0  0  0  0  0  0  0  0  0  0  0  0
    6.2930    6.8860   20.2894 C   0  0  0  0  0  0  0  0  0  0  0  0
    7.5962    6.8216   21.0748 C   0  0  0  0  0  0  0  0  0  0  0  0
    7.6802    6.3762   22.8499 S   0  0  2  0  0  0  0  0  0  0  0  0
    9.4087    6.7472   23.1419 C   0  0  0  0  0  0  0  0  0  0  0  0
    7.6544    4.5649   22.6632 C   0  0  0  0  0  0  0  0  0  0  0  0
    6.2964    4.0716   22.2456 C   0  0  1  0  0  0  0  0  0  0  0  0
    6.1579    3.9777   20.8072 O   0  0  0  0  0  0  0  0  0  0  0  0
    5.9249    2.7205   22.8127 C   0  0  1  0  0  0  0  0  0  0  0  0
    5.1394    2.9212   23.9059 O   0  0  0  0  0  0  0  0  0  0  0  0
    5.0325    2.2022   21.7093 C   0  0  1  0  0  0  0  0  0  0  0  0
    3.8095    2.7457   21.9427 O   0  0  0  0  0  0  0  0  0  0  0  0
    5.5907    2.7672   20.3844 C   0  0  2  0  0  0  0  0  0  0  0  0
    7.7061    9.0673   17.7671 O   0  0  0  0  0  0  0  0  0  0  0  0
    9.3694    1.3716   17.0756 N   0  0  0  0  0  0  0  0  0  0  0  0
    8.3874    2.4185   17.0677 C   0  0  0  0  0  0  0  0  0  0  0  0
    7.4056    2.6996   18.0501 N   0  0  0  0  0  0  0  0  0  0  0  0
    7.4825    1.8848   19.0267 C   0  0  0  0  0  0  0  0  0  0  0  0
    8.4597    0.7783   19.1319 C   0  0  0  0  0  0  0  0  0  0  0  0
    9.3629    0.5378   18.1725 C   0  0  0  0  0  0  0  0  0  0  0  0
   10.1597   -0.4897   18.3826 N   0  0  0  0  0  0  0  0  0  0  0  0
    8.3340    0.0675   20.2271 N   0  0  0  0  0  0  0  0  0  0  0  0
    7.2758    0.7365   20.8142 C   0  0  0  0  0  0  0  0  0  0  0  0
    6.7409    1.8730   20.0815 N   0  0  0  0  0  0  0  0  0  0  0  0
  2  1  1  6  0  0  0
  2  3  1  0  0  0  0
  2  5  1  0  0  0  0
  3  4  1  0  0  0  0
  3 17  1  0  0  0  0
  5  6  1  0  0  0  0
  7  6  1  6  0  0  0
  7  8  1  0  0  0  0
  7  9  1  0  0  0  0
 10  9  1  6  0  0  0
 10 11  1  0  0  0  0
 10 12  1  0  0  0  0
 11 16  1  0  0  0  0
 12 13  1  1  0  0  0
 12 14  1  0  0  0  0
 14 15  1  1  0  0  0
 14 16  1  0  0  0  0
 16 27  1  1  0  0  0
 18 19  2  0  0  0  0
 18 23  1  0  0  0  0
 19 20  1  0  0  0  0
 20 21  2  0  0  0  0
 21 22  1  0  0  0  0
 21 27  1  0  0  0  0
 22 23  2  0  0  0  0
 22 25  1  0  0  0  0
 23 24  1  0  0  0  0
 25 26  2  0  0  0  0
 26 27  1  0  0  0  0
M  END
>  <CHROM.1>
-149.85267038,59.53288982,175.36687965,-171.71825119,-72.11030518,91.78569981
-78.27216586,7.21578479,4.14093631,20.36382836,-1.80915585,-1.11543849,3.06594942

>  <Name>
ligand

>  <RI>
0

>  <Rbt.Current_Directory>
/home/itssahil/PROJECTS/Mol_Feturizer/Test_systems_manuscript/rnas/4aob

>  <Rbt.Executable>
rbdock ($Id: //depot/dev/client3/rdock/2013.1/src/exe/rbdock.cxx#4 $)

>  <Rbt.Library>
libRbt.so (2013.1, Build901 2013/11/27)

>  <Rbt.Parameter_File>
/export/apps/rDock/src/rDock_2013.1_src/data/scripts/dock_solv.prm

>  <Rbt.Receptor>
prm/blind_docking_40.prm

>  <SCORE>
-7.98298

>  <SCORE.INTER>
-8.96609

>  <SCORE.INTER.CONST>
1

>  <SCORE.INTER.POLAR>
0

>  <SCORE.INTER.ROT>
7

>  <SCORE.INTER.SOLV>
13.3832

>  <SCORE.INTER.VDW>
-18.7051

>  <SCORE.INTER.norm>
-0.332077

>  <SCORE.INTRA>
0.983109

>  <SCORE.INTRA.DIHEDRAL>
0.425688

>  <SCORE.INTRA.DIHEDRAL.0>
6.31833

>  <SCORE.INTRA.POLAR>
0

>  <SCORE.INTRA.POLAR.0>
0

>  <SCORE.INTRA.REPUL>
0

>  <SCORE.INTRA.REPUL.0>
0

>  <SCORE.INTRA.SOLV>
0.590718

>  <SCORE.INTRA.SOLV.lig_0>
-48.4015

>  <SCORE.INTRA.VDW>
0.474906

>  <SCORE.INTRA.VDW.0>
-2.83256

>  <SCORE.INTRA.norm>
0.0364114

>  <SCORE.RESTR>
0

>  <SCORE.RESTR.CAVITY>
0

>  <SCORE.RESTR.norm>
0

>  <SCORE.SYSTEM>
0

>  <SCORE.SYSTEM.CONST>
0

>  <SCORE.SYSTEM.DIHEDRAL>
0

>  <SCORE.SYSTEM.SOLV>
0

>  <SCORE.SYSTEM.norm>
0

>  <SCORE.heavy>
27

>  <SCORE.norm>
-0.295666

>  <RMSD>
13.609

$$$$
ligand
 OpenBabel02271912153D
libRbt.so/2013.1/901 2013/11/27
 27 29  0  0  0  0  0  0  0  0999 V2000
   13.7965    7.8248   22.4462 N   0  0  0  0  0  0  0  0  0  0  0  0
   13.6273    9.0292   23.2942 C   0  0  2  0  0  0  0  0  0  0  0  0
   14.5921    8.9125   24.4671 C   0  0  0  0  0  0  0  0  0  0  0  0
   15.1978    9.8738   25.0471 O   0  0  0  0  0  0  0  0  0  0  0  0
   12.1615    9.1273   23.7226 C   0  0  0  0  0  0  0  0  0  0  0  0
   11.8670   10.3840   24.5308 C   0  0  0  0  0  0  0  0  0  0  0  0
   10.1937   10.8230   25.1342 S   0  0  2  0  0  0  0  0  0  0  0  0
    9.8618    9.3556   26.1074 C   0  0  0  0  0  0  0  0  0  0  0  0
    9.2768   10.5307   23.5883 C   0  0  0  0  0  0  0  0  0  0  0  0
    7.7907   10.6189   23.8020 C   0  0  1  0  0  0  0  0  0  0  0  0
    7.3409   11.9778   24.0211 O   0  0  0  0  0  0  0  0  0  0  0  0
    6.9655   10.0599   22.6655 C   0  0  1  0  0  0  0  0  0  0  0  0
    6.5938    8.7927   22.9950 O   0  0  0  0  0  0  0  0  0  0  0  0
    5.7350   10.9298   22.7738 C   0  0  1  0  0  0  0  0  0  0  0  0
    4.9686   10.3604   23.7402 O   0  0  0  0  0  0  0  0  0  0  0  0
    6.2125   12.3159   23.2605 C   0  0  2  0  0  0  0  0  0  0  0  0
   14.8447    7.7675   24.8460 O   0  0  0  0  0  0  0  0  0  0  0  0
    6.9750   16.6730   20.5021 N   0  0  0  0  0  0  0  0  0  0  0  0
    6.4344   16.4121   21.8061 C   0  0  0  0  0  0  0  0  0  0  0  0
    6.2882   15.1605   22.4541 N   0  0  0  0  0  0  0  0  0  0  0  0
    6.7239   14.2095   21.7264 C   0  0  0  0  0  0  0  0  0  0  0  0
    7.3030   14.3743   20.3744 C   0  0  0  0  0  0  0  0  0  0  0  0
    7.4098   15.5755   19.7916 C   0  0  0  0  0  0  0  0  0  0  0  0
    7.9248   15.5785   18.5793 N   0  0  0  0  0  0  0  0  0  0  0  0
    7.6707   13.2448   19.8182 N   0  0  0  0  0  0  0  0  0  0  0  0
    7.3257   12.3680   20.8302 C   0  0  0  0  0  0  0  0  0  0  0  0
    6.7420   12.9554   22.0256 N   0  0  0  0  0  0  0  0  0  0  0  0
  2  1  1  6  0  0  0
  2  3  1  0  0  0  0
  2  5  1  0  0  0  0
  3  4  1  0  0  0  0
  3 17  1  0  0  0  0
  5  6  1  0  0  0  0
  7  6  1  6  0  0  0
  7  8  1  0  0  0  0
  7  9  1  0  0  0  0
 10  9  1  6  0  0  0
 10 11  1  0  0  0  0
 10 12  1  0  0  0  0
 11 16  1  0  0  0  0
 12 13  1  1  0  0  0
 12 14  1  0  0  0  0
 14 15  1  1  0  0  0
 14 16  1  0  0  0  0
 16 27  1  6  0  0  0
 18 19  2  0  0  0  0
 18 23  1  0  0  0  0
 19 20  1  0  0  0  0
 20 21  2  0  0  0  0
 21 22  1  0  0  0  0
 21 27  1  0  0  0  0
 22 23  2  0  0  0  0
 22 25  1  0  0  0  0
 23 24  1  0  0  0  0
 25 26  2  0  0  0  0
 26 27  1  0  0  0  0
M  END
>  <CHROM.1>
146.13884841,-176.48725870,177.58399155,58.21357316,171.77988004,72.13025908
-105.86917161,9.06908520,11.53396029,22.94127237,-0.75284670,0.07321795,-0.62719692

>  <Name>
ligand

>  <RI>
0

>  <Rbt.Current_Directory>
/home/itssahil/PROJECTS/Mol_Feturizer/Test_systems_manuscript/rnas/4aob

>  <Rbt.Executable>
rbdock ($Id: //depot/dev/client3/rdock/2013.1/src/exe/rbdock.cxx#4 $)

>  <Rbt.Library>
libRbt.so (2013.1, Build901 2013/11/27)

>  <Rbt.Parameter_File>
/export/apps/rDock/src/rDock_2013.1_src/data/scripts/dock_solv.prm

>  <Rbt.Receptor>
prm/blind_docking_60.prm

>  <SCORE>
-14.9365

>  <SCORE.INTER>
-14.6172

>  <SCORE.INTER.CONST>
1

>  <SCORE.INTER.POLAR>
0

>  <SCORE.INTER.ROT>
7

>  <SCORE.INTER.SOLV>
13.4738

>  <SCORE.INTER.VDW>
-22.5027

>  <SCORE.INTER.norm>
-0.541378

>  <SCORE.INTRA>
-0.319334

>  <SCORE.INTRA.DIHEDRAL>
-2.32698

>  <SCORE.INTRA.DIHEDRAL.0>
6.31833

>  <SCORE.INTRA.POLAR>
0

>  <SCORE.INTRA.POLAR.0>
0

>  <SCORE.INTRA.REPUL>
0

>  <SCORE.INTRA.REPUL.0>
0

>  <SCORE.INTRA.SOLV>
-0.772537

>  <SCORE.INTRA.SOLV.lig_0>
-48.4015

>  <SCORE.INTRA.VDW>
1.23043

>  <SCORE.INTRA.VDW.0>
-2.83256

>  <SCORE.INTRA.norm>
-0.0118272

>  <SCORE.RESTR>
0

>  <SCORE.RESTR.CAVITY>
0

>  <SCORE.RESTR.norm>
0

>  <SCORE.SYSTEM>
0

>  <SCORE.SYSTEM.CONST>
0

>  <SCORE.SYSTEM.DIHEDRAL>
0

>  <SCORE.SYSTEM.SOLV>
0

>  <SCORE.SYSTEM.norm>
0

>  <SCORE.heavy>
27

>  <SCORE.norm>
-0.553205

>  <RMSD>
13.629

$$$$
ligand
 OpenBabel02271912153D
libRbt.so/2013.1/901 2013/11/27
 27 29  0  0  0  0  0  0  0  0999 V2000
    6.5454    5.3214   13.8350 N   0  0  0  0  0  0  0  0  0  0  0  0
    6.8356    5.0546   15.2643 C   0  0  2  0  0  0  0  0  0  0  0  0
    5.8618    3.9870   15.7461 C   0  0  0  0  0  0  0  0  0  0  0  0
    4.6398    4.1664   16.0656 O   0  0  0  0  0  0  0  0  0  0  0  0
    6.7280    6.3683   16.0417 C   0  0  0  0  0  0  0  0  0  0  0  0
    7.1416    6.2251   17.5003 C   0  0  0  0  0  0  0  0  0  0  0  0
    6.8755    7.5336   18.7547 S   0  0  2  0  0  0  0  0  0  0  0  0
    7.8250    8.8444   17.9860 C   0  0  0  0  0  0  0  0  0  0  0  0
    7.9930    6.8898   20.0405 C   0  0  0  0  0  0  0  0  0  0  0  0
    7.3781    6.9925   21.4092 C   0  0  1  0  0  0  0  0  0  0  0  0
    6.1181    6.2855   21.5062 O   0  0  0  0  0  0  0  0  0  0  0  0
    8.2583    6.4788   22.5256 C   0  0  1  0  0  0  0  0  0  0  0  0
    8.8810    7.5447   23.0988 O   0  0  0  0  0  0  0  0  0  0  0  0
    7.2062    5.9990   23.4979 C   0  0  1  0  0  0  0  0  0  0  0  0
    6.8121    7.1030   24.1844 O   0  0  0  0  0  0  0  0  0  0  0  0
    6.0219    5.4822   22.6514 C   0  0  2  0  0  0  0  0  0  0  0  0
    6.3288    2.8557   15.8890 O   0  0  0  0  0  0  0  0  0  0  0  0
    6.6341    2.0283   18.7953 N   0  0  0  0  0  0  0  0  0  0  0  0
    6.1924    3.3934   18.8368 C   0  0  0  0  0  0  0  0  0  0  0  0
    6.0779    4.2381   19.9688 N   0  0  0  0  0  0  0  0  0  0  0  0
    6.4415    3.6375   21.0322 C   0  0  0  0  0  0  0  0  0  0  0  0
    6.9165    2.2372   21.0941 C   0  0  0  0  0  0  0  0  0  0  0  0
    6.9958    1.4676   20.0008 C   0  0  0  0  0  0  0  0  0  0  0  0
    7.4153    0.2348   20.1991 N   0  0  0  0  0  0  0  0  0  0  0  0
    7.2228    1.8385   22.3055 N   0  0  0  0  0  0  0  0  0  0  0  0
    6.9440    2.9978   23.0057 C   0  0  0  0  0  0  0  0  0  0  0  0
    6.4637    4.1267   22.2250 N   0  0  0  0  0  0  0  0  0  0  0  0
  2  1  1  6  0  0  0
  2  3  1  0  0  0  0
  2  5  1  0  0  0  0
  3  4  1  0  0  0  0
  3 17  1  0  0  0  0
  5  6  1  0  0  0  0
  7  6  1  6  0  0  0
  7  8  1  0  0  0  0
  7  9  1  0  0  0  0
 10  9  1  6  0  0  0
 10 11  1  0  0  0  0
 10 12  1  0  0  0  0
 11 16  1  0  0  0  0
 12 13  1  1  0  0  0
 12 14  1  0  0  0  0
 14 15  1  1  0  0  0
 14 16  1  0  0  0  0
 16 27  1  6  0  0  0
 18 19  2  0  0  0  0
 18 23  1  0  0  0  0
 19 20  1  0  0  0  0
 20 21  2  0  0  0  0
 21 22  1  0  0  0  0
 21 27  1  0  0  0  0
 22 23  2  0  0  0  0
 22 25  1  0  0  0  0
 23 24  1  0  0  0  0
 25 26  2  0  0  0  0
 26 27  1  0  0  0  0
M  END
>  <CHROM.1>
-78.50384555,-174.41391435,-169.92774309,-59.50470034,-137.53315825,58.01954800
-24.28099964,6.84454527,4.98933464,19.69384677,-2.43252686,1.39722714,2.30243407

>  <Name>
ligand

>  <RI>
0

>  <Rbt.Current_Directory>
/home/itssahil/PROJECTS/Mol_Feturizer/Test_systems_manuscript/rnas/4aob

>  <Rbt.Executable>
rbdock ($Id: //depot/dev/client3/rdock/2013.1/src/exe/rbdock.cxx#4 $)

>  <Rbt.Library>
libRbt.so (2013.1, Build901 2013/11/27)

>  <Rbt.Parameter_File>
/export/apps/rDock/src/rDock_2013.1_src/data/scripts/dock_solv.prm

>  <Rbt.Receptor>
prm/blind_docking_40.prm

>  <SCORE>
-9.22347

>  <SCORE.INTER>
-8.57459

>  <SCORE.INTER.CONST>
1

>  <SCORE.INTER.POLAR>
0

>  <SCORE.INTER.ROT>
7

>  <SCORE.INTER.SOLV>
8.62436

>  <SCORE.INTER.VDW>
-16.8578

>  <SCORE.INTER.norm>
-0.317577

>  <SCORE.INTRA>
-0.648879

>  <SCORE.INTRA.DIHEDRAL>
1.53046

>  <SCORE.INTRA.DIHEDRAL.0>
6.31833

>  <SCORE.INTRA.POLAR>
0

>  <SCORE.INTRA.POLAR.0>
0

>  <SCORE.INTRA.REPUL>
0

>  <SCORE.INTRA.REPUL.0>
0

>  <SCORE.INTRA.SOLV>
-0.774524

>  <SCORE.INTRA.SOLV.lig_0>
-48.4015

>  <SCORE.INTRA.VDW>
-1.02685

>  <SCORE.INTRA.VDW.0>
-2.83256

>  <SCORE.INTRA.norm>
-0.0240325

>  <SCORE.RESTR>
0

>  <SCORE.RESTR.CAVITY>
0

>  <SCORE.RESTR.norm>
0

>  <SCORE.SYSTEM>
0

>  <SCORE.SYSTEM.CONST>
0

>  <SCORE.SYSTEM.DIHEDRAL>
0

>  <SCORE.SYSTEM.SOLV>
0

>  <SCORE.SYSTEM.norm>
0

>  <SCORE.heavy>
27

>  <SCORE.norm>
-0.34161

>  <RMSD>
13.649

$$$$
ligand
 OpenBabel02271912153D
libRbt.so/2013.1/901 2013/11/27
 27 29  0  0  0  0  0  0  0  0999 V2000
    9.3619    9.4591   24.8582 N   0  0  0  0  0  0  0  0  0  0  0  0
   10.8420    9.4892   24.7760 C   0  0  2  0  0  0  0  0  0  0  0  0
   11.3204   10.7661   25.4551 C   0  0  0  0  0  0  0  0  0  0  0  0
   12.2925   11.5030   25.0817 O   0  0  0  0  0  0  0  0  0  0  0  0
   11.2552    9.3934   23.3058 C   0  0  0  0  0  0  0  0  0  0  0  0
   11.0221    8.0082   22.7175 C   0  0  0  0  0  0  0  0  0  0  0  0
   11.5044    7.5452   21.0118 S   0  0  2  0  0  0  0  0  0  0  0  0
   13.1114    8.3360   20.9594 C   0  0  0  0  0  0  0  0  0  0  0  0
   10.4245    8.7048   20.1143 C   0  0  0  0  0  0  0  0  0  0  0  0
    9.0299    8.1611   19.9681 C   0  0  1  0  0  0  0  0  0  0  0  0
    8.2027    8.4363   21.1243 O   0  0  0  0  0  0  0  0  0  0  0  0
    8.2844    8.6800   18.7598 C   0  0  1  0  0  0  0  0  0  0  0  0
    8.3837    7.7516   17.7697 O   0  0  0  0  0  0  0  0  0  0  0  0
    6.8661    8.6317   19.2782 C   0  0  1  0  0  0  0  0  0  0  0  0
    6.4561    7.3486   19.1023 O   0  0  0  0  0  0  0  0  0  0  0  0
    6.9356    8.9358   20.7911 C   0  0  2  0  0  0  0  0  0  0  0  0
   10.7375   11.0745   26.4960 O   0  0  0  0  0  0  0  0  0  0  0  0
    6.1694   13.3629   23.4347 N   0  0  0  0  0  0  0  0  0  0  0  0
    5.9573   11.9778   23.7462 C   0  0  0  0  0  0  0  0  0  0  0  0
    6.2197   10.8507   22.9284 N   0  0  0  0  0  0  0  0  0  0  0  0
    6.7114   11.1988   21.8056 C   0  0  0  0  0  0  0  0  0  0  0  0
    6.9729   12.5955   21.3917 C   0  0  0  0  0  0  0  0  0  0  0  0
    6.6962   13.6343   22.1907 C   0  0  0  0  0  0  0  0  0  0  0  0
    6.9589   14.8246   21.6919 N   0  0  0  0  0  0  0  0  0  0  0  0
    7.4718   12.7017   20.1833 N   0  0  0  0  0  0  0  0  0  0  0  0
    7.5292   11.3633   19.8407 C   0  0  0  0  0  0  0  0  0  0  0  0
    7.0656   10.4173   20.8431 N   0  0  0  0  0  0  0  0  0  0  0  0
  2  1  1  6  0  0  0
  2  3  1  0  0  0  0
  2  5  1  0  0  0  0
  3  4  1  0  0  0  0
  3 17  1  0  0  0  0
  5  6  1  0  0  0  0
  7  6  1  1  0  0  0
  7  8  1  0  0  0  0
  7  9  1  0  0  0  0
 10  9  1  1  0  0  0
 10 11  1  0  0  0  0
 10 12  1  0  0  0  0
 11 16  1  0  0  0  0
 12 13  1  6  0  0  0
 12 14  1  0  0  0  0
 14 15  1  1  0  0  0
 14 16  1  0  0  0  0
 16 27  1  6  0  0  0
 18 19  2  0  0  0  0
 18 23  1  0  0  0  0
 19 20  1  0  0  0  0
 20 21  2  0  0  0  0
 21 22  1  0  0  0  0
 21 27  1  0  0  0  0
 22 23  2  0  0  0  0
 22 25  1  0  0  0  0
 23 24  1  0  0  0  0
 25 26  2  0  0  0  0
 26 27  1  0  0  0  0
M  END
>  <CHROM.1>
-142.38782772,-71.69130438,-176.30893456,42.31077520,-82.86517545,85.01495147
-99.36455259,8.85444076,10.00335347,21.79627670,0.21269931,-0.58955378,0.86889228

>  <Name>
ligand

>  <RI>
0

>  <Rbt.Current_Directory>
/home/itssahil/PROJECTS/Mol_Feturizer/Test_systems_manuscript/rnas/4aob

>  <Rbt.Executable>
rbdock ($Id: //depot/dev/client3/rdock/2013.1/src/exe/rbdock.cxx#4 $)

>  <Rbt.Library>
libRbt.so (2013.1, Build901 2013/11/27)

>  <Rbt.Parameter_File>
/export/apps/rDock/src/rDock_2013.1_src/data/scripts/dock_solv.prm

>  <Rbt.Receptor>
prm/blind_docking_80.prm

>  <SCORE>
-11.4393

>  <SCORE.INTER>
-12.563

>  <SCORE.INTER.CONST>
1

>  <SCORE.INTER.POLAR>
0

>  <SCORE.INTER.ROT>
7

>  <SCORE.INTER.SOLV>
12.2379

>  <SCORE.INTER.VDW>
-20.7213

>  <SCORE.INTER.norm>
-0.465295

>  <SCORE.INTRA>
1.12143

>  <SCORE.INTRA.DIHEDRAL>
0.130015

>  <SCORE.INTRA.DIHEDRAL.0>
6.31833

>  <SCORE.INTRA.POLAR>
0

>  <SCORE.INTRA.POLAR.0>
0

>  <SCORE.INTRA.REPUL>
0

>  <SCORE.INTRA.REPUL.0>
0

>  <SCORE.INTRA.SOLV>
0.109515

>  <SCORE.INTRA.SOLV.lig_0>
-48.4015

>  <SCORE.INTRA.VDW>
1.00166

>  <SCORE.INTRA.VDW.0>
-2.83256

>  <SCORE.INTRA.norm>
0.0415344

>  <SCORE.RESTR>
0.00225674

>  <SCORE.RESTR.CAVITY>
0.00225674

>  <SCORE.RESTR.norm>
8.3583e-05

>  <SCORE.SYSTEM>
0

>  <SCORE.SYSTEM.CONST>
0

>  <SCORE.SYSTEM.DIHEDRAL>
0

>  <SCORE.SYSTEM.SOLV>
0

>  <SCORE.SYSTEM.norm>
0

>  <SCORE.heavy>
27

>  <SCORE.norm>
-0.423677

>  <RMSD>
13.670

$$$$
ligand
 OpenBabel02271912153D
libRbt.so/2013.1/901 2013/11/27
 27 29  0  0  0  0  0  0  0  0999 V2000
    6.7684    1.4161   21.8810 N   0  0  0  0  0  0  0  0  0  0  0  0
    6.4946    1.8252   20.4824 C   0  0  2  0  0  0  0  0  0  0  0  0
    7.2315    0.8606   19.5621 C   0  0  0  0  0  0  0  0  0  0  0  0
    8.3162    0.2430   19.8257 O   0  0  0  0  0  0  0  0  0  0  0  0
    6.9252    3.2826   20.3028 C   0  0  0  0  0  0  0  0  0  0  0  0
    6.5418    3.8465   18.9412 C   0  0  0  0  0  0  0  0  0  0  0  0
    7.0217    5.5213   18.3743 S   0  0  2  0  0  0  0  0  0  0  0  0
    6.1644    5.5319   16.8009 C   0  0  0  0  0  0  0  0  0  0  0  0
    8.7474    5.1561   17.9217 C   0  0  0  0  0  0  0  0  0  0  0  0
    9.3850    6.3099   17.1977 C   0  0  1  0  0  0  0  0  0  0  0  0
    9.5569    7.4708   18.0460 O   0  0  0  0  0  0  0  0  0  0  0  0
   10.7378    5.9970   16.6002 C   0  0  1  0  0  0  0  0  0  0  0  0
   10.5623    5.7095   15.2815 O   0  0  0  0  0  0  0  0  0  0  0  0
   11.3876    7.3587   16.6789 C   0  0  1  0  0  0  0  0  0  0  0  0
   10.9517    8.0356   15.5847 O   0  0  0  0  0  0  0  0  0  0  0  0
   10.8336    8.0424   17.9484 C   0  0  2  0  0  0  0  0  0  0  0  0
    6.7511    0.7154   18.4367 O   0  0  0  0  0  0  0  0  0  0  0  0
   11.2798    6.9760   23.0316 N   0  0  0  0  0  0  0  0  0  0  0  0
   10.2510    7.5855   22.2374 C   0  0  0  0  0  0  0  0  0  0  0  0
   10.2496    7.8126   20.8387 N   0  0  0  0  0  0  0  0  0  0  0  0
   11.3218    7.3840   20.2998 C   0  0  0  0  0  0  0  0  0  0  0  0
   12.4364    6.7379   21.0282 C   0  0  0  0  0  0  0  0  0  0  0  0
   12.4037    6.5553   22.3547 C   0  0  0  0  0  0  0  0  0  0  0  0
   13.4694    5.9861   22.8794 N   0  0  0  0  0  0  0  0  0  0  0  0
   13.4392    6.3925   20.2565 N   0  0  0  0  0  0  0  0  0  0  0  0
   12.9471    6.8190   19.0367 C   0  0  0  0  0  0  0  0  0  0  0  0
   11.6283    7.4315   19.0482 N   0  0  0  0  0  0  0  0  0  0  0  0
  2  1  1  1  0  0  0
  2  3  1  0  0  0  0
  2  5  1  0  0  0  0
  3  4  1  0  0  0  0
  3 17  1  0  0  0  0
  5  6  1  0  0  0  0
  7  6  1  1  0  0  0
  7  8  1  0  0  0  0
  7  9  1  0  0  0  0
 10  9  1  1  0  0  0
 10 11  1  0  0  0  0
 10 12  1  0  0  0  0
 11 16  1  0  0  0  0
 12 13  1  6  0  0  0
 12 14  1  0  0  0  0
 14 15  1  6  0  0  0
 14 16  1  0  0  0  0
 16 27  1  1  0  0  0
 18 19  2  0  0  0  0
 18 23  1  0  0  0  0
 19 20  1  0  0  0  0
 20 21  2  0  0  0  0
 21 22  1  0  0  0  0
 21 27  1  0  0  0  0
 22 23  2  0  0  0  0
 22 25  1  0  0  0  0
 23 24  1  0  0  0  0
 25 26  2  0  0  0  0
 26 27  1  0  0  0  0
M  END
>  <CHROM.1>
-29.55019102,-173.57327925,-175.45243863,-176.47496415,170.95768324,67.06180230
-53.05317984,9.57895641,5.39976024,19.16961660,-2.82953985,-0.74911049,-1.08623468

>  <Name>
ligand

>  <RI>
0

>  <Rbt.Current_Directory>
/home/itssahil/PROJECTS/Mol_Feturizer/Test_systems_manuscript/rnas/4aob

>  <Rbt.Executable>
rbdock ($Id: //depot/dev/client3/rdock/2013.1/src/exe/rbdock.cxx#4 $)

>  <Rbt.Library>
libRbt.so (2013.1, Build901 2013/11/27)

>  <Rbt.Parameter_File>
/export/apps/rDock/src/rDock_2013.1_src/data/scripts/dock_solv.prm

>  <Rbt.Receptor>
prm/blind_docking_100.prm

>  <SCORE>
-9.11943

>  <SCORE.INTER>
-7.50522

>  <SCORE.INTER.CONST>
1

>  <SCORE.INTER.POLAR>
0

>  <SCORE.INTER.ROT>
7

>  <SCORE.INTER.SOLV>
15.1886

>  <SCORE.INTER.VDW>
-18.333

>  <SCORE.INTER.norm>
-0.277971

>  <SCORE.INTRA>
-1.61421

>  <SCORE.INTRA.DIHEDRAL>
-2.60428

>  <SCORE.INTRA.DIHEDRAL.0>
6.31833

>  <SCORE.INTRA.POLAR>
0

>  <SCORE.INTRA.POLAR.0>
0

>  <SCORE.INTRA.REPUL>
0

>  <SCORE.INTRA.REPUL.0>
0

>  <SCORE.INTRA.SOLV>
-0.800333

>  <SCORE.INTRA.SOLV.lig_0>
-48.4015

>  <SCORE.INTRA.VDW>
0.0880991

>  <SCORE.INTRA.VDW.0>
-2.83256

>  <SCORE.INTRA.norm>
-0.0597855

>  <SCORE.RESTR>
0

>  <SCORE.RESTR.CAVITY>
0

>  <SCORE.RESTR.norm>
0

>  <SCORE.SYSTEM>
0

>  <SCORE.SYSTEM.CONST>
0

>  <SCORE.SYSTEM.DIHEDRAL>
0

>  <SCORE.SYSTEM.SOLV>
0

>  <SCORE.SYSTEM.norm>
0

>  <SCORE.heavy>
27

>  <SCORE.norm>
-0.337757

>  <RMSD>
13.680

$$$$
ligand
 OpenBabel02271912153D
libRbt.so/2013.1/901 2013/11/27
 27 29  0  0  0  0  0  0  0  0999 V2000
    7.9931   10.4398   22.7058 N   0  0  0  0  0  0  0  0  0  0  0  0
    8.3900   11.3812   21.6313 C   0  0  2  0  0  0  0  0  0  0  0  0
    8.0469   12.7906   22.0965 C   0  0  0  0  0  0  0  0  0  0  0  0
    7.7550   13.7835   21.3506 O   0  0  0  0  0  0  0  0  0  0  0  0
    7.6779   10.9799   20.3377 C   0  0  0  0  0  0  0  0  0  0  0  0
    8.1511    9.6372   19.7970 C   0  0  0  0  0  0  0  0  0  0  0  0
    7.2697    8.7148   18.4822 S   0  0  2  0  0  0  0  0  0  0  0  0
    5.8481    8.1789   19.4322 C   0  0  0  0  0  0  0  0  0  0  0  0
    8.3389    7.2413   18.4393 C   0  0  0  0  0  0  0  0  0  0  0  0
    9.4369    7.3845   17.4216 C   0  0  1  0  0  0  0  0  0  0  0  0
   10.3824    8.4252   17.7678 O   0  0  0  0  0  0  0  0  0  0  0  0
   10.2365    6.1230   17.1887 C   0  0  1  0  0  0  0  0  0  0  0  0
    9.7491    5.5120   16.0745 O   0  0  0  0  0  0  0  0  0  0  0  0
   11.5763    6.7178   16.8232 C   0  0  1  0  0  0  0  0  0  0  0  0
   11.4919    7.0250   15.5026 O   0  0  0  0  0  0  0  0  0  0  0  0
   11.7194    8.0234   17.6364 C   0  0  2  0  0  0  0  0  0  0  0  0
    8.1160   12.9897   23.3106 O   0  0  0  0  0  0  0  0  0  0  0  0
   11.6054    8.7232   22.8008 N   0  0  0  0  0  0  0  0  0  0  0  0
   10.9912    9.4070   21.6982 C   0  0  0  0  0  0  0  0  0  0  0  0
   11.0976    9.1056   20.3177 N   0  0  0  0  0  0  0  0  0  0  0  0
   11.8356    8.0853   20.1230 C   0  0  0  0  0  0  0  0  0  0  0  0
   12.5078    7.3099   21.1896 C   0  0  0  0  0  0  0  0  0  0  0  0
   12.3925    7.6379   22.4830 C   0  0  0  0  0  0  0  0  0  0  0  0
   13.0582    6.8766   23.3270 N   0  0  0  0  0  0  0  0  0  0  0  0
   13.2243    6.3076   20.7396 N   0  0  0  0  0  0  0  0  0  0  0  0
   12.9946    6.4521   19.3838 C   0  0  0  0  0  0  0  0  0  0  0  0
   12.1272    7.5498   18.9868 N   0  0  0  0  0  0  0  0  0  0  0  0
  2  1  1  1  0  0  0
  2  3  1  0  0  0  0
  2  5  1  0  0  0  0
  3  4  1  0  0  0  0
  3 17  1  0  0  0  0
  5  6  1  0  0  0  0
  7  6  1  1  0  0  0
  7  8  1  0  0  0  0
  7  9  1  0  0  0  0
 10  9  1  1  0  0  0
 10 11  1  0  0  0  0
 10 12  1  0  0  0  0
 11 16  1  0  0  0  0
 12 13  1  6  0  0  0
 12 14  1  0  0  0  0
 14 15  1  6  0  0  0
 14 16  1  0  0  0  0
 16 27  1  1  0  0  0
 18 19  2  0  0  0  0
 18 23  1  0  0  0  0
 19 20  1  0  0  0  0
 20 21  2  0  0  0  0
 21 22  1  0  0  0  0
 21 27  1  0  0  0  0
 22 23  2  0  0  0  0
 22 25  1  0  0  0  0
 23 24  1  0  0  0  0
 25 26  2  0  0  0  0
 26 27  1  0  0  0  0
M  END
>  <CHROM.1>
-151.75763647,-66.81807825,166.77379963,-72.05544700,-92.13399843,66.34287216
-40.95302075,9.94545336,8.65821510,19.77956702,-2.12836053,0.54140525,-2.15821331

>  <Name>
ligand

>  <RI>
0

>  <Rbt.Current_Directory>
/home/itssahil/PROJECTS/Mol_Feturizer/Test_systems_manuscript/rnas/4aob

>  <Rbt.Executable>
rbdock ($Id: //depot/dev/client3/rdock/2013.1/src/exe/rbdock.cxx#4 $)

>  <Rbt.Library>
libRbt.so (2013.1, Build901 2013/11/27)

>  <Rbt.Parameter_File>
/export/apps/rDock/src/rDock_2013.1_src/data/scripts/dock_solv.prm

>  <Rbt.Receptor>
prm/blind_docking_60.prm

>  <SCORE>
-16.9203

>  <SCORE.INTER>
-16.1503

>  <SCORE.INTER.CONST>
1

>  <SCORE.INTER.POLAR>
0

>  <SCORE.INTER.ROT>
7

>  <SCORE.INTER.SOLV>
10.1004

>  <SCORE.INTER.VDW>
-22.4004

>  <SCORE.INTER.norm>
-0.598159

>  <SCORE.INTRA>
-0.821909

>  <SCORE.INTRA.DIHEDRAL>
-1.07041

>  <SCORE.INTRA.DIHEDRAL.0>
6.31833

>  <SCORE.INTRA.POLAR>
0

>  <SCORE.INTRA.POLAR.0>
0

>  <SCORE.INTRA.REPUL>
0

>  <SCORE.INTRA.REPUL.0>
0

>  <SCORE.INTRA.SOLV>
0.573149

>  <SCORE.INTRA.SOLV.lig_0>
-48.4015

>  <SCORE.INTRA.VDW>
-0.57328

>  <SCORE.INTRA.VDW.0>
-2.83256

>  <SCORE.INTRA.norm>
-0.0304411

>  <SCORE.RESTR>
0.0519188

>  <SCORE.RESTR.CAVITY>
0.0519188

>  <SCORE.RESTR.norm>
0.00192292

>  <SCORE.SYSTEM>
0

>  <SCORE.SYSTEM.CONST>
0

>  <SCORE.SYSTEM.DIHEDRAL>
0

>  <SCORE.SYSTEM.SOLV>
0

>  <SCORE.SYSTEM.norm>
0

>  <SCORE.heavy>
27

>  <SCORE.norm>
-0.626678

>  <RMSD>
13.700

$$$$
ligand
 OpenBabel02271912153D
libRbt.so/2013.1/901 2013/11/27
 27 29  0  0  0  0  0  0  0  0999 V2000
   12.2224    8.0641   18.2835 N   0  0  0  0  0  0  0  0  0  0  0  0
   13.0688    7.3078   19.2373 C   0  0  2  0  0  0  0  0  0  0  0  0
   13.2658    5.9058   18.6751 C   0  0  0  0  0  0  0  0  0  0  0  0
   12.3611    5.1556   18.1790 O   0  0  0  0  0  0  0  0  0  0  0  0
   12.3944    7.3206   20.6109 C   0  0  0  0  0  0  0  0  0  0  0  0
   12.3909    8.7018   21.2524 C   0  0  0  0  0  0  0  0  0  0  0  0
   11.5220    9.0808   22.8202 S   0  0  2  0  0  0  0  0  0  0  0  0
   11.9584    7.6043   23.7368 C   0  0  0  0  0  0  0  0  0  0  0  0
    9.8211    8.7519   22.2588 C   0  0  0  0  0  0  0  0  0  0  0  0
    9.0588   10.0277   22.0281 C   0  0  1  0  0  0  0  0  0  0  0  0
    9.1666   10.4997   20.6633 O   0  0  0  0  0  0  0  0  0  0  0  0
    7.5840    9.9364   22.3471 C   0  0  1  0  0  0  0  0  0  0  0  0
    7.3880   10.4454   23.5940 O   0  0  0  0  0  0  0  0  0  0  0  0
    7.0335   10.9407   21.3619 C   0  0  1  0  0  0  0  0  0  0  0  0
    7.1863   12.1543   21.9530 O   0  0  0  0  0  0  0  0  0  0  0  0
    7.9342   10.8733   20.1087 C   0  0  2  0  0  0  0  0  0  0  0  0
   14.4043    5.4433   18.7657 O   0  0  0  0  0  0  0  0  0  0  0  0
    8.2320    7.7749   15.9272 N   0  0  0  0  0  0  0  0  0  0  0  0
    8.9754    8.9245   16.3590 C   0  0  0  0  0  0  0  0  0  0  0  0
    8.7965    9.6839   17.5418 N   0  0  0  0  0  0  0  0  0  0  0  0
    7.8498    9.2142   18.2538 C   0  0  0  0  0  0  0  0  0  0  0  0
    7.0294    8.0341   17.9006 C   0  0  0  0  0  0  0  0  0  0  0  0
    7.2223    7.3523   16.7640 C   0  0  0  0  0  0  0  0  0  0  0  0
    6.4099    6.3351   16.5631 N   0  0  0  0  0  0  0  0  0  0  0  0
    6.1062    7.7504   18.7881 N   0  0  0  0  0  0  0  0  0  0  0  0
    6.3538    8.7549   19.7055 C   0  0  0  0  0  0  0  0  0  0  0  0
    7.4400    9.6684   19.3889 N   0  0  0  0  0  0  0  0  0  0  0  0
  2  1  1  6  0  0  0
  2  3  1  0  0  0  0
  2  5  1  0  0  0  0
  3  4  1  0  0  0  0
  3 17  1  0  0  0  0
  5  6  1  0  0  0  0
  7  6  1  6  0  0  0
  7  8  1  0  0  0  0
  7  9  1  0  0  0  0
 10  9  1  6  0  0  0
 10 11  1  0  0  0  0
 10 12  1  0  0  0  0
 11 16  1  0  0  0  0
 12 13  1  1  0  0  0
 12 14  1  0  0  0  0
 14 15  1  1  0  0  0
 14 16  1  0  0  0  0
 16 27  1  6  0  0  0
 18 19  2  0  0  0  0
 18 23  1  0  0  0  0
 19 20  1  0  0  0  0
 20 21  2  0  0  0  0
 21 22  1  0  0  0  0
 21 27  1  0  0  0  0
 22 23  2  0  0  0  0
 22 25  1  0  0  0  0
 23 24  1  0  0  0  0
 25 26  2  0  0  0  0
 26 27  1  0  0  0  0
M  END
>  <CHROM.1>
-45.58131768,-68.69244709,174.01515216,41.80218027,-104.62569849,91.41485840
-75.88916371,9.53573879,8.60746404,19.95808376,0.35892826,0.41777268,-2.05303041

>  <Name>
ligand

>  <RI>
0

>  <Rbt.Current_Directory>
/home/itssahil/PROJECTS/Mol_Feturizer/Test_systems_manuscript/rnas/4aob

>  <Rbt.Executable>
rbdock ($Id: //depot/dev/client3/rdock/2013.1/src/exe/rbdock.cxx#4 $)

>  <Rbt.Library>
libRbt.so (2013.1, Build901 2013/11/27)

>  <Rbt.Parameter_File>
/export/apps/rDock/src/rDock_2013.1_src/data/scripts/dock_solv.prm

>  <Rbt.Receptor>
prm/blind_docking_60.prm

>  <SCORE>
-13.0941

>  <SCORE.INTER>
-15.439

>  <SCORE.INTER.CONST>
1

>  <SCORE.INTER.POLAR>
0

>  <SCORE.INTER.ROT>
7

>  <SCORE.INTER.SOLV>
12.2083

>  <SCORE.INTER.VDW>
-22.6287

>  <SCORE.INTER.norm>
-0.571814

>  <SCORE.INTRA>
2.34485

>  <SCORE.INTRA.DIHEDRAL>
3.04874

>  <SCORE.INTRA.DIHEDRAL.0>
6.31833

>  <SCORE.INTRA.POLAR>
0

>  <SCORE.INTRA.POLAR.0>
0

>  <SCORE.INTRA.REPUL>
0

>  <SCORE.INTRA.REPUL.0>
0

>  <SCORE.INTRA.SOLV>
-0.0370842

>  <SCORE.INTRA.SOLV.lig_0>
-48.4015

>  <SCORE.INTRA.VDW>
0.839024

>  <SCORE.INTRA.VDW.0>
-2.83256

>  <SCORE.INTRA.norm>
0.0868464

>  <SCORE.RESTR>
0

>  <SCORE.RESTR.CAVITY>
0

>  <SCORE.RESTR.norm>
0

>  <SCORE.SYSTEM>
0

>  <SCORE.SYSTEM.CONST>
0

>  <SCORE.SYSTEM.DIHEDRAL>
0

>  <SCORE.SYSTEM.SOLV>
0

>  <SCORE.SYSTEM.norm>
0

>  <SCORE.heavy>
27

>  <SCORE.norm>
-0.484967

>  <RMSD>
13.703

$$$$
ligand
 OpenBabel02271912153D
libRbt.so/2013.1/901 2013/11/27
 27 29  0  0  0  0  0  0  0  0999 V2000
    9.2232    7.0890   17.0863 N   0  0  0  0  0  0  0  0  0  0  0  0
    9.9526    8.3798   17.1009 C   0  0  2  0  0  0  0  0  0  0  0  0
    9.4211    9.2282   15.9529 C   0  0  0  0  0  0  0  0  0  0  0  0
    8.9024    8.7967   14.8702 O   0  0  0  0  0  0  0  0  0  0  0  0
   11.4534    8.0980   17.0019 C   0  0  0  0  0  0  0  0  0  0  0  0
   12.0000    7.3795   18.2283 C   0  0  0  0  0  0  0  0  0  0  0  0
   12.1385    8.1663   19.8770 S   0  0  2  0  0  0  0  0  0  0  0  0
   12.8936    6.8056   20.7652 C   0  0  0  0  0  0  0  0  0  0  0  0
   10.3841    8.0723   20.3562 C   0  0  0  0  0  0  0  0  0  0  0  0
   10.2024    8.2870   21.8336 C   0  0  1  0  0  0  0  0  0  0  0  0
   10.6620    9.5903   22.2659 O   0  0  0  0  0  0  0  0  0  0  0  0
    8.7755    8.1426   22.3114 C   0  0  1  0  0  0  0  0  0  0  0  0
    8.6239    6.8896   22.8207 O   0  0  0  0  0  0  0  0  0  0  0  0
    8.7846    9.1021   23.4783 C   0  0  1  0  0  0  0  0  0  0  0  0
    9.3075    8.4052   24.5206 O   0  0  0  0  0  0  0  0  0  0  0  0
    9.7499   10.2483   23.1033 C   0  0  2  0  0  0  0  0  0  0  0  0
    9.5630   10.4465   16.0717 O   0  0  0  0  0  0  0  0  0  0  0  0
    6.5040   14.2946   22.5871 N   0  0  0  0  0  0  0  0  0  0  0  0
    7.2086   13.7304   23.7033 C   0  0  0  0  0  0  0  0  0  0  0  0
    8.0822   12.6148   23.7084 N   0  0  0  0  0  0  0  0  0  0  0  0
    8.2092   12.1218   22.5403 C   0  0  0  0  0  0  0  0  0  0  0  0
    7.5322   12.6322   21.3272 C   0  0  0  0  0  0  0  0  0  0  0  0
    6.7015   13.6820   21.3688 C   0  0  0  0  0  0  0  0  0  0  0  0
    6.1502   14.0202   20.2213 N   0  0  0  0  0  0  0  0  0  0  0  0
    7.8117   11.9501   20.2423 N   0  0  0  0  0  0  0  0  0  0  0  0
    8.6736   11.0109   20.7777 C   0  0  0  0  0  0  0  0  0  0  0  0
    8.9349   11.1102   22.2048 N   0  0  0  0  0  0  0  0  0  0  0  0
  2  1  1  6  0  0  0
  2  3  1  0  0  0  0
  2  5  1  0  0  0  0
  3  4  1  0  0  0  0
  3 17  1  0  0  0  0
  5  6  1  0  0  0  0
  7  6  1  6  0  0  0
  7  8  1  0  0  0  0
  7  9  1  0  0  0  0
 10  9  1  6  0  0  0
 10 11  1  0  0  0  0
 10 12  1  0  0  0  0
 11 16  1  0  0  0  0
 12 13  1  1  0  0  0
 12 14  1  0  0  0  0
 14 15  1  1  0  0  0
 14 16  1  0  0  0  0
 16 27  1  6  0  0  0
 18 19  2  0  0  0  0
 18 23  1  0  0  0  0
 19 20  1  0  0  0  0
 20 21  2  0  0  0  0
 21 22  1  0  0  0  0
 21 27  1  0  0  0  0
 22 23  2  0  0  0  0
 22 25  1  0  0  0  0
 23 24  1  0  0  0  0
 25 26  2  0  0  0  0
 26 27  1  0  0  0  0
M  END
>  <CHROM.1>
-26.80121726,-66.32253669,-69.04599379,-177.81155804,163.80326097,61.13820908
-161.62575476,9.36585569,9.83839659,20.53586774,0.72489366,0.95555491,-1.56269450

>  <Name>
ligand

>  <RI>
0

>  <Rbt.Current_Directory>
/home/itssahil/PROJECTS/Mol_Feturizer/Test_systems_manuscript/rnas/4aob

>  <Rbt.Executable>
rbdock ($Id: //depot/dev/client3/rdock/2013.1/src/exe/rbdock.cxx#4 $)

>  <Rbt.Library>
libRbt.so (2013.1, Build901 2013/11/27)

>  <Rbt.Parameter_File>
/export/apps/rDock/src/rDock_2013.1_src/data/scripts/dock_solv.prm

>  <Rbt.Receptor>
prm/blind_docking_80.prm

>  <SCORE>
-18.8822

>  <SCORE.INTER>
-17.7176

>  <SCORE.INTER.CONST>
1

>  <SCORE.INTER.POLAR>
0

>  <SCORE.INTER.ROT>
7

>  <SCORE.INTER.SOLV>
12.9733

>  <SCORE.INTER.VDW>
-24.4028

>  <SCORE.INTER.norm>
-0.656207

>  <SCORE.INTRA>
-1.16466

>  <SCORE.INTRA.DIHEDRAL>
-2.54521

>  <SCORE.INTRA.DIHEDRAL.0>
6.31833

>  <SCORE.INTRA.POLAR>
0

>  <SCORE.INTRA.POLAR.0>
0

>  <SCORE.INTRA.REPUL>
0

>  <SCORE.INTRA.REPUL.0>
0

>  <SCORE.INTRA.SOLV>
1.00925

>  <SCORE.INTRA.SOLV.lig_0>
-48.4015

>  <SCORE.INTRA.VDW>
-0.396678

>  <SCORE.INTRA.VDW.0>
-2.83256

>  <SCORE.INTRA.norm>
-0.0431356

>  <SCORE.RESTR>
0

>  <SCORE.RESTR.CAVITY>
0

>  <SCORE.RESTR.norm>
0

>  <SCORE.SYSTEM>
0

>  <SCORE.SYSTEM.CONST>
0

>  <SCORE.SYSTEM.DIHEDRAL>
0

>  <SCORE.SYSTEM.SOLV>
0

>  <SCORE.SYSTEM.norm>
0

>  <SCORE.heavy>
27

>  <SCORE.norm>
-0.699343

>  <RMSD>
13.728

$$$$
ligand
 OpenBabel02271912153D
libRbt.so/2013.1/901 2013/11/27
 27 29  0  0  0  0  0  0  0  0999 V2000
    6.8986    6.0340   19.5600 N   0  0  0  0  0  0  0  0  0  0  0  0
    7.6115    4.8482   19.0270 C   0  0  2  0  0  0  0  0  0  0  0  0
    8.6120    5.3348   17.9865 C   0  0  0  0  0  0  0  0  0  0  0  0
    8.4278    6.2709   17.1396 O   0  0  0  0  0  0  0  0  0  0  0  0
    6.5813    3.8665   18.4645 C   0  0  0  0  0  0  0  0  0  0  0  0
    7.2221    2.6378   17.8329 C   0  0  0  0  0  0  0  0  0  0  0  0
    8.3377    1.5047   18.7429 S   0  0  2  0  0  0  0  0  0  0  0  0
    9.0502    0.6424   17.3431 C   0  0  0  0  0  0  0  0  0  0  0  0
    7.0777    0.3468   19.3657 C   0  0  0  0  0  0  0  0  0  0  0  0
    7.6990   -0.9242   19.8760 C   0  0  1  0  0  0  0  0  0  0  0  0
    8.4025   -0.7347   21.1275 O   0  0  0  0  0  0  0  0  0  0  0  0
    6.7171   -2.0534   20.0896 C   0  0  1  0  0  0  0  0  0  0  0  0
    6.7658   -2.8689   19.0009 O   0  0  0  0  0  0  0  0  0  0  0  0
    7.3915   -2.7843   21.2269 C   0  0  1  0  0  0  0  0  0  0  0  0
    8.3287   -3.5783   20.6465 O   0  0  0  0  0  0  0  0  0  0  0  0
    8.0999   -1.7131   22.0853 C   0  0  2  0  0  0  0  0  0  0  0  0
    9.6775    4.7183   17.9329 O   0  0  0  0  0  0  0  0  0  0  0  0
    5.8713   -1.1884   26.7685 N   0  0  0  0  0  0  0  0  0  0  0  0
    7.0756   -1.8237   26.3140 C   0  0  0  0  0  0  0  0  0  0  0  0
    7.5813   -1.8879   24.9918 N   0  0  0  0  0  0  0  0  0  0  0  0
    6.8199   -1.2733   24.1755 C   0  0  0  0  0  0  0  0  0  0  0  0
    5.5632   -0.5839   24.5442 C   0  0  0  0  0  0  0  0  0  0  0  0
    5.1129   -0.5594   25.8053 C   0  0  0  0  0  0  0  0  0  0  0  0
    3.9719    0.0714   25.9924 N   0  0  0  0  0  0  0  0  0  0  0  0
    4.9469   -0.0331   23.5258 N   0  0  0  0  0  0  0  0  0  0  0  0
    5.8259   -0.3740   22.5143 C   0  0  0  0  0  0  0  0  0  0  0  0
    6.9986   -1.1397   22.9055 N   0  0  0  0  0  0  0  0  0  0  0  0
  2  1  1  6  0  0  0
  2  3  1  0  0  0  0
  2  5  1  0  0  0  0
  3  4  1  0  0  0  0
  3 17  1  0  0  0  0
  5  6  1  0  0  0  0
  7  6  1  6  0  0  0
  7  8  1  0  0  0  0
  7  9  1  0  0  0  0
 10  9  1  1  0  0  0
 10 11  1  0  0  0  0
 10 12  1  0  0  0  0
 11 16  1  0  0  0  0
 12 13  1  6  0  0  0
 12 14  1  0  0  0  0
 14 15  1  6  0  0  0
 14 16  1  0  0  0  0
 16 27  1  1  0  0  0
 18 19  2  0  0  0  0
 18 23  1  0  0  0  0
 19 20  1  0  0  0  0
 20 21  2  0  0  0  0
 21 22  1  0  0  0  0
 21 27  1  0  0  0  0
 22 23  2  0  0  0  0
 22 25  1  0  0  0  0
 23 24  1  0  0  0  0
 25 26  2  0  0  0  0
 26 27  1  0  0  0  0
M  END
>  <CHROM.1>
-38.61179136,177.37240228,58.01776337,-164.57448474,165.34129017,72.05557960
-143.07345348,7.24151027,0.55170305,21.05378758,0.95974449,1.18137011,-0.27364971

>  <Name>
ligand

>  <RI>
0

>  <Rbt.Current_Directory>
/home/itssahil/PROJECTS/Mol_Feturizer/Test_systems_manuscript/rnas/4aob

>  <Rbt.Executable>
rbdock ($Id: //depot/dev/client3/rdock/2013.1/src/exe/rbdock.cxx#4 $)

>  <Rbt.Library>
libRbt.so (2013.1, Build901 2013/11/27)

>  <Rbt.Parameter_File>
/export/apps/rDock/src/rDock_2013.1_src/data/scripts/dock_solv.prm

>  <Rbt.Receptor>
prm/blind_docking_80.prm

>  <SCORE>
-10.0547

>  <SCORE.INTER>
-8.65456

>  <SCORE.INTER.CONST>
1

>  <SCORE.INTER.POLAR>
0

>  <SCORE.INTER.ROT>
7

>  <SCORE.INTER.SOLV>
6.93288

>  <SCORE.INTER.VDW>
-16.3473

>  <SCORE.INTER.norm>
-0.320539

>  <SCORE.INTRA>
-1.40147

>  <SCORE.INTRA.DIHEDRAL>
-1.38935

>  <SCORE.INTRA.DIHEDRAL.0>
6.31833

>  <SCORE.INTRA.POLAR>
0

>  <SCORE.INTRA.POLAR.0>
0

>  <SCORE.INTRA.REPUL>
0

>  <SCORE.INTRA.REPUL.0>
0

>  <SCORE.INTRA.SOLV>
-0.738905

>  <SCORE.INTRA.SOLV.lig_0>
-48.4015

>  <SCORE.INTRA.VDW>
-0.337343

>  <SCORE.INTRA.VDW.0>
-2.83256

>  <SCORE.INTRA.norm>
-0.0519063

>  <SCORE.RESTR>
0.00137548

>  <SCORE.RESTR.CAVITY>
0.00137548

>  <SCORE.RESTR.norm>
5.09436e-05

>  <SCORE.SYSTEM>
0

>  <SCORE.SYSTEM.CONST>
0

>  <SCORE.SYSTEM.DIHEDRAL>
0

>  <SCORE.SYSTEM.SOLV>
0

>  <SCORE.SYSTEM.norm>
0

>  <SCORE.heavy>
27

>  <SCORE.norm>
-0.372395

>  <RMSD>
13.850

$$$$
ligand
 OpenBabel02271912153D
libRbt.so/2013.1/901 2013/11/27
 27 29  0  0  0  0  0  0  0  0999 V2000
    8.3799   -1.9787   18.1089 N   0  0  0  0  0  0  0  0  0  0  0  0
    7.6578   -0.9638   18.9133 C   0  0  2  0  0  0  0  0  0  0  0  0
    6.2362   -1.4662   19.1298 C   0  0  0  0  0  0  0  0  0  0  0  0
    5.3587   -0.9468   19.8965 O   0  0  0  0  0  0  0  0  0  0  0  0
    7.7213    0.3792   18.1827 C   0  0  0  0  0  0  0  0  0  0  0  0
    7.1682    1.5289   19.0144 C   0  0  0  0  0  0  0  0  0  0  0  0
    6.9419    3.2255   18.3610 S   0  0  2  0  0  0  0  0  0  0  0  0
    8.6532    3.6042   17.9887 C   0  0  0  0  0  0  0  0  0  0  0  0
    6.6477    4.0750   19.9447 C   0  0  0  0  0  0  0  0  0  0  0  0
    6.1108    5.4641   19.7355 C   0  0  1  0  0  0  0  0  0  0  0  0
    5.8389    6.1479   20.9826 O   0  0  0  0  0  0  0  0  0  0  0  0
    7.0168    6.3652   18.9278 C   0  0  1  0  0  0  0  0  0  0  0  0
    6.5738    6.3680   17.6409 O   0  0  0  0  0  0  0  0  0  0  0  0
    6.6637    7.7069   19.5258 C   0  0  1  0  0  0  0  0  0  0  0  0
    5.5336    8.1062   18.8863 O   0  0  0  0  0  0  0  0  0  0  0  0
    6.3387    7.4576   21.0152 C   0  0  2  0  0  0  0  0  0  0  0  0
    5.9369   -2.5078   18.5433 O   0  0  0  0  0  0  0  0  0  0  0  0
   11.0707    9.5216   21.7380 N   0  0  0  0  0  0  0  0  0  0  0  0
    9.8957    9.9656   21.0432 C   0  0  0  0  0  0  0  0  0  0  0  0
    8.6488    9.3024   20.9280 N   0  0  0  0  0  0  0  0  0  0  0  0
    8.6557    8.1931   21.5550 C   0  0  0  0  0  0  0  0  0  0  0  0
    9.8111    7.6505   22.3041 C   0  0  0  0  0  0  0  0  0  0  0  0
   10.9781    8.3038   22.3758 C   0  0  0  0  0  0  0  0  0  0  0  0
   11.9298    7.7000   23.0575 N   0  0  0  0  0  0  0  0  0  0  0  0
    9.5789    6.4839   22.8568 N   0  0  0  0  0  0  0  0  0  0  0  0
    8.2685    6.2975   22.4568 C   0  0  0  0  0  0  0  0  0  0  0  0
    7.6797    7.3561   21.6522 N   0  0  0  0  0  0  0  0  0  0  0  0
  2  1  1  6  0  0  0
  2  3  1  0  0  0  0
  2  5  1  0  0  0  0
  3  4  1  0  0  0  0
  3 17  1  0  0  0  0
  5  6  1  0  0  0  0
  7  6  1  1  0  0  0
  7  8  1  0  0  0  0
  7  9  1  0  0  0  0
 10  9  1  1  0  0  0
 10 11  1  0  0  0  0
 10 12  1  0  0  0  0
 11 16  1  0  0  0  0
 12 13  1  6  0  0  0
 12 14  1  0  0  0  0
 14 15  1  6  0  0  0
 14 16  1  0  0  0  0
 16 27  1  1  0  0  0
 18 19  2  0  0  0  0
 18 23  1  0  0  0  0
 19 20  1  0  0  0  0
 20 21  2  0  0  0  0
 21 22  1  0  0  0  0
 21 27  1  0  0  0  0
 22 23  2  0  0  0  0
 22 25  1  0  0  0  0
 23 24  1  0  0  0  0
 25 26  2  0  0  0  0
 26 27  1  0  0  0  0
M  END
>  <CHROM.1>
171.56104164,-172.37342972,-173.36855278,-62.28879025,-166.98970837,178.61588352
158.28903985,7.71476154,4.76590638,20.02849457,-1.86750222,-0.59193594,0.13465340

>  <Name>
ligand

>  <RI>
0

>  <Rbt.Current_Directory>
/home/itssahil/PROJECTS/Mol_Feturizer/Test_systems_manuscript/rnas/4aob

>  <Rbt.Executable>
rbdock ($Id: //depot/dev/client3/rdock/2013.1/src/exe/rbdock.cxx#4 $)

>  <Rbt.Library>
libRbt.so (2013.1, Build901 2013/11/27)

>  <Rbt.Parameter_File>
/export/apps/rDock/src/rDock_2013.1_src/data/scripts/dock_solv.prm

>  <Rbt.Receptor>
prm/blind_docking_40.prm

>  <SCORE>
-7.18381

>  <SCORE.INTER>
-7.24244

>  <SCORE.INTER.CONST>
1

>  <SCORE.INTER.POLAR>
0

>  <SCORE.INTER.ROT>
7

>  <SCORE.INTER.SOLV>
5.72444

>  <SCORE.INTER.VDW>
-15.0031

>  <SCORE.INTER.norm>
-0.268239

>  <SCORE.INTRA>
0.0586291

>  <SCORE.INTRA.DIHEDRAL>
-1.28504

>  <SCORE.INTRA.DIHEDRAL.0>
6.31833

>  <SCORE.INTRA.POLAR>
0

>  <SCORE.INTRA.POLAR.0>
0

>  <SCORE.INTRA.REPUL>
0

>  <SCORE.INTRA.REPUL.0>
0

>  <SCORE.INTRA.SOLV>
-0.469687

>  <SCORE.INTRA.SOLV.lig_0>
-48.4015

>  <SCORE.INTRA.VDW>
0.935994

>  <SCORE.INTRA.VDW.0>
-2.83256

>  <SCORE.INTRA.norm>
0.00217145

>  <SCORE.RESTR>
0

>  <SCORE.RESTR.CAVITY>
0

>  <SCORE.RESTR.norm>
0

>  <SCORE.SYSTEM>
0

>  <SCORE.SYSTEM.CONST>
0

>  <SCORE.SYSTEM.DIHEDRAL>
0

>  <SCORE.SYSTEM.SOLV>
0

>  <SCORE.SYSTEM.norm>
0

>  <SCORE.heavy>
27

>  <SCORE.norm>
-0.266067

>  <RMSD>
13.864

$$$$
ligand
 OpenBabel02271912153D
libRbt.so/2013.1/901 2013/11/27
 27 29  0  0  0  0  0  0  0  0999 V2000
    7.8373    4.1309   15.2781 N   0  0  0  0  0  0  0  0  0  0  0  0
    7.3333    2.9830   16.0698 C   0  0  2  0  0  0  0  0  0  0  0  0
    6.0854    3.4419   16.8132 C   0  0  0  0  0  0  0  0  0  0  0  0
    5.9125    3.4356   18.0772 O   0  0  0  0  0  0  0  0  0  0  0  0
    8.4485    2.4987   16.9990 C   0  0  0  0  0  0  0  0  0  0  0  0
    8.0594    1.2556   17.7880 C   0  0  0  0  0  0  0  0  0  0  0  0
    9.1006    0.5389   19.1143 S   0  0  2  0  0  0  0  0  0  0  0  0
   10.1861   -0.4606   18.0977 C   0  0  0  0  0  0  0  0  0  0  0  0
    7.8967   -0.6613   19.7674 C   0  0  0  0  0  0  0  0  0  0  0  0
    6.6256    0.0130   20.2048 C   0  0  1  0  0  0  0  0  0  0  0  0
    5.6375   -0.9271   20.6915 O   0  0  0  0  0  0  0  0  0  0  0  0
    6.8142    1.0526   21.2860 C   0  0  1  0  0  0  0  0  0  0  0  0
    6.8577    2.2771   20.6934 O   0  0  0  0  0  0  0  0  0  0  0  0
    5.4849    0.9459   21.9960 C   0  0  1  0  0  0  0  0  0  0  0  0
    4.6231    1.7097   21.2753 O   0  0  0  0  0  0  0  0  0  0  0  0
    5.0482   -0.5328   21.9012 C   0  0  2  0  0  0  0  0  0  0  0  0
    5.1390    3.7992   16.1096 O   0  0  0  0  0  0  0  0  0  0  0  0
    5.9020   -1.2689   26.9908 N   0  0  0  0  0  0  0  0  0  0  0  0
    4.9152   -0.5338   26.2516 C   0  0  0  0  0  0  0  0  0  0  0  0
    4.7863   -0.4197   24.8451 N   0  0  0  0  0  0  0  0  0  0  0  0
    5.6874   -1.0896   24.2426 C   0  0  0  0  0  0  0  0  0  0  0  0
    6.7432   -1.8824   24.9114 C   0  0  0  0  0  0  0  0  0  0  0  0
    6.8383   -1.9519   26.2456 C   0  0  0  0  0  0  0  0  0  0  0  0
    7.8359   -2.6756   26.7104 N   0  0  0  0  0  0  0  0  0  0  0  0
    7.5637   -2.4755   24.0776 N   0  0  0  0  0  0  0  0  0  0  0  0
    7.0150   -2.0570   22.8794 C   0  0  0  0  0  0  0  0  0  0  0  0
    5.8435   -1.2000   22.9674 N   0  0  0  0  0  0  0  0  0  0  0  0
  2  1  1  1  0  0  0
  2  3  1  0  0  0  0
  2  5  1  0  0  0  0
  3  4  1  0  0  0  0
  3 17  1  0  0  0  0
  5  6  1  0  0  0  0
  7  6  1  6  0  0  0
  7  8  1  0  0  0  0
  7  9  1  0  0  0  0
 10  9  1  1  0  0  0
 10 11  1  0  0  0  0
 10 12  1  0  0  0  0
 11 16  1  0  0  0  0
 12 13  1  6  0  0  0
 12 14  1  0  0  0  0
 14 15  1  6  0  0  0
 14 16  1  0  0  0  0
 16 27  1  1  0  0  0
 18 19  2  0  0  0  0
 18 23  1  0  0  0  0
 19 20  1  0  0  0  0
 20 21  2  0  0  0  0
 21 22  1  0  0  0  0
 21 27  1  0  0  0  0
 22 23  2  0  0  0  0
 22 25  1  0  0  0  0
 23 24  1  0  0  0  0
 25 26  2  0  0  0  0
 26 27  1  0  0  0  0
M  END
>  <CHROM.1>
-121.23460741,-175.97954063,-173.11909663,-84.67154924,-57.30773285,178.28813728
177.62823154,6.78928591,0.44281717,20.98320966,1.43743524,0.54831874,-1.02804289

>  <Name>
ligand

>  <RI>
0

>  <Rbt.Current_Directory>
/home/itssahil/PROJECTS/Mol_Feturizer/Test_systems_manuscript/rnas/4aob

>  <Rbt.Executable>
rbdock ($Id: //depot/dev/client3/rdock/2013.1/src/exe/rbdock.cxx#4 $)

>  <Rbt.Library>
libRbt.so (2013.1, Build901 2013/11/27)

>  <Rbt.Parameter_File>
/export/apps/rDock/src/rDock_2013.1_src/data/scripts/dock_solv.prm

>  <Rbt.Receptor>
prm/blind_docking_80.prm

>  <SCORE>
-11.4694

>  <SCORE.INTER>
-10.3685

>  <SCORE.INTER.CONST>
1

>  <SCORE.INTER.POLAR>
0

>  <SCORE.INTER.ROT>
7

>  <SCORE.INTER.SOLV>
14.535

>  <SCORE.INTER.VDW>
-20.024

>  <SCORE.INTER.norm>
-0.384019

>  <SCORE.INTRA>
-1.10093

>  <SCORE.INTRA.DIHEDRAL>
-1.67965

>  <SCORE.INTRA.DIHEDRAL.0>
6.31833

>  <SCORE.INTRA.POLAR>
0

>  <SCORE.INTRA.POLAR.0>
0

>  <SCORE.INTRA.REPUL>
0

>  <SCORE.INTRA.REPUL.0>
0

>  <SCORE.INTRA.SOLV>
-0.345276

>  <SCORE.INTRA.SOLV.lig_0>
-48.4015

>  <SCORE.INTRA.VDW>
-0.0884686

>  <SCORE.INTRA.VDW.0>
-2.83256

>  <SCORE.INTRA.norm>
-0.0407753

>  <SCORE.RESTR>
0

>  <SCORE.RESTR.CAVITY>
0

>  <SCORE.RESTR.norm>
0

>  <SCORE.SYSTEM>
0

>  <SCORE.SYSTEM.CONST>
0

>  <SCORE.SYSTEM.DIHEDRAL>
0

>  <SCORE.SYSTEM.SOLV>
0

>  <SCORE.SYSTEM.norm>
0

>  <SCORE.heavy>
27

>  <SCORE.norm>
-0.424794

>  <RMSD>
13.877

$$$$
ligand
 OpenBabel02271912153D
libRbt.so/2013.1/901 2013/11/27
 27 29  0  0  0  0  0  0  0  0999 V2000
    8.7673   -0.2364   19.2148 N   0  0  0  0  0  0  0  0  0  0  0  0
    7.6091    0.0207   18.3256 C   0  0  2  0  0  0  0  0  0  0  0  0
    8.0486   -0.2613   16.8947 C   0  0  0  0  0  0  0  0  0  0  0  0
    9.1939   -0.0110   16.3917 O   0  0  0  0  0  0  0  0  0  0  0  0
    7.1331    1.4590   18.5410 C   0  0  0  0  0  0  0  0  0  0  0  0
    8.2355    2.4846   18.3133 C   0  0  0  0  0  0  0  0  0  0  0  0
    7.9343    4.2911   18.2627 S   0  0  2  0  0  0  0  0  0  0  0  0
    7.0699    4.3789   16.6956 C   0  0  0  0  0  0  0  0  0  0  0  0
    9.6265    4.8236   17.8513 C   0  0  0  0  0  0  0  0  0  0  0  0
    9.6499    6.2316   17.3232 C   0  0  1  0  0  0  0  0  0  0  0  0
    9.1281    7.1902   18.2750 O   0  0  0  0  0  0  0  0  0  0  0  0
   11.0212    6.7190   16.9144 C   0  0  1  0  0  0  0  0  0  0  0  0
   11.1376    6.5744   15.5661 O   0  0  0  0  0  0  0  0  0  0  0  0
   10.8760    8.1963   17.1954 C   0  0  1  0  0  0  0  0  0  0  0  0
   10.2577    8.7170   16.1035 O   0  0  0  0  0  0  0  0  0  0  0  0
    9.9379    8.3262   18.4157 C   0  0  2  0  0  0  0  0  0  0  0  0
    7.1861   -0.7256   16.1470 O   0  0  0  0  0  0  0  0  0  0  0  0
   10.4067    6.8125   23.3820 N   0  0  0  0  0  0  0  0  0  0  0  0
    9.2910    6.9271   22.4860 C   0  0  0  0  0  0  0  0  0  0  0  0
    9.2994    7.3504   21.1337 N   0  0  0  0  0  0  0  0  0  0  0  0
   10.4797    7.6324   20.7451 C   0  0  0  0  0  0  0  0  0  0  0  0
   11.6932    7.5423   21.5875 C   0  0  0  0  0  0  0  0  0  0  0  0
   11.6392    7.1509   22.8672 C   0  0  0  0  0  0  0  0  0  0  0  0
   12.7895    7.1341   23.5086 N   0  0  0  0  0  0  0  0  0  0  0  0
   12.7926    7.8972   20.9663 N   0  0  0  0  0  0  0  0  0  0  0  0
   12.2655    8.2055   19.7257 C   0  0  0  0  0  0  0  0  0  0  0  0
   10.8290    8.0389   19.5723 N   0  0  0  0  0  0  0  0  0  0  0  0
  2  1  1  1  0  0  0
  2  3  1  0  0  0  0
  2  5  1  0  0  0  0
  3  4  1  0  0  0  0
  3 17  1  0  0  0  0
  5  6  1  0  0  0  0
  7  6  1  6  0  0  0
  7  8  1  0  0  0  0
  7  9  1  0  0  0  0
 10  9  1  1  0  0  0
 10 11  1  0  0  0  0
 10 12  1  0  0  0  0
 11 16  1  0  0  0  0
 12 13  1  6  0  0  0
 12 14  1  0  0  0  0
 14 15  1  6  0  0  0
 14 16  1  0  0  0  0
 16 27  1  1  0  0  0
 18 19  2  0  0  0  0
 18 23  1  0  0  0  0
 19 20  1  0  0  0  0
 20 21  2  0  0  0  0
 21 22  1  0  0  0  0
 21 27  1  0  0  0  0
 22 23  2  0  0  0  0
 22 25  1  0  0  0  0
 23 24  1  0  0  0  0
 25 26  2  0  0  0  0
 26 27  1  0  0  0  0
M  END
>  <CHROM.1>
-36.98811760,56.38134634,171.20007736,-71.00795938,162.52756471,59.90696965
-51.01028341,9.66093060,5.18283388,18.83906512,-3.13779101,-1.17006717,-1.12741979

>  <Name>
ligand

>  <RI>
0

>  <Rbt.Current_Directory>
/home/itssahil/PROJECTS/Mol_Feturizer/Test_systems_manuscript/rnas/4aob

>  <Rbt.Executable>
rbdock ($Id: //depot/dev/client3/rdock/2013.1/src/exe/rbdock.cxx#4 $)

>  <Rbt.Library>
libRbt.so (2013.1, Build901 2013/11/27)

>  <Rbt.Parameter_File>
/export/apps/rDock/src/rDock_2013.1_src/data/scripts/dock_solv.prm

>  <Rbt.Receptor>
prm/blind_docking_80.prm

>  <SCORE>
-10.5181

>  <SCORE.INTER>
-9.47286

>  <SCORE.INTER.CONST>
1

>  <SCORE.INTER.POLAR>
0

>  <SCORE.INTER.ROT>
7

>  <SCORE.INTER.SOLV>
10.1869

>  <SCORE.INTER.VDW>
-17.9775

>  <SCORE.INTER.norm>
-0.350847

>  <SCORE.INTRA>
-1.04524

>  <SCORE.INTRA.DIHEDRAL>
-2.81323

>  <SCORE.INTRA.DIHEDRAL.0>
6.31833

>  <SCORE.INTRA.POLAR>
0

>  <SCORE.INTRA.POLAR.0>
0

>  <SCORE.INTRA.REPUL>
0

>  <SCORE.INTRA.REPUL.0>
0

>  <SCORE.INTRA.SOLV>
-0.0466807

>  <SCORE.INTRA.SOLV.lig_0>
-48.4015

>  <SCORE.INTRA.VDW>
0.384711

>  <SCORE.INTRA.VDW.0>
-2.83256

>  <SCORE.INTRA.norm>
-0.0387127

>  <SCORE.RESTR>
0

>  <SCORE.RESTR.CAVITY>
0

>  <SCORE.RESTR.norm>
0

>  <SCORE.SYSTEM>
0

>  <SCORE.SYSTEM.CONST>
0

>  <SCORE.SYSTEM.DIHEDRAL>
0

>  <SCORE.SYSTEM.SOLV>
0

>  <SCORE.SYSTEM.norm>
0

>  <SCORE.heavy>
27

>  <SCORE.norm>
-0.38956

>  <RMSD>
13.896

$$$$
ligand
 OpenBabel02271912153D
libRbt.so/2013.1/901 2013/11/27
 27 29  0  0  0  0  0  0  0  0999 V2000
    6.5905    4.3457   19.0640 N   0  0  0  0  0  0  0  0  0  0  0  0
    7.7785    3.5225   18.7333 C   0  0  2  0  0  0  0  0  0  0  0  0
    8.7536    4.4011   17.9603 C   0  0  0  0  0  0  0  0  0  0  0  0
   10.0177    4.4535   18.1236 O   0  0  0  0  0  0  0  0  0  0  0  0
    7.3207    2.2905   17.9496 C   0  0  0  0  0  0  0  0  0  0  0  0
    8.4157    1.2416   17.8088 C   0  0  0  0  0  0  0  0  0  0  0  0
    9.0633    0.2675   19.2189 S   0  0  2  0  0  0  0  0  0  0  0  0
   10.1842   -0.8020   18.3187 C   0  0  0  0  0  0  0  0  0  0  0  0
    7.6015   -0.7811   19.5014 C   0  0  0  0  0  0  0  0  0  0  0  0
    7.9725   -2.0801   20.1624 C   0  0  1  0  0  0  0  0  0  0  0  0
    8.5623   -1.8886   21.4709 O   0  0  0  0  0  0  0  0  0  0  0  0
    6.8182   -3.0406   20.3361 C   0  0  1  0  0  0  0  0  0  0  0  0
    6.8592   -3.9412   19.3165 O   0  0  0  0  0  0  0  0  0  0  0  0
    7.2557   -3.7625   21.5890 C   0  0  1  0  0  0  0  0  0  0  0  0
    8.1210   -4.7240   21.1736 O   0  0  0  0  0  0  0  0  0  0  0  0
    8.0210   -2.7336   22.4503 C   0  0  2  0  0  0  0  0  0  0  0  0
    8.2518    5.1708   17.1391 O   0  0  0  0  0  0  0  0  0  0  0  0
    5.8189   -1.0111   26.8501 N   0  0  0  0  0  0  0  0  0  0  0  0
    7.0054   -1.7695   26.5712 C   0  0  0  0  0  0  0  0  0  0  0  0
    7.5057   -2.1714   25.3079 N   0  0  0  0  0  0  0  0  0  0  0  0
    6.7583   -1.7584   24.3621 C   0  0  0  0  0  0  0  0  0  0  0  0
    5.5206   -0.9674   24.5442 C   0  0  0  0  0  0  0  0  0  0  0  0
    5.0744   -0.6206   25.7584 C   0  0  0  0  0  0  0  0  0  0  0  0
    3.9503    0.0658   25.7795 N   0  0  0  0  0  0  0  0  0  0  0  0
    4.9159   -0.6699   23.4189 N   0  0  0  0  0  0  0  0  0  0  0  0
    5.7832   -1.2726   22.5264 C   0  0  0  0  0  0  0  0  0  0  0  0
    6.9369   -1.9474   23.0992 N   0  0  0  0  0  0  0  0  0  0  0  0
  2  1  1  6  0  0  0
  2  3  1  0  0  0  0
  2  5  1  0  0  0  0
  3  4  1  0  0  0  0
  3 17  1  0  0  0  0
  5  6  1  0  0  0  0
  7  6  1  6  0  0  0
  7  8  1  0  0  0  0
  7  9  1  0  0  0  0
 10  9  1  1  0  0  0
 10 11  1  0  0  0  0
 10 12  1  0  0  0  0
 11 16  1  0  0  0  0
 12 13  1  6  0  0  0
 12 14  1  0  0  0  0
 14 15  1  6  0  0  0
 14 16  1  0  0  0  0
 16 27  1  1  0  0  0
 18 19  2  0  0  0  0
 18 23  1  0  0  0  0
 19 20  1  0  0  0  0
 20 21  2  0  0  0  0
 21 22  1  0  0  0  0
 21 27  1  0  0  0  0
 22 23  2  0  0  0  0
 22 25  1  0  0  0  0
 23 24  1  0  0  0  0
 25 26  2  0  0  0  0
 26 27  1  0  0  0  0
M  END
>  <CHROM.1>
137.06577827,-168.21741394,68.35249009,176.02723632,154.73433558,61.95283783
-129.45087230,7.42928582,-0.32906586,21.20832220,0.90147431,1.11965576,-0.28853499

>  <Name>
ligand

>  <RI>
0

>  <Rbt.Current_Directory>
/home/itssahil/PROJECTS/Mol_Feturizer/Test_systems_manuscript/rnas/4aob

>  <Rbt.Executable>
rbdock ($Id: //depot/dev/client3/rdock/2013.1/src/exe/rbdock.cxx#4 $)

>  <Rbt.Library>
libRbt.so (2013.1, Build901 2013/11/27)

>  <Rbt.Parameter_File>
/export/apps/rDock/src/rDock_2013.1_src/data/scripts/dock_solv.prm

>  <Rbt.Receptor>
prm/blind_docking_80.prm

>  <SCORE>
-11.3774

>  <SCORE.INTER>
-10.5195

>  <SCORE.INTER.CONST>
1

>  <SCORE.INTER.POLAR>
0

>  <SCORE.INTER.ROT>
7

>  <SCORE.INTER.SOLV>
7.40318

>  <SCORE.INTER.VDW>
-17.7474

>  <SCORE.INTER.norm>
-0.389609

>  <SCORE.INTRA>
-0.869589

>  <SCORE.INTRA.DIHEDRAL>
-1.61031

>  <SCORE.INTRA.DIHEDRAL.0>
6.31833

>  <SCORE.INTRA.POLAR>
0

>  <SCORE.INTRA.POLAR.0>
0

>  <SCORE.INTRA.REPUL>
0

>  <SCORE.INTRA.REPUL.0>
0

>  <SCORE.INTRA.SOLV>
-0.680268

>  <SCORE.INTRA.SOLV.lig_0>
-48.4015

>  <SCORE.INTRA.VDW>
0.275699

>  <SCORE.INTRA.VDW.0>
-2.83256

>  <SCORE.INTRA.norm>
-0.032207

>  <SCORE.RESTR>
0.0116213

>  <SCORE.RESTR.CAVITY>
0.0116213

>  <SCORE.RESTR.norm>
0.000430418

>  <SCORE.SYSTEM>
0

>  <SCORE.SYSTEM.CONST>
0

>  <SCORE.SYSTEM.DIHEDRAL>
0

>  <SCORE.SYSTEM.SOLV>
0

>  <SCORE.SYSTEM.norm>
0

>  <SCORE.heavy>
27

>  <SCORE.norm>
-0.421386

>  <RMSD>
14.027

$$$$
ligand
 OpenBabel02271912153D
libRbt.so/2013.1/901 2013/11/27
 27 29  0  0  0  0  0  0  0  0999 V2000
    7.8866   -0.1370   20.6446 N   0  0  0  0  0  0  0  0  0  0  0  0
    8.0647    0.3520   19.2563 C   0  0  2  0  0  0  0  0  0  0  0  0
    9.4986    0.0538   18.8377 C   0  0  0  0  0  0  0  0  0  0  0  0
   10.5547    0.5679   19.3355 O   0  0  0  0  0  0  0  0  0  0  0  0
    7.7176    1.8417   19.2110 C   0  0  0  0  0  0  0  0  0  0  0  0
    7.6379    2.3851   17.7906 C   0  0  0  0  0  0  0  0  0  0  0  0
    7.3973    4.1597   17.4042 S   0  0  2  0  0  0  0  0  0  0  0  0
    7.2256    4.0299   15.6254 C   0  0  0  0  0  0  0  0  0  0  0  0
    9.1186    4.7091   17.6315 C   0  0  0  0  0  0  0  0  0  0  0  0
    9.3647    6.0407   16.9771 C   0  0  1  0  0  0  0  0  0  0  0  0
    8.8380    7.1454   17.7512 O   0  0  0  0  0  0  0  0  0  0  0  0
   10.8221    6.3433   16.7134 C   0  0  1  0  0  0  0  0  0  0  0  0
   11.0896    6.0392   15.4140 O   0  0  0  0  0  0  0  0  0  0  0  0
   10.8085    7.8497   16.8270 C   0  0  1  0  0  0  0  0  0  0  0  0
   10.3937    8.3039   15.6157 O   0  0  0  0  0  0  0  0  0  0  0  0
    9.7454    8.2054   17.8898 C   0  0  2  0  0  0  0  0  0  0  0  0
    9.6336   -0.7194   17.8877 O   0  0  0  0  0  0  0  0  0  0  0  0
   10.6203    9.6923   22.8090 N   0  0  0  0  0  0  0  0  0  0  0  0
    9.7521   10.1733   21.7719 C   0  0  0  0  0  0  0  0  0  0  0  0
    9.6004    9.6659   20.4576 N   0  0  0  0  0  0  0  0  0  0  0  0
   10.3529    8.6563   20.2622 C   0  0  0  0  0  0  0  0  0  0  0  0
   11.2769    8.0815   21.2654 C   0  0  0  0  0  0  0  0  0  0  0  0
   11.4007    8.6014   22.4936 C   0  0  0  0  0  0  0  0  0  0  0  0
   12.2728    8.0058   23.2808 N   0  0  0  0  0  0  0  0  0  0  0  0
   11.9560    7.0494   20.8250 N   0  0  0  0  0  0  0  0  0  0  0  0
   11.4499    6.9733   19.5405 C   0  0  0  0  0  0  0  0  0  0  0  0
   10.4471    7.9626   19.1793 N   0  0  0  0  0  0  0  0  0  0  0  0
  2  1  1  1  0  0  0
  2  3  1  0  0  0  0
  2  5  1  0  0  0  0
  3  4  1  0  0  0  0
  3 17  1  0  0  0  0
  5  6  1  0  0  0  0
  7  6  1  1  0  0  0
  7  8  1  0  0  0  0
  7  9  1  0  0  0  0
 10  9  1  1  0  0  0
 10 11  1  0  0  0  0
 10 12  1  0  0  0  0
 11 16  1  0  0  0  0
 12 13  1  6  0  0  0
 12 14  1  0  0  0  0
 14 15  1  6  0  0  0
 14 16  1  0  0  0  0
 16 27  1  1  0  0  0
 18 19  2  0  0  0  0
 18 23  1  0  0  0  0
 19 20  1  0  0  0  0
 20 21  2  0  0  0  0
 21 22  1  0  0  0  0
 21 27  1  0  0  0  0
 22 23  2  0  0  0  0
 22 25  1  0  0  0  0
 23 24  1  0  0  0  0
 25 26  2  0  0  0  0
 26 27  1  0  0  0  0
M  END
>  <CHROM.1>
-65.78450894,-170.17160369,-174.09607461,-174.18994558,162.04712703,77.36994800
-111.45191912,9.67654652,5.47699788,18.82699270,-2.61333383,-1.24933036,-0.73626982

>  <Name>
ligand

>  <RI>
0

>  <Rbt.Current_Directory>
/home/itssahil/PROJECTS/Mol_Feturizer/Test_systems_manuscript/rnas/4aob

>  <Rbt.Executable>
rbdock ($Id: //depot/dev/client3/rdock/2013.1/src/exe/rbdock.cxx#4 $)

>  <Rbt.Library>
libRbt.so (2013.1, Build901 2013/11/27)

>  <Rbt.Parameter_File>
/export/apps/rDock/src/rDock_2013.1_src/data/scripts/dock_solv.prm

>  <Rbt.Receptor>
prm/blind_docking_80.prm

>  <SCORE>
-11.9674

>  <SCORE.INTER>
-11.5606

>  <SCORE.INTER.CONST>
1

>  <SCORE.INTER.POLAR>
0

>  <SCORE.INTER.ROT>
7

>  <SCORE.INTER.SOLV>
8.51742

>  <SCORE.INTER.VDW>
-18.8129

>  <SCORE.INTER.norm>
-0.428169

>  <SCORE.INTRA>
-0.406838

>  <SCORE.INTRA.DIHEDRAL>
-0.889233

>  <SCORE.INTRA.DIHEDRAL.0>
6.31833

>  <SCORE.INTRA.POLAR>
0

>  <SCORE.INTRA.POLAR.0>
0

>  <SCORE.INTRA.REPUL>
0

>  <SCORE.INTRA.REPUL.0>
0

>  <SCORE.INTRA.SOLV>
-0.82758

>  <SCORE.INTRA.SOLV.lig_0>
-48.4015

>  <SCORE.INTRA.VDW>
0.451569

>  <SCORE.INTRA.VDW.0>
-2.83256

>  <SCORE.INTRA.norm>
-0.0150681

>  <SCORE.RESTR>
0

>  <SCORE.RESTR.CAVITY>
0

>  <SCORE.RESTR.norm>
0

>  <SCORE.SYSTEM>
0

>  <SCORE.SYSTEM.CONST>
0

>  <SCORE.SYSTEM.DIHEDRAL>
0

>  <SCORE.SYSTEM.SOLV>
0

>  <SCORE.SYSTEM.norm>
0

>  <SCORE.heavy>
27

>  <SCORE.norm>
-0.443237

>  <RMSD>
14.121

$$$$
ligand
 OpenBabel02271912153D
libRbt.so/2013.1/901 2013/11/27
 27 29  0  0  0  0  0  0  0  0999 V2000
    7.6683   -0.5197   18.6546 N   0  0  0  0  0  0  0  0  0  0  0  0
    7.0220    0.1292   19.8206 C   0  0  2  0  0  0  0  0  0  0  0  0
    5.8725   -0.7624   20.2721 C   0  0  0  0  0  0  0  0  0  0  0  0
    4.6278   -0.5010   20.1722 O   0  0  0  0  0  0  0  0  0  0  0  0
    6.5750    1.5357   19.4158 C   0  0  0  0  0  0  0  0  0  0  0  0
    7.7380    2.4262   18.9990 C   0  0  0  0  0  0  0  0  0  0  0  0
    7.5313    4.1658   18.4629 S   0  0  2  0  0  0  0  0  0  0  0  0
    6.6049    3.8779   16.9564 C   0  0  0  0  0  0  0  0  0  0  0  0
    9.2297    4.4582   17.8745 C   0  0  0  0  0  0  0  0  0  0  0  0
    9.3524    5.7850   17.1771 C   0  0  1  0  0  0  0  0  0  0  0  0
    9.1540    6.9042   18.0743 O   0  0  0  0  0  0  0  0  0  0  0  0
   10.6795    6.0038   16.4871 C   0  0  1  0  0  0  0  0  0  0  0  0
   10.5244    5.7096   15.1674 O   0  0  0  0  0  0  0  0  0  0  0  0
   10.7967    7.5057   16.6003 C   0  0  1  0  0  0  0  0  0  0  0  0
   10.0671    8.0080   15.5702 O   0  0  0  0  0  0  0  0  0  0  0  0
   10.1268    7.9043   17.9339 C   0  0  2  0  0  0  0  0  0  0  0  0
    6.1920   -1.8099   20.8371 O   0  0  0  0  0  0  0  0  0  0  0  0
   12.2874    9.0195   22.5451 N   0  0  0  0  0  0  0  0  0  0  0  0
   11.1506    9.5360   21.8368 C   0  0  0  0  0  0  0  0  0  0  0  0
   10.6556    9.1331   20.5717 N   0  0  0  0  0  0  0  0  0  0  0  0
   11.3552    8.1878   20.0813 C   0  0  0  0  0  0  0  0  0  0  0  0
   12.5390    7.5840   20.7329 C   0  0  0  0  0  0  0  0  0  0  0  0
   12.9830    8.0050   21.9244 C   0  0  0  0  0  0  0  0  0  0  0  0
   14.0576    7.3956   22.3814 N   0  0  0  0  0  0  0  0  0  0  0  0
   13.1008    6.6327   20.0260 N   0  0  0  0  0  0  0  0  0  0  0  0
   12.2604    6.6363   18.9280 C   0  0  0  0  0  0  0  0  0  0  0  0
   11.1664    7.5941   18.9524 N   0  0  0  0  0  0  0  0  0  0  0  0
  2  1  1  6  0  0  0
  2  3  1  0  0  0  0
  2  5  1  0  0  0  0
  3  4  1  0  0  0  0
  3 17  1  0  0  0  0
  5  6  1  0  0  0  0
  7  6  1  1  0  0  0
  7  8  1  0  0  0  0
  7  9  1  0  0  0  0
 10  9  1  1  0  0  0
 10 11  1  0  0  0  0
 10 12  1  0  0  0  0
 11 16  1  0  0  0  0
 12 13  1  6  0  0  0
 12 14  1  0  0  0  0
 14 15  1  6  0  0  0
 14 16  1  0  0  0  0
 16 27  1  1  0  0  0
 18 19  2  0  0  0  0
 18 23  1  0  0  0  0
 19 20  1  0  0  0  0
 20 21  2  0  0  0  0
 21 22  1  0  0  0  0
 21 27  1  0  0  0  0
 22 23  2  0  0  0  0
 22 25  1  0  0  0  0
 23 24  1  0  0  0  0
 25 26  2  0  0  0  0
 26 27  1  0  0  0  0
M  END
>  <CHROM.1>
-110.77711574,-61.51131637,-179.89554473,-65.53595696,172.20107462,66.33672123
-103.60511423,9.49052696,5.07006586,19.03496791,-2.80704327,-0.91617599,-1.10505295

>  <Name>
ligand

>  <RI>
0

>  <Rbt.Current_Directory>
/home/itssahil/PROJECTS/Mol_Feturizer/Test_systems_manuscript/rnas/4aob

>  <Rbt.Executable>
rbdock ($Id: //depot/dev/client3/rdock/2013.1/src/exe/rbdock.cxx#4 $)

>  <Rbt.Library>
libRbt.so (2013.1, Build901 2013/11/27)

>  <Rbt.Parameter_File>
/export/apps/rDock/src/rDock_2013.1_src/data/scripts/dock_solv.prm

>  <Rbt.Receptor>
prm/blind_docking_100.prm

>  <SCORE>
-11.344

>  <SCORE.INTER>
-10.8401

>  <SCORE.INTER.CONST>
1

>  <SCORE.INTER.POLAR>
0

>  <SCORE.INTER.ROT>
7

>  <SCORE.INTER.SOLV>
9.03576

>  <SCORE.INTER.VDW>
-18.5053

>  <SCORE.INTER.norm>
-0.401487

>  <SCORE.INTRA>
-0.503849

>  <SCORE.INTRA.DIHEDRAL>
-2.8829

>  <SCORE.INTRA.DIHEDRAL.0>
6.31833

>  <SCORE.INTRA.POLAR>
0

>  <SCORE.INTRA.POLAR.0>
0

>  <SCORE.INTRA.REPUL>
0

>  <SCORE.INTRA.REPUL.0>
0

>  <SCORE.INTRA.SOLV>
-0.135316

>  <SCORE.INTRA.SOLV.lig_0>
-48.4015

>  <SCORE.INTRA.VDW>
1.00526

>  <SCORE.INTRA.VDW.0>
-2.83256

>  <SCORE.INTRA.norm>
-0.0186611

>  <SCORE.RESTR>
0

>  <SCORE.RESTR.CAVITY>
0

>  <SCORE.RESTR.norm>
0

>  <SCORE.SYSTEM>
0

>  <SCORE.SYSTEM.CONST>
0

>  <SCORE.SYSTEM.DIHEDRAL>
0

>  <SCORE.SYSTEM.SOLV>
0

>  <SCORE.SYSTEM.norm>
0

>  <SCORE.heavy>
27

>  <SCORE.norm>
-0.420148

>  <RMSD>
14.210

$$$$
ligand
 OpenBabel02271912153D
libRbt.so/2013.1/901 2013/11/27
 27 29  0  0  0  0  0  0  0  0999 V2000
    6.0250   -0.4200   21.1072 N   0  0  0  0  0  0  0  0  0  0  0  0
    7.0574    0.6097   21.3757 C   0  0  2  0  0  0  0  0  0  0  0  0
    7.0933    0.8526   22.8790 C   0  0  0  0  0  0  0  0  0  0  0  0
    6.0972    1.1373   23.6234 O   0  0  0  0  0  0  0  0  0  0  0  0
    6.7226    1.8648   20.5669 C   0  0  0  0  0  0  0  0  0  0  0  0
    7.0216    1.7059   19.0821 C   0  0  0  0  0  0  0  0  0  0  0  0
    6.8935    3.0801   17.8772 S   0  0  2  0  0  0  0  0  0  0  0  0
    7.8991    2.3869   16.5662 C   0  0  0  0  0  0  0  0  0  0  0  0
    8.0137    4.2539   18.7041 C   0  0  0  0  0  0  0  0  0  0  0  0
    8.0017    5.5980   18.0296 C   0  0  1  0  0  0  0  0  0  0  0  0
    8.6219    6.6290   18.8354 O   0  0  0  0  0  0  0  0  0  0  0  0
    8.6848    5.6226   16.6813 C   0  0  1  0  0  0  0  0  0  0  0  0
    7.7281    5.5117   15.7196 O   0  0  0  0  0  0  0  0  0  0  0  0
    9.1805    7.0495   16.6573 C   0  0  1  0  0  0  0  0  0  0  0  0
    8.1236    7.7968   16.2449 O   0  0  0  0  0  0  0  0  0  0  0  0
    9.5247    7.4247   18.1157 C   0  0  2  0  0  0  0  0  0  0  0  0
    8.2077    0.8222   23.4040 O   0  0  0  0  0  0  0  0  0  0  0  0
   14.3830    7.8807   19.9497 N   0  0  0  0  0  0  0  0  0  0  0  0
   13.2347    8.7419   19.9715 C   0  0  0  0  0  0  0  0  0  0  0  0
   11.9474    8.4912   19.4351 N   0  0  0  0  0  0  0  0  0  0  0  0
   11.8870    7.3371   18.8984 C   0  0  0  0  0  0  0  0  0  0  0  0
   13.0097    6.3752   18.8292 C   0  0  0  0  0  0  0  0  0  0  0  0
   14.2165    6.6580   19.3367 C   0  0  0  0  0  0  0  0  0  0  0  0
   15.1316    5.7220   19.1900 N   0  0  0  0  0  0  0  0  0  0  0  0
   12.7067    5.2560   18.2160 N   0  0  0  0  0  0  0  0  0  0  0  0
   11.3848    5.5159   17.9047 C   0  0  0  0  0  0  0  0  0  0  0  0
   10.8602    6.8040   18.3292 N   0  0  0  0  0  0  0  0  0  0  0  0
  2  1  1  1  0  0  0
  2  3  1  0  0  0  0
  2  5  1  0  0  0  0
  3  4  1  0  0  0  0
  3 17  1  0  0  0  0
  5  6  1  0  0  0  0
  7  6  1  1  0  0  0
  7  8  1  0  0  0  0
  7  9  1  0  0  0  0
 10  9  1  1  0  0  0
 10 11  1  0  0  0  0
 10 12  1  0  0  0  0
 11 16  1  0  0  0  0
 12 13  1  6  0  0  0
 12 14  1  0  0  0  0
 14 15  1  1  0  0  0
 14 16  1  0  0  0  0
 16 27  1  1  0  0  0
 18 19  2  0  0  0  0
 18 23  1  0  0  0  0
 19 20  1  0  0  0  0
 20 21  2  0  0  0  0
 21 22  1  0  0  0  0
 21 27  1  0  0  0  0
 22 23  2  0  0  0  0
 22 25  1  0  0  0  0
 23 24  1  0  0  0  0
 25 26  2  0  0  0  0
 26 27  1  0  0  0  0
M  END
>  <CHROM.1>
-52.70391784,-74.27383459,-173.50554593,160.90644537,-173.00366625,166.19355826
-117.90187844,9.38577264,4.70279528,19.03789459,-2.41687781,-0.51717457,-0.89239141

>  <Name>
ligand

>  <RI>
0

>  <Rbt.Current_Directory>
/home/itssahil/PROJECTS/Mol_Feturizer/Test_systems_manuscript/rnas/4aob

>  <Rbt.Executable>
rbdock ($Id: //depot/dev/client3/rdock/2013.1/src/exe/rbdock.cxx#4 $)

>  <Rbt.Library>
libRbt.so (2013.1, Build901 2013/11/27)

>  <Rbt.Parameter_File>
/export/apps/rDock/src/rDock_2013.1_src/data/scripts/dock_solv.prm

>  <Rbt.Receptor>
prm/blind_docking_40.prm

>  <SCORE>
-11.088

>  <SCORE.INTER>
-11.2352

>  <SCORE.INTER.CONST>
1

>  <SCORE.INTER.POLAR>
0

>  <SCORE.INTER.ROT>
7

>  <SCORE.INTER.SOLV>
13.3415

>  <SCORE.INTER.VDW>
-20.204

>  <SCORE.INTER.norm>
-0.416117

>  <SCORE.INTRA>
0.147137

>  <SCORE.INTRA.DIHEDRAL>
-0.483227

>  <SCORE.INTRA.DIHEDRAL.0>
6.31833

>  <SCORE.INTRA.POLAR>
0

>  <SCORE.INTRA.POLAR.0>
0

>  <SCORE.INTRA.REPUL>
0

>  <SCORE.INTRA.REPUL.0>
0

>  <SCORE.INTRA.SOLV>
0.0173453

>  <SCORE.INTRA.SOLV.lig_0>
-48.4015

>  <SCORE.INTRA.VDW>
0.380078

>  <SCORE.INTRA.VDW.0>
-2.83256

>  <SCORE.INTRA.norm>
0.00544953

>  <SCORE.RESTR>
0

>  <SCORE.RESTR.CAVITY>
0

>  <SCORE.RESTR.norm>
0

>  <SCORE.SYSTEM>
0

>  <SCORE.SYSTEM.CONST>
0

>  <SCORE.SYSTEM.DIHEDRAL>
0

>  <SCORE.SYSTEM.SOLV>
0

>  <SCORE.SYSTEM.norm>
0

>  <SCORE.heavy>
27

>  <SCORE.norm>
-0.410668

>  <RMSD>
14.254

$$$$
ligand
 OpenBabel02271912153D
libRbt.so/2013.1/901 2013/11/27
 27 29  0  0  0  0  0  0  0  0999 V2000
    6.6465    4.7127   17.1526 N   0  0  0  0  0  0  0  0  0  0  0  0
    7.6155    3.6535   17.5237 C   0  0  2  0  0  0  0  0  0  0  0  0
    7.2536    2.3966   16.7430 C   0  0  0  0  0  0  0  0  0  0  0  0
    6.1356    2.1516   16.1794 O   0  0  0  0  0  0  0  0  0  0  0  0
    7.5732    3.4577   19.0408 C   0  0  0  0  0  0  0  0  0  0  0  0
    6.1818    3.1072   19.5510 C   0  0  0  0  0  0  0  0  0  0  0  0
    5.8638    2.4351   21.2254 S   0  0  2  0  0  0  0  0  0  0  0  0
    6.7221    3.6806   22.1859 C   0  0  0  0  0  0  0  0  0  0  0  0
    7.0397    1.0455   21.1735 C   0  0  0  0  0  0  0  0  0  0  0  0
    6.9631    0.2097   22.4215 C   0  0  1  0  0  0  0  0  0  0  0  0
    6.0690   -0.9204   22.2788 O   0  0  0  0  0  0  0  0  0  0  0  0
    8.2938   -0.3375   22.8852 C   0  0  1  0  0  0  0  0  0  0  0  0
    8.7669    0.4759   23.8686 O   0  0  0  0  0  0  0  0  0  0  0  0
    7.8420   -1.6200   23.5438 C   0  0  1  0  0  0  0  0  0  0  0  0
    7.4406   -1.2678   24.7929 O   0  0  0  0  0  0  0  0  0  0  0  0
    6.6196   -2.1230   22.7445 C   0  0  2  0  0  0  0  0  0  0  0  0
    8.1153    1.5165   16.7077 O   0  0  0  0  0  0  0  0  0  0  0  0
    6.4724   -5.9771   19.2375 N   0  0  0  0  0  0  0  0  0  0  0  0
    5.6071   -5.5896   20.3153 C   0  0  0  0  0  0  0  0  0  0  0  0
    5.7586   -4.4967   21.2045 N   0  0  0  0  0  0  0  0  0  0  0  0
    6.8078   -3.8251   20.9367 C   0  0  0  0  0  0  0  0  0  0  0  0
    7.7589   -4.1381   19.8467 C   0  0  0  0  0  0  0  0  0  0  0  0
    7.5859   -5.1907   19.0368 C   0  0  0  0  0  0  0  0  0  0  0  0
    8.5166   -5.3663   18.1214 N   0  0  0  0  0  0  0  0  0  0  0  0
    8.7710   -3.3067   19.7765 N   0  0  0  0  0  0  0  0  0  0  0  0
    8.4488   -2.4644   20.8247 C   0  0  0  0  0  0  0  0  0  0  0  0
    7.2267   -2.7714   21.5506 N   0  0  0  0  0  0  0  0  0  0  0  0
  2  1  1  1  0  0  0
  2  3  1  0  0  0  0
  2  5  1  0  0  0  0
  3  4  1  0  0  0  0
  3 17  1  0  0  0  0
  5  6  1  0  0  0  0
  7  6  1  6  0  0  0
  7  8  1  0  0  0  0
  7  9  1  0  0  0  0
 10  9  1  6  0  0  0
 10 11  1  0  0  0  0
 10 12  1  0  0  0  0
 11 16  1  0  0  0  0
 12 13  1  1  0  0  0
 12 14  1  0  0  0  0
 14 15  1  1  0  0  0
 14 16  1  0  0  0  0
 16 27  1  6  0  0  0
 18 19  2  0  0  0  0
 18 23  1  0  0  0  0
 19 20  1  0  0  0  0
 20 21  2  0  0  0  0
 21 22  1  0  0  0  0
 21 27  1  0  0  0  0
 22 23  2  0  0  0  0
 22 25  1  0  0  0  0
 23 24  1  0  0  0  0
 25 26  2  0  0  0  0
 26 27  1  0  0  0  0
M  END
>  <CHROM.1>
-18.37471259,57.18939505,165.28863308,52.62324656,-176.58793203,93.91831177
-109.28097356,7.12396510,-0.50801783,20.46059905,-2.88297178,-1.52498469
1.57103653

>  <Name>
ligand

>  <RI>
0

>  <Rbt.Current_Directory>
/home/itssahil/PROJECTS/Mol_Feturizer/Test_systems_manuscript/rnas/4aob

>  <Rbt.Executable>
rbdock ($Id: //depot/dev/client3/rdock/2013.1/src/exe/rbdock.cxx#4 $)

>  <Rbt.Library>
libRbt.so (2013.1, Build901 2013/11/27)

>  <Rbt.Parameter_File>
/export/apps/rDock/src/rDock_2013.1_src/data/scripts/dock_solv.prm

>  <Rbt.Receptor>
prm/blind_docking_40.prm

>  <SCORE>
-10.8073

>  <SCORE.INTER>
-12.5044

>  <SCORE.INTER.CONST>
1

>  <SCORE.INTER.POLAR>
0

>  <SCORE.INTER.ROT>
7

>  <SCORE.INTER.SOLV>
9.71633

>  <SCORE.INTER.VDW>
-19.8417

>  <SCORE.INTER.norm>
-0.463127

>  <SCORE.INTRA>
1.69717

>  <SCORE.INTRA.DIHEDRAL>
1.19326

>  <SCORE.INTRA.DIHEDRAL.0>
6.31833

>  <SCORE.INTRA.POLAR>
0

>  <SCORE.INTRA.POLAR.0>
0

>  <SCORE.INTRA.REPUL>
0

>  <SCORE.INTRA.REPUL.0>
0

>  <SCORE.INTRA.SOLV>
-0.0963946

>  <SCORE.INTRA.SOLV.lig_0>
-48.4015

>  <SCORE.INTRA.VDW>
1.14874

>  <SCORE.INTRA.VDW.0>
-2.83256

>  <SCORE.INTRA.norm>
0.0628583

>  <SCORE.RESTR>
0

>  <SCORE.RESTR.CAVITY>
0

>  <SCORE.RESTR.norm>
0

>  <SCORE.SYSTEM>
0

>  <SCORE.SYSTEM.CONST>
0

>  <SCORE.SYSTEM.DIHEDRAL>
0

>  <SCORE.SYSTEM.SOLV>
0

>  <SCORE.SYSTEM.norm>
0

>  <SCORE.heavy>
27

>  <SCORE.norm>
-0.400269

>  <RMSD>
14.278

$$$$
ligand
 OpenBabel02271912153D
libRbt.so/2013.1/901 2013/11/27
 27 29  0  0  0  0  0  0  0  0999 V2000
    6.3356    3.3836   16.1142 N   0  0  0  0  0  0  0  0  0  0  0  0
    7.3773    3.3708   17.1692 C   0  0  2  0  0  0  0  0  0  0  0  0
    8.5642    4.1797   16.6619 C   0  0  0  0  0  0  0  0  0  0  0  0
    8.9279    4.3081   15.4459 O   0  0  0  0  0  0  0  0  0  0  0  0
    7.7293    1.9178   17.4956 C   0  0  0  0  0  0  0  0  0  0  0  0
    8.7610    1.7975   18.6092 C   0  0  0  0  0  0  0  0  0  0  0  0
    9.3794    0.1920   19.2388 S   0  0  2  0  0  0  0  0  0  0  0  0
    9.9510   -0.5054   17.6904 C   0  0  0  0  0  0  0  0  0  0  0  0
    7.7703   -0.6172   19.5073 C   0  0  0  0  0  0  0  0  0  0  0  0
    7.9367   -2.0352   19.9800 C   0  0  1  0  0  0  0  0  0  0  0  0
    8.4992   -2.1139   21.3121 O   0  0  0  0  0  0  0  0  0  0  0  0
    6.6568   -2.8395   19.9945 C   0  0  1  0  0  0  0  0  0  0  0  0
    6.6118   -3.5846   18.8564 O   0  0  0  0  0  0  0  0  0  0  0  0
    6.9463   -3.7844   21.1371 C   0  0  1  0  0  0  0  0  0  0  0  0
    7.6871   -4.7894   20.6017 O   0  0  0  0  0  0  0  0  0  0  0  0
    7.8127   -3.0040   22.1502 C   0  0  2  0  0  0  0  0  0  0  0  0
    9.2640    4.7107   17.5260 O   0  0  0  0  0  0  0  0  0  0  0  0
    6.0718   -1.1945   26.7186 N   0  0  0  0  0  0  0  0  0  0  0  0
    7.1964   -2.0027   26.3408 C   0  0  0  0  0  0  0  0  0  0  0  0
    7.5689   -2.4240   25.0402 N   0  0  0  0  0  0  0  0  0  0  0  0
    6.7615   -1.9781   24.1610 C   0  0  0  0  0  0  0  0  0  0  0  0
    5.5790   -1.1351   24.4466 C   0  0  0  0  0  0  0  0  0  0  0  0
    5.2538   -0.7710   25.6939 C   0  0  0  0  0  0  0  0  0  0  0  0
    4.1662   -0.0371   25.8096 N   0  0  0  0  0  0  0  0  0  0  0  0
    4.8934   -0.8104   23.3767 N   0  0  0  0  0  0  0  0  0  0  0  0
    5.6543   -1.4485   22.4145 C   0  0  0  0  0  0  0  0  0  0  0  0
    6.8230   -2.1730   22.8879 N   0  0  0  0  0  0  0  0  0  0  0  0
  2  1  1  6  0  0  0
  2  3  1  0  0  0  0
  2  5  1  0  0  0  0
  3  4  1  0  0  0  0
  3 17  1  0  0  0  0
  5  6  1  0  0  0  0
  7  6  1  6  0  0  0
  7  8  1  0  0  0  0
  7  9  1  0  0  0  0
 10  9  1  1  0  0  0
 10 11  1  0  0  0  0
 10 12  1  0  0  0  0
 11 16  1  0  0  0  0
 12 13  1  6  0  0  0
 12 14  1  0  0  0  0
 14 15  1  6  0  0  0
 14 16  1  0  0  0  0
 16 27  1  1  0  0  0
 18 19  2  0  0  0  0
 18 23  1  0  0  0  0
 19 20  1  0  0  0  0
 20 21  2  0  0  0  0
 21 22  1  0  0  0  0
 21 27  1  0  0  0  0
 22 23  2  0  0  0  0
 22 25  1  0  0  0  0
 23 24  1  0  0  0  0
 25 26  2  0  0  0  0
 26 27  1  0  0  0  0
M  END
>  <CHROM.1>
-30.54247560,-177.96413719,179.48818646,55.44823478,177.18289330,67.81112070
-117.63406564,7.41704985,-0.44303945,20.77116493,0.86771621,1.18621629,-0.32174697

>  <Name>
ligand

>  <RI>
0

>  <Rbt.Current_Directory>
/home/itssahil/PROJECTS/Mol_Feturizer/Test_systems_manuscript/rnas/4aob

>  <Rbt.Executable>
rbdock ($Id: //depot/dev/client3/rdock/2013.1/src/exe/rbdock.cxx#4 $)

>  <Rbt.Library>
libRbt.so (2013.1, Build901 2013/11/27)

>  <Rbt.Parameter_File>
/export/apps/rDock/src/rDock_2013.1_src/data/scripts/dock_solv.prm

>  <Rbt.Receptor>
prm/blind_docking_60.prm

>  <SCORE>
-11.3277

>  <SCORE.INTER>
-10.2962

>  <SCORE.INTER.CONST>
1

>  <SCORE.INTER.POLAR>
0

>  <SCORE.INTER.ROT>
7

>  <SCORE.INTER.SOLV>
10.3215

>  <SCORE.INTER.VDW>
-18.5713

>  <SCORE.INTER.norm>
-0.381339

>  <SCORE.INTRA>
-1.03153

>  <SCORE.INTRA.DIHEDRAL>
-2.91907

>  <SCORE.INTRA.DIHEDRAL.0>
6.31833

>  <SCORE.INTRA.POLAR>
0

>  <SCORE.INTRA.POLAR.0>
0

>  <SCORE.INTRA.REPUL>
0

>  <SCORE.INTRA.REPUL.0>
0

>  <SCORE.INTRA.SOLV>
-0.86304

>  <SCORE.INTRA.SOLV.lig_0>
-48.4015

>  <SCORE.INTRA.VDW>
0.859524

>  <SCORE.INTRA.VDW.0>
-2.83256

>  <SCORE.INTRA.norm>
-0.0382048

>  <SCORE.RESTR>
0

>  <SCORE.RESTR.CAVITY>
0

>  <SCORE.RESTR.norm>
0

>  <SCORE.SYSTEM>
0

>  <SCORE.SYSTEM.CONST>
0

>  <SCORE.SYSTEM.DIHEDRAL>
0

>  <SCORE.SYSTEM.SOLV>
0

>  <SCORE.SYSTEM.norm>
0

>  <SCORE.heavy>
27

>  <SCORE.norm>
-0.419544

>  <RMSD>
14.371

$$$$
ligand
 OpenBabel02271912153D
libRbt.so/2013.1/901 2013/11/27
 27 29  0  0  0  0  0  0  0  0999 V2000
   10.7776   -2.1259   17.1366 N   0  0  0  0  0  0  0  0  0  0  0  0
    9.6167   -2.0350   18.0544 C   0  0  2  0  0  0  0  0  0  0  0  0
    9.7876   -0.7787   18.8987 C   0  0  0  0  0  0  0  0  0  0  0  0
    9.2425   -0.5465   20.0285 O   0  0  0  0  0  0  0  0  0  0  0  0
    9.5445   -3.3182   18.8850 C   0  0  0  0  0  0  0  0  0  0  0  0
    8.2804   -3.4025   19.7300 C   0  0  0  0  0  0  0  0  0  0  0  0
    7.9113   -4.8035   20.8514 S   0  0  2  0  0  0  0  0  0  0  0  0
    7.6098   -6.0674   19.6176 C   0  0  0  0  0  0  0  0  0  0  0  0
    6.2395   -4.2924   21.3615 C   0  0  0  0  0  0  0  0  0  0  0  0
    6.0024   -4.5571   22.8229 C   0  0  1  0  0  0  0  0  0  0  0  0
    6.8766   -3.7801   23.6767 O   0  0  0  0  0  0  0  0  0  0  0  0
    4.5871   -4.2887   23.2811 C   0  0  1  0  0  0  0  0  0  0  0  0
    3.9185   -5.4738   23.3078 O   0  0  0  0  0  0  0  0  0  0  0  0
    4.8409   -3.8855   24.7148 C   0  0  1  0  0  0  0  0  0  0  0  0
    4.9490   -5.0488   25.4081 O   0  0  0  0  0  0  0  0  0  0  0  0
    6.2029   -3.1570   24.7369 C   0  0  2  0  0  0  0  0  0  0  0  0
   10.4781    0.1140   18.4041 O   0  0  0  0  0  0  0  0  0  0  0  0
    7.8991    1.5079   23.1444 N   0  0  0  0  0  0  0  0  0  0  0  0
    8.5624    0.2894   23.5129 C   0  0  0  0  0  0  0  0  0  0  0  0
    7.9748   -0.9320   23.9264 N   0  0  0  0  0  0  0  0  0  0  0  0
    6.7029   -0.8542   23.9322 C   0  0  0  0  0  0  0  0  0  0  0  0
    5.9261    0.3510   23.5651 C   0  0  0  0  0  0  0  0  0  0  0  0
    6.5222    1.4913   23.1933 C   0  0  0  0  0  0  0  0  0  0  0  0
    5.7144    2.4931   22.9127 N   0  0  0  0  0  0  0  0  0  0  0  0
    4.6280    0.1897   23.6609 N   0  0  0  0  0  0  0  0  0  0  0  0
    4.5911   -1.1261   24.0845 C   0  0  0  0  0  0  0  0  0  0  0  0
    5.8745   -1.7895   24.2508 N   0  0  0  0  0  0  0  0  0  0  0  0
  2  1  1  6  0  0  0
  2  3  1  0  0  0  0
  2  5  1  0  0  0  0
  3  4  1  0  0  0  0
  3 17  1  0  0  0  0
  5  6  1  0  0  0  0
  7  6  1  6  0  0  0
  7  8  1  0  0  0  0
  7  9  1  0  0  0  0
 10  9  1  6  0  0  0
 10 11  1  0  0  0  0
 10 12  1  0  0  0  0
 11 16  1  0  0  0  0
 12 13  1  1  0  0  0
 12 14  1  0  0  0  0
 14 15  1  1  0  0  0
 14 16  1  0  0  0  0
 16 27  1  6  0  0  0
 18 19  2  0  0  0  0
 18 23  1  0  0  0  0
 19 20  1  0  0  0  0
 20 21  2  0  0  0  0
 21 22  1  0  0  0  0
 21 27  1  0  0  0  0
 22 23  2  0  0  0  0
 22 25  1  0  0  0  0
 23 24  1  0  0  0  0
 25 26  2  0  0  0  0
 26 27  1  0  0  0  0
M  END
>  <CHROM.1>
-158.36000712,-172.46264644,-179.08553441,-69.69182375,-140.36389585,63.78848526
-64.08286528,7.13641387,-2.26842036,22.02005810,0.07737837,-0.88828566,-2.86108376

>  <Name>
ligand

>  <RI>
0

>  <Rbt.Current_Directory>
/home/itssahil/PROJECTS/Mol_Feturizer/Test_systems_manuscript/rnas/4aob

>  <Rbt.Executable>
rbdock ($Id: //depot/dev/client3/rdock/2013.1/src/exe/rbdock.cxx#4 $)

>  <Rbt.Library>
libRbt.so (2013.1, Build901 2013/11/27)

>  <Rbt.Parameter_File>
/export/apps/rDock/src/rDock_2013.1_src/data/scripts/dock_solv.prm

>  <Rbt.Receptor>
prm/blind_docking_60.prm

>  <SCORE>
-11.4931

>  <SCORE.INTER>
-12.0776

>  <SCORE.INTER.CONST>
1

>  <SCORE.INTER.POLAR>
0

>  <SCORE.INTER.ROT>
7

>  <SCORE.INTER.SOLV>
9.98621

>  <SCORE.INTER.VDW>
-19.6471

>  <SCORE.INTER.norm>
-0.447317

>  <SCORE.INTRA>
0.584485

>  <SCORE.INTRA.DIHEDRAL>
0.879717

>  <SCORE.INTRA.DIHEDRAL.0>
6.31833

>  <SCORE.INTRA.POLAR>
0

>  <SCORE.INTRA.POLAR.0>
0

>  <SCORE.INTRA.REPUL>
0

>  <SCORE.INTRA.REPUL.0>
0

>  <SCORE.INTRA.SOLV>
-0.770067

>  <SCORE.INTRA.SOLV.lig_0>
-48.4015

>  <SCORE.INTRA.VDW>
0.52966

>  <SCORE.INTRA.VDW.0>
-2.83256

>  <SCORE.INTRA.norm>
0.0216476

>  <SCORE.RESTR>
0

>  <SCORE.RESTR.CAVITY>
0

>  <SCORE.RESTR.norm>
0

>  <SCORE.SYSTEM>
0

>  <SCORE.SYSTEM.CONST>
0

>  <SCORE.SYSTEM.DIHEDRAL>
0

>  <SCORE.SYSTEM.SOLV>
0

>  <SCORE.SYSTEM.norm>
0

>  <SCORE.heavy>
27

>  <SCORE.norm>
-0.425669

>  <RMSD>
14.444

$$$$
ligand
 OpenBabel02271912153D
libRbt.so/2013.1/901 2013/11/27
 27 29  0  0  0  0  0  0  0  0999 V2000
   12.2561    8.0561   18.3468 N   0  0  0  0  0  0  0  0  0  0  0  0
   12.9117    8.1263   19.6748 C   0  0  2  0  0  0  0  0  0  0  0  0
   14.3261    7.5810   19.5256 C   0  0  0  0  0  0  0  0  0  0  0  0
   15.3976    8.2687   19.4447 O   0  0  0  0  0  0  0  0  0  0  0  0
   12.0650    7.3469   20.6834 C   0  0  0  0  0  0  0  0  0  0  0  0
   10.6997    7.9789   20.9194 C   0  0  0  0  0  0  0  0  0  0  0  0
   10.4635    9.5570   21.8197 S   0  0  2  0  0  0  0  0  0  0  0  0
   10.8537    8.9877   23.4733 C   0  0  0  0  0  0  0  0  0  0  0  0
    8.6431    9.5974   21.7968 C   0  0  0  0  0  0  0  0  0  0  0  0
    8.0993   10.5786   22.7985 C   0  0  1  0  0  0  0  0  0  0  0  0
    8.6555   11.9054   22.6343 O   0  0  0  0  0  0  0  0  0  0  0  0
    6.5951   10.7253   22.7708 C   0  0  1  0  0  0  0  0  0  0  0  0
    6.0753    9.9483   23.7600 O   0  0  0  0  0  0  0  0  0  0  0  0
    6.4573   12.1636   23.2123 C   0  0  1  0  0  0  0  0  0  0  0  0
    6.5280   12.1380   24.5687 O   0  0  0  0  0  0  0  0  0  0  0  0
    7.6859   12.9180   22.6576 C   0  0  2  0  0  0  0  0  0  0  0  0
   14.4241    6.3573   19.4184 O   0  0  0  0  0  0  0  0  0  0  0  0
    5.7294   16.1526   19.0681 N   0  0  0  0  0  0  0  0  0  0  0  0
    6.0036   16.2843   20.4710 C   0  0  0  0  0  0  0  0  0  0  0  0
    6.5540   15.3151   21.3460 N   0  0  0  0  0  0  0  0  0  0  0  0
    6.8176   14.2319   20.7288 C   0  0  0  0  0  0  0  0  0  0  0  0
    6.5782   13.9986   19.2870 C   0  0  0  0  0  0  0  0  0  0  0  0
    6.0417   14.9380   18.4974 C   0  0  0  0  0  0  0  0  0  0  0  0
    5.8639   14.5930   17.2387 N   0  0  0  0  0  0  0  0  0  0  0  0
    6.9206   12.7982   18.8842 N   0  0  0  0  0  0  0  0  0  0  0  0
    7.3831   12.2787   20.0793 C   0  0  0  0  0  0  0  0  0  0  0  0
    7.3310   13.1621   21.2333 N   0  0  0  0  0  0  0  0  0  0  0  0
  2  1  1  6  0  0  0
  2  3  1  0  0  0  0
  2  5  1  0  0  0  0
  3  4  1  0  0  0  0
  3 17  1  0  0  0  0
  5  6  1  0  0  0  0
  7  6  1  6  0  0  0
  7  8  1  0  0  0  0
  7  9  1  0  0  0  0
 10  9  1  6  0  0  0
 10 11  1  0  0  0  0
 10 12  1  0  0  0  0
 11 16  1  0  0  0  0
 12 13  1  1  0  0  0
 12 14  1  0  0  0  0
 14 15  1  1  0  0  0
 14 16  1  0  0  0  0
 16 27  1  6  0  0  0
 18 19  2  0  0  0  0
 18 23  1  0  0  0  0
 19 20  1  0  0  0  0
 20 21  2  0  0  0  0
 21 22  1  0  0  0  0
 21 27  1  0  0  0  0
 22 23  2  0  0  0  0
 22 25  1  0  0  0  0
 23 24  1  0  0  0  0
 25 26  2  0  0  0  0
 26 27  1  0  0  0  0
M  END
>  <CHROM.1>
101.94996573,-65.48383095,-70.60429578,-71.11048866,163.72935021,54.14322070
-157.03294881,8.94471684,11.15059838,20.99601203,-0.33025262,0.69635524,-1.01588979

>  <Name>
ligand

>  <RI>
0

>  <Rbt.Current_Directory>
/home/itssahil/PROJECTS/Mol_Feturizer/Test_systems_manuscript/rnas/4aob

>  <Rbt.Executable>
rbdock ($Id: //depot/dev/client3/rdock/2013.1/src/exe/rbdock.cxx#4 $)

>  <Rbt.Library>
libRbt.so (2013.1, Build901 2013/11/27)

>  <Rbt.Parameter_File>
/export/apps/rDock/src/rDock_2013.1_src/data/scripts/dock_solv.prm

>  <Rbt.Receptor>
prm/blind_docking_40.prm

>  <SCORE>
-15.8088

>  <SCORE.INTER>
-14.9642

>  <SCORE.INTER.CONST>
1

>  <SCORE.INTER.POLAR>
0

>  <SCORE.INTER.ROT>
7

>  <SCORE.INTER.SOLV>
16.7957

>  <SCORE.INTER.VDW>
-23.8414

>  <SCORE.INTER.norm>
-0.554231

>  <SCORE.INTRA>
-0.844597

>  <SCORE.INTRA.DIHEDRAL>
-2.56187

>  <SCORE.INTRA.DIHEDRAL.0>
6.31833

>  <SCORE.INTRA.POLAR>
0

>  <SCORE.INTRA.POLAR.0>
0

>  <SCORE.INTRA.REPUL>
0

>  <SCORE.INTRA.REPUL.0>
0

>  <SCORE.INTRA.SOLV>
0.253599

>  <SCORE.INTRA.SOLV.lig_0>
-48.4015

>  <SCORE.INTRA.VDW>
0.309537

>  <SCORE.INTRA.VDW.0>
-2.83256

>  <SCORE.INTRA.norm>
-0.0312814

>  <SCORE.RESTR>
0

>  <SCORE.RESTR.CAVITY>
0

>  <SCORE.RESTR.norm>
0

>  <SCORE.SYSTEM>
0

>  <SCORE.SYSTEM.CONST>
0

>  <SCORE.SYSTEM.DIHEDRAL>
0

>  <SCORE.SYSTEM.SOLV>
0

>  <SCORE.SYSTEM.norm>
0

>  <SCORE.heavy>
27

>  <SCORE.norm>
-0.585513

>  <RMSD>
14.508

$$$$
ligand
 OpenBabel02271912153D
libRbt.so/2013.1/901 2013/11/27
 27 29  0  0  0  0  0  0  0  0999 V2000
    4.7377    0.2141   21.1820 N   0  0  0  0  0  0  0  0  0  0  0  0
    6.0666   -0.1662   21.7183 C   0  0  2  0  0  0  0  0  0  0  0  0
    6.5335    0.9515   22.6419 C   0  0  0  0  0  0  0  0  0  0  0  0
    7.7278    1.1522   23.0430 O   0  0  0  0  0  0  0  0  0  0  0  0
    7.0163   -0.4197   20.5455 C   0  0  0  0  0  0  0  0  0  0  0  0
    7.2682    0.8290   19.7111 C   0  0  0  0  0  0  0  0  0  0  0  0
    8.1282    0.8018   18.0936 S   0  0  2  0  0  0  0  0  0  0  0  0
    9.8013    0.5408   18.6794 C   0  0  0  0  0  0  0  0  0  0  0  0
    8.0696    2.5872   17.7398 C   0  0  0  0  0  0  0  0  0  0  0  0
    6.6549    3.0742   17.5866 C   0  0  1  0  0  0  0  0  0  0  0  0
    5.9775    3.2208   18.8581 O   0  0  0  0  0  0  0  0  0  0  0  0
    6.5279    4.3964   16.8651 C   0  0  1  0  0  0  0  0  0  0  0  0
    6.2196    4.1413   15.5642 O   0  0  0  0  0  0  0  0  0  0  0  0
    5.2815    4.9421   17.5218 C   0  0  1  0  0  0  0  0  0  0  0  0
    4.2405    4.3705   16.8622 O   0  0  0  0  0  0  0  0  0  0  0  0
    5.2914    4.4374   18.9817 C   0  0  2  0  0  0  0  0  0  0  0  0
    5.6522    1.6927   23.0802 O   0  0  0  0  0  0  0  0  0  0  0  0
    8.3564    5.4091   23.0849 N   0  0  0  0  0  0  0  0  0  0  0  0
    7.5593    4.2814   22.6933 C   0  0  0  0  0  0  0  0  0  0  0  0
    6.7654    4.1380   21.5284 N   0  0  0  0  0  0  0  0  0  0  0  0
    6.8343    5.1754   20.7916 C   0  0  0  0  0  0  0  0  0  0  0  0
    7.6296    6.3842   21.1027 C   0  0  0  0  0  0  0  0  0  0  0  0
    8.3558    6.4847   22.2237 C   0  0  0  0  0  0  0  0  0  0  0  0
    9.0000    7.6219   22.3870 N   0  0  0  0  0  0  0  0  0  0  0  0
    7.5314    7.3266   20.1957 N   0  0  0  0  0  0  0  0  0  0  0  0
    6.6746    6.7020   19.3082 C   0  0  0  0  0  0  0  0  0  0  0  0
    6.2385    5.3609   19.6632 N   0  0  0  0  0  0  0  0  0  0  0  0
  2  1  1  6  0  0  0
  2  3  1  0  0  0  0
  2  5  1  0  0  0  0
  3  4  1  0  0  0  0
  3 17  1  0  0  0  0
  5  6  1  0  0  0  0
  7  6  1  1  0  0  0
  7  8  1  0  0  0  0
  7  9  1  0  0  0  0
 10  9  1  1  0  0  0
 10 11  1  0  0  0  0
 10 12  1  0  0  0  0
 11 16  1  0  0  0  0
 12 13  1  6  0  0  0
 12 14  1  0  0  0  0
 14 15  1  6  0  0  0
 14 16  1  0  0  0  0
 16 27  1  1  0  0  0
 18 19  2  0  0  0  0
 18 23  1  0  0  0  0
 19 20  1  0  0  0  0
 20 21  2  0  0  0  0
 21 22  1  0  0  0  0
 21 27  1  0  0  0  0
 22 23  2  0  0  0  0
 22 25  1  0  0  0  0
 23 24  1  0  0  0  0
 25 26  2  0  0  0  0
 26 27  1  0  0  0  0
M  END
>  <CHROM.1>
-162.48882976,63.86746320,-169.60283485,-74.01678063,-63.65571872,76.73127414
-55.37133401,6.93553723,3.34954569,19.92808943,-1.76204099,-1.37859668,-0.13229577

>  <Name>
ligand

>  <RI>
0

>  <Rbt.Current_Directory>
/home/itssahil/PROJECTS/Mol_Feturizer/Test_systems_manuscript/rnas/4aob

>  <Rbt.Executable>
rbdock ($Id: //depot/dev/client3/rdock/2013.1/src/exe/rbdock.cxx#4 $)

>  <Rbt.Library>
libRbt.so (2013.1, Build901 2013/11/27)

>  <Rbt.Parameter_File>
/export/apps/rDock/src/rDock_2013.1_src/data/scripts/dock_solv.prm

>  <Rbt.Receptor>
prm/blind_docking_100.prm

>  <SCORE>
-11.1561

>  <SCORE.INTER>
-10.4435

>  <SCORE.INTER.CONST>
1

>  <SCORE.INTER.POLAR>
0

>  <SCORE.INTER.ROT>
7

>  <SCORE.INTER.SOLV>
10.454

>  <SCORE.INTER.VDW>
-18.7136

>  <SCORE.INTER.norm>
-0.386796

>  <SCORE.INTRA>
-0.712565

>  <SCORE.INTRA.DIHEDRAL>
-1.71693

>  <SCORE.INTRA.DIHEDRAL.0>
6.31833

>  <SCORE.INTRA.POLAR>
0

>  <SCORE.INTRA.POLAR.0>
0

>  <SCORE.INTRA.REPUL>
0

>  <SCORE.INTRA.REPUL.0>
0

>  <SCORE.INTRA.SOLV>
0.255347

>  <SCORE.INTRA.SOLV.lig_0>
-48.4015

>  <SCORE.INTRA.VDW>
0.0182252

>  <SCORE.INTRA.VDW.0>
-2.83256

>  <SCORE.INTRA.norm>
-0.0263913

>  <SCORE.RESTR>
0

>  <SCORE.RESTR.CAVITY>
0

>  <SCORE.RESTR.norm>
0

>  <SCORE.SYSTEM>
0

>  <SCORE.SYSTEM.CONST>
0

>  <SCORE.SYSTEM.DIHEDRAL>
0

>  <SCORE.SYSTEM.SOLV>
0

>  <SCORE.SYSTEM.norm>
0

>  <SCORE.heavy>
27

>  <SCORE.norm>
-0.413187

>  <RMSD>
14.520

$$$$
ligand
 OpenBabel02271912153D
libRbt.so/2013.1/901 2013/11/27
 27 29  0  0  0  0  0  0  0  0999 V2000
    8.2435   -5.3117   26.6737 N   0  0  0  0  0  0  0  0  0  0  0  0
    7.3382   -4.1444   26.8000 C   0  0  2  0  0  0  0  0  0  0  0  0
    5.9354   -4.6703   27.0754 C   0  0  0  0  0  0  0  0  0  0  0  0
    5.5012   -5.8409   26.8132 O   0  0  0  0  0  0  0  0  0  0  0  0
    7.4319   -3.3085   25.5217 C   0  0  0  0  0  0  0  0  0  0  0  0
    6.6734   -1.9917   25.6220 C   0  0  0  0  0  0  0  0  0  0  0  0
    6.1856   -0.9978   24.1623 S   0  0  2  0  0  0  0  0  0  0  0  0
    5.1684   -2.2165   23.3311 C   0  0  0  0  0  0  0  0  0  0  0  0
    7.7663   -1.0697   23.2609 C   0  0  0  0  0  0  0  0  0  0  0  0
    7.7815   -0.1197   22.0950 C   0  0  1  0  0  0  0  0  0  0  0  0
    9.0730   -0.0622   21.4427 O   0  0  0  0  0  0  0  0  0  0  0  0
    6.7613   -0.4336   21.0247 C   0  0  1  0  0  0  0  0  0  0  0  0
    5.6783    0.3663   21.2240 O   0  0  0  0  0  0  0  0  0  0  0  0
    7.4837    0.0868   19.8042 C   0  0  1  0  0  0  0  0  0  0  0  0
    7.2432    1.4236   19.7793 O   0  0  0  0  0  0  0  0  0  0  0  0
    8.9909   -0.1499   20.0456 C   0  0  2  0  0  0  0  0  0  0  0  0
    5.1375   -3.8580   27.5465 O   0  0  0  0  0  0  0  0  0  0  0  0
   11.5889   -3.8093   17.3934 N   0  0  0  0  0  0  0  0  0  0  0  0
   11.7379   -2.3869   17.5171 C   0  0  0  0  0  0  0  0  0  0  0  0
   10.9570   -1.4931   18.2913 N   0  0  0  0  0  0  0  0  0  0  0  0
   10.0440   -2.1113   18.9300 C   0  0  0  0  0  0  0  0  0  0  0  0
    9.8117   -3.5719   18.8744 C   0  0  0  0  0  0  0  0  0  0  0  0
   10.5650   -4.3802   18.1173 C   0  0  0  0  0  0  0  0  0  0  0  0
   10.2384   -5.6560   18.1438 N   0  0  0  0  0  0  0  0  0  0  0  0
    8.8033   -3.9728   19.6111 N   0  0  0  0  0  0  0  0  0  0  0  0
    8.4055   -2.7571   20.1361 C   0  0  0  0  0  0  0  0  0  0  0  0
    9.1728   -1.5918   19.7261 N   0  0  0  0  0  0  0  0  0  0  0  0
  2  1  1  6  0  0  0
  2  3  1  0  0  0  0
  2  5  1  0  0  0  0
  3  4  1  0  0  0  0
  3 17  1  0  0  0  0
  5  6  1  0  0  0  0
  7  6  1  1  0  0  0
  7  8  1  0  0  0  0
  7  9  1  0  0  0  0
 10  9  1  1  0  0  0
 10 11  1  0  0  0  0
 10 12  1  0  0  0  0
 11 16  1  0  0  0  0
 12 13  1  1  0  0  0
 12 14  1  0  0  0  0
 14 15  1  1  0  0  0
 14 16  1  0  0  0  0
 16 27  1  1  0  0  0
 18 19  2  0  0  0  0
 18 23  1  0  0  0  0
 19 20  1  0  0  0  0
 20 21  2  0  0  0  0
 21 22  1  0  0  0  0
 21 27  1  0  0  0  0
 22 23  2  0  0  0  0
 22 25  1  0  0  0  0
 23 24  1  0  0  0  0
 25 26  2  0  0  0  0
 26 27  1  0  0  0  0
M  END
>  <CHROM.1>
-21.42855399,-172.70239974,-162.06348004,59.50061738,-169.59858526,174.28907102
-124.90967003,7.96502445,-2.27671144,22.01654229,-2.40882271,0.93789603,-0.67373721

>  <Name>
ligand

>  <RI>
0

>  <Rbt.Current_Directory>
/home/itssahil/PROJECTS/Mol_Feturizer/Test_systems_manuscript/rnas/4aob

>  <Rbt.Executable>
rbdock ($Id: //depot/dev/client3/rdock/2013.1/src/exe/rbdock.cxx#4 $)

>  <Rbt.Library>
libRbt.so (2013.1, Build901 2013/11/27)

>  <Rbt.Parameter_File>
/export/apps/rDock/src/rDock_2013.1_src/data/scripts/dock_solv.prm

>  <Rbt.Receptor>
prm/blind_docking_80.prm

>  <SCORE>
-9.56394

>  <SCORE.INTER>
-9.57748

>  <SCORE.INTER.CONST>
1

>  <SCORE.INTER.POLAR>
0

>  <SCORE.INTER.ROT>
7

>  <SCORE.INTER.SOLV>
9.9341

>  <SCORE.INTER.VDW>
-17.963

>  <SCORE.INTER.norm>
-0.354721

>  <SCORE.INTRA>
0.0135427

>  <SCORE.INTRA.DIHEDRAL>
-0.675911

>  <SCORE.INTRA.DIHEDRAL.0>
6.31833

>  <SCORE.INTRA.POLAR>
0

>  <SCORE.INTRA.POLAR.0>
0

>  <SCORE.INTRA.REPUL>
0

>  <SCORE.INTRA.REPUL.0>
0

>  <SCORE.INTRA.SOLV>
-0.556802

>  <SCORE.INTRA.SOLV.lig_0>
-48.4015

>  <SCORE.INTRA.VDW>
0.629899

>  <SCORE.INTRA.VDW.0>
-2.83256

>  <SCORE.INTRA.norm>
0.000501581

>  <SCORE.RESTR>
0

>  <SCORE.RESTR.CAVITY>
0

>  <SCORE.RESTR.norm>
0

>  <SCORE.SYSTEM>
0

>  <SCORE.SYSTEM.CONST>
0

>  <SCORE.SYSTEM.DIHEDRAL>
0

>  <SCORE.SYSTEM.SOLV>
0

>  <SCORE.SYSTEM.norm>
0

>  <SCORE.heavy>
27

>  <SCORE.norm>
-0.35422

>  <RMSD>
14.564

$$$$
ligand
 OpenBabel02271912153D
libRbt.so/2013.1/901 2013/11/27
 27 29  0  0  0  0  0  0  0  0999 V2000
   11.3964   -2.1785   16.5859 N   0  0  0  0  0  0  0  0  0  0  0  0
    9.9970   -2.4821   16.2014 C   0  0  2  0  0  0  0  0  0  0  0  0
    9.6677   -1.6656   14.9584 C   0  0  0  0  0  0  0  0  0  0  0  0
    9.8804   -0.4184   14.7941 O   0  0  0  0  0  0  0  0  0  0  0  0
    9.0826   -2.1736   17.3890 C   0  0  0  0  0  0  0  0  0  0  0  0
    9.3018   -3.1191   18.5624 C   0  0  0  0  0  0  0  0  0  0  0  0
    8.2381   -3.1352   20.0540 S   0  0  2  0  0  0  0  0  0  0  0  0
    6.6404   -3.2240   19.2477 C   0  0  0  0  0  0  0  0  0  0  0  0
    8.3964   -1.3774   20.5030 C   0  0  0  0  0  0  0  0  0  0  0  0
    7.8505   -1.1068   21.8781 C   0  0  1  0  0  0  0  0  0  0  0  0
    8.3887    0.1048   22.4605 O   0  0  0  0  0  0  0  0  0  0  0  0
    6.3444   -0.9923   21.9370 C   0  0  1  0  0  0  0  0  0  0  0  0
    5.8441   -2.1902   22.3459 O   0  0  0  0  0  0  0  0  0  0  0  0
    6.1933   -0.0272   23.0895 C   0  0  1  0  0  0  0  0  0  0  0  0
    6.2778   -0.7847   24.2141 O   0  0  0  0  0  0  0  0  0  0  0  0
    7.4069    0.9267   23.0320 C   0  0  2  0  0  0  0  0  0  0  0  0
    9.0899   -2.2700   14.0533 O   0  0  0  0  0  0  0  0  0  0  0  0
    6.9919    5.8994   21.5237 N   0  0  0  0  0  0  0  0  0  0  0  0
    7.4954    5.2663   22.7096 C   0  0  0  0  0  0  0  0  0  0  0  0
    7.5606    3.8802   22.9965 N   0  0  0  0  0  0  0  0  0  0  0  0
    7.1085    3.1860   22.0283 C   0  0  0  0  0  0  0  0  0  0  0  0
    6.5737    3.7413   20.7649 C   0  0  0  0  0  0  0  0  0  0  0  0
    6.5165    5.0604   20.5396 C   0  0  0  0  0  0  0  0  0  0  0  0
    5.9999    5.4205   19.3827 N   0  0  0  0  0  0  0  0  0  0  0  0
    6.1556    2.8264   19.9232 N   0  0  0  0  0  0  0  0  0  0  0  0
    6.4358    1.6910   20.6611 C   0  0  0  0  0  0  0  0  0  0  0  0
    7.0349    1.9000   21.9696 N   0  0  0  0  0  0  0  0  0  0  0  0
  2  1  1  1  0  0  0
  2  3  1  0  0  0  0
  2  5  1  0  0  0  0
  3  4  1  0  0  0  0
  3 17  1  0  0  0  0
  5  6  1  0  0  0  0
  7  6  1  6  0  0  0
  7  8  1  0  0  0  0
  7  9  1  0  0  0  0
 10  9  1  6  0  0  0
 10 11  1  0  0  0  0
 10 12  1  0  0  0  0
 11 16  1  0  0  0  0
 12 13  1  1  0  0  0
 12 14  1  0  0  0  0
 14 15  1  1  0  0  0
 14 16  1  0  0  0  0
 16 27  1  6  0  0  0
 18 19  2  0  0  0  0
 18 23  1  0  0  0  0
 19 20  1  0  0  0  0
 20 21  2  0  0  0  0
 21 22  1  0  0  0  0
 21 27  1  0  0  0  0
 22 23  2  0  0  0  0
 22 25  1  0  0  0  0
 23 24  1  0  0  0  0
 25 26  2  0  0  0  0
 26 27  1  0  0  0  0
M  END
>  <CHROM.1>
-48.74175940,-67.58901987,-172.80597547,50.29632897,-168.26761917,158.32242872
-121.55129009,7.74024926,0.19653587,20.10195664,-0.48416655,1.20696827,-0.30729269

>  <Name>
ligand

>  <RI>
0

>  <Rbt.Current_Directory>
/home/itssahil/PROJECTS/Mol_Feturizer/Test_systems_manuscript/rnas/4aob

>  <Rbt.Executable>
rbdock ($Id: //depot/dev/client3/rdock/2013.1/src/exe/rbdock.cxx#4 $)

>  <Rbt.Library>
libRbt.so (2013.1, Build901 2013/11/27)

>  <Rbt.Parameter_File>
/export/apps/rDock/src/rDock_2013.1_src/data/scripts/dock_solv.prm

>  <Rbt.Receptor>
prm/blind_docking_100.prm

>  <SCORE>
-8.63593

>  <SCORE.INTER>
-9.17704

>  <SCORE.INTER.CONST>
1

>  <SCORE.INTER.POLAR>
0

>  <SCORE.INTER.ROT>
7

>  <SCORE.INTER.SOLV>
5.60534

>  <SCORE.INTER.VDW>
-16.2531

>  <SCORE.INTER.norm>
-0.33989

>  <SCORE.INTRA>
0.541106

>  <SCORE.INTRA.DIHEDRAL>
-0.133439

>  <SCORE.INTRA.DIHEDRAL.0>
6.31833

>  <SCORE.INTRA.POLAR>
0

>  <SCORE.INTRA.POLAR.0>
0

>  <SCORE.INTRA.REPUL>
0

>  <SCORE.INTRA.REPUL.0>
0

>  <SCORE.INTRA.SOLV>
0.0293538

>  <SCORE.INTRA.SOLV.lig_0>
-48.4015

>  <SCORE.INTRA.VDW>
0.593148

>  <SCORE.INTRA.VDW.0>
-2.83256

>  <SCORE.INTRA.norm>
0.020041

>  <SCORE.RESTR>
0

>  <SCORE.RESTR.CAVITY>
0

>  <SCORE.RESTR.norm>
0

>  <SCORE.SYSTEM>
0

>  <SCORE.SYSTEM.CONST>
0

>  <SCORE.SYSTEM.DIHEDRAL>
0

>  <SCORE.SYSTEM.SOLV>
0

>  <SCORE.SYSTEM.norm>
0

>  <SCORE.heavy>
27

>  <SCORE.norm>
-0.319849

>  <RMSD>
14.576

$$$$
ligand
 OpenBabel02271912153D
libRbt.so/2013.1/901 2013/11/27
 27 29  0  0  0  0  0  0  0  0999 V2000
   11.0178    7.0769   18.1673 N   0  0  0  0  0  0  0  0  0  0  0  0
   10.4649    5.8873   17.4763 C   0  0  2  0  0  0  0  0  0  0  0  0
   10.5263    6.1490   15.9769 C   0  0  0  0  0  0  0  0  0  0  0  0
    9.6390    5.8326   15.1167 O   0  0  0  0  0  0  0  0  0  0  0  0
    9.0456    5.6354   17.9898 C   0  0  0  0  0  0  0  0  0  0  0  0
    8.6083    4.1859   17.8252 C   0  0  0  0  0  0  0  0  0  0  0  0
    8.2268    3.4283   16.2013 S   0  0  2  0  0  0  0  0  0  0  0  0
    6.6760    4.2622   15.8697 C   0  0  0  0  0  0  0  0  0  0  0  0
    7.7135    1.7857   16.7970 C   0  0  0  0  0  0  0  0  0  0  0  0
    8.8885    0.9809   17.2803 C   0  0  1  0  0  0  0  0  0  0  0  0
    9.3141    1.3637   18.6104 O   0  0  0  0  0  0  0  0  0  0  0  0
    8.6504   -0.5116   17.3067 C   0  0  1  0  0  0  0  0  0  0  0  0
    9.1849   -1.0460   16.1749 O   0  0  0  0  0  0  0  0  0  0  0  0
    9.5485   -0.9066   18.4556 C   0  0  1  0  0  0  0  0  0  0  0  0
   10.7943   -1.0158   17.9250 O   0  0  0  0  0  0  0  0  0  0  0  0
    9.5290    0.2680   19.4587 C   0  0  2  0  0  0  0  0  0  0  0  0
   11.5641    6.6678   15.5619 O   0  0  0  0  0  0  0  0  0  0  0  0
    7.0988   -0.4521   24.0139 N   0  0  0  0  0  0  0  0  0  0  0  0
    8.4691   -0.2258   23.6510 C   0  0  0  0  0  0  0  0  0  0  0  0
    9.0067   -0.0337   22.3541 N   0  0  0  0  0  0  0  0  0  0  0  0
    8.0941   -0.0697   21.4655 C   0  0  0  0  0  0  0  0  0  0  0  0
    6.6559   -0.2907   21.7366 C   0  0  0  0  0  0  0  0  0  0  0  0
    6.1909   -0.4830   22.9779 C   0  0  0  0  0  0  0  0  0  0  0  0
    4.8935   -0.6879   23.0765 N   0  0  0  0  0  0  0  0  0  0  0  0
    5.9118   -0.2976   20.6565 N   0  0  0  0  0  0  0  0  0  0  0  0
    6.8886   -0.0732   19.7039 C   0  0  0  0  0  0  0  0  0  0  0  0
    8.2494    0.0771   20.1940 N   0  0  0  0  0  0  0  0  0  0  0  0
  2  1  1  1  0  0  0
  2  3  1  0  0  0  0
  2  5  1  0  0  0  0
  3  4  1  0  0  0  0
  3 17  1  0  0  0  0
  5  6  1  0  0  0  0
  7  6  1  1  0  0  0
  7  8  1  0  0  0  0
  7  9  1  0  0  0  0
 10  9  1  1  0  0  0
 10 11  1  0  0  0  0
 10 12  1  0  0  0  0
 11 16  1  0  0  0  0
 12 13  1  6  0  0  0
 12 14  1  0  0  0  0
 14 15  1  6  0  0  0
 14 16  1  0  0  0  0
 16 27  1  1  0  0  0
 18 19  2  0  0  0  0
 18 23  1  0  0  0  0
 19 20  1  0  0  0  0
 20 21  2  0  0  0  0
 21 22  1  0  0  0  0
 21 27  1  0  0  0  0
 22 23  2  0  0  0  0
 22 25  1  0  0  0  0
 23 24  1  0  0  0  0
 25 26  2  0  0  0  0
 26 27  1  0  0  0  0
M  END
>  <CHROM.1>
-140.47349618,-155.83969873,-71.17505566,-71.81694168,-72.40381521,79.14738058
-131.19915455,8.58160465,1.89512013,18.72164873,0.40903215,1.24288556,0.38691412

>  <Name>
ligand

>  <RI>
0

>  <Rbt.Current_Directory>
/home/itssahil/PROJECTS/Mol_Feturizer/Test_systems_manuscript/rnas/4aob

>  <Rbt.Executable>
rbdock ($Id: //depot/dev/client3/rdock/2013.1/src/exe/rbdock.cxx#4 $)

>  <Rbt.Library>
libRbt.so (2013.1, Build901 2013/11/27)

>  <Rbt.Parameter_File>
/export/apps/rDock/src/rDock_2013.1_src/data/scripts/dock_solv.prm

>  <Rbt.Receptor>
prm/blind_docking_40.prm

>  <SCORE>
-15.2892

>  <SCORE.INTER>
-15.0498

>  <SCORE.INTER.CONST>
1

>  <SCORE.INTER.POLAR>
0

>  <SCORE.INTER.ROT>
7

>  <SCORE.INTER.SOLV>
9.3181

>  <SCORE.INTER.VDW>
-21.4059

>  <SCORE.INTER.norm>
-0.557398

>  <SCORE.INTRA>
-0.239423

>  <SCORE.INTRA.DIHEDRAL>
0.449184

>  <SCORE.INTRA.DIHEDRAL.0>
6.31833

>  <SCORE.INTRA.POLAR>
0

>  <SCORE.INTRA.POLAR.0>
0

>  <SCORE.INTRA.REPUL>
0

>  <SCORE.INTRA.REPUL.0>
0

>  <SCORE.INTRA.SOLV>
-0.597445

>  <SCORE.INTRA.SOLV.lig_0>
-48.4015

>  <SCORE.INTRA.VDW>
-0.165292

>  <SCORE.INTRA.VDW.0>
-2.83256

>  <SCORE.INTRA.norm>
-0.00886751

>  <SCORE.RESTR>
0

>  <SCORE.RESTR.CAVITY>
0

>  <SCORE.RESTR.norm>
0

>  <SCORE.SYSTEM>
0

>  <SCORE.SYSTEM.CONST>
0

>  <SCORE.SYSTEM.DIHEDRAL>
0

>  <SCORE.SYSTEM.SOLV>
0

>  <SCORE.SYSTEM.norm>
0

>  <SCORE.heavy>
27

>  <SCORE.norm>
-0.566266

>  <RMSD>
14.587

$$$$
ligand
 OpenBabel02271912153D
libRbt.so/2013.1/901 2013/11/27
 27 29  0  0  0  0  0  0  0  0999 V2000
    6.4462   16.2999   20.0977 N   0  0  0  0  0  0  0  0  0  0  0  0
    7.6426   15.4937   19.7558 C   0  0  2  0  0  0  0  0  0  0  0  0
    7.9969   15.7791   18.3021 C   0  0  0  0  0  0  0  0  0  0  0  0
    9.1702   15.8174   17.8028 O   0  0  0  0  0  0  0  0  0  0  0  0
    7.3361   14.0191   20.0267 C   0  0  0  0  0  0  0  0  0  0  0  0
    7.0583   13.7357   21.4969 C   0  0  0  0  0  0  0  0  0  0  0  0
    6.8998   12.0443   22.1830 S   0  0  2  0  0  0  0  0  0  0  0  0
    6.9955   12.4479   23.9262 C   0  0  0  0  0  0  0  0  0  0  0  0
    8.5739   11.4470   21.7871 C   0  0  0  0  0  0  0  0  0  0  0  0
    8.7452    9.9986   22.1539 C   0  0  1  0  0  0  0  0  0  0  0  0
    7.7233    9.1538   21.5716 O   0  0  0  0  0  0  0  0  0  0  0  0
   10.0804    9.4111   21.7575 C   0  0  1  0  0  0  0  0  0  0  0  0
   10.8928    9.4308   22.8493 O   0  0  0  0  0  0  0  0  0  0  0  0
    9.6818    7.9730   21.5220 C   0  0  1  0  0  0  0  0  0  0  0  0
    9.6784    7.3890   22.7485 O   0  0  0  0  0  0  0  0  0  0  0  0
    8.2390    7.9966   20.9708 C   0  0  2  0  0  0  0  0  0  0  0  0
    7.0517   16.0520   17.5600 O   0  0  0  0  0  0  0  0  0  0  0  0
    9.6511    6.4703   16.1905 N   0  0  0  0  0  0  0  0  0  0  0  0
    9.5332    5.7904   17.4493 C   0  0  0  0  0  0  0  0  0  0  0  0
    9.1229    6.3276   18.6947 N   0  0  0  0  0  0  0  0  0  0  0  0
    8.8321    7.5640   18.5914 C   0  0  0  0  0  0  0  0  0  0  0  0
    8.9149    8.3522   17.3414 C   0  0  0  0  0  0  0  0  0  0  0  0
    9.3223    7.8083   16.1872 C   0  0  0  0  0  0  0  0  0  0  0  0
    9.3688    8.6258   15.1555 N   0  0  0  0  0  0  0  0  0  0  0  0
    8.5747    9.6103   17.4891 N   0  0  0  0  0  0  0  0  0  0  0  0
    8.2710    9.6087   18.8381 C   0  0  0  0  0  0  0  0  0  0  0  0
    8.4203    8.3408   19.5345 N   0  0  0  0  0  0  0  0  0  0  0  0
  2  1  1  6  0  0  0
  2  3  1  0  0  0  0
  2  5  1  0  0  0  0
  3  4  1  0  0  0  0
  3 17  1  0  0  0  0
  5  6  1  0  0  0  0
  7  6  1  6  0  0  0
  7  8  1  0  0  0  0
  7  9  1  0  0  0  0
 10  9  1  6  0  0  0
 10 11  1  0  0  0  0
 10 12  1  0  0  0  0
 11 16  1  0  0  0  0
 12 13  1  1  0  0  0
 12 14  1  0  0  0  0
 14 15  1  1  0  0  0
 14 16  1  0  0  0  0
 16 27  1  6  0  0  0
 18 19  2  0  0  0  0
 18 23  1  0  0  0  0
 19 20  1  0  0  0  0
 20 21  2  0  0  0  0
 21 22  1  0  0  0  0
 21 27  1  0  0  0  0
 22 23  2  0  0  0  0
 22 25  1  0  0  0  0
 23 24  1  0  0  0  0
 25 26  2  0  0  0  0
 26 27  1  0  0  0  0
M  END
>  <CHROM.1>
145.89018713,-63.25386543,-170.82278586,166.80182801,-176.09483263,53.50275562
-177.59871687,8.44381250,10.63133852,19.88911660,-3.04131198,-1.32480386
1.84269095

>  <Name>
ligand

>  <RI>
0

>  <Rbt.Current_Directory>
/home/itssahil/PROJECTS/Mol_Feturizer/Test_systems_manuscript/rnas/4aob

>  <Rbt.Executable>
rbdock ($Id: //depot/dev/client3/rdock/2013.1/src/exe/rbdock.cxx#4 $)

>  <Rbt.Library>
libRbt.so (2013.1, Build901 2013/11/27)

>  <Rbt.Parameter_File>
/export/apps/rDock/src/rDock_2013.1_src/data/scripts/dock_solv.prm

>  <Rbt.Receptor>
prm/blind_docking_40.prm

>  <SCORE>
-15.1828

>  <SCORE.INTER>
-14.3185

>  <SCORE.INTER.CONST>
1

>  <SCORE.INTER.POLAR>
0

>  <SCORE.INTER.ROT>
7

>  <SCORE.INTER.SOLV>
18.2059

>  <SCORE.INTER.VDW>
-23.881

>  <SCORE.INTER.norm>
-0.530314

>  <SCORE.INTRA>
-0.864375

>  <SCORE.INTRA.DIHEDRAL>
-1.99965

>  <SCORE.INTRA.DIHEDRAL.0>
6.31833

>  <SCORE.INTRA.POLAR>
0

>  <SCORE.INTRA.POLAR.0>
0

>  <SCORE.INTRA.REPUL>
0

>  <SCORE.INTRA.REPUL.0>
0

>  <SCORE.INTRA.SOLV>
-0.0669645

>  <SCORE.INTRA.SOLV.lig_0>
-48.4015

>  <SCORE.INTRA.VDW>
0.168931

>  <SCORE.INTRA.VDW.0>
-2.83256

>  <SCORE.INTRA.norm>
-0.0320139

>  <SCORE.RESTR>
0

>  <SCORE.RESTR.CAVITY>
0

>  <SCORE.RESTR.norm>
0

>  <SCORE.SYSTEM>
0

>  <SCORE.SYSTEM.CONST>
0

>  <SCORE.SYSTEM.DIHEDRAL>
0

>  <SCORE.SYSTEM.SOLV>
0

>  <SCORE.SYSTEM.norm>
0

>  <SCORE.heavy>
27

>  <SCORE.norm>
-0.562328

>  <RMSD>
14.617

$$$$
ligand
 OpenBabel02271912153D
libRbt.so/2013.1/901 2013/11/27
 27 29  0  0  0  0  0  0  0  0999 V2000
   13.6207    8.4437   19.4205 N   0  0  0  0  0  0  0  0  0  0  0  0
   13.0608    7.1985   19.9987 C   0  0  2  0  0  0  0  0  0  0  0  0
   14.1507    6.5428   20.8368 C   0  0  0  0  0  0  0  0  0  0  0  0
   15.4058    6.5842   20.6121 O   0  0  0  0  0  0  0  0  0  0  0  0
   12.5558    6.3106   18.8593 C   0  0  0  0  0  0  0  0  0  0  0  0
   11.5737    7.0289   17.9437 C   0  0  0  0  0  0  0  0  0  0  0  0
   10.6853    6.1998   16.5726 S   0  0  2  0  0  0  0  0  0  0  0  0
   10.1509    7.6556   15.6750 C   0  0  0  0  0  0  0  0  0  0  0  0
    9.1994    5.6941   17.4961 C   0  0  0  0  0  0  0  0  0  0  0  0
    8.1279    5.1743   16.5776 C   0  0  1  0  0  0  0  0  0  0  0  0
    8.4137    3.8413   16.0896 O   0  0  0  0  0  0  0  0  0  0  0  0
    6.7485    5.1310   17.1943 C   0  0  1  0  0  0  0  0  0  0  0  0
    6.0719    6.2434   16.7975 O   0  0  0  0  0  0  0  0  0  0  0  0
    6.1575    3.9578   16.4482 C   0  0  1  0  0  0  0  0  0  0  0  0
    5.7196    4.4602   15.2645 O   0  0  0  0  0  0  0  0  0  0  0  0
    7.3167    2.9727   16.1798 C   0  0  2  0  0  0  0  0  0  0  0  0
   13.7637    5.8640   21.7896 O   0  0  0  0  0  0  0  0  0  0  0  0
   10.0126   -0.4295   19.0663 N   0  0  0  0  0  0  0  0  0  0  0  0
   10.1978    0.1133   17.7504 C   0  0  0  0  0  0  0  0  0  0  0  0
    9.3826    1.0540   17.0732 N   0  0  0  0  0  0  0  0  0  0  0  0
    8.3970    1.4159   17.7953 C   0  0  0  0  0  0  0  0  0  0  0  0
    8.1216    0.9207   19.1626 C   0  0  0  0  0  0  0  0  0  0  0  0
    8.9107    0.0192   19.7614 C   0  0  0  0  0  0  0  0  0  0  0  0
    8.5406   -0.3508   20.9701 N   0  0  0  0  0  0  0  0  0  0  0  0
    7.0398    1.4323   19.6996 N   0  0  0  0  0  0  0  0  0  0  0  0
    6.6386    2.2573   18.6651 C   0  0  0  0  0  0  0  0  0  0  0  0
    7.4774    2.2619   17.4772 N   0  0  0  0  0  0  0  0  0  0  0  0
  2  1  1  6  0  0  0
  2  3  1  0  0  0  0
  2  5  1  0  0  0  0
  3  4  1  0  0  0  0
  3 17  1  0  0  0  0
  5  6  1  0  0  0  0
  7  6  1  1  0  0  0
  7  8  1  0  0  0  0
  7  9  1  0  0  0  0
 10  9  1  1  0  0  0
 10 11  1  0  0  0  0
 10 12  1  0  0  0  0
 11 16  1  0  0  0  0
 12 13  1  6  0  0  0
 12 14  1  0  0  0  0
 14 15  1  6  0  0  0
 14 16  1  0  0  0  0
 16 27  1  1  0  0  0
 18 19  2  0  0  0  0
 18 23  1  0  0  0  0
 19 20  1  0  0  0  0
 20 21  2  0  0  0  0
 21 22  1  0  0  0  0
 21 27  1  0  0  0  0
 22 23  2  0  0  0  0
 22 25  1  0  0  0  0
 23 24  1  0  0  0  0
 25 26  2  0  0  0  0
 26 27  1  0  0  0  0
M  END
>  <CHROM.1>
-32.16755694,-54.14310958,-174.75071479,-163.85920449,170.06554108,75.35090764
-67.16018450,9.61850894,4.20118645,18.09505439,0.48533663,-0.56961131,-0.44366110

>  <Name>
ligand

>  <RI>
0

>  <Rbt.Current_Directory>
/home/itssahil/PROJECTS/Mol_Feturizer/Test_systems_manuscript/rnas/4aob

>  <Rbt.Executable>
rbdock ($Id: //depot/dev/client3/rdock/2013.1/src/exe/rbdock.cxx#4 $)

>  <Rbt.Library>
libRbt.so (2013.1, Build901 2013/11/27)

>  <Rbt.Parameter_File>
/export/apps/rDock/src/rDock_2013.1_src/data/scripts/dock_solv.prm

>  <Rbt.Receptor>
prm/blind_docking_100.prm

>  <SCORE>
-15.9992

>  <SCORE.INTER>
-16.2418

>  <SCORE.INTER.CONST>
1

>  <SCORE.INTER.POLAR>
0

>  <SCORE.INTER.ROT>
7

>  <SCORE.INTER.SOLV>
13.6098

>  <SCORE.INTER.VDW>
-23.6311

>  <SCORE.INTER.norm>
-0.601547

>  <SCORE.INTRA>
0.242621

>  <SCORE.INTRA.DIHEDRAL>
-0.776837

>  <SCORE.INTRA.DIHEDRAL.0>
6.31833

>  <SCORE.INTRA.POLAR>
0

>  <SCORE.INTRA.POLAR.0>
0

>  <SCORE.INTRA.REPUL>
0

>  <SCORE.INTRA.REPUL.0>
0

>  <SCORE.INTRA.SOLV>
-0.0502227

>  <SCORE.INTRA.SOLV.lig_0>
-48.4015

>  <SCORE.INTRA.VDW>
0.656151

>  <SCORE.INTRA.VDW.0>
-2.83256

>  <SCORE.INTRA.norm>
0.00898597

>  <SCORE.RESTR>
0

>  <SCORE.RESTR.CAVITY>
0

>  <SCORE.RESTR.norm>
0

>  <SCORE.SYSTEM>
0

>  <SCORE.SYSTEM.CONST>
0

>  <SCORE.SYSTEM.DIHEDRAL>
0

>  <SCORE.SYSTEM.SOLV>
0

>  <SCORE.SYSTEM.norm>
0

>  <SCORE.heavy>
27

>  <SCORE.norm>
-0.592561

>  <RMSD>
14.649

$$$$
ligand
 OpenBabel02271912153D
libRbt.so/2013.1/901 2013/11/27
 27 29  0  0  0  0  0  0  0  0999 V2000
    6.5695    6.7301   23.7644 N   0  0  0  0  0  0  0  0  0  0  0  0
    6.0623    5.5689   22.9946 C   0  0  2  0  0  0  0  0  0  0  0  0
    7.2547    4.8951   22.3279 C   0  0  0  0  0  0  0  0  0  0  0  0
    7.2092    4.0370   21.3850 O   0  0  0  0  0  0  0  0  0  0  0  0
    5.0094    6.0605   21.9991 C   0  0  0  0  0  0  0  0  0  0  0  0
    5.5581    7.0927   21.0230 C   0  0  0  0  0  0  0  0  0  0  0  0
    6.8063    6.7008   19.7404 S   0  0  2  0  0  0  0  0  0  0  0  0
    6.7566    8.2444   18.8319 C   0  0  0  0  0  0  0  0  0  0  0  0
    5.7935    5.5739   18.7302 C   0  0  0  0  0  0  0  0  0  0  0  0
    6.5088    5.1659   17.4718 C   0  0  1  0  0  0  0  0  0  0  0  0
    7.8479    4.6778   17.7278 O   0  0  0  0  0  0  0  0  0  0  0  0
    5.7973    4.0996   16.6707 C   0  0  1  0  0  0  0  0  0  0  0  0
    5.1042    4.7117   15.6720 O   0  0  0  0  0  0  0  0  0  0  0  0
    6.9801    3.4069   16.0353 C   0  0  1  0  0  0  0  0  0  0  0  0
    7.2979    4.1523   14.9450 O   0  0  0  0  0  0  0  0  0  0  0  0
    8.1391    3.4833   17.0536 C   0  0  2  0  0  0  0  0  0  0  0  0
    8.3614    5.1744   22.7923 O   0  0  0  0  0  0  0  0  0  0  0  0
    9.6322   -0.9278   19.3961 N   0  0  0  0  0  0  0  0  0  0  0  0
   10.2744   -0.0325   18.4761 C   0  0  0  0  0  0  0  0  0  0  0  0
    9.7531    1.1581   17.9114 N   0  0  0  0  0  0  0  0  0  0  0  0
    8.5738    1.3920   18.3335 C   0  0  0  0  0  0  0  0  0  0  0  0
    7.8289    0.5363   19.2840 C   0  0  0  0  0  0  0  0  0  0  0  0
    8.3537   -0.5902   19.7834 C   0  0  0  0  0  0  0  0  0  0  0  0
    7.5767   -1.2681   20.6030 N   0  0  0  0  0  0  0  0  0  0  0  0
    6.6255    0.9795   19.5593 N   0  0  0  0  0  0  0  0  0  0  0  0
    6.6189    2.1228   18.7816 C   0  0  0  0  0  0  0  0  0  0  0  0
    7.8269    2.3950   18.0192 N   0  0  0  0  0  0  0  0  0  0  0  0
  2  1  1  6  0  0  0
  2  3  1  0  0  0  0
  2  5  1  0  0  0  0
  3  4  1  0  0  0  0
  3 17  1  0  0  0  0
  5  6  1  0  0  0  0
  7  6  1  1  0  0  0
  7  8  1  0  0  0  0
  7  9  1  0  0  0  0
 10  9  1  1  0  0  0
 10 11  1  0  0  0  0
 10 12  1  0  0  0  0
 11 16  1  0  0  0  0
 12 13  1  6  0  0  0
 12 14  1  0  0  0  0
 14 15  1  6  0  0  0
 14 16  1  0  0  0  0
 16 27  1  1  0  0  0
 18 19  2  0  0  0  0
 18 23  1  0  0  0  0
 19 20  1  0  0  0  0
 20 21  2  0  0  0  0
 21 22  1  0  0  0  0
 21 27  1  0  0  0  0
 22 23  2  0  0  0  0
 22 25  1  0  0  0  0
 23 24  1  0  0  0  0
 25 26  2  0  0  0  0
 26 27  1  0  0  0  0
M  END
>  <CHROM.1>
-165.26448504,59.30566995,67.53346088,170.85120671,174.10916959,50.63994332
-131.06957745,7.21836110,3.77920305,19.24471298,-2.63280139,1.20859861,-1.71054742

>  <Name>
ligand

>  <RI>
0

>  <Rbt.Current_Directory>
/home/itssahil/PROJECTS/Mol_Feturizer/Test_systems_manuscript/rnas/4aob

>  <Rbt.Executable>
rbdock ($Id: //depot/dev/client3/rdock/2013.1/src/exe/rbdock.cxx#4 $)

>  <Rbt.Library>
libRbt.so (2013.1, Build901 2013/11/27)

>  <Rbt.Parameter_File>
/export/apps/rDock/src/rDock_2013.1_src/data/scripts/dock_solv.prm

>  <Rbt.Receptor>
prm/blind_docking_40.prm

>  <SCORE>
-12.7283

>  <SCORE.INTER>
-11.1269

>  <SCORE.INTER.CONST>
1

>  <SCORE.INTER.POLAR>
0

>  <SCORE.INTER.ROT>
7

>  <SCORE.INTER.SOLV>
7.75764

>  <SCORE.INTER.VDW>
-18.2705

>  <SCORE.INTER.norm>
-0.412107

>  <SCORE.INTRA>
-1.6014

>  <SCORE.INTRA.DIHEDRAL>
-2.76683

>  <SCORE.INTRA.DIHEDRAL.0>
6.31833

>  <SCORE.INTRA.POLAR>
0

>  <SCORE.INTRA.POLAR.0>
0

>  <SCORE.INTRA.REPUL>
0

>  <SCORE.INTRA.REPUL.0>
0

>  <SCORE.INTRA.SOLV>
0.516528

>  <SCORE.INTRA.SOLV.lig_0>
-48.4015

>  <SCORE.INTRA.VDW>
-0.476254

>  <SCORE.INTRA.VDW.0>
-2.83256

>  <SCORE.INTRA.norm>
-0.0593112

>  <SCORE.RESTR>
0

>  <SCORE.RESTR.CAVITY>
0

>  <SCORE.RESTR.norm>
0

>  <SCORE.SYSTEM>
0

>  <SCORE.SYSTEM.CONST>
0

>  <SCORE.SYSTEM.DIHEDRAL>
0

>  <SCORE.SYSTEM.SOLV>
0

>  <SCORE.SYSTEM.norm>
0

>  <SCORE.heavy>
27

>  <SCORE.norm>
-0.471418

>  <RMSD>
14.667

$$$$
ligand
 OpenBabel02271912153D
libRbt.so/2013.1/901 2013/11/27
 27 29  0  0  0  0  0  0  0  0999 V2000
   13.9577    6.6462   20.9758 N   0  0  0  0  0  0  0  0  0  0  0  0
   13.1461    7.4094   19.9974 C   0  0  2  0  0  0  0  0  0  0  0  0
   12.1637    8.2720   20.7792 C   0  0  0  0  0  0  0  0  0  0  0  0
   11.2104    7.8540   21.5168 O   0  0  0  0  0  0  0  0  0  0  0  0
   12.4634    6.4223   19.0481 C   0  0  0  0  0  0  0  0  0  0  0  0
   11.7062    7.1150   17.9229 C   0  0  0  0  0  0  0  0  0  0  0  0
   10.8925    6.2115   16.5524 S   0  0  2  0  0  0  0  0  0  0  0  0
   10.2539    7.6164   15.6419 C   0  0  0  0  0  0  0  0  0  0  0  0
    9.4440    5.5994   17.4708 C   0  0  0  0  0  0  0  0  0  0  0  0
    8.3636    5.1181   16.5419 C   0  0  1  0  0  0  0  0  0  0  0  0
    8.5915    3.7650   16.0789 O   0  0  0  0  0  0  0  0  0  0  0  0
    6.9737    5.1520   17.1352 C   0  0  1  0  0  0  0  0  0  0  0  0
    6.3592    6.2896   16.7102 O   0  0  0  0  0  0  0  0  0  0  0  0
    6.3381    3.9973   16.3969 C   0  0  1  0  0  0  0  0  0  0  0  0
    5.9450    4.5017   15.1983 O   0  0  0  0  0  0  0  0  0  0  0  0
    7.4518    2.9526   16.1632 C   0  0  2  0  0  0  0  0  0  0  0  0
   12.2789    9.4899   20.6312 O   0  0  0  0  0  0  0  0  0  0  0  0
    9.9359   -0.5234   19.1501 N   0  0  0  0  0  0  0  0  0  0  0  0
   10.1698   -0.0101   17.8301 C   0  0  0  0  0  0  0  0  0  0  0  0
    9.4110    0.9560   17.1238 N   0  0  0  0  0  0  0  0  0  0  0  0
    8.4300    1.3736   17.8217 C   0  0  0  0  0  0  0  0  0  0  0  0
    8.1072    0.9128   19.1907 C   0  0  0  0  0  0  0  0  0  0  0  0
    8.8431   -0.0143   19.8174 C   0  0  0  0  0  0  0  0  0  0  0  0
    8.4344   -0.3482   21.0242 N   0  0  0  0  0  0  0  0  0  0  0  0
    7.0403    1.4813   19.6994 N   0  0  0  0  0  0  0  0  0  0  0  0
    6.6963    2.3076   18.6454 C   0  0  0  0  0  0  0  0  0  0  0  0
    7.5560    2.2555   17.4738 N   0  0  0  0  0  0  0  0  0  0  0  0
  2  1  1  1  0  0  0
  2  3  1  0  0  0  0
  2  5  1  0  0  0  0
  3  4  1  0  0  0  0
  3 17  1  0  0  0  0
  5  6  1  0  0  0  0
  7  6  1  1  0  0  0
  7  8  1  0  0  0  0
  7  9  1  0  0  0  0
 10  9  1  1  0  0  0
 10 11  1  0  0  0  0
 10 12  1  0  0  0  0
 11 16  1  0  0  0  0
 12 13  1  6  0  0  0
 12 14  1  0  0  0  0
 14 15  1  6  0  0  0
 14 16  1  0  0  0  0
 16 27  1  1  0  0  0
 18 19  2  0  0  0  0
 18 23  1  0  0  0  0
 19 20  1  0  0  0  0
 20 21  2  0  0  0  0
 21 22  1  0  0  0  0
 21 27  1  0  0  0  0
 22 23  2  0  0  0  0
 22 25  1  0  0  0  0
 23 24  1  0  0  0  0
 25 26  2  0  0  0  0
 26 27  1  0  0  0  0
M  END
>  <CHROM.1>
-65.12068304,-174.69524437,175.15291244,-179.27546450,164.42038499,82.42412242
-66.94025376,9.42162368,4.39059478,18.14055706,-0.74117060,0.74762323,2.71862702

>  <Name>
ligand

>  <RI>
0

>  <Rbt.Current_Directory>
/home/itssahil/PROJECTS/Mol_Feturizer/Test_systems_manuscript/rnas/4aob

>  <Rbt.Executable>
rbdock ($Id: //depot/dev/client3/rdock/2013.1/src/exe/rbdock.cxx#4 $)

>  <Rbt.Library>
libRbt.so (2013.1, Build901 2013/11/27)

>  <Rbt.Parameter_File>
/export/apps/rDock/src/rDock_2013.1_src/data/scripts/dock_solv.prm

>  <Rbt.Receptor>
prm/blind_docking_60.prm

>  <SCORE>
-16.4628

>  <SCORE.INTER>
-15.9384

>  <SCORE.INTER.CONST>
1

>  <SCORE.INTER.POLAR>
0

>  <SCORE.INTER.ROT>
7

>  <SCORE.INTER.SOLV>
11.8902

>  <SCORE.INTER.VDW>
-22.8557

>  <SCORE.INTER.norm>
-0.590313

>  <SCORE.INTRA>
-0.524355

>  <SCORE.INTRA.DIHEDRAL>
-1.04711

>  <SCORE.INTRA.DIHEDRAL.0>
6.31833

>  <SCORE.INTRA.POLAR>
0

>  <SCORE.INTRA.POLAR.0>
0

>  <SCORE.INTRA.REPUL>
0

>  <SCORE.INTRA.REPUL.0>
0

>  <SCORE.INTRA.SOLV>
-0.805759

>  <SCORE.INTRA.SOLV.lig_0>
-48.4015

>  <SCORE.INTRA.VDW>
0.402077

>  <SCORE.INTRA.VDW.0>
-2.83256

>  <SCORE.INTRA.norm>
-0.0194206

>  <SCORE.RESTR>
0

>  <SCORE.RESTR.CAVITY>
0

>  <SCORE.RESTR.norm>
0

>  <SCORE.SYSTEM>
0

>  <SCORE.SYSTEM.CONST>
0

>  <SCORE.SYSTEM.DIHEDRAL>
0

>  <SCORE.SYSTEM.SOLV>
0

>  <SCORE.SYSTEM.norm>
0

>  <SCORE.heavy>
27

>  <SCORE.norm>
-0.609733

>  <RMSD>
14.673

$$$$
ligand
 OpenBabel02271912153D
libRbt.so/2013.1/901 2013/11/27
 27 29  0  0  0  0  0  0  0  0999 V2000
   13.9885    6.5316   20.8827 N   0  0  0  0  0  0  0  0  0  0  0  0
   13.1383    7.3222   19.9605 C   0  0  2  0  0  0  0  0  0  0  0  0
   12.1580    8.1264   20.8045 C   0  0  0  0  0  0  0  0  0  0  0  0
   11.2196    7.6552   21.5290 O   0  0  0  0  0  0  0  0  0  0  0  0
   12.4530    6.3662   18.9817 C   0  0  0  0  0  0  0  0  0  0  0  0
   11.6547    7.0943   17.9085 C   0  0  0  0  0  0  0  0  0  0  0  0
   10.7865    6.2347   16.5433 S   0  0  2  0  0  0  0  0  0  0  0  0
   10.2341    7.6709   15.6253 C   0  0  0  0  0  0  0  0  0  0  0  0
    9.3040    5.7170   17.4655 C   0  0  0  0  0  0  0  0  0  0  0  0
    8.2264    5.2161   16.5436 C   0  0  1  0  0  0  0  0  0  0  0  0
    8.4790    3.8697   16.0742 O   0  0  0  0  0  0  0  0  0  0  0  0
    6.8410    5.2189   17.1482 C   0  0  1  0  0  0  0  0  0  0  0  0
    6.1994    6.3448   16.7320 O   0  0  0  0  0  0  0  0  0  0  0  0
    6.2239    4.0535   16.4109 C   0  0  1  0  0  0  0  0  0  0  0  0
    5.8106    4.5535   15.2173 O   0  0  0  0  0  0  0  0  0  0  0  0
    7.3573    3.0333   16.1648 C   0  0  2  0  0  0  0  0  0  0  0  0
   12.2582    9.3521   20.7267 O   0  0  0  0  0  0  0  0  0  0  0  0
    9.9442   -0.3915   19.1235 N   0  0  0  0  0  0  0  0  0  0  0  0
   10.1573    0.1321   17.8040 C   0  0  0  0  0  0  0  0  0  0  0  0
    9.3707    1.0819   17.1060 N   0  0  0  0  0  0  0  0  0  0  0  0
    8.3841    1.4727   17.8114 C   0  0  0  0  0  0  0  0  0  0  0  0
    8.0812    0.9993   19.1806 C   0  0  0  0  0  0  0  0  0  0  0  0
    8.8435    0.0882   19.7994 C   0  0  0  0  0  0  0  0  0  0  0  0
    8.4505   -0.2599   21.0074 N   0  0  0  0  0  0  0  0  0  0  0  0
    7.0039    1.5396   19.6979 N   0  0  0  0  0  0  0  0  0  0  0  0
    6.6332    2.3610   18.6492 C   0  0  0  0  0  0  0  0  0  0  0  0
    7.4867    2.3342   17.4721 N   0  0  0  0  0  0  0  0  0  0  0  0
  2  1  1  1  0  0  0
  2  3  1  0  0  0  0
  2  5  1  0  0  0  0
  3  4  1  0  0  0  0
  3 17  1  0  0  0  0
  5  6  1  0  0  0  0
  7  6  1  1  0  0  0
  7  8  1  0  0  0  0
  7  9  1  0  0  0  0
 10  9  1  1  0  0  0
 10 11  1  0  0  0  0
 10 12  1  0  0  0  0
 11 16  1  0  0  0  0
 12 13  1  6  0  0  0
 12 14  1  0  0  0  0
 14 15  1  6  0  0  0
 14 16  1  0  0  0  0
 16 27  1  1  0  0  0
 18 19  2  0  0  0  0
 18 23  1  0  0  0  0
 19 20  1  0  0  0  0
 20 21  2  0  0  0  0
 21 22  1  0  0  0  0
 21 27  1  0  0  0  0
 22 23  2  0  0  0  0
 22 25  1  0  0  0  0
 23 24  1  0  0  0  0
 25 26  2  0  0  0  0
 26 27  1  0  0  0  0
M  END
>  <CHROM.1>
-66.16355515,-174.71300522,176.96320638,-174.74203414,167.98661518,77.71783205
-66.71198103,9.36357360,4.42172192,18.13500743,-0.71685056,0.72346534,2.72682904

>  <Name>
ligand

>  <RI>
0

>  <Rbt.Current_Directory>
/home/itssahil/PROJECTS/Mol_Feturizer/Test_systems_manuscript/rnas/4aob

>  <Rbt.Executable>
rbdock ($Id: //depot/dev/client3/rdock/2013.1/src/exe/rbdock.cxx#4 $)

>  <Rbt.Library>
libRbt.so (2013.1, Build901 2013/11/27)

>  <Rbt.Parameter_File>
/export/apps/rDock/src/rDock_2013.1_src/data/scripts/dock_solv.prm

>  <Rbt.Receptor>
prm/blind_docking_80.prm

>  <SCORE>
-16.5526

>  <SCORE.INTER>
-15.7547

>  <SCORE.INTER.CONST>
1

>  <SCORE.INTER.POLAR>
0

>  <SCORE.INTER.ROT>
7

>  <SCORE.INTER.SOLV>
12.1962

>  <SCORE.INTER.VDW>
-22.8352

>  <SCORE.INTER.norm>
-0.583506

>  <SCORE.INTRA>
-0.797897

>  <SCORE.INTRA.DIHEDRAL>
-1.47248

>  <SCORE.INTRA.DIHEDRAL.0>
6.31833

>  <SCORE.INTRA.POLAR>
0

>  <SCORE.INTRA.POLAR.0>
0

>  <SCORE.INTRA.REPUL>
0

>  <SCORE.INTRA.REPUL.0>
0

>  <SCORE.INTRA.SOLV>
-0.815882

>  <SCORE.INTRA.SOLV.lig_0>
-48.4015

>  <SCORE.INTRA.VDW>
0.346281

>  <SCORE.INTRA.VDW.0>
-2.83256

>  <SCORE.INTRA.norm>
-0.0295518

>  <SCORE.RESTR>
0

>  <SCORE.RESTR.CAVITY>
0

>  <SCORE.RESTR.norm>
0

>  <SCORE.SYSTEM>
0

>  <SCORE.SYSTEM.CONST>
0

>  <SCORE.SYSTEM.DIHEDRAL>
0

>  <SCORE.SYSTEM.SOLV>
0

>  <SCORE.SYSTEM.norm>
0

>  <SCORE.heavy>
27

>  <SCORE.norm>
-0.613058

>  <RMSD>
14.685

$$$$
ligand
 OpenBabel02271912153D
libRbt.so/2013.1/901 2013/11/27
 27 29  0  0  0  0  0  0  0  0999 V2000
    8.2700    8.9771   23.1456 N   0  0  0  0  0  0  0  0  0  0  0  0
    8.2287    9.9045   21.9895 C   0  0  2  0  0  0  0  0  0  0  0  0
    8.5381   11.3045   22.5040 C   0  0  0  0  0  0  0  0  0  0  0  0
    8.7120   11.6417   23.7220 O   0  0  0  0  0  0  0  0  0  0  0  0
    6.8575    9.7945   21.3192 C   0  0  0  0  0  0  0  0  0  0  0  0
    6.6038    8.4180   20.7192 C   0  0  0  0  0  0  0  0  0  0  0  0
    7.6727    7.6680   19.4341 S   0  0  2  0  0  0  0  0  0  0  0  0
    7.5756    8.9692   18.2061 C   0  0  0  0  0  0  0  0  0  0  0  0
    6.5023    6.4130   18.8248 C   0  0  0  0  0  0  0  0  0  0  0  0
    6.9470    5.8346   17.5097 C   0  0  1  0  0  0  0  0  0  0  0  0
    8.1894    5.0987   17.6186 O   0  0  0  0  0  0  0  0  0  0  0  0
    5.9410    4.9073   16.8670 C   0  0  1  0  0  0  0  0  0  0  0  0
    5.2487    5.6150   15.9330 O   0  0  0  0  0  0  0  0  0  0  0  0
    6.8704    3.9758   16.1246 C   0  0  1  0  0  0  0  0  0  0  0  0
    7.1736    4.6112   14.9629 O   0  0  0  0  0  0  0  0  0  0  0  0
    8.1505    3.8510   16.9800 C   0  0  2  0  0  0  0  0  0  0  0  0
    8.5653   12.1974   21.6552 O   0  0  0  0  0  0  0  0  0  0  0  0
    9.3385   -0.4466   19.6808 N   0  0  0  0  0  0  0  0  0  0  0  0
   10.0344    0.3168   18.6841 C   0  0  0  0  0  0  0  0  0  0  0  0
    9.5967    1.4913   18.0232 N   0  0  0  0  0  0  0  0  0  0  0  0
    8.4434    1.8485   18.4308 C   0  0  0  0  0  0  0  0  0  0  0  0
    7.6484    1.1348   19.4551 C   0  0  0  0  0  0  0  0  0  0  0  0
    8.0937    0.0181   20.0456 C   0  0  0  0  0  0  0  0  0  0  0  0
    7.2783   -0.5275   20.9245 N   0  0  0  0  0  0  0  0  0  0  0  0
    6.4850    1.6893   19.6988 N   0  0  0  0  0  0  0  0  0  0  0  0
    6.5543    2.7601   18.8267 C   0  0  0  0  0  0  0  0  0  0  0  0
    7.7698    2.8749   18.0367 N   0  0  0  0  0  0  0  0  0  0  0  0
  2  1  1  1  0  0  0
  2  3  1  0  0  0  0
  2  5  1  0  0  0  0
  3  4  1  0  0  0  0
  3 17  1  0  0  0  0
  5  6  1  0  0  0  0
  7  6  1  1  0  0  0
  7  8  1  0  0  0  0
  7  9  1  0  0  0  0
 10  9  1  1  0  0  0
 10 11  1  0  0  0  0
 10 12  1  0  0  0  0
 11 16  1  0  0  0  0
 12 13  1  6  0  0  0
 12 14  1  0  0  0  0
 14 15  1  6  0  0  0
 14 16  1  0  0  0  0
 16 27  1  1  0  0  0
 18 19  2  0  0  0  0
 18 23  1  0  0  0  0
 19 20  1  0  0  0  0
 20 21  2  0  0  0  0
 21 22  1  0  0  0  0
 21 27  1  0  0  0  0
 22 23  2  0  0  0  0
 22 25  1  0  0  0  0
 23 24  1  0  0  0  0
 25 26  2  0  0  0  0
 26 27  1  0  0  0  0
M  END
>  <CHROM.1>
-4.38641229,-64.35355451,-58.85537024,-56.09642082,165.48027783,64.68494313
-120.80328396,7.66327893,5.45401267,19.23316733,-1.56177890,1.23370093,-2.80832346

>  <Name>
ligand

>  <RI>
0

>  <Rbt.Current_Directory>
/home/itssahil/PROJECTS/Mol_Feturizer/Test_systems_manuscript/rnas/4aob

>  <Rbt.Executable>
rbdock ($Id: //depot/dev/client3/rdock/2013.1/src/exe/rbdock.cxx#4 $)

>  <Rbt.Library>
libRbt.so (2013.1, Build901 2013/11/27)

>  <Rbt.Parameter_File>
/export/apps/rDock/src/rDock_2013.1_src/data/scripts/dock_solv.prm

>  <Rbt.Receptor>
prm/blind_docking_40.prm

>  <SCORE>
-12.2661

>  <SCORE.INTER>
-11.8277

>  <SCORE.INTER.CONST>
1

>  <SCORE.INTER.POLAR>
0

>  <SCORE.INTER.ROT>
7

>  <SCORE.INTER.SOLV>
5.44382

>  <SCORE.INTER.VDW>
-17.9664

>  <SCORE.INTER.norm>
-0.438063

>  <SCORE.INTRA>
-0.438425

>  <SCORE.INTRA.DIHEDRAL>
-2.60764

>  <SCORE.INTRA.DIHEDRAL.0>
6.31833

>  <SCORE.INTRA.POLAR>
0

>  <SCORE.INTRA.POLAR.0>
0

>  <SCORE.INTRA.REPUL>
0

>  <SCORE.INTRA.REPUL.0>
0

>  <SCORE.INTRA.SOLV>
0.372563

>  <SCORE.INTRA.SOLV.lig_0>
-48.4015

>  <SCORE.INTRA.VDW>
0.679111

>  <SCORE.INTRA.VDW.0>
-2.83256

>  <SCORE.INTRA.norm>
-0.016238

>  <SCORE.RESTR>
0

>  <SCORE.RESTR.CAVITY>
0

>  <SCORE.RESTR.norm>
0

>  <SCORE.SYSTEM>
0

>  <SCORE.SYSTEM.CONST>
0

>  <SCORE.SYSTEM.DIHEDRAL>
0

>  <SCORE.SYSTEM.SOLV>
0

>  <SCORE.SYSTEM.norm>
0

>  <SCORE.heavy>
27

>  <SCORE.norm>
-0.454301

>  <RMSD>
14.690

$$$$
ligand
 OpenBabel02271912153D
libRbt.so/2013.1/901 2013/11/27
 27 29  0  0  0  0  0  0  0  0999 V2000
    7.4526    6.5334   18.1731 N   0  0  0  0  0  0  0  0  0  0  0  0
    5.9714    6.5700   18.2280 C   0  0  2  0  0  0  0  0  0  0  0  0
    5.5688    7.6404   19.2342 C   0  0  0  0  0  0  0  0  0  0  0  0
    6.3158    8.1545   20.1316 O   0  0  0  0  0  0  0  0  0  0  0  0
    5.4577    5.1747   18.5895 C   0  0  0  0  0  0  0  0  0  0  0  0
    5.8962    4.1093   17.5936 C   0  0  0  0  0  0  0  0  0  0  0  0
    7.6353    3.5660   17.4018 S   0  0  2  0  0  0  0  0  0  0  0  0
    7.8340    3.9021   15.6530 C   0  0  0  0  0  0  0  0  0  0  0  0
    7.3527    1.7681   17.4651 C   0  0  0  0  0  0  0  0  0  0  0  0
    8.6446    1.0100   17.6004 C   0  0  1  0  0  0  0  0  0  0  0  0
    9.2223    1.1290   18.9229 O   0  0  0  0  0  0  0  0  0  0  0  0
    8.5321   -0.4673   17.3005 C   0  0  1  0  0  0  0  0  0  0  0  0
    8.9420   -0.6719   16.0188 O   0  0  0  0  0  0  0  0  0  0  0  0
    9.6122   -1.0086   18.2076 C   0  0  1  0  0  0  0  0  0  0  0  0
   10.7751   -0.8579   17.5218 O   0  0  0  0  0  0  0  0  0  0  0  0
    9.6414   -0.0985   19.4555 C   0  0  2  0  0  0  0  0  0  0  0  0
    4.3889    7.9944   19.2023 O   0  0  0  0  0  0  0  0  0  0  0  0
    7.4657   -0.6461   24.1609 N   0  0  0  0  0  0  0  0  0  0  0  0
    8.6632   -0.0059   23.6955 C   0  0  0  0  0  0  0  0  0  0  0  0
    9.1448    0.0801   22.3657 N   0  0  0  0  0  0  0  0  0  0  0  0
    8.3537   -0.4959   21.5495 C   0  0  0  0  0  0  0  0  0  0  0  0
    7.0956   -1.1776   21.9274 C   0  0  0  0  0  0  0  0  0  0  0  0
    6.6836   -1.2487   23.1998 C   0  0  0  0  0  0  0  0  0  0  0  0
    5.5570   -1.9012   23.3999 N   0  0  0  0  0  0  0  0  0  0  0  0
    6.4577   -1.7064   20.9106 N   0  0  0  0  0  0  0  0  0  0  0  0
    7.3181   -1.3486   19.8891 C   0  0  0  0  0  0  0  0  0  0  0  0
    8.4980   -0.5895   20.2716 N   0  0  0  0  0  0  0  0  0  0  0  0
  2  1  1  1  0  0  0
  2  3  1  0  0  0  0
  2  5  1  0  0  0  0
  3  4  1  0  0  0  0
  3 17  1  0  0  0  0
  5  6  1  0  0  0  0
  7  6  1  6  0  0  0
  7  8  1  0  0  0  0
  7  9  1  0  0  0  0
 10  9  1  1  0  0  0
 10 11  1  0  0  0  0
 10 12  1  0  0  0  0
 11 16  1  0  0  0  0
 12 13  1  6  0  0  0
 12 14  1  0  0  0  0
 14 15  1  6  0  0  0
 14 16  1  0  0  0  0
 16 27  1  1  0  0  0
 18 19  2  0  0  0  0
 18 23  1  0  0  0  0
 19 20  1  0  0  0  0
 20 21  2  0  0  0  0
 21 22  1  0  0  0  0
 21 27  1  0  0  0  0
 22 23  2  0  0  0  0
 22 25  1  0  0  0  0
 23 24  1  0  0  0  0
 25 26  2  0  0  0  0
 26 27  1  0  0  0  0
M  END
>  <CHROM.1>
-17.68412354,-58.70851638,68.26287118,-123.47545474,-168.87749733,72.92573954
-98.81173250,7.58328547,1.85301469,19.37288694,-2.08889322,-1.06955785,2.32958000

>  <Name>
ligand

>  <RI>
0

>  <Rbt.Current_Directory>
/home/itssahil/PROJECTS/Mol_Feturizer/Test_systems_manuscript/rnas/4aob

>  <Rbt.Executable>
rbdock ($Id: //depot/dev/client3/rdock/2013.1/src/exe/rbdock.cxx#4 $)

>  <Rbt.Library>
libRbt.so (2013.1, Build901 2013/11/27)

>  <Rbt.Parameter_File>
/export/apps/rDock/src/rDock_2013.1_src/data/scripts/dock_solv.prm

>  <Rbt.Receptor>
prm/blind_docking_100.prm

>  <SCORE>
-10.0625

>  <SCORE.INTER>
-12.9697

>  <SCORE.INTER.CONST>
1

>  <SCORE.INTER.POLAR>
0

>  <SCORE.INTER.ROT>
7

>  <SCORE.INTER.SOLV>
6.66452

>  <SCORE.INTER.VDW>
-19.1346

>  <SCORE.INTER.norm>
-0.480359

>  <SCORE.INTRA>
2.9072

>  <SCORE.INTRA.DIHEDRAL>
3.15408

>  <SCORE.INTRA.DIHEDRAL.0>
6.31833

>  <SCORE.INTRA.POLAR>
0

>  <SCORE.INTRA.POLAR.0>
0

>  <SCORE.INTRA.REPUL>
0

>  <SCORE.INTRA.REPUL.0>
0

>  <SCORE.INTRA.SOLV>
1.81392

>  <SCORE.INTRA.SOLV.lig_0>
-48.4015

>  <SCORE.INTRA.VDW>
0.423201

>  <SCORE.INTRA.VDW.0>
-2.83256

>  <SCORE.INTRA.norm>
0.107674

>  <SCORE.RESTR>
0

>  <SCORE.RESTR.CAVITY>
0

>  <SCORE.RESTR.norm>
0

>  <SCORE.SYSTEM>
0

>  <SCORE.SYSTEM.CONST>
0

>  <SCORE.SYSTEM.DIHEDRAL>
0

>  <SCORE.SYSTEM.SOLV>
0

>  <SCORE.SYSTEM.norm>
0

>  <SCORE.heavy>
27

>  <SCORE.norm>
-0.372685

>  <RMSD>
14.695

$$$$
ligand
 OpenBabel02271912153D
libRbt.so/2013.1/901 2013/11/27
 27 29  0  0  0  0  0  0  0  0999 V2000
    8.7068   -3.5539   18.3407 N   0  0  0  0  0  0  0  0  0  0  0  0
    9.0659   -2.1169   18.2748 C   0  0  2  0  0  0  0  0  0  0  0  0
   10.5609   -2.0225   17.9984 C   0  0  0  0  0  0  0  0  0  0  0  0
   11.4324   -2.9238   18.2341 O   0  0  0  0  0  0  0  0  0  0  0  0
    8.6483   -1.4449   19.5846 C   0  0  0  0  0  0  0  0  0  0  0  0
    8.5155    0.0667   19.4549 C   0  0  0  0  0  0  0  0  0  0  0  0
    7.4376    0.8794   18.2164 S   0  0  2  0  0  0  0  0  0  0  0  0
    8.6908    1.3248   17.0156 C   0  0  0  0  0  0  0  0  0  0  0  0
    7.1339    2.4324   19.1177 C   0  0  0  0  0  0  0  0  0  0  0  0
    6.1874    3.3300   18.3692 C   0  0  1  0  0  0  0  0  0  0  0  0
    5.4228    4.1883   19.2498 O   0  0  0  0  0  0  0  0  0  0  0  0
    6.8553    4.2264   17.3516 C   0  0  1  0  0  0  0  0  0  0  0  0
    6.7310    3.6441   16.1277 O   0  0  0  0  0  0  0  0  0  0  0  0
    5.9181    5.4110   17.3810 C   0  0  1  0  0  0  0  0  0  0  0  0
    4.8872    5.0820   16.5597 O   0  0  0  0  0  0  0  0  0  0  0  0
    5.3923    5.5255   18.8289 C   0  0  2  0  0  0  0  0  0  0  0  0
   10.9605   -0.9443   17.5552 O   0  0  0  0  0  0  0  0  0  0  0  0
    8.3574    5.8216   23.1062 N   0  0  0  0  0  0  0  0  0  0  0  0
    7.3168    4.9263   22.6864 C   0  0  0  0  0  0  0  0  0  0  0  0
    6.5833    4.9502   21.4743 N   0  0  0  0  0  0  0  0  0  0  0  0
    6.9653    5.9048   20.7217 C   0  0  0  0  0  0  0  0  0  0  0  0
    8.0301    6.8758   21.0593 C   0  0  0  0  0  0  0  0  0  0  0  0
    8.6897    6.8265   22.2239 C   0  0  0  0  0  0  0  0  0  0  0  0
    9.5989    7.7621   22.4055 N   0  0  0  0  0  0  0  0  0  0  0  0
    8.2361    7.7758   20.1277 N   0  0  0  0  0  0  0  0  0  0  0  0
    7.2993    7.3625   19.1985 C   0  0  0  0  0  0  0  0  0  0  0  0
    6.5066    6.1959   19.5523 N   0  0  0  0  0  0  0  0  0  0  0  0
  2  1  1  1  0  0  0
  2  3  1  0  0  0  0
  2  5  1  0  0  0  0
  3  4  1  0  0  0  0
  3 17  1  0  0  0  0
  5  6  1  0  0  0  0
  7  6  1  1  0  0  0
  7  8  1  0  0  0  0
  7  9  1  0  0  0  0
 10  9  1  1  0  0  0
 10 11  1  0  0  0  0
 10 12  1  0  0  0  0
 11 16  1  0  0  0  0
 12 13  1  6  0  0  0
 12 14  1  0  0  0  0
 14 15  1  6  0  0  0
 14 16  1  0  0  0  0
 16 27  1  1  0  0  0
 18 19  2  0  0  0  0
 18 23  1  0  0  0  0
 19 20  1  0  0  0  0
 20 21  2  0  0  0  0
 21 22  1  0  0  0  0
 21 27  1  0  0  0  0
 22 23  2  0  0  0  0
 22 25  1  0  0  0  0
 23 24  1  0  0  0  0
 25 26  2  0  0  0  0
 26 27  1  0  0  0  0
M  END
>  <CHROM.1>
-22.35904401,-159.94918989,55.57609644,-101.12901544,-177.07152818,151.32475072
-31.02142355,7.77455943,3.03595394,19.14195550,-1.16645017,-0.85393745,0.58729491

>  <Name>
ligand

>  <RI>
0

>  <Rbt.Current_Directory>
/home/itssahil/PROJECTS/Mol_Feturizer/Test_systems_manuscript/rnas/4aob

>  <Rbt.Executable>
rbdock ($Id: //depot/dev/client3/rdock/2013.1/src/exe/rbdock.cxx#4 $)

>  <Rbt.Library>
libRbt.so (2013.1, Build901 2013/11/27)

>  <Rbt.Parameter_File>
/export/apps/rDock/src/rDock_2013.1_src/data/scripts/dock_solv.prm

>  <Rbt.Receptor>
prm/blind_docking_100.prm

>  <SCORE>
-8.60523

>  <SCORE.INTER>
-9.78818

>  <SCORE.INTER.CONST>
1

>  <SCORE.INTER.POLAR>
0

>  <SCORE.INTER.ROT>
7

>  <SCORE.INTER.SOLV>
6.81315

>  <SCORE.INTER.VDW>
-17.0632

>  <SCORE.INTER.norm>
-0.362525

>  <SCORE.INTRA>
1.18295

>  <SCORE.INTRA.DIHEDRAL>
3.68114

>  <SCORE.INTRA.DIHEDRAL.0>
6.31833

>  <SCORE.INTRA.POLAR>
0

>  <SCORE.INTRA.POLAR.0>
0

>  <SCORE.INTRA.REPUL>
0

>  <SCORE.INTRA.REPUL.0>
0

>  <SCORE.INTRA.SOLV>
-0.420927

>  <SCORE.INTRA.SOLV.lig_0>
-48.4015

>  <SCORE.INTRA.VDW>
-0.447159

>  <SCORE.INTRA.VDW.0>
-2.83256

>  <SCORE.INTRA.norm>
0.043813

>  <SCORE.RESTR>
0

>  <SCORE.RESTR.CAVITY>
0

>  <SCORE.RESTR.norm>
0

>  <SCORE.SYSTEM>
0

>  <SCORE.SYSTEM.CONST>
0

>  <SCORE.SYSTEM.DIHEDRAL>
0

>  <SCORE.SYSTEM.SOLV>
0

>  <SCORE.SYSTEM.norm>
0

>  <SCORE.heavy>
27

>  <SCORE.norm>
-0.318712

>  <RMSD>
14.700

$$$$
ligand
 OpenBabel02271912153D
libRbt.so/2013.1/901 2013/11/27
 27 29  0  0  0  0  0  0  0  0999 V2000
   12.8316    7.5888   21.1419 N   0  0  0  0  0  0  0  0  0  0  0  0
   12.0316    8.5682   20.3679 C   0  0  2  0  0  0  0  0  0  0  0  0
   11.2497    9.4191   21.3603 C   0  0  0  0  0  0  0  0  0  0  0  0
   11.5011    9.5545   22.6037 O   0  0  0  0  0  0  0  0  0  0  0  0
   11.1379    7.8071   19.3862 C   0  0  0  0  0  0  0  0  0  0  0  0
   11.9264    6.8880   18.4628 C   0  0  0  0  0  0  0  0  0  0  0  0
   11.2115    6.1127   16.9646 S   0  0  2  0  0  0  0  0  0  0  0  0
   10.9781    7.5905   15.9786 C   0  0  0  0  0  0  0  0  0  0  0  0
    9.5487    5.7665   17.6215 C   0  0  0  0  0  0  0  0  0  0  0  0
    8.6117    5.3056   16.5391 C   0  0  1  0  0  0  0  0  0  0  0  0
    8.8727    3.9438   16.1217 O   0  0  0  0  0  0  0  0  0  0  0  0
    7.1485    5.3792   16.9113 C   0  0  1  0  0  0  0  0  0  0  0  0
    6.6366    6.5287   16.3927 O   0  0  0  0  0  0  0  0  0  0  0  0
    6.6041    4.2353   16.0881 C   0  0  1  0  0  0  0  0  0  0  0  0
    6.4132    4.7404   14.8415 O   0  0  0  0  0  0  0  0  0  0  0  0
    7.7127    3.1611   16.0324 C   0  0  2  0  0  0  0  0  0  0  0  0
   10.2472    9.9815   20.9163 O   0  0  0  0  0  0  0  0  0  0  0  0
    9.7068   -0.2325   19.4504 N   0  0  0  0  0  0  0  0  0  0  0  0
   10.1627    0.2830   18.1906 C   0  0  0  0  0  0  0  0  0  0  0  0
    9.5188    1.2247   17.3500 N   0  0  0  0  0  0  0  0  0  0  0  0
    8.4160    1.6162   17.8543 C   0  0  0  0  0  0  0  0  0  0  0  0
    7.8624    1.1508   19.1457 C   0  0  0  0  0  0  0  0  0  0  0  0
    8.4972    0.2472   19.9036 C   0  0  0  0  0  0  0  0  0  0  0  0
    7.8851   -0.0943   21.0187 N   0  0  0  0  0  0  0  0  0  0  0  0
    6.7054    1.6901   19.4471 N   0  0  0  0  0  0  0  0  0  0  0  0
    6.5362    2.5028   18.3412 C   0  0  0  0  0  0  0  0  0  0  0  0
    7.5959    2.4715   17.3459 N   0  0  0  0  0  0  0  0  0  0  0  0
  2  1  1  1  0  0  0
  2  3  1  0  0  0  0
  2  5  1  0  0  0  0
  3  4  1  0  0  0  0
  3 17  1  0  0  0  0
  5  6  1  0  0  0  0
  7  6  1  1  0  0  0
  7  8  1  0  0  0  0
  7  9  1  0  0  0  0
 10  9  1  1  0  0  0
 10 11  1  0  0  0  0
 10 12  1  0  0  0  0
 11 16  1  0  0  0  0
 12 13  1  6  0  0  0
 12 14  1  0  0  0  0
 14 15  1  6  0  0  0
 14 16  1  0  0  0  0
 16 27  1  1  0  0  0
 18 19  2  0  0  0  0
 18 23  1  0  0  0  0
 19 20  1  0  0  0  0
 20 21  2  0  0  0  0
 21 22  1  0  0  0  0
 21 27  1  0  0  0  0
 22 23  2  0  0  0  0
 22 25  1  0  0  0  0
 23 24  1  0  0  0  0
 25 26  2  0  0  0  0
 26 27  1  0  0  0  0
M  END
>  <CHROM.1>
18.61781332,-56.19222026,-166.87926230,67.59039635,170.95735689,74.42201652
-63.44139252,9.27805306,4.76462067,18.27772097,-0.68755534,0.98525778,2.62764199

>  <Name>
ligand

>  <RI>
0

>  <Rbt.Current_Directory>
/home/itssahil/PROJECTS/Mol_Feturizer/Test_systems_manuscript/rnas/4aob

>  <Rbt.Executable>
rbdock ($Id: //depot/dev/client3/rdock/2013.1/src/exe/rbdock.cxx#4 $)

>  <Rbt.Library>
libRbt.so (2013.1, Build901 2013/11/27)

>  <Rbt.Parameter_File>
/export/apps/rDock/src/rDock_2013.1_src/data/scripts/dock_solv.prm

>  <Rbt.Receptor>
prm/blind_docking_100.prm

>  <SCORE>
-15.5707

>  <SCORE.INTER>
-16.7493

>  <SCORE.INTER.CONST>
1

>  <SCORE.INTER.POLAR>
0

>  <SCORE.INTER.ROT>
7

>  <SCORE.INTER.SOLV>
9.02877

>  <SCORE.INTER.VDW>
-22.4425

>  <SCORE.INTER.norm>
-0.620344

>  <SCORE.INTRA>
1.17859

>  <SCORE.INTRA.DIHEDRAL>
-1.05279

>  <SCORE.INTRA.DIHEDRAL.0>
6.31833

>  <SCORE.INTRA.POLAR>
0

>  <SCORE.INTRA.POLAR.0>
0

>  <SCORE.INTRA.REPUL>
0

>  <SCORE.INTRA.REPUL.0>
0

>  <SCORE.INTRA.SOLV>
-0.0485974

>  <SCORE.INTRA.SOLV.lig_0>
-48.4015

>  <SCORE.INTRA.VDW>
1.72928

>  <SCORE.INTRA.VDW.0>
-2.83256

>  <SCORE.INTRA.norm>
0.0436514

>  <SCORE.RESTR>
0

>  <SCORE.RESTR.CAVITY>
0

>  <SCORE.RESTR.norm>
0

>  <SCORE.SYSTEM>
0

>  <SCORE.SYSTEM.CONST>
0

>  <SCORE.SYSTEM.DIHEDRAL>
0

>  <SCORE.SYSTEM.SOLV>
0

>  <SCORE.SYSTEM.norm>
0

>  <SCORE.heavy>
27

>  <SCORE.norm>
-0.576693

>  <RMSD>
14.711

$$$$
ligand
 OpenBabel02271912153D
libRbt.so/2013.1/901 2013/11/27
 27 29  0  0  0  0  0  0  0  0999 V2000
    7.4207   -4.0298   18.0275 N   0  0  0  0  0  0  0  0  0  0  0  0
    6.3284   -3.0978   17.6579 C   0  0  2  0  0  0  0  0  0  0  0  0
    6.3893   -2.8827   16.1512 C   0  0  0  0  0  0  0  0  0  0  0  0
    6.7132   -3.7518   15.2753 O   0  0  0  0  0  0  0  0  0  0  0  0
    6.4911   -1.8058   18.4616 C   0  0  0  0  0  0  0  0  0  0  0  0
    7.7725   -1.0571   18.1202 C   0  0  0  0  0  0  0  0  0  0  0  0
    8.3570    0.4116   19.0465 S   0  0  2  0  0  0  0  0  0  0  0  0
    9.9592    0.6043   18.2678 C   0  0  0  0  0  0  0  0  0  0  0  0
    8.7414   -0.4139   20.6235 C   0  0  0  0  0  0  0  0  0  0  0  0
    7.6494   -0.2063   21.6367 C   0  0  1  0  0  0  0  0  0  0  0  0
    6.5378   -1.1151   21.4489 O   0  0  0  0  0  0  0  0  0  0  0  0
    8.0988   -0.3511   23.0727 C   0  0  1  0  0  0  0  0  0  0  0  0
    8.3304    0.8938   23.5718 O   0  0  0  0  0  0  0  0  0  0  0  0
    6.8224   -0.8561   23.7039 C   0  0  1  0  0  0  0  0  0  0  0  0
    6.0724    0.2501   23.9473 O   0  0  0  0  0  0  0  0  0  0  0  0
    6.1129   -1.7219   22.6394 C   0  0  2  0  0  0  0  0  0  0  0  0
    6.1538   -1.7382   15.7597 O   0  0  0  0  0  0  0  0  0  0  0  0
    6.8413   -6.4985   20.6828 N   0  0  0  0  0  0  0  0  0  0  0  0
    6.0230   -5.3858   20.2918 C   0  0  0  0  0  0  0  0  0  0  0  0
    5.9215   -4.1174   20.9153 N   0  0  0  0  0  0  0  0  0  0  0  0
    6.6901   -4.0375   21.9284 C   0  0  0  0  0  0  0  0  0  0  0  0
    7.5741   -5.1231   22.4089 C   0  0  0  0  0  0  0  0  0  0  0  0
    7.6291   -6.3138   21.7981 C   0  0  0  0  0  0  0  0  0  0  0  0
    8.4421   -7.1970   22.3403 N   0  0  0  0  0  0  0  0  0  0  0  0
    8.2622   -4.8063   23.4796 N   0  0  0  0  0  0  0  0  0  0  0  0
    7.8114   -3.5126   23.6673 C   0  0  0  0  0  0  0  0  0  0  0  0
    6.8384   -3.0195   22.7058 N   0  0  0  0  0  0  0  0  0  0  0  0
  2  1  1  1  0  0  0
  2  3  1  0  0  0  0
  2  5  1  0  0  0  0
  3  4  1  0  0  0  0
  3 17  1  0  0  0  0
  5  6  1  0  0  0  0
  7  6  1  6  0  0  0
  7  8  1  0  0  0  0
  7  9  1  0  0  0  0
 10  9  1  6  0  0  0
 10 11  1  0  0  0  0
 10 12  1  0  0  0  0
 11 16  1  0  0  0  0
 12 13  1  1  0  0  0
 12 14  1  0  0  0  0
 14 15  1  6  0  0  0
 14 16  1  0  0  0  0
 16 27  1  6  0  0  0
 18 19  2  0  0  0  0
 18 23  1  0  0  0  0
 19 20  1  0  0  0  0
 20 21  2  0  0  0  0
 21 22  1  0  0  0  0
 21 27  1  0  0  0  0
 22 23  2  0  0  0  0
 22 25  1  0  0  0  0
 23 24  1  0  0  0  0
 25 26  2  0  0  0  0
 26 27  1  0  0  0  0
M  END
>  <CHROM.1>
35.30276387,64.24828174,-172.38032016,172.72999997,-100.48308405,81.24619560
-67.19247868,7.31451830,-2.39548219,20.52981775,1.81755693,-1.42096437,-1.22311222

>  <Name>
ligand

>  <RI>
0

>  <Rbt.Current_Directory>
/home/itssahil/PROJECTS/Mol_Feturizer/Test_systems_manuscript/rnas/4aob

>  <Rbt.Executable>
rbdock ($Id: //depot/dev/client3/rdock/2013.1/src/exe/rbdock.cxx#4 $)

>  <Rbt.Library>
libRbt.so (2013.1, Build901 2013/11/27)

>  <Rbt.Parameter_File>
/export/apps/rDock/src/rDock_2013.1_src/data/scripts/dock_solv.prm

>  <Rbt.Receptor>
prm/blind_docking_80.prm

>  <SCORE>
-11.6493

>  <SCORE.INTER>
-13.0329

>  <SCORE.INTER.CONST>
1

>  <SCORE.INTER.POLAR>
0

>  <SCORE.INTER.ROT>
7

>  <SCORE.INTER.SOLV>
9.31112

>  <SCORE.INTER.VDW>
-20.059

>  <SCORE.INTER.norm>
-0.4827

>  <SCORE.INTRA>
1.38358

>  <SCORE.INTRA.DIHEDRAL>
0.908342

>  <SCORE.INTRA.DIHEDRAL.0>
6.31833

>  <SCORE.INTRA.POLAR>
0

>  <SCORE.INTRA.POLAR.0>
0

>  <SCORE.INTRA.REPUL>
0

>  <SCORE.INTRA.REPUL.0>
0

>  <SCORE.INTRA.SOLV>
1.26467

>  <SCORE.INTRA.SOLV.lig_0>
-48.4015

>  <SCORE.INTRA.VDW>
0.29707

>  <SCORE.INTRA.VDW.0>
-2.83256

>  <SCORE.INTRA.norm>
0.0512435

>  <SCORE.RESTR>
0

>  <SCORE.RESTR.CAVITY>
0

>  <SCORE.RESTR.norm>
0

>  <SCORE.SYSTEM>
0

>  <SCORE.SYSTEM.CONST>
0

>  <SCORE.SYSTEM.DIHEDRAL>
0

>  <SCORE.SYSTEM.SOLV>
0

>  <SCORE.SYSTEM.norm>
0

>  <SCORE.heavy>
27

>  <SCORE.norm>
-0.431456

>  <RMSD>
14.729

$$$$
ligand
 OpenBabel02271912153D
libRbt.so/2013.1/901 2013/11/27
 27 29  0  0  0  0  0  0  0  0999 V2000
    5.2753   -3.4138   25.0053 N   0  0  0  0  0  0  0  0  0  0  0  0
    6.4677   -2.5341   24.9556 C   0  0  2  0  0  0  0  0  0  0  0  0
    6.4239   -1.6206   26.1738 C   0  0  0  0  0  0  0  0  0  0  0  0
    5.3901   -1.0455   26.6514 O   0  0  0  0  0  0  0  0  0  0  0  0
    6.4634   -1.7740   23.6276 C   0  0  0  0  0  0  0  0  0  0  0  0
    6.6132   -2.6928   22.4224 C   0  0  0  0  0  0  0  0  0  0  0  0
    6.4932   -2.1082   20.6903 S   0  0  2  0  0  0  0  0  0  0  0  0
    6.9808   -3.6187   19.8590 C   0  0  0  0  0  0  0  0  0  0  0  0
    8.0034   -1.0912   20.6558 C   0  0  0  0  0  0  0  0  0  0  0  0
    8.2727   -0.5480   19.2795 C   0  0  1  0  0  0  0  0  0  0  0  0
    7.1398    0.1710   18.7349 O   0  0  0  0  0  0  0  0  0  0  0  0
    9.4629    0.3806   19.2001 C   0  0  1  0  0  0  0  0  0  0  0  0
   10.5307   -0.3363   18.7547 O   0  0  0  0  0  0  0  0  0  0  0  0
    9.0255    1.2817   18.0690 C   0  0  1  0  0  0  0  0  0  0  0  0
    9.3440    0.6169   16.9279 O   0  0  0  0  0  0  0  0  0  0  0  0
    7.4890    1.4052   18.1684 C   0  0  2  0  0  0  0  0  0  0  0  0
    7.5086   -1.3787   26.7061 O   0  0  0  0  0  0  0  0  0  0  0  0
    7.6398    6.3971   19.6626 N   0  0  0  0  0  0  0  0  0  0  0  0
    7.8594    5.7351   18.4079 C   0  0  0  0  0  0  0  0  0  0  0  0
    7.7773    4.3484   18.1283 N   0  0  0  0  0  0  0  0  0  0  0  0
    7.4538    3.6858   19.1675 C   0  0  0  0  0  0  0  0  0  0  0  0
    7.2013    4.2732   20.5023 C   0  0  0  0  0  0  0  0  0  0  0  0
    7.3041    5.5895   20.7274 C   0  0  0  0  0  0  0  0  0  0  0  0
    7.0725    5.9774   21.9647 N   0  0  0  0  0  0  0  0  0  0  0  0
    6.8944    3.3859   21.4182 N   0  0  0  0  0  0  0  0  0  0  0  0
    6.9490    2.2366   20.6514 C   0  0  0  0  0  0  0  0  0  0  0  0
    7.2892    2.4094   19.2481 N   0  0  0  0  0  0  0  0  0  0  0  0
  2  1  1  6  0  0  0
  2  3  1  0  0  0  0
  2  5  1  0  0  0  0
  3  4  1  0  0  0  0
  3 17  1  0  0  0  0
  5  6  1  0  0  0  0
  7  6  1  1  0  0  0
  7  8  1  0  0  0  0
  7  9  1  0  0  0  0
 10  9  1  1  0  0  0
 10 11  1  0  0  0  0
 10 12  1  0  0  0  0
 11 16  1  0  0  0  0
 12 13  1  6  0  0  0
 12 14  1  0  0  0  0
 14 15  1  6  0  0  0
 14 16  1  0  0  0  0
 16 27  1  1  0  0  0
 18 19  2  0  0  0  0
 18 23  1  0  0  0  0
 19 20  1  0  0  0  0
 20 21  2  0  0  0  0
 21 22  1  0  0  0  0
 21 27  1  0  0  0  0
 22 23  2  0  0  0  0
 22 25  1  0  0  0  0
 23 24  1  0  0  0  0
 25 26  2  0  0  0  0
 26 27  1  0  0  0  0
M  END
>  <CHROM.1>
-41.03691297,-64.44041752,174.29188086,172.65180222,174.67136433,53.96345959
-178.00578261,7.38738012,0.70419227,20.96791658,2.22067023,-1.25541110,3.04626654

>  <Name>
ligand

>  <RI>
0

>  <Rbt.Current_Directory>
/home/itssahil/PROJECTS/Mol_Feturizer/Test_systems_manuscript/rnas/4aob

>  <Rbt.Executable>
rbdock ($Id: //depot/dev/client3/rdock/2013.1/src/exe/rbdock.cxx#4 $)

>  <Rbt.Library>
libRbt.so (2013.1, Build901 2013/11/27)

>  <Rbt.Parameter_File>
/export/apps/rDock/src/rDock_2013.1_src/data/scripts/dock_solv.prm

>  <Rbt.Receptor>
prm/blind_docking_100.prm

>  <SCORE>
-12.6097

>  <SCORE.INTER>
-10.9793

>  <SCORE.INTER.CONST>
1

>  <SCORE.INTER.POLAR>
0

>  <SCORE.INTER.ROT>
7

>  <SCORE.INTER.SOLV>
7.19112

>  <SCORE.INTER.VDW>
-17.9832

>  <SCORE.INTER.norm>
-0.406641

>  <SCORE.INTRA>
-1.63039

>  <SCORE.INTRA.DIHEDRAL>
-2.94695

>  <SCORE.INTRA.DIHEDRAL.0>
6.31833

>  <SCORE.INTRA.POLAR>
0

>  <SCORE.INTRA.POLAR.0>
0

>  <SCORE.INTRA.REPUL>
0

>  <SCORE.INTRA.REPUL.0>
0

>  <SCORE.INTRA.SOLV>
-0.143125

>  <SCORE.INTRA.SOLV.lig_0>
-48.4015

>  <SCORE.INTRA.VDW>
-0.0853552

>  <SCORE.INTRA.VDW.0>
-2.83256

>  <SCORE.INTRA.norm>
-0.0603849

>  <SCORE.RESTR>
0

>  <SCORE.RESTR.CAVITY>
0

>  <SCORE.RESTR.norm>
0

>  <SCORE.SYSTEM>
0

>  <SCORE.SYSTEM.CONST>
0

>  <SCORE.SYSTEM.DIHEDRAL>
0

>  <SCORE.SYSTEM.SOLV>
0

>  <SCORE.SYSTEM.norm>
0

>  <SCORE.heavy>
27

>  <SCORE.norm>
-0.467026

>  <RMSD>
14.741

$$$$
ligand
 OpenBabel02271912153D
libRbt.so/2013.1/901 2013/11/27
 27 29  0  0  0  0  0  0  0  0999 V2000
   12.3218   -3.2020   15.9548 N   0  0  0  0  0  0  0  0  0  0  0  0
   11.7937   -2.9157   17.3103 C   0  0  2  0  0  0  0  0  0  0  0  0
   11.1356   -4.1866   17.8320 C   0  0  0  0  0  0  0  0  0  0  0  0
    9.9715   -4.6137   17.5321 O   0  0  0  0  0  0  0  0  0  0  0  0
   10.8331   -1.7277   17.2233 C   0  0  0  0  0  0  0  0  0  0  0  0
   10.2103   -1.3741   18.5673 C   0  0  0  0  0  0  0  0  0  0  0  0
    8.7844   -0.2380   18.7478 S   0  0  2  0  0  0  0  0  0  0  0  0
    9.6219    1.3072   18.3989 C   0  0  0  0  0  0  0  0  0  0  0  0
    8.6639   -0.2615   20.5647 C   0  0  0  0  0  0  0  0  0  0  0  0
    7.2566   -0.0041   21.0287 C   0  0  1  0  0  0  0  0  0  0  0  0
    6.3097   -0.9543   20.4834 O   0  0  0  0  0  0  0  0  0  0  0  0
    7.0844   -0.0233   22.5304 C   0  0  1  0  0  0  0  0  0  0  0  0
    7.1032    1.2627   22.9755 O   0  0  0  0  0  0  0  0  0  0  0  0
    5.6580   -0.5110   22.6309 C   0  0  1  0  0  0  0  0  0  0  0  0
    4.8820    0.5904   22.4577 O   0  0  0  0  0  0  0  0  0  0  0  0
    5.4343   -1.4767   21.4461 C   0  0  2  0  0  0  0  0  0  0  0  0
   11.7802   -4.8246   18.6661 O   0  0  0  0  0  0  0  0  0  0  0  0
    6.9620   -6.3319   20.3203 N   0  0  0  0  0  0  0  0  0  0  0  0
    6.3950   -5.2693   19.5393 C   0  0  0  0  0  0  0  0  0  0  0  0
    6.0263   -3.9713   19.9716 N   0  0  0  0  0  0  0  0  0  0  0  0
    6.2720   -3.8099   21.2115 C   0  0  0  0  0  0  0  0  0  0  0  0
    6.8587   -4.8382   22.0997 C   0  0  0  0  0  0  0  0  0  0  0  0
    7.1799   -6.0595   21.6533 C   0  0  0  0  0  0  0  0  0  0  0  0
    7.6751   -6.8845   22.5527 N   0  0  0  0  0  0  0  0  0  0  0  0
    7.0062   -4.4396   23.3406 N   0  0  0  0  0  0  0  0  0  0  0  0
    6.5148   -3.1521   23.2277 C   0  0  0  0  0  0  0  0  0  0  0  0
    6.0610   -2.7451   21.9074 N   0  0  0  0  0  0  0  0  0  0  0  0
  2  1  1  6  0  0  0
  2  3  1  0  0  0  0
  2  5  1  0  0  0  0
  3  4  1  0  0  0  0
  3 17  1  0  0  0  0
  5  6  1  0  0  0  0
  7  6  1  1  0  0  0
  7  8  1  0  0  0  0
  7  9  1  0  0  0  0
 10  9  1  1  0  0  0
 10 11  1  0  0  0  0
 10 12  1  0  0  0  0
 11 16  1  0  0  0  0
 12 13  1  6  0  0  0
 12 14  1  0  0  0  0
 14 15  1  6  0  0  0
 14 16  1  0  0  0  0
 16 27  1  1  0  0  0
 18 19  2  0  0  0  0
 18 23  1  0  0  0  0
 19 20  1  0  0  0  0
 20 21  2  0  0  0  0
 21 22  1  0  0  0  0
 21 27  1  0  0  0  0
 22 23  2  0  0  0  0
 22 25  1  0  0  0  0
 23 24  1  0  0  0  0
 25 26  2  0  0  0  0
 26 27  1  0  0  0  0
M  END
>  <CHROM.1>
-79.78640668,178.70699632,-167.35785057,-72.66342513,-151.97438247,57.23490146
-64.75740274,8.05939988,-2.43429357,20.27257553,-0.16899733,0.77799980,-0.04846592

>  <Name>
ligand

>  <RI>
0

>  <Rbt.Current_Directory>
/home/itssahil/PROJECTS/Mol_Feturizer/Test_systems_manuscript/rnas/4aob

>  <Rbt.Executable>
rbdock ($Id: //depot/dev/client3/rdock/2013.1/src/exe/rbdock.cxx#4 $)

>  <Rbt.Library>
libRbt.so (2013.1, Build901 2013/11/27)

>  <Rbt.Parameter_File>
/export/apps/rDock/src/rDock_2013.1_src/data/scripts/dock_solv.prm

>  <Rbt.Receptor>
prm/blind_docking_60.prm

>  <SCORE>
-12.1873

>  <SCORE.INTER>
-12.3603

>  <SCORE.INTER.CONST>
1

>  <SCORE.INTER.POLAR>
0

>  <SCORE.INTER.ROT>
7

>  <SCORE.INTER.SOLV>
8.59655

>  <SCORE.INTER.VDW>
-19.3724

>  <SCORE.INTER.norm>
-0.457788

>  <SCORE.INTRA>
0.172986

>  <SCORE.INTRA.DIHEDRAL>
0.533213

>  <SCORE.INTRA.DIHEDRAL.0>
6.31833

>  <SCORE.INTRA.POLAR>
0

>  <SCORE.INTRA.POLAR.0>
0

>  <SCORE.INTRA.REPUL>
0

>  <SCORE.INTRA.REPUL.0>
0

>  <SCORE.INTRA.SOLV>
-0.833152

>  <SCORE.INTRA.SOLV.lig_0>
-48.4015

>  <SCORE.INTRA.VDW>
0.322955

>  <SCORE.INTRA.VDW.0>
-2.83256

>  <SCORE.INTRA.norm>
0.00640687

>  <SCORE.RESTR>
0

>  <SCORE.RESTR.CAVITY>
0

>  <SCORE.RESTR.norm>
0

>  <SCORE.SYSTEM>
0

>  <SCORE.SYSTEM.CONST>
0

>  <SCORE.SYSTEM.DIHEDRAL>
0

>  <SCORE.SYSTEM.SOLV>
0

>  <SCORE.SYSTEM.norm>
0

>  <SCORE.heavy>
27

>  <SCORE.norm>
-0.451381

>  <RMSD>
14.774

$$$$
ligand
 OpenBabel02271912153D
libRbt.so/2013.1/901 2013/11/27
 27 29  0  0  0  0  0  0  0  0999 V2000
    7.8544   15.4504   17.9167 N   0  0  0  0  0  0  0  0  0  0  0  0
    7.6838   16.1630   19.2057 C   0  0  2  0  0  0  0  0  0  0  0  0
    8.7518   17.2464   19.2840 C   0  0  0  0  0  0  0  0  0  0  0  0
    9.1616   17.8298   20.3419 O   0  0  0  0  0  0  0  0  0  0  0  0
    7.7682   15.1454   20.3454 C   0  0  0  0  0  0  0  0  0  0  0  0
    6.5784   14.1955   20.3762 C   0  0  0  0  0  0  0  0  0  0  0  0
    6.4329   12.8030   21.5579 S   0  0  2  0  0  0  0  0  0  0  0  0
    6.6495   13.7172   23.0836 C   0  0  0  0  0  0  0  0  0  0  0  0
    8.0661   12.0499   21.2718 C   0  0  0  0  0  0  0  0  0  0  0  0
    8.1863   10.7149   21.9539 C   0  0  1  0  0  0  0  0  0  0  0  0
    7.1710    9.7772   21.5217 O   0  0  0  0  0  0  0  0  0  0  0  0
    9.5232   10.0365   21.7601 C   0  0  1  0  0  0  0  0  0  0  0  0
   10.2871   10.2839   22.8590 O   0  0  0  0  0  0  0  0  0  0  0  0
    9.1010    8.5873   21.8254 C   0  0  1  0  0  0  0  0  0  0  0  0
    9.0297    8.2866   23.1482 O   0  0  0  0  0  0  0  0  0  0  0  0
    7.6847    8.5094   21.2136 C   0  0  2  0  0  0  0  0  0  0  0  0
    9.2164   17.6247   18.2072 O   0  0  0  0  0  0  0  0  0  0  0  0
    8.5197    5.8226   16.8252 N   0  0  0  0  0  0  0  0  0  0  0  0
    8.2276    5.4388   18.1772 C   0  0  0  0  0  0  0  0  0  0  0  0
    8.0102    6.2823   19.2948 N   0  0  0  0  0  0  0  0  0  0  0  0
    8.0907    7.5115   18.9686 C   0  0  0  0  0  0  0  0  0  0  0  0
    8.3809    8.0090   17.6052 C   0  0  0  0  0  0  0  0  0  0  0  0
    8.5950    7.1761   16.5784 C   0  0  0  0  0  0  0  0  0  0  0  0
    8.8624    7.7500   15.4234 N   0  0  0  0  0  0  0  0  0  0  0  0
    8.4242    9.3171   17.5205 N   0  0  0  0  0  0  0  0  0  0  0  0
    8.1533    9.6412   18.8371 C   0  0  0  0  0  0  0  0  0  0  0  0
    7.9371    8.5278   19.7472 N   0  0  0  0  0  0  0  0  0  0  0  0
  2  1  1  6  0  0  0
  2  3  1  0  0  0  0
  2  5  1  0  0  0  0
  3  4  1  0  0  0  0
  3 17  1  0  0  0  0
  5  6  1  0  0  0  0
  7  6  1  6  0  0  0
  7  8  1  0  0  0  0
  7  9  1  0  0  0  0
 10  9  1  6  0  0  0
 10 11  1  0  0  0  0
 10 12  1  0  0  0  0
 11 16  1  0  0  0  0
 12 13  1  1  0  0  0
 12 14  1  0  0  0  0
 14 15  1  1  0  0  0
 14 16  1  0  0  0  0
 16 27  1  6  0  0  0
 18 19  2  0  0  0  0
 18 23  1  0  0  0  0
 19 20  1  0  0  0  0
 20 21  2  0  0  0  0
 21 22  1  0  0  0  0
 21 27  1  0  0  0  0
 22 23  2  0  0  0  0
 22 25  1  0  0  0  0
 23 24  1  0  0  0  0
 25 26  2  0  0  0  0
 26 27  1  0  0  0  0
M  END
>  <CHROM.1>
-160.45063260,-68.73131308,176.27570004,54.56723123,-170.78326508,58.01150421
-161.44194476,8.15970687,11.08319914,19.96535354,-2.11847333,-1.49118751
2.74149615

>  <Name>
ligand

>  <RI>
0

>  <Rbt.Current_Directory>
/home/itssahil/PROJECTS/Mol_Feturizer/Test_systems_manuscript/rnas/4aob

>  <Rbt.Executable>
rbdock ($Id: //depot/dev/client3/rdock/2013.1/src/exe/rbdock.cxx#4 $)

>  <Rbt.Library>
libRbt.so (2013.1, Build901 2013/11/27)

>  <Rbt.Parameter_File>
/export/apps/rDock/src/rDock_2013.1_src/data/scripts/dock_solv.prm

>  <Rbt.Receptor>
prm/blind_docking_60.prm

>  <SCORE>
-13.7942

>  <SCORE.INTER>
-13.4192

>  <SCORE.INTER.CONST>
1

>  <SCORE.INTER.POLAR>
0

>  <SCORE.INTER.ROT>
7

>  <SCORE.INTER.SOLV>
14.7378

>  <SCORE.INTER.VDW>
-22.1254

>  <SCORE.INTER.norm>
-0.497006

>  <SCORE.INTRA>
-0.375081

>  <SCORE.INTRA.DIHEDRAL>
-2.09467

>  <SCORE.INTRA.DIHEDRAL.0>
6.31833

>  <SCORE.INTRA.POLAR>
0

>  <SCORE.INTRA.POLAR.0>
0

>  <SCORE.INTRA.REPUL>
0

>  <SCORE.INTRA.REPUL.0>
0

>  <SCORE.INTRA.SOLV>
-0.148089

>  <SCORE.INTRA.SOLV.lig_0>
-48.4015

>  <SCORE.INTRA.VDW>
0.746299

>  <SCORE.INTRA.VDW.0>
-2.83256

>  <SCORE.INTRA.norm>
-0.0138919

>  <SCORE.RESTR>
0

>  <SCORE.RESTR.CAVITY>
0

>  <SCORE.RESTR.norm>
0

>  <SCORE.SYSTEM>
0

>  <SCORE.SYSTEM.CONST>
0

>  <SCORE.SYSTEM.DIHEDRAL>
0

>  <SCORE.SYSTEM.SOLV>
0

>  <SCORE.SYSTEM.norm>
0

>  <SCORE.heavy>
27

>  <SCORE.norm>
-0.510898

>  <RMSD>
14.787

$$$$
ligand
 OpenBabel02271912153D
libRbt.so/2013.1/901 2013/11/27
 27 29  0  0  0  0  0  0  0  0999 V2000
   10.0602    9.6561   20.7577 N   0  0  0  0  0  0  0  0  0  0  0  0
    8.6525    9.5358   20.3081 C   0  0  2  0  0  0  0  0  0  0  0  0
    8.0301   10.9255   20.3482 C   0  0  0  0  0  0  0  0  0  0  0  0
    8.2519   11.8290   21.2211 O   0  0  0  0  0  0  0  0  0  0  0  0
    7.9345    8.5242   21.2043 C   0  0  0  0  0  0  0  0  0  0  0  0
    6.5043    8.2525   20.7575 C   0  0  0  0  0  0  0  0  0  0  0  0
    6.0697    7.6604   19.0791 S   0  0  2  0  0  0  0  0  0  0  0  0
    4.4545    6.9749   19.4422 C   0  0  0  0  0  0  0  0  0  0  0  0
    7.1563    6.1998   19.0311 C   0  0  0  0  0  0  0  0  0  0  0  0
    7.1839    5.5761   17.6629 C   0  0  1  0  0  0  0  0  0  0  0  0
    8.3564    4.7529   17.4516 O   0  0  0  0  0  0  0  0  0  0  0  0
    5.9805    4.7175   17.3472 C   0  0  1  0  0  0  0  0  0  0  0  0
    5.1080    5.4634   16.6159 O   0  0  0  0  0  0  0  0  0  0  0  0
    6.6064    3.7126   16.4085 C   0  0  1  0  0  0  0  0  0  0  0  0
    6.6217    4.3114   15.1892 O   0  0  0  0  0  0  0  0  0  0  0  0
    8.0605    3.5043   16.8862 C   0  0  2  0  0  0  0  0  0  0  0  0
    7.1914   11.1663   19.4781 O   0  0  0  0  0  0  0  0  0  0  0  0
    9.7756   -0.7329   19.3920 N   0  0  0  0  0  0  0  0  0  0  0  0
   10.2343   -0.0166   18.2357 C   0  0  0  0  0  0  0  0  0  0  0  0
    9.6734    1.1464   17.6519 N   0  0  0  0  0  0  0  0  0  0  0  0
    8.6504    1.5417   18.3008 C   0  0  0  0  0  0  0  0  0  0  0  0
    8.1024    0.8782   19.5049 C   0  0  0  0  0  0  0  0  0  0  0  0
    8.6553   -0.2293   20.0164 C   0  0  0  0  0  0  0  0  0  0  0  0
    8.0565   -0.7289   21.0779 N   0  0  0  0  0  0  0  0  0  0  0  0
    7.0347    1.4660   19.9897 N   0  0  0  0  0  0  0  0  0  0  0  0
    6.9169    2.5073   19.0876 C   0  0  0  0  0  0  0  0  0  0  0  0
    7.9192    2.5702   18.0359 N   0  0  0  0  0  0  0  0  0  0  0  0
  2  1  1  1  0  0  0
  2  3  1  0  0  0  0
  2  5  1  0  0  0  0
  3  4  1  0  0  0  0
  3 17  1  0  0  0  0
  5  6  1  0  0  0  0
  7  6  1  1  0  0  0
  7  8  1  0  0  0  0
  7  9  1  0  0  0  0
 10  9  1  1  0  0  0
 10 11  1  0  0  0  0
 10 12  1  0  0  0  0
 11 16  1  0  0  0  0
 12 13  1  6  0  0  0
 12 14  1  0  0  0  0
 14 15  1  6  0  0  0
 14 16  1  0  0  0  0
 16 27  1  1  0  0  0
 18 19  2  0  0  0  0
 18 23  1  0  0  0  0
 19 20  1  0  0  0  0
 20 21  2  0  0  0  0
 21 22  1  0  0  0  0
 21 27  1  0  0  0  0
 22 23  2  0  0  0  0
 22 25  1  0  0  0  0
 23 24  1  0  0  0  0
 25 26  2  0  0  0  0
 26 27  1  0  0  0  0
M  END
>  <CHROM.1>
-37.09032084,-175.75325450,56.61958237,159.18010486,-171.71842827,159.01446482
-116.80530810,7.55984898,5.12336050,18.89744216,-1.74026842,0.89204154,-2.85558778

>  <Name>
ligand

>  <RI>
0

>  <Rbt.Current_Directory>
/home/itssahil/PROJECTS/Mol_Feturizer/Test_systems_manuscript/rnas/4aob

>  <Rbt.Executable>
rbdock ($Id: //depot/dev/client3/rdock/2013.1/src/exe/rbdock.cxx#4 $)

>  <Rbt.Library>
libRbt.so (2013.1, Build901 2013/11/27)

>  <Rbt.Parameter_File>
/export/apps/rDock/src/rDock_2013.1_src/data/scripts/dock_solv.prm

>  <Rbt.Receptor>
prm/blind_docking_100.prm

>  <SCORE>
-12.5008

>  <SCORE.INTER>
-11.9378

>  <SCORE.INTER.CONST>
1

>  <SCORE.INTER.POLAR>
0

>  <SCORE.INTER.ROT>
7

>  <SCORE.INTER.SOLV>
12.0783

>  <SCORE.INTER.VDW>
-20.2513

>  <SCORE.INTER.norm>
-0.44214

>  <SCORE.INTRA>
-0.563006

>  <SCORE.INTRA.DIHEDRAL>
-0.351014

>  <SCORE.INTRA.DIHEDRAL.0>
6.31833

>  <SCORE.INTRA.POLAR>
0

>  <SCORE.INTRA.POLAR.0>
0

>  <SCORE.INTRA.REPUL>
0

>  <SCORE.INTRA.REPUL.0>
0

>  <SCORE.INTRA.SOLV>
-0.491692

>  <SCORE.INTRA.SOLV.lig_0>
-48.4015

>  <SCORE.INTRA.VDW>
-0.141653

>  <SCORE.INTRA.VDW.0>
-2.83256

>  <SCORE.INTRA.norm>
-0.0208521

>  <SCORE.RESTR>
0

>  <SCORE.RESTR.CAVITY>
0

>  <SCORE.RESTR.norm>
0

>  <SCORE.SYSTEM>
0

>  <SCORE.SYSTEM.CONST>
0

>  <SCORE.SYSTEM.DIHEDRAL>
0

>  <SCORE.SYSTEM.SOLV>
0

>  <SCORE.SYSTEM.norm>
0

>  <SCORE.heavy>
27

>  <SCORE.norm>
-0.462992

>  <RMSD>
14.788

$$$$
ligand
 OpenBabel02271912153D
libRbt.so/2013.1/901 2013/11/27
 27 29  0  0  0  0  0  0  0  0999 V2000
    7.5696   -3.5412   18.6815 N   0  0  0  0  0  0  0  0  0  0  0  0
    6.2164   -2.9485   18.8078 C   0  0  2  0  0  0  0  0  0  0  0  0
    5.5268   -3.0692   17.4550 C   0  0  0  0  0  0  0  0  0  0  0  0
    6.0906   -3.0234   16.3116 O   0  0  0  0  0  0  0  0  0  0  0  0
    6.3554   -1.5030   19.2904 C   0  0  0  0  0  0  0  0  0  0  0  0
    6.5210   -1.3996   20.8007 C   0  0  0  0  0  0  0  0  0  0  0  0
    5.2054   -1.8571   21.9909 S   0  0  2  0  0  0  0  0  0  0  0  0
    4.2516   -0.3412   21.9379 C   0  0  0  0  0  0  0  0  0  0  0  0
    6.1774   -1.7007   23.5229 C   0  0  0  0  0  0  0  0  0  0  0  0
    5.3733   -2.0971   24.7305 C   0  0  1  0  0  0  0  0  0  0  0  0
    4.5251   -3.2439   24.4807 O   0  0  0  0  0  0  0  0  0  0  0  0
    6.2043   -2.4217   25.9508 C   0  0  1  0  0  0  0  0  0  0  0  0
    6.2288   -1.3214   26.7516 O   0  0  0  0  0  0  0  0  0  0  0  0
    5.3128   -3.4420   26.6192 C   0  0  1  0  0  0  0  0  0  0  0  0
    4.3933   -2.7239   27.3153 O   0  0  0  0  0  0  0  0  0  0  0  0
    4.5981   -4.2154   25.4891 C   0  0  2  0  0  0  0  0  0  0  0  0
    4.2985   -3.1643   17.4822 O   0  0  0  0  0  0  0  0  0  0  0  0
    7.2079   -6.3653   21.5216 N   0  0  0  0  0  0  0  0  0  0  0  0
    6.2397   -5.3092   21.6094 C   0  0  0  0  0  0  0  0  0  0  0  0
    5.6021   -4.8060   22.7706 N   0  0  0  0  0  0  0  0  0  0  0  0
    6.0029   -5.4121   23.8173 C   0  0  0  0  0  0  0  0  0  0  0  0
    6.9986   -6.5071   23.8334 C   0  0  0  0  0  0  0  0  0  0  0  0
    7.5673   -6.9633   22.7098 C   0  0  0  0  0  0  0  0  0  0  0  0
    8.4215   -7.9541   22.8634 N   0  0  0  0  0  0  0  0  0  0  0  0
    7.2403   -6.9810   25.0322 N   0  0  0  0  0  0  0  0  0  0  0  0
    6.3957   -6.1741   25.7722 C   0  0  0  0  0  0  0  0  0  0  0  0
    5.6252   -5.1893   25.0299 N   0  0  0  0  0  0  0  0  0  0  0  0
  2  1  1  6  0  0  0
  2  3  1  0  0  0  0
  2  5  1  0  0  0  0
  3  4  1  0  0  0  0
  3 17  1  0  0  0  0
  5  6  1  0  0  0  0
  7  6  1  6  0  0  0
  7  8  1  0  0  0  0
  7  9  1  0  0  0  0
 10  9  1  6  0  0  0
 10 11  1  0  0  0  0
 10 12  1  0  0  0  0
 11 16  1  0  0  0  0
 12 13  1  1  0  0  0
 12 14  1  0  0  0  0
 14 15  1  1  0  0  0
 14 16  1  0  0  0  0
 16 27  1  6  0  0  0
 18 19  2  0  0  0  0
 18 23  1  0  0  0  0
 19 20  1  0  0  0  0
 20 21  2  0  0  0  0
 21 22  1  0  0  0  0
 21 27  1  0  0  0  0
 22 23  2  0  0  0  0
 22 25  1  0  0  0  0
 23 24  1  0  0  0  0
 25 26  2  0  0  0  0
 26 27  1  0  0  0  0
M  END
>  <CHROM.1>
-32.45362761,-82.63260525,-66.38805470,-82.12993445,-176.82711337,39.09331223
-23.49481621,5.93312520,-3.66651326,22.63213266,-1.52916125,-1.19689181,1.77457208

>  <Name>
ligand

>  <RI>
0

>  <Rbt.Current_Directory>
/home/itssahil/PROJECTS/Mol_Feturizer/Test_systems_manuscript/rnas/4aob

>  <Rbt.Executable>
rbdock ($Id: //depot/dev/client3/rdock/2013.1/src/exe/rbdock.cxx#4 $)

>  <Rbt.Library>
libRbt.so (2013.1, Build901 2013/11/27)

>  <Rbt.Parameter_File>
/export/apps/rDock/src/rDock_2013.1_src/data/scripts/dock_solv.prm

>  <Rbt.Receptor>
prm/blind_docking_80.prm

>  <SCORE>
-9.82492

>  <SCORE.INTER>
-9.60191

>  <SCORE.INTER.CONST>
1

>  <SCORE.INTER.POLAR>
0

>  <SCORE.INTER.ROT>
7

>  <SCORE.INTER.SOLV>
7.24595

>  <SCORE.INTER.VDW>
-17.0833

>  <SCORE.INTER.norm>
-0.355626

>  <SCORE.INTRA>
-0.223011

>  <SCORE.INTRA.DIHEDRAL>
1.0776

>  <SCORE.INTRA.DIHEDRAL.0>
6.31833

>  <SCORE.INTRA.POLAR>
0

>  <SCORE.INTRA.POLAR.0>
0

>  <SCORE.INTRA.REPUL>
0

>  <SCORE.INTRA.REPUL.0>
0

>  <SCORE.INTRA.SOLV>
0.25247

>  <SCORE.INTRA.SOLV.lig_0>
-48.4015

>  <SCORE.INTRA.VDW>
-0.888047

>  <SCORE.INTRA.VDW.0>
-2.83256

>  <SCORE.INTRA.norm>
-0.00825968

>  <SCORE.RESTR>
0

>  <SCORE.RESTR.CAVITY>
0

>  <SCORE.RESTR.norm>
0

>  <SCORE.SYSTEM>
0

>  <SCORE.SYSTEM.CONST>
0

>  <SCORE.SYSTEM.DIHEDRAL>
0

>  <SCORE.SYSTEM.SOLV>
0

>  <SCORE.SYSTEM.norm>
0

>  <SCORE.heavy>
27

>  <SCORE.norm>
-0.363886

>  <RMSD>
14.788

$$$$
ligand
 OpenBabel02271912153D
libRbt.so/2013.1/901 2013/11/27
 27 29  0  0  0  0  0  0  0  0999 V2000
   10.3386   -3.3863   17.5157 N   0  0  0  0  0  0  0  0  0  0  0  0
    9.7597   -2.0453   17.2614 C   0  0  2  0  0  0  0  0  0  0  0  0
    9.9833   -1.7122   15.7919 C   0  0  0  0  0  0  0  0  0  0  0  0
    9.1233   -1.2201   14.9883 O   0  0  0  0  0  0  0  0  0  0  0  0
   10.4081   -1.0404   18.2160 C   0  0  0  0  0  0  0  0  0  0  0  0
    9.8945    0.3791   18.0149 C   0  0  0  0  0  0  0  0  0  0  0  0
    8.1185    0.8249   18.0778 S   0  0  2  0  0  0  0  0  0  0  0  0
    8.2710    2.5889   17.8027 C   0  0  0  0  0  0  0  0  0  0  0  0
    7.8818    0.6890   19.8783 C   0  0  0  0  0  0  0  0  0  0  0  0
    6.5400    1.2208   20.3011 C   0  0  1  0  0  0  0  0  0  0  0  0
    5.4474    0.3688   19.8802 O   0  0  0  0  0  0  0  0  0  0  0  0
    6.3930    1.4210   21.7922 C   0  0  1  0  0  0  0  0  0  0  0  0
    6.6195    2.7344   22.0677 O   0  0  0  0  0  0  0  0  0  0  0  0
    4.9101    1.1796   21.9506 C   0  0  1  0  0  0  0  0  0  0  0  0
    4.3121    2.3577   21.6345 O   0  0  0  0  0  0  0  0  0  0  0  0
    4.5182    0.1174   20.8997 C   0  0  2  0  0  0  0  0  0  0  0  0
   11.0902   -2.0031   15.3352 O   0  0  0  0  0  0  0  0  0  0  0  0
    7.2685   -4.2944   20.5176 N   0  0  0  0  0  0  0  0  0  0  0  0
    7.1188   -3.1477   19.6672 C   0  0  0  0  0  0  0  0  0  0  0  0
    6.3333   -1.9905   19.8951 N   0  0  0  0  0  0  0  0  0  0  0  0
    5.7313   -2.0541   21.0163 C   0  0  0  0  0  0  0  0  0  0  0  0
    5.8241   -3.1865   21.9648 C   0  0  0  0  0  0  0  0  0  0  0  0
    6.5676   -4.2695   21.7036 C   0  0  0  0  0  0  0  0  0  0  0  0
    6.5462   -5.2125   22.6230 N   0  0  0  0  0  0  0  0  0  0  0  0
    5.1027   -3.0259   23.0483 N   0  0  0  0  0  0  0  0  0  0  0  0
    4.5598   -1.7828   22.7800 C   0  0  0  0  0  0  0  0  0  0  0  0
    4.9477   -1.1640   21.5225 N   0  0  0  0  0  0  0  0  0  0  0  0
  2  1  1  1  0  0  0
  2  3  1  0  0  0  0
  2  5  1  0  0  0  0
  3  4  1  0  0  0  0
  3 17  1  0  0  0  0
  5  6  1  0  0  0  0
  7  6  1  1  0  0  0
  7  8  1  0  0  0  0
  7  9  1  0  0  0  0
 10  9  1  1  0  0  0
 10 11  1  0  0  0  0
 10 12  1  0  0  0  0
 11 16  1  0  0  0  0
 12 13  1  6  0  0  0
 12 14  1  0  0  0  0
 14 15  1  6  0  0  0
 14 16  1  0  0  0  0
 16 27  1  1  0  0  0
 18 19  2  0  0  0  0
 18 23  1  0  0  0  0
 19 20  1  0  0  0  0
 20 21  2  0  0  0  0
 21 22  1  0  0  0  0
 21 27  1  0  0  0  0
 22 23  2  0  0  0  0
 22 25  1  0  0  0  0
 23 24  1  0  0  0  0
 25 26  2  0  0  0  0
 26 27  1  0  0  0  0
M  END
>  <CHROM.1>
134.65060794,178.98069562,55.00634390,178.83428094,170.64547938,70.53151634
-18.69432795,7.24757323,-0.85804727,19.71521784,-0.10213461,-0.85996544,2.93905068

>  <Name>
ligand

>  <RI>
0

>  <Rbt.Current_Directory>
/home/itssahil/PROJECTS/Mol_Feturizer/Test_systems_manuscript/rnas/4aob

>  <Rbt.Executable>
rbdock ($Id: //depot/dev/client3/rdock/2013.1/src/exe/rbdock.cxx#4 $)

>  <Rbt.Library>
libRbt.so (2013.1, Build901 2013/11/27)

>  <Rbt.Parameter_File>
/export/apps/rDock/src/rDock_2013.1_src/data/scripts/dock_solv.prm

>  <Rbt.Receptor>
prm/blind_docking_40.prm

>  <SCORE>
-12.2231

>  <SCORE.INTER>
-10.206

>  <SCORE.INTER.CONST>
1

>  <SCORE.INTER.POLAR>
0

>  <SCORE.INTER.ROT>
7

>  <SCORE.INTER.SOLV>
8.35423

>  <SCORE.INTER.VDW>
-17.8554

>  <SCORE.INTER.norm>
-0.378

>  <SCORE.INTRA>
-2.01712

>  <SCORE.INTRA.DIHEDRAL>
-2.5993

>  <SCORE.INTRA.DIHEDRAL.0>
6.31833

>  <SCORE.INTRA.POLAR>
0

>  <SCORE.INTRA.POLAR.0>
0

>  <SCORE.INTRA.REPUL>
0

>  <SCORE.INTRA.REPUL.0>
0

>  <SCORE.INTRA.SOLV>
-0.513115

>  <SCORE.INTRA.SOLV.lig_0>
-48.4015

>  <SCORE.INTRA.VDW>
-0.460916

>  <SCORE.INTRA.VDW.0>
-2.83256

>  <SCORE.INTRA.norm>
-0.0747083

>  <SCORE.RESTR>
0

>  <SCORE.RESTR.CAVITY>
0

>  <SCORE.RESTR.norm>
0

>  <SCORE.SYSTEM>
0

>  <SCORE.SYSTEM.CONST>
0

>  <SCORE.SYSTEM.DIHEDRAL>
0

>  <SCORE.SYSTEM.SOLV>
0

>  <SCORE.SYSTEM.norm>
0

>  <SCORE.heavy>
27

>  <SCORE.norm>
-0.452708

>  <RMSD>
14.792

$$$$
ligand
 OpenBabel02271912153D
libRbt.so/2013.1/901 2013/11/27
 27 29  0  0  0  0  0  0  0  0999 V2000
   10.3797    6.3716   16.4400 N   0  0  0  0  0  0  0  0  0  0  0  0
   11.1809    7.2291   17.3462 C   0  0  2  0  0  0  0  0  0  0  0  0
   12.1040    6.3225   18.1502 C   0  0  0  0  0  0  0  0  0  0  0  0
   12.1015    5.0468   18.1481 O   0  0  0  0  0  0  0  0  0  0  0  0
   10.2275    8.0495   18.2177 C   0  0  0  0  0  0  0  0  0  0  0  0
    9.3651    7.1822   19.1250 C   0  0  0  0  0  0  0  0  0  0  0  0
    8.1288    7.8654   20.2917 S   0  0  2  0  0  0  0  0  0  0  0  0
    6.9917    8.5714   19.1004 C   0  0  0  0  0  0  0  0  0  0  0  0
    9.0879    9.2999   20.8736 C   0  0  0  0  0  0  0  0  0  0  0  0
    8.4825    9.9047   22.1104 C   0  0  1  0  0  0  0  0  0  0  0  0
    8.9156   11.2689   22.3304 O   0  0  0  0  0  0  0  0  0  0  0  0
    6.9709    9.9158   22.1204 C   0  0  1  0  0  0  0  0  0  0  0  0
    6.5442    8.8472   22.8474 O   0  0  0  0  0  0  0  0  0  0  0  0
    6.7168   11.1522   22.9505 C   0  0  1  0  0  0  0  0  0  0  0  0
    6.8201   10.7514   24.2444 O   0  0  0  0  0  0  0  0  0  0  0  0
    7.8611   12.1411   22.6362 C   0  0  2  0  0  0  0  0  0  0  0  0
   12.8867    6.8904   18.9139 O   0  0  0  0  0  0  0  0  0  0  0  0
    5.8974   16.2317   20.0700 N   0  0  0  0  0  0  0  0  0  0  0  0
    6.2406   16.0008   21.4446 C   0  0  0  0  0  0  0  0  0  0  0  0
    6.7841   14.8262   22.0215 N   0  0  0  0  0  0  0  0  0  0  0  0
    6.9688   13.9224   21.1424 C   0  0  0  0  0  0  0  0  0  0  0  0
    6.6538   14.0634   19.7032 C   0  0  0  0  0  0  0  0  0  0  0  0
    6.1265   15.1875   19.2007 C   0  0  0  0  0  0  0  0  0  0  0  0
    5.8761   15.1728   17.9077 N   0  0  0  0  0  0  0  0  0  0  0  0
    6.9213   12.9902   18.9983 N   0  0  0  0  0  0  0  0  0  0  0  0
    7.4126   12.1742   20.0007 C   0  0  0  0  0  0  0  0  0  0  0  0
    7.4540   12.7438   21.3380 N   0  0  0  0  0  0  0  0  0  0  0  0
  2  1  1  6  0  0  0
  2  3  1  0  0  0  0
  2  5  1  0  0  0  0
  3  4  1  0  0  0  0
  3 17  1  0  0  0  0
  5  6  1  0  0  0  0
  7  6  1  6  0  0  0
  7  8  1  0  0  0  0
  7  9  1  0  0  0  0
 10  9  1  6  0  0  0
 10 11  1  0  0  0  0
 10 12  1  0  0  0  0
 11 16  1  0  0  0  0
 12 13  1  1  0  0  0
 12 14  1  0  0  0  0
 14 15  1  1  0  0  0
 14 16  1  0  0  0  0
 16 27  1  6  0  0  0
 18 19  2  0  0  0  0
 18 23  1  0  0  0  0
 19 20  1  0  0  0  0
 20 21  2  0  0  0  0
 21 22  1  0  0  0  0
 21 27  1  0  0  0  0
 22 23  2  0  0  0  0
 22 25  1  0  0  0  0
 23 24  1  0  0  0  0
 25 26  2  0  0  0  0
 26 27  1  0  0  0  0
M  END
>  <CHROM.1>
-6.39434077,63.06154630,179.77633099,65.35362452,-165.97933477,-160.01756946
-148.87899114,8.23332918,10.49132150,20.30316236,-0.30607582,1.04310832,-0.91246419

>  <Name>
ligand

>  <RI>
0

>  <Rbt.Current_Directory>
/home/itssahil/PROJECTS/Mol_Feturizer/Test_systems_manuscript/rnas/4aob

>  <Rbt.Executable>
rbdock ($Id: //depot/dev/client3/rdock/2013.1/src/exe/rbdock.cxx#4 $)

>  <Rbt.Library>
libRbt.so (2013.1, Build901 2013/11/27)

>  <Rbt.Parameter_File>
/export/apps/rDock/src/rDock_2013.1_src/data/scripts/dock_solv.prm

>  <Rbt.Receptor>
prm/blind_docking_100.prm

>  <SCORE>
-14.4239

>  <SCORE.INTER>
-15.6392

>  <SCORE.INTER.CONST>
1

>  <SCORE.INTER.POLAR>
0

>  <SCORE.INTER.ROT>
7

>  <SCORE.INTER.SOLV>
13.2231

>  <SCORE.INTER.VDW>
-23.1005

>  <SCORE.INTER.norm>
-0.579231

>  <SCORE.INTRA>
1.21531

>  <SCORE.INTRA.DIHEDRAL>
-0.123654

>  <SCORE.INTRA.DIHEDRAL.0>
6.31833

>  <SCORE.INTRA.POLAR>
0

>  <SCORE.INTRA.POLAR.0>
0

>  <SCORE.INTRA.REPUL>
0

>  <SCORE.INTRA.REPUL.0>
0

>  <SCORE.INTRA.SOLV>
0.132154

>  <SCORE.INTRA.SOLV.lig_0>
-48.4015

>  <SCORE.INTRA.VDW>
1.21106

>  <SCORE.INTRA.VDW.0>
-2.83256

>  <SCORE.INTRA.norm>
0.0450115

>  <SCORE.RESTR>
0

>  <SCORE.RESTR.CAVITY>
0

>  <SCORE.RESTR.norm>
0

>  <SCORE.SYSTEM>
0

>  <SCORE.SYSTEM.CONST>
0

>  <SCORE.SYSTEM.DIHEDRAL>
0

>  <SCORE.SYSTEM.SOLV>
0

>  <SCORE.SYSTEM.norm>
0

>  <SCORE.heavy>
27

>  <SCORE.norm>
-0.53422

>  <RMSD>
14.795

$$$$
ligand
 OpenBabel02271912153D
libRbt.so/2013.1/901 2013/11/27
 27 29  0  0  0  0  0  0  0  0999 V2000
    9.2842    7.0155   17.9823 N   0  0  0  0  0  0  0  0  0  0  0  0
   10.0559    8.2728   17.8343 C   0  0  2  0  0  0  0  0  0  0  0  0
   10.0206    8.6710   16.3645 C   0  0  0  0  0  0  0  0  0  0  0  0
   10.2015    7.8972   15.3665 O   0  0  0  0  0  0  0  0  0  0  0  0
   11.4725    8.0462   18.3669 C   0  0  0  0  0  0  0  0  0  0  0  0
   11.5187    7.9227   19.8840 C   0  0  0  0  0  0  0  0  0  0  0  0
   11.1734    9.3194   21.0182 S   0  0  2  0  0  0  0  0  0  0  0  0
   11.4897    8.4903   22.5749 C   0  0  0  0  0  0  0  0  0  0  0  0
    9.3569    9.3140   20.8890 C   0  0  0  0  0  0  0  0  0  0  0  0
    8.7140    9.9106   22.1108 C   0  0  1  0  0  0  0  0  0  0  0  0
    9.0611   11.3041   22.2963 O   0  0  0  0  0  0  0  0  0  0  0  0
    7.2047    9.8275   22.1218 C   0  0  1  0  0  0  0  0  0  0  0  0
    6.8450    8.7529   22.8756 O   0  0  0  0  0  0  0  0  0  0  0  0
    6.8734   11.0660   22.9210 C   0  0  1  0  0  0  0  0  0  0  0  0
    7.0006   10.7049   24.2244 O   0  0  0  0  0  0  0  0  0  0  0  0
    7.9540   12.1162   22.5811 C   0  0  2  0  0  0  0  0  0  0  0  0
    9.8550    9.8702   16.1342 O   0  0  0  0  0  0  0  0  0  0  0  0
    5.9086   16.0839   19.8889 N   0  0  0  0  0  0  0  0  0  0  0  0
    6.2883   15.9150   21.2629 C   0  0  0  0  0  0  0  0  0  0  0  0
    6.8512   14.7686   21.8767 N   0  0  0  0  0  0  0  0  0  0  0  0
    7.0164   13.8272   21.0339 C   0  0  0  0  0  0  0  0  0  0  0  0
    6.6635   13.9036   19.5986 C   0  0  0  0  0  0  0  0  0  0  0  0
    6.1191   15.0029   19.0609 C   0  0  0  0  0  0  0  0  0  0  0  0
    5.8353   14.9303   17.7767 N   0  0  0  0  0  0  0  0  0  0  0  0
    6.9168   12.8009   18.9350 N   0  0  0  0  0  0  0  0  0  0  0  0
    7.4371   12.0314   19.9594 C   0  0  0  0  0  0  0  0  0  0  0  0
    7.5110   12.6598   21.2687 N   0  0  0  0  0  0  0  0  0  0  0  0
  2  1  1  6  0  0  0
  2  3  1  0  0  0  0
  2  5  1  0  0  0  0
  3  4  1  0  0  0  0
  3 17  1  0  0  0  0
  5  6  1  0  0  0  0
  7  6  1  6  0  0  0
  7  8  1  0  0  0  0
  7  9  1  0  0  0  0
 10  9  1  6  0  0  0
 10 11  1  0  0  0  0
 10 12  1  0  0  0  0
 11 16  1  0  0  0  0
 12 13  1  1  0  0  0
 12 14  1  0  0  0  0
 14 15  1  1  0  0  0
 14 16  1  0  0  0  0
 16 27  1  6  0  0  0
 18 19  2  0  0  0  0
 18 23  1  0  0  0  0
 19 20  1  0  0  0  0
 20 21  2  0  0  0  0
 21 22  1  0  0  0  0
 21 27  1  0  0  0  0
 22 23  2  0  0  0  0
 22 25  1  0  0  0  0
 23 24  1  0  0  0  0
 25 26  2  0  0  0  0
 26 27  1  0  0  0  0
M  END
>  <CHROM.1>
-44.81173610,-71.51914457,-68.34448813,-177.18610473,154.91590474,62.85215147
-145.01420345,8.50183447,10.94651542,20.27588337,0.14214355,0.99478833,-1.39530495

>  <Name>
ligand

>  <RI>
0

>  <Rbt.Current_Directory>
/home/itssahil/PROJECTS/Mol_Feturizer/Test_systems_manuscript/rnas/4aob

>  <Rbt.Executable>
rbdock ($Id: //depot/dev/client3/rdock/2013.1/src/exe/rbdock.cxx#4 $)

>  <Rbt.Library>
libRbt.so (2013.1, Build901 2013/11/27)

>  <Rbt.Parameter_File>
/export/apps/rDock/src/rDock_2013.1_src/data/scripts/dock_solv.prm

>  <Rbt.Receptor>
prm/blind_docking_40.prm

>  <SCORE>
-18.026

>  <SCORE.INTER>
-17.4446

>  <SCORE.INTER.CONST>
1

>  <SCORE.INTER.POLAR>
0

>  <SCORE.INTER.ROT>
7

>  <SCORE.INTER.SOLV>
12.1279

>  <SCORE.INTER.VDW>
-23.9391

>  <SCORE.INTER.norm>
-0.646098

>  <SCORE.INTRA>
-0.581312

>  <SCORE.INTRA.DIHEDRAL>
-1.61453

>  <SCORE.INTRA.DIHEDRAL.0>
6.31833

>  <SCORE.INTRA.POLAR>
0

>  <SCORE.INTRA.POLAR.0>
0

>  <SCORE.INTRA.REPUL>
0

>  <SCORE.INTRA.REPUL.0>
0

>  <SCORE.INTRA.SOLV>
0.843366

>  <SCORE.INTRA.SOLV.lig_0>
-48.4015

>  <SCORE.INTRA.VDW>
-0.195731

>  <SCORE.INTRA.VDW.0>
-2.83256

>  <SCORE.INTRA.norm>
-0.0215301

>  <SCORE.RESTR>
0

>  <SCORE.RESTR.CAVITY>
0

>  <SCORE.RESTR.norm>
0

>  <SCORE.SYSTEM>
0

>  <SCORE.SYSTEM.CONST>
0

>  <SCORE.SYSTEM.DIHEDRAL>
0

>  <SCORE.SYSTEM.SOLV>
0

>  <SCORE.SYSTEM.norm>
0

>  <SCORE.heavy>
27

>  <SCORE.norm>
-0.667628

>  <RMSD>
14.854

$$$$
ligand
 OpenBabel02271912153D
libRbt.so/2013.1/901 2013/11/27
 27 29  0  0  0  0  0  0  0  0999 V2000
    9.1436    5.2528   17.2391 N   0  0  0  0  0  0  0  0  0  0  0  0
    8.2283    4.1957   17.7322 C   0  0  2  0  0  0  0  0  0  0  0  0
    7.4458    4.7678   18.9072 C   0  0  0  0  0  0  0  0  0  0  0  0
    6.4450    4.2271   19.4848 O   0  0  0  0  0  0  0  0  0  0  0  0
    9.0546    2.9608   18.0982 C   0  0  0  0  0  0  0  0  0  0  0  0
    8.1913    1.7711   18.4961 C   0  0  0  0  0  0  0  0  0  0  0  0
    8.8704    0.1035   18.8346 S   0  0  2  0  0  0  0  0  0  0  0  0
    9.4702   -0.2846   17.1914 C   0  0  0  0  0  0  0  0  0  0  0  0
    7.2933   -0.8007   18.9419 C   0  0  0  0  0  0  0  0  0  0  0  0
    7.4950   -2.2835   18.7919 C   0  0  1  0  0  0  0  0  0  0  0  0
    8.3781   -2.8286   19.8018 O   0  0  0  0  0  0  0  0  0  0  0  0
    6.2187   -3.0920   18.8403 C   0  0  1  0  0  0  0  0  0  0  0  0
    5.8376   -3.3592   17.5613 O   0  0  0  0  0  0  0  0  0  0  0  0
    6.7397   -4.3813   19.4308 C   0  0  1  0  0  0  0  0  0  0  0  0
    7.2576   -5.0788   18.3863 O   0  0  0  0  0  0  0  0  0  0  0  0
    7.8825   -3.9976   20.3967 C   0  0  2  0  0  0  0  0  0  0  0  0
    7.7896    5.8873   19.2905 O   0  0  0  0  0  0  0  0  0  0  0  0
    7.5754   -0.6361   24.3692 N   0  0  0  0  0  0  0  0  0  0  0  0
    8.4452   -0.7440   23.2324 C   0  0  0  0  0  0  0  0  0  0  0  0
    8.4167   -1.7172   22.2028 N   0  0  0  0  0  0  0  0  0  0  0  0
    7.4683   -2.5496   22.3798 C   0  0  0  0  0  0  0  0  0  0  0  0
    6.5167   -2.5213   23.5130 C   0  0  0  0  0  0  0  0  0  0  0  0
    6.5879   -1.5912   24.4742 C   0  0  0  0  0  0  0  0  0  0  0  0
    5.6927   -1.6930   25.4350 N   0  0  0  0  0  0  0  0  0  0  0  0
    5.6345   -3.4915   23.4837 N   0  0  0  0  0  0  0  0  0  0  0  0
    6.0318   -4.1275   22.3220 C   0  0  0  0  0  0  0  0  0  0  0  0
    7.1670   -3.5482   21.6217 N   0  0  0  0  0  0  0  0  0  0  0  0
  2  1  1  1  0  0  0
  2  3  1  0  0  0  0
  2  5  1  0  0  0  0
  3  4  1  0  0  0  0
  3 17  1  0  0  0  0
  5  6  1  0  0  0  0
  7  6  1  6  0  0  0
  7  8  1  0  0  0  0
  7  9  1  0  0  0  0
 10  9  1  1  0  0  0
 10 11  1  0  0  0  0
 10 12  1  0  0  0  0
 11 16  1  0  0  0  0
 12 13  1  6  0  0  0
 12 14  1  0  0  0  0
 14 15  1  6  0  0  0
 14 16  1  0  0  0  0
 16 27  1  1  0  0  0
 18 19  2  0  0  0  0
 18 23  1  0  0  0  0
 19 20  1  0  0  0  0
 20 21  2  0  0  0  0
 21 22  1  0  0  0  0
 21 27  1  0  0  0  0
 22 23  2  0  0  0  0
 22 25  1  0  0  0  0
 23 24  1  0  0  0  0
 25 26  2  0  0  0  0
 26 27  1  0  0  0  0
M  END
>  <CHROM.1>
170.29602262,-174.72238411,174.00555281,-65.42180312,162.20450864,59.10491906
-33.32686853,7.53082625,-0.64466337,20.22215007,-0.59396041,-1.35622174,-2.62795267

>  <Name>
ligand

>  <RI>
0

>  <Rbt.Current_Directory>
/home/itssahil/PROJECTS/Mol_Feturizer/Test_systems_manuscript/rnas/4aob

>  <Rbt.Executable>
rbdock ($Id: //depot/dev/client3/rdock/2013.1/src/exe/rbdock.cxx#4 $)

>  <Rbt.Library>
libRbt.so (2013.1, Build901 2013/11/27)

>  <Rbt.Parameter_File>
/export/apps/rDock/src/rDock_2013.1_src/data/scripts/dock_solv.prm

>  <Rbt.Receptor>
prm/blind_docking_40.prm

>  <SCORE>
-10.6289

>  <SCORE.INTER>
-9.47079

>  <SCORE.INTER.CONST>
1

>  <SCORE.INTER.POLAR>
0

>  <SCORE.INTER.ROT>
7

>  <SCORE.INTER.SOLV>
7.66341

>  <SCORE.INTER.VDW>
-17.135

>  <SCORE.INTER.norm>
-0.35077

>  <SCORE.INTRA>
-1.15809

>  <SCORE.INTRA.DIHEDRAL>
-2.80084

>  <SCORE.INTRA.DIHEDRAL.0>
6.31833

>  <SCORE.INTRA.POLAR>
0

>  <SCORE.INTRA.POLAR.0>
0

>  <SCORE.INTRA.REPUL>
0

>  <SCORE.INTRA.REPUL.0>
0

>  <SCORE.INTRA.SOLV>
-0.67645

>  <SCORE.INTRA.SOLV.lig_0>
-48.4015

>  <SCORE.INTRA.VDW>
0.580553

>  <SCORE.INTRA.VDW.0>
-2.83256

>  <SCORE.INTRA.norm>
-0.0428924

>  <SCORE.RESTR>
0

>  <SCORE.RESTR.CAVITY>
0

>  <SCORE.RESTR.norm>
0

>  <SCORE.SYSTEM>
0

>  <SCORE.SYSTEM.CONST>
0

>  <SCORE.SYSTEM.DIHEDRAL>
0

>  <SCORE.SYSTEM.SOLV>
0

>  <SCORE.SYSTEM.norm>
0

>  <SCORE.heavy>
27

>  <SCORE.norm>
-0.393662

>  <RMSD>
14.895

$$$$
ligand
 OpenBabel02271912153D
libRbt.so/2013.1/901 2013/11/27
 27 29  0  0  0  0  0  0  0  0999 V2000
    9.8220   -4.4760   15.6704 N   0  0  0  0  0  0  0  0  0  0  0  0
    9.3226   -3.3963   16.5554 C   0  0  2  0  0  0  0  0  0  0  0  0
    8.9329   -2.2155   15.6755 C   0  0  0  0  0  0  0  0  0  0  0  0
    7.7763   -1.6837   15.5916 O   0  0  0  0  0  0  0  0  0  0  0  0
   10.4086   -3.0570   17.5787 C   0  0  0  0  0  0  0  0  0  0  0  0
    9.9783   -1.9716   18.5563 C   0  0  0  0  0  0  0  0  0  0  0  0
    8.6910   -2.2223   19.8355 S   0  0  2  0  0  0  0  0  0  0  0  0
    7.2650   -2.3713   18.7608 C   0  0  0  0  0  0  0  0  0  0  0  0
    8.5942   -0.5086   20.4439 C   0  0  0  0  0  0  0  0  0  0  0  0
    7.6696   -0.3926   21.6244 C   0  0  1  0  0  0  0  0  0  0  0  0
    6.5213   -1.2685   21.5184 O   0  0  0  0  0  0  0  0  0  0  0  0
    8.3231   -0.6827   22.9562 C   0  0  1  0  0  0  0  0  0  0  0  0
    8.6554    0.5046   23.5327 O   0  0  0  0  0  0  0  0  0  0  0  0
    7.1428   -1.2362   23.7197 C   0  0  1  0  0  0  0  0  0  0  0  0
    6.4634   -0.1529   24.1783 O   0  0  0  0  0  0  0  0  0  0  0  0
    6.2633   -1.9863   22.6950 C   0  0  2  0  0  0  0  0  0  0  0  0
    9.8172   -1.7775   14.9376 O   0  0  0  0  0  0  0  0  0  0  0  0
    6.6376   -6.5142   20.1391 N   0  0  0  0  0  0  0  0  0  0  0  0
    5.8058   -5.3554   19.9779 C   0  0  0  0  0  0  0  0  0  0  0  0
    5.8100   -4.1659   20.7479 N   0  0  0  0  0  0  0  0  0  0  0  0
    6.6955   -4.2109   21.6631 C   0  0  0  0  0  0  0  0  0  0  0  0
    7.6038   -5.3536   21.9077 C   0  0  0  0  0  0  0  0  0  0  0  0
    7.5568   -6.4669   21.1645 C   0  0  0  0  0  0  0  0  0  0  0  0
    8.4069   -7.4149   21.5014 N   0  0  0  0  0  0  0  0  0  0  0  0
    8.4220   -5.1690   22.9160 N   0  0  0  0  0  0  0  0  0  0  0  0
    8.0282   -3.9008   23.3015 C   0  0  0  0  0  0  0  0  0  0  0  0
    6.9598   -3.2904   22.5264 N   0  0  0  0  0  0  0  0  0  0  0  0
  2  1  1  6  0  0  0
  2  3  1  0  0  0  0
  2  5  1  0  0  0  0
  3  4  1  0  0  0  0
  3 17  1  0  0  0  0
  5  6  1  0  0  0  0
  7  6  1  6  0  0  0
  7  8  1  0  0  0  0
  7  9  1  0  0  0  0
 10  9  1  6  0  0  0
 10 11  1  0  0  0  0
 10 12  1  0  0  0  0
 11 16  1  0  0  0  0
 12 13  1  1  0  0  0
 12 14  1  0  0  0  0
 14 15  1  6  0  0  0
 14 16  1  0  0  0  0
 16 27  1  6  0  0  0
 18 19  2  0  0  0  0
 18 23  1  0  0  0  0
 19 20  1  0  0  0  0
 20 21  2  0  0  0  0
 21 22  1  0  0  0  0
 21 27  1  0  0  0  0
 22 23  2  0  0  0  0
 22 25  1  0  0  0  0
 23 24  1  0  0  0  0
 25 26  2  0  0  0  0
 26 27  1  0  0  0  0
M  END
>  <CHROM.1>
120.43752817,-178.85572688,69.13295368,-68.49575003,-175.17973311,-36.27970966
-65.28955360,7.95979927,-2.86841862,20.29692503,0.48168182,-1.25273014,-2.72682122

>  <Name>
ligand

>  <RI>
0

>  <Rbt.Current_Directory>
/home/itssahil/PROJECTS/Mol_Feturizer/Test_systems_manuscript/rnas/4aob

>  <Rbt.Executable>
rbdock ($Id: //depot/dev/client3/rdock/2013.1/src/exe/rbdock.cxx#4 $)

>  <Rbt.Library>
libRbt.so (2013.1, Build901 2013/11/27)

>  <Rbt.Parameter_File>
/export/apps/rDock/src/rDock_2013.1_src/data/scripts/dock_solv.prm

>  <Rbt.Receptor>
prm/blind_docking_80.prm

>  <SCORE>
-10.3726

>  <SCORE.INTER>
-9.12981

>  <SCORE.INTER.CONST>
1

>  <SCORE.INTER.POLAR>
0

>  <SCORE.INTER.ROT>
7

>  <SCORE.INTER.SOLV>
10.3768

>  <SCORE.INTER.VDW>
-17.8121

>  <SCORE.INTER.norm>
-0.338141

>  <SCORE.INTRA>
-1.24281

>  <SCORE.INTRA.DIHEDRAL>
-0.524359

>  <SCORE.INTRA.DIHEDRAL.0>
6.31833

>  <SCORE.INTRA.POLAR>
0

>  <SCORE.INTRA.POLAR.0>
0

>  <SCORE.INTRA.REPUL>
0

>  <SCORE.INTRA.REPUL.0>
0

>  <SCORE.INTRA.SOLV>
-0.22343

>  <SCORE.INTRA.SOLV.lig_0>
-48.4015

>  <SCORE.INTRA.VDW>
-0.868912

>  <SCORE.INTRA.VDW.0>
-2.83256

>  <SCORE.INTRA.norm>
-0.0460299

>  <SCORE.RESTR>
0

>  <SCORE.RESTR.CAVITY>
0

>  <SCORE.RESTR.norm>
0

>  <SCORE.SYSTEM>
0

>  <SCORE.SYSTEM.CONST>
0

>  <SCORE.SYSTEM.DIHEDRAL>
0

>  <SCORE.SYSTEM.SOLV>
0

>  <SCORE.SYSTEM.norm>
0

>  <SCORE.heavy>
27

>  <SCORE.norm>
-0.384171

>  <RMSD>
14.909

$$$$
ligand
 OpenBabel02271912153D
libRbt.so/2013.1/901 2013/11/27
 27 29  0  0  0  0  0  0  0  0999 V2000
   10.1203    6.2187   15.5788 N   0  0  0  0  0  0  0  0  0  0  0  0
    8.7509    6.6814   15.9089 C   0  0  2  0  0  0  0  0  0  0  0  0
    8.5131    7.9945   15.1745 C   0  0  0  0  0  0  0  0  0  0  0  0
    9.1752    9.0749   15.3225 O   0  0  0  0  0  0  0  0  0  0  0  0
    8.6268    6.8060   17.4290 C   0  0  0  0  0  0  0  0  0  0  0  0
    7.2192    7.1770   17.8766 C   0  0  0  0  0  0  0  0  0  0  0  0
    6.7082    7.2474   19.6346 S   0  0  2  0  0  0  0  0  0  0  0  0
    5.0829    7.9696   19.4166 C   0  0  0  0  0  0  0  0  0  0  0  0
    7.7404    8.6574   20.1472 C   0  0  0  0  0  0  0  0  0  0  0  0
    7.6319    8.9133   21.6253 C   0  0  1  0  0  0  0  0  0  0  0  0
    8.6309    9.8470   22.1018 O   0  0  0  0  0  0  0  0  0  0  0  0
    6.2871    9.4441   22.0668 C   0  0  1  0  0  0  0  0  0  0  0  0
    5.5538    8.3996   22.5396 O   0  0  0  0  0  0  0  0  0  0  0  0
    6.7040   10.2741   23.2583 C   0  0  1  0  0  0  0  0  0  0  0  0
    6.8089    9.4007   24.2935 O   0  0  0  0  0  0  0  0  0  0  0  0
    8.1032   10.8434   22.9353 C   0  0  2  0  0  0  0  0  0  0  0  0
    7.5494    8.0164   14.4068 O   0  0  0  0  0  0  0  0  0  0  0  0
    6.1761   15.6568   22.3948 N   0  0  0  0  0  0  0  0  0  0  0  0
    6.3685   14.7916   23.5239 C   0  0  0  0  0  0  0  0  0  0  0  0
    6.9208   13.4867   23.5375 N   0  0  0  0  0  0  0  0  0  0  0  0
    7.2720   13.1212   22.3684 C   0  0  0  0  0  0  0  0  0  0  0  0
    7.1215   13.9392   21.1441 C   0  0  0  0  0  0  0  0  0  0  0  0
    6.5800   15.1639   21.1731 C   0  0  0  0  0  0  0  0  0  0  0  0
    6.4871   15.7751   20.0101 N   0  0  0  0  0  0  0  0  0  0  0  0
    7.5459   13.3415   20.0565 N   0  0  0  0  0  0  0  0  0  0  0  0
    7.9705   12.1446   20.6035 C   0  0  0  0  0  0  0  0  0  0  0  0
    7.8122   11.9970   22.0415 N   0  0  0  0  0  0  0  0  0  0  0  0
  2  1  1  1  0  0  0
  2  3  1  0  0  0  0
  2  5  1  0  0  0  0
  3  4  1  0  0  0  0
  3 17  1  0  0  0  0
  5  6  1  0  0  0  0
  7  6  1  6  0  0  0
  7  8  1  0  0  0  0
  7  9  1  0  0  0  0
 10  9  1  6  0  0  0
 10 11  1  0  0  0  0
 10 12  1  0  0  0  0
 11 16  1  0  0  0  0
 12 13  1  1  0  0  0
 12 14  1  0  0  0  0
 14 15  1  1  0  0  0
 14 16  1  0  0  0  0
 16 27  1  6  0  0  0
 18 19  2  0  0  0  0
 18 23  1  0  0  0  0
 19 20  1  0  0  0  0
 20 21  2  0  0  0  0
 21 22  1  0  0  0  0
 21 27  1  0  0  0  0
 22 23  2  0  0  0  0
 22 25  1  0  0  0  0
 23 24  1  0  0  0  0
 25 26  2  0  0  0  0
 26 27  1  0  0  0  0
M  END
>  <CHROM.1>
-61.07743856,-175.70986963,174.06303557,171.73737353,-175.32757130,168.60051236
177.41004937,7.35519955,10.20645223,20.17518070,-0.81313216,1.33425062,0.02073747

>  <Name>
ligand

>  <RI>
0

>  <Rbt.Current_Directory>
/home/itssahil/PROJECTS/Mol_Feturizer/Test_systems_manuscript/rnas/4aob

>  <Rbt.Executable>
rbdock ($Id: //depot/dev/client3/rdock/2013.1/src/exe/rbdock.cxx#4 $)

>  <Rbt.Library>
libRbt.so (2013.1, Build901 2013/11/27)

>  <Rbt.Parameter_File>
/export/apps/rDock/src/rDock_2013.1_src/data/scripts/dock_solv.prm

>  <Rbt.Receptor>
prm/blind_docking_100.prm

>  <SCORE>
-14.7192

>  <SCORE.INTER>
-13.4143

>  <SCORE.INTER.CONST>
1

>  <SCORE.INTER.POLAR>
0

>  <SCORE.INTER.ROT>
7

>  <SCORE.INTER.SOLV>
12.7942

>  <SCORE.INTER.VDW>
-21.4743

>  <SCORE.INTER.norm>
-0.496826

>  <SCORE.INTRA>
-1.3049

>  <SCORE.INTRA.DIHEDRAL>
-1.98012

>  <SCORE.INTRA.DIHEDRAL.0>
6.31833

>  <SCORE.INTRA.POLAR>
0

>  <SCORE.INTRA.POLAR.0>
0

>  <SCORE.INTRA.REPUL>
0

>  <SCORE.INTRA.REPUL.0>
0

>  <SCORE.INTRA.SOLV>
-0.549951

>  <SCORE.INTRA.SOLV.lig_0>
-48.4015

>  <SCORE.INTRA.VDW>
-0.0398675

>  <SCORE.INTRA.VDW.0>
-2.83256

>  <SCORE.INTRA.norm>
-0.0483298

>  <SCORE.RESTR>
0

>  <SCORE.RESTR.CAVITY>
0

>  <SCORE.RESTR.norm>
0

>  <SCORE.SYSTEM>
0

>  <SCORE.SYSTEM.CONST>
0

>  <SCORE.SYSTEM.DIHEDRAL>
0

>  <SCORE.SYSTEM.SOLV>
0

>  <SCORE.SYSTEM.norm>
0

>  <SCORE.heavy>
27

>  <SCORE.norm>
-0.545156

>  <RMSD>
14.922

$$$$
ligand
 OpenBabel02271912153D
libRbt.so/2013.1/901 2013/11/27
 27 29  0  0  0  0  0  0  0  0999 V2000
    9.7587   -3.3947   15.7990 N   0  0  0  0  0  0  0  0  0  0  0  0
    9.4106   -2.9659   17.1750 C   0  0  2  0  0  0  0  0  0  0  0  0
   10.2488   -1.7379   17.5063 C   0  0  0  0  0  0  0  0  0  0  0  0
   11.0743   -1.6235   18.4723 O   0  0  0  0  0  0  0  0  0  0  0  0
    9.6481   -4.1375   18.1303 C   0  0  0  0  0  0  0  0  0  0  0  0
    9.0603   -3.8972   19.5145 C   0  0  0  0  0  0  0  0  0  0  0  0
    7.2700   -4.0226   19.8831 S   0  0  2  0  0  0  0  0  0  0  0  0
    6.9362   -5.5895   19.0806 C   0  0  0  0  0  0  0  0  0  0  0  0
    6.6725   -2.7891   18.6841 C   0  0  0  0  0  0  0  0  0  0  0  0
    6.5783   -1.4202   19.2998 C   0  0  1  0  0  0  0  0  0  0  0  0
    5.6926   -1.3862   20.4449 O   0  0  0  0  0  0  0  0  0  0  0  0
    7.9034   -0.8496   19.7512 C   0  0  1  0  0  0  0  0  0  0  0  0
    8.3551   -0.0087   18.7810 O   0  0  0  0  0  0  0  0  0  0  0  0
    7.4466    0.0069   20.9088 C   0  0  1  0  0  0  0  0  0  0  0  0
    7.0216    1.1727   20.3557 O   0  0  0  0  0  0  0  0  0  0  0  0
    6.2409   -0.7167   21.5482 C   0  0  2  0  0  0  0  0  0  0  0  0
   10.0597   -0.7482   16.7970 O   0  0  0  0  0  0  0  0  0  0  0  0
    5.9083   -5.4545   23.6971 N   0  0  0  0  0  0  0  0  0  0  0  0
    5.0541   -4.7069   22.8184 C   0  0  0  0  0  0  0  0  0  0  0  0
    5.2680   -3.4091   22.2912 N   0  0  0  0  0  0  0  0  0  0  0  0
    6.3796   -2.9273   22.6861 C   0  0  0  0  0  0  0  0  0  0  0  0
    7.3308   -3.6182   23.5852 C   0  0  0  0  0  0  0  0  0  0  0  0
    7.0829   -4.8405   24.0735 C   0  0  0  0  0  0  0  0  0  0  0  0
    8.0031   -5.3318   24.8779 N   0  0  0  0  0  0  0  0  0  0  0  0
    8.4026   -2.9134   23.8591 N   0  0  0  0  0  0  0  0  0  0  0  0
    8.1241   -1.7770   23.1223 C   0  0  0  0  0  0  0  0  0  0  0  0
    6.8722   -1.7750   22.3825 N   0  0  0  0  0  0  0  0  0  0  0  0
  2  1  1  6  0  0  0
  2  3  1  0  0  0  0
  2  5  1  0  0  0  0
  3  4  1  0  0  0  0
  3 17  1  0  0  0  0
  5  6  1  0  0  0  0
  7  6  1  6  0  0  0
  7  8  1  0  0  0  0
  7  9  1  0  0  0  0
 10  9  1  1  0  0  0
 10 11  1  0  0  0  0
 10 12  1  0  0  0  0
 11 16  1  0  0  0  0
 12 13  1  6  0  0  0
 12 14  1  0  0  0  0
 14 15  1  6  0  0  0
 14 16  1  0  0  0  0
 16 27  1  1  0  0  0
 18 19  2  0  0  0  0
 18 23  1  0  0  0  0
 19 20  1  0  0  0  0
 20 21  2  0  0  0  0
 21 22  1  0  0  0  0
 21 27  1  0  0  0  0
 22 23  2  0  0  0  0
 22 25  1  0  0  0  0
 23 24  1  0  0  0  0
 25 26  2  0  0  0  0
 26 27  1  0  0  0  0
M  END
>  <CHROM.1>
-121.04486619,-168.40337694,76.03064672,47.64524811,-91.81402577,-58.79809583
-43.87567181,7.70611646,-2.64179199,20.45555774,-0.52343192,-1.07798924,2.91564903

>  <Name>
ligand

>  <RI>
0

>  <Rbt.Current_Directory>
/home/itssahil/PROJECTS/Mol_Feturizer/Test_systems_manuscript/rnas/4aob

>  <Rbt.Executable>
rbdock ($Id: //depot/dev/client3/rdock/2013.1/src/exe/rbdock.cxx#4 $)

>  <Rbt.Library>
libRbt.so (2013.1, Build901 2013/11/27)

>  <Rbt.Parameter_File>
/export/apps/rDock/src/rDock_2013.1_src/data/scripts/dock_solv.prm

>  <Rbt.Receptor>
prm/blind_docking_80.prm

>  <SCORE>
-11.1302

>  <SCORE.INTER>
-8.88121

>  <SCORE.INTER.CONST>
1

>  <SCORE.INTER.POLAR>
0

>  <SCORE.INTER.ROT>
7

>  <SCORE.INTER.SOLV>
3.75049

>  <SCORE.INTER.VDW>
-15.4376

>  <SCORE.INTER.norm>
-0.328934

>  <SCORE.INTRA>
-2.249

>  <SCORE.INTRA.DIHEDRAL>
-0.475091

>  <SCORE.INTRA.DIHEDRAL.0>
6.31833

>  <SCORE.INTRA.POLAR>
0

>  <SCORE.INTRA.POLAR.0>
0

>  <SCORE.INTRA.REPUL>
0

>  <SCORE.INTRA.REPUL.0>
0

>  <SCORE.INTRA.SOLV>
0.56813

>  <SCORE.INTRA.SOLV.lig_0>
-48.4015

>  <SCORE.INTRA.VDW>
-2.29552

>  <SCORE.INTRA.VDW.0>
-2.83256

>  <SCORE.INTRA.norm>
-0.0832963

>  <SCORE.RESTR>
0

>  <SCORE.RESTR.CAVITY>
0

>  <SCORE.RESTR.norm>
0

>  <SCORE.SYSTEM>
0

>  <SCORE.SYSTEM.CONST>
0

>  <SCORE.SYSTEM.DIHEDRAL>
0

>  <SCORE.SYSTEM.SOLV>
0

>  <SCORE.SYSTEM.norm>
0

>  <SCORE.heavy>
27

>  <SCORE.norm>
-0.41223

>  <RMSD>
14.935

$$$$
ligand
 OpenBabel02271912153D
libRbt.so/2013.1/901 2013/11/27
 27 29  0  0  0  0  0  0  0  0999 V2000
   10.6763   -3.6233   16.9006 N   0  0  0  0  0  0  0  0  0  0  0  0
   10.1050   -2.2565   16.8372 C   0  0  2  0  0  0  0  0  0  0  0  0
   10.3581   -1.7101   15.4381 C   0  0  0  0  0  0  0  0  0  0  0  0
    9.4865   -1.2112   14.6515 O   0  0  0  0  0  0  0  0  0  0  0  0
   10.7364   -1.4076   17.9428 C   0  0  0  0  0  0  0  0  0  0  0  0
   10.1146   -0.0214   18.0487 C   0  0  0  0  0  0  0  0  0  0  0  0
    8.3666    0.2641   18.5172 S   0  0  2  0  0  0  0  0  0  0  0  0
    8.3801    2.0557   18.5392 C   0  0  0  0  0  0  0  0  0  0  0  0
    8.4934   -0.1888   20.2765 C   0  0  0  0  0  0  0  0  0  0  0  0
    7.2372    0.1562   21.0280 C   0  0  1  0  0  0  0  0  0  0  0  0
    6.0726   -0.5284   20.5066 O   0  0  0  0  0  0  0  0  0  0  0  0
    7.2973   -0.1427   22.5086 C   0  0  1  0  0  0  0  0  0  0  0  0
    7.5986    1.0125   23.1622 O   0  0  0  0  0  0  0  0  0  0  0  0
    5.8422   -0.4446   22.7809 C   0  0  1  0  0  0  0  0  0  0  0  0
    5.2436    0.7632   22.9493 O   0  0  0  0  0  0  0  0  0  0  0  0
    5.2809   -1.1121   21.5059 C   0  0  2  0  0  0  0  0  0  0  0  0
   11.5114   -1.8177   15.0174 O   0  0  0  0  0  0  0  0  0  0  0  0
    7.2716   -5.3145   19.1497 N   0  0  0  0  0  0  0  0  0  0  0  0
    6.9765   -3.9814   18.7067 C   0  0  0  0  0  0  0  0  0  0  0  0
    6.4357   -2.9117   19.4625 N   0  0  0  0  0  0  0  0  0  0  0  0
    6.2277   -3.2585   20.6709 C   0  0  0  0  0  0  0  0  0  0  0  0
    6.5026   -4.6027   21.2258 C   0  0  0  0  0  0  0  0  0  0  0  0
    7.0012   -5.5913   20.4721 C   0  0  0  0  0  0  0  0  0  0  0  0
    7.1795   -6.7432   21.0857 N   0  0  0  0  0  0  0  0  0  0  0  0
    6.1941   -4.7212   22.4951 N   0  0  0  0  0  0  0  0  0  0  0  0
    5.7290   -3.4420   22.7384 C   0  0  0  0  0  0  0  0  0  0  0  0
    5.7506   -2.5199   21.6141 N   0  0  0  0  0  0  0  0  0  0  0  0
  2  1  1  6  0  0  0
  2  3  1  0  0  0  0
  2  5  1  0  0  0  0
  3  4  1  0  0  0  0
  3 17  1  0  0  0  0
  5  6  1  0  0  0  0
  7  6  1  6  0  0  0
  7  8  1  0  0  0  0
  7  9  1  0  0  0  0
 10  9  1  6  0  0  0
 10 11  1  0  0  0  0
 10 12  1  0  0  0  0
 11 16  1  0  0  0  0
 12 13  1  1  0  0  0
 12 14  1  0  0  0  0
 14 15  1  6  0  0  0
 14 16  1  0  0  0  0
 16 27  1  1  0  0  0
 18 19  2  0  0  0  0
 18 23  1  0  0  0  0
 19 20  1  0  0  0  0
 20 21  2  0  0  0  0
 21 22  1  0  0  0  0
 21 27  1  0  0  0  0
 22 23  2  0  0  0  0
 22 25  1  0  0  0  0
 23 24  1  0  0  0  0
 25 26  2  0  0  0  0
 26 27  1  0  0  0  0
M  END
>  <CHROM.1>
127.69648538,-174.37657969,64.24403886,176.56075796,170.63566272,60.17136723
-31.51710558,7.77055647,-1.77885283,19.69349404,0.05439261,-0.95929028,-2.97016956

>  <Name>
ligand

>  <RI>
0

>  <Rbt.Current_Directory>
/home/itssahil/PROJECTS/Mol_Feturizer/Test_systems_manuscript/rnas/4aob

>  <Rbt.Executable>
rbdock ($Id: //depot/dev/client3/rdock/2013.1/src/exe/rbdock.cxx#4 $)

>  <Rbt.Library>
libRbt.so (2013.1, Build901 2013/11/27)

>  <Rbt.Parameter_File>
/export/apps/rDock/src/rDock_2013.1_src/data/scripts/dock_solv.prm

>  <Rbt.Receptor>
prm/blind_docking_60.prm

>  <SCORE>
-12.7905

>  <SCORE.INTER>
-10.454

>  <SCORE.INTER.CONST>
1

>  <SCORE.INTER.POLAR>
0

>  <SCORE.INTER.ROT>
7

>  <SCORE.INTER.SOLV>
8.96674

>  <SCORE.INTER.VDW>
-18.2249

>  <SCORE.INTER.norm>
-0.387187

>  <SCORE.INTRA>
-2.33645

>  <SCORE.INTRA.DIHEDRAL>
-3.01396

>  <SCORE.INTRA.DIHEDRAL.0>
6.31833

>  <SCORE.INTRA.POLAR>
0

>  <SCORE.INTRA.POLAR.0>
0

>  <SCORE.INTRA.REPUL>
0

>  <SCORE.INTRA.REPUL.0>
0

>  <SCORE.INTRA.SOLV>
-0.633809

>  <SCORE.INTRA.SOLV.lig_0>
-48.4015

>  <SCORE.INTRA.VDW>
-0.512566

>  <SCORE.INTRA.VDW.0>
-2.83256

>  <SCORE.INTRA.norm>
-0.0865352

>  <SCORE.RESTR>
0

>  <SCORE.RESTR.CAVITY>
0

>  <SCORE.RESTR.norm>
0

>  <SCORE.SYSTEM>
0

>  <SCORE.SYSTEM.CONST>
0

>  <SCORE.SYSTEM.DIHEDRAL>
0

>  <SCORE.SYSTEM.SOLV>
0

>  <SCORE.SYSTEM.norm>
0

>  <SCORE.heavy>
27

>  <SCORE.norm>
-0.473722

>  <RMSD>
14.966

$$$$
ligand
 OpenBabel02271912153D
libRbt.so/2013.1/901 2013/11/27
 27 29  0  0  0  0  0  0  0  0999 V2000
    9.0424    2.8271   18.3363 N   0  0  0  0  0  0  0  0  0  0  0  0
    8.9632    1.4753   17.7325 C   0  0  2  0  0  0  0  0  0  0  0  0
    7.5011    1.0481   17.7365 C   0  0  0  0  0  0  0  0  0  0  0  0
    6.6960    1.1151   18.7237 O   0  0  0  0  0  0  0  0  0  0  0  0
    9.8728    0.5303   18.5207 C   0  0  0  0  0  0  0  0  0  0  0  0
   10.0670   -0.8129   17.8298 C   0  0  0  0  0  0  0  0  0  0  0  0
   10.1750   -2.4029   18.7335 S   0  0  2  0  0  0  0  0  0  0  0  0
   10.9261   -3.3971   17.4458 C   0  0  0  0  0  0  0  0  0  0  0  0
    8.4143   -2.8620   18.6598 C   0  0  0  0  0  0  0  0  0  0  0  0
    8.0747   -3.9157   19.6778 C   0  0  1  0  0  0  0  0  0  0  0  0
    8.5135   -3.5610   21.0114 O   0  0  0  0  0  0  0  0  0  0  0  0
    6.6007   -4.2377   19.7704 C   0  0  1  0  0  0  0  0  0  0  0  0
    6.3647   -5.3579   19.0343 O   0  0  0  0  0  0  0  0  0  0  0  0
    6.5024   -4.6297   21.2261 C   0  0  1  0  0  0  0  0  0  0  0  0
    6.8902   -5.9305   21.2815 O   0  0  0  0  0  0  0  0  0  0  0  0
    7.5295   -3.7645   21.9894 C   0  0  2  0  0  0  0  0  0  0  0  0
    7.0849    0.5392   16.6942 O   0  0  0  0  0  0  0  0  0  0  0  0
    7.8179    1.2754   23.2898 N   0  0  0  0  0  0  0  0  0  0  0  0
    8.7889    0.2220   23.1999 C   0  0  0  0  0  0  0  0  0  0  0  0
    8.5787   -1.1266   22.8189 N   0  0  0  0  0  0  0  0  0  0  0  0
    7.3566   -1.3393   22.5274 C   0  0  0  0  0  0  0  0  0  0  0  0
    6.2830   -0.3221   22.5826 C   0  0  0  0  0  0  0  0  0  0  0  0
    6.5222    0.9397   22.9628 C   0  0  0  0  0  0  0  0  0  0  0  0
    5.4744    1.7376   22.9868 N   0  0  0  0  0  0  0  0  0  0  0  0
    5.1022   -0.7845   22.2475 N   0  0  0  0  0  0  0  0  0  0  0  0
    5.4392   -2.0975   21.9747 C   0  0  0  0  0  0  0  0  0  0  0  0
    6.8394   -2.4545   22.1383 N   0  0  0  0  0  0  0  0  0  0  0  0
  2  1  1  1  0  0  0
  2  3  1  0  0  0  0
  2  5  1  0  0  0  0
  3  4  1  0  0  0  0
  3 17  1  0  0  0  0
  5  6  1  0  0  0  0
  7  6  1  6  0  0  0
  7  8  1  0  0  0  0
  7  9  1  0  0  0  0
 10  9  1  6  0  0  0
 10 11  1  0  0  0  0
 10 12  1  0  0  0  0
 11 16  1  0  0  0  0
 12 13  1  6  0  0  0
 12 14  1  0  0  0  0
 14 15  1  6  0  0  0
 14 16  1  0  0  0  0
 16 27  1  6  0  0  0
 18 19  2  0  0  0  0
 18 23  1  0  0  0  0
 19 20  1  0  0  0  0
 20 21  2  0  0  0  0
 21 22  1  0  0  0  0
 21 27  1  0  0  0  0
 22 23  2  0  0  0  0
 22 25  1  0  0  0  0
 23 24  1  0  0  0  0
 25 26  2  0  0  0  0
 26 27  1  0  0  0  0
M  END
>  <CHROM.1>
-48.21375091,-169.20779117,-142.65442272,-161.97947786,-162.18931593,51.65609044
-62.13027457,7.81510598,-1.47939447,20.26011332,-1.14634576,-1.04462903,-3.13097057

>  <Name>
ligand

>  <RI>
0

>  <Rbt.Current_Directory>
/home/itssahil/PROJECTS/Mol_Feturizer/Test_systems_manuscript/rnas/4aob

>  <Rbt.Executable>
rbdock ($Id: //depot/dev/client3/rdock/2013.1/src/exe/rbdock.cxx#4 $)

>  <Rbt.Library>
libRbt.so (2013.1, Build901 2013/11/27)

>  <Rbt.Parameter_File>
/export/apps/rDock/src/rDock_2013.1_src/data/scripts/dock_solv.prm

>  <Rbt.Receptor>
prm/blind_docking_80.prm

>  <SCORE>
-12.8583

>  <SCORE.INTER>
-14.3223

>  <SCORE.INTER.CONST>
1

>  <SCORE.INTER.POLAR>
0

>  <SCORE.INTER.ROT>
7

>  <SCORE.INTER.SOLV>
13.3974

>  <SCORE.INTER.VDW>
-22.2806

>  <SCORE.INTER.norm>
-0.530454

>  <SCORE.INTRA>
1.46396

>  <SCORE.INTRA.DIHEDRAL>
4.72742

>  <SCORE.INTRA.DIHEDRAL.0>
6.31833

>  <SCORE.INTRA.POLAR>
0

>  <SCORE.INTRA.POLAR.0>
0

>  <SCORE.INTRA.REPUL>
0

>  <SCORE.INTRA.REPUL.0>
0

>  <SCORE.INTRA.SOLV>
-0.785965

>  <SCORE.INTRA.SOLV.lig_0>
-48.4015

>  <SCORE.INTRA.VDW>
-0.506763

>  <SCORE.INTRA.VDW.0>
-2.83256

>  <SCORE.INTRA.norm>
0.0542209

>  <SCORE.RESTR>
0

>  <SCORE.RESTR.CAVITY>
0

>  <SCORE.RESTR.norm>
0

>  <SCORE.SYSTEM>
0

>  <SCORE.SYSTEM.CONST>
0

>  <SCORE.SYSTEM.DIHEDRAL>
0

>  <SCORE.SYSTEM.SOLV>
0

>  <SCORE.SYSTEM.norm>
0

>  <SCORE.heavy>
27

>  <SCORE.norm>
-0.476233

>  <RMSD>
14.993

$$$$
ligand
 OpenBabel02271912153D
libRbt.so/2013.1/901 2013/11/27
 27 29  0  0  0  0  0  0  0  0999 V2000
    8.3258    7.1193   16.1540 N   0  0  0  0  0  0  0  0  0  0  0  0
    8.5839    6.8535   17.5896 C   0  0  2  0  0  0  0  0  0  0  0  0
    9.4826    5.6271   17.6822 C   0  0  0  0  0  0  0  0  0  0  0  0
   10.7032    5.6098   18.0529 O   0  0  0  0  0  0  0  0  0  0  0  0
    7.2433    6.6778   18.3062 C   0  0  0  0  0  0  0  0  0  0  0  0
    7.4040    6.3606   19.7870 C   0  0  0  0  0  0  0  0  0  0  0  0
    8.2075    7.4974   20.9781 S   0  0  2  0  0  0  0  0  0  0  0  0
    8.0031    6.5207   22.4664 C   0  0  0  0  0  0  0  0  0  0  0  0
    6.8774    8.7362   21.0902 C   0  0  0  0  0  0  0  0  0  0  0  0
    7.0798    9.6603   22.2594 C   0  0  1  0  0  0  0  0  0  0  0  0
    8.1828   10.5768   22.0582 O   0  0  0  0  0  0  0  0  0  0  0  0
    5.8698   10.4972   22.6064 C   0  0  1  0  0  0  0  0  0  0  0  0
    5.2167    9.8914   23.6354 O   0  0  0  0  0  0  0  0  0  0  0  0
    6.5454   11.7267   23.1669 C   0  0  1  0  0  0  0  0  0  0  0  0
    6.8322   11.4285   24.4609 O   0  0  0  0  0  0  0  0  0  0  0  0
    7.8662   11.9029   22.3855 C   0  0  2  0  0  0  0  0  0  0  0  0
    8.9852    4.5641   17.3067 O   0  0  0  0  0  0  0  0  0  0  0  0
    5.8982   16.0688   19.9468 N   0  0  0  0  0  0  0  0  0  0  0  0
    6.2736   15.8074   21.3074 C   0  0  0  0  0  0  0  0  0  0  0  0
    6.8142   14.6144   21.8483 N   0  0  0  0  0  0  0  0  0  0  0  0
    6.9622   13.7245   20.9484 C   0  0  0  0  0  0  0  0  0  0  0  0
    6.6119   13.8968   19.5207 C   0  0  0  0  0  0  0  0  0  0  0  0
    6.0888   15.0376   19.0529 C   0  0  0  0  0  0  0  0  0  0  0  0
    5.8046   15.0506   17.7668 N   0  0  0  0  0  0  0  0  0  0  0  0
    6.8447   12.8330   18.7897 N   0  0  0  0  0  0  0  0  0  0  0  0
    7.3496   11.9915   19.7638 C   0  0  0  0  0  0  0  0  0  0  0  0
    7.4345   12.5356   21.1097 N   0  0  0  0  0  0  0  0  0  0  0  0
  2  1  1  6  0  0  0
  2  3  1  0  0  0  0
  2  5  1  0  0  0  0
  3  4  1  0  0  0  0
  3 17  1  0  0  0  0
  5  6  1  0  0  0  0
  7  6  1  6  0  0  0
  7  8  1  0  0  0  0
  7  9  1  0  0  0  0
 10  9  1  6  0  0  0
 10 11  1  0  0  0  0
 10 12  1  0  0  0  0
 11 16  1  0  0  0  0
 12 13  1  1  0  0  0
 12 14  1  0  0  0  0
 14 15  1  1  0  0  0
 14 16  1  0  0  0  0
 16 27  1  6  0  0  0
 18 19  2  0  0  0  0
 18 23  1  0  0  0  0
 19 20  1  0  0  0  0
 20 21  2  0  0  0  0
 21 22  1  0  0  0  0
 21 27  1  0  0  0  0
 22 23  2  0  0  0  0
 22 25  1  0  0  0  0
 23 24  1  0  0  0  0
 25 26  2  0  0  0  0
 26 27  1  0  0  0  0
M  END
>  <CHROM.1>
110.53728900,178.39801963,61.86357830,178.64621925,166.07909031,71.31128737
174.75468645,7.38197652,10.20998898,20.42863989,-0.31193536,1.28925483,-0.97187141

>  <Name>
ligand

>  <RI>
0

>  <Rbt.Current_Directory>
/home/itssahil/PROJECTS/Mol_Feturizer/Test_systems_manuscript/rnas/4aob

>  <Rbt.Executable>
rbdock ($Id: //depot/dev/client3/rdock/2013.1/src/exe/rbdock.cxx#4 $)

>  <Rbt.Library>
libRbt.so (2013.1, Build901 2013/11/27)

>  <Rbt.Parameter_File>
/export/apps/rDock/src/rDock_2013.1_src/data/scripts/dock_solv.prm

>  <Rbt.Receptor>
prm/blind_docking_40.prm

>  <SCORE>
-12.8677

>  <SCORE.INTER>
-11.1811

>  <SCORE.INTER.CONST>
1

>  <SCORE.INTER.POLAR>
0

>  <SCORE.INTER.ROT>
7

>  <SCORE.INTER.SOLV>
12.6169

>  <SCORE.INTER.VDW>
-19.9264

>  <SCORE.INTER.norm>
-0.414116

>  <SCORE.INTRA>
-1.68659

>  <SCORE.INTRA.DIHEDRAL>
-2.60327

>  <SCORE.INTRA.DIHEDRAL.0>
6.31833

>  <SCORE.INTRA.POLAR>
0

>  <SCORE.INTRA.POLAR.0>
0

>  <SCORE.INTRA.REPUL>
0

>  <SCORE.INTRA.REPUL.0>
0

>  <SCORE.INTRA.SOLV>
-0.70587

>  <SCORE.INTRA.SOLV.lig_0>
-48.4015

>  <SCORE.INTRA.VDW>
-0.0320204

>  <SCORE.INTRA.VDW.0>
-2.83256

>  <SCORE.INTRA.norm>
-0.0624664

>  <SCORE.RESTR>
0

>  <SCORE.RESTR.CAVITY>
0

>  <SCORE.RESTR.norm>
0

>  <SCORE.SYSTEM>
0

>  <SCORE.SYSTEM.CONST>
0

>  <SCORE.SYSTEM.DIHEDRAL>
0

>  <SCORE.SYSTEM.SOLV>
0

>  <SCORE.SYSTEM.norm>
0

>  <SCORE.heavy>
27

>  <SCORE.norm>
-0.476583

>  <RMSD>
15.000

$$$$
ligand
 OpenBabel02271912153D
libRbt.so/2013.1/901 2013/11/27
 27 29  0  0  0  0  0  0  0  0999 V2000
   13.6032    7.5160   19.6707 N   0  0  0  0  0  0  0  0  0  0  0  0
   12.1674    7.1973   19.4833 C   0  0  2  0  0  0  0  0  0  0  0  0
   11.8032    7.5194   18.0397 C   0  0  0  0  0  0  0  0  0  0  0  0
   12.0693    8.5995   17.4152 O   0  0  0  0  0  0  0  0  0  0  0  0
   11.3499    7.9897   20.5057 C   0  0  0  0  0  0  0  0  0  0  0  0
    9.8498    7.7760   20.3536 C   0  0  0  0  0  0  0  0  0  0  0  0
    8.6165    8.4115   21.5501 S   0  0  2  0  0  0  0  0  0  0  0  0
    7.1437    8.2269   20.5464 C   0  0  0  0  0  0  0  0  0  0  0  0
    9.0121   10.1837   21.4120 C   0  0  0  0  0  0  0  0  0  0  0  0
    8.2489   11.0005   22.4181 C   0  0  1  0  0  0  0  0  0  0  0  0
    8.6386   12.3952   22.4113 O   0  0  0  0  0  0  0  0  0  0  0  0
    6.7483   10.9618   22.2396 C   0  0  1  0  0  0  0  0  0  0  0  0
    6.2419   10.0445   23.1082 O   0  0  0  0  0  0  0  0  0  0  0  0
    6.3798   12.3288   22.7670 C   0  0  1  0  0  0  0  0  0  0  0  0
    6.3210   12.1959   24.1177 O   0  0  0  0  0  0  0  0  0  0  0  0
    7.5462   13.2742   22.4037 C   0  0  2  0  0  0  0  0  0  0  0  0
   11.1391    6.6668   17.4477 O   0  0  0  0  0  0  0  0  0  0  0  0
    7.8582   16.7359   18.5186 N   0  0  0  0  0  0  0  0  0  0  0  0
    8.2864   16.7484   19.8887 C   0  0  0  0  0  0  0  0  0  0  0  0
    8.1465   15.7211   20.8546 N   0  0  0  0  0  0  0  0  0  0  0  0
    7.5721   14.6968   20.3602 C   0  0  0  0  0  0  0  0  0  0  0  0
    7.0993   14.5829   18.9623 C   0  0  0  0  0  0  0  0  0  0  0  0
    7.2383   15.5846   18.0841 C   0  0  0  0  0  0  0  0  0  0  0  0
    6.7561   15.3591   16.8793 N   0  0  0  0  0  0  0  0  0  0  0  0
    6.5277   13.4337   18.6921 N   0  0  0  0  0  0  0  0  0  0  0  0
    6.6487   12.8218   19.9262 C   0  0  0  0  0  0  0  0  0  0  0  0
    7.3024   13.5938   20.9710 N   0  0  0  0  0  0  0  0  0  0  0  0
  2  1  1  6  0  0  0
  2  3  1  0  0  0  0
  2  5  1  0  0  0  0
  3  4  1  0  0  0  0
  3 17  1  0  0  0  0
  5  6  1  0  0  0  0
  7  6  1  6  0  0  0
  7  8  1  0  0  0  0
  7  9  1  0  0  0  0
 10  9  1  6  0  0  0
 10 11  1  0  0  0  0
 10 12  1  0  0  0  0
 11 16  1  0  0  0  0
 12 13  1  1  0  0  0
 12 14  1  0  0  0  0
 14 15  1  1  0  0  0
 14 16  1  0  0  0  0
 16 27  1  6  0  0  0
 18 19  2  0  0  0  0
 18 23  1  0  0  0  0
 19 20  1  0  0  0  0
 20 21  2  0  0  0  0
 21 22  1  0  0  0  0
 21 27  1  0  0  0  0
 22 23  2  0  0  0  0
 22 25  1  0  0  0  0
 23 24  1  0  0  0  0
 25 26  2  0  0  0  0
 26 27  1  0  0  0  0
M  END
>  <CHROM.1>
-48.93554009,177.48853636,172.02356907,164.69683572,-173.54627591,174.62125512
-106.20249488,8.55662433,11.28826480,20.42077109,-0.72765735,0.88075174,-0.62830516

>  <Name>
ligand

>  <RI>
0

>  <Rbt.Current_Directory>
/home/itssahil/PROJECTS/Mol_Feturizer/Test_systems_manuscript/rnas/4aob

>  <Rbt.Executable>
rbdock ($Id: //depot/dev/client3/rdock/2013.1/src/exe/rbdock.cxx#4 $)

>  <Rbt.Library>
libRbt.so (2013.1, Build901 2013/11/27)

>  <Rbt.Parameter_File>
/export/apps/rDock/src/rDock_2013.1_src/data/scripts/dock_solv.prm

>  <Rbt.Receptor>
prm/blind_docking_60.prm

>  <SCORE>
-9.59755

>  <SCORE.INTER>
-9.04653

>  <SCORE.INTER.CONST>
1

>  <SCORE.INTER.POLAR>
0

>  <SCORE.INTER.ROT>
7

>  <SCORE.INTER.SOLV>
16.7369

>  <SCORE.INTER.VDW>
-19.8767

>  <SCORE.INTER.norm>
-0.335057

>  <SCORE.INTRA>
-0.565674

>  <SCORE.INTRA.DIHEDRAL>
-1.9461

>  <SCORE.INTRA.DIHEDRAL.0>
6.31833

>  <SCORE.INTRA.POLAR>
0

>  <SCORE.INTRA.POLAR.0>
0

>  <SCORE.INTRA.REPUL>
0

>  <SCORE.INTRA.REPUL.0>
0

>  <SCORE.INTRA.SOLV>
-0.548406

>  <SCORE.INTRA.SOLV.lig_0>
-48.4015

>  <SCORE.INTRA.VDW>
0.68158

>  <SCORE.INTRA.VDW.0>
-2.83256

>  <SCORE.INTRA.norm>
-0.0209509

>  <SCORE.RESTR>
0.0146552

>  <SCORE.RESTR.CAVITY>
0.0146552

>  <SCORE.RESTR.norm>
0.000542785

>  <SCORE.SYSTEM>
0

>  <SCORE.SYSTEM.CONST>
0

>  <SCORE.SYSTEM.DIHEDRAL>
0

>  <SCORE.SYSTEM.SOLV>
0

>  <SCORE.SYSTEM.norm>
0

>  <SCORE.heavy>
27

>  <SCORE.norm>
-0.355465

>  <RMSD>
15.008

$$$$
ligand
 OpenBabel02271912153D
libRbt.so/2013.1/901 2013/11/27
 27 29  0  0  0  0  0  0  0  0999 V2000
   11.5674   -3.9080   16.4027 N   0  0  0  0  0  0  0  0  0  0  0  0
   10.3144   -3.4501   17.0499 C   0  0  2  0  0  0  0  0  0  0  0  0
   10.4376   -1.9520   17.2959 C   0  0  0  0  0  0  0  0  0  0  0  0
    9.8824   -1.0255   16.6170 O   0  0  0  0  0  0  0  0  0  0  0  0
   10.0983   -4.2589   18.3309 C   0  0  0  0  0  0  0  0  0  0  0  0
    8.8854   -3.7920   19.1246 C   0  0  0  0  0  0  0  0  0  0  0  0
    8.0738   -4.8099   20.4137 S   0  0  2  0  0  0  0  0  0  0  0  0
    7.2118   -5.9630   19.3470 C   0  0  0  0  0  0  0  0  0  0  0  0
    6.7798   -3.6252   20.9016 C   0  0  0  0  0  0  0  0  0  0  0  0
    7.2246   -2.7630   22.0509 C   0  0  1  0  0  0  0  0  0  0  0  0
    8.3906   -1.9670   21.7289 O   0  0  0  0  0  0  0  0  0  0  0  0
    6.1669   -1.8094   22.5577 C   0  0  1  0  0  0  0  0  0  0  0  0
    5.5796   -2.3698   23.6502 O   0  0  0  0  0  0  0  0  0  0  0  0
    7.0388   -0.6778   23.0492 C   0  0  1  0  0  0  0  0  0  0  0  0
    7.4451   -1.0430   24.2930 O   0  0  0  0  0  0  0  0  0  0  0  0
    8.2665   -0.6242   22.1133 C   0  0  2  0  0  0  0  0  0  0  0  0
   11.1943   -1.6155   18.2084 O   0  0  0  0  0  0  0  0  0  0  0  0
    9.3026    1.6614   17.5441 N   0  0  0  0  0  0  0  0  0  0  0  0
   10.1087    0.9583   18.5015 C   0  0  0  0  0  0  0  0  0  0  0  0
    9.6960    0.3672   19.7214 N   0  0  0  0  0  0  0  0  0  0  0  0
    8.4437    0.5144   19.9058 C   0  0  0  0  0  0  0  0  0  0  0  0
    7.5276    1.2162   18.9791 C   0  0  0  0  0  0  0  0  0  0  0  0
    7.9620    1.7744   17.8418 C   0  0  0  0  0  0  0  0  0  0  0  0
    7.0459    2.3850   17.1188 N   0  0  0  0  0  0  0  0  0  0  0  0
    6.2833    1.2477   19.3927 N   0  0  0  0  0  0  0  0  0  0  0  0
    6.4196    0.5562   20.5824 C   0  0  0  0  0  0  0  0  0  0  0  0
    7.7568    0.0885   20.9105 N   0  0  0  0  0  0  0  0  0  0  0  0
  2  1  1  1  0  0  0
  2  3  1  0  0  0  0
  2  5  1  0  0  0  0
  3  4  1  0  0  0  0
  3 17  1  0  0  0  0
  5  6  1  0  0  0  0
  7  6  1  6  0  0  0
  7  8  1  0  0  0  0
  7  9  1  0  0  0  0
 10  9  1  6  0  0  0
 10 11  1  0  0  0  0
 10 12  1  0  0  0  0
 11 16  1  0  0  0  0
 12 13  1  1  0  0  0
 12 14  1  0  0  0  0
 14 15  1  1  0  0  0
 14 16  1  0  0  0  0
 16 27  1  6  0  0  0
 18 19  2  0  0  0  0
 18 23  1  0  0  0  0
 19 20  1  0  0  0  0
 20 21  2  0  0  0  0
 21 22  1  0  0  0  0
 21 27  1  0  0  0  0
 22 23  2  0  0  0  0
 22 25  1  0  0  0  0
 23 24  1  0  0  0  0
 25 26  2  0  0  0  0
 26 27  1  0  0  0  0
M  END
>  <CHROM.1>
103.45264460,175.80354439,161.96417183,-75.42918301,-92.24271840,61.10738693
-82.02108753,8.32847948,-1.52346176,19.82982510,-0.41394211,-0.99147685,2.86494019

>  <Name>
ligand

>  <RI>
0

>  <Rbt.Current_Directory>
/home/itssahil/PROJECTS/Mol_Feturizer/Test_systems_manuscript/rnas/4aob

>  <Rbt.Executable>
rbdock ($Id: //depot/dev/client3/rdock/2013.1/src/exe/rbdock.cxx#4 $)

>  <Rbt.Library>
libRbt.so (2013.1, Build901 2013/11/27)

>  <Rbt.Parameter_File>
/export/apps/rDock/src/rDock_2013.1_src/data/scripts/dock_solv.prm

>  <Rbt.Receptor>
prm/blind_docking_60.prm

>  <SCORE>
-12.2819

>  <SCORE.INTER>
-11.4377

>  <SCORE.INTER.CONST>
1

>  <SCORE.INTER.POLAR>
0

>  <SCORE.INTER.ROT>
7

>  <SCORE.INTER.SOLV>
10.3007

>  <SCORE.INTER.VDW>
-19.3254

>  <SCORE.INTER.norm>
-0.423619

>  <SCORE.INTRA>
-0.844144

>  <SCORE.INTRA.DIHEDRAL>
-0.448025

>  <SCORE.INTRA.DIHEDRAL.0>
6.31833

>  <SCORE.INTRA.POLAR>
0

>  <SCORE.INTRA.POLAR.0>
0

>  <SCORE.INTRA.REPUL>
0

>  <SCORE.INTRA.REPUL.0>
0

>  <SCORE.INTRA.SOLV>
-0.716494

>  <SCORE.INTRA.SOLV.lig_0>
-48.4015

>  <SCORE.INTRA.VDW>
-0.261884

>  <SCORE.INTRA.VDW.0>
-2.83256

>  <SCORE.INTRA.norm>
-0.0312646

>  <SCORE.RESTR>
0

>  <SCORE.RESTR.CAVITY>
0

>  <SCORE.RESTR.norm>
0

>  <SCORE.SYSTEM>
0

>  <SCORE.SYSTEM.CONST>
0

>  <SCORE.SYSTEM.DIHEDRAL>
0

>  <SCORE.SYSTEM.SOLV>
0

>  <SCORE.SYSTEM.norm>
0

>  <SCORE.heavy>
27

>  <SCORE.norm>
-0.454883

>  <RMSD>
15.059

$$$$
ligand
 OpenBabel02271912153D
libRbt.so/2013.1/901 2013/11/27
 27 29  0  0  0  0  0  0  0  0999 V2000
    5.8577   -3.7820   25.1707 N   0  0  0  0  0  0  0  0  0  0  0  0
    6.8345   -2.6838   24.9761 C   0  0  2  0  0  0  0  0  0  0  0  0
    6.5883   -1.6434   26.0611 C   0  0  0  0  0  0  0  0  0  0  0  0
    5.5290   -0.9501   26.2181 O   0  0  0  0  0  0  0  0  0  0  0  0
    6.6762   -2.1299   23.5584 C   0  0  0  0  0  0  0  0  0  0  0  0
    6.8621   -3.1949   22.4858 C   0  0  0  0  0  0  0  0  0  0  0  0
    6.7432   -2.8469   20.6910 S   0  0  2  0  0  0  0  0  0  0  0  0
    7.1622   -4.4746   20.0700 C   0  0  0  0  0  0  0  0  0  0  0  0
    8.2908   -1.9047   20.5076 C   0  0  0  0  0  0  0  0  0  0  0  0
    8.5935   -1.6147   19.0632 C   0  0  1  0  0  0  0  0  0  0  0  0
    7.4620   -1.0439   18.3627 O   0  0  0  0  0  0  0  0  0  0  0  0
    9.7614   -0.6793   18.8490 C   0  0  1  0  0  0  0  0  0  0  0  0
   10.8620   -1.4315   18.5748 O   0  0  0  0  0  0  0  0  0  0  0  0
    9.3404   -0.0150   17.5591 C   0  0  1  0  0  0  0  0  0  0  0  0
    9.7151   -0.8671   16.5697 O   0  0  0  0  0  0  0  0  0  0  0  0
    7.7987    0.0760   17.5890 C   0  0  2  0  0  0  0  0  0  0  0  0
    7.5334   -1.4212   26.8199 O   0  0  0  0  0  0  0  0  0  0  0  0
    4.9960    2.2138   21.4295 N   0  0  0  0  0  0  0  0  0  0  0  0
    5.0172    0.9091   20.8313 C   0  0  0  0  0  0  0  0  0  0  0  0
    5.8482    0.4453   19.7815 N   0  0  0  0  0  0  0  0  0  0  0  0
    6.6490    1.3557   19.3894 C   0  0  0  0  0  0  0  0  0  0  0  0
    6.7097    2.7268   19.9435 C   0  0  0  0  0  0  0  0  0  0  0  0
    5.8948    3.1294   20.9272 C   0  0  0  0  0  0  0  0  0  0  0  0
    6.0403    4.3802   21.3135 N   0  0  0  0  0  0  0  0  0  0  0  0
    7.6094    3.4877   19.3675 N   0  0  0  0  0  0  0  0  0  0  0  0
    8.1197    2.5862   18.4516 C   0  0  0  0  0  0  0  0  0  0  0  0
    7.5360    1.2543   18.4590 N   0  0  0  0  0  0  0  0  0  0  0  0
  2  1  1  1  0  0  0
  2  3  1  0  0  0  0
  2  5  1  0  0  0  0
  3  4  1  0  0  0  0
  3 17  1  0  0  0  0
  5  6  1  0  0  0  0
  7  6  1  1  0  0  0
  7  8  1  0  0  0  0
  7  9  1  0  0  0  0
 10  9  1  1  0  0  0
 10 11  1  0  0  0  0
 10 12  1  0  0  0  0
 11 16  1  0  0  0  0
 12 13  1  6  0  0  0
 12 14  1  0  0  0  0
 14 15  1  6  0  0  0
 14 16  1  0  0  0  0
 16 27  1  1  0  0  0
 18 19  2  0  0  0  0
 18 23  1  0  0  0  0
 19 20  1  0  0  0  0
 20 21  2  0  0  0  0
 21 22  1  0  0  0  0
 21 27  1  0  0  0  0
 22 23  2  0  0  0  0
 22 25  1  0  0  0  0
 23 24  1  0  0  0  0
 25 26  2  0  0  0  0
 26 27  1  0  0  0  0
M  END
>  <CHROM.1>
-63.49734961,-57.47552116,-179.67694595,176.59741143,172.28146132,49.98785267
-30.23881504,7.26891764,-0.49816815,20.86818302,-2.12783937,1.10162405,-0.64567987

>  <Name>
ligand

>  <RI>
0

>  <Rbt.Current_Directory>
/home/itssahil/PROJECTS/Mol_Feturizer/Test_systems_manuscript/rnas/4aob

>  <Rbt.Executable>
rbdock ($Id: //depot/dev/client3/rdock/2013.1/src/exe/rbdock.cxx#4 $)

>  <Rbt.Library>
libRbt.so (2013.1, Build901 2013/11/27)

>  <Rbt.Parameter_File>
/export/apps/rDock/src/rDock_2013.1_src/data/scripts/dock_solv.prm

>  <Rbt.Receptor>
prm/blind_docking_100.prm

>  <SCORE>
-13.3085

>  <SCORE.INTER>
-11.7643

>  <SCORE.INTER.CONST>
1

>  <SCORE.INTER.POLAR>
0

>  <SCORE.INTER.ROT>
7

>  <SCORE.INTER.SOLV>
4.80811

>  <SCORE.INTER.VDW>
-17.7122

>  <SCORE.INTER.norm>
-0.435715

>  <SCORE.INTRA>
-1.54424

>  <SCORE.INTRA.DIHEDRAL>
-2.85629

>  <SCORE.INTRA.DIHEDRAL.0>
6.31833

>  <SCORE.INTRA.POLAR>
0

>  <SCORE.INTRA.POLAR.0>
0

>  <SCORE.INTRA.REPUL>
0

>  <SCORE.INTRA.REPUL.0>
0

>  <SCORE.INTRA.SOLV>
-0.00241585

>  <SCORE.INTRA.SOLV.lig_0>
-48.4015

>  <SCORE.INTRA.VDW>
-0.114885

>  <SCORE.INTRA.VDW.0>
-2.83256

>  <SCORE.INTRA.norm>
-0.057194

>  <SCORE.RESTR>
0

>  <SCORE.RESTR.CAVITY>
0

>  <SCORE.RESTR.norm>
0

>  <SCORE.SYSTEM>
0

>  <SCORE.SYSTEM.CONST>
0

>  <SCORE.SYSTEM.DIHEDRAL>
0

>  <SCORE.SYSTEM.SOLV>
0

>  <SCORE.SYSTEM.norm>
0

>  <SCORE.heavy>
27

>  <SCORE.norm>
-0.492909

>  <RMSD>
15.088

$$$$
ligand
 OpenBabel02271912153D
libRbt.so/2013.1/901 2013/11/27
 27 29  0  0  0  0  0  0  0  0999 V2000
    9.4937   -4.5706   16.3383 N   0  0  0  0  0  0  0  0  0  0  0  0
    9.5808   -3.1359   15.9747 C   0  0  2  0  0  0  0  0  0  0  0  0
   10.8788   -2.5867   16.5525 C   0  0  0  0  0  0  0  0  0  0  0  0
   11.6426   -1.7214   16.0091 O   0  0  0  0  0  0  0  0  0  0  0  0
    8.3338   -2.4193   16.4972 C   0  0  0  0  0  0  0  0  0  0  0  0
    8.2085   -2.4852   18.0135 C   0  0  0  0  0  0  0  0  0  0  0  0
    6.8170   -1.7376   18.9416 S   0  0  2  0  0  0  0  0  0  0  0  0
    7.1603   -0.0119   18.6029 C   0  0  0  0  0  0  0  0  0  0  0  0
    7.4675   -1.9835   20.6247 C   0  0  0  0  0  0  0  0  0  0  0  0
    7.5763   -3.4439   20.9673 C   0  0  1  0  0  0  0  0  0  0  0  0
    8.0172   -3.6633   22.3291 O   0  0  0  0  0  0  0  0  0  0  0  0
    6.2919   -4.2209   20.7898 C   0  0  1  0  0  0  0  0  0  0  0  0
    6.3405   -4.8502   19.5840 O   0  0  0  0  0  0  0  0  0  0  0  0
    6.4685   -5.2785   21.8542 C   0  0  1  0  0  0  0  0  0  0  0  0
    7.2435   -6.2404   21.2888 O   0  0  0  0  0  0  0  0  0  0  0  0
    7.2495   -4.6177   23.0116 C   0  0  2  0  0  0  0  0  0  0  0  0
   11.2419   -3.0757   17.6237 O   0  0  0  0  0  0  0  0  0  0  0  0
    6.0698   -1.2618   26.8222 N   0  0  0  0  0  0  0  0  0  0  0  0
    7.3063   -1.7903   26.3200 C   0  0  0  0  0  0  0  0  0  0  0  0
    7.4940   -2.7053   25.2544 N   0  0  0  0  0  0  0  0  0  0  0  0
    6.3816   -3.0371   24.7289 C   0  0  0  0  0  0  0  0  0  0  0  0
    5.0567   -2.5453   25.1686 C   0  0  0  0  0  0  0  0  0  0  0  0
    4.9224   -1.6909   26.1913 C   0  0  0  0  0  0  0  0  0  0  0  0
    3.6864   -1.3491   26.4917 N   0  0  0  0  0  0  0  0  0  0  0  0
    4.0565   -3.0401   24.4794 N   0  0  0  0  0  0  0  0  0  0  0  0
    4.7592   -3.8416   23.5987 C   0  0  0  0  0  0  0  0  0  0  0  0
    6.2067   -3.8439   23.7384 N   0  0  0  0  0  0  0  0  0  0  0  0
  2  1  1  1  0  0  0
  2  3  1  0  0  0  0
  2  5  1  0  0  0  0
  3  4  1  0  0  0  0
  3 17  1  0  0  0  0
  5  6  1  0  0  0  0
  7  6  1  6  0  0  0
  7  8  1  0  0  0  0
  7  9  1  0  0  0  0
 10  9  1  1  0  0  0
 10 11  1  0  0  0  0
 10 12  1  0  0  0  0
 11 16  1  0  0  0  0
 12 13  1  6  0  0  0
 12 14  1  0  0  0  0
 14 15  1  6  0  0  0
 14 16  1  0  0  0  0
 16 27  1  1  0  0  0
 18 19  2  0  0  0  0
 18 23  1  0  0  0  0
 19 20  1  0  0  0  0
 20 21  2  0  0  0  0
 21 22  1  0  0  0  0
 21 27  1  0  0  0  0
 22 23  2  0  0  0  0
 22 25  1  0  0  0  0
 23 24  1  0  0  0  0
 25 26  2  0  0  0  0
 26 27  1  0  0  0  0
M  END
>  <CHROM.1>
143.30347891,61.60014288,-179.38157151,-66.52419953,-65.07989424,-176.60041762
-67.92110123,7.29827337,-2.96059035,21.16521435,0.21973027,-1.11053896,-2.91676373

>  <Name>
ligand

>  <RI>
0

>  <Rbt.Current_Directory>
/home/itssahil/PROJECTS/Mol_Feturizer/Test_systems_manuscript/rnas/4aob

>  <Rbt.Executable>
rbdock ($Id: //depot/dev/client3/rdock/2013.1/src/exe/rbdock.cxx#4 $)

>  <Rbt.Library>
libRbt.so (2013.1, Build901 2013/11/27)

>  <Rbt.Parameter_File>
/export/apps/rDock/src/rDock_2013.1_src/data/scripts/dock_solv.prm

>  <Rbt.Receptor>
prm/blind_docking_60.prm

>  <SCORE>
-5.97794

>  <SCORE.INTER>
-5.6375

>  <SCORE.INTER.CONST>
1

>  <SCORE.INTER.POLAR>
0

>  <SCORE.INTER.ROT>
7

>  <SCORE.INTER.SOLV>
5.73451

>  <SCORE.INTER.VDW>
-13.9365

>  <SCORE.INTER.norm>
-0.208796

>  <SCORE.INTRA>
-0.340442

>  <SCORE.INTRA.DIHEDRAL>
-2.94567

>  <SCORE.INTRA.DIHEDRAL.0>
6.31833

>  <SCORE.INTRA.POLAR>
0

>  <SCORE.INTRA.POLAR.0>
0

>  <SCORE.INTRA.REPUL>
0

>  <SCORE.INTRA.REPUL.0>
0

>  <SCORE.INTRA.SOLV>
0.271264

>  <SCORE.INTRA.SOLV.lig_0>
-48.4015

>  <SCORE.INTRA.VDW>
0.99676

>  <SCORE.INTRA.VDW.0>
-2.83256

>  <SCORE.INTRA.norm>
-0.012609

>  <SCORE.RESTR>
0

>  <SCORE.RESTR.CAVITY>
0

>  <SCORE.RESTR.norm>
0

>  <SCORE.SYSTEM>
0

>  <SCORE.SYSTEM.CONST>
0

>  <SCORE.SYSTEM.DIHEDRAL>
0

>  <SCORE.SYSTEM.SOLV>
0

>  <SCORE.SYSTEM.norm>
0

>  <SCORE.heavy>
27

>  <SCORE.norm>
-0.221405

>  <RMSD>
15.106

$$$$
ligand
 OpenBabel02271912153D
libRbt.so/2013.1/901 2013/11/27
 27 29  0  0  0  0  0  0  0  0999 V2000
   12.9210    6.3315   20.6986 N   0  0  0  0  0  0  0  0  0  0  0  0
   12.3630    7.6204   20.2235 C   0  0  2  0  0  0  0  0  0  0  0  0
   11.8054    8.3605   21.4324 C   0  0  0  0  0  0  0  0  0  0  0  0
   12.0653    9.5632   21.7693 O   0  0  0  0  0  0  0  0  0  0  0  0
   11.3111    7.3351   19.1494 C   0  0  0  0  0  0  0  0  0  0  0  0
   11.8439    6.4635   18.0200 C   0  0  0  0  0  0  0  0  0  0  0  0
   10.8974    6.1060   16.4926 S   0  0  2  0  0  0  0  0  0  0  0  0
   10.6363    7.7884   15.9344 C   0  0  0  0  0  0  0  0  0  0  0  0
    9.3121    5.6595   17.2698 C   0  0  0  0  0  0  0  0  0  0  0  0
    8.2913    5.2464   16.2455 C   0  0  1  0  0  0  0  0  0  0  0  0
    8.4499    3.8690   15.8278 O   0  0  0  0  0  0  0  0  0  0  0  0
    6.8578    5.4072   16.6973 C   0  0  1  0  0  0  0  0  0  0  0  0
    6.3847    6.5809   16.1963 O   0  0  0  0  0  0  0  0  0  0  0  0
    6.2035    4.2913   15.9168 C   0  0  1  0  0  0  0  0  0  0  0  0
    5.9728    4.7982   14.6777 O   0  0  0  0  0  0  0  0  0  0  0  0
    7.2437    3.1543   15.8106 C   0  0  2  0  0  0  0  0  0  0  0  0
   11.0773    7.7036   22.1786 O   0  0  0  0  0  0  0  0  0  0  0  0
    7.0595   -1.2965   18.5182 N   0  0  0  0  0  0  0  0  0  0  0  0
    7.2140   -0.9954   17.1232 C   0  0  0  0  0  0  0  0  0  0  0  0
    7.2574    0.2798   16.5067 N   0  0  0  0  0  0  0  0  0  0  0  0
    7.1509    1.2132   17.3676 C   0  0  0  0  0  0  0  0  0  0  0  0
    6.9936    1.0077   18.8249 C   0  0  0  0  0  0  0  0  0  0  0  0
    6.9427   -0.2165   19.3658 C   0  0  0  0  0  0  0  0  0  0  0  0
    6.7802   -0.2575   20.6722 N   0  0  0  0  0  0  0  0  0  0  0  0
    6.8923    2.1242   19.5058 N   0  0  0  0  0  0  0  0  0  0  0  0
    6.9929    3.0344   18.4697 C   0  0  0  0  0  0  0  0  0  0  0  0
    7.1608    2.4814   17.1353 N   0  0  0  0  0  0  0  0  0  0  0  0
  2  1  1  1  0  0  0
  2  3  1  0  0  0  0
  2  5  1  0  0  0  0
  3  4  1  0  0  0  0
  3 17  1  0  0  0  0
  5  6  1  0  0  0  0
  7  6  1  1  0  0  0
  7  8  1  0  0  0  0
  7  9  1  0  0  0  0
 10  9  1  1  0  0  0
 10 11  1  0  0  0  0
 10 12  1  0  0  0  0
 11 16  1  0  0  0  0
 12 13  1  6  0  0  0
 12 14  1  0  0  0  0
 14 15  1  6  0  0  0
 14 16  1  0  0  0  0
 16 27  1  1  0  0  0
 18 19  2  0  0  0  0
 18 23  1  0  0  0  0
 19 20  1  0  0  0  0
 20 21  2  0  0  0  0
 21 22  1  0  0  0  0
 21 27  1  0  0  0  0
 22 23  2  0  0  0  0
 22 25  1  0  0  0  0
 23 24  1  0  0  0  0
 25 26  2  0  0  0  0
 26 27  1  0  0  0  0
M  END
>  <CHROM.1>
128.46587735,-53.77891324,-172.63108879,57.75273366,-177.80814902,81.55679670
-116.63988327,8.81245774,4.41931195,17.99050804,-0.37583444,0.92341423,2.33962059

>  <Name>
ligand

>  <RI>
0

>  <Rbt.Current_Directory>
/home/itssahil/PROJECTS/Mol_Feturizer/Test_systems_manuscript/rnas/4aob

>  <Rbt.Executable>
rbdock ($Id: //depot/dev/client3/rdock/2013.1/src/exe/rbdock.cxx#4 $)

>  <Rbt.Library>
libRbt.so (2013.1, Build901 2013/11/27)

>  <Rbt.Parameter_File>
/export/apps/rDock/src/rDock_2013.1_src/data/scripts/dock_solv.prm

>  <Rbt.Receptor>
prm/blind_docking_80.prm

>  <SCORE>
-11.7562

>  <SCORE.INTER>
-12.5919

>  <SCORE.INTER.CONST>
1

>  <SCORE.INTER.POLAR>
0

>  <SCORE.INTER.ROT>
7

>  <SCORE.INTER.SOLV>
10.661

>  <SCORE.INTER.VDW>
-20.2149

>  <SCORE.INTER.norm>
-0.466366

>  <SCORE.INTRA>
0.835644

>  <SCORE.INTRA.DIHEDRAL>
-0.803506

>  <SCORE.INTRA.DIHEDRAL.0>
6.31833

>  <SCORE.INTRA.POLAR>
0

>  <SCORE.INTRA.POLAR.0>
0

>  <SCORE.INTRA.REPUL>
0

>  <SCORE.INTRA.REPUL.0>
0

>  <SCORE.INTRA.SOLV>
-0.0487159

>  <SCORE.INTRA.SOLV.lig_0>
-48.4015

>  <SCORE.INTRA.VDW>
1.26175

>  <SCORE.INTRA.VDW.0>
-2.83256

>  <SCORE.INTRA.norm>
0.0309498

>  <SCORE.RESTR>
0

>  <SCORE.RESTR.CAVITY>
0

>  <SCORE.RESTR.norm>
0

>  <SCORE.SYSTEM>
0

>  <SCORE.SYSTEM.CONST>
0

>  <SCORE.SYSTEM.DIHEDRAL>
0

>  <SCORE.SYSTEM.SOLV>
0

>  <SCORE.SYSTEM.norm>
0

>  <SCORE.heavy>
27

>  <SCORE.norm>
-0.435417

>  <RMSD>
15.148

$$$$
ligand
 OpenBabel02271912153D
libRbt.so/2013.1/901 2013/11/27
 27 29  0  0  0  0  0  0  0  0999 V2000
   10.5975   -2.0257   17.0049 N   0  0  0  0  0  0  0  0  0  0  0  0
   10.2608   -2.9371   18.1249 C   0  0  2  0  0  0  0  0  0  0  0  0
   11.3537   -3.9948   18.2095 C   0  0  0  0  0  0  0  0  0  0  0  0
   12.4752   -3.9742   17.6018 O   0  0  0  0  0  0  0  0  0  0  0  0
    8.8683   -3.5227   17.8810 C   0  0  0  0  0  0  0  0  0  0  0  0
    8.3006   -4.2230   19.1084 C   0  0  0  0  0  0  0  0  0  0  0  0
    8.0608   -3.3889   20.7219 S   0  0  2  0  0  0  0  0  0  0  0  0
    7.3496   -4.7582   21.6328 C   0  0  0  0  0  0  0  0  0  0  0  0
    6.6170   -2.3729   20.2753 C   0  0  0  0  0  0  0  0  0  0  0  0
    6.2603   -1.4071   21.3716 C   0  0  1  0  0  0  0  0  0  0  0  0
    7.3279   -0.4709   21.6558 O   0  0  0  0  0  0  0  0  0  0  0  0
    5.0185   -0.5894   21.0994 C   0  0  1  0  0  0  0  0  0  0  0  0
    3.9741   -1.1776   21.7440 O   0  0  0  0  0  0  0  0  0  0  0  0
    5.3574    0.6737   21.8559 C   0  0  1  0  0  0  0  0  0  0  0  0
    5.0282    0.4242   23.1500 O   0  0  0  0  0  0  0  0  0  0  0  0
    6.8876    0.8570   21.7513 C   0  0  2  0  0  0  0  0  0  0  0  0
   11.0922   -4.9873   18.8913 O   0  0  0  0  0  0  0  0  0  0  0  0
    9.7310    1.0947   17.3886 N   0  0  0  0  0  0  0  0  0  0  0  0
    9.8203    0.3038   18.5832 C   0  0  0  0  0  0  0  0  0  0  0  0
    8.9638    0.3303   19.7117 N   0  0  0  0  0  0  0  0  0  0  0  0
    8.0236    1.1766   19.5585 C   0  0  0  0  0  0  0  0  0  0  0  0
    7.8412    2.0337   18.3658 C   0  0  0  0  0  0  0  0  0  0  0  0
    8.6835    1.9876   17.3254 C   0  0  0  0  0  0  0  0  0  0  0  0
    8.4175    2.8174   16.3377 N   0  0  0  0  0  0  0  0  0  0  0  0
    6.8056    2.8345   18.4466 N   0  0  0  0  0  0  0  0  0  0  0  0
    6.3328    2.4725   19.6945 C   0  0  0  0  0  0  0  0  0  0  0  0
    7.0771    1.4376   20.3944 N   0  0  0  0  0  0  0  0  0  0  0  0
  2  1  1  6  0  0  0
  2  3  1  0  0  0  0
  2  5  1  0  0  0  0
  3  4  1  0  0  0  0
  3 17  1  0  0  0  0
  5  6  1  0  0  0  0
  7  6  1  6  0  0  0
  7  8  1  0  0  0  0
  7  9  1  0  0  0  0
 10  9  1  6  0  0  0
 10 11  1  0  0  0  0
 10 12  1  0  0  0  0
 11 16  1  0  0  0  0
 12 13  1  1  0  0  0
 12 14  1  0  0  0  0
 14 15  1  1  0  0  0
 14 16  1  0  0  0  0
 16 27  1  6  0  0  0
 18 19  2  0  0  0  0
 18 23  1  0  0  0  0
 19 20  1  0  0  0  0
 20 21  2  0  0  0  0
 21 22  1  0  0  0  0
 21 27  1  0  0  0  0
 22 23  2  0  0  0  0
 22 25  1  0  0  0  0
 23 24  1  0  0  0  0
 25 26  2  0  0  0  0
 26 27  1  0  0  0  0
M  END
>  <CHROM.1>
11.65227361,-167.27713293,58.04245471,178.66462469,-172.75584321,61.27724946
-34.98314303,8.01443716,-1.00085693,19.65003742,-0.54045668,0.72363519,-0.36851171

>  <Name>
ligand

>  <RI>
0

>  <Rbt.Current_Directory>
/home/itssahil/PROJECTS/Mol_Feturizer/Test_systems_manuscript/rnas/4aob

>  <Rbt.Executable>
rbdock ($Id: //depot/dev/client3/rdock/2013.1/src/exe/rbdock.cxx#4 $)

>  <Rbt.Library>
libRbt.so (2013.1, Build901 2013/11/27)

>  <Rbt.Parameter_File>
/export/apps/rDock/src/rDock_2013.1_src/data/scripts/dock_solv.prm

>  <Rbt.Receptor>
prm/blind_docking_40.prm

>  <SCORE>
-12.7003

>  <SCORE.INTER>
-11.5238

>  <SCORE.INTER.CONST>
1

>  <SCORE.INTER.POLAR>
0

>  <SCORE.INTER.ROT>
7

>  <SCORE.INTER.SOLV>
9.56171

>  <SCORE.INTER.VDW>
-19.1365

>  <SCORE.INTER.norm>
-0.426809

>  <SCORE.INTRA>
-1.17645

>  <SCORE.INTRA.DIHEDRAL>
-1.71838

>  <SCORE.INTRA.DIHEDRAL.0>
6.31833

>  <SCORE.INTRA.POLAR>
0

>  <SCORE.INTRA.POLAR.0>
0

>  <SCORE.INTRA.REPUL>
0

>  <SCORE.INTRA.REPUL.0>
0

>  <SCORE.INTRA.SOLV>
0.452012

>  <SCORE.INTRA.SOLV.lig_0>
-48.4015

>  <SCORE.INTRA.VDW>
-0.543264

>  <SCORE.INTRA.VDW.0>
-2.83256

>  <SCORE.INTRA.norm>
-0.0435723

>  <SCORE.RESTR>
0

>  <SCORE.RESTR.CAVITY>
0

>  <SCORE.RESTR.norm>
0

>  <SCORE.SYSTEM>
0

>  <SCORE.SYSTEM.CONST>
0

>  <SCORE.SYSTEM.DIHEDRAL>
0

>  <SCORE.SYSTEM.SOLV>
0

>  <SCORE.SYSTEM.norm>
0

>  <SCORE.heavy>
27

>  <SCORE.norm>
-0.470381

>  <RMSD>
15.159

$$$$
ligand
 OpenBabel02271912153D
libRbt.so/2013.1/901 2013/11/27
 27 29  0  0  0  0  0  0  0  0999 V2000
    8.8844    8.0879   17.1421 N   0  0  0  0  0  0  0  0  0  0  0  0
    9.0655    6.9588   18.0860 C   0  0  2  0  0  0  0  0  0  0  0  0
   10.3477    6.2317   17.7021 C   0  0  0  0  0  0  0  0  0  0  0  0
   11.3389    5.9901   18.4682 O   0  0  0  0  0  0  0  0  0  0  0  0
    7.8232    6.0670   18.0304 C   0  0  0  0  0  0  0  0  0  0  0  0
    6.5588    6.7898   18.4751 C   0  0  0  0  0  0  0  0  0  0  0  0
    6.2557    7.3161   20.2037 S   0  0  2  0  0  0  0  0  0  0  0  0
    4.6102    7.9943   19.9970 C   0  0  0  0  0  0  0  0  0  0  0  0
    7.3290    8.7872   20.2176 C   0  0  0  0  0  0  0  0  0  0  0  0
    7.3425    9.4487   21.5682 C   0  0  1  0  0  0  0  0  0  0  0  0
    8.3260   10.5078   21.6579 O   0  0  0  0  0  0  0  0  0  0  0  0
    6.0159   10.0438   21.9818 C   0  0  1  0  0  0  0  0  0  0  0  0
    5.3902    9.1556   22.8016 O   0  0  0  0  0  0  0  0  0  0  0  0
    6.4925   11.1895   22.8436 C   0  0  1  0  0  0  0  0  0  0  0  0
    6.7420   10.6492   24.0648 O   0  0  0  0  0  0  0  0  0  0  0  0
    7.8211   11.6841   22.2301 C   0  0  2  0  0  0  0  0  0  0  0  0
   10.4462    5.8993   16.5196 O   0  0  0  0  0  0  0  0  0  0  0  0
    5.8966   16.2294   20.5534 N   0  0  0  0  0  0  0  0  0  0  0  0
    6.2860   15.7385   21.8449 C   0  0  0  0  0  0  0  0  0  0  0  0
    6.8120   14.4636   22.1702 N   0  0  0  0  0  0  0  0  0  0  0  0
    6.9310   13.7342   21.1322 C   0  0  0  0  0  0  0  0  0  0  0  0
    6.5641   14.1480   19.7593 C   0  0  0  0  0  0  0  0  0  0  0  0
    6.0556   15.3591   19.4971 C   0  0  0  0  0  0  0  0  0  0  0  0
    5.7538   15.5912   18.2361 N   0  0  0  0  0  0  0  0  0  0  0  0
    6.7670   13.2177   18.8573 N   0  0  0  0  0  0  0  0  0  0  0  0
    7.2698   12.2174   19.6689 C   0  0  0  0  0  0  0  0  0  0  0  0
    7.3834   12.5277   21.0850 N   0  0  0  0  0  0  0  0  0  0  0  0
  2  1  1  6  0  0  0
  2  3  1  0  0  0  0
  2  5  1  0  0  0  0
  3  4  1  0  0  0  0
  3 17  1  0  0  0  0
  5  6  1  0  0  0  0
  7  6  1  6  0  0  0
  7  8  1  0  0  0  0
  7  9  1  0  0  0  0
 10  9  1  6  0  0  0
 10 11  1  0  0  0  0
 10 12  1  0  0  0  0
 11 16  1  0  0  0  0
 12 13  1  1  0  0  0
 12 14  1  0  0  0  0
 14 15  1  1  0  0  0
 14 16  1  0  0  0  0
 16 27  1  6  0  0  0
 18 19  2  0  0  0  0
 18 23  1  0  0  0  0
 19 20  1  0  0  0  0
 20 21  2  0  0  0  0
 21 22  1  0  0  0  0
 21 27  1  0  0  0  0
 22 23  2  0  0  0  0
 22 25  1  0  0  0  0
 23 24  1  0  0  0  0
 25 26  2  0  0  0  0
 26 27  1  0  0  0  0
M  END
>  <CHROM.1>
125.02252623,-62.63989525,-68.70871464,-177.39456423,-177.89931251,172.03510242
-175.33380241,7.25389842,10.31804241,20.18423678,-0.94098992,1.07200951,-0.24559689

>  <Name>
ligand

>  <RI>
0

>  <Rbt.Current_Directory>
/home/itssahil/PROJECTS/Mol_Feturizer/Test_systems_manuscript/rnas/4aob

>  <Rbt.Executable>
rbdock ($Id: //depot/dev/client3/rdock/2013.1/src/exe/rbdock.cxx#4 $)

>  <Rbt.Library>
libRbt.so (2013.1, Build901 2013/11/27)

>  <Rbt.Parameter_File>
/export/apps/rDock/src/rDock_2013.1_src/data/scripts/dock_solv.prm

>  <Rbt.Receptor>
prm/blind_docking_40.prm

>  <SCORE>
-12.2653

>  <SCORE.INTER>
-12.0964

>  <SCORE.INTER.CONST>
1

>  <SCORE.INTER.POLAR>
0

>  <SCORE.INTER.ROT>
7

>  <SCORE.INTER.SOLV>
11.9631

>  <SCORE.INTER.VDW>
-20.3186

>  <SCORE.INTER.norm>
-0.448013

>  <SCORE.INTRA>
-0.172151

>  <SCORE.INTRA.DIHEDRAL>
-1.98853

>  <SCORE.INTRA.DIHEDRAL.0>
6.31833

>  <SCORE.INTRA.POLAR>
0

>  <SCORE.INTRA.POLAR.0>
0

>  <SCORE.INTRA.REPUL>
0

>  <SCORE.INTRA.REPUL.0>
0

>  <SCORE.INTRA.SOLV>
1.49949

>  <SCORE.INTRA.SOLV.lig_0>
-48.4015

>  <SCORE.INTRA.VDW>
0.0723692

>  <SCORE.INTRA.VDW.0>
-2.83256

>  <SCORE.INTRA.norm>
-0.00637596

>  <SCORE.RESTR>
0.0031846

>  <SCORE.RESTR.CAVITY>
0.0031846

>  <SCORE.RESTR.norm>
0.000117948

>  <SCORE.SYSTEM>
0

>  <SCORE.SYSTEM.CONST>
0

>  <SCORE.SYSTEM.DIHEDRAL>
0

>  <SCORE.SYSTEM.SOLV>
0

>  <SCORE.SYSTEM.norm>
0

>  <SCORE.heavy>
27

>  <SCORE.norm>
-0.454271

>  <RMSD>
15.171

$$$$
ligand
 OpenBabel02271912153D
libRbt.so/2013.1/901 2013/11/27
 27 29  0  0  0  0  0  0  0  0999 V2000
    7.5758    6.9996   16.9492 N   0  0  0  0  0  0  0  0  0  0  0  0
    7.3141    7.4056   18.3510 C   0  0  2  0  0  0  0  0  0  0  0  0
    8.0446    8.7190   18.5997 C   0  0  0  0  0  0  0  0  0  0  0  0
    9.2605    8.8516   18.9625 O   0  0  0  0  0  0  0  0  0  0  0  0
    7.7625    6.2770   19.2820 C   0  0  0  0  0  0  0  0  0  0  0  0
    7.3823    6.5263   20.7354 C   0  0  0  0  0  0  0  0  0  0  0  0
    8.0666    7.9025   21.7327 S   0  0  2  0  0  0  0  0  0  0  0  0
    7.8791    7.1780   23.3607 C   0  0  0  0  0  0  0  0  0  0  0  0
    6.6527    9.0428   21.6037 C   0  0  0  0  0  0  0  0  0  0  0  0
    6.7328   10.1409   22.6283 C   0  0  1  0  0  0  0  0  0  0  0  0
    7.8614   11.0217   22.4109 O   0  0  0  0  0  0  0  0  0  0  0  0
    5.5008   11.0137   22.7011 C   0  0  1  0  0  0  0  0  0  0  0  0
    4.7297   10.5731   23.7324 O   0  0  0  0  0  0  0  0  0  0  0  0
    6.1228   12.3207   23.1338 C   0  0  1  0  0  0  0  0  0  0  0  0
    6.2593   12.2319   24.4825 O   0  0  0  0  0  0  0  0  0  0  0  0
    7.5247   12.3807   22.4880 C   0  0  2  0  0  0  0  0  0  0  0  0
    7.3671    9.7424   18.4896 O   0  0  0  0  0  0  0  0  0  0  0  0
    5.8853   16.0958   19.2193 N   0  0  0  0  0  0  0  0  0  0  0  0
    6.1023   16.0544   20.6377 C   0  0  0  0  0  0  0  0  0  0  0  0
    6.5667   14.9656   21.4166 N   0  0  0  0  0  0  0  0  0  0  0  0
    6.8065   13.9466   20.6900 C   0  0  0  0  0  0  0  0  0  0  0  0
    6.6211   13.8898   19.2228 C   0  0  0  0  0  0  0  0  0  0  0  0
    6.1653   14.9387   18.5257 C   0  0  0  0  0  0  0  0  0  0  0  0
    6.0281   14.7473   17.2297 N   0  0  0  0  0  0  0  0  0  0  0  0
    6.9244   12.7263   18.6987 N   0  0  0  0  0  0  0  0  0  0  0  0
    7.3080   12.0523   19.8435 C   0  0  0  0  0  0  0  0  0  0  0  0
    7.2459   12.8016   21.0882 N   0  0  0  0  0  0  0  0  0  0  0  0
  2  1  1  6  0  0  0
  2  3  1  0  0  0  0
  2  5  1  0  0  0  0
  3  4  1  0  0  0  0
  3 17  1  0  0  0  0
  5  6  1  0  0  0  0
  7  6  1  6  0  0  0
  7  8  1  0  0  0  0
  7  9  1  0  0  0  0
 10  9  1  6  0  0  0
 10 11  1  0  0  0  0
 10 12  1  0  0  0  0
 11 16  1  0  0  0  0
 12 13  1  1  0  0  0
 12 14  1  0  0  0  0
 14 15  1  1  0  0  0
 14 16  1  0  0  0  0
 16 27  1  6  0  0  0
 18 19  2  0  0  0  0
 18 23  1  0  0  0  0
 19 20  1  0  0  0  0
 20 21  2  0  0  0  0
 21 22  1  0  0  0  0
 21 27  1  0  0  0  0
 22 23  2  0  0  0  0
 22 25  1  0  0  0  0
 23 24  1  0  0  0  0
 25 26  2  0  0  0  0
 26 27  1  0  0  0  0
M  END
>  <CHROM.1>
-86.08545458,-173.08629423,-64.99158536,-154.21066927,164.47308775,65.62554516
174.67738859,7.01656548,10.89504454,20.70126460,-0.59610785,1.32742812,-0.96963616

>  <Name>
ligand

>  <RI>
0

>  <Rbt.Current_Directory>
/home/itssahil/PROJECTS/Mol_Feturizer/Test_systems_manuscript/rnas/4aob

>  <Rbt.Executable>
rbdock ($Id: //depot/dev/client3/rdock/2013.1/src/exe/rbdock.cxx#4 $)

>  <Rbt.Library>
libRbt.so (2013.1, Build901 2013/11/27)

>  <Rbt.Parameter_File>
/export/apps/rDock/src/rDock_2013.1_src/data/scripts/dock_solv.prm

>  <Rbt.Receptor>
prm/blind_docking_40.prm

>  <SCORE>
-12.7928

>  <SCORE.INTER>
-11.2108

>  <SCORE.INTER.CONST>
1

>  <SCORE.INTER.POLAR>
0

>  <SCORE.INTER.ROT>
7

>  <SCORE.INTER.SOLV>
15.44

>  <SCORE.INTER.VDW>
-20.8872

>  <SCORE.INTER.norm>
-0.415215

>  <SCORE.INTRA>
-1.582

>  <SCORE.INTRA.DIHEDRAL>
0.020483

>  <SCORE.INTRA.DIHEDRAL.0>
6.31833

>  <SCORE.INTRA.POLAR>
0

>  <SCORE.INTRA.POLAR.0>
0

>  <SCORE.INTRA.REPUL>
0

>  <SCORE.INTRA.REPUL.0>
0

>  <SCORE.INTRA.SOLV>
-0.677155

>  <SCORE.INTRA.SOLV.lig_0>
-48.4015

>  <SCORE.INTRA.VDW>
-1.25366

>  <SCORE.INTRA.VDW.0>
-2.83256

>  <SCORE.INTRA.norm>
-0.0585926

>  <SCORE.RESTR>
0

>  <SCORE.RESTR.CAVITY>
0

>  <SCORE.RESTR.norm>
0

>  <SCORE.SYSTEM>
0

>  <SCORE.SYSTEM.CONST>
0

>  <SCORE.SYSTEM.DIHEDRAL>
0

>  <SCORE.SYSTEM.SOLV>
0

>  <SCORE.SYSTEM.norm>
0

>  <SCORE.heavy>
27

>  <SCORE.norm>
-0.473807

>  <RMSD>
15.183

$$$$
ligand
 OpenBabel02271912153D
libRbt.so/2013.1/901 2013/11/27
 27 29  0  0  0  0  0  0  0  0999 V2000
    6.8370   -1.2694   16.2153 N   0  0  0  0  0  0  0  0  0  0  0  0
    7.1695   -2.4582   17.0367 C   0  0  2  0  0  0  0  0  0  0  0  0
    7.1613   -3.6748   16.1202 C   0  0  0  0  0  0  0  0  0  0  0  0
    7.5716   -4.8464   16.4143 O   0  0  0  0  0  0  0  0  0  0  0  0
    6.1645   -2.5586   18.1862 C   0  0  0  0  0  0  0  0  0  0  0  0
    6.4336   -1.5487   19.2938 C   0  0  0  0  0  0  0  0  0  0  0  0
    7.9982   -1.4919   20.2455 S   0  0  2  0  0  0  0  0  0  0  0  0
    9.0647   -0.8139   18.9753 C   0  0  0  0  0  0  0  0  0  0  0  0
    8.3793   -3.2725   20.2221 C   0  0  0  0  0  0  0  0  0  0  0  0
    7.6509   -4.0081   21.3131 C   0  0  1  0  0  0  0  0  0  0  0  0
    7.8261   -3.3911   22.6113 O   0  0  0  0  0  0  0  0  0  0  0  0
    6.1623   -4.1408   21.0860 C   0  0  1  0  0  0  0  0  0  0  0  0
    5.9219   -5.3740   20.5625 O   0  0  0  0  0  0  0  0  0  0  0  0
    5.6731   -4.1581   22.5152 C   0  0  1  0  0  0  0  0  0  0  0  0
    5.8222   -5.4407   22.9373 O   0  0  0  0  0  0  0  0  0  0  0  0
    6.6256   -3.2480   23.3218 C   0  0  2  0  0  0  0  0  0  0  0  0
    6.7688   -3.4801   14.9685 O   0  0  0  0  0  0  0  0  0  0  0  0
    7.6201    1.8656   23.1298 N   0  0  0  0  0  0  0  0  0  0  0  0
    8.4180    0.7161   23.4502 C   0  0  0  0  0  0  0  0  0  0  0  0
    8.0228   -0.6446   23.4563 N   0  0  0  0  0  0  0  0  0  0  0  0
    6.8022   -0.7729   23.1135 C   0  0  0  0  0  0  0  0  0  0  0  0
    5.8996    0.3455   22.7598 C   0  0  0  0  0  0  0  0  0  0  0  0
    6.3099    1.6203   22.7810 C   0  0  0  0  0  0  0  0  0  0  0  0
    5.4003    2.5186   22.4639 N   0  0  0  0  0  0  0  0  0  0  0  0
    4.6833   -0.0371   22.4520 N   0  0  0  0  0  0  0  0  0  0  0  0
    4.8266   -1.4036   22.6077 C   0  0  0  0  0  0  0  0  0  0  0  0
    6.1413   -1.8754   23.0123 N   0  0  0  0  0  0  0  0  0  0  0  0
  2  1  1  6  0  0  0
  2  3  1  0  0  0  0
  2  5  1  0  0  0  0
  3  4  1  0  0  0  0
  3 17  1  0  0  0  0
  5  6  1  0  0  0  0
  7  6  1  6  0  0  0
  7  8  1  0  0  0  0
  7  9  1  0  0  0  0
 10  9  1  6  0  0  0
 10 11  1  0  0  0  0
 10 12  1  0  0  0  0
 11 16  1  0  0  0  0
 12 13  1  1  0  0  0
 12 14  1  0  0  0  0
 14 15  1  1  0  0  0
 14 16  1  0  0  0  0
 16 27  1  6  0  0  0
 18 19  2  0  0  0  0
 18 23  1  0  0  0  0
 19 20  1  0  0  0  0
 20 21  2  0  0  0  0
 21 22  1  0  0  0  0
 21 27  1  0  0  0  0
 22 23  2  0  0  0  0
 22 25  1  0  0  0  0
 23 24  1  0  0  0  0
 25 26  2  0  0  0  0
 26 27  1  0  0  0  0
M  END
>  <CHROM.1>
169.93341154,-75.84459653,-60.02147269,72.90778404,-83.50975289,-50.72794709
-51.84467854,6.86102506,-2.02077916,20.68952519,-1.06115794,1.41297331,0.55140839

>  <Name>
ligand

>  <RI>
0

>  <Rbt.Current_Directory>
/home/itssahil/PROJECTS/Mol_Feturizer/Test_systems_manuscript/rnas/4aob

>  <Rbt.Executable>
rbdock ($Id: //depot/dev/client3/rdock/2013.1/src/exe/rbdock.cxx#4 $)

>  <Rbt.Library>
libRbt.so (2013.1, Build901 2013/11/27)

>  <Rbt.Parameter_File>
/export/apps/rDock/src/rDock_2013.1_src/data/scripts/dock_solv.prm

>  <Rbt.Receptor>
prm/blind_docking_40.prm

>  <SCORE>
-12.1515

>  <SCORE.INTER>
-11.4298

>  <SCORE.INTER.CONST>
1

>  <SCORE.INTER.POLAR>
0

>  <SCORE.INTER.ROT>
7

>  <SCORE.INTER.SOLV>
9.3104

>  <SCORE.INTER.VDW>
-18.99

>  <SCORE.INTER.norm>
-0.423328

>  <SCORE.INTRA>
-0.721653

>  <SCORE.INTRA.DIHEDRAL>
-0.268228

>  <SCORE.INTRA.DIHEDRAL.0>
6.31833

>  <SCORE.INTRA.POLAR>
0

>  <SCORE.INTRA.POLAR.0>
0

>  <SCORE.INTRA.REPUL>
0

>  <SCORE.INTRA.REPUL.0>
0

>  <SCORE.INTRA.SOLV>
1.65783

>  <SCORE.INTRA.SOLV.lig_0>
-48.4015

>  <SCORE.INTRA.VDW>
-1.41646

>  <SCORE.INTRA.VDW.0>
-2.83256

>  <SCORE.INTRA.norm>
-0.0267279

>  <SCORE.RESTR>
0

>  <SCORE.RESTR.CAVITY>
0

>  <SCORE.RESTR.norm>
0

>  <SCORE.SYSTEM>
0

>  <SCORE.SYSTEM.CONST>
0

>  <SCORE.SYSTEM.DIHEDRAL>
0

>  <SCORE.SYSTEM.SOLV>
0

>  <SCORE.SYSTEM.norm>
0

>  <SCORE.heavy>
27

>  <SCORE.norm>
-0.450056

>  <RMSD>
15.201

$$$$
ligand
 OpenBabel02271912153D
libRbt.so/2013.1/901 2013/11/27
 27 29  0  0  0  0  0  0  0  0999 V2000
    8.9572   -5.0770   19.8313 N   0  0  0  0  0  0  0  0  0  0  0  0
    7.7173   -5.5225   20.5113 C   0  0  2  0  0  0  0  0  0  0  0  0
    6.5889   -5.4938   19.4884 C   0  0  0  0  0  0  0  0  0  0  0  0
    6.5027   -4.7192   18.4784 O   0  0  0  0  0  0  0  0  0  0  0  0
    7.4648   -4.6157   21.7177 C   0  0  0  0  0  0  0  0  0  0  0  0
    6.1670   -4.9471   22.4423 C   0  0  0  0  0  0  0  0  0  0  0  0
    5.6102   -4.0794   23.9568 S   0  0  2  0  0  0  0  0  0  0  0  0
    4.0188   -4.8778   24.1582 C   0  0  0  0  0  0  0  0  0  0  0  0
    5.1948   -2.4768   23.1982 C   0  0  0  0  0  0  0  0  0  0  0  0
    6.2940   -1.4697   23.3971 C   0  0  1  0  0  0  0  0  0  0  0  0
    7.5616   -1.9180   22.8595 O   0  0  0  0  0  0  0  0  0  0  0  0
    6.0124   -0.1147   22.7890 C   0  0  1  0  0  0  0  0  0  0  0  0
    5.5496    0.7035   23.7733 O   0  0  0  0  0  0  0  0  0  0  0  0
    7.4185    0.3301   22.4613 C   0  0  1  0  0  0  0  0  0  0  0  0
    7.9181    0.8431   23.6158 O   0  0  0  0  0  0  0  0  0  0  0  0
    8.2117   -0.9424   22.0903 C   0  0  2  0  0  0  0  0  0  0  0  0
    5.6483   -6.2609   19.7011 O   0  0  0  0  0  0  0  0  0  0  0  0
    9.3063   -0.5454   17.0090 N   0  0  0  0  0  0  0  0  0  0  0  0
   10.0239   -0.2002   18.2033 C   0  0  0  0  0  0  0  0  0  0  0  0
    9.6110   -0.3708   19.5480 N   0  0  0  0  0  0  0  0  0  0  0  0
    8.4592   -0.9120   19.6127 C   0  0  0  0  0  0  0  0  0  0  0  0
    7.6429   -1.3091   18.4437 C   0  0  0  0  0  0  0  0  0  0  0  0
    8.0650   -1.1165   17.1872 C   0  0  0  0  0  0  0  0  0  0  0  0
    7.2325   -1.4972   16.2402 N   0  0  0  0  0  0  0  0  0  0  0  0
    6.4857   -1.8366   18.7646 N   0  0  0  0  0  0  0  0  0  0  0  0
    6.5802   -1.7752   20.1428 C   0  0  0  0  0  0  0  0  0  0  0  0
    7.8053   -1.2085   20.6837 N   0  0  0  0  0  0  0  0  0  0  0  0
  2  1  1  6  0  0  0
  2  3  1  0  0  0  0
  2  5  1  0  0  0  0
  3  4  1  0  0  0  0
  3 17  1  0  0  0  0
  5  6  1  0  0  0  0
  7  6  1  6  0  0  0
  7  8  1  0  0  0  0
  7  9  1  0  0  0  0
 10  9  1  6  0  0  0
 10 11  1  0  0  0  0
 10 12  1  0  0  0  0
 11 16  1  0  0  0  0
 12 13  1  1  0  0  0
 12 14  1  0  0  0  0
 14 15  1  1  0  0  0
 14 16  1  0  0  0  0
 16 27  1  6  0  0  0
 18 19  2  0  0  0  0
 18 23  1  0  0  0  0
 19 20  1  0  0  0  0
 20 21  2  0  0  0  0
 21 22  1  0  0  0  0
 21 27  1  0  0  0  0
 22 23  2  0  0  0  0
 22 25  1  0  0  0  0
 23 24  1  0  0  0  0
 25 26  2  0  0  0  0
 26 27  1  0  0  0  0
M  END
>  <CHROM.1>
-28.99865441,176.91066614,177.89771073,175.99358344,-99.51919205,57.74943869
-153.93306080,7.07053502,-2.38868139,20.97283197,0.29107584,-1.10762301,-2.46440153

>  <Name>
ligand

>  <RI>
0

>  <Rbt.Current_Directory>
/home/itssahil/PROJECTS/Mol_Feturizer/Test_systems_manuscript/rnas/4aob

>  <Rbt.Executable>
rbdock ($Id: //depot/dev/client3/rdock/2013.1/src/exe/rbdock.cxx#4 $)

>  <Rbt.Library>
libRbt.so (2013.1, Build901 2013/11/27)

>  <Rbt.Parameter_File>
/export/apps/rDock/src/rDock_2013.1_src/data/scripts/dock_solv.prm

>  <Rbt.Receptor>
prm/blind_docking_60.prm

>  <SCORE>
-11.7435

>  <SCORE.INTER>
-8.86465

>  <SCORE.INTER.CONST>
1

>  <SCORE.INTER.POLAR>
0

>  <SCORE.INTER.ROT>
7

>  <SCORE.INTER.SOLV>
12.0958

>  <SCORE.INTER.VDW>
-18.2084

>  <SCORE.INTER.norm>
-0.32832

>  <SCORE.INTRA>
-2.87885

>  <SCORE.INTRA.DIHEDRAL>
-1.201

>  <SCORE.INTRA.DIHEDRAL.0>
6.31833

>  <SCORE.INTRA.POLAR>
0

>  <SCORE.INTRA.POLAR.0>
0

>  <SCORE.INTRA.REPUL>
0

>  <SCORE.INTRA.REPUL.0>
0

>  <SCORE.INTRA.SOLV>
-0.629435

>  <SCORE.INTRA.SOLV.lig_0>
-48.4015

>  <SCORE.INTRA.VDW>
-1.96363

>  <SCORE.INTRA.VDW.0>
-2.83256

>  <SCORE.INTRA.norm>
-0.106624

>  <SCORE.RESTR>
0

>  <SCORE.RESTR.CAVITY>
0

>  <SCORE.RESTR.norm>
0

>  <SCORE.SYSTEM>
0

>  <SCORE.SYSTEM.CONST>
0

>  <SCORE.SYSTEM.DIHEDRAL>
0

>  <SCORE.SYSTEM.SOLV>
0

>  <SCORE.SYSTEM.norm>
0

>  <SCORE.heavy>
27

>  <SCORE.norm>
-0.434944

>  <RMSD>
15.202

$$$$
ligand
 OpenBabel02271912153D
libRbt.so/2013.1/901 2013/11/27
 27 29  0  0  0  0  0  0  0  0999 V2000
    7.8227    4.7359   12.7700 N   0  0  0  0  0  0  0  0  0  0  0  0
    8.8828    4.3176   13.7185 C   0  0  2  0  0  0  0  0  0  0  0  0
    9.9266    3.5330   12.9341 C   0  0  0  0  0  0  0  0  0  0  0  0
   11.1796    3.4944   13.1708 O   0  0  0  0  0  0  0  0  0  0  0  0
    8.2411    3.5103   14.8489 C   0  0  0  0  0  0  0  0  0  0  0  0
    7.1061    4.2580   15.5359 C   0  0  0  0  0  0  0  0  0  0  0  0
    5.9761    3.4777   16.7487 S   0  0  2  0  0  0  0  0  0  0  0  0
    5.0798    4.9406   17.2656 C   0  0  0  0  0  0  0  0  0  0  0  0
    7.1793    3.2138   18.0900 C   0  0  0  0  0  0  0  0  0  0  0  0
    7.9720    1.9529   17.8813 C   0  0  1  0  0  0  0  0  0  0  0  0
    8.9375    1.7232   18.9358 O   0  0  0  0  0  0  0  0  0  0  0  0
    7.1312    0.7012   17.7741 C   0  0  1  0  0  0  0  0  0  0  0  0
    6.9684    0.4119   16.4542 O   0  0  0  0  0  0  0  0  0  0  0  0
    8.0925   -0.3174   18.3404 C   0  0  1  0  0  0  0  0  0  0  0  0
    8.9100   -0.6604   17.3110 O   0  0  0  0  0  0  0  0  0  0  0  0
    8.9221    0.4084   19.4226 C   0  0  2  0  0  0  0  0  0  0  0  0
    9.5138    2.9257   11.9446 O   0  0  0  0  0  0  0  0  0  0  0  0
    7.0531   -2.0427   23.6266 N   0  0  0  0  0  0  0  0  0  0  0  0
    8.0614   -2.3714   22.6591 C   0  0  0  0  0  0  0  0  0  0  0  0
    8.4881   -1.6008   21.5492 N   0  0  0  0  0  0  0  0  0  0  0  0
    7.8576   -0.4953   21.4844 C   0  0  0  0  0  0  0  0  0  0  0  0
    6.8076   -0.0620   22.4331 C   0  0  0  0  0  0  0  0  0  0  0  0
    6.4232   -0.8284   23.4621 C   0  0  0  0  0  0  0  0  0  0  0  0
    5.4652   -0.3320   24.2177 N   0  0  0  0  0  0  0  0  0  0  0  0
    6.2958    1.1123   22.1513 N   0  0  0  0  0  0  0  0  0  0  0  0
    7.0339    1.4192   21.0230 C   0  0  0  0  0  0  0  0  0  0  0  0
    8.0137    0.4309   20.6010 N   0  0  0  0  0  0  0  0  0  0  0  0
  2  1  1  6  0  0  0
  2  3  1  0  0  0  0
  2  5  1  0  0  0  0
  3  4  1  0  0  0  0
  3 17  1  0  0  0  0
  5  6  1  0  0  0  0
  7  6  1  6  0  0  0
  7  8  1  0  0  0  0
  7  9  1  0  0  0  0
 10  9  1  1  0  0  0
 10 11  1  0  0  0  0
 10 12  1  0  0  0  0
 11 16  1  0  0  0  0
 12 13  1  6  0  0  0
 12 14  1  0  0  0  0
 14 15  1  6  0  0  0
 14 16  1  0  0  0  0
 16 27  1  1  0  0  0
 18 19  2  0  0  0  0
 18 23  1  0  0  0  0
 19 20  1  0  0  0  0
 20 21  2  0  0  0  0
 21 22  1  0  0  0  0
 21 27  1  0  0  0  0
 22 23  2  0  0  0  0
 22 25  1  0  0  0  0
 23 24  1  0  0  0  0
 25 26  2  0  0  0  0
 26 27  1  0  0  0  0
M  END
>  <CHROM.1>
147.72075598,-54.48910255,170.45495099,173.33376338,-83.01315981,179.91115723
-168.28104578,7.69497859,1.54903988,18.17468506,1.36728294,0.72220440,-0.95873111

>  <Name>
ligand

>  <RI>
0

>  <Rbt.Current_Directory>
/home/itssahil/PROJECTS/Mol_Feturizer/Test_systems_manuscript/rnas/4aob

>  <Rbt.Executable>
rbdock ($Id: //depot/dev/client3/rdock/2013.1/src/exe/rbdock.cxx#4 $)

>  <Rbt.Library>
libRbt.so (2013.1, Build901 2013/11/27)

>  <Rbt.Parameter_File>
/export/apps/rDock/src/rDock_2013.1_src/data/scripts/dock_solv.prm

>  <Rbt.Receptor>
prm/blind_docking_60.prm

>  <SCORE>
-10.4091

>  <SCORE.INTER>
-9.56608

>  <SCORE.INTER.CONST>
1

>  <SCORE.INTER.POLAR>
0

>  <SCORE.INTER.ROT>
7

>  <SCORE.INTER.SOLV>
11.7161

>  <SCORE.INTER.VDW>
-18.5494

>  <SCORE.INTER.norm>
-0.354299

>  <SCORE.INTRA>
-0.843019

>  <SCORE.INTRA.DIHEDRAL>
-2.18213

>  <SCORE.INTRA.DIHEDRAL.0>
6.31833

>  <SCORE.INTRA.POLAR>
0

>  <SCORE.INTRA.POLAR.0>
0

>  <SCORE.INTRA.REPUL>
0

>  <SCORE.INTRA.REPUL.0>
0

>  <SCORE.INTRA.SOLV>
0.360903

>  <SCORE.INTRA.SOLV.lig_0>
-48.4015

>  <SCORE.INTRA.VDW>
0.0675954

>  <SCORE.INTRA.VDW.0>
-2.83256

>  <SCORE.INTRA.norm>
-0.0312229

>  <SCORE.RESTR>
0

>  <SCORE.RESTR.CAVITY>
0

>  <SCORE.RESTR.norm>
0

>  <SCORE.SYSTEM>
0

>  <SCORE.SYSTEM.CONST>
0

>  <SCORE.SYSTEM.DIHEDRAL>
0

>  <SCORE.SYSTEM.SOLV>
0

>  <SCORE.SYSTEM.norm>
0

>  <SCORE.heavy>
27

>  <SCORE.norm>
-0.385522

>  <RMSD>
15.213

$$$$
ligand
 OpenBabel02271912153D
libRbt.so/2013.1/901 2013/11/27
 27 29  0  0  0  0  0  0  0  0999 V2000
    6.6797   -2.9931   26.0285 N   0  0  0  0  0  0  0  0  0  0  0  0
    6.5998   -2.1541   24.8086 C   0  0  2  0  0  0  0  0  0  0  0  0
    5.2767   -1.4003   24.8474 C   0  0  0  0  0  0  0  0  0  0  0  0
    5.1281   -0.1379   24.9555 O   0  0  0  0  0  0  0  0  0  0  0  0
    6.7478   -3.0556   23.5809 C   0  0  0  0  0  0  0  0  0  0  0  0
    6.7675   -2.2731   22.2746 C   0  0  0  0  0  0  0  0  0  0  0  0
    8.1042   -1.1051   21.8214 S   0  0  2  0  0  0  0  0  0  0  0  0
    7.6883    0.2315   22.9400 C   0  0  0  0  0  0  0  0  0  0  0  0
    7.4326   -0.5521   20.2216 C   0  0  0  0  0  0  0  0  0  0  0  0
    8.0868    0.7201   19.7574 C   0  0  1  0  0  0  0  0  0  0  0  0
    9.4957    0.5472   19.4708 O   0  0  0  0  0  0  0  0  0  0  0  0
    7.4581    1.3279   18.5244 C   0  0  1  0  0  0  0  0  0  0  0  0
    6.6079    2.3127   18.9239 O   0  0  0  0  0  0  0  0  0  0  0  0
    8.6645    1.9994   17.9110 C   0  0  1  0  0  0  0  0  0  0  0  0
    8.7872    3.1894   18.5548 O   0  0  0  0  0  0  0  0  0  0  0  0
    9.8850    1.1151   18.2493 C   0  0  2  0  0  0  0  0  0  0  0  0
    4.2592   -2.0950   24.8271 O   0  0  0  0  0  0  0  0  0  0  0  0
   11.0423   -3.8067   16.9800 N   0  0  0  0  0  0  0  0  0  0  0  0
   11.2461   -3.0181   18.1620 C   0  0  0  0  0  0  0  0  0  0  0  0
   10.8697   -1.6705   18.3859 N   0  0  0  0  0  0  0  0  0  0  0  0
   10.2756   -1.1817   17.3701 C   0  0  0  0  0  0  0  0  0  0  0  0
   10.0127   -1.9118   16.1098 C   0  0  0  0  0  0  0  0  0  0  0  0
   10.3988   -3.1822   15.9338 C   0  0  0  0  0  0  0  0  0  0  0  0
   10.1201   -3.7064   14.7581 N   0  0  0  0  0  0  0  0  0  0  0  0
    9.3958   -1.1918   15.2034 N   0  0  0  0  0  0  0  0  0  0  0  0
    9.2660   -0.0058   15.9022 C   0  0  0  0  0  0  0  0  0  0  0  0
    9.8029    0.0123   17.2536 N   0  0  0  0  0  0  0  0  0  0  0  0
  2  1  1  1  0  0  0
  2  3  1  0  0  0  0
  2  5  1  0  0  0  0
  3  4  1  0  0  0  0
  3 17  1  0  0  0  0
  5  6  1  0  0  0  0
  7  6  1  1  0  0  0
  7  8  1  0  0  0  0
  7  9  1  0  0  0  0
 10  9  1  6  0  0  0
 10 11  1  0  0  0  0
 10 12  1  0  0  0  0
 11 16  1  0  0  0  0
 12 13  1  1  0  0  0
 12 14  1  0  0  0  0
 14 15  1  1  0  0  0
 14 16  1  0  0  0  0
 16 27  1  6  0  0  0
 18 19  2  0  0  0  0
 18 23  1  0  0  0  0
 19 20  1  0  0  0  0
 20 21  2  0  0  0  0
 21 22  1  0  0  0  0
 21 27  1  0  0  0  0
 22 23  2  0  0  0  0
 22 25  1  0  0  0  0
 23 24  1  0  0  0  0
 25 26  2  0  0  0  0
 26 27  1  0  0  0  0
M  END
>  <CHROM.1>
114.26864450,-176.35302777,65.55053892,-73.20510534,163.11620399,65.06468752
-47.91760512,8.29189163,-0.84483029,19.96420355,-2.67459625,1.04056024,-0.48116529

>  <Name>
ligand

>  <RI>
0

>  <Rbt.Current_Directory>
/home/itssahil/PROJECTS/Mol_Feturizer/Test_systems_manuscript/rnas/4aob

>  <Rbt.Executable>
rbdock ($Id: //depot/dev/client3/rdock/2013.1/src/exe/rbdock.cxx#4 $)

>  <Rbt.Library>
libRbt.so (2013.1, Build901 2013/11/27)

>  <Rbt.Parameter_File>
/export/apps/rDock/src/rDock_2013.1_src/data/scripts/dock_solv.prm

>  <Rbt.Receptor>
prm/blind_docking_60.prm

>  <SCORE>
-13.7441

>  <SCORE.INTER>
-12.2746

>  <SCORE.INTER.CONST>
1

>  <SCORE.INTER.POLAR>
0

>  <SCORE.INTER.ROT>
7

>  <SCORE.INTER.SOLV>
8.0714

>  <SCORE.INTER.VDW>
-19.1402

>  <SCORE.INTER.norm>
-0.454616

>  <SCORE.INTRA>
-1.4695

>  <SCORE.INTRA.DIHEDRAL>
-2.7832

>  <SCORE.INTRA.DIHEDRAL.0>
6.31833

>  <SCORE.INTRA.POLAR>
0

>  <SCORE.INTRA.POLAR.0>
0

>  <SCORE.INTRA.REPUL>
0

>  <SCORE.INTRA.REPUL.0>
0

>  <SCORE.INTRA.SOLV>
-0.498397

>  <SCORE.INTRA.SOLV.lig_0>
-48.4015

>  <SCORE.INTRA.VDW>
0.171301

>  <SCORE.INTRA.VDW.0>
-2.83256

>  <SCORE.INTRA.norm>
-0.0544259

>  <SCORE.RESTR>
0

>  <SCORE.RESTR.CAVITY>
0

>  <SCORE.RESTR.norm>
0

>  <SCORE.SYSTEM>
0

>  <SCORE.SYSTEM.CONST>
0

>  <SCORE.SYSTEM.DIHEDRAL>
0

>  <SCORE.SYSTEM.SOLV>
0

>  <SCORE.SYSTEM.norm>
0

>  <SCORE.heavy>
27

>  <SCORE.norm>
-0.509042

>  <RMSD>
15.218

$$$$
ligand
 OpenBabel02271912153D
libRbt.so/2013.1/901 2013/11/27
 27 29  0  0  0  0  0  0  0  0999 V2000
    5.8797   -2.8004   23.7057 N   0  0  0  0  0  0  0  0  0  0  0  0
    7.1605   -2.2382   24.1974 C   0  0  2  0  0  0  0  0  0  0  0  0
    6.8748   -1.4933   25.4950 C   0  0  0  0  0  0  0  0  0  0  0  0
    7.5914   -1.5094   26.5503 O   0  0  0  0  0  0  0  0  0  0  0  0
    7.7579   -1.3472   23.1062 C   0  0  0  0  0  0  0  0  0  0  0  0
    7.9981   -2.0947   21.8013 C   0  0  0  0  0  0  0  0  0  0  0  0
    6.6452   -2.6799   20.7132 S   0  0  2  0  0  0  0  0  0  0  0  0
    7.6080   -3.7215   19.6184 C   0  0  0  0  0  0  0  0  0  0  0  0
    6.4064   -1.1510   19.7531 C   0  0  0  0  0  0  0  0  0  0  0  0
    7.5096   -0.9497   18.7509 C   0  0  1  0  0  0  0  0  0  0  0  0
    7.1285   -0.0549   17.6781 O   0  0  0  0  0  0  0  0  0  0  0  0
    8.7928   -0.4095   19.3398 C   0  0  1  0  0  0  0  0  0  0  0  0
    9.6369   -1.4566   19.5486 O   0  0  0  0  0  0  0  0  0  0  0  0
    9.3252    0.3660   18.1576 C   0  0  1  0  0  0  0  0  0  0  0  0
    9.9546   -0.5482   17.3742 O   0  0  0  0  0  0  0  0  0  0  0  0
    8.0980    0.9193   17.4002 C   0  0  2  0  0  0  0  0  0  0  0  0
    5.8169   -0.8624   25.5332 O   0  0  0  0  0  0  0  0  0  0  0  0
    8.1889    6.1002   17.9696 N   0  0  0  0  0  0  0  0  0  0  0  0
    8.6654    5.2108   16.9485 C   0  0  0  0  0  0  0  0  0  0  0  0
    8.5683    3.7977   16.9092 N   0  0  0  0  0  0  0  0  0  0  0  0
    7.9619    3.3474   17.9355 C   0  0  0  0  0  0  0  0  0  0  0  0
    7.4294    4.1792   19.0378 C   0  0  0  0  0  0  0  0  0  0  0  0
    7.5555    5.5127   19.0429 C   0  0  0  0  0  0  0  0  0  0  0  0
    7.0547    6.1298   20.0932 N   0  0  0  0  0  0  0  0  0  0  0  0
    6.8553    3.4849   19.9909 N   0  0  0  0  0  0  0  0  0  0  0  0
    7.0234    2.2112   19.4798 C   0  0  0  0  0  0  0  0  0  0  0  0
    7.7043    2.1117   18.1987 N   0  0  0  0  0  0  0  0  0  0  0  0
  2  1  1  6  0  0  0
  2  3  1  0  0  0  0
  2  5  1  0  0  0  0
  3  4  1  0  0  0  0
  3 17  1  0  0  0  0
  5  6  1  0  0  0  0
  7  6  1  1  0  0  0
  7  8  1  0  0  0  0
  7  9  1  0  0  0  0
 10  9  1  1  0  0  0
 10 11  1  0  0  0  0
 10 12  1  0  0  0  0
 11 16  1  0  0  0  0
 12 13  1  6  0  0  0
 12 14  1  0  0  0  0
 14 15  1  6  0  0  0
 14 16  1  0  0  0  0
 16 27  1  1  0  0  0
 18 19  2  0  0  0  0
 18 23  1  0  0  0  0
 19 20  1  0  0  0  0
 20 21  2  0  0  0  0
 21 22  1  0  0  0  0
 21 27  1  0  0  0  0
 22 23  2  0  0  0  0
 22 25  1  0  0  0  0
 23 24  1  0  0  0  0
 25 26  2  0  0  0  0
 26 27  1  0  0  0  0
M  END
>  <CHROM.1>
138.42224323,-58.33003901,70.03158975,-168.80251488,74.83658863,159.20474425
-152.87060440,7.63130740,0.47183078,20.23766778,2.08091770,-1.30939068,2.90769261

>  <Name>
ligand

>  <RI>
0

>  <Rbt.Current_Directory>
/home/itssahil/PROJECTS/Mol_Feturizer/Test_systems_manuscript/rnas/4aob

>  <Rbt.Executable>
rbdock ($Id: //depot/dev/client3/rdock/2013.1/src/exe/rbdock.cxx#4 $)

>  <Rbt.Library>
libRbt.so (2013.1, Build901 2013/11/27)

>  <Rbt.Parameter_File>
/export/apps/rDock/src/rDock_2013.1_src/data/scripts/dock_solv.prm

>  <Rbt.Receptor>
prm/blind_docking_80.prm

>  <SCORE>
-5.67808

>  <SCORE.INTER>
-9.18944

>  <SCORE.INTER.CONST>
1

>  <SCORE.INTER.POLAR>
0

>  <SCORE.INTER.ROT>
7

>  <SCORE.INTER.SOLV>
4.90874

>  <SCORE.INTER.VDW>
-16.0292

>  <SCORE.INTER.norm>
-0.34035

>  <SCORE.INTRA>
3.51136

>  <SCORE.INTRA.DIHEDRAL>
1.0577

>  <SCORE.INTRA.DIHEDRAL.0>
6.31833

>  <SCORE.INTRA.POLAR>
0

>  <SCORE.INTRA.POLAR.0>
0

>  <SCORE.INTRA.REPUL>
0

>  <SCORE.INTRA.REPUL.0>
0

>  <SCORE.INTRA.SOLV>
2.19125

>  <SCORE.INTRA.SOLV.lig_0>
-48.4015

>  <SCORE.INTRA.VDW>
1.88689

>  <SCORE.INTRA.VDW.0>
-2.83256

>  <SCORE.INTRA.norm>
0.130051

>  <SCORE.RESTR>
0

>  <SCORE.RESTR.CAVITY>
0

>  <SCORE.RESTR.norm>
0

>  <SCORE.SYSTEM>
0

>  <SCORE.SYSTEM.CONST>
0

>  <SCORE.SYSTEM.DIHEDRAL>
0

>  <SCORE.SYSTEM.SOLV>
0

>  <SCORE.SYSTEM.norm>
0

>  <SCORE.heavy>
27

>  <SCORE.norm>
-0.210299

>  <RMSD>
15.224

$$$$
ligand
 OpenBabel02271912153D
libRbt.so/2013.1/901 2013/11/27
 27 29  0  0  0  0  0  0  0  0999 V2000
    5.9251   -3.9926   24.7497 N   0  0  0  0  0  0  0  0  0  0  0  0
    6.5050   -3.2454   23.6079 C   0  0  2  0  0  0  0  0  0  0  0  0
    7.6051   -2.3432   24.1519 C   0  0  0  0  0  0  0  0  0  0  0  0
    7.4726   -1.4441   25.0473 O   0  0  0  0  0  0  0  0  0  0  0  0
    5.3849   -2.4775   22.9026 C   0  0  0  0  0  0  0  0  0  0  0  0
    5.8360   -1.8516   21.5896 C   0  0  0  0  0  0  0  0  0  0  0  0
    7.2651   -0.7130   21.4563 S   0  0  2  0  0  0  0  0  0  0  0  0
    6.6575    0.6096   22.5014 C   0  0  0  0  0  0  0  0  0  0  0  0
    6.9542   -0.1050   19.7682 C   0  0  0  0  0  0  0  0  0  0  0  0
    7.8453    1.0574   19.4265 C   0  0  1  0  0  0  0  0  0  0  0  0
    9.2443    0.6874   19.3725 O   0  0  0  0  0  0  0  0  0  0  0  0
    7.5160    1.7271   18.1119 C   0  0  1  0  0  0  0  0  0  0  0  0
    6.7570    2.8259   18.3745 O   0  0  0  0  0  0  0  0  0  0  0  0
    8.8874    2.2163   17.7087 C   0  0  1  0  0  0  0  0  0  0  0  0
    9.0675    3.3877   18.3726 O   0  0  0  0  0  0  0  0  0  0  0  0
    9.9021    1.1773   18.2352 C   0  0  2  0  0  0  0  0  0  0  0  0
    8.7133   -2.4674   23.6276 O   0  0  0  0  0  0  0  0  0  0  0  0
   11.1047   -3.7246   16.9314 N   0  0  0  0  0  0  0  0  0  0  0  0
   11.2999   -2.9429   18.1194 C   0  0  0  0  0  0  0  0  0  0  0  0
   10.9112   -1.6003   18.3527 N   0  0  0  0  0  0  0  0  0  0  0  0
   10.3141   -1.1094   17.3397 C   0  0  0  0  0  0  0  0  0  0  0  0
   10.0594   -1.8325   16.0737 C   0  0  0  0  0  0  0  0  0  0  0  0
   10.4570   -3.0981   15.8890 C   0  0  0  0  0  0  0  0  0  0  0  0
   10.1845   -3.6161   14.7090 N   0  0  0  0  0  0  0  0  0  0  0  0
    9.4373   -1.1114   15.1718 N   0  0  0  0  0  0  0  0  0  0  0  0
    9.2960    0.0683   15.8792 C   0  0  0  0  0  0  0  0  0  0  0  0
    9.8310    0.0812   17.2313 N   0  0  0  0  0  0  0  0  0  0  0  0
  2  1  1  1  0  0  0
  2  3  1  0  0  0  0
  2  5  1  0  0  0  0
  3  4  1  0  0  0  0
  3 17  1  0  0  0  0
  5  6  1  0  0  0  0
  7  6  1  1  0  0  0
  7  8  1  0  0  0  0
  7  9  1  0  0  0  0
 10  9  1  6  0  0  0
 10 11  1  0  0  0  0
 10 12  1  0  0  0  0
 11 16  1  0  0  0  0
 12 13  1  1  0  0  0
 12 14  1  0  0  0  0
 14 15  1  1  0  0  0
 14 16  1  0  0  0  0
 16 27  1  6  0  0  0
 18 19  2  0  0  0  0
 18 23  1  0  0  0  0
 19 20  1  0  0  0  0
 20 21  2  0  0  0  0
 21 22  1  0  0  0  0
 21 27  1  0  0  0  0
 22 23  2  0  0  0  0
 22 25  1  0  0  0  0
 23 24  1  0  0  0  0
 25 26  2  0  0  0  0
 26 27  1  0  0  0  0
M  END
>  <CHROM.1>
-57.89699082,-171.05303261,-55.36523748,-62.35157527,170.10031076,65.47141490
-60.55736273,8.42839755,-0.82147389,19.62124122,-2.50308995,1.04389605,-0.54075941

>  <Name>
ligand

>  <RI>
0

>  <Rbt.Current_Directory>
/home/itssahil/PROJECTS/Mol_Feturizer/Test_systems_manuscript/rnas/4aob

>  <Rbt.Executable>
rbdock ($Id: //depot/dev/client3/rdock/2013.1/src/exe/rbdock.cxx#4 $)

>  <Rbt.Library>
libRbt.so (2013.1, Build901 2013/11/27)

>  <Rbt.Parameter_File>
/export/apps/rDock/src/rDock_2013.1_src/data/scripts/dock_solv.prm

>  <Rbt.Receptor>
prm/blind_docking_80.prm

>  <SCORE>
-14.4887

>  <SCORE.INTER>
-12.397

>  <SCORE.INTER.CONST>
1

>  <SCORE.INTER.POLAR>
0

>  <SCORE.INTER.ROT>
7

>  <SCORE.INTER.SOLV>
8.08224

>  <SCORE.INTER.VDW>
-19.2254

>  <SCORE.INTER.norm>
-0.459149

>  <SCORE.INTRA>
-2.09169

>  <SCORE.INTRA.DIHEDRAL>
-2.65613

>  <SCORE.INTRA.DIHEDRAL.0>
6.31833

>  <SCORE.INTRA.POLAR>
0

>  <SCORE.INTRA.POLAR.0>
0

>  <SCORE.INTRA.REPUL>
0

>  <SCORE.INTRA.REPUL.0>
0

>  <SCORE.INTRA.SOLV>
-0.679275

>  <SCORE.INTRA.SOLV.lig_0>
-48.4015

>  <SCORE.INTRA.VDW>
-0.423985

>  <SCORE.INTRA.VDW.0>
-2.83256

>  <SCORE.INTRA.norm>
-0.0774698

>  <SCORE.RESTR>
0

>  <SCORE.RESTR.CAVITY>
0

>  <SCORE.RESTR.norm>
0

>  <SCORE.SYSTEM>
0

>  <SCORE.SYSTEM.CONST>
0

>  <SCORE.SYSTEM.DIHEDRAL>
0

>  <SCORE.SYSTEM.SOLV>
0

>  <SCORE.SYSTEM.norm>
0

>  <SCORE.heavy>
27

>  <SCORE.norm>
-0.536619

>  <RMSD>
15.255

$$$$
ligand
 OpenBabel02271912153D
libRbt.so/2013.1/901 2013/11/27
 27 29  0  0  0  0  0  0  0  0999 V2000
    8.0755    6.9105   15.9260 N   0  0  0  0  0  0  0  0  0  0  0  0
    7.7762    6.4710   17.3101 C   0  0  2  0  0  0  0  0  0  0  0  0
    6.2618    6.4320   17.4694 C   0  0  0  0  0  0  0  0  0  0  0  0
    5.5812    7.0157   18.3769 O   0  0  0  0  0  0  0  0  0  0  0  0
    8.4641    7.4251   18.2889 C   0  0  0  0  0  0  0  0  0  0  0  0
    8.3821    6.9478   19.7327 C   0  0  0  0  0  0  0  0  0  0  0  0
    8.8678    7.9834   21.1639 S   0  0  2  0  0  0  0  0  0  0  0  0
    8.6163    6.7803   22.4678 C   0  0  0  0  0  0  0  0  0  0  0  0
    7.3767    9.0255   21.2465 C   0  0  0  0  0  0  0  0  0  0  0  0
    7.4447    9.9980   22.3917 C   0  0  1  0  0  0  0  0  0  0  0  0
    8.4376   11.0315   22.1842 O   0  0  0  0  0  0  0  0  0  0  0  0
    6.1382   10.6966   22.6918 C   0  0  1  0  0  0  0  0  0  0  0  0
    5.5378   10.0465   23.7258 O   0  0  0  0  0  0  0  0  0  0  0  0
    6.6538   12.0114   23.2286 C   0  0  1  0  0  0  0  0  0  0  0  0
    6.9452   11.7835   24.5357 O   0  0  0  0  0  0  0  0  0  0  0  0
    7.9617   12.3198   22.4668 C   0  0  2  0  0  0  0  0  0  0  0  0
    5.6534    5.7186   16.6697 O   0  0  0  0  0  0  0  0  0  0  0  0
    5.8321   16.2790   19.8278 N   0  0  0  0  0  0  0  0  0  0  0  0
    6.2421   16.1098   21.1931 C   0  0  0  0  0  0  0  0  0  0  0  0
    6.8258   14.9659   21.7921 N   0  0  0  0  0  0  0  0  0  0  0  0
    6.9795   14.0276   20.9438 C   0  0  0  0  0  0  0  0  0  0  0  0
    6.5957   14.1046   19.5165 C   0  0  0  0  0  0  0  0  0  0  0  0
    6.0324   15.2012   18.9931 C   0  0  0  0  0  0  0  0  0  0  0  0
    5.7218   15.1294   17.7151 N   0  0  0  0  0  0  0  0  0  0  0  0
    6.8424   13.0051   18.8452 N   0  0  0  0  0  0  0  0  0  0  0  0
    7.3897   12.2371   19.8564 C   0  0  0  0  0  0  0  0  0  0  0  0
    7.4871   12.8632   21.1653 N   0  0  0  0  0  0  0  0  0  0  0  0
  2  1  1  6  0  0  0
  2  3  1  0  0  0  0
  2  5  1  0  0  0  0
  3  4  1  0  0  0  0
  3 17  1  0  0  0  0
  5  6  1  0  0  0  0
  7  6  1  6  0  0  0
  7  8  1  0  0  0  0
  7  9  1  0  0  0  0
 10  9  1  6  0  0  0
 10 11  1  0  0  0  0
 10 12  1  0  0  0  0
 11 16  1  0  0  0  0
 12 13  1  1  0  0  0
 12 14  1  0  0  0  0
 14 15  1  1  0  0  0
 14 16  1  0  0  0  0
 16 27  1  6  0  0  0
 18 19  2  0  0  0  0
 18 23  1  0  0  0  0
 19 20  1  0  0  0  0
 20 21  2  0  0  0  0
 21 22  1  0  0  0  0
 21 27  1  0  0  0  0
 22 23  2  0  0  0  0
 22 25  1  0  0  0  0
 23 24  1  0  0  0  0
 25 26  2  0  0  0  0
 26 27  1  0  0  0  0
M  END
>  <CHROM.1>
-126.38139607,-171.87748361,-169.96144434,-176.58838636,178.28736011,69.53116910
-179.26375660,7.12686733,10.58708039,20.42716108,1.06199134,1.33758969,-2.34185340

>  <Name>
ligand

>  <RI>
0

>  <Rbt.Current_Directory>
/home/itssahil/PROJECTS/Mol_Feturizer/Test_systems_manuscript/rnas/4aob

>  <Rbt.Executable>
rbdock ($Id: //depot/dev/client3/rdock/2013.1/src/exe/rbdock.cxx#4 $)

>  <Rbt.Library>
libRbt.so (2013.1, Build901 2013/11/27)

>  <Rbt.Parameter_File>
/export/apps/rDock/src/rDock_2013.1_src/data/scripts/dock_solv.prm

>  <Rbt.Receptor>
prm/blind_docking_60.prm

>  <SCORE>
-11.8253

>  <SCORE.INTER>
-10.4608

>  <SCORE.INTER.CONST>
1

>  <SCORE.INTER.POLAR>
0

>  <SCORE.INTER.ROT>
7

>  <SCORE.INTER.SOLV>
13.2469

>  <SCORE.INTER.VDW>
-19.6562

>  <SCORE.INTER.norm>
-0.387437

>  <SCORE.INTRA>
-1.36445

>  <SCORE.INTRA.DIHEDRAL>
-1.78479

>  <SCORE.INTRA.DIHEDRAL.0>
6.31833

>  <SCORE.INTRA.POLAR>
0

>  <SCORE.INTRA.POLAR.0>
0

>  <SCORE.INTRA.REPUL>
0

>  <SCORE.INTRA.REPUL.0>
0

>  <SCORE.INTRA.SOLV>
-0.81865

>  <SCORE.INTRA.SOLV.lig_0>
-48.4015

>  <SCORE.INTRA.VDW>
-0.062732

>  <SCORE.INTRA.VDW.0>
-2.83256

>  <SCORE.INTRA.norm>
-0.0505353

>  <SCORE.RESTR>
0

>  <SCORE.RESTR.CAVITY>
0

>  <SCORE.RESTR.norm>
0

>  <SCORE.SYSTEM>
0

>  <SCORE.SYSTEM.CONST>
0

>  <SCORE.SYSTEM.DIHEDRAL>
0

>  <SCORE.SYSTEM.SOLV>
0

>  <SCORE.SYSTEM.norm>
0

>  <SCORE.heavy>
27

>  <SCORE.norm>
-0.437972

>  <RMSD>
15.262

$$$$
ligand
 OpenBabel02271912153D
libRbt.so/2013.1/901 2013/11/27
 27 29  0  0  0  0  0  0  0  0999 V2000
    7.8520   -3.9323   25.4708 N   0  0  0  0  0  0  0  0  0  0  0  0
    7.6511   -2.6444   24.7641 C   0  0  2  0  0  0  0  0  0  0  0  0
    6.8706   -1.7212   25.6908 C   0  0  0  0  0  0  0  0  0  0  0  0
    5.6657   -1.3331   25.5329 O   0  0  0  0  0  0  0  0  0  0  0  0
    6.9373   -2.9168   23.4382 C   0  0  0  0  0  0  0  0  0  0  0  0
    6.8251   -1.6752   22.5637 C   0  0  0  0  0  0  0  0  0  0  0  0
    8.2713   -0.6809   22.0377 S   0  0  2  0  0  0  0  0  0  0  0  0
    8.3580    0.4345   23.4373 C   0  0  0  0  0  0  0  0  0  0  0  0
    7.4492    0.3088   20.7489 C   0  0  0  0  0  0  0  0  0  0  0  0
    7.7820   -0.1925   19.3706 C   0  0  1  0  0  0  0  0  0  0  0  0
    6.9672    0.4233   18.3440 O   0  0  0  0  0  0  0  0  0  0  0  0
    9.2249    0.0098   18.9676 C   0  0  1  0  0  0  0  0  0  0  0  0
    9.8923   -1.1568   19.1823 O   0  0  0  0  0  0  0  0  0  0  0  0
    9.0670    0.1668   17.4733 C   0  0  1  0  0  0  0  0  0  0  0  0
    9.0034   -1.0964   16.9777 O   0  0  0  0  0  0  0  0  0  0  0  0
    7.7104    0.8682   17.2414 C   0  0  2  0  0  0  0  0  0  0  0  0
    7.4944   -1.2693   26.6527 O   0  0  0  0  0  0  0  0  0  0  0  0
    9.2293    5.5063   15.4096 N   0  0  0  0  0  0  0  0  0  0  0  0
    8.9707    4.2372   14.7908 C   0  0  0  0  0  0  0  0  0  0  0  0
    8.5472    3.0356   15.4111 N   0  0  0  0  0  0  0  0  0  0  0  0
    8.3910    3.1934   16.6659 C   0  0  0  0  0  0  0  0  0  0  0  0
    8.6254    4.4591   17.3962 C   0  0  0  0  0  0  0  0  0  0  0  0
    9.0401    5.5697   16.7729 C   0  0  0  0  0  0  0  0  0  0  0  0
    9.2291    6.6208   17.5439 N   0  0  0  0  0  0  0  0  0  0  0  0
    8.4080    4.3701   18.6866 N   0  0  0  0  0  0  0  0  0  0  0  0
    8.0291    3.0426   18.7642 C   0  0  0  0  0  0  0  0  0  0  0  0
    8.0077    2.3007   17.5137 N   0  0  0  0  0  0  0  0  0  0  0  0
  2  1  1  1  0  0  0
  2  3  1  0  0  0  0
  2  5  1  0  0  0  0
  3  4  1  0  0  0  0
  3 17  1  0  0  0  0
  5  6  1  0  0  0  0
  7  6  1  1  0  0  0
  7  8  1  0  0  0  0
  7  9  1  0  0  0  0
 10  9  1  1  0  0  0
 10 11  1  0  0  0  0
 10 12  1  0  0  0  0
 11 16  1  0  0  0  0
 12 13  1  6  0  0  0
 12 14  1  0  0  0  0
 14 15  1  6  0  0  0
 14 16  1  0  0  0  0
 16 27  1  1  0  0  0
 18 19  2  0  0  0  0
 18 23  1  0  0  0  0
 19 20  1  0  0  0  0
 20 21  2  0  0  0  0
 21 22  1  0  0  0  0
 21 27  1  0  0  0  0
 22 23  2  0  0  0  0
 22 25  1  0  0  0  0
 23 24  1  0  0  0  0
 25 26  2  0  0  0  0
 26 27  1  0  0  0  0
M  END
>  <CHROM.1>
-110.60507233,-173.47296709,56.21806933,-88.05961649,-102.85252782,170.00680643
-162.74626802,8.12042927,0.78563195,20.08095541,-2.47997035,1.38669176,-0.04164892

>  <Name>
ligand

>  <RI>
0

>  <Rbt.Current_Directory>
/home/itssahil/PROJECTS/Mol_Feturizer/Test_systems_manuscript/rnas/4aob

>  <Rbt.Executable>
rbdock ($Id: //depot/dev/client3/rdock/2013.1/src/exe/rbdock.cxx#4 $)

>  <Rbt.Library>
libRbt.so (2013.1, Build901 2013/11/27)

>  <Rbt.Parameter_File>
/export/apps/rDock/src/rDock_2013.1_src/data/scripts/dock_solv.prm

>  <Rbt.Receptor>
prm/blind_docking_80.prm

>  <SCORE>
-12.5154

>  <SCORE.INTER>
-12.1261

>  <SCORE.INTER.CONST>
1

>  <SCORE.INTER.POLAR>
0

>  <SCORE.INTER.ROT>
7

>  <SCORE.INTER.SOLV>
8.39834

>  <SCORE.INTER.VDW>
-19.1502

>  <SCORE.INTER.norm>
-0.449114

>  <SCORE.INTRA>
-0.389355

>  <SCORE.INTRA.DIHEDRAL>
1.02373

>  <SCORE.INTRA.DIHEDRAL.0>
6.31833

>  <SCORE.INTRA.POLAR>
0

>  <SCORE.INTRA.POLAR.0>
0

>  <SCORE.INTRA.REPUL>
0

>  <SCORE.INTRA.REPUL.0>
0

>  <SCORE.INTRA.SOLV>
-0.640656

>  <SCORE.INTRA.SOLV.lig_0>
-48.4015

>  <SCORE.INTRA.VDW>
-0.580893

>  <SCORE.INTRA.VDW.0>
-2.83256

>  <SCORE.INTRA.norm>
-0.0144205

>  <SCORE.RESTR>
0

>  <SCORE.RESTR.CAVITY>
0

>  <SCORE.RESTR.norm>
0

>  <SCORE.SYSTEM>
0

>  <SCORE.SYSTEM.CONST>
0

>  <SCORE.SYSTEM.DIHEDRAL>
0

>  <SCORE.SYSTEM.SOLV>
0

>  <SCORE.SYSTEM.norm>
0

>  <SCORE.heavy>
27

>  <SCORE.norm>
-0.463534

>  <RMSD>
15.274

$$$$
ligand
 OpenBabel02271912153D
libRbt.so/2013.1/901 2013/11/27
 27 29  0  0  0  0  0  0  0  0999 V2000
    9.3358   -2.6915   15.7711 N   0  0  0  0  0  0  0  0  0  0  0  0
    9.6734   -1.3162   16.2101 C   0  0  2  0  0  0  0  0  0  0  0  0
   10.7202   -1.4224   17.3116 C   0  0  0  0  0  0  0  0  0  0  0  0
   10.5885   -1.0362   18.5203 O   0  0  0  0  0  0  0  0  0  0  0  0
    8.3901   -0.6141   16.6594 C   0  0  0  0  0  0  0  0  0  0  0  0
    8.5745    0.8857   16.8487 C   0  0  0  0  0  0  0  0  0  0  0  0
    7.3228    1.9608   17.6449 S   0  0  2  0  0  0  0  0  0  0  0  0
    8.0934    3.5490   17.3378 C   0  0  0  0  0  0  0  0  0  0  0  0
    7.7445    1.6063   19.3806 C   0  0  0  0  0  0  0  0  0  0  0  0
    6.5186    1.2966   20.1951 C   0  0  1  0  0  0  0  0  0  0  0  0
    5.6530    0.3313   19.5504 O   0  0  0  0  0  0  0  0  0  0  0  0
    6.8108    0.7692   21.5813 C   0  0  1  0  0  0  0  0  0  0  0  0
    6.7145    1.8058   22.4580 O   0  0  0  0  0  0  0  0  0  0  0  0
    5.6015   -0.1110   21.7942 C   0  0  1  0  0  0  0  0  0  0  0  0
    4.6127    0.7213   22.2127 O   0  0  0  0  0  0  0  0  0  0  0  0
    5.2233   -0.6880   20.4121 C   0  0  2  0  0  0  0  0  0  0  0  0
   11.8146   -1.8771   16.9739 O   0  0  0  0  0  0  0  0  0  0  0  0
    7.0422   -4.5124   17.3723 N   0  0  0  0  0  0  0  0  0  0  0  0
    6.0444   -3.4966   17.1902 C   0  0  0  0  0  0  0  0  0  0  0  0
    5.6438   -2.4942   18.1081 N   0  0  0  0  0  0  0  0  0  0  0  0
    6.3073   -2.5696   19.1934 C   0  0  0  0  0  0  0  0  0  0  0  0
    7.3574   -3.5735   19.4763 C   0  0  0  0  0  0  0  0  0  0  0  0
    7.6959   -4.5143   18.5852 C   0  0  0  0  0  0  0  0  0  0  0  0
    8.6312   -5.3573   18.9718 N   0  0  0  0  0  0  0  0  0  0  0  0
    7.8901   -3.4558   20.6691 N   0  0  0  0  0  0  0  0  0  0  0  0
    7.1739   -2.3681   21.1337 C   0  0  0  0  0  0  0  0  0  0  0  0
    6.1908   -1.8028   20.2235 N   0  0  0  0  0  0  0  0  0  0  0  0
  2  1  1  1  0  0  0
  2  3  1  0  0  0  0
  2  5  1  0  0  0  0
  3  4  1  0  0  0  0
  3 17  1  0  0  0  0
  5  6  1  0  0  0  0
  7  6  1  6  0  0  0
  7  8  1  0  0  0  0
  7  9  1  0  0  0  0
 10  9  1  6  0  0  0
 10 11  1  0  0  0  0
 10 12  1  0  0  0  0
 11 16  1  0  0  0  0
 12 13  1  1  0  0  0
 12 14  1  0  0  0  0
 14 15  1  6  0  0  0
 14 16  1  0  0  0  0
 16 27  1  6  0  0  0
 18 19  2  0  0  0  0
 18 23  1  0  0  0  0
 19 20  1  0  0  0  0
 20 21  2  0  0  0  0
 21 22  1  0  0  0  0
 21 27  1  0  0  0  0
 22 23  2  0  0  0  0
 22 25  1  0  0  0  0
 23 24  1  0  0  0  0
 25 26  2  0  0  0  0
 26 27  1  0  0  0  0
M  END
>  <CHROM.1>
-117.71070030,-167.82361233,-169.34590227,-173.27558434,-132.27500242,48.07524102
-71.10971182,7.54205383,-0.91969266,18.90578855,-0.75638976,0.85142798,-0.00169242

>  <Name>
ligand

>  <RI>
0

>  <Rbt.Current_Directory>
/home/itssahil/PROJECTS/Mol_Feturizer/Test_systems_manuscript/rnas/4aob

>  <Rbt.Executable>
rbdock ($Id: //depot/dev/client3/rdock/2013.1/src/exe/rbdock.cxx#4 $)

>  <Rbt.Library>
libRbt.so (2013.1, Build901 2013/11/27)

>  <Rbt.Parameter_File>
/export/apps/rDock/src/rDock_2013.1_src/data/scripts/dock_solv.prm

>  <Rbt.Receptor>
prm/blind_docking_40.prm

>  <SCORE>
-11.8487

>  <SCORE.INTER>
-12.2439

>  <SCORE.INTER.CONST>
1

>  <SCORE.INTER.POLAR>
0

>  <SCORE.INTER.ROT>
7

>  <SCORE.INTER.SOLV>
8.39842

>  <SCORE.INTER.VDW>
-19.2287

>  <SCORE.INTER.norm>
-0.453476

>  <SCORE.INTRA>
0.395167

>  <SCORE.INTRA.DIHEDRAL>
3.15083

>  <SCORE.INTRA.DIHEDRAL.0>
6.31833

>  <SCORE.INTRA.POLAR>
0

>  <SCORE.INTRA.POLAR.0>
0

>  <SCORE.INTRA.REPUL>
0

>  <SCORE.INTRA.REPUL.0>
0

>  <SCORE.INTRA.SOLV>
0.319715

>  <SCORE.INTRA.SOLV.lig_0>
-48.4015

>  <SCORE.INTRA.VDW>
-1.3401

>  <SCORE.INTRA.VDW.0>
-2.83256

>  <SCORE.INTRA.norm>
0.0146358

>  <SCORE.RESTR>
0

>  <SCORE.RESTR.CAVITY>
0

>  <SCORE.RESTR.norm>
0

>  <SCORE.SYSTEM>
0

>  <SCORE.SYSTEM.CONST>
0

>  <SCORE.SYSTEM.DIHEDRAL>
0

>  <SCORE.SYSTEM.SOLV>
0

>  <SCORE.SYSTEM.norm>
0

>  <SCORE.heavy>
27

>  <SCORE.norm>
-0.43884

>  <RMSD>
15.275

$$$$
ligand
 OpenBabel02271912153D
libRbt.so/2013.1/901 2013/11/27
 27 29  0  0  0  0  0  0  0  0999 V2000
    9.7069   -2.7479   15.6237 N   0  0  0  0  0  0  0  0  0  0  0  0
    9.4901   -3.2326   17.0080 C   0  0  2  0  0  0  0  0  0  0  0  0
   10.5543   -2.5999   17.8953 C   0  0  0  0  0  0  0  0  0  0  0  0
   11.7468   -2.3032   17.5524 O   0  0  0  0  0  0  0  0  0  0  0  0
    9.5337   -4.7622   17.0062 C   0  0  0  0  0  0  0  0  0  0  0  0
    8.7038   -5.3765   18.1257 C   0  0  0  0  0  0  0  0  0  0  0  0
    8.8683   -4.8890   19.8840 S   0  0  2  0  0  0  0  0  0  0  0  0
    8.1078   -6.3261   20.6370 C   0  0  0  0  0  0  0  0  0  0  0  0
    7.5511   -3.6323   19.9279 C   0  0  0  0  0  0  0  0  0  0  0  0
    7.3922   -3.0459   21.3037 C   0  0  1  0  0  0  0  0  0  0  0  0
    8.3779   -2.0241   21.5889 O   0  0  0  0  0  0  0  0  0  0  0  0
    6.0351   -2.4336   21.5651 C   0  0  1  0  0  0  0  0  0  0  0  0
    5.2814   -3.3454   22.2381 O   0  0  0  0  0  0  0  0  0  0  0  0
    6.4136   -1.3517   22.5493 C   0  0  1  0  0  0  0  0  0  0  0  0
    6.4787   -1.9650   23.7597 O   0  0  0  0  0  0  0  0  0  0  0  0
    7.8255   -0.8657   22.1538 C   0  0  2  0  0  0  0  0  0  0  0  0
   10.2354   -2.4131   19.0709 O   0  0  0  0  0  0  0  0  0  0  0  0
    9.6326    1.4779   17.8623 N   0  0  0  0  0  0  0  0  0  0  0  0
   10.1903    0.5174   18.7717 C   0  0  0  0  0  0  0  0  0  0  0  0
    9.5806   -0.0562   19.9151 N   0  0  0  0  0  0  0  0  0  0  0  0
    8.3938    0.3797   20.0737 C   0  0  0  0  0  0  0  0  0  0  0  0
    7.7276    1.3635   19.1912 C   0  0  0  0  0  0  0  0  0  0  0  0
    8.3458    1.8929   18.1274 C   0  0  0  0  0  0  0  0  0  0  0  0
    7.6463    2.7711   17.4387 N   0  0  0  0  0  0  0  0  0  0  0  0
    6.5079    1.6661   19.5668 N   0  0  0  0  0  0  0  0  0  0  0  0
    6.4072    0.8625   20.6875 C   0  0  0  0  0  0  0  0  0  0  0  0
    7.5706    0.0520   21.0104 N   0  0  0  0  0  0  0  0  0  0  0  0
  2  1  1  6  0  0  0
  2  3  1  0  0  0  0
  2  5  1  0  0  0  0
  3  4  1  0  0  0  0
  3 17  1  0  0  0  0
  5  6  1  0  0  0  0
  7  6  1  6  0  0  0
  7  8  1  0  0  0  0
  7  9  1  0  0  0  0
 10  9  1  6  0  0  0
 10 11  1  0  0  0  0
 10 12  1  0  0  0  0
 11 16  1  0  0  0  0
 12 13  1  1  0  0  0
 12 14  1  0  0  0  0
 14 15  1  1  0  0  0
 14 16  1  0  0  0  0
 16 27  1  6  0  0  0
 18 19  2  0  0  0  0
 18 23  1  0  0  0  0
 19 20  1  0  0  0  0
 20 21  2  0  0  0  0
 21 22  1  0  0  0  0
 21 27  1  0  0  0  0
 22 23  2  0  0  0  0
 22 25  1  0  0  0  0
 23 24  1  0  0  0  0
 25 26  2  0  0  0  0
 26 27  1  0  0  0  0
M  END
>  <CHROM.1>
-32.69512471,-152.35373173,-51.75988452,-160.86003564,178.09736386,80.51633135
-49.68253685,8.33804771,-1.81055239,19.69320152,-1.29760335,0.94434339,-0.18104970

>  <Name>
ligand

>  <RI>
0

>  <Rbt.Current_Directory>
/home/itssahil/PROJECTS/Mol_Feturizer/Test_systems_manuscript/rnas/4aob

>  <Rbt.Executable>
rbdock ($Id: //depot/dev/client3/rdock/2013.1/src/exe/rbdock.cxx#4 $)

>  <Rbt.Library>
libRbt.so (2013.1, Build901 2013/11/27)

>  <Rbt.Parameter_File>
/export/apps/rDock/src/rDock_2013.1_src/data/scripts/dock_solv.prm

>  <Rbt.Receptor>
prm/blind_docking_40.prm

>  <SCORE>
-12.8492

>  <SCORE.INTER>
-12.2845

>  <SCORE.INTER.CONST>
1

>  <SCORE.INTER.POLAR>
0

>  <SCORE.INTER.ROT>
7

>  <SCORE.INTER.SOLV>
6.40026

>  <SCORE.INTER.VDW>
-18.5898

>  <SCORE.INTER.norm>
-0.454983

>  <SCORE.INTRA>
-0.564713

>  <SCORE.INTRA.DIHEDRAL>
2.78906

>  <SCORE.INTRA.DIHEDRAL.0>
6.31833

>  <SCORE.INTRA.POLAR>
0

>  <SCORE.INTRA.POLAR.0>
0

>  <SCORE.INTRA.REPUL>
0

>  <SCORE.INTRA.REPUL.0>
0

>  <SCORE.INTRA.SOLV>
-0.566225

>  <SCORE.INTRA.SOLV.lig_0>
-48.4015

>  <SCORE.INTRA.VDW>
-1.67613

>  <SCORE.INTRA.VDW.0>
-2.83256

>  <SCORE.INTRA.norm>
-0.0209153

>  <SCORE.RESTR>
0

>  <SCORE.RESTR.CAVITY>
0

>  <SCORE.RESTR.norm>
0

>  <SCORE.SYSTEM>
0

>  <SCORE.SYSTEM.CONST>
0

>  <SCORE.SYSTEM.DIHEDRAL>
0

>  <SCORE.SYSTEM.SOLV>
0

>  <SCORE.SYSTEM.norm>
0

>  <SCORE.heavy>
27

>  <SCORE.norm>
-0.475898

>  <RMSD>
15.310

$$$$
ligand
 OpenBabel02271912153D
libRbt.so/2013.1/901 2013/11/27
 27 29  0  0  0  0  0  0  0  0999 V2000
    7.9775   -3.0337   25.3469 N   0  0  0  0  0  0  0  0  0  0  0  0
    7.1986   -2.2119   24.3895 C   0  0  2  0  0  0  0  0  0  0  0  0
    5.9052   -1.7953   25.0778 C   0  0  0  0  0  0  0  0  0  0  0  0
    5.2468   -0.7233   24.8661 O   0  0  0  0  0  0  0  0  0  0  0  0
    6.9713   -3.0258   23.1138 C   0  0  0  0  0  0  0  0  0  0  0  0
    6.0744   -2.3116   22.1115 C   0  0  0  0  0  0  0  0  0  0  0  0
    6.3449   -0.5814   21.5734 S   0  0  2  0  0  0  0  0  0  0  0  0
    4.9685   -0.4319   20.4359 C   0  0  0  0  0  0  0  0  0  0  0  0
    7.7747   -0.8705   20.4832 C   0  0  0  0  0  0  0  0  0  0  0  0
    8.3385    0.4205   19.9568 C   0  0  1  0  0  0  0  0  0  0  0  0
    9.7120    0.2883   19.5175 O   0  0  0  0  0  0  0  0  0  0  0  0
    7.5622    1.0126   18.8028 C   0  0  1  0  0  0  0  0  0  0  0  0
    6.7334    1.9722   19.2976 O   0  0  0  0  0  0  0  0  0  0  0  0
    8.6751    1.7194   18.0649 C   0  0  1  0  0  0  0  0  0  0  0  0
    8.8339    2.9111   18.6974 O   0  0  0  0  0  0  0  0  0  0  0  0
    9.9495    0.8694   18.2637 C   0  0  2  0  0  0  0  0  0  0  0  0
    5.4969   -2.5506   25.9617 O   0  0  0  0  0  0  0  0  0  0  0  0
   11.1655   -3.9863   16.8081 N   0  0  0  0  0  0  0  0  0  0  0  0
   11.4850   -3.1919   17.9602 C   0  0  0  0  0  0  0  0  0  0  0  0
   11.0768   -1.8649   18.2440 N   0  0  0  0  0  0  0  0  0  0  0  0
   10.3311   -1.4031   17.3197 C   0  0  0  0  0  0  0  0  0  0  0  0
    9.9399   -2.1417   16.0983 C   0  0  0  0  0  0  0  0  0  0  0  0
   10.3603   -3.3912   15.8614 C   0  0  0  0  0  0  0  0  0  0  0  0
    9.9547   -3.9252   14.7278 N   0  0  0  0  0  0  0  0  0  0  0  0
    9.1750   -1.4504   15.2875 N   0  0  0  0  0  0  0  0  0  0  0  0
    9.0813   -0.2741   16.0082 C   0  0  0  0  0  0  0  0  0  0  0  0
    9.7902   -0.2334   17.2773 N   0  0  0  0  0  0  0  0  0  0  0  0
  2  1  1  1  0  0  0
  2  3  1  0  0  0  0
  2  5  1  0  0  0  0
  3  4  1  0  0  0  0
  3 17  1  0  0  0  0
  5  6  1  0  0  0  0
  7  6  1  1  0  0  0
  7  8  1  0  0  0  0
  7  9  1  0  0  0  0
 10  9  1  6  0  0  0
 10 11  1  0  0  0  0
 10 12  1  0  0  0  0
 11 16  1  0  0  0  0
 12 13  1  1  0  0  0
 12 14  1  0  0  0  0
 14 15  1  1  0  0  0
 14 16  1  0  0  0  0
 16 27  1  6  0  0  0
 18 19  2  0  0  0  0
 18 23  1  0  0  0  0
 19 20  1  0  0  0  0
 20 21  2  0  0  0  0
 21 22  1  0  0  0  0
 21 27  1  0  0  0  0
 22 23  2  0  0  0  0
 22 25  1  0  0  0  0
 23 24  1  0  0  0  0
 25 26  2  0  0  0  0
 26 27  1  0  0  0  0
M  END
>  <CHROM.1>
149.80699912,175.00649043,50.34693889,179.80001792,-174.77827020,158.63198625
-49.68012265,8.20733352,-1.04462287,19.87470624,-2.57401603,0.99902395,-0.62856422

>  <Name>
ligand

>  <RI>
0

>  <Rbt.Current_Directory>
/home/itssahil/PROJECTS/Mol_Feturizer/Test_systems_manuscript/rnas/4aob

>  <Rbt.Executable>
rbdock ($Id: //depot/dev/client3/rdock/2013.1/src/exe/rbdock.cxx#4 $)

>  <Rbt.Library>
libRbt.so (2013.1, Build901 2013/11/27)

>  <Rbt.Parameter_File>
/export/apps/rDock/src/rDock_2013.1_src/data/scripts/dock_solv.prm

>  <Rbt.Receptor>
prm/blind_docking_100.prm

>  <SCORE>
-10.2941

>  <SCORE.INTER>
-9.87154

>  <SCORE.INTER.CONST>
1

>  <SCORE.INTER.POLAR>
0

>  <SCORE.INTER.ROT>
7

>  <SCORE.INTER.SOLV>
10.5453

>  <SCORE.INTER.VDW>
-18.3628

>  <SCORE.INTER.norm>
-0.365613

>  <SCORE.INTRA>
-0.422533

>  <SCORE.INTRA.DIHEDRAL>
-0.463246

>  <SCORE.INTRA.DIHEDRAL.0>
6.31833

>  <SCORE.INTRA.POLAR>
0

>  <SCORE.INTRA.POLAR.0>
0

>  <SCORE.INTRA.REPUL>
0

>  <SCORE.INTRA.REPUL.0>
0

>  <SCORE.INTRA.SOLV>
-0.343684

>  <SCORE.INTRA.SOLV.lig_0>
-48.4015

>  <SCORE.INTRA.VDW>
-0.019068

>  <SCORE.INTRA.VDW.0>
-2.83256

>  <SCORE.INTRA.norm>
-0.0156494

>  <SCORE.RESTR>
0

>  <SCORE.RESTR.CAVITY>
0

>  <SCORE.RESTR.norm>
0

>  <SCORE.SYSTEM>
0

>  <SCORE.SYSTEM.CONST>
0

>  <SCORE.SYSTEM.DIHEDRAL>
0

>  <SCORE.SYSTEM.SOLV>
0

>  <SCORE.SYSTEM.norm>
0

>  <SCORE.heavy>
27

>  <SCORE.norm>
-0.381262

>  <RMSD>
15.319

$$$$
ligand
 OpenBabel02271912153D
libRbt.so/2013.1/901 2013/11/27
 27 29  0  0  0  0  0  0  0  0999 V2000
    7.1001   -4.3163   25.6889 N   0  0  0  0  0  0  0  0  0  0  0  0
    7.1936   -3.9840   24.2470 C   0  0  2  0  0  0  0  0  0  0  0  0
    8.1009   -5.0156   23.5890 C   0  0  0  0  0  0  0  0  0  0  0  0
    9.1498   -5.5344   24.0971 O   0  0  0  0  0  0  0  0  0  0  0  0
    7.7050   -2.5488   24.1048 C   0  0  0  0  0  0  0  0  0  0  0  0
    7.6557   -2.0454   22.6684 C   0  0  0  0  0  0  0  0  0  0  0  0
    8.4250   -0.4737   22.1261 S   0  0  2  0  0  0  0  0  0  0  0  0
    7.4155    0.6642   23.0730 C   0  0  0  0  0  0  0  0  0  0  0  0
    7.7064   -0.3977   20.4545 C   0  0  0  0  0  0  0  0  0  0  0  0
    8.2103    0.7953   19.6899 C   0  0  1  0  0  0  0  0  0  0  0  0
    9.5636    0.6144   19.2074 O   0  0  0  0  0  0  0  0  0  0  0  0
    7.3635    1.1703   18.4952 C   0  0  1  0  0  0  0  0  0  0  0  0
    6.5354    2.1853   18.8646 O   0  0  0  0  0  0  0  0  0  0  0  0
    8.4204    1.7612   17.5917 C   0  0  1  0  0  0  0  0  0  0  0  0
    8.5791    3.0453   18.0058 O   0  0  0  0  0  0  0  0  0  0  0  0
    9.7245    0.9792   17.8631 C   0  0  2  0  0  0  0  0  0  0  0  0
    7.8123   -5.3286   22.4326 O   0  0  0  0  0  0  0  0  0  0  0  0
   11.3372   -3.8728   16.8470 N   0  0  0  0  0  0  0  0  0  0  0  0
   11.7470   -2.8742   17.7932 C   0  0  0  0  0  0  0  0  0  0  0  0
   11.2114   -1.5751   17.9760 N   0  0  0  0  0  0  0  0  0  0  0  0
   10.2483   -1.3549   17.1712 C   0  0  0  0  0  0  0  0  0  0  0  0
    9.7479   -2.3181   16.1650 C   0  0  0  0  0  0  0  0  0  0  0  0
   10.2929   -3.5323   16.0151 C   0  0  0  0  0  0  0  0  0  0  0  0
    9.7652   -4.2826   15.0698 N   0  0  0  0  0  0  0  0  0  0  0  0
    8.7540   -1.8571   15.4439 N   0  0  0  0  0  0  0  0  0  0  0  0
    8.6270   -0.6000   16.0058 C   0  0  0  0  0  0  0  0  0  0  0  0
    9.5457   -0.2770   17.0857 N   0  0  0  0  0  0  0  0  0  0  0  0
  2  1  1  1  0  0  0
  2  3  1  0  0  0  0
  2  5  1  0  0  0  0
  3  4  1  0  0  0  0
  3 17  1  0  0  0  0
  5  6  1  0  0  0  0
  7  6  1  1  0  0  0
  7  8  1  0  0  0  0
  7  9  1  0  0  0  0
 10  9  1  6  0  0  0
 10 11  1  0  0  0  0
 10 12  1  0  0  0  0
 11 16  1  0  0  0  0
 12 13  1  1  0  0  0
 12 14  1  0  0  0  0
 14 15  1  1  0  0  0
 14 16  1  0  0  0  0
 16 27  1  6  0  0  0
 18 19  2  0  0  0  0
 18 23  1  0  0  0  0
 19 20  1  0  0  0  0
 20 21  2  0  0  0  0
 21 22  1  0  0  0  0
 21 27  1  0  0  0  0
 22 23  2  0  0  0  0
 22 25  1  0  0  0  0
 23 24  1  0  0  0  0
 25 26  2  0  0  0  0
 26 27  1  0  0  0  0
M  END
>  <CHROM.1>
-37.50833355,-172.13574974,-170.49336356,-64.64419787,-177.36772438,75.91397078
-60.25657721,8.75622489,-1.43775134,19.75448445,-2.10443747,1.15375710,-0.68277612

>  <Name>
ligand

>  <RI>
0

>  <Rbt.Current_Directory>
/home/itssahil/PROJECTS/Mol_Feturizer/Test_systems_manuscript/rnas/4aob

>  <Rbt.Executable>
rbdock ($Id: //depot/dev/client3/rdock/2013.1/src/exe/rbdock.cxx#4 $)

>  <Rbt.Library>
libRbt.so (2013.1, Build901 2013/11/27)

>  <Rbt.Parameter_File>
/export/apps/rDock/src/rDock_2013.1_src/data/scripts/dock_solv.prm

>  <Rbt.Receptor>
prm/blind_docking_80.prm

>  <SCORE>
-12.9495

>  <SCORE.INTER>
-12.2287

>  <SCORE.INTER.CONST>
1

>  <SCORE.INTER.POLAR>
0

>  <SCORE.INTER.ROT>
7

>  <SCORE.INTER.SOLV>
8.39004

>  <SCORE.INTER.VDW>
-19.2158

>  <SCORE.INTER.norm>
-0.452913

>  <SCORE.INTRA>
-0.720881

>  <SCORE.INTRA.DIHEDRAL>
-1.46505

>  <SCORE.INTRA.DIHEDRAL.0>
6.31833

>  <SCORE.INTRA.POLAR>
0

>  <SCORE.INTRA.POLAR.0>
0

>  <SCORE.INTRA.REPUL>
0

>  <SCORE.INTRA.REPUL.0>
0

>  <SCORE.INTRA.SOLV>
-0.835927

>  <SCORE.INTRA.SOLV.lig_0>
-48.4015

>  <SCORE.INTRA.VDW>
0.429605

>  <SCORE.INTRA.VDW.0>
-2.83256

>  <SCORE.INTRA.norm>
-0.0266993

>  <SCORE.RESTR>
0

>  <SCORE.RESTR.CAVITY>
0

>  <SCORE.RESTR.norm>
0

>  <SCORE.SYSTEM>
0

>  <SCORE.SYSTEM.CONST>
0

>  <SCORE.SYSTEM.DIHEDRAL>
0

>  <SCORE.SYSTEM.SOLV>
0

>  <SCORE.SYSTEM.norm>
0

>  <SCORE.heavy>
27

>  <SCORE.norm>
-0.479613

>  <RMSD>
15.361

$$$$
ligand
 OpenBabel02271912153D
libRbt.so/2013.1/901 2013/11/27
 27 29  0  0  0  0  0  0  0  0999 V2000
    5.8779    5.4667   20.2278 N   0  0  0  0  0  0  0  0  0  0  0  0
    6.7808    6.1776   19.2910 C   0  0  2  0  0  0  0  0  0  0  0  0
    6.1062    7.4847   18.8952 C   0  0  0  0  0  0  0  0  0  0  0  0
    4.8932    7.8088   19.1212 O   0  0  0  0  0  0  0  0  0  0  0  0
    7.0741    5.2623   18.1003 C   0  0  0  0  0  0  0  0  0  0  0  0
    7.8217    3.9971   18.5000 C   0  0  0  0  0  0  0  0  0  0  0  0
    8.3957    2.7439   17.2932 S   0  0  2  0  0  0  0  0  0  0  0  0
    6.8024    2.0817   16.8102 C   0  0  0  0  0  0  0  0  0  0  0  0
    9.0307    1.5159   18.4786 C   0  0  0  0  0  0  0  0  0  0  0  0
    9.8582    0.4631   17.7938 C   0  0  1  0  0  0  0  0  0  0  0  0
   10.6283   -0.3320   18.7275 O   0  0  0  0  0  0  0  0  0  0  0  0
    9.0593   -0.5021   16.9481 C   0  0  1  0  0  0  0  0  0  0  0  0
    9.1302   -0.0896   15.6530 O   0  0  0  0  0  0  0  0  0  0  0  0
    9.9165   -1.7401   17.0712 C   0  0  1  0  0  0  0  0  0  0  0  0
   10.9029   -1.5950   16.1484 O   0  0  0  0  0  0  0  0  0  0  0  0
   10.5398   -1.7101   18.4842 C   0  0  2  0  0  0  0  0  0  0  0  0
    6.7959    8.2728   18.2459 O   0  0  0  0  0  0  0  0  0  0  0  0
    8.0407   -5.7552   20.6211 N   0  0  0  0  0  0  0  0  0  0  0  0
    9.2102   -5.6411   19.7965 C   0  0  0  0  0  0  0  0  0  0  0  0
    9.8008   -4.4609   19.2806 N   0  0  0  0  0  0  0  0  0  0  0  0
    9.1602   -3.4235   19.6510 C   0  0  0  0  0  0  0  0  0  0  0  0
    7.9499   -3.4344   20.5028 C   0  0  0  0  0  0  0  0  0  0  0  0
    7.4148   -4.5748   20.9580 C   0  0  0  0  0  0  0  0  0  0  0  0
    6.3269   -4.4436   21.6889 N   0  0  0  0  0  0  0  0  0  0  0  0
    7.4618   -2.2401   20.7389 N   0  0  0  0  0  0  0  0  0  0  0  0
    8.3753   -1.4762   20.0361 C   0  0  0  0  0  0  0  0  0  0  0  0
    9.4408   -2.1991   19.3602 N   0  0  0  0  0  0  0  0  0  0  0  0
  2  1  1  1  0  0  0
  2  3  1  0  0  0  0
  2  5  1  0  0  0  0
  3  4  1  0  0  0  0
  3 17  1  0  0  0  0
  5  6  1  0  0  0  0
  7  6  1  1  0  0  0
  7  8  1  0  0  0  0
  7  9  1  0  0  0  0
 10  9  1  1  0  0  0
 10 11  1  0  0  0  0
 10 12  1  0  0  0  0
 11 16  1  0  0  0  0
 12 13  1  6  0  0  0
 12 14  1  0  0  0  0
 14 15  1  6  0  0  0
 14 16  1  0  0  0  0
 16 27  1  1  0  0  0
 18 19  2  0  0  0  0
 18 23  1  0  0  0  0
 19 20  1  0  0  0  0
 20 21  2  0  0  0  0
 21 22  1  0  0  0  0
 21 27  1  0  0  0  0
 22 23  2  0  0  0  0
 22 25  1  0  0  0  0
 23 24  1  0  0  0  0
 25 26  2  0  0  0  0
 26 27  1  0  0  0  0
M  END
>  <CHROM.1>
-11.71166977,-63.50404046,-176.68412850,-69.91699839,-167.56504544,166.28504251
-166.60411355,8.25428488,0.52922924,18.69858415,1.90012601,0.83681109,-0.35560675

>  <Name>
ligand

>  <RI>
0

>  <Rbt.Current_Directory>
/home/itssahil/PROJECTS/Mol_Feturizer/Test_systems_manuscript/rnas/4aob

>  <Rbt.Executable>
rbdock ($Id: //depot/dev/client3/rdock/2013.1/src/exe/rbdock.cxx#4 $)

>  <Rbt.Library>
libRbt.so (2013.1, Build901 2013/11/27)

>  <Rbt.Parameter_File>
/export/apps/rDock/src/rDock_2013.1_src/data/scripts/dock_solv.prm

>  <Rbt.Receptor>
prm/blind_docking_40.prm

>  <SCORE>
-13.4879

>  <SCORE.INTER>
-12.9616

>  <SCORE.INTER.CONST>
1

>  <SCORE.INTER.POLAR>
0

>  <SCORE.INTER.ROT>
7

>  <SCORE.INTER.SOLV>
10.884

>  <SCORE.INTER.VDW>
-20.5357

>  <SCORE.INTER.norm>
-0.480059

>  <SCORE.INTRA>
-0.554637

>  <SCORE.INTRA.DIHEDRAL>
-1.33281

>  <SCORE.INTRA.DIHEDRAL.0>
6.31833

>  <SCORE.INTRA.POLAR>
0

>  <SCORE.INTRA.POLAR.0>
0

>  <SCORE.INTRA.REPUL>
0

>  <SCORE.INTRA.REPUL.0>
0

>  <SCORE.INTRA.SOLV>
0.108242

>  <SCORE.INTRA.SOLV.lig_0>
-48.4015

>  <SCORE.INTRA.VDW>
0.0576473

>  <SCORE.INTRA.VDW.0>
-2.83256

>  <SCORE.INTRA.norm>
-0.0205421

>  <SCORE.RESTR>
0.028304

>  <SCORE.RESTR.CAVITY>
0.028304

>  <SCORE.RESTR.norm>
0.0010483

>  <SCORE.SYSTEM>
0

>  <SCORE.SYSTEM.CONST>
0

>  <SCORE.SYSTEM.DIHEDRAL>
0

>  <SCORE.SYSTEM.SOLV>
0

>  <SCORE.SYSTEM.norm>
0

>  <SCORE.heavy>
27

>  <SCORE.norm>
-0.499553

>  <RMSD>
15.378

$$$$
ligand
 OpenBabel02271912153D
libRbt.so/2013.1/901 2013/11/27
 27 29  0  0  0  0  0  0  0  0999 V2000
    8.7527    3.4773   17.1443 N   0  0  0  0  0  0  0  0  0  0  0  0
    7.6746    2.4643   17.0453 C   0  0  2  0  0  0  0  0  0  0  0  0
    6.3415    3.1871   17.1889 C   0  0  0  0  0  0  0  0  0  0  0  0
    5.4847    3.3851   16.2646 O   0  0  0  0  0  0  0  0  0  0  0  0
    7.9032    1.3961   18.1168 C   0  0  0  0  0  0  0  0  0  0  0  0
    9.1557    0.5673   17.8646 C   0  0  0  0  0  0  0  0  0  0  0  0
    9.5947   -0.9166   18.8453 S   0  0  2  0  0  0  0  0  0  0  0  0
   10.8155   -1.6220   17.7395 C   0  0  0  0  0  0  0  0  0  0  0  0
    8.0965   -1.8975   18.5143 C   0  0  0  0  0  0  0  0  0  0  0  0
    8.2793   -3.3367   18.9108 C   0  0  1  0  0  0  0  0  0  0  0  0
    8.7730   -3.4812   20.2644 O   0  0  0  0  0  0  0  0  0  0  0  0
    7.0245   -4.1734   18.8082 C   0  0  1  0  0  0  0  0  0  0  0  0
    7.0613   -4.8492   17.6274 O   0  0  0  0  0  0  0  0  0  0  0  0
    7.2810   -5.1779   19.9071 C   0  0  1  0  0  0  0  0  0  0  0  0
    8.0780   -6.1290   19.3543 O   0  0  0  0  0  0  0  0  0  0  0  0
    8.0697   -4.4380   21.0101 C   0  0  2  0  0  0  0  0  0  0  0  0
    6.1064    3.6703   18.2978 O   0  0  0  0  0  0  0  0  0  0  0  0
    6.7565   -0.2033   23.7518 N   0  0  0  0  0  0  0  0  0  0  0  0
    7.9607   -0.6151   23.0878 C   0  0  0  0  0  0  0  0  0  0  0  0
    8.1886   -1.8076   22.3571 N   0  0  0  0  0  0  0  0  0  0  0  0
    7.1447   -2.5378   22.3269 C   0  0  0  0  0  0  0  0  0  0  0  0
    5.8564   -2.2012   22.9732 C   0  0  0  0  0  0  0  0  0  0  0  0
    5.6875   -1.0686   23.6679 C   0  0  0  0  0  0  0  0  0  0  0  0
    4.4980   -0.9019   24.2084 N   0  0  0  0  0  0  0  0  0  0  0  0
    4.9318   -3.1174   22.8123 N   0  0  0  0  0  0  0  0  0  0  0  0
    5.6430   -4.0304   22.0555 C   0  0  0  0  0  0  0  0  0  0  0  0
    7.0186   -3.6793   21.7407 N   0  0  0  0  0  0  0  0  0  0  0  0
  2  1  1  1  0  0  0
  2  3  1  0  0  0  0
  2  5  1  0  0  0  0
  3  4  1  0  0  0  0
  3 17  1  0  0  0  0
  5  6  1  0  0  0  0
  7  6  1  6  0  0  0
  7  8  1  0  0  0  0
  7  9  1  0  0  0  0
 10  9  1  1  0  0  0
 10 11  1  0  0  0  0
 10 12  1  0  0  0  0
 11 16  1  0  0  0  0
 12 13  1  6  0  0  0
 12 14  1  0  0  0  0
 14 15  1  6  0  0  0
 14 16  1  0  0  0  0
 16 27  1  1  0  0  0
 18 19  2  0  0  0  0
 18 23  1  0  0  0  0
 19 20  1  0  0  0  0
 20 21  2  0  0  0  0
 21 22  1  0  0  0  0
 21 27  1  0  0  0  0
 22 23  2  0  0  0  0
 22 25  1  0  0  0  0
 23 24  1  0  0  0  0
 25 26  2  0  0  0  0
 26 27  1  0  0  0  0
M  END
>  <CHROM.1>
108.98085114,-67.12057403,-172.26982629,163.86041491,165.98284500,51.25813345
-41.61328204,7.47091974,-1.37496302,19.91934710,-1.40535558,-1.05364472,2.69281672

>  <Name>
ligand

>  <RI>
0

>  <Rbt.Current_Directory>
/home/itssahil/PROJECTS/Mol_Feturizer/Test_systems_manuscript/rnas/4aob

>  <Rbt.Executable>
rbdock ($Id: //depot/dev/client3/rdock/2013.1/src/exe/rbdock.cxx#4 $)

>  <Rbt.Library>
libRbt.so (2013.1, Build901 2013/11/27)

>  <Rbt.Parameter_File>
/export/apps/rDock/src/rDock_2013.1_src/data/scripts/dock_solv.prm

>  <Rbt.Receptor>
prm/blind_docking_100.prm

>  <SCORE>
-12.3076

>  <SCORE.INTER>
-11.483

>  <SCORE.INTER.CONST>
1

>  <SCORE.INTER.POLAR>
0

>  <SCORE.INTER.ROT>
7

>  <SCORE.INTER.SOLV>
9.10972

>  <SCORE.INTER.VDW>
-18.9585

>  <SCORE.INTER.norm>
-0.425295

>  <SCORE.INTRA>
-0.824623

>  <SCORE.INTRA.DIHEDRAL>
-2.36323

>  <SCORE.INTRA.DIHEDRAL.0>
6.31833

>  <SCORE.INTRA.POLAR>
0

>  <SCORE.INTRA.POLAR.0>
0

>  <SCORE.INTRA.REPUL>
0

>  <SCORE.INTRA.REPUL.0>
0

>  <SCORE.INTRA.SOLV>
-0.0489938

>  <SCORE.INTRA.SOLV.lig_0>
-48.4015

>  <SCORE.INTRA.VDW>
0.381488

>  <SCORE.INTRA.VDW.0>
-2.83256

>  <SCORE.INTRA.norm>
-0.0305416

>  <SCORE.RESTR>
0

>  <SCORE.RESTR.CAVITY>
0

>  <SCORE.RESTR.norm>
0

>  <SCORE.SYSTEM>
0

>  <SCORE.SYSTEM.CONST>
0

>  <SCORE.SYSTEM.DIHEDRAL>
0

>  <SCORE.SYSTEM.SOLV>
0

>  <SCORE.SYSTEM.norm>
0

>  <SCORE.heavy>
27

>  <SCORE.norm>
-0.455836

>  <RMSD>
15.433

$$$$
ligand
 OpenBabel02271912153D
libRbt.so/2013.1/901 2013/11/27
 27 29  0  0  0  0  0  0  0  0999 V2000
    8.1137   16.3520   17.8396 N   0  0  0  0  0  0  0  0  0  0  0  0
    7.8675   15.0967   18.5892 C   0  0  2  0  0  0  0  0  0  0  0  0
    6.7829   14.3201   17.8539 C   0  0  0  0  0  0  0  0  0  0  0  0
    5.8613   14.8147   17.1235 O   0  0  0  0  0  0  0  0  0  0  0  0
    7.4893   15.4498   20.0294 C   0  0  0  0  0  0  0  0  0  0  0  0
    7.7807   14.3204   21.0086 C   0  0  0  0  0  0  0  0  0  0  0  0
    6.7453   12.8152   21.1455 S   0  0  2  0  0  0  0  0  0  0  0  0
    6.2962   12.9503   22.8748 C   0  0  0  0  0  0  0  0  0  0  0  0
    8.0836   11.5802   21.1436 C   0  0  0  0  0  0  0  0  0  0  0  0
    7.5745   10.2128   21.5082 C   0  0  1  0  0  0  0  0  0  0  0  0
    6.5003    9.7715   20.6431 O   0  0  0  0  0  0  0  0  0  0  0  0
    8.6299    9.1308   21.4865 C   0  0  1  0  0  0  0  0  0  0  0  0
    9.0630    8.9358   22.7620 O   0  0  0  0  0  0  0  0  0  0  0  0
    7.7827    7.9367   21.1139 C   0  0  1  0  0  0  0  0  0  0  0  0
    7.2258    7.5066   22.2760 O   0  0  0  0  0  0  0  0  0  0  0  0
    6.6661    8.4576   20.1823 C   0  0  2  0  0  0  0  0  0  0  0  0
    6.7743   13.1014   18.0362 O   0  0  0  0  0  0  0  0  0  0  0  0
    7.2875    6.6491   15.3328 N   0  0  0  0  0  0  0  0  0  0  0  0
    6.4210    6.2862   16.4182 C   0  0  0  0  0  0  0  0  0  0  0  0
    6.3442    6.8735   17.7055 N   0  0  0  0  0  0  0  0  0  0  0  0
    7.1688    7.8378   17.8235 C   0  0  0  0  0  0  0  0  0  0  0  0
    8.0982    8.2921   16.7650 C   0  0  0  0  0  0  0  0  0  0  0  0
    8.1490    7.6990   15.5652 C   0  0  0  0  0  0  0  0  0  0  0  0
    9.0346    8.1894   14.7226 N   0  0  0  0  0  0  0  0  0  0  0  0
    8.8585    9.2973   17.1283 N   0  0  0  0  0  0  0  0  0  0  0  0
    8.3984    9.4777   18.4197 C   0  0  0  0  0  0  0  0  0  0  0  0
    7.3427    8.5811   18.8627 N   0  0  0  0  0  0  0  0  0  0  0  0
  2  1  1  6  0  0  0
  2  3  1  0  0  0  0
  2  5  1  0  0  0  0
  3  4  1  0  0  0  0
  3 17  1  0  0  0  0
  5  6  1  0  0  0  0
  7  6  1  1  0  0  0
  7  8  1  0  0  0  0
  7  9  1  0  0  0  0
 10  9  1  6  0  0  0
 10 11  1  0  0  0  0
 10 12  1  0  0  0  0
 11 16  1  0  0  0  0
 12 13  1  1  0  0  0
 12 14  1  0  0  0  0
 14 15  1  1  0  0  0
 14 16  1  0  0  0  0
 16 27  1  6  0  0  0
 18 19  2  0  0  0  0
 18 23  1  0  0  0  0
 19 20  1  0  0  0  0
 20 21  2  0  0  0  0
 21 22  1  0  0  0  0
 21 27  1  0  0  0  0
 22 23  2  0  0  0  0
 22 25  1  0  0  0  0
 23 24  1  0  0  0  0
 25 26  2  0  0  0  0
 26 27  1  0  0  0  0
M  END
>  <CHROM.1>
-27.63223602,-155.85320108,-75.57239364,-121.64296725,169.20381485,56.12582629
-144.86162676,7.44295936,10.61690605,19.22539720,3.06329425,-1.51484572,1.80974053

>  <Name>
ligand

>  <RI>
0

>  <Rbt.Current_Directory>
/home/itssahil/PROJECTS/Mol_Feturizer/Test_systems_manuscript/rnas/4aob

>  <Rbt.Executable>
rbdock ($Id: //depot/dev/client3/rdock/2013.1/src/exe/rbdock.cxx#4 $)

>  <Rbt.Library>
libRbt.so (2013.1, Build901 2013/11/27)

>  <Rbt.Parameter_File>
/export/apps/rDock/src/rDock_2013.1_src/data/scripts/dock_solv.prm

>  <Rbt.Receptor>
prm/blind_docking_100.prm

>  <SCORE>
-13.1665

>  <SCORE.INTER>
-13.8717

>  <SCORE.INTER.CONST>
1

>  <SCORE.INTER.POLAR>
0

>  <SCORE.INTER.ROT>
7

>  <SCORE.INTER.SOLV>
20.692

>  <SCORE.INTER.VDW>
-24.4118

>  <SCORE.INTER.norm>
-0.513766

>  <SCORE.INTRA>
0.705153

>  <SCORE.INTRA.DIHEDRAL>
3.91101

>  <SCORE.INTRA.DIHEDRAL.0>
6.31833

>  <SCORE.INTRA.POLAR>
0

>  <SCORE.INTRA.POLAR.0>
0

>  <SCORE.INTRA.REPUL>
0

>  <SCORE.INTRA.REPUL.0>
0

>  <SCORE.INTRA.SOLV>
-0.674983

>  <SCORE.INTRA.SOLV.lig_0>
-48.4015

>  <SCORE.INTRA.VDW>
-0.912863

>  <SCORE.INTRA.VDW.0>
-2.83256

>  <SCORE.INTRA.norm>
0.0261168

>  <SCORE.RESTR>
0

>  <SCORE.RESTR.CAVITY>
0

>  <SCORE.RESTR.norm>
0

>  <SCORE.SYSTEM>
0

>  <SCORE.SYSTEM.CONST>
0

>  <SCORE.SYSTEM.DIHEDRAL>
0

>  <SCORE.SYSTEM.SOLV>
0

>  <SCORE.SYSTEM.norm>
0

>  <SCORE.heavy>
27

>  <SCORE.norm>
-0.487649

>  <RMSD>
15.440

$$$$
ligand
 OpenBabel02271912153D
libRbt.so/2013.1/901 2013/11/27
 27 29  0  0  0  0  0  0  0  0999 V2000
    7.4536    3.5677   18.7813 N   0  0  0  0  0  0  0  0  0  0  0  0
    8.3648    2.6730   18.0280 C   0  0  2  0  0  0  0  0  0  0  0  0
    7.7660    2.4560   16.6443 C   0  0  0  0  0  0  0  0  0  0  0  0
    6.6052    1.9940   16.3862 O   0  0  0  0  0  0  0  0  0  0  0  0
    8.5467    1.3762   18.8197 C   0  0  0  0  0  0  0  0  0  0  0  0
    9.5313    0.4181   18.1627 C   0  0  0  0  0  0  0  0  0  0  0  0
    9.8980   -1.2533   18.8173 S   0  0  2  0  0  0  0  0  0  0  0  0
   10.8554   -1.8812   17.4390 C   0  0  0  0  0  0  0  0  0  0  0  0
    8.2525   -1.9937   18.5712 C   0  0  0  0  0  0  0  0  0  0  0  0
    8.2737   -3.4788   18.8077 C   0  0  1  0  0  0  0  0  0  0  0  0
    8.7319   -3.8227   20.1376 O   0  0  0  0  0  0  0  0  0  0  0  0
    6.9372   -4.1579   18.6132 C   0  0  1  0  0  0  0  0  0  0  0  0
    6.9155   -4.7010   17.3655 O   0  0  0  0  0  0  0  0  0  0  0  0
    7.0698   -5.2980   19.5956 C   0  0  1  0  0  0  0  0  0  0  0  0
    7.7662   -6.2643   18.9423 O   0  0  0  0  0  0  0  0  0  0  0  0
    7.9200   -4.7728   20.7735 C   0  0  2  0  0  0  0  0  0  0  0  0
    8.5067    2.7032   15.6910 O   0  0  0  0  0  0  0  0  0  0  0  0
    7.0305   -0.7214   23.9309 N   0  0  0  0  0  0  0  0  0  0  0  0
    8.1896   -1.1846   23.2221 C   0  0  0  0  0  0  0  0  0  0  0  0
    8.2987   -2.3153   22.3750 N   0  0  0  0  0  0  0  0  0  0  0  0
    7.1864   -2.9295   22.2784 C   0  0  0  0  0  0  0  0  0  0  0  0
    5.9362   -2.5305   22.9626 C   0  0  0  0  0  0  0  0  0  0  0  0
    5.8798   -1.4615   23.7676 C   0  0  0  0  0  0  0  0  0  0  0  0
    4.7110   -1.2301   24.3290 N   0  0  0  0  0  0  0  0  0  0  0  0
    4.9242   -3.3279   22.7167 N   0  0  0  0  0  0  0  0  0  0  0  0
    5.5425   -4.2281   21.8686 C   0  0  0  0  0  0  0  0  0  0  0  0
    6.9479   -3.9883   21.5822 N   0  0  0  0  0  0  0  0  0  0  0  0
  2  1  1  1  0  0  0
  2  3  1  0  0  0  0
  2  5  1  0  0  0  0
  3  4  1  0  0  0  0
  3 17  1  0  0  0  0
  5  6  1  0  0  0  0
  7  6  1  6  0  0  0
  7  8  1  0  0  0  0
  7  9  1  0  0  0  0
 10  9  1  1  0  0  0
 10 11  1  0  0  0  0
 10 12  1  0  0  0  0
 11 16  1  0  0  0  0
 12 13  1  6  0  0  0
 12 14  1  0  0  0  0
 14 15  1  6  0  0  0
 14 16  1  0  0  0  0
 16 27  1  1  0  0  0
 18 19  2  0  0  0  0
 18 23  1  0  0  0  0
 19 20  1  0  0  0  0
 20 21  2  0  0  0  0
 21 22  1  0  0  0  0
 21 27  1  0  0  0  0
 22 23  2  0  0  0  0
 22 25  1  0  0  0  0
 23 24  1  0  0  0  0
 25 26  2  0  0  0  0
 26 27  1  0  0  0  0
M  END
>  <CHROM.1>
-56.83745610,-176.81796959,-176.68159882,170.40306428,170.40478166,58.06380930
-40.79270686,7.70077129,-1.68904046,19.85725986,0.90004697,1.16073118,-0.08346098

>  <Name>
ligand

>  <RI>
0

>  <Rbt.Current_Directory>
/home/itssahil/PROJECTS/Mol_Feturizer/Test_systems_manuscript/rnas/4aob

>  <Rbt.Executable>
rbdock ($Id: //depot/dev/client3/rdock/2013.1/src/exe/rbdock.cxx#4 $)

>  <Rbt.Library>
libRbt.so (2013.1, Build901 2013/11/27)

>  <Rbt.Parameter_File>
/export/apps/rDock/src/rDock_2013.1_src/data/scripts/dock_solv.prm

>  <Rbt.Receptor>
prm/blind_docking_60.prm

>  <SCORE>
-15.1957

>  <SCORE.INTER>
-13.0545

>  <SCORE.INTER.CONST>
1

>  <SCORE.INTER.POLAR>
0

>  <SCORE.INTER.ROT>
7

>  <SCORE.INTER.SOLV>
9.71439

>  <SCORE.INTER.VDW>
-20.2078

>  <SCORE.INTER.norm>
-0.483501

>  <SCORE.INTRA>
-2.14121

>  <SCORE.INTRA.DIHEDRAL>
-3.21693

>  <SCORE.INTRA.DIHEDRAL.0>
6.31833

>  <SCORE.INTRA.POLAR>
0

>  <SCORE.INTRA.POLAR.0>
0

>  <SCORE.INTRA.REPUL>
0

>  <SCORE.INTRA.REPUL.0>
0

>  <SCORE.INTRA.SOLV>
-0.780621

>  <SCORE.INTRA.SOLV.lig_0>
-48.4015

>  <SCORE.INTRA.VDW>
-0.142436

>  <SCORE.INTRA.VDW.0>
-2.83256

>  <SCORE.INTRA.norm>
-0.0793041

>  <SCORE.RESTR>
0

>  <SCORE.RESTR.CAVITY>
0

>  <SCORE.RESTR.norm>
0

>  <SCORE.SYSTEM>
0

>  <SCORE.SYSTEM.CONST>
0

>  <SCORE.SYSTEM.DIHEDRAL>
0

>  <SCORE.SYSTEM.SOLV>
0

>  <SCORE.SYSTEM.norm>
0

>  <SCORE.heavy>
27

>  <SCORE.norm>
-0.562805

>  <RMSD>
15.451

$$$$
ligand
 OpenBabel02271912153D
libRbt.so/2013.1/901 2013/11/27
 27 29  0  0  0  0  0  0  0  0999 V2000
    5.3944   -3.9873   25.1633 N   0  0  0  0  0  0  0  0  0  0  0  0
    6.1416   -2.8941   25.8303 C   0  0  2  0  0  0  0  0  0  0  0  0
    5.1722   -1.7428   26.0648 C   0  0  0  0  0  0  0  0  0  0  0  0
    4.0318   -1.5897   25.5139 O   0  0  0  0  0  0  0  0  0  0  0  0
    7.3376   -2.5109   24.9561 C   0  0  0  0  0  0  0  0  0  0  0  0
    6.9241   -2.0137   23.5773 C   0  0  0  0  0  0  0  0  0  0  0  0
    8.1217   -1.4573   22.3074 S   0  0  2  0  0  0  0  0  0  0  0  0
    8.6767    0.0512   23.0994 C   0  0  0  0  0  0  0  0  0  0  0  0
    6.9266   -0.8754   21.0627 C   0  0  0  0  0  0  0  0  0  0  0  0
    7.4298   -1.1040   19.6640 C   0  0  1  0  0  0  0  0  0  0  0  0
    6.5499   -0.5446   18.6591 O   0  0  0  0  0  0  0  0  0  0  0  0
    8.8096   -0.5453   19.4011 C   0  0  1  0  0  0  0  0  0  0  0  0
    9.7082   -1.5600   19.5248 O   0  0  0  0  0  0  0  0  0  0  0  0
    8.6943   -0.2265   17.9289 C   0  0  1  0  0  0  0  0  0  0  0  0
    8.9374   -1.3957   17.2814 O   0  0  0  0  0  0  0  0  0  0  0  0
    7.2288    0.1930   17.6788 C   0  0  2  0  0  0  0  0  0  0  0  0
    5.5650   -0.8522   26.8206 O   0  0  0  0  0  0  0  0  0  0  0  0
    5.8106    5.1234   16.7543 N   0  0  0  0  0  0  0  0  0  0  0  0
    5.6170    3.8909   16.0443 C   0  0  0  0  0  0  0  0  0  0  0  0
    6.0531    2.5945   16.4144 N   0  0  0  0  0  0  0  0  0  0  0  0
    6.6721    2.6154   17.5281 C   0  0  0  0  0  0  0  0  0  0  0  0
    6.9184    3.8297   18.3377 C   0  0  0  0  0  0  0  0  0  0  0  0
    6.5012    5.0399   17.9437 C   0  0  0  0  0  0  0  0  0  0  0  0
    6.8037    6.0383   18.7478 N   0  0  0  0  0  0  0  0  0  0  0  0
    7.5886    3.5993   19.4413 N   0  0  0  0  0  0  0  0  0  0  0  0
    7.7577    2.2318   19.3256 C   0  0  0  0  0  0  0  0  0  0  0  0
    7.1867    1.6060   18.1436 N   0  0  0  0  0  0  0  0  0  0  0  0
  2  1  1  6  0  0  0
  2  3  1  0  0  0  0
  2  5  1  0  0  0  0
  3  4  1  0  0  0  0
  3 17  1  0  0  0  0
  5  6  1  0  0  0  0
  7  6  1  1  0  0  0
  7  8  1  0  0  0  0
  7  9  1  0  0  0  0
 10  9  1  1  0  0  0
 10 11  1  0  0  0  0
 10 12  1  0  0  0  0
 11 16  1  0  0  0  0
 12 13  1  6  0  0  0
 12 14  1  0  0  0  0
 14 15  1  6  0  0  0
 14 16  1  0  0  0  0
 16 27  1  1  0  0  0
 18 19  2  0  0  0  0
 18 23  1  0  0  0  0
 19 20  1  0  0  0  0
 20 21  2  0  0  0  0
 21 22  1  0  0  0  0
 21 27  1  0  0  0  0
 22 23  2  0  0  0  0
 22 25  1  0  0  0  0
 23 24  1  0  0  0  0
 25 26  2  0  0  0  0
 26 27  1  0  0  0  0
M  END
>  <CHROM.1>
-15.76619038,60.66393702,179.12952316,-69.24057664,-146.20475425,-174.96251406
-120.60487619,7.04822687,0.31747661,20.65236886,-1.70432888,1.00424174,-0.84014633

>  <Name>
ligand

>  <RI>
0

>  <Rbt.Current_Directory>
/home/itssahil/PROJECTS/Mol_Feturizer/Test_systems_manuscript/rnas/4aob

>  <Rbt.Executable>
rbdock ($Id: //depot/dev/client3/rdock/2013.1/src/exe/rbdock.cxx#4 $)

>  <Rbt.Library>
libRbt.so (2013.1, Build901 2013/11/27)

>  <Rbt.Parameter_File>
/export/apps/rDock/src/rDock_2013.1_src/data/scripts/dock_solv.prm

>  <Rbt.Receptor>
prm/blind_docking_80.prm

>  <SCORE>
-10.1034

>  <SCORE.INTER>
-10.9358

>  <SCORE.INTER.CONST>
1

>  <SCORE.INTER.POLAR>
0

>  <SCORE.INTER.ROT>
7

>  <SCORE.INTER.SOLV>
5.13466

>  <SCORE.INTER.VDW>
-17.2688

>  <SCORE.INTER.norm>
-0.40503

>  <SCORE.INTRA>
0.832424

>  <SCORE.INTRA.DIHEDRAL>
0.288978

>  <SCORE.INTRA.DIHEDRAL.0>
6.31833

>  <SCORE.INTRA.POLAR>
0

>  <SCORE.INTRA.POLAR.0>
0

>  <SCORE.INTRA.REPUL>
0

>  <SCORE.INTRA.REPUL.0>
0

>  <SCORE.INTRA.SOLV>
0.0742077

>  <SCORE.INTRA.SOLV.lig_0>
-48.4015

>  <SCORE.INTRA.VDW>
0.650831

>  <SCORE.INTRA.VDW.0>
-2.83256

>  <SCORE.INTRA.norm>
0.0308305

>  <SCORE.RESTR>
0

>  <SCORE.RESTR.CAVITY>
0

>  <SCORE.RESTR.norm>
0

>  <SCORE.SYSTEM>
0

>  <SCORE.SYSTEM.CONST>
0

>  <SCORE.SYSTEM.DIHEDRAL>
0

>  <SCORE.SYSTEM.SOLV>
0

>  <SCORE.SYSTEM.norm>
0

>  <SCORE.heavy>
27

>  <SCORE.norm>
-0.374199

>  <RMSD>
15.452

$$$$
ligand
 OpenBabel02271912153D
libRbt.so/2013.1/901 2013/11/27
 27 29  0  0  0  0  0  0  0  0999 V2000
    9.6594    9.9965   16.1259 N   0  0  0  0  0  0  0  0  0  0  0  0
    9.5683    8.5410   15.8582 C   0  0  2  0  0  0  0  0  0  0  0  0
    8.3107    8.2965   15.0343 C   0  0  0  0  0  0  0  0  0  0  0  0
    7.2917    7.6175   15.3923 O   0  0  0  0  0  0  0  0  0  0  0  0
    9.5727    7.7939   17.1936 C   0  0  0  0  0  0  0  0  0  0  0  0
    8.5200    8.3144   18.1632 C   0  0  0  0  0  0  0  0  0  0  0  0
    8.2454    7.6012   19.8283 S   0  0  2  0  0  0  0  0  0  0  0  0
    7.4410    6.0759   19.3416 C   0  0  0  0  0  0  0  0  0  0  0  0
    6.8643    8.6709   20.3428 C   0  0  0  0  0  0  0  0  0  0  0  0
    7.1422    9.3358   21.6629 C   0  0  1  0  0  0  0  0  0  0  0  0
    8.2422   10.2748   21.5908 O   0  0  0  0  0  0  0  0  0  0  0  0
    5.9629   10.0830   22.2425 C   0  0  1  0  0  0  0  0  0  0  0  0
    5.3618    9.2787   23.1613 O   0  0  0  0  0  0  0  0  0  0  0  0
    6.6825   11.1720   23.0032 C   0  0  1  0  0  0  0  0  0  0  0  0
    7.0381   10.6150   24.1902 O   0  0  0  0  0  0  0  0  0  0  0  0
    7.9592   11.5055   22.2003 C   0  0  2  0  0  0  0  0  0  0  0  0
    8.3154    8.7594   13.8923 O   0  0  0  0  0  0  0  0  0  0  0  0
    5.8924   16.0768   20.7839 N   0  0  0  0  0  0  0  0  0  0  0  0
    6.3390   15.5419   22.0389 C   0  0  0  0  0  0  0  0  0  0  0  0
    6.8995   14.2652   22.2918 N   0  0  0  0  0  0  0  0  0  0  0  0
    6.9920   13.5807   21.2211 C   0  0  0  0  0  0  0  0  0  0  0  0
    6.5662   14.0424   19.8809 C   0  0  0  0  0  0  0  0  0  0  0  0
    6.0268   15.2530   19.6876 C   0  0  0  0  0  0  0  0  0  0  0  0
    5.6734   15.5299   18.4493 N   0  0  0  0  0  0  0  0  0  0  0  0
    6.7513   13.1533   18.9346 N   0  0  0  0  0  0  0  0  0  0  0  0
    7.3021   12.1309   19.6853 C   0  0  0  0  0  0  0  0  0  0  0  0
    7.4636   12.3860   21.1078 N   0  0  0  0  0  0  0  0  0  0  0  0
  2  1  1  1  0  0  0
  2  3  1  0  0  0  0
  2  5  1  0  0  0  0
  3  4  1  0  0  0  0
  3 17  1  0  0  0  0
  5  6  1  0  0  0  0
  7  6  1  6  0  0  0
  7  8  1  0  0  0  0
  7  9  1  0  0  0  0
 10  9  1  6  0  0  0
 10 11  1  0  0  0  0
 10 12  1  0  0  0  0
 11 16  1  0  0  0  0
 12 13  1  1  0  0  0
 12 14  1  0  0  0  0
 14 15  1  1  0  0  0
 14 16  1  0  0  0  0
 16 27  1  6  0  0  0
 18 19  2  0  0  0  0
 18 23  1  0  0  0  0
 19 20  1  0  0  0  0
 20 21  2  0  0  0  0
 21 22  1  0  0  0  0
 21 27  1  0  0  0  0
 22 23  2  0  0  0  0
 22 25  1  0  0  0  0
 23 24  1  0  0  0  0
 25 26  2  0  0  0  0
 26 27  1  0  0  0  0
M  END
>  <CHROM.1>
-116.28374438,52.43111605,178.43875177,-73.32799453,-126.36100265,65.94059541
174.49656409,7.38777763,10.69188451,19.74078617,-0.08192947,1.31132436,-0.77818115

>  <Name>
ligand

>  <RI>
0

>  <Rbt.Current_Directory>
/home/itssahil/PROJECTS/Mol_Feturizer/Test_systems_manuscript/rnas/4aob

>  <Rbt.Executable>
rbdock ($Id: //depot/dev/client3/rdock/2013.1/src/exe/rbdock.cxx#4 $)

>  <Rbt.Library>
libRbt.so (2013.1, Build901 2013/11/27)

>  <Rbt.Parameter_File>
/export/apps/rDock/src/rDock_2013.1_src/data/scripts/dock_solv.prm

>  <Rbt.Receptor>
prm/blind_docking_60.prm

>  <SCORE>
-12.0649

>  <SCORE.INTER>
-13.0823

>  <SCORE.INTER.CONST>
1

>  <SCORE.INTER.POLAR>
0

>  <SCORE.INTER.ROT>
7

>  <SCORE.INTER.SOLV>
19.4199

>  <SCORE.INTER.VDW>
-23.4615

>  <SCORE.INTER.norm>
-0.484529

>  <SCORE.INTRA>
1.01739

>  <SCORE.INTRA.DIHEDRAL>
1.513

>  <SCORE.INTRA.DIHEDRAL.0>
6.31833

>  <SCORE.INTRA.POLAR>
0

>  <SCORE.INTRA.POLAR.0>
0

>  <SCORE.INTRA.REPUL>
0

>  <SCORE.INTRA.REPUL.0>
0

>  <SCORE.INTRA.SOLV>
-0.0616157

>  <SCORE.INTRA.SOLV.lig_0>
-48.4015

>  <SCORE.INTRA.VDW>
0.291695

>  <SCORE.INTRA.VDW.0>
-2.83256

>  <SCORE.INTRA.norm>
0.037681

>  <SCORE.RESTR>
0

>  <SCORE.RESTR.CAVITY>
0

>  <SCORE.RESTR.norm>
0

>  <SCORE.SYSTEM>
0

>  <SCORE.SYSTEM.CONST>
0

>  <SCORE.SYSTEM.DIHEDRAL>
0

>  <SCORE.SYSTEM.SOLV>
0

>  <SCORE.SYSTEM.norm>
0

>  <SCORE.heavy>
27

>  <SCORE.norm>
-0.446848

>  <RMSD>
15.504

$$$$
ligand
 OpenBabel02271912153D
libRbt.so/2013.1/901 2013/11/27
 27 29  0  0  0  0  0  0  0  0999 V2000
    9.6046   -2.3529   15.4196 N   0  0  0  0  0  0  0  0  0  0  0  0
    8.7729   -3.4144   16.0359 C   0  0  2  0  0  0  0  0  0  0  0  0
    7.3468   -3.2420   15.5291 C   0  0  0  0  0  0  0  0  0  0  0  0
    6.4597   -2.4647   16.0154 O   0  0  0  0  0  0  0  0  0  0  0  0
    8.8917   -3.3111   17.5580 C   0  0  0  0  0  0  0  0  0  0  0  0
    8.2362   -4.4804   18.2807 C   0  0  0  0  0  0  0  0  0  0  0  0
    8.1301   -4.6035   20.1055 S   0  0  2  0  0  0  0  0  0  0  0  0
    7.2703   -6.1712   20.2228 C   0  0  0  0  0  0  0  0  0  0  0  0
    6.8161   -3.3711   20.3715 C   0  0  0  0  0  0  0  0  0  0  0  0
    6.9849   -2.6577   21.6847 C   0  0  1  0  0  0  0  0  0  0  0  0
    8.2062   -1.8817   21.7420 O   0  0  0  0  0  0  0  0  0  0  0  0
    5.8511   -1.7205   22.0328 C   0  0  1  0  0  0  0  0  0  0  0  0
    5.0102   -2.3703   22.8831 O   0  0  0  0  0  0  0  0  0  0  0  0
    6.5967   -0.6865   22.8437 C   0  0  1  0  0  0  0  0  0  0  0  0
    6.6867   -1.2008   24.0978 O   0  0  0  0  0  0  0  0  0  0  0  0
    8.0139   -0.5843   22.2378 C   0  0  2  0  0  0  0  0  0  0  0  0
    7.0152   -3.9709   14.5925 O   0  0  0  0  0  0  0  0  0  0  0  0
    9.6965    0.9141   17.5368 N   0  0  0  0  0  0  0  0  0  0  0  0
   10.1411   -0.0777   18.4746 C   0  0  0  0  0  0  0  0  0  0  0  0
    9.5808   -0.3970   19.7363 N   0  0  0  0  0  0  0  0  0  0  0  0
    8.5578    0.3216   19.9829 C   0  0  0  0  0  0  0  0  0  0  0  0
    8.0176    1.3640   19.0818 C   0  0  0  0  0  0  0  0  0  0  0  0
    8.5870    1.6448   17.9025 C   0  0  0  0  0  0  0  0  0  0  0  0
    8.0174    2.6082   17.2080 N   0  0  0  0  0  0  0  0  0  0  0  0
    6.9625    1.9785   19.5610 N   0  0  0  0  0  0  0  0  0  0  0  0
    6.8373    1.3129   20.7665 C   0  0  0  0  0  0  0  0  0  0  0  0
    7.8190    0.2752   21.0387 N   0  0  0  0  0  0  0  0  0  0  0  0
  2  1  1  6  0  0  0
  2  3  1  0  0  0  0
  2  5  1  0  0  0  0
  3  4  1  0  0  0  0
  3 17  1  0  0  0  0
  5  6  1  0  0  0  0
  7  6  1  6  0  0  0
  7  8  1  0  0  0  0
  7  9  1  0  0  0  0
 10  9  1  6  0  0  0
 10 11  1  0  0  0  0
 10 12  1  0  0  0  0
 11 16  1  0  0  0  0
 12 13  1  1  0  0  0
 12 14  1  0  0  0  0
 14 15  1  1  0  0  0
 14 16  1  0  0  0  0
 16 27  1  6  0  0  0
 18 19  2  0  0  0  0
 18 23  1  0  0  0  0
 19 20  1  0  0  0  0
 20 21  2  0  0  0  0
 21 22  1  0  0  0  0
 21 27  1  0  0  0  0
 22 23  2  0  0  0  0
 22 25  1  0  0  0  0
 23 24  1  0  0  0  0
 25 26  2  0  0  0  0
 26 27  1  0  0  0  0
M  END
>  <CHROM.1>
-84.83191495,-171.68805454,-176.62955962,-179.97236863,-147.82423981,63.66867453
-49.62687459,7.76093277,-1.65705478,19.41981454,-0.76101075,1.28957712,0.48507993

>  <Name>
ligand

>  <RI>
0

>  <Rbt.Current_Directory>
/home/itssahil/PROJECTS/Mol_Feturizer/Test_systems_manuscript/rnas/4aob

>  <Rbt.Executable>
rbdock ($Id: //depot/dev/client3/rdock/2013.1/src/exe/rbdock.cxx#4 $)

>  <Rbt.Library>
libRbt.so (2013.1, Build901 2013/11/27)

>  <Rbt.Parameter_File>
/export/apps/rDock/src/rDock_2013.1_src/data/scripts/dock_solv.prm

>  <Rbt.Receptor>
prm/blind_docking_100.prm

>  <SCORE>
-12.697

>  <SCORE.INTER>
-11.87

>  <SCORE.INTER.CONST>
1

>  <SCORE.INTER.POLAR>
0

>  <SCORE.INTER.ROT>
7

>  <SCORE.INTER.SOLV>
5.33716

>  <SCORE.INTER.VDW>
-17.9591

>  <SCORE.INTER.norm>
-0.439631

>  <SCORE.INTRA>
-0.826935

>  <SCORE.INTRA.DIHEDRAL>
0.691953

>  <SCORE.INTRA.DIHEDRAL.0>
6.31833

>  <SCORE.INTRA.POLAR>
0

>  <SCORE.INTRA.POLAR.0>
0

>  <SCORE.INTRA.REPUL>
0

>  <SCORE.INTRA.REPUL.0>
0

>  <SCORE.INTRA.SOLV>
-0.657018

>  <SCORE.INTRA.SOLV.lig_0>
-48.4015

>  <SCORE.INTRA.VDW>
-0.844402

>  <SCORE.INTRA.VDW.0>
-2.83256

>  <SCORE.INTRA.norm>
-0.0306272

>  <SCORE.RESTR>
0

>  <SCORE.RESTR.CAVITY>
0

>  <SCORE.RESTR.norm>
0

>  <SCORE.SYSTEM>
0

>  <SCORE.SYSTEM.CONST>
0

>  <SCORE.SYSTEM.DIHEDRAL>
0

>  <SCORE.SYSTEM.SOLV>
0

>  <SCORE.SYSTEM.norm>
0

>  <SCORE.heavy>
27

>  <SCORE.norm>
-0.470258

>  <RMSD>
15.553

$$$$
ligand
 OpenBabel02271912153D
libRbt.so/2013.1/901 2013/11/27
 27 29  0  0  0  0  0  0  0  0999 V2000
    7.4813   -5.8099   23.7831 N   0  0  0  0  0  0  0  0  0  0  0  0
    6.9278   -4.4358   23.8444 C   0  0  2  0  0  0  0  0  0  0  0  0
    5.6233   -4.4235   23.0580 C   0  0  0  0  0  0  0  0  0  0  0  0
    5.4562   -4.8378   21.8630 O   0  0  0  0  0  0  0  0  0  0  0  0
    7.9728   -3.4596   23.2999 C   0  0  0  0  0  0  0  0  0  0  0  0
    7.5622   -2.0028   23.4681 C   0  0  0  0  0  0  0  0  0  0  0  0
    8.4759   -0.6061   22.7126 S   0  0  2  0  0  0  0  0  0  0  0  0
    7.3589    0.7223   23.1579 C   0  0  0  0  0  0  0  0  0  0  0  0
    8.0695   -0.9442   20.9699 C   0  0  0  0  0  0  0  0  0  0  0  0
    8.3674    0.2407   20.0930 C   0  0  1  0  0  0  0  0  0  0  0  0
    9.7808    0.3815   19.8112 O   0  0  0  0  0  0  0  0  0  0  0  0
    7.6527    0.2231   18.7611 C   0  0  1  0  0  0  0  0  0  0  0  0
    6.5460    1.0086   18.8637 O   0  0  0  0  0  0  0  0  0  0  0  0
    8.6534    0.9685   17.9094 C   0  0  1  0  0  0  0  0  0  0  0  0
    8.4126    2.2869   18.1319 O   0  0  0  0  0  0  0  0  0  0  0  0
   10.0538    0.6126   18.4554 C   0  0  2  0  0  0  0  0  0  0  0  0
    4.6568   -3.9099   23.6242 O   0  0  0  0  0  0  0  0  0  0  0  0
    9.7873   -2.5586   14.3266 N   0  0  0  0  0  0  0  0  0  0  0  0
    9.4531   -1.1780   14.5342 C   0  0  0  0  0  0  0  0  0  0  0  0
    9.5839   -0.4193   15.7238 N   0  0  0  0  0  0  0  0  0  0  0  0
   10.0747   -1.1206   16.6677 C   0  0  0  0  0  0  0  0  0  0  0  0
   10.4562   -2.5461   16.5538 C   0  0  0  0  0  0  0  0  0  0  0  0
   10.3023   -3.2312   15.4133 C   0  0  0  0  0  0  0  0  0  0  0  0
   10.6630   -4.4974   15.4542 N   0  0  0  0  0  0  0  0  0  0  0  0
   10.9288   -3.0549   17.6666 N   0  0  0  0  0  0  0  0  0  0  0  0
   10.8488   -1.9400   18.4805 C   0  0  0  0  0  0  0  0  0  0  0  0
   10.3256   -0.7282   17.8700 N   0  0  0  0  0  0  0  0  0  0  0  0
  2  1  1  6  0  0  0
  2  3  1  0  0  0  0
  2  5  1  0  0  0  0
  3  4  1  0  0  0  0
  3 17  1  0  0  0  0
  5  6  1  0  0  0  0
  7  6  1  1  0  0  0
  7  8  1  0  0  0  0
  7  9  1  0  0  0  0
 10  9  1  6  0  0  0
 10 11  1  0  0  0  0
 10 12  1  0  0  0  0
 11 16  1  0  0  0  0
 12 13  1  1  0  0  0
 12 14  1  0  0  0  0
 14 15  1  1  0  0  0
 14 16  1  0  0  0  0
 16 27  1  6  0  0  0
 18 19  2  0  0  0  0
 18 23  1  0  0  0  0
 19 20  1  0  0  0  0
 20 21  2  0  0  0  0
 21 22  1  0  0  0  0
 21 27  1  0  0  0  0
 22 23  2  0  0  0  0
 22 25  1  0  0  0  0
 23 24  1  0  0  0  0
 25 26  2  0  0  0  0
 26 27  1  0  0  0  0
M  END
>  <CHROM.1>
-51.96916652,-173.40895890,-171.05520272,173.94388050,164.65165424,77.17996092
148.18761630,8.50030550,-1.59640613,19.67019555,-2.94432962,1.14864741,0.04944480

>  <Name>
ligand

>  <RI>
0

>  <Rbt.Current_Directory>
/home/itssahil/PROJECTS/Mol_Feturizer/Test_systems_manuscript/rnas/4aob

>  <Rbt.Executable>
rbdock ($Id: //depot/dev/client3/rdock/2013.1/src/exe/rbdock.cxx#4 $)

>  <Rbt.Library>
libRbt.so (2013.1, Build901 2013/11/27)

>  <Rbt.Parameter_File>
/export/apps/rDock/src/rDock_2013.1_src/data/scripts/dock_solv.prm

>  <Rbt.Receptor>
prm/blind_docking_60.prm

>  <SCORE>
-14.7267

>  <SCORE.INTER>
-14.2496

>  <SCORE.INTER.CONST>
1

>  <SCORE.INTER.POLAR>
0

>  <SCORE.INTER.ROT>
7

>  <SCORE.INTER.SOLV>
9.44564

>  <SCORE.INTER.VDW>
-20.915

>  <SCORE.INTER.norm>
-0.527764

>  <SCORE.INTRA>
-0.477099

>  <SCORE.INTRA.DIHEDRAL>
-1.59302

>  <SCORE.INTRA.DIHEDRAL.0>
6.31833

>  <SCORE.INTRA.POLAR>
0

>  <SCORE.INTRA.POLAR.0>
0

>  <SCORE.INTRA.REPUL>
0

>  <SCORE.INTRA.REPUL.0>
0

>  <SCORE.INTRA.SOLV>
-0.794806

>  <SCORE.INTRA.SOLV.lig_0>
-48.4015

>  <SCORE.INTRA.VDW>
0.716815

>  <SCORE.INTRA.VDW.0>
-2.83256

>  <SCORE.INTRA.norm>
-0.0176704

>  <SCORE.RESTR>
0

>  <SCORE.RESTR.CAVITY>
0

>  <SCORE.RESTR.norm>
0

>  <SCORE.SYSTEM>
0

>  <SCORE.SYSTEM.CONST>
0

>  <SCORE.SYSTEM.DIHEDRAL>
0

>  <SCORE.SYSTEM.SOLV>
0

>  <SCORE.SYSTEM.norm>
0

>  <SCORE.heavy>
27

>  <SCORE.norm>
-0.545434

>  <RMSD>
15.621

$$$$
ligand
 OpenBabel02271912153D
libRbt.so/2013.1/901 2013/11/27
 27 29  0  0  0  0  0  0  0  0999 V2000
    7.6493   -2.6172   25.5546 N   0  0  0  0  0  0  0  0  0  0  0  0
    6.6982   -1.5050   25.3166 C   0  0  2  0  0  0  0  0  0  0  0  0
    5.6021   -1.5957   26.3705 C   0  0  0  0  0  0  0  0  0  0  0  0
    5.2308   -2.6488   26.9873 O   0  0  0  0  0  0  0  0  0  0  0  0
    6.1710   -1.6066   23.8836 C   0  0  0  0  0  0  0  0  0  0  0  0
    7.2309   -1.2764   22.8412 C   0  0  0  0  0  0  0  0  0  0  0  0
    6.9485   -1.4246   21.0371 S   0  0  2  0  0  0  0  0  0  0  0  0
    7.1195   -3.2013   20.8801 C   0  0  0  0  0  0  0  0  0  0  0  0
    8.5569   -0.7857   20.4705 C   0  0  0  0  0  0  0  0  0  0  0  0
    8.7938   -1.0947   19.0179 C   0  0  1  0  0  0  0  0  0  0  0  0
    7.7473   -0.5757   18.1621 O   0  0  0  0  0  0  0  0  0  0  0  0
   10.1048   -0.5712   18.4772 C   0  0  1  0  0  0  0  0  0  0  0  0
   11.0057   -1.5913   18.4892 O   0  0  0  0  0  0  0  0  0  0  0  0
    9.7229   -0.3281   17.0358 C   0  0  1  0  0  0  0  0  0  0  0  0
    9.8373   -1.5332   16.4191 O   0  0  0  0  0  0  0  0  0  0  0  0
    8.2386    0.0995   17.0356 C   0  0  2  0  0  0  0  0  0  0  0  0
    4.9858   -0.5534   26.5989 O   0  0  0  0  0  0  0  0  0  0  0  0
    6.0662    4.8326   16.8064 N   0  0  0  0  0  0  0  0  0  0  0  0
    5.6729    3.5412   16.3182 C   0  0  0  0  0  0  0  0  0  0  0  0
    6.3612    2.3105   16.4574 N   0  0  0  0  0  0  0  0  0  0  0  0
    7.4415    2.4571   17.1171 C   0  0  0  0  0  0  0  0  0  0  0  0
    7.9311    3.7414   17.6661 C   0  0  0  0  0  0  0  0  0  0  0  0
    7.2560    4.8861   17.4991 C   0  0  0  0  0  0  0  0  0  0  0  0
    7.8132    5.9593   18.0212 N   0  0  0  0  0  0  0  0  0  0  0  0
    9.0760    3.6411   18.2983 N   0  0  0  0  0  0  0  0  0  0  0  0
    9.3017    2.2850   18.1499 C   0  0  0  0  0  0  0  0  0  0  0  0
    8.2896    1.5353   17.4230 N   0  0  0  0  0  0  0  0  0  0  0  0
  2  1  1  1  0  0  0
  2  3  1  0  0  0  0
  2  5  1  0  0  0  0
  3  4  1  0  0  0  0
  3 17  1  0  0  0  0
  5  6  1  0  0  0  0
  7  6  1  1  0  0  0
  7  8  1  0  0  0  0
  7  9  1  0  0  0  0
 10  9  1  1  0  0  0
 10 11  1  0  0  0  0
 10 12  1  0  0  0  0
 11 16  1  0  0  0  0
 12 13  1  6  0  0  0
 12 14  1  0  0  0  0
 14 15  1  6  0  0  0
 14 16  1  0  0  0  0
 16 27  1  1  0  0  0
 18 19  2  0  0  0  0
 18 23  1  0  0  0  0
 19 20  1  0  0  0  0
 20 21  2  0  0  0  0
 21 22  1  0  0  0  0
 21 27  1  0  0  0  0
 22 23  2  0  0  0  0
 22 25  1  0  0  0  0
 23 24  1  0  0  0  0
 25 26  2  0  0  0  0
 26 27  1  0  0  0  0
M  END
>  <CHROM.1>
-25.54927545,-70.02572146,175.41805531,-77.98129539,165.52200178,56.85937388
-100.70300683,7.63015388,0.26477310,20.06791118,-1.91246670,0.97663006,-0.76711705

>  <Name>
ligand

>  <RI>
0

>  <Rbt.Current_Directory>
/home/itssahil/PROJECTS/Mol_Feturizer/Test_systems_manuscript/rnas/4aob

>  <Rbt.Executable>
rbdock ($Id: //depot/dev/client3/rdock/2013.1/src/exe/rbdock.cxx#4 $)

>  <Rbt.Library>
libRbt.so (2013.1, Build901 2013/11/27)

>  <Rbt.Parameter_File>
/export/apps/rDock/src/rDock_2013.1_src/data/scripts/dock_solv.prm

>  <Rbt.Receptor>
prm/blind_docking_100.prm

>  <SCORE>
-14.221

>  <SCORE.INTER>
-13.7272

>  <SCORE.INTER.CONST>
1

>  <SCORE.INTER.POLAR>
0

>  <SCORE.INTER.ROT>
7

>  <SCORE.INTER.SOLV>
8.98391

>  <SCORE.INTER.VDW>
-20.4127

>  <SCORE.INTER.norm>
-0.508413

>  <SCORE.INTRA>
-0.493877

>  <SCORE.INTRA.DIHEDRAL>
-2.29945

>  <SCORE.INTRA.DIHEDRAL.0>
6.31833

>  <SCORE.INTRA.POLAR>
0

>  <SCORE.INTRA.POLAR.0>
0

>  <SCORE.INTRA.REPUL>
0

>  <SCORE.INTRA.REPUL.0>
0

>  <SCORE.INTRA.SOLV>
-0.142311

>  <SCORE.INTRA.SOLV.lig_0>
-48.4015

>  <SCORE.INTRA.VDW>
0.727001

>  <SCORE.INTRA.VDW.0>
-2.83256

>  <SCORE.INTRA.norm>
-0.0182918

>  <SCORE.RESTR>
0

>  <SCORE.RESTR.CAVITY>
0

>  <SCORE.RESTR.norm>
0

>  <SCORE.SYSTEM>
0

>  <SCORE.SYSTEM.CONST>
0

>  <SCORE.SYSTEM.DIHEDRAL>
0

>  <SCORE.SYSTEM.SOLV>
0

>  <SCORE.SYSTEM.norm>
0

>  <SCORE.heavy>
27

>  <SCORE.norm>
-0.526705

>  <RMSD>
15.623

$$$$
ligand
 OpenBabel02271912153D
libRbt.so/2013.1/901 2013/11/27
 27 29  0  0  0  0  0  0  0  0999 V2000
    6.7504   -3.9676   24.7617 N   0  0  0  0  0  0  0  0  0  0  0  0
    7.6613   -2.7977   24.7696 C   0  0  2  0  0  0  0  0  0  0  0  0
    7.0169   -1.7112   25.6208 C   0  0  0  0  0  0  0  0  0  0  0  0
    7.4657   -1.2458   26.7206 O   0  0  0  0  0  0  0  0  0  0  0  0
    7.9173   -2.3637   23.3248 C   0  0  0  0  0  0  0  0  0  0  0  0
    6.6322   -2.0800   22.5585 C   0  0  0  0  0  0  0  0  0  0  0  0
    6.5604   -1.9326   20.7337 S   0  0  2  0  0  0  0  0  0  0  0  0
    7.3067   -3.5041   20.3044 C   0  0  0  0  0  0  0  0  0  0  0  0
    7.9178   -0.7381   20.5175 C   0  0  0  0  0  0  0  0  0  0  0  0
    8.3199   -0.6137   19.0736 C   0  0  1  0  0  0  0  0  0  0  0  0
    7.2050   -0.2740   18.2142 O   0  0  0  0  0  0  0  0  0  0  0  0
    9.4020    0.4099   18.8162 C   0  0  1  0  0  0  0  0  0  0  0  0
   10.5933   -0.2436   18.7376 O   0  0  0  0  0  0  0  0  0  0  0  0
    9.0353    0.8420   17.4157 C   0  0  1  0  0  0  0  0  0  0  0  0
    9.5826   -0.0883   16.5909 O   0  0  0  0  0  0  0  0  0  0  0  0
    7.4959    0.7618   17.3150 C   0  0  2  0  0  0  0  0  0  0  0  0
    5.9291   -1.2894   25.2243 O   0  0  0  0  0  0  0  0  0  0  0  0
    4.8638    5.2503   16.9991 N   0  0  0  0  0  0  0  0  0  0  0  0
    5.0651    4.1579   16.0899 C   0  0  0  0  0  0  0  0  0  0  0  0
    5.8085    2.9709   16.3051 N   0  0  0  0  0  0  0  0  0  0  0  0
    6.3148    2.9482   17.4742 C   0  0  0  0  0  0  0  0  0  0  0  0
    6.1618    4.0188   18.4846 C   0  0  0  0  0  0  0  0  0  0  0  0
    5.4616    5.1329   18.2350 C   0  0  0  0  0  0  0  0  0  0  0  0
    5.4216    6.0138   19.2135 N   0  0  0  0  0  0  0  0  0  0  0  0
    6.7863    3.7721   19.6113 N   0  0  0  0  0  0  0  0  0  0  0  0
    7.3285    2.5370   19.3072 C   0  0  0  0  0  0  0  0  0  0  0  0
    7.0375    2.0097   17.9836 N   0  0  0  0  0  0  0  0  0  0  0  0
  2  1  1  6  0  0  0
  2  3  1  0  0  0  0
  2  5  1  0  0  0  0
  3  4  1  0  0  0  0
  3 17  1  0  0  0  0
  5  6  1  0  0  0  0
  7  6  1  1  0  0  0
  7  8  1  0  0  0  0
  7  9  1  0  0  0  0
 10  9  1  1  0  0  0
 10 11  1  0  0  0  0
 10 12  1  0  0  0  0
 11 16  1  0  0  0  0
 12 13  1  6  0  0  0
 12 14  1  0  0  0  0
 14 15  1  6  0  0  0
 14 16  1  0  0  0  0
 16 27  1  1  0  0  0
 18 19  2  0  0  0  0
 18 23  1  0  0  0  0
 19 20  1  0  0  0  0
 20 21  2  0  0  0  0
 21 22  1  0  0  0  0
 21 27  1  0  0  0  0
 22 23  2  0  0  0  0
 22 25  1  0  0  0  0
 23 24  1  0  0  0  0
 25 26  2  0  0  0  0
 26 27  1  0  0  0  0
M  END
>  <CHROM.1>
115.26116000,55.18459619,-164.96594928,54.67263390,167.92893756,55.17967999
-131.97056414,7.16133173,0.44624601,20.10861365,1.41524329,-1.00181883,2.16081155

>  <Name>
ligand

>  <RI>
0

>  <Rbt.Current_Directory>
/home/itssahil/PROJECTS/Mol_Feturizer/Test_systems_manuscript/rnas/4aob

>  <Rbt.Executable>
rbdock ($Id: //depot/dev/client3/rdock/2013.1/src/exe/rbdock.cxx#4 $)

>  <Rbt.Library>
libRbt.so (2013.1, Build901 2013/11/27)

>  <Rbt.Parameter_File>
/export/apps/rDock/src/rDock_2013.1_src/data/scripts/dock_solv.prm

>  <Rbt.Receptor>
prm/blind_docking_100.prm

>  <SCORE>
-13.9569

>  <SCORE.INTER>
-14.4096

>  <SCORE.INTER.CONST>
1

>  <SCORE.INTER.POLAR>
0

>  <SCORE.INTER.ROT>
7

>  <SCORE.INTER.SOLV>
7.53783

>  <SCORE.INTER.VDW>
-20.3856

>  <SCORE.INTER.norm>
-0.533687

>  <SCORE.INTRA>
0.452612

>  <SCORE.INTRA.DIHEDRAL>
-2.25298

>  <SCORE.INTRA.DIHEDRAL.0>
6.31833

>  <SCORE.INTRA.POLAR>
0

>  <SCORE.INTRA.POLAR.0>
0

>  <SCORE.INTRA.REPUL>
0

>  <SCORE.INTRA.REPUL.0>
0

>  <SCORE.INTRA.SOLV>
0.233237

>  <SCORE.INTRA.SOLV.lig_0>
-48.4015

>  <SCORE.INTRA.VDW>
1.46248

>  <SCORE.INTRA.VDW.0>
-2.83256

>  <SCORE.INTRA.norm>
0.0167634

>  <SCORE.RESTR>
0

>  <SCORE.RESTR.CAVITY>
0

>  <SCORE.RESTR.norm>
0

>  <SCORE.SYSTEM>
0

>  <SCORE.SYSTEM.CONST>
0

>  <SCORE.SYSTEM.DIHEDRAL>
0

>  <SCORE.SYSTEM.SOLV>
0

>  <SCORE.SYSTEM.norm>
0

>  <SCORE.heavy>
27

>  <SCORE.norm>
-0.516924

>  <RMSD>
15.640

$$$$
ligand
 OpenBabel02271912153D
libRbt.so/2013.1/901 2013/11/27
 27 29  0  0  0  0  0  0  0  0999 V2000
    3.9969    0.3723   23.6327 N   0  0  0  0  0  0  0  0  0  0  0  0
    5.2994    0.6495   22.9809 C   0  0  2  0  0  0  0  0  0  0  0  0
    5.6964    2.0799   23.3225 C   0  0  0  0  0  0  0  0  0  0  0  0
    4.9295    2.9875   23.7869 O   0  0  0  0  0  0  0  0  0  0  0  0
    5.1596    0.4021   21.4772 C   0  0  0  0  0  0  0  0  0  0  0  0
    6.4997    0.3985   20.7538 C   0  0  0  0  0  0  0  0  0  0  0  0
    7.7869   -0.8763   21.0266 S   0  0  2  0  0  0  0  0  0  0  0  0
    8.2692   -0.4238   22.6920 C   0  0  0  0  0  0  0  0  0  0  0  0
    9.0942   -0.1498   19.9876 C   0  0  0  0  0  0  0  0  0  0  0  0
    8.8407   -0.3982   18.5261 C   0  0  1  0  0  0  0  0  0  0  0  0
    7.6403    0.2581   18.0515 O   0  0  0  0  0  0  0  0  0  0  0  0
    9.9682    0.0356   17.6176 C   0  0  1  0  0  0  0  0  0  0  0  0
   10.7207   -1.0597   17.3235 O   0  0  0  0  0  0  0  0  0  0  0  0
    9.1888    0.3906   16.3730 C   0  0  1  0  0  0  0  0  0  0  0  0
    8.9851   -0.7841   15.7217 O   0  0  0  0  0  0  0  0  0  0  0  0
    7.8277    0.9478   16.8451 C   0  0  2  0  0  0  0  0  0  0  0  0
    6.8611    2.3918   23.0687 O   0  0  0  0  0  0  0  0  0  0  0  0
    8.9343    5.8183   15.3521 N   0  0  0  0  0  0  0  0  0  0  0  0
    8.5982    4.6191   14.6381 C   0  0  0  0  0  0  0  0  0  0  0  0
    8.3064    3.3396   15.1725 N   0  0  0  0  0  0  0  0  0  0  0  0
    8.3603    3.3473   16.4456 C   0  0  0  0  0  0  0  0  0  0  0  0
    8.6912    4.5294   17.2725 C   0  0  0  0  0  0  0  0  0  0  0  0
    8.9755    5.7186   16.7257 C   0  0  0  0  0  0  0  0  0  0  0  0
    9.2723    6.6812   17.5743 N   0  0  0  0  0  0  0  0  0  0  0  0
    8.6951    4.2857   18.5612 N   0  0  0  0  0  0  0  0  0  0  0  0
    8.3586    2.9447   18.5419 C   0  0  0  0  0  0  0  0  0  0  0  0
    8.1408    2.3500   17.2329 N   0  0  0  0  0  0  0  0  0  0  0  0
  2  1  1  1  0  0  0
  2  3  1  0  0  0  0
  2  5  1  0  0  0  0
  3  4  1  0  0  0  0
  3 17  1  0  0  0  0
  5  6  1  0  0  0  0
  7  6  1  6  0  0  0
  7  8  1  0  0  0  0
  7  9  1  0  0  0  0
 10  9  1  1  0  0  0
 10 11  1  0  0  0  0
 10 12  1  0  0  0  0
 11 16  1  0  0  0  0
 12 13  1  6  0  0  0
 12 14  1  0  0  0  0
 14 15  1  6  0  0  0
 14 16  1  0  0  0  0
 16 27  1  1  0  0  0
 18 19  2  0  0  0  0
 18 23  1  0  0  0  0
 19 20  1  0  0  0  0
 20 21  2  0  0  0  0
 21 22  1  0  0  0  0
 21 27  1  0  0  0  0
 22 23  2  0  0  0  0
 22 25  1  0  0  0  0
 23 24  1  0  0  0  0
 25 26  2  0  0  0  0
 26 27  1  0  0  0  0
M  END
>  <CHROM.1>
-16.10029489,-168.97399705,66.24301635,-69.54559784,-77.43273328,64.62499795
-178.43974206,7.87579838,1.67955612,19.07919506,2.46133418,-1.06000970,2.80017249

>  <Name>
ligand

>  <RI>
0

>  <Rbt.Current_Directory>
/home/itssahil/PROJECTS/Mol_Feturizer/Test_systems_manuscript/rnas/4aob

>  <Rbt.Executable>
rbdock ($Id: //depot/dev/client3/rdock/2013.1/src/exe/rbdock.cxx#4 $)

>  <Rbt.Library>
libRbt.so (2013.1, Build901 2013/11/27)

>  <Rbt.Parameter_File>
/export/apps/rDock/src/rDock_2013.1_src/data/scripts/dock_solv.prm

>  <Rbt.Receptor>
prm/blind_docking_40.prm

>  <SCORE>
-12.6894

>  <SCORE.INTER>
-11.0498

>  <SCORE.INTER.CONST>
1

>  <SCORE.INTER.POLAR>
0

>  <SCORE.INTER.ROT>
7

>  <SCORE.INTER.SOLV>
7.94644

>  <SCORE.INTER.VDW>
-18.282

>  <SCORE.INTER.norm>
-0.40925

>  <SCORE.INTRA>
-1.64121

>  <SCORE.INTRA.DIHEDRAL>
-2.41333

>  <SCORE.INTRA.DIHEDRAL.0>
6.31833

>  <SCORE.INTRA.POLAR>
0

>  <SCORE.INTRA.POLAR.0>
0

>  <SCORE.INTRA.REPUL>
0

>  <SCORE.INTRA.REPUL.0>
0

>  <SCORE.INTRA.SOLV>
-0.377341

>  <SCORE.INTRA.SOLV.lig_0>
-48.4015

>  <SCORE.INTRA.VDW>
-0.245872

>  <SCORE.INTRA.VDW.0>
-2.83256

>  <SCORE.INTRA.norm>
-0.0607854

>  <SCORE.RESTR>
0.00160562

>  <SCORE.RESTR.CAVITY>
0.00160562

>  <SCORE.RESTR.norm>
5.94674e-05

>  <SCORE.SYSTEM>
0

>  <SCORE.SYSTEM.CONST>
0

>  <SCORE.SYSTEM.DIHEDRAL>
0

>  <SCORE.SYSTEM.SOLV>
0

>  <SCORE.SYSTEM.norm>
0

>  <SCORE.heavy>
27

>  <SCORE.norm>
-0.469976

>  <RMSD>
15.665

$$$$
ligand
 OpenBabel02271912153D
libRbt.so/2013.1/901 2013/11/27
 27 29  0  0  0  0  0  0  0  0999 V2000
    6.7322    1.8070   17.0085 N   0  0  0  0  0  0  0  0  0  0  0  0
    7.5633    2.8742   17.6158 C   0  0  2  0  0  0  0  0  0  0  0  0
    8.3994    3.5011   16.5075 C   0  0  0  0  0  0  0  0  0  0  0  0
    8.7260    2.9518   15.4033 O   0  0  0  0  0  0  0  0  0  0  0  0
    8.4051    2.2635   18.7383 C   0  0  0  0  0  0  0  0  0  0  0  0
    9.3478    1.1752   18.2422 C   0  0  0  0  0  0  0  0  0  0  0  0
    9.4234   -0.5018   18.9761 S   0  0  2  0  0  0  0  0  0  0  0  0
   10.4150   -1.3047   17.7180 C   0  0  0  0  0  0  0  0  0  0  0  0
    7.7247   -1.0305   18.5876 C   0  0  0  0  0  0  0  0  0  0  0  0
    7.5909   -2.5282   18.6198 C   0  0  1  0  0  0  0  0  0  0  0  0
    8.1129   -3.1060   19.8406 O   0  0  0  0  0  0  0  0  0  0  0  0
    6.1727   -3.0285   18.4671 C   0  0  1  0  0  0  0  0  0  0  0  0
    5.9855   -3.3811   17.1659 O   0  0  0  0  0  0  0  0  0  0  0  0
    6.2506   -4.3058   19.2702 C   0  0  1  0  0  0  0  0  0  0  0  0
    6.7732   -5.2354   18.4287 O   0  0  0  0  0  0  0  0  0  0  0  0
    7.2500   -4.0476   20.4195 C   0  0  2  0  0  0  0  0  0  0  0  0
    8.8424    4.6277   16.7375 O   0  0  0  0  0  0  0  0  0  0  0  0
    3.7153   -4.1339   24.2501 N   0  0  0  0  0  0  0  0  0  0  0  0
    4.3635   -5.1586   23.4816 C   0  0  0  0  0  0  0  0  0  0  0  0
    5.3293   -4.9999   22.4570 N   0  0  0  0  0  0  0  0  0  0  0  0
    5.6052   -3.7703   22.2684 C   0  0  0  0  0  0  0  0  0  0  0  0
    4.9980   -2.6424   23.0099 C   0  0  0  0  0  0  0  0  0  0  0  0
    4.0764   -2.8357   23.9623 C   0  0  0  0  0  0  0  0  0  0  0  0
    3.6034   -1.7450   24.5294 N   0  0  0  0  0  0  0  0  0  0  0  0
    5.4346   -1.4660   22.6281 N   0  0  0  0  0  0  0  0  0  0  0  0
    6.3250   -1.8595   21.6462 C   0  0  0  0  0  0  0  0  0  0  0  0
    6.4460   -3.2903   21.4167 N   0  0  0  0  0  0  0  0  0  0  0  0
  2  1  1  6  0  0  0
  2  3  1  0  0  0  0
  2  5  1  0  0  0  0
  3  4  1  0  0  0  0
  3 17  1  0  0  0  0
  5  6  1  0  0  0  0
  7  6  1  6  0  0  0
  7  8  1  0  0  0  0
  7  9  1  0  0  0  0
 10  9  1  1  0  0  0
 10 11  1  0  0  0  0
 10 12  1  0  0  0  0
 11 16  1  0  0  0  0
 12 13  1  6  0  0  0
 12 14  1  0  0  0  0
 14 15  1  6  0  0  0
 14 16  1  0  0  0  0
 16 27  1  1  0  0  0
 18 19  2  0  0  0  0
 18 23  1  0  0  0  0
 19 20  1  0  0  0  0
 20 21  2  0  0  0  0
 21 22  1  0  0  0  0
 21 27  1  0  0  0  0
 22 23  2  0  0  0  0
 22 25  1  0  0  0  0
 23 24  1  0  0  0  0
 25 26  2  0  0  0  0
 26 27  1  0  0  0  0
M  END
>  <CHROM.1>
-23.63242158,60.86321181,-127.52511076,168.06196454,159.85471140,50.94917766
-173.51746851,6.98806153,-1.43169883,19.74814356,0.69876900,1.00467468,0.04406166

>  <Name>
ligand

>  <RI>
0

>  <Rbt.Current_Directory>
/home/itssahil/PROJECTS/Mol_Feturizer/Test_systems_manuscript/rnas/4aob

>  <Rbt.Executable>
rbdock ($Id: //depot/dev/client3/rdock/2013.1/src/exe/rbdock.cxx#4 $)

>  <Rbt.Library>
libRbt.so (2013.1, Build901 2013/11/27)

>  <Rbt.Parameter_File>
/export/apps/rDock/src/rDock_2013.1_src/data/scripts/dock_solv.prm

>  <Rbt.Receptor>
prm/blind_docking_80.prm

>  <SCORE>
-9.84666

>  <SCORE.INTER>
-11.842

>  <SCORE.INTER.CONST>
1

>  <SCORE.INTER.POLAR>
0

>  <SCORE.INTER.ROT>
7

>  <SCORE.INTER.SOLV>
12.11

>  <SCORE.INTER.VDW>
-20.198

>  <SCORE.INTER.norm>
-0.438594

>  <SCORE.INTRA>
1.99538

>  <SCORE.INTRA.DIHEDRAL>
2.63385

>  <SCORE.INTRA.DIHEDRAL.0>
6.31833

>  <SCORE.INTRA.POLAR>
0

>  <SCORE.INTRA.POLAR.0>
0

>  <SCORE.INTRA.REPUL>
0

>  <SCORE.INTRA.REPUL.0>
0

>  <SCORE.INTRA.SOLV>
1.26003

>  <SCORE.INTRA.SOLV.lig_0>
-48.4015

>  <SCORE.INTRA.VDW>
0.0484435

>  <SCORE.INTRA.VDW.0>
-2.83256

>  <SCORE.INTRA.norm>
0.0739031

>  <SCORE.RESTR>
0

>  <SCORE.RESTR.CAVITY>
0

>  <SCORE.RESTR.norm>
0

>  <SCORE.SYSTEM>
0

>  <SCORE.SYSTEM.CONST>
0

>  <SCORE.SYSTEM.DIHEDRAL>
0

>  <SCORE.SYSTEM.SOLV>
0

>  <SCORE.SYSTEM.norm>
0

>  <SCORE.heavy>
27

>  <SCORE.norm>
-0.364691

>  <RMSD>
15.709

$$$$
ligand
 OpenBabel02271912153D
libRbt.so/2013.1/901 2013/11/27
 27 29  0  0  0  0  0  0  0  0999 V2000
    4.9898   -0.4247   24.5388 N   0  0  0  0  0  0  0  0  0  0  0  0
    5.4233   -1.8352   24.6838 C   0  0  2  0  0  0  0  0  0  0  0  0
    6.7566   -1.8396   25.4204 C   0  0  0  0  0  0  0  0  0  0  0  0
    7.8639   -2.2929   24.9779 O   0  0  0  0  0  0  0  0  0  0  0  0
    5.4963   -2.4728   23.2946 C   0  0  0  0  0  0  0  0  0  0  0  0
    6.4926   -1.7753   22.3781 C   0  0  0  0  0  0  0  0  0  0  0  0
    6.6112   -2.1099   20.5807 S   0  0  2  0  0  0  0  0  0  0  0  0
    7.0258   -3.8515   20.6550 C   0  0  0  0  0  0  0  0  0  0  0  0
    8.2124   -1.2991   20.2723 C   0  0  0  0  0  0  0  0  0  0  0  0
    8.6693   -1.4996   18.8535 C   0  0  1  0  0  0  0  0  0  0  0  0
    7.7548   -0.9244   17.8892 O   0  0  0  0  0  0  0  0  0  0  0  0
   10.0380   -0.9313   18.5555 C   0  0  1  0  0  0  0  0  0  0  0  0
   10.9430   -1.9451   18.6299 O   0  0  0  0  0  0  0  0  0  0  0  0
    9.8728   -0.5852   17.0942 C   0  0  1  0  0  0  0  0  0  0  0  0
   10.0974   -1.7412   16.4170 O   0  0  0  0  0  0  0  0  0  0  0  0
    8.3986   -0.1661   16.9010 C   0  0  2  0  0  0  0  0  0  0  0  0
    6.7362   -1.4108   26.5755 O   0  0  0  0  0  0  0  0  0  0  0  0
    6.0368    4.4812   16.9020 N   0  0  0  0  0  0  0  0  0  0  0  0
    5.7245    3.2153   16.3015 C   0  0  0  0  0  0  0  0  0  0  0  0
    6.4579    2.0058   16.3870 N   0  0  0  0  0  0  0  0  0  0  0  0
    7.4969    2.1455   17.1113 C   0  0  0  0  0  0  0  0  0  0  0  0
    7.9027    3.4036   17.7770 C   0  0  0  0  0  0  0  0  0  0  0  0
    7.1876    4.5299   17.6582 C   0  0  0  0  0  0  0  0  0  0  0  0
    7.6712    5.5824   18.2852 N   0  0  0  0  0  0  0  0  0  0  0  0
    9.0181    3.3018   18.4594 N   0  0  0  0  0  0  0  0  0  0  0  0
    9.3095    1.9706   18.2250 C   0  0  0  0  0  0  0  0  0  0  0  0
    8.3680    1.2378   17.3936 N   0  0  0  0  0  0  0  0  0  0  0  0
  2  1  1  6  0  0  0
  2  3  1  0  0  0  0
  2  5  1  0  0  0  0
  3  4  1  0  0  0  0
  3 17  1  0  0  0  0
  5  6  1  0  0  0  0
  7  6  1  1  0  0  0
  7  8  1  0  0  0  0
  7  9  1  0  0  0  0
 10  9  1  1  0  0  0
 10 11  1  0  0  0  0
 10 12  1  0  0  0  0
 11 16  1  0  0  0  0
 12 13  1  6  0  0  0
 12 14  1  0  0  0  0
 14 15  1  6  0  0  0
 14 16  1  0  0  0  0
 16 27  1  1  0  0  0
 18 19  2  0  0  0  0
 18 23  1  0  0  0  0
 19 20  1  0  0  0  0
 20 21  2  0  0  0  0
 21 22  1  0  0  0  0
 21 27  1  0  0  0  0
 22 23  2  0  0  0  0
 22 25  1  0  0  0  0
 23 24  1  0  0  0  0
 25 26  2  0  0  0  0
 26 27  1  0  0  0  0
M  END
>  <CHROM.1>
-119.41373586,60.67552766,-169.34347356,-60.87189658,175.20281849,61.75198898
-94.70403721,7.62391279,-0.03526936,19.82084986,1.89382483,-1.00841284,2.41718306

>  <Name>
ligand

>  <RI>
0

>  <Rbt.Current_Directory>
/home/itssahil/PROJECTS/Mol_Feturizer/Test_systems_manuscript/rnas/4aob

>  <Rbt.Executable>
rbdock ($Id: //depot/dev/client3/rdock/2013.1/src/exe/rbdock.cxx#4 $)

>  <Rbt.Library>
libRbt.so (2013.1, Build901 2013/11/27)

>  <Rbt.Parameter_File>
/export/apps/rDock/src/rDock_2013.1_src/data/scripts/dock_solv.prm

>  <Rbt.Receptor>
prm/blind_docking_100.prm

>  <SCORE>
-13.0534

>  <SCORE.INTER>
-13.105

>  <SCORE.INTER.CONST>
1

>  <SCORE.INTER.POLAR>
0

>  <SCORE.INTER.ROT>
7

>  <SCORE.INTER.SOLV>
6.95061

>  <SCORE.INTER.VDW>
-19.3202

>  <SCORE.INTER.norm>
-0.48537

>  <SCORE.INTRA>
0.0515822

>  <SCORE.INTRA.DIHEDRAL>
-2.46202

>  <SCORE.INTRA.DIHEDRAL.0>
6.31833

>  <SCORE.INTRA.POLAR>
0

>  <SCORE.INTRA.POLAR.0>
0

>  <SCORE.INTRA.REPUL>
0

>  <SCORE.INTRA.REPUL.0>
0

>  <SCORE.INTRA.SOLV>
-0.117183

>  <SCORE.INTRA.SOLV.lig_0>
-48.4015

>  <SCORE.INTRA.VDW>
1.34118

>  <SCORE.INTRA.VDW.0>
-2.83256

>  <SCORE.INTRA.norm>
0.00191045

>  <SCORE.RESTR>
0

>  <SCORE.RESTR.CAVITY>
0

>  <SCORE.RESTR.norm>
0

>  <SCORE.SYSTEM>
0

>  <SCORE.SYSTEM.CONST>
0

>  <SCORE.SYSTEM.DIHEDRAL>
0

>  <SCORE.SYSTEM.SOLV>
0

>  <SCORE.SYSTEM.norm>
0

>  <SCORE.heavy>
27

>  <SCORE.norm>
-0.483459

>  <RMSD>
15.740

$$$$
ligand
 OpenBabel02271912153D
libRbt.so/2013.1/901 2013/11/27
 27 29  0  0  0  0  0  0  0  0999 V2000
    8.5444    5.4649   15.9680 N   0  0  0  0  0  0  0  0  0  0  0  0
    8.2277    4.3481   15.0456 C   0  0  2  0  0  0  0  0  0  0  0  0
    6.8504    4.6116   14.4506 C   0  0  0  0  0  0  0  0  0  0  0  0
    5.7407    4.6063   15.0799 O   0  0  0  0  0  0  0  0  0  0  0  0
    8.3112    3.0312   15.8204 C   0  0  0  0  0  0  0  0  0  0  0  0
    7.5133    3.0592   17.1173 C   0  0  0  0  0  0  0  0  0  0  0  0
    7.2866    1.5921   18.1910 S   0  0  2  0  0  0  0  0  0  0  0  0
    6.4733    2.3903   19.5738 C   0  0  0  0  0  0  0  0  0  0  0  0
    9.0103    1.4129   18.7506 C   0  0  0  0  0  0  0  0  0  0  0  0
    9.7434    0.3671   17.9564 C   0  0  1  0  0  0  0  0  0  0  0  0
   10.5930   -0.4640   18.7837 O   0  0  0  0  0  0  0  0  0  0  0  0
    8.8439   -0.5633   17.1750 C   0  0  1  0  0  0  0  0  0  0  0  0
    8.7862   -0.1170   15.8905 O   0  0  0  0  0  0  0  0  0  0  0  0
    9.6878   -1.8164   17.1760 C   0  0  1  0  0  0  0  0  0  0  0  0
   10.5747   -1.6607   16.1588 O   0  0  0  0  0  0  0  0  0  0  0  0
   10.4558   -1.8336   18.5162 C   0  0  2  0  0  0  0  0  0  0  0  0
    6.8145    4.7911   13.2320 O   0  0  0  0  0  0  0  0  0  0  0  0
    8.1321   -5.8981   20.8085 N   0  0  0  0  0  0  0  0  0  0  0  0
    9.2117   -5.7785   19.8700 C   0  0  0  0  0  0  0  0  0  0  0  0
    9.7630   -4.5936   19.3225 N   0  0  0  0  0  0  0  0  0  0  0  0
    9.1792   -3.5577   19.7806 C   0  0  0  0  0  0  0  0  0  0  0  0
    8.0633   -3.5743   20.7526 C   0  0  0  0  0  0  0  0  0  0  0  0
    7.5616   -4.7187   21.2349 C   0  0  0  0  0  0  0  0  0  0  0  0
    6.5569   -4.5918   22.0772 N   0  0  0  0  0  0  0  0  0  0  0  0
    7.6196   -2.3801   21.0649 N   0  0  0  0  0  0  0  0  0  0  0  0
    8.4667   -1.6107   20.2887 C   0  0  0  0  0  0  0  0  0  0  0  0
    9.4461   -2.3301   19.4900 N   0  0  0  0  0  0  0  0  0  0  0  0
  2  1  1  1  0  0  0
  2  3  1  0  0  0  0
  2  5  1  0  0  0  0
  3  4  1  0  0  0  0
  3 17  1  0  0  0  0
  5  6  1  0  0  0  0
  7  6  1  6  0  0  0
  7  8  1  0  0  0  0
  7  9  1  0  0  0  0
 10  9  1  1  0  0  0
 10 11  1  0  0  0  0
 10 12  1  0  0  0  0
 11 16  1  0  0  0  0
 12 13  1  6  0  0  0
 12 14  1  0  0  0  0
 14 15  1  6  0  0  0
 14 16  1  0  0  0  0
 16 27  1  1  0  0  0
 18 19  2  0  0  0  0
 18 23  1  0  0  0  0
 19 20  1  0  0  0  0
 20 21  2  0  0  0  0
 21 22  1  0  0  0  0
 21 27  1  0  0  0  0
 22 23  2  0  0  0  0
 22 25  1  0  0  0  0
 23 24  1  0  0  0  0
 25 26  2  0  0  0  0
 26 27  1  0  0  0  0
M  END
>  <CHROM.1>
-67.01131799,50.44780035,174.20315496,172.98064610,-98.42384018,-138.82162840
-166.36825796,8.36251730,-0.16175922,18.05335274,1.73830610,0.73972390,-0.65351043

>  <Name>
ligand

>  <RI>
0

>  <Rbt.Current_Directory>
/home/itssahil/PROJECTS/Mol_Feturizer/Test_systems_manuscript/rnas/4aob

>  <Rbt.Executable>
rbdock ($Id: //depot/dev/client3/rdock/2013.1/src/exe/rbdock.cxx#4 $)

>  <Rbt.Library>
libRbt.so (2013.1, Build901 2013/11/27)

>  <Rbt.Parameter_File>
/export/apps/rDock/src/rDock_2013.1_src/data/scripts/dock_solv.prm

>  <Rbt.Receptor>
prm/blind_docking_80.prm

>  <SCORE>
-8.84443

>  <SCORE.INTER>
-11.6561

>  <SCORE.INTER.CONST>
1

>  <SCORE.INTER.POLAR>
0

>  <SCORE.INTER.ROT>
7

>  <SCORE.INTER.SOLV>
10.272

>  <SCORE.INTER.VDW>
-19.4614

>  <SCORE.INTER.norm>
-0.431709

>  <SCORE.INTRA>
2.81171

>  <SCORE.INTRA.DIHEDRAL>
3.30559

>  <SCORE.INTRA.DIHEDRAL.0>
6.31833

>  <SCORE.INTRA.POLAR>
0

>  <SCORE.INTRA.POLAR.0>
0

>  <SCORE.INTRA.REPUL>
0

>  <SCORE.INTRA.REPUL.0>
0

>  <SCORE.INTRA.SOLV>
0.443478

>  <SCORE.INTRA.SOLV.lig_0>
-48.4015

>  <SCORE.INTRA.VDW>
0.937173

>  <SCORE.INTRA.VDW.0>
-2.83256

>  <SCORE.INTRA.norm>
0.104137

>  <SCORE.RESTR>
0

>  <SCORE.RESTR.CAVITY>
0

>  <SCORE.RESTR.norm>
0

>  <SCORE.SYSTEM>
0

>  <SCORE.SYSTEM.CONST>
0

>  <SCORE.SYSTEM.DIHEDRAL>
0

>  <SCORE.SYSTEM.SOLV>
0

>  <SCORE.SYSTEM.norm>
0

>  <SCORE.heavy>
27

>  <SCORE.norm>
-0.327571

>  <RMSD>
15.759

$$$$
ligand
 OpenBabel02271912153D
libRbt.so/2013.1/901 2013/11/27
 27 29  0  0  0  0  0  0  0  0999 V2000
    6.9319   -6.4054   23.3482 N   0  0  0  0  0  0  0  0  0  0  0  0
    6.6622   -5.4200   22.2737 C   0  0  2  0  0  0  0  0  0  0  0  0
    6.9593   -6.0924   20.9396 C   0  0  0  0  0  0  0  0  0  0  0  0
    6.2494   -6.0217   19.8820 O   0  0  0  0  0  0  0  0  0  0  0  0
    7.5114   -4.1723   22.5258 C   0  0  0  0  0  0  0  0  0  0  0  0
    7.2546   -3.0693   21.5076 C   0  0  0  0  0  0  0  0  0  0  0  0
    8.1650   -1.4795   21.4952 S   0  0  2  0  0  0  0  0  0  0  0  0
    7.3453   -0.6860   22.8769 C   0  0  0  0  0  0  0  0  0  0  0  0
    7.3669   -0.7363   20.0368 C   0  0  0  0  0  0  0  0  0  0  0  0
    7.9595    0.6059   19.7062 C   0  0  1  0  0  0  0  0  0  0  0  0
    9.3910    0.5442   19.4963 O   0  0  0  0  0  0  0  0  0  0  0  0
    7.3632    1.2640   18.4830 C   0  0  1  0  0  0  0  0  0  0  0  0
    6.4270    2.1604   18.8980 O   0  0  0  0  0  0  0  0  0  0  0  0
    8.5548    2.0544   17.9954 C   0  0  1  0  0  0  0  0  0  0  0  0
    8.5598    3.1979   18.7288 O   0  0  0  0  0  0  0  0  0  0  0  0
    9.8107    1.2258   18.3451 C   0  0  2  0  0  0  0  0  0  0  0  0
    7.9560   -6.8163   20.9104 O   0  0  0  0  0  0  0  0  0  0  0  0
   11.3274   -3.5221   16.8179 N   0  0  0  0  0  0  0  0  0  0  0  0
   11.4033   -2.8151   18.0649 C   0  0  0  0  0  0  0  0  0  0  0  0
   10.9374   -1.5088   18.3557 N   0  0  0  0  0  0  0  0  0  0  0  0
   10.3897   -0.9758   17.3360 C   0  0  0  0  0  0  0  0  0  0  0  0
   10.2572   -1.6217   16.0109 C   0  0  0  0  0  0  0  0  0  0  0  0
   10.7251   -2.8541   15.7741 C   0  0  0  0  0  0  0  0  0  0  0  0
   10.5595   -3.3020   14.5465 N   0  0  0  0  0  0  0  0  0  0  0  0
    9.6664   -0.8678   15.1148 N   0  0  0  0  0  0  0  0  0  0  0  0
    9.4217    0.2544   15.8848 C   0  0  0  0  0  0  0  0  0  0  0  0
    9.8605    0.1981   17.2700 N   0  0  0  0  0  0  0  0  0  0  0  0
  2  1  1  1  0  0  0
  2  3  1  0  0  0  0
  2  5  1  0  0  0  0
  3  4  1  0  0  0  0
  3 17  1  0  0  0  0
  5  6  1  0  0  0  0
  7  6  1  1  0  0  0
  7  8  1  0  0  0  0
  7  9  1  0  0  0  0
 10  9  1  6  0  0  0
 10 11  1  0  0  0  0
 10 12  1  0  0  0  0
 11 16  1  0  0  0  0
 12 13  1  1  0  0  0
 12 14  1  0  0  0  0
 14 15  1  1  0  0  0
 14 16  1  0  0  0  0
 16 27  1  6  0  0  0
 18 19  2  0  0  0  0
 18 23  1  0  0  0  0
 19 20  1  0  0  0  0
 20 21  2  0  0  0  0
 21 22  1  0  0  0  0
 21 27  1  0  0  0  0
 22 23  2  0  0  0  0
 22 25  1  0  0  0  0
 23 24  1  0  0  0  0
 25 26  2  0  0  0  0
 26 27  1  0  0  0  0
M  END
>  <CHROM.1>
136.65855347,-177.24984858,-177.32471667,-75.91118859,-177.31204849,56.39111070
-46.93038254,8.62295661,-1.71465481,19.17390129,2.18695410,-1.02980959,2.99884503

>  <Name>
ligand

>  <RI>
0

>  <Rbt.Current_Directory>
/home/itssahil/PROJECTS/Mol_Feturizer/Test_systems_manuscript/rnas/4aob

>  <Rbt.Executable>
rbdock ($Id: //depot/dev/client3/rdock/2013.1/src/exe/rbdock.cxx#4 $)

>  <Rbt.Library>
libRbt.so (2013.1, Build901 2013/11/27)

>  <Rbt.Parameter_File>
/export/apps/rDock/src/rDock_2013.1_src/data/scripts/dock_solv.prm

>  <Rbt.Receptor>
prm/blind_docking_60.prm

>  <SCORE>
-15.3942

>  <SCORE.INTER>
-14.0342

>  <SCORE.INTER.CONST>
1

>  <SCORE.INTER.POLAR>
0

>  <SCORE.INTER.ROT>
7

>  <SCORE.INTER.SOLV>
9.03411

>  <SCORE.INTER.VDW>
-20.6342

>  <SCORE.INTER.norm>
-0.519786

>  <SCORE.INTRA>
-1.35998

>  <SCORE.INTRA.DIHEDRAL>
-2.44343

>  <SCORE.INTRA.DIHEDRAL.0>
6.31833

>  <SCORE.INTRA.POLAR>
0

>  <SCORE.INTRA.POLAR.0>
0

>  <SCORE.INTRA.REPUL>
0

>  <SCORE.INTRA.REPUL.0>
0

>  <SCORE.INTRA.SOLV>
-0.731653

>  <SCORE.INTRA.SOLV.lig_0>
-48.4015

>  <SCORE.INTRA.VDW>
0.227567

>  <SCORE.INTRA.VDW.0>
-2.83256

>  <SCORE.INTRA.norm>
-0.0503695

>  <SCORE.RESTR>
0

>  <SCORE.RESTR.CAVITY>
0

>  <SCORE.RESTR.norm>
0

>  <SCORE.SYSTEM>
0

>  <SCORE.SYSTEM.CONST>
0

>  <SCORE.SYSTEM.DIHEDRAL>
0

>  <SCORE.SYSTEM.SOLV>
0

>  <SCORE.SYSTEM.norm>
0

>  <SCORE.heavy>
27

>  <SCORE.norm>
-0.570155

>  <RMSD>
15.762

$$$$
ligand
 OpenBabel02271912153D
libRbt.so/2013.1/901 2013/11/27
 27 29  0  0  0  0  0  0  0  0999 V2000
    7.2948    4.3023   18.3793 N   0  0  0  0  0  0  0  0  0  0  0  0
    8.2200    3.2985   17.8008 C   0  0  2  0  0  0  0  0  0  0  0  0
    7.7281    2.9652   16.3982 C   0  0  0  0  0  0  0  0  0  0  0  0
    6.5334    2.6641   16.0671 O   0  0  0  0  0  0  0  0  0  0  0  0
    8.2712    2.0836   18.7297 C   0  0  0  0  0  0  0  0  0  0  0  0
    9.3015    1.0508   18.2926 C   0  0  0  0  0  0  0  0  0  0  0  0
    9.4142   -0.6277   19.0182 S   0  0  2  0  0  0  0  0  0  0  0  0
   10.4739   -1.3853   17.7879 C   0  0  0  0  0  0  0  0  0  0  0  0
    7.7490   -1.2143   18.5719 C   0  0  0  0  0  0  0  0  0  0  0  0
    7.6466   -2.7118   18.6665 C   0  0  1  0  0  0  0  0  0  0  0  0
    8.1040   -3.2200   19.9430 O   0  0  0  0  0  0  0  0  0  0  0  0
    6.2522   -3.2540   18.4509 C   0  0  1  0  0  0  0  0  0  0  0  0
    6.1545   -3.6703   17.1587 O   0  0  0  0  0  0  0  0  0  0  0  0
    6.3080   -4.4908   19.3166 C   0  0  1  0  0  0  0  0  0  0  0  0
    6.9027   -5.4446   18.5537 O   0  0  0  0  0  0  0  0  0  0  0  0
    7.2277   -4.1553   20.5116 C   0  0  2  0  0  0  0  0  0  0  0  0
    8.5896    2.9332   15.5178 O   0  0  0  0  0  0  0  0  0  0  0  0
    3.8302   -4.1455   24.4653 N   0  0  0  0  0  0  0  0  0  0  0  0
    4.6008   -5.1756   23.8285 C   0  0  0  0  0  0  0  0  0  0  0  0
    5.5104   -5.0428   22.7501 N   0  0  0  0  0  0  0  0  0  0  0  0
    5.6027   -3.8300   22.3702 C   0  0  0  0  0  0  0  0  0  0  0  0
    4.8571   -2.6973   22.9632 C   0  0  0  0  0  0  0  0  0  0  0  0
    3.9947   -2.8689   23.9735 C   0  0  0  0  0  0  0  0  0  0  0  0
    3.3832   -1.7806   24.3938 N   0  0  0  0  0  0  0  0  0  0  0  0
    5.1116   -1.5437   22.3933 N   0  0  0  0  0  0  0  0  0  0  0  0
    6.0267   -1.9552   21.4418 C   0  0  0  0  0  0  0  0  0  0  0  0
    6.3463   -3.3736   21.4208 N   0  0  0  0  0  0  0  0  0  0  0  0
  2  1  1  1  0  0  0
  2  3  1  0  0  0  0
  2  5  1  0  0  0  0
  3  4  1  0  0  0  0
  3 17  1  0  0  0  0
  5  6  1  0  0  0  0
  7  6  1  6  0  0  0
  7  8  1  0  0  0  0
  7  9  1  0  0  0  0
 10  9  1  1  0  0  0
 10 11  1  0  0  0  0
 10 12  1  0  0  0  0
 11 16  1  0  0  0  0
 12 13  1  6  0  0  0
 12 14  1  0  0  0  0
 14 15  1  6  0  0  0
 14 16  1  0  0  0  0
 16 27  1  1  0  0  0
 18 19  2  0  0  0  0
 18 23  1  0  0  0  0
 19 20  1  0  0  0  0
 20 21  2  0  0  0  0
 21 22  1  0  0  0  0
 21 27  1  0  0  0  0
 22 23  2  0  0  0  0
 22 25  1  0  0  0  0
 23 24  1  0  0  0  0
 25 26  2  0  0  0  0
 26 27  1  0  0  0  0
M  END
>  <CHROM.1>
-48.81835769,-174.33926564,-169.38629460,165.75292884,163.09317499,51.67201961
-162.94552670,6.90146992,-1.52225366,19.81062374,0.84423326,0.96663544,-0.11197340

>  <Name>
ligand

>  <RI>
0

>  <Rbt.Current_Directory>
/home/itssahil/PROJECTS/Mol_Feturizer/Test_systems_manuscript/rnas/4aob

>  <Rbt.Executable>
rbdock ($Id: //depot/dev/client3/rdock/2013.1/src/exe/rbdock.cxx#4 $)

>  <Rbt.Library>
libRbt.so (2013.1, Build901 2013/11/27)

>  <Rbt.Parameter_File>
/export/apps/rDock/src/rDock_2013.1_src/data/scripts/dock_solv.prm

>  <Rbt.Receptor>
prm/blind_docking_80.prm

>  <SCORE>
-14.9825

>  <SCORE.INTER>
-13.318

>  <SCORE.INTER.CONST>
1

>  <SCORE.INTER.POLAR>
0

>  <SCORE.INTER.ROT>
7

>  <SCORE.INTER.SOLV>
9.07022

>  <SCORE.INTER.VDW>
-20.1688

>  <SCORE.INTER.norm>
-0.49326

>  <SCORE.INTRA>
-1.66449

>  <SCORE.INTRA.DIHEDRAL>
-2.27089

>  <SCORE.INTRA.DIHEDRAL.0>
6.31833

>  <SCORE.INTRA.POLAR>
0

>  <SCORE.INTRA.POLAR.0>
0

>  <SCORE.INTRA.REPUL>
0

>  <SCORE.INTRA.REPUL.0>
0

>  <SCORE.INTRA.SOLV>
-0.796471

>  <SCORE.INTRA.SOLV.lig_0>
-48.4015

>  <SCORE.INTRA.VDW>
-0.13081

>  <SCORE.INTRA.VDW.0>
-2.83256

>  <SCORE.INTRA.norm>
-0.0616478

>  <SCORE.RESTR>
0

>  <SCORE.RESTR.CAVITY>
0

>  <SCORE.RESTR.norm>
0

>  <SCORE.SYSTEM>
0

>  <SCORE.SYSTEM.CONST>
0

>  <SCORE.SYSTEM.DIHEDRAL>
0

>  <SCORE.SYSTEM.SOLV>
0

>  <SCORE.SYSTEM.norm>
0

>  <SCORE.heavy>
27

>  <SCORE.norm>
-0.554908

>  <RMSD>
15.762

$$$$
ligand
 OpenBabel02271912153D
libRbt.so/2013.1/901 2013/11/27
 27 29  0  0  0  0  0  0  0  0999 V2000
    7.8711    4.9538   16.7441 N   0  0  0  0  0  0  0  0  0  0  0  0
    7.3907    3.9931   15.7220 C   0  0  2  0  0  0  0  0  0  0  0  0
    6.1994    4.6241   15.0128 C   0  0  0  0  0  0  0  0  0  0  0  0
    6.1447    4.9680   13.7855 O   0  0  0  0  0  0  0  0  0  0  0  0
    7.0539    2.6690   16.4111 C   0  0  0  0  0  0  0  0  0  0  0  0
    8.2649    2.0244   17.0724 C   0  0  0  0  0  0  0  0  0  0  0  0
    8.1501    0.5743   18.1862 S   0  0  2  0  0  0  0  0  0  0  0  0
    9.8426    0.5482   18.7740 C   0  0  0  0  0  0  0  0  0  0  0  0
    8.1166   -0.7273   16.9130 C   0  0  0  0  0  0  0  0  0  0  0  0
    7.7805   -2.0692   17.5030 C   0  0  1  0  0  0  0  0  0  0  0  0
    8.2971   -2.2302   18.8462 O   0  0  0  0  0  0  0  0  0  0  0  0
    6.3000   -2.3686   17.5619 C   0  0  1  0  0  0  0  0  0  0  0  0
    5.9810   -3.1417   16.4882 O   0  0  0  0  0  0  0  0  0  0  0  0
    6.2540   -3.2572   18.7828 C   0  0  1  0  0  0  0  0  0  0  0  0
    6.5874   -4.4989   18.3440 O   0  0  0  0  0  0  0  0  0  0  0  0
    7.3528   -2.7501   19.7429 C   0  0  2  0  0  0  0  0  0  0  0  0
    5.2202    4.8712   15.7188 O   0  0  0  0  0  0  0  0  0  0  0  0
    7.7043    1.0680   23.2746 N   0  0  0  0  0  0  0  0  0  0  0  0
    8.6096    0.0453   22.8331 C   0  0  0  0  0  0  0  0  0  0  0  0
    8.3911   -0.9430   21.8415 N   0  0  0  0  0  0  0  0  0  0  0  0
    7.2321   -0.8301   21.3240 C   0  0  0  0  0  0  0  0  0  0  0  0
    6.2302    0.1906   21.7045 C   0  0  0  0  0  0  0  0  0  0  0  0
    6.4721    1.0988   22.6588 C   0  0  0  0  0  0  0  0  0  0  0  0
    5.4879    1.9365   22.9129 N   0  0  0  0  0  0  0  0  0  0  0  0
    5.1046    0.0974   21.0377 N   0  0  0  0  0  0  0  0  0  0  0  0
    5.4054   -0.9841   20.2303 C   0  0  0  0  0  0  0  0  0  0  0  0
    6.7279   -1.5665   20.3934 N   0  0  0  0  0  0  0  0  0  0  0  0
  2  1  1  1  0  0  0
  2  3  1  0  0  0  0
  2  5  1  0  0  0  0
  3  4  1  0  0  0  0
  3 17  1  0  0  0  0
  5  6  1  0  0  0  0
  7  6  1  6  0  0  0
  7  8  1  0  0  0  0
  7  9  1  0  0  0  0
 10  9  1  1  0  0  0
 10 11  1  0  0  0  0
 10 12  1  0  0  0  0
 11 16  1  0  0  0  0
 12 13  1  6  0  0  0
 12 14  1  0  0  0  0
 14 15  1  6  0  0  0
 14 16  1  0  0  0  0
 16 27  1  1  0  0  0
 18 19  2  0  0  0  0
 18 23  1  0  0  0  0
 19 20  1  0  0  0  0
 20 21  2  0  0  0  0
 21 22  1  0  0  0  0
 21 27  1  0  0  0  0
 22 23  2  0  0  0  0
 22 25  1  0  0  0  0
 23 24  1  0  0  0  0
 25 26  2  0  0  0  0
 26 27  1  0  0  0  0
M  END
>  <CHROM.1>
114.75915874,-62.21309576,170.48000106,-171.21441603,-169.99674377,-33.47028852
-76.77438307,7.09798165,0.32082976,18.75145756,2.91032874,1.53238368,-2.06377074

>  <Name>
ligand

>  <RI>
0

>  <Rbt.Current_Directory>
/home/itssahil/PROJECTS/Mol_Feturizer/Test_systems_manuscript/rnas/4aob

>  <Rbt.Executable>
rbdock ($Id: //depot/dev/client3/rdock/2013.1/src/exe/rbdock.cxx#4 $)

>  <Rbt.Library>
libRbt.so (2013.1, Build901 2013/11/27)

>  <Rbt.Parameter_File>
/export/apps/rDock/src/rDock_2013.1_src/data/scripts/dock_solv.prm

>  <Rbt.Receptor>
prm/blind_docking_80.prm

>  <SCORE>
-14.6857

>  <SCORE.INTER>
-14.5588

>  <SCORE.INTER.CONST>
1

>  <SCORE.INTER.POLAR>
0

>  <SCORE.INTER.ROT>
7

>  <SCORE.INTER.SOLV>
7.58987

>  <SCORE.INTER.VDW>
-20.5025

>  <SCORE.INTER.norm>
-0.539214

>  <SCORE.INTRA>
-0.126914

>  <SCORE.INTRA.DIHEDRAL>
1.09707

>  <SCORE.INTRA.DIHEDRAL.0>
6.31833

>  <SCORE.INTRA.POLAR>
0

>  <SCORE.INTRA.POLAR.0>
0

>  <SCORE.INTRA.REPUL>
0

>  <SCORE.INTRA.REPUL.0>
0

>  <SCORE.INTRA.SOLV>
0.1695

>  <SCORE.INTRA.SOLV.lig_0>
-48.4015

>  <SCORE.INTRA.VDW>
-0.760201

>  <SCORE.INTRA.VDW.0>
-2.83256

>  <SCORE.INTRA.norm>
-0.00470052

>  <SCORE.RESTR>
0

>  <SCORE.RESTR.CAVITY>
0

>  <SCORE.RESTR.norm>
0

>  <SCORE.SYSTEM>
0

>  <SCORE.SYSTEM.CONST>
0

>  <SCORE.SYSTEM.DIHEDRAL>
0

>  <SCORE.SYSTEM.SOLV>
0

>  <SCORE.SYSTEM.norm>
0

>  <SCORE.heavy>
27

>  <SCORE.norm>
-0.543914

>  <RMSD>
15.780

$$$$
ligand
 OpenBabel02271912153D
libRbt.so/2013.1/901 2013/11/27
 27 29  0  0  0  0  0  0  0  0999 V2000
    6.6175   -5.0647   22.1632 N   0  0  0  0  0  0  0  0  0  0  0  0
    6.9451   -6.0129   21.0714 C   0  0  2  0  0  0  0  0  0  0  0  0
    8.0374   -6.9464   21.5771 C   0  0  0  0  0  0  0  0  0  0  0  0
    9.0272   -6.6234   22.3143 O   0  0  0  0  0  0  0  0  0  0  0  0
    7.3563   -5.2139   19.8328 C   0  0  0  0  0  0  0  0  0  0  0  0
    6.2165   -4.3780   19.2658 C   0  0  0  0  0  0  0  0  0  0  0  0
    6.4664   -3.0233   18.0580 S   0  0  2  0  0  0  0  0  0  0  0  0
    7.3024   -3.9535   16.7750 C   0  0  0  0  0  0  0  0  0  0  0  0
    7.8211   -2.1595   18.9154 C   0  0  0  0  0  0  0  0  0  0  0  0
    8.2968   -0.9653   18.1348 C   0  0  1  0  0  0  0  0  0  0  0  0
    7.2181   -0.0642   17.7863 O   0  0  0  0  0  0  0  0  0  0  0  0
    9.3486   -0.1405   18.8408 C   0  0  1  0  0  0  0  0  0  0  0  0
   10.5682   -0.5104   18.3632 O   0  0  0  0  0  0  0  0  0  0  0  0
    9.0422    1.2265   18.2752 C   0  0  1  0  0  0  0  0  0  0  0  0
    9.6720    1.2741   17.0725 O   0  0  0  0  0  0  0  0  0  0  0  0
    7.5154    1.2810   18.0474 C   0  0  2  0  0  0  0  0  0  0  0  0
    7.9763   -8.1121   21.1822 O   0  0  0  0  0  0  0  0  0  0  0  0
    4.3532   -0.1745   21.9277 N   0  0  0  0  0  0  0  0  0  0  0  0
    4.7082   -0.7661   20.6689 C   0  0  0  0  0  0  0  0  0  0  0  0
    5.6025   -0.2636   19.6914 N   0  0  0  0  0  0  0  0  0  0  0  0
    6.1162    0.8427   20.0600 C   0  0  0  0  0  0  0  0  0  0  0  0
    5.8207    1.5301   21.3370 C   0  0  0  0  0  0  0  0  0  0  0  0
    4.9565    1.0273   22.2282 C   0  0  0  0  0  0  0  0  0  0  0  0
    4.7703    1.7496   23.3138 N   0  0  0  0  0  0  0  0  0  0  0  0
    6.4645    2.6631   21.4860 N   0  0  0  0  0  0  0  0  0  0  0  0
    7.1722    2.6825   20.2982 C   0  0  0  0  0  0  0  0  0  0  0  0
    6.9700    1.5529   19.4049 N   0  0  0  0  0  0  0  0  0  0  0  0
  2  1  1  1  0  0  0
  2  3  1  0  0  0  0
  2  5  1  0  0  0  0
  3  4  1  0  0  0  0
  3 17  1  0  0  0  0
  5  6  1  0  0  0  0
  7  6  1  1  0  0  0
  7  8  1  0  0  0  0
  7  9  1  0  0  0  0
 10  9  1  1  0  0  0
 10 11  1  0  0  0  0
 10 12  1  0  0  0  0
 11 16  1  0  0  0  0
 12 13  1  6  0  0  0
 12 14  1  0  0  0  0
 14 15  1  6  0  0  0
 14 16  1  0  0  0  0
 16 27  1  1  0  0  0
 18 19  2  0  0  0  0
 18 23  1  0  0  0  0
 19 20  1  0  0  0  0
 20 21  2  0  0  0  0
 21 22  1  0  0  0  0
 21 27  1  0  0  0  0
 22 23  2  0  0  0  0
 22 25  1  0  0  0  0
 23 24  1  0  0  0  0
 25 26  2  0  0  0  0
 26 27  1  0  0  0  0
M  END
>  <CHROM.1>
-38.80078240,-65.17502141,164.86826751,56.91209863,178.72066052,53.30927290
-16.24580914,7.15604424,-1.58540415,19.79908015,1.42510455,-0.91929617,2.92011265

>  <Name>
ligand

>  <RI>
0

>  <Rbt.Current_Directory>
/home/itssahil/PROJECTS/Mol_Feturizer/Test_systems_manuscript/rnas/4aob

>  <Rbt.Executable>
rbdock ($Id: //depot/dev/client3/rdock/2013.1/src/exe/rbdock.cxx#4 $)

>  <Rbt.Library>
libRbt.so (2013.1, Build901 2013/11/27)

>  <Rbt.Parameter_File>
/export/apps/rDock/src/rDock_2013.1_src/data/scripts/dock_solv.prm

>  <Rbt.Receptor>
prm/blind_docking_60.prm

>  <SCORE>
-13.7491

>  <SCORE.INTER>
-13.2363

>  <SCORE.INTER.CONST>
1

>  <SCORE.INTER.POLAR>
0

>  <SCORE.INTER.ROT>
7

>  <SCORE.INTER.SOLV>
8.72681

>  <SCORE.INTER.VDW>
-19.9998

>  <SCORE.INTER.norm>
-0.490233

>  <SCORE.INTRA>
-0.527502

>  <SCORE.INTRA.DIHEDRAL>
-2.04929

>  <SCORE.INTRA.DIHEDRAL.0>
6.31833

>  <SCORE.INTRA.POLAR>
0

>  <SCORE.INTRA.POLAR.0>
0

>  <SCORE.INTRA.REPUL>
0

>  <SCORE.INTRA.REPUL.0>
0

>  <SCORE.INTRA.SOLV>
0.089812

>  <SCORE.INTRA.SOLV.lig_0>
-48.4015

>  <SCORE.INTRA.VDW>
0.452236

>  <SCORE.INTRA.VDW.0>
-2.83256

>  <SCORE.INTRA.norm>
-0.0195371

>  <SCORE.RESTR>
0.0146685

>  <SCORE.RESTR.CAVITY>
0.0146685

>  <SCORE.RESTR.norm>
0.000543278

>  <SCORE.SYSTEM>
0

>  <SCORE.SYSTEM.CONST>
0

>  <SCORE.SYSTEM.DIHEDRAL>
0

>  <SCORE.SYSTEM.SOLV>
0

>  <SCORE.SYSTEM.norm>
0

>  <SCORE.heavy>
27

>  <SCORE.norm>
-0.509227

>  <RMSD>
15.793

$$$$
ligand
 OpenBabel02271912153D
libRbt.so/2013.1/901 2013/11/27
 27 29  0  0  0  0  0  0  0  0999 V2000
    6.7879   -6.1418   23.0949 N   0  0  0  0  0  0  0  0  0  0  0  0
    6.3962   -5.0488   22.1728 C   0  0  2  0  0  0  0  0  0  0  0  0
    6.3543   -5.6220   20.7621 C   0  0  0  0  0  0  0  0  0  0  0  0
    7.2417   -6.3601   20.2186 O   0  0  0  0  0  0  0  0  0  0  0  0
    7.3885   -3.8944   22.3285 C   0  0  0  0  0  0  0  0  0  0  0  0
    7.0974   -2.7360   21.3838 C   0  0  0  0  0  0  0  0  0  0  0  0
    8.2411   -1.3259   21.1384 S   0  0  2  0  0  0  0  0  0  0  0  0
    7.9210   -0.4469   22.6666 C   0  0  0  0  0  0  0  0  0  0  0  0
    7.2633   -0.4122   19.9034 C   0  0  0  0  0  0  0  0  0  0  0  0
    7.9560    0.8523   19.4754 C   0  0  1  0  0  0  0  0  0  0  0  0
    9.3835    0.6744   19.3092 O   0  0  0  0  0  0  0  0  0  0  0  0
    7.4326    1.4413   18.1854 C   0  0  1  0  0  0  0  0  0  0  0  0
    6.5539    2.4326   18.4980 O   0  0  0  0  0  0  0  0  0  0  0  0
    8.6867    2.1027   17.6638 C   0  0  1  0  0  0  0  0  0  0  0  0
    8.7578    3.3024   18.2971 O   0  0  0  0  0  0  0  0  0  0  0  0
    9.8735    1.2232   18.1155 C   0  0  2  0  0  0  0  0  0  0  0  0
    5.3903   -5.2865   20.0718 O   0  0  0  0  0  0  0  0  0  0  0  0
   11.1824   -3.6976   16.9987 N   0  0  0  0  0  0  0  0  0  0  0  0
   11.2976   -2.8892   18.1793 C   0  0  0  0  0  0  0  0  0  0  0  0
   10.8878   -1.5445   18.3578 N   0  0  0  0  0  0  0  0  0  0  0  0
   10.3537   -1.0796   17.2985 C   0  0  0  0  0  0  0  0  0  0  0  0
   10.1837   -1.8316   16.0351 C   0  0  0  0  0  0  0  0  0  0  0  0
   10.5990   -3.0982   15.9038 C   0  0  0  0  0  0  0  0  0  0  0  0
   10.4048   -3.6434   14.7206 N   0  0  0  0  0  0  0  0  0  0  0  0
    9.6165   -1.1343   15.0799 N   0  0  0  0  0  0  0  0  0  0  0  0
    9.4243    0.0594   15.7507 C   0  0  0  0  0  0  0  0  0  0  0  0
    9.8722    0.1051   17.1335 N   0  0  0  0  0  0  0  0  0  0  0  0
  2  1  1  1  0  0  0
  2  3  1  0  0  0  0
  2  5  1  0  0  0  0
  3  4  1  0  0  0  0
  3 17  1  0  0  0  0
  5  6  1  0  0  0  0
  7  6  1  1  0  0  0
  7  8  1  0  0  0  0
  7  9  1  0  0  0  0
 10  9  1  6  0  0  0
 10 11  1  0  0  0  0
 10 12  1  0  0  0  0
 11 16  1  0  0  0  0
 12 13  1  1  0  0  0
 12 14  1  0  0  0  0
 14 15  1  1  0  0  0
 14 16  1  0  0  0  0
 16 27  1  6  0  0  0
 18 19  2  0  0  0  0
 18 23  1  0  0  0  0
 19 20  1  0  0  0  0
 20 21  2  0  0  0  0
 21 22  1  0  0  0  0
 21 27  1  0  0  0  0
 22 23  2  0  0  0  0
 22 25  1  0  0  0  0
 23 24  1  0  0  0  0
 25 26  2  0  0  0  0
 26 27  1  0  0  0  0
M  END
>  <CHROM.1>
-46.60499164,178.04492371,-170.19147398,-75.61933824,179.98157179,40.41521501
-49.31192601,8.53783417,-1.59582341,19.01320498,2.26929395,-1.00883650,3.07986295

>  <Name>
ligand

>  <RI>
0

>  <Rbt.Current_Directory>
/home/itssahil/PROJECTS/Mol_Feturizer/Test_systems_manuscript/rnas/4aob

>  <Rbt.Executable>
rbdock ($Id: //depot/dev/client3/rdock/2013.1/src/exe/rbdock.cxx#4 $)

>  <Rbt.Library>
libRbt.so (2013.1, Build901 2013/11/27)

>  <Rbt.Parameter_File>
/export/apps/rDock/src/rDock_2013.1_src/data/scripts/dock_solv.prm

>  <Rbt.Receptor>
prm/blind_docking_60.prm

>  <SCORE>
-15.7043

>  <SCORE.INTER>
-14.8075

>  <SCORE.INTER.CONST>
1

>  <SCORE.INTER.POLAR>
0

>  <SCORE.INTER.ROT>
7

>  <SCORE.INTER.SOLV>
9.38668

>  <SCORE.INTER.VDW>
-21.2672

>  <SCORE.INTER.norm>
-0.548424

>  <SCORE.INTRA>
-0.89681

>  <SCORE.INTRA.DIHEDRAL>
-1.24997

>  <SCORE.INTRA.DIHEDRAL.0>
6.31833

>  <SCORE.INTRA.POLAR>
0

>  <SCORE.INTRA.POLAR.0>
0

>  <SCORE.INTRA.REPUL>
0

>  <SCORE.INTRA.REPUL.0>
0

>  <SCORE.INTRA.SOLV>
-0.748725

>  <SCORE.INTRA.SOLV.lig_0>
-48.4015

>  <SCORE.INTRA.VDW>
0.102537

>  <SCORE.INTRA.VDW.0>
-2.83256

>  <SCORE.INTRA.norm>
-0.0332152

>  <SCORE.RESTR>
0

>  <SCORE.RESTR.CAVITY>
0

>  <SCORE.RESTR.norm>
0

>  <SCORE.SYSTEM>
0

>  <SCORE.SYSTEM.CONST>
0

>  <SCORE.SYSTEM.DIHEDRAL>
0

>  <SCORE.SYSTEM.SOLV>
0

>  <SCORE.SYSTEM.norm>
0

>  <SCORE.heavy>
27

>  <SCORE.norm>
-0.581639

>  <RMSD>
15.829

$$$$
ligand
 OpenBabel02271912153D
libRbt.so/2013.1/901 2013/11/27
 27 29  0  0  0  0  0  0  0  0999 V2000
    5.8635   -0.8369   24.6037 N   0  0  0  0  0  0  0  0  0  0  0  0
    6.6218   -1.8814   23.8741 C   0  0  2  0  0  0  0  0  0  0  0  0
    8.0684   -1.4166   23.7653 C   0  0  0  0  0  0  0  0  0  0  0  0
    8.4752   -0.2076   23.7468 O   0  0  0  0  0  0  0  0  0  0  0  0
    5.9564   -2.1143   22.5160 C   0  0  0  0  0  0  0  0  0  0  0  0
    6.5960   -3.2540   21.7343 C   0  0  0  0  0  0  0  0  0  0  0  0
    6.8540   -3.2101   19.9211 S   0  0  2  0  0  0  0  0  0  0  0  0
    7.7358   -4.7587   19.7342 C   0  0  0  0  0  0  0  0  0  0  0  0
    8.1735   -1.9557   19.8783 C   0  0  0  0  0  0  0  0  0  0  0  0
    8.5683   -1.6166   18.4673 C   0  0  1  0  0  0  0  0  0  0  0  0
    7.4504   -1.1473   17.6755 O   0  0  0  0  0  0  0  0  0  0  0  0
    9.6536   -0.5698   18.3605 C   0  0  1  0  0  0  0  0  0  0  0  0
   10.8415   -1.2082   18.1772 O   0  0  0  0  0  0  0  0  0  0  0  0
    9.2812    0.0697   17.0433 C   0  0  1  0  0  0  0  0  0  0  0  0
    9.8200   -0.7277   16.0845 O   0  0  0  0  0  0  0  0  0  0  0  0
    7.7410    0.0111   16.9409 C   0  0  2  0  0  0  0  0  0  0  0  0
    8.9114   -2.3046   23.6268 O   0  0  0  0  0  0  0  0  0  0  0  0
    5.3231    4.6173   17.2748 N   0  0  0  0  0  0  0  0  0  0  0  0
    5.5382    3.6909   16.1995 C   0  0  0  0  0  0  0  0  0  0  0  0
    6.2162    2.4474   16.2432 N   0  0  0  0  0  0  0  0  0  0  0  0
    6.6434    2.1950   17.4169 C   0  0  0  0  0  0  0  0  0  0  0  0
    6.4689    3.0797   18.5905 C   0  0  0  0  0  0  0  0  0  0  0  0
    5.8333    4.2554   18.5025 C   0  0  0  0  0  0  0  0  0  0  0  0
    5.7657    4.9532   19.6176 N   0  0  0  0  0  0  0  0  0  0  0  0
    7.0076    2.6083   19.6896 N   0  0  0  0  0  0  0  0  0  0  0  0
    7.5170    1.4184   19.2031 C   0  0  0  0  0  0  0  0  0  0  0  0
    7.2918    1.1457   17.7925 N   0  0  0  0  0  0  0  0  0  0  0  0
  2  1  1  6  0  0  0
  2  3  1  0  0  0  0
  2  5  1  0  0  0  0
  3  4  1  0  0  0  0
  3 17  1  0  0  0  0
  5  6  1  0  0  0  0
  7  6  1  1  0  0  0
  7  8  1  0  0  0  0
  7  9  1  0  0  0  0
 10  9  1  1  0  0  0
 10 11  1  0  0  0  0
 10 12  1  0  0  0  0
 11 16  1  0  0  0  0
 12 13  1  6  0  0  0
 12 14  1  0  0  0  0
 14 15  1  6  0  0  0
 14 16  1  0  0  0  0
 16 27  1  1  0  0  0
 18 19  2  0  0  0  0
 18 23  1  0  0  0  0
 19 20  1  0  0  0  0
 20 21  2  0  0  0  0
 21 22  1  0  0  0  0
 21 27  1  0  0  0  0
 22 23  2  0  0  0  0
 22 25  1  0  0  0  0
 23 24  1  0  0  0  0
 25 26  2  0  0  0  0
 26 27  1  0  0  0  0
M  END
>  <CHROM.1>
-27.69431385,-175.29977440,-141.25857681,175.71296884,-176.46231825,57.28715619
-136.77810117,7.44375060,-0.12964516,19.56018701,1.30796051,-1.08764546,2.16716036

>  <Name>
ligand

>  <RI>
0

>  <Rbt.Current_Directory>
/home/itssahil/PROJECTS/Mol_Feturizer/Test_systems_manuscript/rnas/4aob

>  <Rbt.Executable>
rbdock ($Id: //depot/dev/client3/rdock/2013.1/src/exe/rbdock.cxx#4 $)

>  <Rbt.Library>
libRbt.so (2013.1, Build901 2013/11/27)

>  <Rbt.Parameter_File>
/export/apps/rDock/src/rDock_2013.1_src/data/scripts/dock_solv.prm

>  <Rbt.Receptor>
prm/blind_docking_40.prm

>  <SCORE>
-13.5108

>  <SCORE.INTER>
-13.3984

>  <SCORE.INTER.CONST>
1

>  <SCORE.INTER.POLAR>
0

>  <SCORE.INTER.ROT>
7

>  <SCORE.INTER.SOLV>
7.17851

>  <SCORE.INTER.VDW>
-19.5917

>  <SCORE.INTER.norm>
-0.496236

>  <SCORE.INTRA>
-0.112475

>  <SCORE.INTRA.DIHEDRAL>
1.1987

>  <SCORE.INTRA.DIHEDRAL.0>
6.31833

>  <SCORE.INTRA.POLAR>
0

>  <SCORE.INTRA.POLAR.0>
0

>  <SCORE.INTRA.REPUL>
0

>  <SCORE.INTRA.REPUL.0>
0

>  <SCORE.INTRA.SOLV>
-0.823466

>  <SCORE.INTRA.SOLV.lig_0>
-48.4015

>  <SCORE.INTRA.VDW>
-0.300091

>  <SCORE.INTRA.VDW.0>
-2.83256

>  <SCORE.INTRA.norm>
-0.00416575

>  <SCORE.RESTR>
0

>  <SCORE.RESTR.CAVITY>
0

>  <SCORE.RESTR.norm>
0

>  <SCORE.SYSTEM>
0

>  <SCORE.SYSTEM.CONST>
0

>  <SCORE.SYSTEM.DIHEDRAL>
0

>  <SCORE.SYSTEM.SOLV>
0

>  <SCORE.SYSTEM.norm>
0

>  <SCORE.heavy>
27

>  <SCORE.norm>
-0.500402

>  <RMSD>
15.865

$$$$
ligand
 OpenBabel02271912153D
libRbt.so/2013.1/901 2013/11/27
 27 29  0  0  0  0  0  0  0  0999 V2000
    7.5196   -4.5592   19.2583 N   0  0  0  0  0  0  0  0  0  0  0  0
    7.6808   -3.7897   20.5154 C   0  0  2  0  0  0  0  0  0  0  0  0
    7.6260   -4.7755   21.6754 C   0  0  0  0  0  0  0  0  0  0  0  0
    7.1391   -5.9542   21.6442 O   0  0  0  0  0  0  0  0  0  0  0  0
    6.5909   -2.7176   20.5792 C   0  0  0  0  0  0  0  0  0  0  0  0
    6.8158   -1.7151   21.7033 C   0  0  0  0  0  0  0  0  0  0  0  0
    8.2035   -0.5191   21.7222 S   0  0  2  0  0  0  0  0  0  0  0  0
    7.7957    0.3467   23.2371 C   0  0  0  0  0  0  0  0  0  0  0  0
    7.6015    0.5956   20.4140 C   0  0  0  0  0  0  0  0  0  0  0  0
    7.9804    0.0981   19.0463 C   0  0  1  0  0  0  0  0  0  0  0  0
    7.1993    0.7156   17.9948 O   0  0  0  0  0  0  0  0  0  0  0  0
    9.4356    0.3030   18.6919 C   0  0  1  0  0  0  0  0  0  0  0  0
   10.0968   -0.8634   18.9256 O   0  0  0  0  0  0  0  0  0  0  0  0
    9.3270    0.4635   17.1936 C   0  0  1  0  0  0  0  0  0  0  0  0
    9.2814   -0.7985   16.6930 O   0  0  0  0  0  0  0  0  0  0  0  0
    7.9781    1.1641   16.9185 C   0  0  2  0  0  0  0  0  0  0  0  0
    8.0464   -4.3601   22.7567 O   0  0  0  0  0  0  0  0  0  0  0  0
    9.1332    5.9050   15.0844 N   0  0  0  0  0  0  0  0  0  0  0  0
    8.8390    4.6482   14.4562 C   0  0  0  0  0  0  0  0  0  0  0  0
    8.5273    3.4144   15.0796 N   0  0  0  0  0  0  0  0  0  0  0  0
    8.5179    3.5273   16.3488 C   0  0  0  0  0  0  0  0  0  0  0  0
    8.8015    4.7763   17.0904 C   0  0  0  0  0  0  0  0  0  0  0  0
    9.1066    5.9190   16.4619 C   0  0  0  0  0  0  0  0  0  0  0  0
    9.3561    6.9509   17.2417 N   0  0  0  0  0  0  0  0  0  0  0  0
    8.7426    4.6394   18.3935 N   0  0  0  0  0  0  0  0  0  0  0  0
    8.4140    3.2984   18.4686 C   0  0  0  0  0  0  0  0  0  0  0  0
    8.2646    2.5961   17.2040 N   0  0  0  0  0  0  0  0  0  0  0  0
  2  1  1  6  0  0  0
  2  3  1  0  0  0  0
  2  5  1  0  0  0  0
  3  4  1  0  0  0  0
  3 17  1  0  0  0  0
  5  6  1  0  0  0  0
  7  6  1  1  0  0  0
  7  8  1  0  0  0  0
  7  9  1  0  0  0  0
 10  9  1  1  0  0  0
 10 11  1  0  0  0  0
 10 12  1  0  0  0  0
 11 16  1  0  0  0  0
 12 13  1  6  0  0  0
 12 14  1  0  0  0  0
 14 15  1  6  0  0  0
 14 16  1  0  0  0  0
 16 27  1  1  0  0  0
 18 19  2  0  0  0  0
 18 23  1  0  0  0  0
 19 20  1  0  0  0  0
 20 21  2  0  0  0  0
 21 22  1  0  0  0  0
 21 27  1  0  0  0  0
 22 23  2  0  0  0  0
 22 25  1  0  0  0  0
 23 24  1  0  0  0  0
 25 26  2  0  0  0  0
 26 27  1  0  0  0  0
M  END
>  <CHROM.1>
-19.37490774,-169.71339927,67.56348668,177.39707414,-84.60104651,162.68490141
-153.66594351,8.28252187,0.52756478,18.91368776,-2.64455227,1.42224555,0.51542624

>  <Name>
ligand

>  <RI>
0

>  <Rbt.Current_Directory>
/home/itssahil/PROJECTS/Mol_Feturizer/Test_systems_manuscript/rnas/4aob

>  <Rbt.Executable>
rbdock ($Id: //depot/dev/client3/rdock/2013.1/src/exe/rbdock.cxx#4 $)

>  <Rbt.Library>
libRbt.so (2013.1, Build901 2013/11/27)

>  <Rbt.Parameter_File>
/export/apps/rDock/src/rDock_2013.1_src/data/scripts/dock_solv.prm

>  <Rbt.Receptor>
prm/blind_docking_40.prm

>  <SCORE>
-12.722

>  <SCORE.INTER>
-11.0766

>  <SCORE.INTER.CONST>
1

>  <SCORE.INTER.POLAR>
0

>  <SCORE.INTER.ROT>
7

>  <SCORE.INTER.SOLV>
6.47565

>  <SCORE.INTER.VDW>
-17.8096

>  <SCORE.INTER.norm>
-0.410243

>  <SCORE.INTRA>
-1.64542

>  <SCORE.INTRA.DIHEDRAL>
-1.05914

>  <SCORE.INTRA.DIHEDRAL.0>
6.31833

>  <SCORE.INTRA.POLAR>
0

>  <SCORE.INTRA.POLAR.0>
0

>  <SCORE.INTRA.REPUL>
0

>  <SCORE.INTRA.REPUL.0>
0

>  <SCORE.INTRA.SOLV>
-0.476699

>  <SCORE.INTRA.SOLV.lig_0>
-48.4015

>  <SCORE.INTRA.VDW>
-0.877495

>  <SCORE.INTRA.VDW.0>
-2.83256

>  <SCORE.INTRA.norm>
-0.0609413

>  <SCORE.RESTR>
0

>  <SCORE.RESTR.CAVITY>
0

>  <SCORE.RESTR.norm>
0

>  <SCORE.SYSTEM>
0

>  <SCORE.SYSTEM.CONST>
0

>  <SCORE.SYSTEM.DIHEDRAL>
0

>  <SCORE.SYSTEM.SOLV>
0

>  <SCORE.SYSTEM.norm>
0

>  <SCORE.heavy>
27

>  <SCORE.norm>
-0.471184

>  <RMSD>
15.879

$$$$
ligand
 OpenBabel02271912153D
libRbt.so/2013.1/901 2013/11/27
 27 29  0  0  0  0  0  0  0  0999 V2000
    8.3421   -5.0366   22.5013 N   0  0  0  0  0  0  0  0  0  0  0  0
    7.0780   -5.5731   21.9423 C   0  0  2  0  0  0  0  0  0  0  0  0
    7.4206   -6.8045   21.1136 C   0  0  0  0  0  0  0  0  0  0  0  0
    7.2894   -8.0206   21.4758 O   0  0  0  0  0  0  0  0  0  0  0  0
    6.3905   -4.4707   21.1338 C   0  0  0  0  0  0  0  0  0  0  0  0
    6.3962   -3.1257   21.8481 C   0  0  0  0  0  0  0  0  0  0  0  0
    7.7582   -1.9101   21.6936 S   0  0  2  0  0  0  0  0  0  0  0  0
    7.1783   -0.6997   22.8807 C   0  0  0  0  0  0  0  0  0  0  0  0
    7.2863   -1.1965   20.0860 C   0  0  0  0  0  0  0  0  0  0  0  0
    8.2118   -0.0816   19.6830 C   0  0  1  0  0  0  0  0  0  0  0  0
    9.5974   -0.4998   19.6367 O   0  0  0  0  0  0  0  0  0  0  0  0
    7.8931    0.5356   18.3405 C   0  0  1  0  0  0  0  0  0  0  0  0
    7.1727    1.6700   18.5560 O   0  0  0  0  0  0  0  0  0  0  0  0
    9.2762    0.9596   17.9047 C   0  0  1  0  0  0  0  0  0  0  0  0
    9.5002    2.1546   18.5109 O   0  0  0  0  0  0  0  0  0  0  0  0
   10.2609   -0.0862   18.4727 C   0  0  2  0  0  0  0  0  0  0  0  0
    7.9239   -6.5889   20.0097 O   0  0  0  0  0  0  0  0  0  0  0  0
   10.0854   -5.2439   17.7366 N   0  0  0  0  0  0  0  0  0  0  0  0
   10.1468   -4.4153   18.9072 C   0  0  0  0  0  0  0  0  0  0  0  0
   10.1814   -3.0003   18.9722 N   0  0  0  0  0  0  0  0  0  0  0  0
   10.1378   -2.4829   17.8085 C   0  0  0  0  0  0  0  0  0  0  0  0
   10.0680   -3.2479   16.5434 C   0  0  0  0  0  0  0  0  0  0  0  0
   10.0520   -4.5870   16.5258 C   0  0  0  0  0  0  0  0  0  0  0  0
   10.0085   -5.1422   15.3321 N   0  0  0  0  0  0  0  0  0  0  0  0
   10.0448   -2.4918   15.4719 N   0  0  0  0  0  0  0  0  0  0  0  0
   10.0941   -1.2458   16.0695 C   0  0  0  0  0  0  0  0  0  0  0  0
   10.1454   -1.2256   17.5226 N   0  0  0  0  0  0  0  0  0  0  0  0
  2  1  1  6  0  0  0
  2  3  1  0  0  0  0
  2  5  1  0  0  0  0
  3  4  1  0  0  0  0
  3 17  1  0  0  0  0
  5  6  1  0  0  0  0
  7  6  1  1  0  0  0
  7  8  1  0  0  0  0
  7  9  1  0  0  0  0
 10  9  1  6  0  0  0
 10 11  1  0  0  0  0
 10 12  1  0  0  0  0
 11 16  1  0  0  0  0
 12 13  1  1  0  0  0
 12 14  1  0  0  0  0
 14 15  1  1  0  0  0
 14 16  1  0  0  0  0
 16 27  1  6  0  0  0
 18 19  2  0  0  0  0
 18 23  1  0  0  0  0
 19 20  1  0  0  0  0
 20 21  2  0  0  0  0
 21 22  1  0  0  0  0
 21 27  1  0  0  0  0
 22 23  2  0  0  0  0
 22 25  1  0  0  0  0
 23 24  1  0  0  0  0
 25 26  2  0  0  0  0
 26 27  1  0  0  0  0
M  END
>  <CHROM.1>
100.83970094,-44.39069762,88.22679378,-174.94393975,177.60548539,56.52725978
-33.91348083,8.65187781,-2.59925890,19.31593147,2.06783517,-1.06042520,3.09693269

>  <Name>
ligand

>  <RI>
0

>  <Rbt.Current_Directory>
/home/itssahil/PROJECTS/Mol_Feturizer/Test_systems_manuscript/rnas/4aob

>  <Rbt.Executable>
rbdock ($Id: //depot/dev/client3/rdock/2013.1/src/exe/rbdock.cxx#4 $)

>  <Rbt.Library>
libRbt.so (2013.1, Build901 2013/11/27)

>  <Rbt.Parameter_File>
/export/apps/rDock/src/rDock_2013.1_src/data/scripts/dock_solv.prm

>  <Rbt.Receptor>
prm/blind_docking_80.prm

>  <SCORE>
-10.7217

>  <SCORE.INTER>
-11.5017

>  <SCORE.INTER.CONST>
1

>  <SCORE.INTER.POLAR>
0

>  <SCORE.INTER.ROT>
7

>  <SCORE.INTER.SOLV>
10.272

>  <SCORE.INTER.VDW>
-19.3585

>  <SCORE.INTER.norm>
-0.425989

>  <SCORE.INTRA>
0.779968

>  <SCORE.INTRA.DIHEDRAL>
0.668148

>  <SCORE.INTRA.DIHEDRAL.0>
6.31833

>  <SCORE.INTRA.POLAR>
0

>  <SCORE.INTRA.POLAR.0>
0

>  <SCORE.INTRA.REPUL>
0

>  <SCORE.INTRA.REPUL.0>
0

>  <SCORE.INTRA.SOLV>
1.32984

>  <SCORE.INTRA.SOLV.lig_0>
-48.4015

>  <SCORE.INTRA.VDW>
-0.219027

>  <SCORE.INTRA.VDW.0>
-2.83256

>  <SCORE.INTRA.norm>
0.0288877

>  <SCORE.RESTR>
0

>  <SCORE.RESTR.CAVITY>
0

>  <SCORE.RESTR.norm>
0

>  <SCORE.SYSTEM>
0

>  <SCORE.SYSTEM.CONST>
0

>  <SCORE.SYSTEM.DIHEDRAL>
0

>  <SCORE.SYSTEM.SOLV>
0

>  <SCORE.SYSTEM.norm>
0

>  <SCORE.heavy>
27

>  <SCORE.norm>
-0.397101

>  <RMSD>
15.905

$$$$
ligand
 OpenBabel02271912153D
libRbt.so/2013.1/901 2013/11/27
 27 29  0  0  0  0  0  0  0  0999 V2000
    6.8855    1.6961   17.3771 N   0  0  0  0  0  0  0  0  0  0  0  0
    7.7177    0.8597   18.2750 C   0  0  2  0  0  0  0  0  0  0  0  0
    7.2756    1.1312   19.7071 C   0  0  0  0  0  0  0  0  0  0  0  0
    7.1348    0.2646   20.6327 O   0  0  0  0  0  0  0  0  0  0  0  0
    9.1918    1.1848   18.0239 C   0  0  0  0  0  0  0  0  0  0  0  0
   10.1339    0.3391   18.8703 C   0  0  0  0  0  0  0  0  0  0  0  0
   10.4500   -1.4376   18.5537 S   0  0  2  0  0  0  0  0  0  0  0  0
   10.4214   -1.4039   16.7625 C   0  0  0  0  0  0  0  0  0  0  0  0
    8.8036   -2.0760   18.9986 C   0  0  0  0  0  0  0  0  0  0  0  0
    8.5307   -3.4035   18.3464 C   0  0  1  0  0  0  0  0  0  0  0  0
    9.3441   -4.4689   18.8945 O   0  0  0  0  0  0  0  0  0  0  0  0
    7.0915   -3.8566   18.4383 C   0  0  1  0  0  0  0  0  0  0  0  0
    6.4721   -3.5397   17.2686 O   0  0  0  0  0  0  0  0  0  0  0  0
    7.2822   -5.3553   18.4522 C   0  0  1  0  0  0  0  0  0  0  0  0
    7.4161   -5.7189   17.1502 O   0  0  0  0  0  0  0  0  0  0  0  0
    8.6114   -5.6271   19.1908 C   0  0  2  0  0  0  0  0  0  0  0  0
    6.9750    2.2977   19.9670 O   0  0  0  0  0  0  0  0  0  0  0  0
    7.3340   -8.0033   23.6513 N   0  0  0  0  0  0  0  0  0  0  0  0
    7.7209   -8.4808   22.3541 C   0  0  0  0  0  0  0  0  0  0  0  0
    8.0565   -7.7169   21.2088 N   0  0  0  0  0  0  0  0  0  0  0  0
    7.9919   -6.4676   21.4514 C   0  0  0  0  0  0  0  0  0  0  0  0
    7.6098   -5.8760   22.7532 C   0  0  0  0  0  0  0  0  0  0  0  0
    7.2854   -6.6352   23.8078 C   0  0  0  0  0  0  0  0  0  0  0  0
    6.9455   -5.9813   24.8995 N   0  0  0  0  0  0  0  0  0  0  0  0
    7.6045   -4.5644   22.7539 N   0  0  0  0  0  0  0  0  0  0  0  0
    7.9917   -4.3330   21.4467 C   0  0  0  0  0  0  0  0  0  0  0  0
    8.2424   -5.5080   20.6274 N   0  0  0  0  0  0  0  0  0  0  0  0
  2  1  1  6  0  0  0
  2  3  1  0  0  0  0
  2  5  1  0  0  0  0
  3  4  1  0  0  0  0
  3 17  1  0  0  0  0
  5  6  1  0  0  0  0
  7  6  1  1  0  0  0
  7  8  1  0  0  0  0
  7  9  1  0  0  0  0
 10  9  1  1  0  0  0
 10 11  1  0  0  0  0
 10 12  1  0  0  0  0
 11 16  1  0  0  0  0
 12 13  1  6  0  0  0
 12 14  1  0  0  0  0
 14 15  1  6  0  0  0
 14 16  1  0  0  0  0
 16 27  1  1  0  0  0
 18 19  2  0  0  0  0
 18 23  1  0  0  0  0
 19 20  1  0  0  0  0
 20 21  2  0  0  0  0
 21 22  1  0  0  0  0
 21 27  1  0  0  0  0
 22 23  2  0  0  0  0
 22 25  1  0  0  0  0
 23 24  1  0  0  0  0
 25 26  2  0  0  0  0
 26 27  1  0  0  0  0
M  END
>  <CHROM.1>
139.07818972,-178.08697251,73.11165363,37.04484282,157.00355560,69.67707929
-154.02060010,8.13777200,-3.25188012,19.84795442,1.20171094,1.28818967,-0.13098174

>  <Name>
ligand

>  <RI>
0

>  <Rbt.Current_Directory>
/home/itssahil/PROJECTS/Mol_Feturizer/Test_systems_manuscript/rnas/4aob

>  <Rbt.Executable>
rbdock ($Id: //depot/dev/client3/rdock/2013.1/src/exe/rbdock.cxx#4 $)

>  <Rbt.Library>
libRbt.so (2013.1, Build901 2013/11/27)

>  <Rbt.Parameter_File>
/export/apps/rDock/src/rDock_2013.1_src/data/scripts/dock_solv.prm

>  <Rbt.Receptor>
prm/blind_docking_60.prm

>  <SCORE>
-15.21

>  <SCORE.INTER>
-14.8049

>  <SCORE.INTER.CONST>
1

>  <SCORE.INTER.POLAR>
0

>  <SCORE.INTER.ROT>
7

>  <SCORE.INTER.SOLV>
10.8105

>  <SCORE.INTER.VDW>
-21.7401

>  <SCORE.INTER.norm>
-0.548331

>  <SCORE.INTRA>
-0.405055

>  <SCORE.INTRA.DIHEDRAL>
-1.03005

>  <SCORE.INTRA.DIHEDRAL.0>
6.31833

>  <SCORE.INTRA.POLAR>
0

>  <SCORE.INTRA.POLAR.0>
0

>  <SCORE.INTRA.REPUL>
0

>  <SCORE.INTRA.REPUL.0>
0

>  <SCORE.INTRA.SOLV>
-0.468921

>  <SCORE.INTRA.SOLV.lig_0>
-48.4015

>  <SCORE.INTRA.VDW>
0.344432

>  <SCORE.INTRA.VDW.0>
-2.83256

>  <SCORE.INTRA.norm>
-0.015002

>  <SCORE.RESTR>
0

>  <SCORE.RESTR.CAVITY>
0

>  <SCORE.RESTR.norm>
0

>  <SCORE.SYSTEM>
0

>  <SCORE.SYSTEM.CONST>
0

>  <SCORE.SYSTEM.DIHEDRAL>
0

>  <SCORE.SYSTEM.SOLV>
0

>  <SCORE.SYSTEM.norm>
0

>  <SCORE.heavy>
27

>  <SCORE.norm>
-0.563333

>  <RMSD>
15.931

$$$$
ligand
 OpenBabel02271912153D
libRbt.so/2013.1/901 2013/11/27
 27 29  0  0  0  0  0  0  0  0999 V2000
    4.0866   -2.5770   23.9208 N   0  0  0  0  0  0  0  0  0  0  0  0
    4.8384   -3.7638   23.4467 C   0  0  2  0  0  0  0  0  0  0  0  0
    5.5736   -4.3574   24.6414 C   0  0  0  0  0  0  0  0  0  0  0  0
    6.1474   -3.7063   25.5765 O   0  0  0  0  0  0  0  0  0  0  0  0
    5.7720   -3.3342   22.3130 C   0  0  0  0  0  0  0  0  0  0  0  0
    6.7223   -2.2173   22.7237 C   0  0  0  0  0  0  0  0  0  0  0  0
    8.0538   -1.5793   21.6390 S   0  0  2  0  0  0  0  0  0  0  0  0
    8.5188   -0.1387   22.5977 C   0  0  0  0  0  0  0  0  0  0  0  0
    7.0045   -0.8960   20.3167 C   0  0  0  0  0  0  0  0  0  0  0  0
    7.8007   -0.6035   19.0748 C   0  0  1  0  0  0  0  0  0  0  0  0
    6.9683   -0.1774   17.9692 O   0  0  0  0  0  0  0  0  0  0  0  0
    8.8674    0.4523   19.2551 C   0  0  1  0  0  0  0  0  0  0  0  0
   10.0569   -0.1775   19.4578 O   0  0  0  0  0  0  0  0  0  0  0  0
    8.9029    1.0387   17.8632 C   0  0  1  0  0  0  0  0  0  0  0  0
    9.7033    0.2138   17.1392 O   0  0  0  0  0  0  0  0  0  0  0  0
    7.4629    0.9571   17.3101 C   0  0  2  0  0  0  0  0  0  0  0  0
    5.6621   -5.5862   24.6643 O   0  0  0  0  0  0  0  0  0  0  0  0
    4.5410    5.2366   16.7422 N   0  0  0  0  0  0  0  0  0  0  0  0
    5.0030    4.2286   15.8305 C   0  0  0  0  0  0  0  0  0  0  0  0
    5.7979    3.0915   16.1187 N   0  0  0  0  0  0  0  0  0  0  0  0
    6.0810    3.0280   17.3595 C   0  0  0  0  0  0  0  0  0  0  0  0
    5.6497    4.0111   18.3783 C   0  0  0  0  0  0  0  0  0  0  0  0
    4.9100    5.0815   18.0606 C   0  0  0  0  0  0  0  0  0  0  0  0
    4.6121    5.8869   19.0594 N   0  0  0  0  0  0  0  0  0  0  0  0
    6.0764    3.7370   19.5879 N   0  0  0  0  0  0  0  0  0  0  0  0
    6.7740    2.5721   19.3263 C   0  0  0  0  0  0  0  0  0  0  0  0
    6.7793    2.1161   17.9455 N   0  0  0  0  0  0  0  0  0  0  0  0
  2  1  1  1  0  0  0
  2  3  1  0  0  0  0
  2  5  1  0  0  0  0
  3  4  1  0  0  0  0
  3 17  1  0  0  0  0
  5  6  1  0  0  0  0
  7  6  1  1  0  0  0
  7  8  1  0  0  0  0
  7  9  1  0  0  0  0
 10  9  1  1  0  0  0
 10 11  1  0  0  0  0
 10 12  1  0  0  0  0
 11 16  1  0  0  0  0
 12 13  1  6  0  0  0
 12 14  1  0  0  0  0
 14 15  1  6  0  0  0
 14 16  1  0  0  0  0
 16 27  1  1  0  0  0
 18 19  2  0  0  0  0
 18 23  1  0  0  0  0
 19 20  1  0  0  0  0
 20 21  2  0  0  0  0
 21 22  1  0  0  0  0
 21 27  1  0  0  0  0
 22 23  2  0  0  0  0
 22 25  1  0  0  0  0
 23 24  1  0  0  0  0
 25 26  2  0  0  0  0
 26 27  1  0  0  0  0
M  END
>  <CHROM.1>
-38.94185570,56.55475342,174.75499326,169.63540491,-165.00723711,174.58457882
-124.36362022,6.72285335,0.25831313,20.08755427,1.56033731,-0.54146578,2.41456650

>  <Name>
ligand

>  <RI>
0

>  <Rbt.Current_Directory>
/home/itssahil/PROJECTS/Mol_Feturizer/Test_systems_manuscript/rnas/4aob

>  <Rbt.Executable>
rbdock ($Id: //depot/dev/client3/rdock/2013.1/src/exe/rbdock.cxx#4 $)

>  <Rbt.Library>
libRbt.so (2013.1, Build901 2013/11/27)

>  <Rbt.Parameter_File>
/export/apps/rDock/src/rDock_2013.1_src/data/scripts/dock_solv.prm

>  <Rbt.Receptor>
prm/blind_docking_40.prm

>  <SCORE>
-10.941

>  <SCORE.INTER>
-10.5662

>  <SCORE.INTER.CONST>
1

>  <SCORE.INTER.POLAR>
0

>  <SCORE.INTER.ROT>
7

>  <SCORE.INTER.SOLV>
11.1148

>  <SCORE.INTER.VDW>
-19.0157

>  <SCORE.INTER.norm>
-0.391341

>  <SCORE.INTRA>
-0.374776

>  <SCORE.INTRA.DIHEDRAL>
-1.53415

>  <SCORE.INTRA.DIHEDRAL.0>
6.31833

>  <SCORE.INTRA.POLAR>
0

>  <SCORE.INTRA.POLAR.0>
0

>  <SCORE.INTRA.REPUL>
0

>  <SCORE.INTRA.REPUL.0>
0

>  <SCORE.INTRA.SOLV>
0.150419

>  <SCORE.INTRA.SOLV.lig_0>
-48.4015

>  <SCORE.INTRA.VDW>
0.31709

>  <SCORE.INTRA.VDW.0>
-2.83256

>  <SCORE.INTRA.norm>
-0.0138806

>  <SCORE.RESTR>
0

>  <SCORE.RESTR.CAVITY>
0

>  <SCORE.RESTR.norm>
0

>  <SCORE.SYSTEM>
0

>  <SCORE.SYSTEM.CONST>
0

>  <SCORE.SYSTEM.DIHEDRAL>
0

>  <SCORE.SYSTEM.SOLV>
0

>  <SCORE.SYSTEM.norm>
0

>  <SCORE.heavy>
27

>  <SCORE.norm>
-0.405221

>  <RMSD>
15.949

$$$$
ligand
 OpenBabel02271912153D
libRbt.so/2013.1/901 2013/11/27
 27 29  0  0  0  0  0  0  0  0999 V2000
    7.6809    8.5700   12.9328 N   0  0  0  0  0  0  0  0  0  0  0  0
    7.6346    7.2136   13.5298 C   0  0  2  0  0  0  0  0  0  0  0  0
    6.4494    6.4763   12.9197 C   0  0  0  0  0  0  0  0  0  0  0  0
    5.5268    6.9891   12.2032 O   0  0  0  0  0  0  0  0  0  0  0  0
    7.5463    7.3485   15.0515 C   0  0  0  0  0  0  0  0  0  0  0  0
    8.7366    8.0882   15.6473 C   0  0  0  0  0  0  0  0  0  0  0  0
    9.0864    8.1491   17.4447 S   0  0  2  0  0  0  0  0  0  0  0  0
    9.2024    6.3889   17.7589 C   0  0  0  0  0  0  0  0  0  0  0  0
    7.4127    8.5795   18.0191 C   0  0  0  0  0  0  0  0  0  0  0  0
    7.2482    8.3149   19.4904 C   0  0  1  0  0  0  0  0  0  0  0  0
    8.2292    9.0147   20.2934 O   0  0  0  0  0  0  0  0  0  0  0  0
    5.8881    8.6811   20.0391 C   0  0  1  0  0  0  0  0  0  0  0  0
    5.1362    7.5481   20.0987 O   0  0  0  0  0  0  0  0  0  0  0  0
    6.2600    9.0467   21.4570 C   0  0  1  0  0  0  0  0  0  0  0  0
    6.3245    7.8701   22.1330 O   0  0  0  0  0  0  0  0  0  0  0  0
    7.6710    9.6726   21.3987 C   0  0  2  0  0  0  0  0  0  0  0  0
    6.3560    5.2800   13.1999 O   0  0  0  0  0  0  0  0  0  0  0  0
    6.5481   14.6067   22.6511 N   0  0  0  0  0  0  0  0  0  0  0  0
    6.8057   13.4258   23.4255 C   0  0  0  0  0  0  0  0  0  0  0  0
    7.1126   12.1250   22.9549 N   0  0  0  0  0  0  0  0  0  0  0  0
    7.1560   12.0923   21.6818 C   0  0  0  0  0  0  0  0  0  0  0  0
    6.9117   13.2525   20.7958 C   0  0  0  0  0  0  0  0  0  0  0  0
    6.6097   14.4634   21.2821 C   0  0  0  0  0  0  0  0  0  0  0  0
    6.3969   15.4029   20.3838 N   0  0  0  0  0  0  0  0  0  0  0  0
    7.0012   12.9673   19.5187 N   0  0  0  0  0  0  0  0  0  0  0  0
    7.3095   11.6222   19.6053 C   0  0  0  0  0  0  0  0  0  0  0  0
    7.4154   11.0665   20.9449 N   0  0  0  0  0  0  0  0  0  0  0  0
  2  1  1  6  0  0  0
  2  3  1  0  0  0  0
  2  5  1  0  0  0  0
  3  4  1  0  0  0  0
  3 17  1  0  0  0  0
  5  6  1  0  0  0  0
  7  6  1  6  0  0  0
  7  8  1  0  0  0  0
  7  9  1  0  0  0  0
 10  9  1  6  0  0  0
 10 11  1  0  0  0  0
 10 12  1  0  0  0  0
 11 16  1  0  0  0  0
 12 13  1  1  0  0  0
 12 14  1  0  0  0  0
 14 15  1  1  0  0  0
 14 16  1  0  0  0  0
 16 27  1  6  0  0  0
 18 19  2  0  0  0  0
 18 23  1  0  0  0  0
 19 20  1  0  0  0  0
 20 21  2  0  0  0  0
 21 22  1  0  0  0  0
 21 27  1  0  0  0  0
 22 23  2  0  0  0  0
 22 25  1  0  0  0  0
 23 24  1  0  0  0  0
 25 26  2  0  0  0  0
 26 27  1  0  0  0  0
M  END
>  <CHROM.1>
-10.94361670,-60.07045140,-168.45938064,57.70234553,163.11433782,56.47339113
-165.34633703,7.18486187,9.59055374,18.63650294,0.89188239,1.50439153,-1.53808359

>  <Name>
ligand

>  <RI>
0

>  <Rbt.Current_Directory>
/home/itssahil/PROJECTS/Mol_Feturizer/Test_systems_manuscript/rnas/4aob

>  <Rbt.Executable>
rbdock ($Id: //depot/dev/client3/rdock/2013.1/src/exe/rbdock.cxx#4 $)

>  <Rbt.Library>
libRbt.so (2013.1, Build901 2013/11/27)

>  <Rbt.Parameter_File>
/export/apps/rDock/src/rDock_2013.1_src/data/scripts/dock_solv.prm

>  <Rbt.Receptor>
prm/blind_docking_40.prm

>  <SCORE>
-14.561

>  <SCORE.INTER>
-13.9546

>  <SCORE.INTER.CONST>
1

>  <SCORE.INTER.POLAR>
0

>  <SCORE.INTER.ROT>
7

>  <SCORE.INTER.SOLV>
18.8785

>  <SCORE.INTER.VDW>
-23.8626

>  <SCORE.INTER.norm>
-0.516837

>  <SCORE.INTRA>
-0.606395

>  <SCORE.INTRA.DIHEDRAL>
-2.57133

>  <SCORE.INTRA.DIHEDRAL.0>
6.31833

>  <SCORE.INTRA.POLAR>
0

>  <SCORE.INTRA.POLAR.0>
0

>  <SCORE.INTRA.REPUL>
0

>  <SCORE.INTRA.REPUL.0>
0

>  <SCORE.INTRA.SOLV>
-0.0863706

>  <SCORE.INTRA.SOLV.lig_0>
-48.4015

>  <SCORE.INTRA.VDW>
0.722455

>  <SCORE.INTRA.VDW.0>
-2.83256

>  <SCORE.INTRA.norm>
-0.0224591

>  <SCORE.RESTR>
0

>  <SCORE.RESTR.CAVITY>
0

>  <SCORE.RESTR.norm>
0

>  <SCORE.SYSTEM>
0

>  <SCORE.SYSTEM.CONST>
0

>  <SCORE.SYSTEM.DIHEDRAL>
0

>  <SCORE.SYSTEM.SOLV>
0

>  <SCORE.SYSTEM.norm>
0

>  <SCORE.heavy>
27

>  <SCORE.norm>
-0.539297

>  <RMSD>
15.956

$$$$
ligand
 OpenBabel02271912153D
libRbt.so/2013.1/901 2013/11/27
 27 29  0  0  0  0  0  0  0  0999 V2000
    7.5712   -4.4828   19.1878 N   0  0  0  0  0  0  0  0  0  0  0  0
    7.6119   -3.8011   20.5038 C   0  0  2  0  0  0  0  0  0  0  0  0
    7.3479   -4.8474   21.5789 C   0  0  0  0  0  0  0  0  0  0  0  0
    8.0905   -5.1034   22.5842 O   0  0  0  0  0  0  0  0  0  0  0  0
    6.5882   -2.6637   20.5007 C   0  0  0  0  0  0  0  0  0  0  0  0
    6.7990   -1.6784   21.6426 C   0  0  0  0  0  0  0  0  0  0  0  0
    8.1692   -0.4628   21.6826 S   0  0  2  0  0  0  0  0  0  0  0  0
    7.7143    0.4106   23.1795 C   0  0  0  0  0  0  0  0  0  0  0  0
    7.5825    0.6316   20.3505 C   0  0  0  0  0  0  0  0  0  0  0  0
    7.9803    0.1150   18.9952 C   0  0  1  0  0  0  0  0  0  0  0  0
    7.2131    0.7168   17.9246 O   0  0  0  0  0  0  0  0  0  0  0  0
    9.4400    0.3160   18.6577 C   0  0  1  0  0  0  0  0  0  0  0  0
   10.0988   -0.8464   18.9170 O   0  0  0  0  0  0  0  0  0  0  0  0
    9.3517    0.4552   17.1559 C   0  0  1  0  0  0  0  0  0  0  0  0
    9.3136   -0.8139   16.6728 O   0  0  0  0  0  0  0  0  0  0  0  0
    8.0061    1.1506   16.8526 C   0  0  2  0  0  0  0  0  0  0  0  0
    6.3442   -5.5441   21.4188 O   0  0  0  0  0  0  0  0  0  0  0  0
    9.0365    5.8964   14.9578 N   0  0  0  0  0  0  0  0  0  0  0  0
    8.7319    4.6340   14.3462 C   0  0  0  0  0  0  0  0  0  0  0  0
    8.4584    3.3994   14.9856 N   0  0  0  0  0  0  0  0  0  0  0  0
    8.4972    3.5172   16.2538 C   0  0  0  0  0  0  0  0  0  0  0  0
    8.7958    4.7722   16.9793 C   0  0  0  0  0  0  0  0  0  0  0  0
    9.0636    5.9156   16.3353 C   0  0  0  0  0  0  0  0  0  0  0  0
    9.3320    6.9532   17.1010 N   0  0  0  0  0  0  0  0  0  0  0  0
    8.7893    4.6400   18.2842 N   0  0  0  0  0  0  0  0  0  0  0  0
    8.4787    3.2957   18.3768 C   0  0  0  0  0  0  0  0  0  0  0  0
    8.2877    2.5868   17.1216 N   0  0  0  0  0  0  0  0  0  0  0  0
  2  1  1  6  0  0  0
  2  3  1  0  0  0  0
  2  5  1  0  0  0  0
  3  4  1  0  0  0  0
  3 17  1  0  0  0  0
  5  6  1  0  0  0  0
  7  6  1  1  0  0  0
  7  8  1  0  0  0  0
  7  9  1  0  0  0  0
 10  9  1  1  0  0  0
 10 11  1  0  0  0  0
 10 12  1  0  0  0  0
 11 16  1  0  0  0  0
 12 13  1  6  0  0  0
 12 14  1  0  0  0  0
 14 15  1  6  0  0  0
 14 16  1  0  0  0  0
 16 27  1  1  0  0  0
 18 19  2  0  0  0  0
 18 23  1  0  0  0  0
 19 20  1  0  0  0  0
 20 21  2  0  0  0  0
 21 22  1  0  0  0  0
 21 27  1  0  0  0  0
 22 23  2  0  0  0  0
 22 25  1  0  0  0  0
 23 24  1  0  0  0  0
 25 26  2  0  0  0  0
 26 27  1  0  0  0  0
M  END
>  <CHROM.1>
125.19222604,-164.74851569,73.43843774,175.34423752,-83.64501021,162.75489811
-150.53891051,8.23155255,0.52393436,18.83209734,-2.72664456,1.41469932,0.59815229

>  <Name>
ligand

>  <RI>
0

>  <Rbt.Current_Directory>
/home/itssahil/PROJECTS/Mol_Feturizer/Test_systems_manuscript/rnas/4aob

>  <Rbt.Executable>
rbdock ($Id: //depot/dev/client3/rdock/2013.1/src/exe/rbdock.cxx#4 $)

>  <Rbt.Library>
libRbt.so (2013.1, Build901 2013/11/27)

>  <Rbt.Parameter_File>
/export/apps/rDock/src/rDock_2013.1_src/data/scripts/dock_solv.prm

>  <Rbt.Receptor>
prm/blind_docking_100.prm

>  <SCORE>
-12.38

>  <SCORE.INTER>
-11.3416

>  <SCORE.INTER.CONST>
1

>  <SCORE.INTER.POLAR>
0

>  <SCORE.INTER.ROT>
7

>  <SCORE.INTER.SOLV>
6.29679

>  <SCORE.INTER.VDW>
-17.9266

>  <SCORE.INTER.norm>
-0.420058

>  <SCORE.INTRA>
-1.03844

>  <SCORE.INTRA.DIHEDRAL>
-0.133582

>  <SCORE.INTRA.DIHEDRAL.0>
6.31833

>  <SCORE.INTRA.POLAR>
0

>  <SCORE.INTRA.POLAR.0>
0

>  <SCORE.INTRA.REPUL>
0

>  <SCORE.INTRA.REPUL.0>
0

>  <SCORE.INTRA.SOLV>
-0.430222

>  <SCORE.INTRA.SOLV.lig_0>
-48.4015

>  <SCORE.INTRA.VDW>
-0.756543

>  <SCORE.INTRA.VDW.0>
-2.83256

>  <SCORE.INTRA.norm>
-0.0384609

>  <SCORE.RESTR>
0

>  <SCORE.RESTR.CAVITY>
0

>  <SCORE.RESTR.norm>
0

>  <SCORE.SYSTEM>
0

>  <SCORE.SYSTEM.CONST>
0

>  <SCORE.SYSTEM.DIHEDRAL>
0

>  <SCORE.SYSTEM.SOLV>
0

>  <SCORE.SYSTEM.norm>
0

>  <SCORE.heavy>
27

>  <SCORE.norm>
-0.458519

>  <RMSD>
15.968

$$$$
ligand
 OpenBabel02271912153D
libRbt.so/2013.1/901 2013/11/27
 27 29  0  0  0  0  0  0  0  0999 V2000
    9.2777    0.9764   16.2949 N   0  0  0  0  0  0  0  0  0  0  0  0
    8.0409    1.1204   17.0998 C   0  0  2  0  0  0  0  0  0  0  0  0
    7.3056    2.3599   16.6065 C   0  0  0  0  0  0  0  0  0  0  0  0
    7.8003    3.5275   16.4668 O   0  0  0  0  0  0  0  0  0  0  0  0
    8.4225    1.1911   18.5800 C   0  0  0  0  0  0  0  0  0  0  0  0
    7.2380    0.9489   19.5059 C   0  0  0  0  0  0  0  0  0  0  0  0
    6.2441   -0.5901   19.4867 S   0  0  2  0  0  0  0  0  0  0  0  0
    5.2196   -0.2701   20.9215 C   0  0  0  0  0  0  0  0  0  0  0  0
    7.5193   -1.7289   20.1138 C   0  0  0  0  0  0  0  0  0  0  0  0
    7.6630   -2.9380   19.2310 C   0  0  1  0  0  0  0  0  0  0  0  0
    8.7653   -3.7883   19.6293 O   0  0  0  0  0  0  0  0  0  0  0  0
    6.4317   -3.8128   19.1705 C   0  0  1  0  0  0  0  0  0  0  0  0
    5.7404   -3.4940   18.0423 O   0  0  0  0  0  0  0  0  0  0  0  0
    7.0716   -5.1614   18.9374 C   0  0  1  0  0  0  0  0  0  0  0  0
    7.3051   -5.2291   17.6009 O   0  0  0  0  0  0  0  0  0  0  0  0
    8.4231   -5.1470   19.6853 C   0  0  2  0  0  0  0  0  0  0  0  0
    6.1033    2.2183   16.3766 O   0  0  0  0  0  0  0  0  0  0  0  0
    7.1924   -8.6032   23.3886 N   0  0  0  0  0  0  0  0  0  0  0  0
    7.6029   -8.7283   22.0187 C   0  0  0  0  0  0  0  0  0  0  0  0
    7.9216   -7.6918   21.1066 N   0  0  0  0  0  0  0  0  0  0  0  0
    7.8157   -6.5459   21.6538 C   0  0  0  0  0  0  0  0  0  0  0  0
    7.4063   -6.3115   23.0566 C   0  0  0  0  0  0  0  0  0  0  0  0
    7.0992   -7.3203   23.8824 C   0  0  0  0  0  0  0  0  0  0  0  0
    6.7314   -6.9716   25.0982 N   0  0  0  0  0  0  0  0  0  0  0  0
    7.3593   -5.0428   23.3861 N   0  0  0  0  0  0  0  0  0  0  0  0
    7.7475   -4.4794   22.1845 C   0  0  0  0  0  0  0  0  0  0  0  0
    8.0410   -5.4032   21.1004 N   0  0  0  0  0  0  0  0  0  0  0  0
  2  1  1  6  0  0  0
  2  3  1  0  0  0  0
  2  5  1  0  0  0  0
  3  4  1  0  0  0  0
  3 17  1  0  0  0  0
  5  6  1  0  0  0  0
  7  6  1  1  0  0  0
  7  8  1  0  0  0  0
  7  9  1  0  0  0  0
 10  9  1  1  0  0  0
 10 11  1  0  0  0  0
 10 12  1  0  0  0  0
 11 16  1  0  0  0  0
 12 13  1  6  0  0  0
 12 14  1  0  0  0  0
 14 15  1  6  0  0  0
 14 16  1  0  0  0  0
 16 27  1  1  0  0  0
 18 19  2  0  0  0  0
 18 23  1  0  0  0  0
 19 20  1  0  0  0  0
 20 21  2  0  0  0  0
 21 22  1  0  0  0  0
 21 27  1  0  0  0  0
 22 23  2  0  0  0  0
 22 25  1  0  0  0  0
 23 24  1  0  0  0  0
 25 26  2  0  0  0  0
 26 27  1  0  0  0  0
M  END
>  <CHROM.1>
-51.66766222,-163.93642029,59.01958475,172.99401692,-128.85295279,173.91572550
-170.57501334,7.31858176,-2.98210196,19.90714659,-1.59560314,-1.30623179
2.57763442

>  <Name>
ligand

>  <RI>
0

>  <Rbt.Current_Directory>
/home/itssahil/PROJECTS/Mol_Feturizer/Test_systems_manuscript/rnas/4aob

>  <Rbt.Executable>
rbdock ($Id: //depot/dev/client3/rdock/2013.1/src/exe/rbdock.cxx#4 $)

>  <Rbt.Library>
libRbt.so (2013.1, Build901 2013/11/27)

>  <Rbt.Parameter_File>
/export/apps/rDock/src/rDock_2013.1_src/data/scripts/dock_solv.prm

>  <Rbt.Receptor>
prm/blind_docking_80.prm

>  <SCORE>
-12.8773

>  <SCORE.INTER>
-12.7482

>  <SCORE.INTER.CONST>
1

>  <SCORE.INTER.POLAR>
0

>  <SCORE.INTER.ROT>
7

>  <SCORE.INTER.SOLV>
13.3021

>  <SCORE.INTER.VDW>
-21.1995

>  <SCORE.INTER.norm>
-0.472157

>  <SCORE.INTRA>
-0.129063

>  <SCORE.INTRA.DIHEDRAL>
2.02141

>  <SCORE.INTRA.DIHEDRAL.0>
6.31833

>  <SCORE.INTRA.POLAR>
0

>  <SCORE.INTRA.POLAR.0>
0

>  <SCORE.INTRA.REPUL>
0

>  <SCORE.INTRA.REPUL.0>
0

>  <SCORE.INTRA.SOLV>
-0.583616

>  <SCORE.INTRA.SOLV.lig_0>
-48.4015

>  <SCORE.INTRA.VDW>
-0.847958

>  <SCORE.INTRA.VDW.0>
-2.83256

>  <SCORE.INTRA.norm>
-0.00478011

>  <SCORE.RESTR>
0

>  <SCORE.RESTR.CAVITY>
0

>  <SCORE.RESTR.norm>
0

>  <SCORE.SYSTEM>
0

>  <SCORE.SYSTEM.CONST>
0

>  <SCORE.SYSTEM.DIHEDRAL>
0

>  <SCORE.SYSTEM.SOLV>
0

>  <SCORE.SYSTEM.norm>
0

>  <SCORE.heavy>
27

>  <SCORE.norm>
-0.476937

>  <RMSD>
15.975

$$$$
ligand
 OpenBabel02271912153D
libRbt.so/2013.1/901 2013/11/27
 27 29  0  0  0  0  0  0  0  0999 V2000
    4.9482   -0.5867   20.5678 N   0  0  0  0  0  0  0  0  0  0  0  0
    6.1217   -0.8188   19.6918 C   0  0  2  0  0  0  0  0  0  0  0  0
    6.0834   -2.2720   19.2369 C   0  0  0  0  0  0  0  0  0  0  0  0
    6.2671   -3.2995   19.9704 O   0  0  0  0  0  0  0  0  0  0  0  0
    7.3920   -0.4593   20.4656 C   0  0  0  0  0  0  0  0  0  0  0  0
    8.6638   -0.8426   19.7207 C   0  0  0  0  0  0  0  0  0  0  0  0
    9.0133   -0.3304   17.9967 S   0  0  2  0  0  0  0  0  0  0  0  0
   10.6518   -1.0363   17.8301 C   0  0  0  0  0  0  0  0  0  0  0  0
    9.3349    1.4341   18.3118 C   0  0  0  0  0  0  0  0  0  0  0  0
    8.0606    2.2325   18.3360 C   0  0  1  0  0  0  0  0  0  0  0  0
    8.1592    3.4104   19.1725 O   0  0  0  0  0  0  0  0  0  0  0  0
    7.5924    2.6967   16.9757 C   0  0  1  0  0  0  0  0  0  0  0  0
    6.6396    1.8294   16.5369 O   0  0  0  0  0  0  0  0  0  0  0  0
    6.8896    3.9787   17.3565 C   0  0  1  0  0  0  0  0  0  0  0  0
    5.6485    3.6076   17.7656 O   0  0  0  0  0  0  0  0  0  0  0  0
    7.6611    4.5681   18.5579 C   0  0  2  0  0  0  0  0  0  0  0  0
    5.9122   -2.4553   18.0305 O   0  0  0  0  0  0  0  0  0  0  0  0
    9.4977    8.1271   15.2210 N   0  0  0  0  0  0  0  0  0  0  0  0
    8.1778    7.7781   15.6644 C   0  0  0  0  0  0  0  0  0  0  0  0
    7.8083    6.7789   16.5987 N   0  0  0  0  0  0  0  0  0  0  0  0
    8.8318    6.1750   17.0585 C   0  0  0  0  0  0  0  0  0  0  0  0
   10.2308    6.4631   16.6707 C   0  0  0  0  0  0  0  0  0  0  0  0
   10.5359    7.4077   15.7715 C   0  0  0  0  0  0  0  0  0  0  0  0
   11.8177    7.5478   15.5026 N   0  0  0  0  0  0  0  0  0  0  0  0
   11.1115    5.6997   17.2723 N   0  0  0  0  0  0  0  0  0  0  0  0
   10.2598    4.9331   18.0461 C   0  0  0  0  0  0  0  0  0  0  0  0
    8.8397    5.2228   17.9279 N   0  0  0  0  0  0  0  0  0  0  0  0
  2  1  1  1  0  0  0
  2  3  1  0  0  0  0
  2  5  1  0  0  0  0
  3  4  1  0  0  0  0
  3 17  1  0  0  0  0
  5  6  1  0  0  0  0
  7  6  1  1  0  0  0
  7  8  1  0  0  0  0
  7  9  1  0  0  0  0
 10  9  1  6  0  0  0
 10 11  1  0  0  0  0
 10 12  1  0  0  0  0
 11 16  1  0  0  0  0
 12 13  1  1  0  0  0
 12 14  1  0  0  0  0
 14 15  1  1  0  0  0
 14 16  1  0  0  0  0
 16 27  1  6  0  0  0
 18 19  2  0  0  0  0
 18 23  1  0  0  0  0
 19 20  1  0  0  0  0
 20 21  2  0  0  0  0
 21 22  1  0  0  0  0
 21 27  1  0  0  0  0
 22 23  2  0  0  0  0
 22 25  1  0  0  0  0
 23 24  1  0  0  0  0
 25 26  2  0  0  0  0
 26 27  1  0  0  0  0
M  END
>  <CHROM.1>
-68.49034300,172.13593097,52.96250860,177.04162655,-84.98352330,152.11643611
166.44056919,8.21496508,2.60102363,17.89893512,1.87167800,-0.15486356,2.85821436

>  <Name>
ligand

>  <RI>
0

>  <Rbt.Current_Directory>
/home/itssahil/PROJECTS/Mol_Feturizer/Test_systems_manuscript/rnas/4aob

>  <Rbt.Executable>
rbdock ($Id: //depot/dev/client3/rdock/2013.1/src/exe/rbdock.cxx#4 $)

>  <Rbt.Library>
libRbt.so (2013.1, Build901 2013/11/27)

>  <Rbt.Parameter_File>
/export/apps/rDock/src/rDock_2013.1_src/data/scripts/dock_solv.prm

>  <Rbt.Receptor>
prm/blind_docking_100.prm

>  <SCORE>
-10.0435

>  <SCORE.INTER>
-9.14359

>  <SCORE.INTER.CONST>
1

>  <SCORE.INTER.POLAR>
0

>  <SCORE.INTER.ROT>
7

>  <SCORE.INTER.SOLV>
23.0127

>  <SCORE.INTER.VDW>
-22.0333

>  <SCORE.INTER.norm>
-0.338651

>  <SCORE.INTRA>
-0.899928

>  <SCORE.INTRA.DIHEDRAL>
0.403616

>  <SCORE.INTRA.DIHEDRAL.0>
6.31833

>  <SCORE.INTRA.POLAR>
0

>  <SCORE.INTRA.POLAR.0>
0

>  <SCORE.INTRA.REPUL>
0

>  <SCORE.INTRA.REPUL.0>
0

>  <SCORE.INTRA.SOLV>
-0.509097

>  <SCORE.INTRA.SOLV.lig_0>
-48.4015

>  <SCORE.INTRA.VDW>
-0.847187

>  <SCORE.INTRA.VDW.0>
-2.83256

>  <SCORE.INTRA.norm>
-0.0333307

>  <SCORE.RESTR>
0

>  <SCORE.RESTR.CAVITY>
0

>  <SCORE.RESTR.norm>
0

>  <SCORE.SYSTEM>
0

>  <SCORE.SYSTEM.CONST>
0

>  <SCORE.SYSTEM.DIHEDRAL>
0

>  <SCORE.SYSTEM.SOLV>
0

>  <SCORE.SYSTEM.norm>
0

>  <SCORE.heavy>
27

>  <SCORE.norm>
-0.371982

>  <RMSD>
15.976

$$$$
ligand
 OpenBabel02271912153D
libRbt.so/2013.1/901 2013/11/27
 27 29  0  0  0  0  0  0  0  0999 V2000
    6.7499    0.1769   22.1034 N   0  0  0  0  0  0  0  0  0  0  0  0
    5.7052   -0.8648   21.9554 C   0  0  2  0  0  0  0  0  0  0  0  0
    4.7711   -0.4318   20.8329 C   0  0  0  0  0  0  0  0  0  0  0  0
    4.7122   -0.9337   19.6615 O   0  0  0  0  0  0  0  0  0  0  0  0
    4.9955   -1.0443   23.2992 C   0  0  0  0  0  0  0  0  0  0  0  0
    5.8546   -1.7687   24.3270 C   0  0  0  0  0  0  0  0  0  0  0  0
    6.0281   -3.5915   24.3881 S   0  0  2  0  0  0  0  0  0  0  0  0
    7.6180   -3.6860   25.2090 C   0  0  0  0  0  0  0  0  0  0  0  0
    6.4317   -3.8715   22.6346 C   0  0  0  0  0  0  0  0  0  0  0  0
    6.6595   -5.3298   22.3458 C   0  0  1  0  0  0  0  0  0  0  0  0
    6.3784   -5.6733   20.9674 O   0  0  0  0  0  0  0  0  0  0  0  0
    8.0620   -5.8099   22.6419 C   0  0  1  0  0  0  0  0  0  0  0  0
    8.0567   -6.4038   23.8666 O   0  0  0  0  0  0  0  0  0  0  0  0
    8.1929   -6.9080   21.6126 C   0  0  1  0  0  0  0  0  0  0  0  0
    7.5981   -7.9981   22.1632 O   0  0  0  0  0  0  0  0  0  0  0  0
    7.3792   -6.4592   20.3786 C   0  0  2  0  0  0  0  0  0  0  0  0
    4.0462    0.5345   21.0768 O   0  0  0  0  0  0  0  0  0  0  0  0
    7.9238   -2.4330   17.1124 N   0  0  0  0  0  0  0  0  0  0  0  0
    6.7846   -3.1278   17.6415 C   0  0  0  0  0  0  0  0  0  0  0  0
    6.7721   -4.2202   18.5440 N   0  0  0  0  0  0  0  0  0  0  0  0
    7.9544   -4.5530   18.8832 C   0  0  0  0  0  0  0  0  0  0  0  0
    9.1905   -3.8983   18.3995 C   0  0  0  0  0  0  0  0  0  0  0  0
    9.1583   -2.8766   17.5340 C   0  0  0  0  0  0  0  0  0  0  0  0
   10.3307   -2.3992   17.1698 N   0  0  0  0  0  0  0  0  0  0  0  0
   10.2895   -4.4270   18.8822 N   0  0  0  0  0  0  0  0  0  0  0  0
    9.7385   -5.4146   19.6778 C   0  0  0  0  0  0  0  0  0  0  0  0
    8.2868   -5.4997   19.6929 N   0  0  0  0  0  0  0  0  0  0  0  0
  2  1  1  1  0  0  0
  2  3  1  0  0  0  0
  2  5  1  0  0  0  0
  3  4  1  0  0  0  0
  3 17  1  0  0  0  0
  5  6  1  0  0  0  0
  7  6  1  6  0  0  0
  7  8  1  0  0  0  0
  7  9  1  0  0  0  0
 10  9  1  6  0  0  0
 10 11  1  0  0  0  0
 10 12  1  0  0  0  0
 11 16  1  0  0  0  0
 12 13  1  1  0  0  0
 12 14  1  0  0  0  0
 14 15  1  1  0  0  0
 14 16  1  0  0  0  0
 16 27  1  6  0  0  0
 18 19  2  0  0  0  0
 18 23  1  0  0  0  0
 19 20  1  0  0  0  0
 20 21  2  0  0  0  0
 21 22  1  0  0  0  0
 21 27  1  0  0  0  0
 22 23  2  0  0  0  0
 22 25  1  0  0  0  0
 23 24  1  0  0  0  0
 25 26  2  0  0  0  0
 26 27  1  0  0  0  0
M  END
>  <CHROM.1>
106.61164300,-73.02194602,-81.76635838,155.47554938,179.32929732,153.56100841
-49.91547700,7.14312734,-3.66167333,21.09529861,2.87298165,-0.99610822,2.22996768

>  <Name>
ligand

>  <RI>
0

>  <Rbt.Current_Directory>
/home/itssahil/PROJECTS/Mol_Feturizer/Test_systems_manuscript/rnas/4aob

>  <Rbt.Executable>
rbdock ($Id: //depot/dev/client3/rdock/2013.1/src/exe/rbdock.cxx#4 $)

>  <Rbt.Library>
libRbt.so (2013.1, Build901 2013/11/27)

>  <Rbt.Parameter_File>
/export/apps/rDock/src/rDock_2013.1_src/data/scripts/dock_solv.prm

>  <Rbt.Receptor>
prm/blind_docking_80.prm

>  <SCORE>
-6.84291

>  <SCORE.INTER>
-8.62518

>  <SCORE.INTER.CONST>
1

>  <SCORE.INTER.POLAR>
0

>  <SCORE.INTER.ROT>
7

>  <SCORE.INTER.SOLV>
5.79151

>  <SCORE.INTER.VDW>
-15.9473

>  <SCORE.INTER.norm>
-0.319451

>  <SCORE.INTRA>
1.78227

>  <SCORE.INTRA.DIHEDRAL>
2.13875

>  <SCORE.INTRA.DIHEDRAL.0>
6.31833

>  <SCORE.INTRA.POLAR>
0

>  <SCORE.INTRA.POLAR.0>
0

>  <SCORE.INTRA.REPUL>
0

>  <SCORE.INTRA.REPUL.0>
0

>  <SCORE.INTRA.SOLV>
0.735561

>  <SCORE.INTRA.SOLV.lig_0>
-48.4015

>  <SCORE.INTRA.VDW>
0.345115

>  <SCORE.INTRA.VDW.0>
-2.83256

>  <SCORE.INTRA.norm>
0.0660101

>  <SCORE.RESTR>
0

>  <SCORE.RESTR.CAVITY>
0

>  <SCORE.RESTR.norm>
0

>  <SCORE.SYSTEM>
0

>  <SCORE.SYSTEM.CONST>
0

>  <SCORE.SYSTEM.DIHEDRAL>
0

>  <SCORE.SYSTEM.SOLV>
0

>  <SCORE.SYSTEM.norm>
0

>  <SCORE.heavy>
27

>  <SCORE.norm>
-0.253441

>  <RMSD>
16.002

$$$$
ligand
 OpenBabel02271912153D
libRbt.so/2013.1/901 2013/11/27
 27 29  0  0  0  0  0  0  0  0999 V2000
    7.9355    1.2494   16.6452 N   0  0  0  0  0  0  0  0  0  0  0  0
    8.2992    1.1691   18.0804 C   0  0  2  0  0  0  0  0  0  0  0  0
    9.6544    0.4807   18.1798 C   0  0  0  0  0  0  0  0  0  0  0  0
   10.1363   -0.3640   17.3541 O   0  0  0  0  0  0  0  0  0  0  0  0
    7.1878    0.4302   18.8290 C   0  0  0  0  0  0  0  0  0  0  0  0
    7.3179    0.5474   20.3418 C   0  0  0  0  0  0  0  0  0  0  0  0
    6.3707   -0.4914   21.5166 S   0  0  2  0  0  0  0  0  0  0  0  0
    6.6194    0.4809   23.0010 C   0  0  0  0  0  0  0  0  0  0  0  0
    7.5713   -1.8501   21.6859 C   0  0  0  0  0  0  0  0  0  0  0  0
    6.8995   -3.1349   22.0859 C   0  0  1  0  0  0  0  0  0  0  0  0
    5.8584   -3.5287   21.1597 O   0  0  0  0  0  0  0  0  0  0  0  0
    7.8387   -4.3118   22.2189 C   0  0  1  0  0  0  0  0  0  0  0  0
    8.1473   -4.4609   23.5361 O   0  0  0  0  0  0  0  0  0  0  0  0
    6.9077   -5.4418   21.8466 C   0  0  1  0  0  0  0  0  0  0  0  0
    6.2197   -5.7373   22.9801 O   0  0  0  0  0  0  0  0  0  0  0  0
    5.9269   -4.8805   20.7935 C   0  0  2  0  0  0  0  0  0  0  0  0
   10.3145    0.7321   19.1895 O   0  0  0  0  0  0  0  0  0  0  0  0
    6.6149   -3.0776   15.9509 N   0  0  0  0  0  0  0  0  0  0  0  0
    5.7006   -2.7466   17.0068 C   0  0  0  0  0  0  0  0  0  0  0  0
    5.6226   -3.3158   18.3021 N   0  0  0  0  0  0  0  0  0  0  0  0
    6.5137   -4.2115   18.4678 C   0  0  0  0  0  0  0  0  0  0  0  0
    7.5035   -4.6209   17.4464 C   0  0  0  0  0  0  0  0  0  0  0  0
    7.5335   -4.0667   16.2275 C   0  0  0  0  0  0  0  0  0  0  0  0
    8.4517   -4.5370   15.4085 N   0  0  0  0  0  0  0  0  0  0  0  0
    8.3113   -5.5729   17.8484 N   0  0  0  0  0  0  0  0  0  0  0  0
    7.8288   -5.7565   19.1311 C   0  0  0  0  0  0  0  0  0  0  0  0
    6.7151   -4.9116   19.5317 N   0  0  0  0  0  0  0  0  0  0  0  0
  2  1  1  6  0  0  0
  2  3  1  0  0  0  0
  2  5  1  0  0  0  0
  3  4  1  0  0  0  0
  3 17  1  0  0  0  0
  5  6  1  0  0  0  0
  7  6  1  6  0  0  0
  7  8  1  0  0  0  0
  7  9  1  0  0  0  0
 10  9  1  6  0  0  0
 10 11  1  0  0  0  0
 10 12  1  0  0  0  0
 11 16  1  0  0  0  0
 12 13  1  1  0  0  0
 12 14  1  0  0  0  0
 14 15  1  1  0  0  0
 14 16  1  0  0  0  0
 16 27  1  6  0  0  0
 18 19  2  0  0  0  0
 18 23  1  0  0  0  0
 19 20  1  0  0  0  0
 20 21  2  0  0  0  0
 21 22  1  0  0  0  0
 21 27  1  0  0  0  0
 22 23  2  0  0  0  0
 22 25  1  0  0  0  0
 23 24  1  0  0  0  0
 25 26  2  0  0  0  0
 26 27  1  0  0  0  0
M  END
>  <CHROM.1>
-27.59717081,-167.93917529,-166.89493595,-163.79739434,-154.91165084,56.71389584
-51.48527750,7.37746507,-2.52156600,19.60949769,0.07041311,1.30861568,0.82653893

>  <Name>
ligand

>  <RI>
0

>  <Rbt.Current_Directory>
/home/itssahil/PROJECTS/Mol_Feturizer/Test_systems_manuscript/rnas/4aob

>  <Rbt.Executable>
rbdock ($Id: //depot/dev/client3/rdock/2013.1/src/exe/rbdock.cxx#4 $)

>  <Rbt.Library>
libRbt.so (2013.1, Build901 2013/11/27)

>  <Rbt.Parameter_File>
/export/apps/rDock/src/rDock_2013.1_src/data/scripts/dock_solv.prm

>  <Rbt.Receptor>
prm/blind_docking_80.prm

>  <SCORE>
-12.474

>  <SCORE.INTER>
-12.4309

>  <SCORE.INTER.CONST>
1

>  <SCORE.INTER.POLAR>
0

>  <SCORE.INTER.ROT>
7

>  <SCORE.INTER.SOLV>
8.99489

>  <SCORE.INTER.VDW>
-19.5522

>  <SCORE.INTER.norm>
-0.460404

>  <SCORE.INTRA>
-0.0430881

>  <SCORE.INTRA.DIHEDRAL>
1.95327

>  <SCORE.INTRA.DIHEDRAL.0>
6.31833

>  <SCORE.INTRA.POLAR>
0

>  <SCORE.INTRA.POLAR.0>
0

>  <SCORE.INTRA.REPUL>
0

>  <SCORE.INTRA.REPUL.0>
0

>  <SCORE.INTRA.SOLV>
-0.794983

>  <SCORE.INTRA.SOLV.lig_0>
-48.4015

>  <SCORE.INTRA.VDW>
-0.62223

>  <SCORE.INTRA.VDW.0>
-2.83256

>  <SCORE.INTRA.norm>
-0.00159586

>  <SCORE.RESTR>
0

>  <SCORE.RESTR.CAVITY>
0

>  <SCORE.RESTR.norm>
0

>  <SCORE.SYSTEM>
0

>  <SCORE.SYSTEM.CONST>
0

>  <SCORE.SYSTEM.DIHEDRAL>
0

>  <SCORE.SYSTEM.SOLV>
0

>  <SCORE.SYSTEM.norm>
0

>  <SCORE.heavy>
27

>  <SCORE.norm>
-0.462

>  <RMSD>
16.024

$$$$
ligand
 OpenBabel02271912153D
libRbt.so/2013.1/901 2013/11/27
 27 29  0  0  0  0  0  0  0  0999 V2000
    6.6353   -5.6129   22.4217 N   0  0  0  0  0  0  0  0  0  0  0  0
    6.2856   -4.3218   21.7820 C   0  0  2  0  0  0  0  0  0  0  0  0
    6.1051   -4.5744   20.2908 C   0  0  0  0  0  0  0  0  0  0  0  0
    6.7247   -3.9863   19.3433 O   0  0  0  0  0  0  0  0  0  0  0  0
    7.3844   -3.3039   22.0956 C   0  0  0  0  0  0  0  0  0  0  0  0
    7.1230   -1.9423   21.4656 C   0  0  0  0  0  0  0  0  0  0  0  0
    8.2275   -0.4987   21.6952 S   0  0  2  0  0  0  0  0  0  0  0  0
    7.4764    0.1865   23.1707 C   0  0  0  0  0  0  0  0  0  0  0  0
    7.5714    0.5443   20.3543 C   0  0  0  0  0  0  0  0  0  0  0  0
    8.0110    0.0495   19.0038 C   0  0  1  0  0  0  0  0  0  0  0  0
    7.2476    0.6363   17.9222 O   0  0  0  0  0  0  0  0  0  0  0  0
    9.4705    0.2960   18.6968 C   0  0  1  0  0  0  0  0  0  0  0  0
   10.1582   -0.8484   18.9614 O   0  0  0  0  0  0  0  0  0  0  0  0
    9.4078    0.4434   17.1946 C   0  0  1  0  0  0  0  0  0  0  0  0
    9.4169   -0.8227   16.7022 O   0  0  0  0  0  0  0  0  0  0  0  0
    8.0485    1.1011   16.8692 C   0  0  2  0  0  0  0  0  0  0  0  0
    5.2331   -5.3890   19.9833 O   0  0  0  0  0  0  0  0  0  0  0  0
    8.8353    5.9124   15.0233 N   0  0  0  0  0  0  0  0  0  0  0  0
    8.5614    4.6485   14.4002 C   0  0  0  0  0  0  0  0  0  0  0  0
    8.3558    3.3944   15.0270 N   0  0  0  0  0  0  0  0  0  0  0  0
    8.4287    3.4942   16.2952 C   0  0  0  0  0  0  0  0  0  0  0  0
    8.7002    4.7486   17.0322 C   0  0  0  0  0  0  0  0  0  0  0  0
    8.9035    5.9115   16.3995 C   0  0  0  0  0  0  0  0  0  0  0  0
    9.1546    6.9470   17.1739 N   0  0  0  0  0  0  0  0  0  0  0  0
    8.7387    4.5962   18.3343 N   0  0  0  0  0  0  0  0  0  0  0  0
    8.4836    3.2395   18.4139 C   0  0  0  0  0  0  0  0  0  0  0  0
    8.2821    2.5430   17.1534 N   0  0  0  0  0  0  0  0  0  0  0  0
  2  1  1  1  0  0  0
  2  3  1  0  0  0  0
  2  5  1  0  0  0  0
  3  4  1  0  0  0  0
  3 17  1  0  0  0  0
  5  6  1  0  0  0  0
  7  6  1  6  0  0  0
  7  8  1  0  0  0  0
  7  9  1  0  0  0  0
 10  9  1  1  0  0  0
 10 11  1  0  0  0  0
 10 12  1  0  0  0  0
 11 16  1  0  0  0  0
 12 13  1  6  0  0  0
 12 14  1  0  0  0  0
 14 15  1  6  0  0  0
 14 16  1  0  0  0  0
 16 27  1  1  0  0  0
 18 19  2  0  0  0  0
 18 23  1  0  0  0  0
 19 20  1  0  0  0  0
 20 21  2  0  0  0  0
 21 22  1  0  0  0  0
 21 27  1  0  0  0  0
 22 23  2  0  0  0  0
 22 25  1  0  0  0  0
 23 24  1  0  0  0  0
 25 26  2  0  0  0  0
 26 27  1  0  0  0  0
M  END
>  <CHROM.1>
-123.74734710,179.34820733,178.15972460,-89.29436431,-74.39478339,165.36596074
-147.57340295,8.02850971,0.46491960,18.83466914,2.75889320,1.35442047,1.42677250

>  <Name>
ligand

>  <RI>
0

>  <Rbt.Current_Directory>
/home/itssahil/PROJECTS/Mol_Feturizer/Test_systems_manuscript/rnas/4aob

>  <Rbt.Executable>
rbdock ($Id: //depot/dev/client3/rdock/2013.1/src/exe/rbdock.cxx#4 $)

>  <Rbt.Library>
libRbt.so (2013.1, Build901 2013/11/27)

>  <Rbt.Parameter_File>
/export/apps/rDock/src/rDock_2013.1_src/data/scripts/dock_solv.prm

>  <Rbt.Receptor>
prm/blind_docking_100.prm

>  <SCORE>
-13.3635

>  <SCORE.INTER>
-12.6826

>  <SCORE.INTER.CONST>
1

>  <SCORE.INTER.POLAR>
0

>  <SCORE.INTER.ROT>
7

>  <SCORE.INTER.SOLV>
7.50701

>  <SCORE.INTER.VDW>
-19.2241

>  <SCORE.INTER.norm>
-0.469727

>  <SCORE.INTRA>
-0.682571

>  <SCORE.INTRA.DIHEDRAL>
-1.18085

>  <SCORE.INTRA.DIHEDRAL.0>
6.31833

>  <SCORE.INTRA.POLAR>
0

>  <SCORE.INTRA.POLAR.0>
0

>  <SCORE.INTRA.REPUL>
0

>  <SCORE.INTRA.REPUL.0>
0

>  <SCORE.INTRA.SOLV>
-0.64182

>  <SCORE.INTRA.SOLV.lig_0>
-48.4015

>  <SCORE.INTRA.VDW>
0.228765

>  <SCORE.INTRA.VDW.0>
-2.83256

>  <SCORE.INTRA.norm>
-0.0252804

>  <SCORE.RESTR>
0.00168443

>  <SCORE.RESTR.CAVITY>
0.00168443

>  <SCORE.RESTR.norm>
6.23862e-05

>  <SCORE.SYSTEM>
0

>  <SCORE.SYSTEM.CONST>
0

>  <SCORE.SYSTEM.DIHEDRAL>
0

>  <SCORE.SYSTEM.SOLV>
0

>  <SCORE.SYSTEM.norm>
0

>  <SCORE.heavy>
27

>  <SCORE.norm>
-0.494945

>  <RMSD>
16.054

$$$$
ligand
 OpenBabel02271912153D
libRbt.so/2013.1/901 2013/11/27
 27 29  0  0  0  0  0  0  0  0999 V2000
   10.2800    7.2361   15.3780 N   0  0  0  0  0  0  0  0  0  0  0  0
    8.8554    7.6151   15.2193 C   0  0  2  0  0  0  0  0  0  0  0  0
    8.4193    8.3311   16.4912 C   0  0  0  0  0  0  0  0  0  0  0  0
    7.3791    8.0761   17.1842 O   0  0  0  0  0  0  0  0  0  0  0  0
    8.0406    6.3539   14.9242 C   0  0  0  0  0  0  0  0  0  0  0  0
    8.2397    5.2657   15.9707 C   0  0  0  0  0  0  0  0  0  0  0  0
    7.2503    3.7245   16.0205 S   0  0  2  0  0  0  0  0  0  0  0  0
    5.7065    4.4115   16.6165 C   0  0  0  0  0  0  0  0  0  0  0  0
    7.9962    2.9867   17.5090 C   0  0  0  0  0  0  0  0  0  0  0  0
    7.1275    1.9013   18.0826 C   0  0  1  0  0  0  0  0  0  0  0  0
    6.9304    0.8024   17.1604 O   0  0  0  0  0  0  0  0  0  0  0  0
    7.6465    1.3065   19.3717 C   0  0  1  0  0  0  0  0  0  0  0  0
    6.9950    1.9040   20.4066 O   0  0  0  0  0  0  0  0  0  0  0  0
    7.1068   -0.0998   19.2551 C   0  0  1  0  0  0  0  0  0  0  0  0
    5.8209   -0.0349   19.6883 O   0  0  0  0  0  0  0  0  0  0  0  0
    7.1150   -0.4554   17.7519 C   0  0  2  0  0  0  0  0  0  0  0  0
    9.1194    9.2826   16.8417 O   0  0  0  0  0  0  0  0  0  0  0  0
   10.5896   -2.7962   14.6499 N   0  0  0  0  0  0  0  0  0  0  0  0
    9.1752   -2.5706   14.5542 C   0  0  0  0  0  0  0  0  0  0  0  0
    8.3353   -1.9009   15.4783 N   0  0  0  0  0  0  0  0  0  0  0  0
    8.9984   -1.4701   16.4776 C   0  0  0  0  0  0  0  0  0  0  0  0
   10.4558   -1.6458   16.6665 C   0  0  0  0  0  0  0  0  0  0  0  0
   11.2116   -2.2990   15.7743 C   0  0  0  0  0  0  0  0  0  0  0  0
   12.4901   -2.4007   16.0743 N   0  0  0  0  0  0  0  0  0  0  0  0
   10.9085   -1.1240   17.7814 N   0  0  0  0  0  0  0  0  0  0  0  0
    9.7290   -0.6130   18.2909 C   0  0  0  0  0  0  0  0  0  0  0  0
    8.5344   -0.8154   17.4868 N   0  0  0  0  0  0  0  0  0  0  0  0
  2  1  1  1  0  0  0
  2  3  1  0  0  0  0
  2  5  1  0  0  0  0
  3  4  1  0  0  0  0
  3 17  1  0  0  0  0
  5  6  1  0  0  0  0
  7  6  1  1  0  0  0
  7  8  1  0  0  0  0
  7  9  1  0  0  0  0
 10  9  1  6  0  0  0
 10 11  1  0  0  0  0
 10 12  1  0  0  0  0
 11 16  1  0  0  0  0
 12 13  1  1  0  0  0
 12 14  1  0  0  0  0
 14 15  1  6  0  0  0
 14 16  1  0  0  0  0
 16 27  1  6  0  0  0
 18 19  2  0  0  0  0
 18 23  1  0  0  0  0
 19 20  1  0  0  0  0
 20 21  2  0  0  0  0
 21 22  1  0  0  0  0
 21 27  1  0  0  0  0
 22 23  2  0  0  0  0
 22 25  1  0  0  0  0
 23 24  1  0  0  0  0
 25 26  2  0  0  0  0
 26 27  1  0  0  0  0
M  END
>  <CHROM.1>
-130.00930094,54.57269880,172.02353770,-73.01310278,162.35018113,61.50699921
-90.80541633,8.41321188,2.09114094,16.92497707,-1.77173770,-0.74394448,2.95695365

>  <Name>
ligand

>  <RI>
0

>  <Rbt.Current_Directory>
/home/itssahil/PROJECTS/Mol_Feturizer/Test_systems_manuscript/rnas/4aob

>  <Rbt.Executable>
rbdock ($Id: //depot/dev/client3/rdock/2013.1/src/exe/rbdock.cxx#4 $)

>  <Rbt.Library>
libRbt.so (2013.1, Build901 2013/11/27)

>  <Rbt.Parameter_File>
/export/apps/rDock/src/rDock_2013.1_src/data/scripts/dock_solv.prm

>  <Rbt.Receptor>
prm/blind_docking_60.prm

>  <SCORE>
-9.87854

>  <SCORE.INTER>
-9.84

>  <SCORE.INTER.CONST>
1

>  <SCORE.INTER.POLAR>
0

>  <SCORE.INTER.ROT>
7

>  <SCORE.INTER.SOLV>
14.1264

>  <SCORE.INTER.VDW>
-19.5355

>  <SCORE.INTER.norm>
-0.364445

>  <SCORE.INTRA>
-0.0385361

>  <SCORE.INTRA.DIHEDRAL>
-2.49543

>  <SCORE.INTRA.DIHEDRAL.0>
6.31833

>  <SCORE.INTRA.POLAR>
0

>  <SCORE.INTRA.POLAR.0>
0

>  <SCORE.INTRA.REPUL>
0

>  <SCORE.INTRA.REPUL.0>
0

>  <SCORE.INTRA.SOLV>
-0.0357915

>  <SCORE.INTRA.SOLV.lig_0>
-48.4015

>  <SCORE.INTRA.VDW>
1.22707

>  <SCORE.INTRA.VDW.0>
-2.83256

>  <SCORE.INTRA.norm>
-0.00142726

>  <SCORE.RESTR>
0

>  <SCORE.RESTR.CAVITY>
0

>  <SCORE.RESTR.norm>
0

>  <SCORE.SYSTEM>
0

>  <SCORE.SYSTEM.CONST>
0

>  <SCORE.SYSTEM.DIHEDRAL>
0

>  <SCORE.SYSTEM.SOLV>
0

>  <SCORE.SYSTEM.norm>
0

>  <SCORE.heavy>
27

>  <SCORE.norm>
-0.365872

>  <RMSD>
16.109

$$$$
ligand
 OpenBabel02271912153D
libRbt.so/2013.1/901 2013/11/27
 27 29  0  0  0  0  0  0  0  0999 V2000
   14.5383    7.8688   20.7193 N   0  0  0  0  0  0  0  0  0  0  0  0
   13.1301    7.4627   20.4947 C   0  0  2  0  0  0  0  0  0  0  0  0
   12.7325    6.5172   21.6209 C   0  0  0  0  0  0  0  0  0  0  0  0
   11.6287    6.5241   22.2605 O   0  0  0  0  0  0  0  0  0  0  0  0
   13.0154    6.8321   19.1052 C   0  0  0  0  0  0  0  0  0  0  0  0
   11.5737    6.5519   18.7026 C   0  0  0  0  0  0  0  0  0  0  0  0
   11.0684    6.1443   16.9894 S   0  0  2  0  0  0  0  0  0  0  0  0
   11.1943    7.7814   16.2719 C   0  0  0  0  0  0  0  0  0  0  0  0
    9.2835    5.9412   17.2879 C   0  0  0  0  0  0  0  0  0  0  0  0
    8.5066    5.9200   16.0003 C   0  0  1  0  0  0  0  0  0  0  0  0
    7.7355    4.7052   15.8373 O   0  0  0  0  0  0  0  0  0  0  0  0
    7.5470    7.0761   15.8347 C   0  0  1  0  0  0  0  0  0  0  0  0
    8.1490    8.0186   15.0589 O   0  0  0  0  0  0  0  0  0  0  0  0
    6.4781    6.4195   14.9929 C   0  0  1  0  0  0  0  0  0  0  0  0
    6.9298    6.4834   13.7133 O   0  0  0  0  0  0  0  0  0  0  0  0
    6.4140    4.9397   15.4315 C   0  0  2  0  0  0  0  0  0  0  0  0
   13.5921    5.7083   21.9749 O   0  0  0  0  0  0  0  0  0  0  0  0
    1.7871    4.3549   17.7606 N   0  0  0  0  0  0  0  0  0  0  0  0
    2.2479    4.1537   16.4161 C   0  0  0  0  0  0  0  0  0  0  0  0
    3.5561    4.3439   15.9057 N   0  0  0  0  0  0  0  0  0  0  0  0
    4.3570    4.7287   16.8190 C   0  0  0  0  0  0  0  0  0  0  0  0
    3.9827    4.9593   18.2322 C   0  0  0  0  0  0  0  0  0  0  0  0
    2.7297    4.7814   18.6707 C   0  0  0  0  0  0  0  0  0  0  0  0
    2.5285    5.0410   19.9463 N   0  0  0  0  0  0  0  0  0  0  0  0
    4.9800    5.3647   18.9814 N   0  0  0  0  0  0  0  0  0  0  0  0
    5.9864    5.3823   18.0333 C   0  0  0  0  0  0  0  0  0  0  0  0
    5.6142    4.9825   16.6856 N   0  0  0  0  0  0  0  0  0  0  0  0
  2  1  1  1  0  0  0
  2  3  1  0  0  0  0
  2  5  1  0  0  0  0
  3  4  1  0  0  0  0
  3 17  1  0  0  0  0
  5  6  1  0  0  0  0
  7  6  1  1  0  0  0
  7  8  1  0  0  0  0
  7  9  1  0  0  0  0
 10  9  1  1  0  0  0
 10 11  1  0  0  0  0
 10 12  1  0  0  0  0
 11 16  1  0  0  0  0
 12 13  1  6  0  0  0
 12 14  1  0  0  0  0
 14 15  1  6  0  0  0
 14 16  1  0  0  0  0
 16 27  1  1  0  0  0
 18 19  2  0  0  0  0
 18 23  1  0  0  0  0
 19 20  1  0  0  0  0
 20 21  2  0  0  0  0
 21 22  1  0  0  0  0
 21 27  1  0  0  0  0
 22 23  2  0  0  0  0
 22 25  1  0  0  0  0
 23 24  1  0  0  0  0
 25 26  2  0  0  0  0
 26 27  1  0  0  0  0
M  END
>  <CHROM.1>
137.26013741,-172.24533614,166.40722550,-75.12244984,166.20843654,122.07523743
-154.84438689,8.09909069,5.93406728,17.72769375,0.28548538,0.25472644,1.72232360

>  <Name>
ligand

>  <RI>
0

>  <Rbt.Current_Directory>
/home/itssahil/PROJECTS/Mol_Feturizer/Test_systems_manuscript/rnas/4aob

>  <Rbt.Executable>
rbdock ($Id: //depot/dev/client3/rdock/2013.1/src/exe/rbdock.cxx#4 $)

>  <Rbt.Library>
libRbt.so (2013.1, Build901 2013/11/27)

>  <Rbt.Parameter_File>
/export/apps/rDock/src/rDock_2013.1_src/data/scripts/dock_solv.prm

>  <Rbt.Receptor>
prm/blind_docking_40.prm

>  <SCORE>
-16.7785

>  <SCORE.INTER>
-18.1839

>  <SCORE.INTER.CONST>
1

>  <SCORE.INTER.POLAR>
0

>  <SCORE.INTER.ROT>
7

>  <SCORE.INTER.SOLV>
11.7914

>  <SCORE.INTER.VDW>
-24.3197

>  <SCORE.INTER.norm>
-0.673477

>  <SCORE.INTRA>
1.40539

>  <SCORE.INTRA.DIHEDRAL>
3.17727

>  <SCORE.INTRA.DIHEDRAL.0>
6.31833

>  <SCORE.INTRA.POLAR>
0

>  <SCORE.INTRA.POLAR.0>
0

>  <SCORE.INTRA.REPUL>
0

>  <SCORE.INTRA.REPUL.0>
0

>  <SCORE.INTRA.SOLV>
-0.596945

>  <SCORE.INTRA.SOLV.lig_0>
-48.4015

>  <SCORE.INTRA.VDW>
0.115229

>  <SCORE.INTRA.VDW.0>
-2.83256

>  <SCORE.INTRA.norm>
0.0520515

>  <SCORE.RESTR>
0

>  <SCORE.RESTR.CAVITY>
0

>  <SCORE.RESTR.norm>
0

>  <SCORE.SYSTEM>
0

>  <SCORE.SYSTEM.CONST>
0

>  <SCORE.SYSTEM.DIHEDRAL>
0

>  <SCORE.SYSTEM.SOLV>
0

>  <SCORE.SYSTEM.norm>
0

>  <SCORE.heavy>
27

>  <SCORE.norm>
-0.621425

>  <RMSD>
16.132

$$$$
ligand
 OpenBabel02271912153D
libRbt.so/2013.1/901 2013/11/27
 27 29  0  0  0  0  0  0  0  0999 V2000
    8.0457   -3.8867   15.2616 N   0  0  0  0  0  0  0  0  0  0  0  0
    7.2383   -4.0815   16.4898 C   0  0  2  0  0  0  0  0  0  0  0  0
    6.2438   -2.9313   16.5810 C   0  0  0  0  0  0  0  0  0  0  0  0
    6.4092   -1.7504   16.1278 O   0  0  0  0  0  0  0  0  0  0  0  0
    8.1822   -4.1631   17.6914 C   0  0  0  0  0  0  0  0  0  0  0  0
    7.4516   -4.4525   18.9959 C   0  0  0  0  0  0  0  0  0  0  0  0
    7.5229   -3.3476   20.4556 S   0  0  2  0  0  0  0  0  0  0  0  0
    6.5285   -4.3222   21.5833 C   0  0  0  0  0  0  0  0  0  0  0  0
    6.3723   -2.0654   19.8653 C   0  0  0  0  0  0  0  0  0  0  0  0
    6.0971   -1.0378   20.9285 C   0  0  1  0  0  0  0  0  0  0  0  0
    7.2232   -0.1554   21.1524 O   0  0  0  0  0  0  0  0  0  0  0  0
    4.8988   -0.1599   20.6485 C   0  0  1  0  0  0  0  0  0  0  0  0
    3.8370   -0.6599   21.3377 O   0  0  0  0  0  0  0  0  0  0  0  0
    5.3274    1.1099   21.3459 C   0  0  1  0  0  0  0  0  0  0  0  0
    5.0138    0.9314   22.6556 O   0  0  0  0  0  0  0  0  0  0  0  0
    6.8629    1.1988   21.2028 C   0  0  2  0  0  0  0  0  0  0  0  0
    5.2063   -3.1633   17.2041 O   0  0  0  0  0  0  0  0  0  0  0  0
    5.7815    4.8483   17.6411 N   0  0  0  0  0  0  0  0  0  0  0  0
    5.4373    4.6873   19.0253 C   0  0  0  0  0  0  0  0  0  0  0  0
    5.8090    3.6353   19.8989 N   0  0  0  0  0  0  0  0  0  0  0  0
    6.5450    2.7805   19.3060 C   0  0  0  0  0  0  0  0  0  0  0  0
    6.9595    2.8585   17.8874 C   0  0  0  0  0  0  0  0  0  0  0  0
    6.5734    3.8639   17.0912 C   0  0  0  0  0  0  0  0  0  0  0  0
    6.9966    3.8011   15.8455 N   0  0  0  0  0  0  0  0  0  0  0  0
    7.7082    1.8529   17.5020 N   0  0  0  0  0  0  0  0  0  0  0  0
    7.7682    1.1441   18.6877 C   0  0  0  0  0  0  0  0  0  0  0  0
    7.0546    1.7133   19.8197 N   0  0  0  0  0  0  0  0  0  0  0  0
  2  1  1  6  0  0  0
  2  3  1  0  0  0  0
  2  5  1  0  0  0  0
  3  4  1  0  0  0  0
  3 17  1  0  0  0  0
  5  6  1  0  0  0  0
  7  6  1  6  0  0  0
  7  8  1  0  0  0  0
  7  9  1  0  0  0  0
 10  9  1  6  0  0  0
 10 11  1  0  0  0  0
 10 12  1  0  0  0  0
 11 16  1  0  0  0  0
 12 13  1  1  0  0  0
 12 14  1  0  0  0  0
 14 15  1  1  0  0  0
 14 16  1  0  0  0  0
 16 27  1  6  0  0  0
 18 19  2  0  0  0  0
 18 23  1  0  0  0  0
 19 20  1  0  0  0  0
 20 21  2  0  0  0  0
 21 22  1  0  0  0  0
 21 27  1  0  0  0  0
 22 23  2  0  0  0  0
 22 25  1  0  0  0  0
 23 24  1  0  0  0  0
 25 26  2  0  0  0  0
 26 27  1  0  0  0  0
M  END
>  <CHROM.1>
-29.37826185,-176.34401437,-121.70776350,-177.72404525,174.27589111,72.84761374
160.90923196,6.51095188,-0.30997924,19.07780944,-1.10855590,1.30730974,-0.40710319

>  <Name>
ligand

>  <RI>
0

>  <Rbt.Current_Directory>
/home/itssahil/PROJECTS/Mol_Feturizer/Test_systems_manuscript/rnas/4aob

>  <Rbt.Executable>
rbdock ($Id: //depot/dev/client3/rdock/2013.1/src/exe/rbdock.cxx#4 $)

>  <Rbt.Library>
libRbt.so (2013.1, Build901 2013/11/27)

>  <Rbt.Parameter_File>
/export/apps/rDock/src/rDock_2013.1_src/data/scripts/dock_solv.prm

>  <Rbt.Receptor>
prm/blind_docking_40.prm

>  <SCORE>
-9.28253

>  <SCORE.INTER>
-9.90311

>  <SCORE.INTER.CONST>
1

>  <SCORE.INTER.POLAR>
0

>  <SCORE.INTER.ROT>
7

>  <SCORE.INTER.SOLV>
7.60114

>  <SCORE.INTER.VDW>
-17.4025

>  <SCORE.INTER.norm>
-0.366782

>  <SCORE.INTRA>
0.62058

>  <SCORE.INTRA.DIHEDRAL>
3.206

>  <SCORE.INTRA.DIHEDRAL.0>
6.31833

>  <SCORE.INTRA.POLAR>
0

>  <SCORE.INTRA.POLAR.0>
0

>  <SCORE.INTRA.REPUL>
0

>  <SCORE.INTRA.REPUL.0>
0

>  <SCORE.INTRA.SOLV>
-0.794295

>  <SCORE.INTRA.SOLV.lig_0>
-48.4015

>  <SCORE.INTRA.VDW>
-0.585273

>  <SCORE.INTRA.VDW.0>
-2.83256

>  <SCORE.INTRA.norm>
0.0229844

>  <SCORE.RESTR>
0

>  <SCORE.RESTR.CAVITY>
0

>  <SCORE.RESTR.norm>
0

>  <SCORE.SYSTEM>
0

>  <SCORE.SYSTEM.CONST>
0

>  <SCORE.SYSTEM.DIHEDRAL>
0

>  <SCORE.SYSTEM.SOLV>
0

>  <SCORE.SYSTEM.norm>
0

>  <SCORE.heavy>
27

>  <SCORE.norm>
-0.343797

>  <RMSD>
16.139

$$$$
ligand
 OpenBabel02271912153D
libRbt.so/2013.1/901 2013/11/27
 27 29  0  0  0  0  0  0  0  0999 V2000
    5.9305    3.8038   19.6111 N   0  0  0  0  0  0  0  0  0  0  0  0
    6.4722    3.8146   18.2310 C   0  0  2  0  0  0  0  0  0  0  0  0
    5.3864    4.3532   17.3084 C   0  0  0  0  0  0  0  0  0  0  0  0
    5.0057    3.8369   16.2057 O   0  0  0  0  0  0  0  0  0  0  0  0
    6.9268    2.3988   17.8697 C   0  0  0  0  0  0  0  0  0  0  0  0
    8.1076    1.9274   18.7080 C   0  0  0  0  0  0  0  0  0  0  0  0
    8.9460    0.3189   18.4505 S   0  0  2  0  0  0  0  0  0  0  0  0
    9.2397    0.4445   16.6874 C   0  0  0  0  0  0  0  0  0  0  0  0
    7.4816   -0.7573   18.5673 C   0  0  0  0  0  0  0  0  0  0  0  0
    7.6813   -2.0457   17.8177 C   0  0  1  0  0  0  0  0  0  0  0  0
    8.8113   -2.8054   18.3105 O   0  0  0  0  0  0  0  0  0  0  0  0
    6.4854   -2.9700   17.8416 C   0  0  1  0  0  0  0  0  0  0  0  0
    5.7943   -2.7989   16.6816 O   0  0  0  0  0  0  0  0  0  0  0  0
    7.1793   -4.3093   17.7559 C   0  0  1  0  0  0  0  0  0  0  0  0
    7.4295   -4.5075   16.4355 O   0  0  0  0  0  0  0  0  0  0  0  0
    8.5212   -4.1631   18.5069 C   0  0  2  0  0  0  0  0  0  0  0  0
    4.8733    5.4217   17.6455 O   0  0  0  0  0  0  0  0  0  0  0  0
    7.4684   -7.2576   22.5678 N   0  0  0  0  0  0  0  0  0  0  0  0
    7.9091   -7.5072   21.2246 C   0  0  0  0  0  0  0  0  0  0  0  0
    8.1712   -6.5603   20.2035 N   0  0  0  0  0  0  0  0  0  0  0  0
    7.9783   -5.3703   20.6161 C   0  0  0  0  0  0  0  0  0  0  0  0
    7.5308   -5.0085   21.9797 C   0  0  0  0  0  0  0  0  0  0  0  0
    7.2797   -5.9368   22.9120 C   0  0  0  0  0  0  0  0  0  0  0  0
    6.8690   -5.4799   24.0771 N   0  0  0  0  0  0  0  0  0  0  0  0
    7.3919   -3.7171   22.1627 N   0  0  0  0  0  0  0  0  0  0  0  0
    7.7605   -3.2670   20.9083 C   0  0  0  0  0  0  0  0  0  0  0  0
    8.1342   -4.2843   19.9387 N   0  0  0  0  0  0  0  0  0  0  0  0
  2  1  1  1  0  0  0
  2  3  1  0  0  0  0
  2  5  1  0  0  0  0
  3  4  1  0  0  0  0
  3 17  1  0  0  0  0
  5  6  1  0  0  0  0
  7  6  1  6  0  0  0
  7  8  1  0  0  0  0
  7  9  1  0  0  0  0
 10  9  1  1  0  0  0
 10 11  1  0  0  0  0
 10 12  1  0  0  0  0
 11 16  1  0  0  0  0
 12 13  1  6  0  0  0
 12 14  1  0  0  0  0
 14 15  1  6  0  0  0
 14 16  1  0  0  0  0
 16 27  1  1  0  0  0
 18 19  2  0  0  0  0
 18 23  1  0  0  0  0
 19 20  1  0  0  0  0
 20 21  2  0  0  0  0
 21 22  1  0  0  0  0
 21 27  1  0  0  0  0
 22 23  2  0  0  0  0
 22 25  1  0  0  0  0
 23 24  1  0  0  0  0
 25 26  2  0  0  0  0
 26 27  1  0  0  0  0
M  END
>  <CHROM.1>
-131.82769577,-65.95758478,-176.26870868,51.01768576,154.48718380,59.44934609
-168.77865544,7.34600650,-1.72860690,19.09841579,2.17276240,1.32849971,-0.95890620

>  <Name>
ligand

>  <RI>
0

>  <Rbt.Current_Directory>
/home/itssahil/PROJECTS/Mol_Feturizer/Test_systems_manuscript/rnas/4aob

>  <Rbt.Executable>
rbdock ($Id: //depot/dev/client3/rdock/2013.1/src/exe/rbdock.cxx#4 $)

>  <Rbt.Library>
libRbt.so (2013.1, Build901 2013/11/27)

>  <Rbt.Parameter_File>
/export/apps/rDock/src/rDock_2013.1_src/data/scripts/dock_solv.prm

>  <Rbt.Receptor>
prm/blind_docking_100.prm

>  <SCORE>
-11.2934

>  <SCORE.INTER>
-10.9796

>  <SCORE.INTER.CONST>
1

>  <SCORE.INTER.POLAR>
0

>  <SCORE.INTER.ROT>
7

>  <SCORE.INTER.SOLV>
7.76912

>  <SCORE.INTER.VDW>
-18.1761

>  <SCORE.INTER.norm>
-0.406652

>  <SCORE.INTRA>
-0.313823

>  <SCORE.INTRA.DIHEDRAL>
-2.42629

>  <SCORE.INTRA.DIHEDRAL.0>
6.31833

>  <SCORE.INTRA.POLAR>
0

>  <SCORE.INTRA.POLAR.0>
0

>  <SCORE.INTRA.REPUL>
0

>  <SCORE.INTRA.REPUL.0>
0

>  <SCORE.INTRA.SOLV>
-0.109368

>  <SCORE.INTRA.SOLV.lig_0>
-48.4015

>  <SCORE.INTRA.VDW>
0.954008

>  <SCORE.INTRA.VDW.0>
-2.83256

>  <SCORE.INTRA.norm>
-0.0116231

>  <SCORE.RESTR>
0

>  <SCORE.RESTR.CAVITY>
0

>  <SCORE.RESTR.norm>
0

>  <SCORE.SYSTEM>
0

>  <SCORE.SYSTEM.CONST>
0

>  <SCORE.SYSTEM.DIHEDRAL>
0

>  <SCORE.SYSTEM.SOLV>
0

>  <SCORE.SYSTEM.norm>
0

>  <SCORE.heavy>
27

>  <SCORE.norm>
-0.418275

>  <RMSD>
16.145

$$$$
ligand
 OpenBabel02271912153D
libRbt.so/2013.1/901 2013/11/27
 27 29  0  0  0  0  0  0  0  0999 V2000
    7.2452   -4.2356   24.7370 N   0  0  0  0  0  0  0  0  0  0  0  0
    6.3299   -3.3793   23.9450 C   0  0  2  0  0  0  0  0  0  0  0  0
    4.9735   -4.0705   23.8930 C   0  0  0  0  0  0  0  0  0  0  0  0
    3.8716   -3.6094   24.3412 O   0  0  0  0  0  0  0  0  0  0  0  0
    6.9453   -3.1476   22.5633 C   0  0  0  0  0  0  0  0  0  0  0  0
    6.0538   -2.3124   21.6540 C   0  0  0  0  0  0  0  0  0  0  0  0
    6.3215   -2.1581   19.8481 S   0  0  2  0  0  0  0  0  0  0  0  0
    6.5066   -3.8955   19.4512 C   0  0  0  0  0  0  0  0  0  0  0  0
    8.0346   -1.5419   19.8927 C   0  0  0  0  0  0  0  0  0  0  0  0
    8.6829   -1.6125   18.5375 C   0  0  1  0  0  0  0  0  0  0  0  0
    7.8981   -0.9575   17.5119 O   0  0  0  0  0  0  0  0  0  0  0  0
   10.0697   -1.0136   18.4803 C   0  0  1  0  0  0  0  0  0  0  0  0
   10.9731   -2.0258   18.5881 O   0  0  0  0  0  0  0  0  0  0  0  0
   10.0982   -0.5388   17.0464 C   0  0  1  0  0  0  0  0  0  0  0  0
   10.4319   -1.6285   16.3070 O   0  0  0  0  0  0  0  0  0  0  0  0
    8.6571   -0.1108   16.6914 C   0  0  2  0  0  0  0  0  0  0  0  0
    4.9654   -5.2079   23.4190 O   0  0  0  0  0  0  0  0  0  0  0  0
    5.9790    4.3436   17.0925 N   0  0  0  0  0  0  0  0  0  0  0  0
    5.7463    3.1114   16.3939 C   0  0  0  0  0  0  0  0  0  0  0  0
    6.5630    1.9535   16.3739 N   0  0  0  0  0  0  0  0  0  0  0  0
    7.6004    2.1072   17.0976 C   0  0  0  0  0  0  0  0  0  0  0  0
    7.9278    3.3329   17.8597 C   0  0  0  0  0  0  0  0  0  0  0  0
    7.1347    4.4120   17.8396 C   0  0  0  0  0  0  0  0  0  0  0  0
    7.5534    5.4420   18.5458 N   0  0  0  0  0  0  0  0  0  0  0  0
    9.0577    3.2552   18.5213 N   0  0  0  0  0  0  0  0  0  0  0  0
    9.4372    1.9710   18.1767 C   0  0  0  0  0  0  0  0  0  0  0  0
    8.5365    1.2431   17.2970 N   0  0  0  0  0  0  0  0  0  0  0  0
  2  1  1  1  0  0  0
  2  3  1  0  0  0  0
  2  5  1  0  0  0  0
  3  4  1  0  0  0  0
  3 17  1  0  0  0  0
  5  6  1  0  0  0  0
  7  6  1  1  0  0  0
  7  8  1  0  0  0  0
  7  9  1  0  0  0  0
 10  9  1  1  0  0  0
 10 11  1  0  0  0  0
 10 12  1  0  0  0  0
 11 16  1  0  0  0  0
 12 13  1  6  0  0  0
 12 14  1  0  0  0  0
 14 15  1  6  0  0  0
 14 16  1  0  0  0  0
 16 27  1  1  0  0  0
 18 19  2  0  0  0  0
 18 23  1  0  0  0  0
 19 20  1  0  0  0  0
 20 21  2  0  0  0  0
 21 22  1  0  0  0  0
 21 27  1  0  0  0  0
 22 23  2  0  0  0  0
 22 25  1  0  0  0  0
 23 24  1  0  0  0  0
 25 26  2  0  0  0  0
 26 27  1  0  0  0  0
M  END
>  <CHROM.1>
119.10450097,178.10399482,-166.42269912,48.86644852,166.48346908,53.15612741
-85.52639158,7.48045347,-0.58630381,19.40862171,1.90290223,-0.72633060,2.63242342

>  <Name>
ligand

>  <RI>
0

>  <Rbt.Current_Directory>
/home/itssahil/PROJECTS/Mol_Feturizer/Test_systems_manuscript/rnas/4aob

>  <Rbt.Executable>
rbdock ($Id: //depot/dev/client3/rdock/2013.1/src/exe/rbdock.cxx#4 $)

>  <Rbt.Library>
libRbt.so (2013.1, Build901 2013/11/27)

>  <Rbt.Parameter_File>
/export/apps/rDock/src/rDock_2013.1_src/data/scripts/dock_solv.prm

>  <Rbt.Receptor>
prm/blind_docking_80.prm

>  <SCORE>
-11.9266

>  <SCORE.INTER>
-11.7592

>  <SCORE.INTER.CONST>
1

>  <SCORE.INTER.POLAR>
0

>  <SCORE.INTER.ROT>
7

>  <SCORE.INTER.SOLV>
7.97584

>  <SCORE.INTER.VDW>
-18.7648

>  <SCORE.INTER.norm>
-0.435527

>  <SCORE.INTRA>
-0.167373

>  <SCORE.INTRA.DIHEDRAL>
-2.15048

>  <SCORE.INTRA.DIHEDRAL.0>
6.31833

>  <SCORE.INTRA.POLAR>
0

>  <SCORE.INTRA.POLAR.0>
0

>  <SCORE.INTRA.REPUL>
0

>  <SCORE.INTRA.REPUL.0>
0

>  <SCORE.INTRA.SOLV>
-0.744867

>  <SCORE.INTRA.SOLV.lig_0>
-48.4015

>  <SCORE.INTRA.VDW>
1.2803

>  <SCORE.INTRA.VDW.0>
-2.83256

>  <SCORE.INTRA.norm>
-0.00619898

>  <SCORE.RESTR>
0

>  <SCORE.RESTR.CAVITY>
0

>  <SCORE.RESTR.norm>
0

>  <SCORE.SYSTEM>
0

>  <SCORE.SYSTEM.CONST>
0

>  <SCORE.SYSTEM.DIHEDRAL>
0

>  <SCORE.SYSTEM.SOLV>
0

>  <SCORE.SYSTEM.norm>
0

>  <SCORE.heavy>
27

>  <SCORE.norm>
-0.441726

>  <RMSD>
16.187

$$$$
ligand
 OpenBabel02271912153D
libRbt.so/2013.1/901 2013/11/27
 27 29  0  0  0  0  0  0  0  0999 V2000
    8.1641   -3.7563   20.0638 N   0  0  0  0  0  0  0  0  0  0  0  0
    6.6900   -3.7808   19.9058 C   0  0  2  0  0  0  0  0  0  0  0  0
    6.2701   -5.2267   19.6753 C   0  0  0  0  0  0  0  0  0  0  0  0
    5.2018   -5.7810   20.0984 O   0  0  0  0  0  0  0  0  0  0  0  0
    6.3027   -2.8468   18.7572 C   0  0  0  0  0  0  0  0  0  0  0  0
    6.0898   -1.4094   19.2131 C   0  0  0  0  0  0  0  0  0  0  0  0
    7.4033   -0.3947   19.9885 S   0  0  2  0  0  0  0  0  0  0  0  0
    6.8964   -0.5549   21.6996 C   0  0  0  0  0  0  0  0  0  0  0  0
    6.7796    1.2471   19.5068 C   0  0  0  0  0  0  0  0  0  0  0  0
    7.2501    1.6356   18.1322 C   0  0  1  0  0  0  0  0  0  0  0  0
    6.3079    2.4940   17.4450 O   0  0  0  0  0  0  0  0  0  0  0  0
    8.5865    2.3417   18.1095 C   0  0  1  0  0  0  0  0  0  0  0  0
    9.5453    1.4244   17.8065 O   0  0  0  0  0  0  0  0  0  0  0  0
    8.4061    3.2191   16.8930 C   0  0  1  0  0  0  0  0  0  0  0  0
    8.6950    2.4291   15.8263 O   0  0  0  0  0  0  0  0  0  0  0  0
    6.9117    3.6071   16.8429 C   0  0  2  0  0  0  0  0  0  0  0  0
    7.0765   -5.9322   19.0665 O   0  0  0  0  0  0  0  0  0  0  0  0
    7.3083    8.6988   17.8881 N   0  0  0  0  0  0  0  0  0  0  0  0
    7.4382    7.9247   16.6862 C   0  0  0  0  0  0  0  0  0  0  0  0
    7.2952    6.5234   16.5327 N   0  0  0  0  0  0  0  0  0  0  0  0
    7.0060    5.9642   17.6406 C   0  0  0  0  0  0  0  0  0  0  0  0
    6.8450    6.6721   18.9303 C   0  0  0  0  0  0  0  0  0  0  0  0
    7.0034    7.9980   19.0346 C   0  0  0  0  0  0  0  0  0  0  0  0
    6.8514    8.4981   20.2436 N   0  0  0  0  0  0  0  0  0  0  0  0
    6.5584    5.8782   19.9342 N   0  0  0  0  0  0  0  0  0  0  0  0
    6.5335    4.6666   19.2683 C   0  0  0  0  0  0  0  0  0  0  0  0
    6.8036    4.7064   17.8400 N   0  0  0  0  0  0  0  0  0  0  0  0
  2  1  1  6  0  0  0
  2  3  1  0  0  0  0
  2  5  1  0  0  0  0
  3  4  1  0  0  0  0
  3 17  1  0  0  0  0
  5  6  1  0  0  0  0
  7  6  1  6  0  0  0
  7  8  1  0  0  0  0
  7  9  1  0  0  0  0
 10  9  1  1  0  0  0
 10 11  1  0  0  0  0
 10 12  1  0  0  0  0
 11 16  1  0  0  0  0
 12 13  1  6  0  0  0
 12 14  1  0  0  0  0
 14 15  1  6  0  0  0
 14 16  1  0  0  0  0
 16 27  1  1  0  0  0
 18 19  2  0  0  0  0
 18 23  1  0  0  0  0
 19 20  1  0  0  0  0
 20 21  2  0  0  0  0
 21 22  1  0  0  0  0
 21 27  1  0  0  0  0
 22 23  2  0  0  0  0
 22 25  1  0  0  0  0
 23 24  1  0  0  0  0
 25 26  2  0  0  0  0
 26 27  1  0  0  0  0
M  END
>  <CHROM.1>
144.35316447,-87.84533066,61.00700611,-101.00194087,-85.53819212,149.73864450
-166.74027502,7.14056249,1.80993680,18.69788190,-1.68331983,1.16107006,-0.04425165

>  <Name>
ligand

>  <RI>
0

>  <Rbt.Current_Directory>
/home/itssahil/PROJECTS/Mol_Feturizer/Test_systems_manuscript/rnas/4aob

>  <Rbt.Executable>
rbdock ($Id: //depot/dev/client3/rdock/2013.1/src/exe/rbdock.cxx#4 $)

>  <Rbt.Library>
libRbt.so (2013.1, Build901 2013/11/27)

>  <Rbt.Parameter_File>
/export/apps/rDock/src/rDock_2013.1_src/data/scripts/dock_solv.prm

>  <Rbt.Receptor>
prm/blind_docking_60.prm

>  <SCORE>
-6.30407

>  <SCORE.INTER>
-9.18963

>  <SCORE.INTER.CONST>
1

>  <SCORE.INTER.POLAR>
0

>  <SCORE.INTER.ROT>
7

>  <SCORE.INTER.SOLV>
10.089

>  <SCORE.INTER.VDW>
-17.7561

>  <SCORE.INTER.norm>
-0.340357

>  <SCORE.INTRA>
2.88556

>  <SCORE.INTRA.DIHEDRAL>
5.47851

>  <SCORE.INTRA.DIHEDRAL.0>
6.31833

>  <SCORE.INTRA.POLAR>
0

>  <SCORE.INTRA.POLAR.0>
0

>  <SCORE.INTRA.REPUL>
0

>  <SCORE.INTRA.REPUL.0>
0

>  <SCORE.INTRA.SOLV>
1.39847

>  <SCORE.INTRA.SOLV.lig_0>
-48.4015

>  <SCORE.INTRA.VDW>
-0.552934

>  <SCORE.INTRA.VDW.0>
-2.83256

>  <SCORE.INTRA.norm>
0.106873

>  <SCORE.RESTR>
0

>  <SCORE.RESTR.CAVITY>
0

>  <SCORE.RESTR.norm>
0

>  <SCORE.SYSTEM>
0

>  <SCORE.SYSTEM.CONST>
0

>  <SCORE.SYSTEM.DIHEDRAL>
0

>  <SCORE.SYSTEM.SOLV>
0

>  <SCORE.SYSTEM.norm>
0

>  <SCORE.heavy>
27

>  <SCORE.norm>
-0.233484

>  <RMSD>
16.215

$$$$
ligand
 OpenBabel02271912153D
libRbt.so/2013.1/901 2013/11/27
 27 29  0  0  0  0  0  0  0  0999 V2000
   10.2538    9.2011   23.7383 N   0  0  0  0  0  0  0  0  0  0  0  0
   10.0967   10.1468   24.8694 C   0  0  2  0  0  0  0  0  0  0  0  0
   10.2348    9.3536   26.1625 C   0  0  0  0  0  0  0  0  0  0  0  0
    9.8136    8.1676   26.3713 O   0  0  0  0  0  0  0  0  0  0  0  0
    8.7472   10.8555   24.7344 C   0  0  0  0  0  0  0  0  0  0  0  0
    8.6482   11.6980   23.4697 C   0  0  0  0  0  0  0  0  0  0  0  0
    7.2947   12.8934   23.1603 S   0  0  2  0  0  0  0  0  0  0  0  0
    5.9661   11.7287   22.8619 C   0  0  0  0  0  0  0  0  0  0  0  0
    7.7907   13.4180   21.4885 C   0  0  0  0  0  0  0  0  0  0  0  0
    6.6610   14.0974   20.7645 C   0  0  1  0  0  0  0  0  0  0  0  0
    6.1523   15.2468   21.4835 O   0  0  0  0  0  0  0  0  0  0  0  0
    7.0104   14.5689   19.3714 C   0  0  1  0  0  0  0  0  0  0  0  0
    6.5658   13.6370   18.4847 O   0  0  0  0  0  0  0  0  0  0  0  0
    6.0977   15.7674   19.2567 C   0  0  1  0  0  0  0  0  0  0  0  0
    4.8871   15.2712   18.8910 O   0  0  0  0  0  0  0  0  0  0  0  0
    5.9860   16.3776   20.6713 C   0  0  2  0  0  0  0  0  0  0  0  0
   10.7570    9.9482   27.1070 O   0  0  0  0  0  0  0  0  0  0  0  0
    8.3978   20.5888   22.5751 N   0  0  0  0  0  0  0  0  0  0  0  0
    7.0622   20.0768   22.6965 C   0  0  0  0  0  0  0  0  0  0  0  0
    6.5267   18.8954   22.1260 N   0  0  0  0  0  0  0  0  0  0  0  0
    7.4068   18.2684   21.4506 C   0  0  0  0  0  0  0  0  0  0  0  0
    8.8082   18.7085   21.2696 C   0  0  0  0  0  0  0  0  0  0  0  0
    9.2705   19.8411   21.8150 C   0  0  0  0  0  0  0  0  0  0  0  0
   10.5309   20.1255   21.5590 N   0  0  0  0  0  0  0  0  0  0  0  0
    9.5209   17.9009   20.5213 N   0  0  0  0  0  0  0  0  0  0  0  0
    8.5621   16.9460   20.2369 C   0  0  0  0  0  0  0  0  0  0  0  0
    7.2445   17.1588   20.8142 N   0  0  0  0  0  0  0  0  0  0  0  0
  2  1  1  6  0  0  0
  2  3  1  0  0  0  0
  2  5  1  0  0  0  0
  3  4  1  0  0  0  0
  3 17  1  0  0  0  0
  5  6  1  0  0  0  0
  7  6  1  6  0  0  0
  7  8  1  0  0  0  0
  7  9  1  0  0  0  0
 10  9  1  1  0  0  0
 10 11  1  0  0  0  0
 10 12  1  0  0  0  0
 11 16  1  0  0  0  0
 12 13  1  6  0  0  0
 12 14  1  0  0  0  0
 14 15  1  1  0  0  0
 14 16  1  0  0  0  0
 16 27  1  1  0  0  0
 18 19  2  0  0  0  0
 18 23  1  0  0  0  0
 19 20  1  0  0  0  0
 20 21  2  0  0  0  0
 21 22  1  0  0  0  0
 21 27  1  0  0  0  0
 22 23  2  0  0  0  0
 22 25  1  0  0  0  0
 23 24  1  0  0  0  0
 25 26  2  0  0  0  0
 26 27  1  0  0  0  0
M  END
>  <CHROM.1>
-36.71178372,-62.86816324,-168.87349868,-71.91070108,162.66944636,57.32183548
-107.55264062,7.95671215,14.62372363,22.21427746,-1.28586577,-0.85908861
-0.23509075

>  <Name>
ligand

>  <RI>
0

>  <Rbt.Current_Directory>
/home/itssahil/PROJECTS/Mol_Feturizer/Test_systems_manuscript/rnas/4aob

>  <Rbt.Executable>
rbdock ($Id: //depot/dev/client3/rdock/2013.1/src/exe/rbdock.cxx#4 $)

>  <Rbt.Library>
libRbt.so (2013.1, Build901 2013/11/27)

>  <Rbt.Parameter_File>
/export/apps/rDock/src/rDock_2013.1_src/data/scripts/dock_solv.prm

>  <Rbt.Receptor>
prm/blind_docking_40.prm

>  <SCORE>
-21.4654

>  <SCORE.INTER>
-20.9023

>  <SCORE.INTER.CONST>
1

>  <SCORE.INTER.POLAR>
0

>  <SCORE.INTER.ROT>
7

>  <SCORE.INTER.SOLV>
14.0678

>  <SCORE.INTER.VDW>
-26.8908

>  <SCORE.INTER.norm>
-0.774159

>  <SCORE.INTRA>
-0.563131

>  <SCORE.INTRA.DIHEDRAL>
-2.48771

>  <SCORE.INTRA.DIHEDRAL.0>
6.31833

>  <SCORE.INTRA.POLAR>
0

>  <SCORE.INTRA.POLAR.0>
0

>  <SCORE.INTRA.REPUL>
0

>  <SCORE.INTRA.REPUL.0>
0

>  <SCORE.INTRA.SOLV>
-0.130744

>  <SCORE.INTRA.SOLV.lig_0>
-48.4015

>  <SCORE.INTRA.VDW>
0.746096

>  <SCORE.INTRA.VDW.0>
-2.83256

>  <SCORE.INTRA.norm>
-0.0208567

>  <SCORE.RESTR>
0

>  <SCORE.RESTR.CAVITY>
0

>  <SCORE.RESTR.norm>
0

>  <SCORE.SYSTEM>
0

>  <SCORE.SYSTEM.CONST>
0

>  <SCORE.SYSTEM.DIHEDRAL>
0

>  <SCORE.SYSTEM.SOLV>
0

>  <SCORE.SYSTEM.norm>
0

>  <SCORE.heavy>
27

>  <SCORE.norm>
-0.795016

>  <RMSD>
16.326

$$$$
ligand
 OpenBabel02271912153D
libRbt.so/2013.1/901 2013/11/27
 27 29  0  0  0  0  0  0  0  0999 V2000
    9.4831    0.7482   17.6352 N   0  0  0  0  0  0  0  0  0  0  0  0
    8.0463    0.4729   17.8766 C   0  0  2  0  0  0  0  0  0  0  0  0
    7.2751    1.7605   17.6169 C   0  0  0  0  0  0  0  0  0  0  0  0
    7.3049    2.8174   18.3308 O   0  0  0  0  0  0  0  0  0  0  0  0
    7.8796   -0.0563   19.3027 C   0  0  0  0  0  0  0  0  0  0  0  0
    6.4238   -0.3112   19.6699 C   0  0  0  0  0  0  0  0  0  0  0  0
    5.8885   -0.8753   21.3288 S   0  0  2  0  0  0  0  0  0  0  0  0
    6.7028    0.3773   22.3179 C   0  0  0  0  0  0  0  0  0  0  0  0
    6.9858   -2.3211   21.4765 C   0  0  0  0  0  0  0  0  0  0  0  0
    6.4034   -3.5290   20.7956 C   0  0  1  0  0  0  0  0  0  0  0  0
    6.2062   -3.3247   19.3757 O   0  0  0  0  0  0  0  0  0  0  0  0
    7.2280   -4.7865   20.9491 C   0  0  1  0  0  0  0  0  0  0  0  0
    6.6936   -5.5227   21.9615 O   0  0  0  0  0  0  0  0  0  0  0  0
    6.8880   -5.4902   19.6562 C   0  0  1  0  0  0  0  0  0  0  0  0
    5.7060   -6.1202   19.8827 O   0  0  0  0  0  0  0  0  0  0  0  0
    6.6768   -4.3891   18.5935 C   0  0  2  0  0  0  0  0  0  0  0  0
    6.5100    1.7457   16.6510 O   0  0  0  0  0  0  0  0  0  0  0  0
    9.8076   -1.7163   15.3952 N   0  0  0  0  0  0  0  0  0  0  0  0
    8.3816   -1.8063   15.5332 C   0  0  0  0  0  0  0  0  0  0  0  0
    7.6432   -2.5767   16.4655 N   0  0  0  0  0  0  0  0  0  0  0  0
    8.4160   -3.2269   17.2425 C   0  0  0  0  0  0  0  0  0  0  0  0
    9.8946   -3.1978   17.1857 C   0  0  0  0  0  0  0  0  0  0  0  0
   10.5539   -2.4663   16.2779 C   0  0  0  0  0  0  0  0  0  0  0  0
   11.8678   -2.5461   16.3249 N   0  0  0  0  0  0  0  0  0  0  0  0
   10.4709   -3.9610   18.0834 N   0  0  0  0  0  0  0  0  0  0  0  0
    9.3467   -4.4664   18.7102 C   0  0  0  0  0  0  0  0  0  0  0  0
    8.0621   -4.0129   18.2015 N   0  0  0  0  0  0  0  0  0  0  0  0
  2  1  1  1  0  0  0
  2  3  1  0  0  0  0
  2  5  1  0  0  0  0
  3  4  1  0  0  0  0
  3 17  1  0  0  0  0
  5  6  1  0  0  0  0
  7  6  1  6  0  0  0
  7  8  1  0  0  0  0
  7  9  1  0  0  0  0
 10  9  1  6  0  0  0
 10 11  1  0  0  0  0
 10 12  1  0  0  0  0
 11 16  1  0  0  0  0
 12 13  1  1  0  0  0
 12 14  1  0  0  0  0
 14 15  1  1  0  0  0
 14 16  1  0  0  0  0
 16 27  1  1  0  0  0
 18 19  2  0  0  0  0
 18 23  1  0  0  0  0
 19 20  1  0  0  0  0
 20 21  2  0  0  0  0
 21 22  1  0  0  0  0
 21 27  1  0  0  0  0
 22 23  2  0  0  0  0
 22 25  1  0  0  0  0
 23 24  1  0  0  0  0
 25 26  2  0  0  0  0
 26 27  1  0  0  0  0
M  END
>  <CHROM.1>
-69.62813347,177.41714889,-177.18817925,52.59438041,-83.66391412,61.14604481
-81.17382030,7.72540423,-2.08845038,18.80942650,-1.11083878,-0.91310708,2.92741923

>  <Name>
ligand

>  <RI>
0

>  <Rbt.Current_Directory>
/home/itssahil/PROJECTS/Mol_Feturizer/Test_systems_manuscript/rnas/4aob

>  <Rbt.Executable>
rbdock ($Id: //depot/dev/client3/rdock/2013.1/src/exe/rbdock.cxx#4 $)

>  <Rbt.Library>
libRbt.so (2013.1, Build901 2013/11/27)

>  <Rbt.Parameter_File>
/export/apps/rDock/src/rDock_2013.1_src/data/scripts/dock_solv.prm

>  <Rbt.Receptor>
prm/blind_docking_80.prm

>  <SCORE>
-10.0764

>  <SCORE.INTER>
-7.95891

>  <SCORE.INTER.CONST>
1

>  <SCORE.INTER.POLAR>
0

>  <SCORE.INTER.ROT>
7

>  <SCORE.INTER.SOLV>
9.60904

>  <SCORE.INTER.VDW>
-16.7756

>  <SCORE.INTER.norm>
-0.294774

>  <SCORE.INTRA>
-2.11745

>  <SCORE.INTRA.DIHEDRAL>
-2.44232

>  <SCORE.INTRA.DIHEDRAL.0>
6.31833

>  <SCORE.INTRA.POLAR>
0

>  <SCORE.INTRA.POLAR.0>
0

>  <SCORE.INTRA.REPUL>
0

>  <SCORE.INTRA.REPUL.0>
0

>  <SCORE.INTRA.SOLV>
0.506996

>  <SCORE.INTRA.SOLV.lig_0>
-48.4015

>  <SCORE.INTRA.VDW>
-1.14979

>  <SCORE.INTRA.VDW.0>
-2.83256

>  <SCORE.INTRA.norm>
-0.0784241

>  <SCORE.RESTR>
0

>  <SCORE.RESTR.CAVITY>
0

>  <SCORE.RESTR.norm>
0

>  <SCORE.SYSTEM>
0

>  <SCORE.SYSTEM.CONST>
0

>  <SCORE.SYSTEM.DIHEDRAL>
0

>  <SCORE.SYSTEM.SOLV>
0

>  <SCORE.SYSTEM.norm>
0

>  <SCORE.heavy>
27

>  <SCORE.norm>
-0.373198

>  <RMSD>
16.350

$$$$
ligand
 OpenBabel02271912153D
libRbt.so/2013.1/901 2013/11/27
 27 29  0  0  0  0  0  0  0  0999 V2000
    7.1037   -5.0704   27.0316 N   0  0  0  0  0  0  0  0  0  0  0  0
    7.8072   -4.0833   26.1777 C   0  0  2  0  0  0  0  0  0  0  0  0
    7.4841   -2.6930   26.7096 C   0  0  0  0  0  0  0  0  0  0  0  0
    6.6158   -1.8857   26.2387 O   0  0  0  0  0  0  0  0  0  0  0  0
    7.3739   -4.2922   24.7250 C   0  0  0  0  0  0  0  0  0  0  0  0
    7.7495   -5.6677   24.1902 C   0  0  0  0  0  0  0  0  0  0  0  0
    7.1870   -6.3042   22.5670 S   0  0  2  0  0  0  0  0  0  0  0  0
    8.1707   -7.8005   22.5058 C   0  0  0  0  0  0  0  0  0  0  0  0
    8.1023   -5.1436   21.5033 C   0  0  0  0  0  0  0  0  0  0  0  0
    7.7979   -5.3701   20.0479 C   0  0  1  0  0  0  0  0  0  0  0  0
    6.4553   -4.9614   19.6914 O   0  0  0  0  0  0  0  0  0  0  0  0
    8.7396   -4.6641   19.0992 C   0  0  1  0  0  0  0  0  0  0  0  0
    9.6796   -5.5596   18.6908 O   0  0  0  0  0  0  0  0  0  0  0  0
    7.8129   -4.4235   17.9306 C   0  0  1  0  0  0  0  0  0  0  0  0
    7.8103   -5.5822   17.2214 O   0  0  0  0  0  0  0  0  0  0  0  0
    6.4046   -4.1908   18.5210 C   0  0  2  0  0  0  0  0  0  0  0  0
    8.1748   -2.3021   27.6523 O   0  0  0  0  0  0  0  0  0  0  0  0
    7.2051    0.8221   17.3358 N   0  0  0  0  0  0  0  0  0  0  0  0
    7.1885   -0.3853   16.5596 C   0  0  0  0  0  0  0  0  0  0  0  0
    6.9453   -1.7069   17.0093 N   0  0  0  0  0  0  0  0  0  0  0  0
    6.7116   -1.7333   18.2616 C   0  0  0  0  0  0  0  0  0  0  0  0
    6.7001   -0.5470   19.1465 C   0  0  0  0  0  0  0  0  0  0  0  0
    6.9499    0.6845   18.6829 C   0  0  0  0  0  0  0  0  0  0  0  0
    6.9278    1.6482   19.5804 N   0  0  0  0  0  0  0  0  0  0  0  0
    6.4457   -0.8294   20.4019 N   0  0  0  0  0  0  0  0  0  0  0  0
    6.2908   -2.1997   20.3017 C   0  0  0  0  0  0  0  0  0  0  0  0
    6.4468   -2.7743   18.9750 N   0  0  0  0  0  0  0  0  0  0  0  0
  2  1  1  1  0  0  0
  2  3  1  0  0  0  0
  2  5  1  0  0  0  0
  3  4  1  0  0  0  0
  3 17  1  0  0  0  0
  5  6  1  0  0  0  0
  7  6  1  1  0  0  0
  7  8  1  0  0  0  0
  7  9  1  0  0  0  0
 10  9  1  1  0  0  0
 10 11  1  0  0  0  0
 10 12  1  0  0  0  0
 11 16  1  0  0  0  0
 12 13  1  6  0  0  0
 12 14  1  0  0  0  0
 14 15  1  6  0  0  0
 14 16  1  0  0  0  0
 16 27  1  1  0  0  0
 18 19  2  0  0  0  0
 18 23  1  0  0  0  0
 19 20  1  0  0  0  0
 20 21  2  0  0  0  0
 21 22  1  0  0  0  0
 21 27  1  0  0  0  0
 22 23  2  0  0  0  0
 22 25  1  0  0  0  0
 23 24  1  0  0  0  0
 25 26  2  0  0  0  0
 26 27  1  0  0  0  0
M  END
>  <CHROM.1>
-99.72973085,-62.25946131,171.94079035,172.18771665,-177.45582630,70.74717278
163.71786130,7.35834449,-3.44592938,21.13164871,1.29632500,-1.40606099,1.62517163

>  <Name>
ligand

>  <RI>
0

>  <Rbt.Current_Directory>
/home/itssahil/PROJECTS/Mol_Feturizer/Test_systems_manuscript/rnas/4aob

>  <Rbt.Executable>
rbdock ($Id: //depot/dev/client3/rdock/2013.1/src/exe/rbdock.cxx#4 $)

>  <Rbt.Library>
libRbt.so (2013.1, Build901 2013/11/27)

>  <Rbt.Parameter_File>
/export/apps/rDock/src/rDock_2013.1_src/data/scripts/dock_solv.prm

>  <Rbt.Receptor>
prm/blind_docking_60.prm

>  <SCORE>
-10.4759

>  <SCORE.INTER>
-9.75756

>  <SCORE.INTER.CONST>
1

>  <SCORE.INTER.POLAR>
0

>  <SCORE.INTER.ROT>
7

>  <SCORE.INTER.SOLV>
9.62918

>  <SCORE.INTER.VDW>
-17.9814

>  <SCORE.INTER.norm>
-0.361391

>  <SCORE.INTRA>
-0.718311

>  <SCORE.INTRA.DIHEDRAL>
-1.95559

>  <SCORE.INTRA.DIHEDRAL.0>
6.31833

>  <SCORE.INTRA.POLAR>
0

>  <SCORE.INTRA.POLAR.0>
0

>  <SCORE.INTRA.REPUL>
0

>  <SCORE.INTRA.REPUL.0>
0

>  <SCORE.INTRA.SOLV>
-0.160278

>  <SCORE.INTRA.SOLV.lig_0>
-48.4015

>  <SCORE.INTRA.VDW>
0.339623

>  <SCORE.INTRA.VDW.0>
-2.83256

>  <SCORE.INTRA.norm>
-0.0266041

>  <SCORE.RESTR>
0

>  <SCORE.RESTR.CAVITY>
0

>  <SCORE.RESTR.norm>
0

>  <SCORE.SYSTEM>
0

>  <SCORE.SYSTEM.CONST>
0

>  <SCORE.SYSTEM.DIHEDRAL>
0

>  <SCORE.SYSTEM.SOLV>
0

>  <SCORE.SYSTEM.norm>
0

>  <SCORE.heavy>
27

>  <SCORE.norm>
-0.387995

>  <RMSD>
16.444

$$$$
ligand
 OpenBabel02271912153D
libRbt.so/2013.1/901 2013/11/27
 27 29  0  0  0  0  0  0  0  0999 V2000
    6.8795    1.7042   23.2313 N   0  0  0  0  0  0  0  0  0  0  0  0
    6.6689    0.5558   22.3174 C   0  0  2  0  0  0  0  0  0  0  0  0
    5.2349    0.0745   22.4966 C   0  0  0  0  0  0  0  0  0  0  0  0
    4.8317   -0.8120   23.3206 O   0  0  0  0  0  0  0  0  0  0  0  0
    7.7124   -0.5191   22.6293 C   0  0  0  0  0  0  0  0  0  0  0  0
    8.2241   -1.2235   21.3799 C   0  0  0  0  0  0  0  0  0  0  0  0
    7.1852   -2.3260   20.3495 S   0  0  2  0  0  0  0  0  0  0  0  0
    6.0733   -1.0957   19.6707 C   0  0  0  0  0  0  0  0  0  0  0  0
    6.2152   -3.0913   21.6873 C   0  0  0  0  0  0  0  0  0  0  0  0
    6.3759   -4.5866   21.7008 C   0  0  1  0  0  0  0  0  0  0  0  0
    5.7255   -5.2250   20.5755 O   0  0  0  0  0  0  0  0  0  0  0  0
    7.8125   -5.0570   21.7038 C   0  0  1  0  0  0  0  0  0  0  0  0
    8.1598   -5.3499   22.9868 O   0  0  0  0  0  0  0  0  0  0  0  0
    7.6672   -6.3688   20.9687 C   0  0  1  0  0  0  0  0  0  0  0  0
    7.2676   -7.2696   21.9038 O   0  0  0  0  0  0  0  0  0  0  0  0
    6.5336   -6.1767   19.9371 C   0  0  2  0  0  0  0  0  0  0  0  0
    4.4034    0.5575   21.7260 O   0  0  0  0  0  0  0  0  0  0  0  0
    6.2538   -2.4976   16.2546 N   0  0  0  0  0  0  0  0  0  0  0  0
    5.3588   -2.9261   17.2918 C   0  0  0  0  0  0  0  0  0  0  0  0
    5.5619   -3.9505   18.2497 N   0  0  0  0  0  0  0  0  0  0  0  0
    6.7049   -4.4955   18.1081 C   0  0  0  0  0  0  0  0  0  0  0  0
    7.6991   -4.1233   17.0768 C   0  0  0  0  0  0  0  0  0  0  0  0
    7.4610   -3.1576   16.1798 C   0  0  0  0  0  0  0  0  0  0  0  0
    8.4217   -2.9407   15.3052 N   0  0  0  0  0  0  0  0  0  0  0  0
    8.7987   -4.8368   17.1241 N   0  0  0  0  0  0  0  0  0  0  0  0
    8.4941   -5.6564   18.1953 C   0  0  0  0  0  0  0  0  0  0  0  0
    7.1977   -5.4503   18.8209 N   0  0  0  0  0  0  0  0  0  0  0  0
  2  1  1  1  0  0  0
  2  3  1  0  0  0  0
  2  5  1  0  0  0  0
  3  4  1  0  0  0  0
  3 17  1  0  0  0  0
  5  6  1  0  0  0  0
  7  6  1  1  0  0  0
  7  8  1  0  0  0  0
  7  9  1  0  0  0  0
 10  9  1  6  0  0  0
 10 11  1  0  0  0  0
 10 12  1  0  0  0  0
 11 16  1  0  0  0  0
 12 13  1  1  0  0  0
 12 14  1  0  0  0  0
 14 15  1  1  0  0  0
 14 16  1  0  0  0  0
 16 27  1  6  0  0  0
 18 19  2  0  0  0  0
 18 23  1  0  0  0  0
 19 20  1  0  0  0  0
 20 21  2  0  0  0  0
 21 22  1  0  0  0  0
 21 27  1  0  0  0  0
 22 23  2  0  0  0  0
 22 25  1  0  0  0  0
 23 24  1  0  0  0  0
 25 26  2  0  0  0  0
 26 27  1  0  0  0  0
M  END
>  <CHROM.1>
-90.26325263,-142.40793180,-67.80978852,68.80383119,-121.46590331,-70.46254394
-34.36029687,6.84153770,-3.13911597,20.14969733,2.74545152,-1.35135071,1.91173373

>  <Name>
ligand

>  <RI>
0

>  <Rbt.Current_Directory>
/home/itssahil/PROJECTS/Mol_Feturizer/Test_systems_manuscript/rnas/4aob

>  <Rbt.Executable>
rbdock ($Id: //depot/dev/client3/rdock/2013.1/src/exe/rbdock.cxx#4 $)

>  <Rbt.Library>
libRbt.so (2013.1, Build901 2013/11/27)

>  <Rbt.Parameter_File>
/export/apps/rDock/src/rDock_2013.1_src/data/scripts/dock_solv.prm

>  <Rbt.Receptor>
prm/blind_docking_60.prm

>  <SCORE>
-9.08328

>  <SCORE.INTER>
-10.9159

>  <SCORE.INTER.CONST>
1

>  <SCORE.INTER.POLAR>
0

>  <SCORE.INTER.ROT>
7

>  <SCORE.INTER.SOLV>
9.80325

>  <SCORE.INTER.VDW>
-18.8117

>  <SCORE.INTER.norm>
-0.404293

>  <SCORE.INTRA>
1.83262

>  <SCORE.INTRA.DIHEDRAL>
6.30118

>  <SCORE.INTRA.DIHEDRAL.0>
6.31833

>  <SCORE.INTRA.POLAR>
0

>  <SCORE.INTRA.POLAR.0>
0

>  <SCORE.INTRA.REPUL>
0

>  <SCORE.INTRA.REPUL.0>
0

>  <SCORE.INTRA.SOLV>
-0.168253

>  <SCORE.INTRA.SOLV.lig_0>
-48.4015

>  <SCORE.INTRA.VDW>
-1.23384

>  <SCORE.INTRA.VDW.0>
-2.83256

>  <SCORE.INTRA.norm>
0.0678749

>  <SCORE.RESTR>
0

>  <SCORE.RESTR.CAVITY>
0

>  <SCORE.RESTR.norm>
0

>  <SCORE.SYSTEM>
0

>  <SCORE.SYSTEM.CONST>
0

>  <SCORE.SYSTEM.DIHEDRAL>
0

>  <SCORE.SYSTEM.SOLV>
0

>  <SCORE.SYSTEM.norm>
0

>  <SCORE.heavy>
27

>  <SCORE.norm>
-0.336418

>  <RMSD>
16.463

$$$$
ligand
 OpenBabel02271912153D
libRbt.so/2013.1/901 2013/11/27
 27 29  0  0  0  0  0  0  0  0999 V2000
   11.8397    7.4782   21.0997 N   0  0  0  0  0  0  0  0  0  0  0  0
   12.3967    6.9135   19.8470 C   0  0  2  0  0  0  0  0  0  0  0  0
   13.6239    7.7340   19.4713 C   0  0  0  0  0  0  0  0  0  0  0  0
   14.8344    7.3315   19.4787 O   0  0  0  0  0  0  0  0  0  0  0  0
   11.3064    6.9277   18.7734 C   0  0  0  0  0  0  0  0  0  0  0  0
   11.8116    6.4616   17.4145 C   0  0  0  0  0  0  0  0  0  0  0  0
   10.8895    6.7255   15.8535 S   0  0  2  0  0  0  0  0  0  0  0  0
   10.3036    8.3905   16.1619 C   0  0  0  0  0  0  0  0  0  0  0  0
    9.4435    5.6840   16.2286 C   0  0  0  0  0  0  0  0  0  0  0  0
    8.4415    5.7049   15.1072 C   0  0  1  0  0  0  0  0  0  0  0  0
    7.5432    4.5698   15.1442 O   0  0  0  0  0  0  0  0  0  0  0  0
    7.5804    6.9467   15.0666 C   0  0  1  0  0  0  0  0  0  0  0  0
    8.1127    7.8017   14.1512 O   0  0  0  0  0  0  0  0  0  0  0  0
    6.3165    6.3775   14.4658 C   0  0  1  0  0  0  0  0  0  0  0  0
    6.5255    6.3598   13.1236 O   0  0  0  0  0  0  0  0  0  0  0  0
    6.1970    4.9246   14.9766 C   0  0  2  0  0  0  0  0  0  0  0  0
   13.4170    8.9153   19.1882 O   0  0  0  0  0  0  0  0  0  0  0  0
    2.1078    4.5885   18.1922 N   0  0  0  0  0  0  0  0  0  0  0  0
    2.3030    4.2682   16.8066 C   0  0  0  0  0  0  0  0  0  0  0  0
    3.4874    4.4007   16.0401 N   0  0  0  0  0  0  0  0  0  0  0  0
    4.4464    4.8541   16.7461 C   0  0  0  0  0  0  0  0  0  0  0  0
    4.3490    5.2087   18.1798 C   0  0  0  0  0  0  0  0  0  0  0  0
    3.2048    5.0818   18.8643 C   0  0  0  0  0  0  0  0  0  0  0  0
    3.2508    5.4516   20.1276 N   0  0  0  0  0  0  0  0  0  0  0  0
    5.4691    5.6666   18.6858 N   0  0  0  0  0  0  0  0  0  0  0  0
    6.2745    5.5926   17.5643 C   0  0  0  0  0  0  0  0  0  0  0  0
    5.6528    5.0827   16.3526 N   0  0  0  0  0  0  0  0  0  0  0  0
  2  1  1  1  0  0  0
  2  3  1  0  0  0  0
  2  5  1  0  0  0  0
  3  4  1  0  0  0  0
  3 17  1  0  0  0  0
  5  6  1  0  0  0  0
  7  6  1  1  0  0  0
  7  8  1  0  0  0  0
  7  9  1  0  0  0  0
 10  9  1  1  0  0  0
 10 11  1  0  0  0  0
 10 12  1  0  0  0  0
 11 16  1  0  0  0  0
 12 13  1  6  0  0  0
 12 14  1  0  0  0  0
 14 15  1  6  0  0  0
 14 16  1  0  0  0  0
 16 27  1  1  0  0  0
 18 19  2  0  0  0  0
 18 23  1  0  0  0  0
 19 20  1  0  0  0  0
 20 21  2  0  0  0  0
 21 22  1  0  0  0  0
 21 27  1  0  0  0  0
 22 23  2  0  0  0  0
 22 25  1  0  0  0  0
 23 24  1  0  0  0  0
 25 26  2  0  0  0  0
 26 27  1  0  0  0  0
M  END
>  <CHROM.1>
112.25628487,175.70930371,-165.26074761,40.31418061,179.01681143,159.63744000
-148.66318416,8.08680707,6.20330324,17.05759169,0.17545849,0.28272722,1.59586014

>  <Name>
ligand

>  <RI>
0

>  <Rbt.Current_Directory>
/home/itssahil/PROJECTS/Mol_Feturizer/Test_systems_manuscript/rnas/4aob

>  <Rbt.Executable>
rbdock ($Id: //depot/dev/client3/rdock/2013.1/src/exe/rbdock.cxx#4 $)

>  <Rbt.Library>
libRbt.so (2013.1, Build901 2013/11/27)

>  <Rbt.Parameter_File>
/export/apps/rDock/src/rDock_2013.1_src/data/scripts/dock_solv.prm

>  <Rbt.Receptor>
prm/blind_docking_40.prm

>  <SCORE>
-18.0268

>  <SCORE.INTER>
-18.5443

>  <SCORE.INTER.CONST>
1

>  <SCORE.INTER.POLAR>
0

>  <SCORE.INTER.ROT>
7

>  <SCORE.INTER.SOLV>
11.1846

>  <SCORE.INTER.VDW>
-24.3577

>  <SCORE.INTER.norm>
-0.686825

>  <SCORE.INTRA>
0.517528

>  <SCORE.INTRA.DIHEDRAL>
-0.471749

>  <SCORE.INTRA.DIHEDRAL.0>
6.31833

>  <SCORE.INTRA.POLAR>
0

>  <SCORE.INTRA.POLAR.0>
0

>  <SCORE.INTRA.REPUL>
0

>  <SCORE.INTRA.REPUL.0>
0

>  <SCORE.INTRA.SOLV>
-0.509807

>  <SCORE.INTRA.SOLV.lig_0>
-48.4015

>  <SCORE.INTRA.VDW>
1.00831

>  <SCORE.INTRA.VDW.0>
-2.83256

>  <SCORE.INTRA.norm>
0.0191677

>  <SCORE.RESTR>
0

>  <SCORE.RESTR.CAVITY>
0

>  <SCORE.RESTR.norm>
0

>  <SCORE.SYSTEM>
0

>  <SCORE.SYSTEM.CONST>
0

>  <SCORE.SYSTEM.DIHEDRAL>
0

>  <SCORE.SYSTEM.SOLV>
0

>  <SCORE.SYSTEM.norm>
0

>  <SCORE.heavy>
27

>  <SCORE.norm>
-0.667657

>  <RMSD>
16.529

$$$$
ligand
 OpenBabel02271912153D
libRbt.so/2013.1/901 2013/11/27
 27 29  0  0  0  0  0  0  0  0999 V2000
    4.7011   -2.6491   24.5921 N   0  0  0  0  0  0  0  0  0  0  0  0
    4.7216   -3.6870   23.5335 C   0  0  2  0  0  0  0  0  0  0  0  0
    3.7652   -4.7968   23.9506 C   0  0  0  0  0  0  0  0  0  0  0  0
    3.2844   -5.7050   23.1947 O   0  0  0  0  0  0  0  0  0  0  0  0
    6.1619   -4.1678   23.3437 C   0  0  0  0  0  0  0  0  0  0  0  0
    6.3190   -5.1008   22.1504 C   0  0  0  0  0  0  0  0  0  0  0  0
    6.2636   -4.5279   20.4110 S   0  0  2  0  0  0  0  0  0  0  0  0
    6.7044   -6.0657   19.6039 C   0  0  0  0  0  0  0  0  0  0  0  0
    7.8166   -3.5769   20.4029 C   0  0  0  0  0  0  0  0  0  0  0  0
    8.2944   -3.3107   19.0019 C   0  0  1  0  0  0  0  0  0  0  0  0
    7.2692   -2.7171   18.1691 O   0  0  0  0  0  0  0  0  0  0  0  0
    9.5052   -2.4094   18.9192 C   0  0  1  0  0  0  0  0  0  0  0  0
   10.6088   -3.1940   18.7816 O   0  0  0  0  0  0  0  0  0  0  0  0
    9.2569   -1.7479   17.5838 C   0  0  1  0  0  0  0  0  0  0  0  0
    9.7209   -2.6205   16.6517 O   0  0  0  0  0  0  0  0  0  0  0  0
    7.7254   -1.6151   17.4319 C   0  0  2  0  0  0  0  0  0  0  0  0
    3.3846   -4.7689   25.1223 O   0  0  0  0  0  0  0  0  0  0  0  0
    6.2887    3.3930   17.6043 N   0  0  0  0  0  0  0  0  0  0  0  0
    6.4690    2.4540   16.5336 C   0  0  0  0  0  0  0  0  0  0  0  0
    6.8609    1.0952   16.6230 N   0  0  0  0  0  0  0  0  0  0  0  0
    7.0430    0.7456   17.8347 C   0  0  0  0  0  0  0  0  0  0  0  0
    6.8784    1.6342   19.0068 C   0  0  0  0  0  0  0  0  0  0  0  0
    6.5202    2.9182   18.8769 C   0  0  0  0  0  0  0  0  0  0  0  0
    6.4291    3.6023   19.9989 N   0  0  0  0  0  0  0  0  0  0  0  0
    7.1343    1.0478   20.1518 N   0  0  0  0  0  0  0  0  0  0  0  0
    7.4550   -0.2172   19.6948 C   0  0  0  0  0  0  0  0  0  0  0  0
    7.3958   -0.4209   18.2562 N   0  0  0  0  0  0  0  0  0  0  0  0
  2  1  1  1  0  0  0
  2  3  1  0  0  0  0
  2  5  1  0  0  0  0
  3  4  1  0  0  0  0
  3 17  1  0  0  0  0
  5  6  1  0  0  0  0
  7  6  1  1  0  0  0
  7  8  1  0  0  0  0
  7  9  1  0  0  0  0
 10  9  1  1  0  0  0
 10 11  1  0  0  0  0
 10 12  1  0  0  0  0
 11 16  1  0  0  0  0
 12 13  1  6  0  0  0
 12 14  1  0  0  0  0
 14 15  1  6  0  0  0
 14 16  1  0  0  0  0
 16 27  1  1  0  0  0
 18 19  2  0  0  0  0
 18 23  1  0  0  0  0
 19 20  1  0  0  0  0
 20 21  2  0  0  0  0
 21 22  1  0  0  0  0
 21 27  1  0  0  0  0
 22 23  2  0  0  0  0
 22 25  1  0  0  0  0
 23 24  1  0  0  0  0
 25 26  2  0  0  0  0
 26 27  1  0  0  0  0
M  END
>  <CHROM.1>
163.45403865,-172.33461639,73.30860430,173.54811589,162.49921980,52.06474868
-145.48450527,6.78956579,-1.96989627,19.96560367,2.06849781,-0.85024965,2.79656266

>  <Name>
ligand

>  <RI>
0

>  <Rbt.Current_Directory>
/home/itssahil/PROJECTS/Mol_Feturizer/Test_systems_manuscript/rnas/4aob

>  <Rbt.Executable>
rbdock ($Id: //depot/dev/client3/rdock/2013.1/src/exe/rbdock.cxx#4 $)

>  <Rbt.Library>
libRbt.so (2013.1, Build901 2013/11/27)

>  <Rbt.Parameter_File>
/export/apps/rDock/src/rDock_2013.1_src/data/scripts/dock_solv.prm

>  <Rbt.Receptor>
prm/blind_docking_80.prm

>  <SCORE>
-12.005

>  <SCORE.INTER>
-10.9311

>  <SCORE.INTER.CONST>
1

>  <SCORE.INTER.POLAR>
0

>  <SCORE.INTER.ROT>
7

>  <SCORE.INTER.SOLV>
8.61658

>  <SCORE.INTER.VDW>
-18.4262

>  <SCORE.INTER.norm>
-0.404854

>  <SCORE.INTRA>
-1.07615

>  <SCORE.INTRA.DIHEDRAL>
-1.92545

>  <SCORE.INTRA.DIHEDRAL.0>
6.31833

>  <SCORE.INTRA.POLAR>
0

>  <SCORE.INTRA.POLAR.0>
0

>  <SCORE.INTRA.REPUL>
0

>  <SCORE.INTRA.REPUL.0>
0

>  <SCORE.INTRA.SOLV>
-0.663076

>  <SCORE.INTRA.SOLV.lig_0>
-48.4015

>  <SCORE.INTRA.VDW>
0.218115

>  <SCORE.INTRA.VDW.0>
-2.83256

>  <SCORE.INTRA.norm>
-0.0398574

>  <SCORE.RESTR>
0.00225513

>  <SCORE.RESTR.CAVITY>
0.00225513

>  <SCORE.RESTR.norm>
8.35232e-05

>  <SCORE.SYSTEM>
0

>  <SCORE.SYSTEM.CONST>
0

>  <SCORE.SYSTEM.DIHEDRAL>
0

>  <SCORE.SYSTEM.SOLV>
0

>  <SCORE.SYSTEM.norm>
0

>  <SCORE.heavy>
27

>  <SCORE.norm>
-0.444628

>  <RMSD>
16.587

$$$$
ligand
 OpenBabel02271912153D
libRbt.so/2013.1/901 2013/11/27
 27 29  0  0  0  0  0  0  0  0999 V2000
    6.6271   -0.4950   21.9977 N   0  0  0  0  0  0  0  0  0  0  0  0
    6.1038    0.6401   21.2002 C   0  0  2  0  0  0  0  0  0  0  0  0
    4.5934    0.4760   21.0914 C   0  0  0  0  0  0  0  0  0  0  0  0
    3.9719   -0.5680   20.7021 O   0  0  0  0  0  0  0  0  0  0  0  0
    6.8111    0.6555   19.8433 C   0  0  0  0  0  0  0  0  0  0  0  0
    6.4708    1.8878   19.0156 C   0  0  0  0  0  0  0  0  0  0  0  0
    7.1276    2.1810   17.3306 S   0  0  2  0  0  0  0  0  0  0  0  0
    8.8615    2.3659   17.7429 C   0  0  0  0  0  0  0  0  0  0  0  0
    6.5494    3.8952   17.1228 C   0  0  0  0  0  0  0  0  0  0  0  0
    6.7404    4.3756   15.7104 C   0  0  1  0  0  0  0  0  0  0  0  0
    6.0917    5.6465   15.4638 O   0  0  0  0  0  0  0  0  0  0  0  0
    8.1862    4.5319   15.2977 C   0  0  1  0  0  0  0  0  0  0  0  0
    8.5523    3.4181   14.6065 O   0  0  0  0  0  0  0  0  0  0  0  0
    8.0599    5.6577   14.2981 C   0  0  1  0  0  0  0  0  0  0  0  0
    7.6881    5.0704   13.1310 O   0  0  0  0  0  0  0  0  0  0  0  0
    6.9123    6.5651   14.7938 C   0  0  2  0  0  0  0  0  0  0  0  0
    3.9217    1.4747   21.3554 O   0  0  0  0  0  0  0  0  0  0  0  0
    6.7643    8.3614   19.6853 N   0  0  0  0  0  0  0  0  0  0  0  0
    5.9325    7.4605   18.9389 C   0  0  0  0  0  0  0  0  0  0  0  0
    6.0898    7.0405   17.5947 N   0  0  0  0  0  0  0  0  0  0  0  0
    7.1238    7.5639   17.0650 C   0  0  0  0  0  0  0  0  0  0  0  0
    8.0460    8.4975   17.7496 C   0  0  0  0  0  0  0  0  0  0  0  0
    7.8523    8.8808   19.0183 C   0  0  0  0  0  0  0  0  0  0  0  0
    8.7363    9.7304   19.4997 N   0  0  0  0  0  0  0  0  0  0  0  0
    9.0334    8.9117   16.9922 N   0  0  0  0  0  0  0  0  0  0  0  0
    8.7317    8.2288   15.8284 C   0  0  0  0  0  0  0  0  0  0  0  0
    7.5503    7.3816   15.8619 N   0  0  0  0  0  0  0  0  0  0  0  0
  2  1  1  1  0  0  0
  2  3  1  0  0  0  0
  2  5  1  0  0  0  0
  3  4  1  0  0  0  0
  3 17  1  0  0  0  0
  5  6  1  0  0  0  0
  7  6  1  1  0  0  0
  7  8  1  0  0  0  0
  7  9  1  0  0  0  0
 10  9  1  1  0  0  0
 10 11  1  0  0  0  0
 10 12  1  0  0  0  0
 11 16  1  0  0  0  0
 12 13  1  6  0  0  0
 12 14  1  0  0  0  0
 14 15  1  6  0  0  0
 14 16  1  0  0  0  0
 16 27  1  1  0  0  0
 18 19  2  0  0  0  0
 18 23  1  0  0  0  0
 19 20  1  0  0  0  0
 20 21  2  0  0  0  0
 21 22  1  0  0  0  0
 21 27  1  0  0  0  0
 22 23  2  0  0  0  0
 22 25  1  0  0  0  0
 23 24  1  0  0  0  0
 25 26  2  0  0  0  0
 26 27  1  0  0  0  0
M  END
>  <CHROM.1>
-52.00786659,-172.78412743,-178.59744128,-65.60958567,-170.58306501,170.42023320
-22.46433893,6.98705065,4.57750290,17.70421856,2.61959528,-1.25964382,-2.62278119

>  <Name>
ligand

>  <RI>
0

>  <Rbt.Current_Directory>
/home/itssahil/PROJECTS/Mol_Feturizer/Test_systems_manuscript/rnas/4aob

>  <Rbt.Executable>
rbdock ($Id: //depot/dev/client3/rdock/2013.1/src/exe/rbdock.cxx#4 $)

>  <Rbt.Library>
libRbt.so (2013.1, Build901 2013/11/27)

>  <Rbt.Parameter_File>
/export/apps/rDock/src/rDock_2013.1_src/data/scripts/dock_solv.prm

>  <Rbt.Receptor>
prm/blind_docking_60.prm

>  <SCORE>
-11.8036

>  <SCORE.INTER>
-10.9551

>  <SCORE.INTER.CONST>
1

>  <SCORE.INTER.POLAR>
0

>  <SCORE.INTER.ROT>
7

>  <SCORE.INTER.SOLV>
12.4137

>  <SCORE.INTER.VDW>
-19.708

>  <SCORE.INTER.norm>
-0.405744

>  <SCORE.INTRA>
-0.848474

>  <SCORE.INTRA.DIHEDRAL>
-1.85148

>  <SCORE.INTRA.DIHEDRAL.0>
6.31833

>  <SCORE.INTRA.POLAR>
0

>  <SCORE.INTRA.POLAR.0>
0

>  <SCORE.INTRA.REPUL>
0

>  <SCORE.INTRA.REPUL.0>
0

>  <SCORE.INTRA.SOLV>
-0.499583

>  <SCORE.INTRA.SOLV.lig_0>
-48.4015

>  <SCORE.INTRA.VDW>
0.327056

>  <SCORE.INTRA.VDW.0>
-2.83256

>  <SCORE.INTRA.norm>
-0.031425

>  <SCORE.RESTR>
0

>  <SCORE.RESTR.CAVITY>
0

>  <SCORE.RESTR.norm>
0

>  <SCORE.SYSTEM>
0

>  <SCORE.SYSTEM.CONST>
0

>  <SCORE.SYSTEM.DIHEDRAL>
0

>  <SCORE.SYSTEM.SOLV>
0

>  <SCORE.SYSTEM.norm>
0

>  <SCORE.heavy>
27

>  <SCORE.norm>
-0.437169

>  <RMSD>
16.597

$$$$
ligand
 OpenBabel02271912153D
libRbt.so/2013.1/901 2013/11/27
 27 29  0  0  0  0  0  0  0  0999 V2000
    7.0473   -5.6366   22.3727 N   0  0  0  0  0  0  0  0  0  0  0  0
    6.1774   -4.6315   21.7160 C   0  0  2  0  0  0  0  0  0  0  0  0
    5.0560   -4.2812   22.6856 C   0  0  0  0  0  0  0  0  0  0  0  0
    4.6943   -3.1079   23.0321 O   0  0  0  0  0  0  0  0  0  0  0  0
    5.6744   -5.2071   20.3903 C   0  0  0  0  0  0  0  0  0  0  0  0
    6.7638   -5.2798   19.3287 C   0  0  0  0  0  0  0  0  0  0  0  0
    7.6653   -3.8098   18.7098 S   0  0  2  0  0  0  0  0  0  0  0  0
    6.3575   -3.0841   17.7231 C   0  0  0  0  0  0  0  0  0  0  0  0
    8.7157   -4.6492   17.4817 C   0  0  0  0  0  0  0  0  0  0  0  0
    9.9088   -3.8121   17.1103 C   0  0  1  0  0  0  0  0  0  0  0  0
    9.5361   -2.5647   16.4762 O   0  0  0  0  0  0  0  0  0  0  0  0
   10.8089   -3.4630   18.2735 C   0  0  1  0  0  0  0  0  0  0  0  0
   11.8522   -4.3369   18.2790 O   0  0  0  0  0  0  0  0  0  0  0  0
   11.3445   -2.1293   17.8077 C   0  0  1  0  0  0  0  0  0  0  0  0
   12.3745   -2.4210   16.9713 O   0  0  0  0  0  0  0  0  0  0  0  0
   10.2143   -1.4546   16.9994 C   0  0  2  0  0  0  0  0  0  0  0  0
    4.4888   -5.2349   23.2216 O   0  0  0  0  0  0  0  0  0  0  0  0
    6.4424    1.9058   18.2861 N   0  0  0  0  0  0  0  0  0  0  0  0
    7.0830    1.5680   17.0467 C   0  0  0  0  0  0  0  0  0  0  0  0
    8.1068    0.6134   16.8269 N   0  0  0  0  0  0  0  0  0  0  0  0
    8.4286    0.0233   17.9094 C   0  0  0  0  0  0  0  0  0  0  0  0
    7.8260    0.2946   19.2337 C   0  0  0  0  0  0  0  0  0  0  0  0
    6.8694    1.2171   19.4005 C   0  0  0  0  0  0  0  0  0  0  0  0
    6.4341    1.3722   20.6340 N   0  0  0  0  0  0  0  0  0  0  0  0
    8.3317   -0.4326   20.2010 N   0  0  0  0  0  0  0  0  0  0  0  0
    9.2522   -1.1683   19.4774 C   0  0  0  0  0  0  0  0  0  0  0  0
    9.3183   -0.8995   18.0498 N   0  0  0  0  0  0  0  0  0  0  0  0
  2  1  1  1  0  0  0
  2  3  1  0  0  0  0
  2  5  1  0  0  0  0
  3  4  1  0  0  0  0
  3 17  1  0  0  0  0
  5  6  1  0  0  0  0
  7  6  1  1  0  0  0
  7  8  1  0  0  0  0
  7  9  1  0  0  0  0
 10  9  1  1  0  0  0
 10 11  1  0  0  0  0
 10 12  1  0  0  0  0
 11 16  1  0  0  0  0
 12 13  1  6  0  0  0
 12 14  1  0  0  0  0
 14 15  1  6  0  0  0
 14 16  1  0  0  0  0
 16 27  1  1  0  0  0
 18 19  2  0  0  0  0
 18 23  1  0  0  0  0
 19 20  1  0  0  0  0
 20 21  2  0  0  0  0
 21 22  1  0  0  0  0
 21 27  1  0  0  0  0
 22 23  2  0  0  0  0
 22 25  1  0  0  0  0
 23 24  1  0  0  0  0
 25 26  2  0  0  0  0
 26 27  1  0  0  0  0
M  END
>  <CHROM.1>
129.55473637,-72.14941015,-60.17181702,-73.04000975,-160.57160782,-62.91260002
-92.26812616,8.01922461,-2.39877185,19.09218443,-2.45357744,0.66900118,-0.29469812

>  <Name>
ligand

>  <RI>
0

>  <Rbt.Current_Directory>
/home/itssahil/PROJECTS/Mol_Feturizer/Test_systems_manuscript/rnas/4aob

>  <Rbt.Executable>
rbdock ($Id: //depot/dev/client3/rdock/2013.1/src/exe/rbdock.cxx#4 $)

>  <Rbt.Library>
libRbt.so (2013.1, Build901 2013/11/27)

>  <Rbt.Parameter_File>
/export/apps/rDock/src/rDock_2013.1_src/data/scripts/dock_solv.prm

>  <Rbt.Receptor>
prm/blind_docking_100.prm

>  <SCORE>
-15.5952

>  <SCORE.INTER>
-14.6053

>  <SCORE.INTER.CONST>
1

>  <SCORE.INTER.POLAR>
0

>  <SCORE.INTER.ROT>
7

>  <SCORE.INTER.SOLV>
9.63679

>  <SCORE.INTER.VDW>
-21.2158

>  <SCORE.INTER.norm>
-0.540938

>  <SCORE.INTRA>
-0.994792

>  <SCORE.INTRA.DIHEDRAL>
-0.335089

>  <SCORE.INTRA.DIHEDRAL.0>
6.31833

>  <SCORE.INTRA.POLAR>
0

>  <SCORE.INTRA.POLAR.0>
0

>  <SCORE.INTRA.REPUL>
0

>  <SCORE.INTRA.REPUL.0>
0

>  <SCORE.INTRA.SOLV>
0.50506

>  <SCORE.INTRA.SOLV.lig_0>
-48.4015

>  <SCORE.INTRA.VDW>
-1.07978

>  <SCORE.INTRA.VDW.0>
-2.83256

>  <SCORE.INTRA.norm>
-0.0368441

>  <SCORE.RESTR>
0.00488817

>  <SCORE.RESTR.CAVITY>
0.00488817

>  <SCORE.RESTR.norm>
0.000181043

>  <SCORE.SYSTEM>
0

>  <SCORE.SYSTEM.CONST>
0

>  <SCORE.SYSTEM.DIHEDRAL>
0

>  <SCORE.SYSTEM.SOLV>
0

>  <SCORE.SYSTEM.norm>
0

>  <SCORE.heavy>
27

>  <SCORE.norm>
-0.577601

>  <RMSD>
16.607

$$$$
ligand
 OpenBabel02271912153D
libRbt.so/2013.1/901 2013/11/27
 27 29  0  0  0  0  0  0  0  0999 V2000
    9.2239   -0.7669   18.7583 N   0  0  0  0  0  0  0  0  0  0  0  0
    8.1831   -0.0632   17.9709 C   0  0  2  0  0  0  0  0  0  0  0  0
    8.0876   -0.7439   16.6116 C   0  0  0  0  0  0  0  0  0  0  0  0
    9.0651   -1.1293   15.8880 O   0  0  0  0  0  0  0  0  0  0  0  0
    8.5519    1.4193   17.8818 C   0  0  0  0  0  0  0  0  0  0  0  0
    7.5463    2.2289   17.0741 C   0  0  0  0  0  0  0  0  0  0  0  0
    7.7870    3.9940   16.6465 S   0  0  2  0  0  0  0  0  0  0  0  0
    7.4496    4.7116   18.2533 C   0  0  0  0  0  0  0  0  0  0  0  0
    6.2366    4.2506   15.7263 C   0  0  0  0  0  0  0  0  0  0  0  0
    6.2899    5.5002   14.8911 C   0  0  1  0  0  0  0  0  0  0  0  0
    6.5263    6.6885   15.6843 O   0  0  0  0  0  0  0  0  0  0  0  0
    7.3428    5.4781   13.8067 C   0  0  1  0  0  0  0  0  0  0  0  0
    6.7393    5.1312   12.6372 O   0  0  0  0  0  0  0  0  0  0  0  0
    7.6714    6.9502   13.7214 C   0  0  1  0  0  0  0  0  0  0  0  0
    6.7174    7.4919   12.9202 O   0  0  0  0  0  0  0  0  0  0  0  0
    7.5168    7.5232   15.1475 C   0  0  2  0  0  0  0  0  0  0  0  0
    6.9513   -0.8787   16.1544 O   0  0  0  0  0  0  0  0  0  0  0  0
   10.6468    7.9293   19.2964 N   0  0  0  0  0  0  0  0  0  0  0  0
    9.3505    8.4598   18.9821 C   0  0  0  0  0  0  0  0  0  0  0  0
    8.5914    8.2633   17.8018 N   0  0  0  0  0  0  0  0  0  0  0  0
    9.2020    7.5037   16.9808 C   0  0  0  0  0  0  0  0  0  0  0  0
   10.5349    6.9036   17.2123 C   0  0  0  0  0  0  0  0  0  0  0  0
   11.2261    7.1270   18.3376 C   0  0  0  0  0  0  0  0  0  0  0  0
   12.4074    6.5485   18.4068 N   0  0  0  0  0  0  0  0  0  0  0  0
   10.9607    6.1667   16.2143 N   0  0  0  0  0  0  0  0  0  0  0  0
    9.8856    6.3010   15.3552 C   0  0  0  0  0  0  0  0  0  0  0  0
    8.7818    7.1245   15.8222 N   0  0  0  0  0  0  0  0  0  0  0  0
  2  1  1  1  0  0  0
  2  3  1  0  0  0  0
  2  5  1  0  0  0  0
  3  4  1  0  0  0  0
  3 17  1  0  0  0  0
  5  6  1  0  0  0  0
  7  6  1  1  0  0  0
  7  8  1  0  0  0  0
  7  9  1  0  0  0  0
 10  9  1  1  0  0  0
 10 11  1  0  0  0  0
 10 12  1  0  0  0  0
 11 16  1  0  0  0  0
 12 13  1  6  0  0  0
 12 14  1  0  0  0  0
 14 15  1  6  0  0  0
 14 16  1  0  0  0  0
 16 27  1  1  0  0  0
 18 19  2  0  0  0  0
 18 23  1  0  0  0  0
 19 20  1  0  0  0  0
 20 21  2  0  0  0  0
 21 22  1  0  0  0  0
 21 27  1  0  0  0  0
 22 23  2  0  0  0  0
 22 25  1  0  0  0  0
 23 24  1  0  0  0  0
 25 26  2  0  0  0  0
 26 27  1  0  0  0  0
M  END
>  <CHROM.1>
-42.91009103,179.33863446,-173.85794229,-74.42982058,-163.48973875,-59.10732655
-82.46255994,8.40661934,4.70834908,16.41185606,-1.75529504,-0.87545172,-0.21698790

>  <Name>
ligand

>  <RI>
0

>  <Rbt.Current_Directory>
/home/itssahil/PROJECTS/Mol_Feturizer/Test_systems_manuscript/rnas/4aob

>  <Rbt.Executable>
rbdock ($Id: //depot/dev/client3/rdock/2013.1/src/exe/rbdock.cxx#4 $)

>  <Rbt.Library>
libRbt.so (2013.1, Build901 2013/11/27)

>  <Rbt.Parameter_File>
/export/apps/rDock/src/rDock_2013.1_src/data/scripts/dock_solv.prm

>  <Rbt.Receptor>
prm/blind_docking_80.prm

>  <SCORE>
-13.1733

>  <SCORE.INTER>
-11.0385

>  <SCORE.INTER.CONST>
1

>  <SCORE.INTER.POLAR>
0

>  <SCORE.INTER.ROT>
7

>  <SCORE.INTER.SOLV>
12.5333

>  <SCORE.INTER.VDW>
-19.8035

>  <SCORE.INTER.norm>
-0.408834

>  <SCORE.INTRA>
-2.13474

>  <SCORE.INTRA.DIHEDRAL>
-1.24259

>  <SCORE.INTRA.DIHEDRAL.0>
6.31833

>  <SCORE.INTRA.POLAR>
0

>  <SCORE.INTRA.POLAR.0>
0

>  <SCORE.INTRA.REPUL>
0

>  <SCORE.INTRA.REPUL.0>
0

>  <SCORE.INTRA.SOLV>
-0.560282

>  <SCORE.INTRA.SOLV.lig_0>
-48.4015

>  <SCORE.INTRA.VDW>
-1.23331

>  <SCORE.INTRA.VDW.0>
-2.83256

>  <SCORE.INTRA.norm>
-0.0790646

>  <SCORE.RESTR>
0

>  <SCORE.RESTR.CAVITY>
0

>  <SCORE.RESTR.norm>
0

>  <SCORE.SYSTEM>
0

>  <SCORE.SYSTEM.CONST>
0

>  <SCORE.SYSTEM.DIHEDRAL>
0

>  <SCORE.SYSTEM.SOLV>
0

>  <SCORE.SYSTEM.norm>
0

>  <SCORE.heavy>
27

>  <SCORE.norm>
-0.487899

>  <RMSD>
16.680

$$$$
ligand
 OpenBabel02271912153D
libRbt.so/2013.1/901 2013/11/27
 27 29  0  0  0  0  0  0  0  0999 V2000
    6.1084    4.6468   11.8687 N   0  0  0  0  0  0  0  0  0  0  0  0
    6.0764    6.0929   12.1948 C   0  0  2  0  0  0  0  0  0  0  0  0
    7.0241    6.8069   11.2396 C   0  0  0  0  0  0  0  0  0  0  0  0
    8.0079    6.2841   10.6182 O   0  0  0  0  0  0  0  0  0  0  0  0
    6.4507    6.2735   13.6675 C   0  0  0  0  0  0  0  0  0  0  0  0
    7.9437    6.1115   13.9200 C   0  0  0  0  0  0  0  0  0  0  0  0
    8.7335    4.4991   14.2845 S   0  0  2  0  0  0  0  0  0  0  0  0
    8.7065    3.8037   12.6333 C   0  0  0  0  0  0  0  0  0  0  0  0
    7.3208    3.7005   15.1109 C   0  0  0  0  0  0  0  0  0  0  0  0
    7.1963    4.1424   16.5431 C   0  0  1  0  0  0  0  0  0  0  0  0
    6.0738    3.5257   17.2188 O   0  0  0  0  0  0  0  0  0  0  0  0
    8.4213    3.8698   17.3859 C   0  0  1  0  0  0  0  0  0  0  0  0
    9.1529    5.0155   17.4529 O   0  0  0  0  0  0  0  0  0  0  0  0
    7.7778    3.6698   18.7381 C   0  0  1  0  0  0  0  0  0  0  0  0
    7.5888    4.9175   19.2412 O   0  0  0  0  0  0  0  0  0  0  0  0
    6.4021    3.0154   18.4829 C   0  0  2  0  0  0  0  0  0  0  0  0
    6.8444    8.0188   11.1070 O   0  0  0  0  0  0  0  0  0  0  0  0
    6.0946   -1.9168   20.1423 N   0  0  0  0  0  0  0  0  0  0  0  0
    5.5539   -0.6775   20.6244 C   0  0  0  0  0  0  0  0  0  0  0  0
    5.7077    0.6159   20.0665 N   0  0  0  0  0  0  0  0  0  0  0  0
    6.4147    0.5811   19.0069 C   0  0  0  0  0  0  0  0  0  0  0  0
    7.0114   -0.6426   18.4264 C   0  0  0  0  0  0  0  0  0  0  0  0
    6.8535   -1.8453   18.9945 C   0  0  0  0  0  0  0  0  0  0  0  0
    7.4538   -2.8476   18.3862 N   0  0  0  0  0  0  0  0  0  0  0  0
    7.7084   -0.4226   17.3373 N   0  0  0  0  0  0  0  0  0  0  0  0
    7.5421    0.9460   17.2314 C   0  0  0  0  0  0  0  0  0  0  0  0
    6.7341    1.5821   18.2596 N   0  0  0  0  0  0  0  0  0  0  0  0
  2  1  1  6  0  0  0
  2  3  1  0  0  0  0
  2  5  1  0  0  0  0
  3  4  1  0  0  0  0
  3 17  1  0  0  0  0
  5  6  1  0  0  0  0
  7  6  1  6  0  0  0
  7  8  1  0  0  0  0
  7  9  1  0  0  0  0
 10  9  1  6  0  0  0
 10 11  1  0  0  0  0
 10 12  1  0  0  0  0
 11 16  1  0  0  0  0
 12 13  1  1  0  0  0
 12 14  1  0  0  0  0
 14 15  1  6  0  0  0
 14 16  1  0  0  0  0
 16 27  1  6  0  0  0
 18 19  2  0  0  0  0
 18 23  1  0  0  0  0
 19 20  1  0  0  0  0
 20 21  2  0  0  0  0
 21 22  1  0  0  0  0
 21 27  1  0  0  0  0
 22 23  2  0  0  0  0
 22 25  1  0  0  0  0
 23 24  1  0  0  0  0
 25 26  2  0  0  0  0
 26 27  1  0  0  0  0
M  END
>  <CHROM.1>
-23.14113090,75.89882777,-88.55381308,75.30016219,-80.18525014,179.65574711
-139.72874172,7.24435009,3.14365780,16.12570475,0.68931021,-1.47327357,-1.69690797

>  <Name>
ligand

>  <RI>
0

>  <Rbt.Current_Directory>
/home/itssahil/PROJECTS/Mol_Feturizer/Test_systems_manuscript/rnas/4aob

>  <Rbt.Executable>
rbdock ($Id: //depot/dev/client3/rdock/2013.1/src/exe/rbdock.cxx#4 $)

>  <Rbt.Library>
libRbt.so (2013.1, Build901 2013/11/27)

>  <Rbt.Parameter_File>
/export/apps/rDock/src/rDock_2013.1_src/data/scripts/dock_solv.prm

>  <Rbt.Receptor>
prm/blind_docking_80.prm

>  <SCORE>
-8.39163

>  <SCORE.INTER>
-11.7539

>  <SCORE.INTER.CONST>
1

>  <SCORE.INTER.POLAR>
0

>  <SCORE.INTER.ROT>
7

>  <SCORE.INTER.SOLV>
11.9266

>  <SCORE.INTER.VDW>
-20.0781

>  <SCORE.INTER.norm>
-0.43533

>  <SCORE.INTRA>
3.36229

>  <SCORE.INTRA.DIHEDRAL>
1.83063

>  <SCORE.INTRA.DIHEDRAL.0>
6.31833

>  <SCORE.INTRA.POLAR>
0

>  <SCORE.INTRA.POLAR.0>
0

>  <SCORE.INTRA.REPUL>
0

>  <SCORE.INTRA.REPUL.0>
0

>  <SCORE.INTRA.SOLV>
2.89551

>  <SCORE.INTRA.SOLV.lig_0>
-48.4015

>  <SCORE.INTRA.VDW>
0.999224

>  <SCORE.INTRA.VDW.0>
-2.83256

>  <SCORE.INTRA.norm>
0.124529

>  <SCORE.RESTR>
0

>  <SCORE.RESTR.CAVITY>
0

>  <SCORE.RESTR.norm>
0

>  <SCORE.SYSTEM>
0

>  <SCORE.SYSTEM.CONST>
0

>  <SCORE.SYSTEM.DIHEDRAL>
0

>  <SCORE.SYSTEM.SOLV>
0

>  <SCORE.SYSTEM.norm>
0

>  <SCORE.heavy>
27

>  <SCORE.norm>
-0.310801

>  <RMSD>
16.769

$$$$
ligand
 OpenBabel02271912153D
libRbt.so/2013.1/901 2013/11/27
 27 29  0  0  0  0  0  0  0  0999 V2000
    5.1375    4.6615   10.4582 N   0  0  0  0  0  0  0  0  0  0  0  0
    5.9694    5.2889   11.5130 C   0  0  2  0  0  0  0  0  0  0  0  0
    6.4037    6.6595   11.0102 C   0  0  0  0  0  0  0  0  0  0  0  0
    6.7667    6.9494    9.8220 O   0  0  0  0  0  0  0  0  0  0  0  0
    7.1432    4.3601   11.8312 C   0  0  0  0  0  0  0  0  0  0  0  0
    8.0648    4.9224   12.9053 C   0  0  0  0  0  0  0  0  0  0  0  0
    7.5235    5.2499   14.6247 S   0  0  2  0  0  0  0  0  0  0  0  0
    9.0570    5.9146   15.2706 C   0  0  0  0  0  0  0  0  0  0  0  0
    7.5133    3.5304   15.2243 C   0  0  0  0  0  0  0  0  0  0  0  0
    7.2184    3.4604   16.6974 C   0  0  1  0  0  0  0  0  0  0  0  0
    6.5686    2.2227   17.0753 O   0  0  0  0  0  0  0  0  0  0  0  0
    8.4353    3.6067   17.5822 C   0  0  1  0  0  0  0  0  0  0  0  0
    8.4999    4.8993   18.0035 O   0  0  0  0  0  0  0  0  0  0  0  0
    8.0086    2.7707   18.7660 C   0  0  1  0  0  0  0  0  0  0  0  0
    7.2346    3.5857   19.5291 O   0  0  0  0  0  0  0  0  0  0  0  0
    7.1366    1.6239   18.2088 C   0  0  2  0  0  0  0  0  0  0  0  0
    6.4577    7.5528   11.8573 O   0  0  0  0  0  0  0  0  0  0  0  0
    9.9727   -2.6760   19.0101 N   0  0  0  0  0  0  0  0  0  0  0  0
    8.9748   -1.9932   19.7838 C   0  0  0  0  0  0  0  0  0  0  0  0
    8.2610   -0.8178   19.4423 N   0  0  0  0  0  0  0  0  0  0  0  0
    8.5991   -0.3898   18.2907 C   0  0  0  0  0  0  0  0  0  0  0  0
    9.6104   -1.0230   17.4150 C   0  0  0  0  0  0  0  0  0  0  0  0
   10.2737   -2.1269   17.7827 C   0  0  0  0  0  0  0  0  0  0  0  0
   11.1605   -2.5753   16.9181 N   0  0  0  0  0  0  0  0  0  0  0  0
    9.7944   -0.3904   16.2808 N   0  0  0  0  0  0  0  0  0  0  0  0
    8.8886    0.6414   16.4443 C   0  0  0  0  0  0  0  0  0  0  0  0
    8.1335    0.6501   17.6870 N   0  0  0  0  0  0  0  0  0  0  0  0
  2  1  1  6  0  0  0
  2  3  1  0  0  0  0
  2  5  1  0  0  0  0
  3  4  1  0  0  0  0
  3 17  1  0  0  0  0
  5  6  1  0  0  0  0
  7  6  1  6  0  0  0
  7  8  1  0  0  0  0
  7  9  1  0  0  0  0
 10  9  1  6  0  0  0
 10 11  1  0  0  0  0
 10 12  1  0  0  0  0
 11 16  1  0  0  0  0
 12 13  1  1  0  0  0
 12 14  1  0  0  0  0
 14 15  1  1  0  0  0
 14 16  1  0  0  0  0
 16 27  1  6  0  0  0
 18 19  2  0  0  0  0
 18 23  1  0  0  0  0
 19 20  1  0  0  0  0
 20 21  2  0  0  0  0
 21 22  1  0  0  0  0
 21 27  1  0  0  0  0
 22 23  2  0  0  0  0
 22 25  1  0  0  0  0
 23 24  1  0  0  0  0
 25 26  2  0  0  0  0
 26 27  1  0  0  0  0
M  END
>  <CHROM.1>
-39.88499593,179.75262311,62.78391817,-178.54010091,174.72698819,151.45952639
-157.25809099,7.97071852,2.72442174,15.79186012,-2.49450484,-1.24687580,1.48511381

>  <Name>
ligand

>  <RI>
0

>  <Rbt.Current_Directory>
/home/itssahil/PROJECTS/Mol_Feturizer/Test_systems_manuscript/rnas/4aob

>  <Rbt.Executable>
rbdock ($Id: //depot/dev/client3/rdock/2013.1/src/exe/rbdock.cxx#4 $)

>  <Rbt.Library>
libRbt.so (2013.1, Build901 2013/11/27)

>  <Rbt.Parameter_File>
/export/apps/rDock/src/rDock_2013.1_src/data/scripts/dock_solv.prm

>  <Rbt.Receptor>
prm/blind_docking_80.prm

>  <SCORE>
-13.4772

>  <SCORE.INTER>
-12.7025

>  <SCORE.INTER.CONST>
1

>  <SCORE.INTER.POLAR>
0

>  <SCORE.INTER.ROT>
7

>  <SCORE.INTER.SOLV>
17.0009

>  <SCORE.INTER.VDW>
-22.402

>  <SCORE.INTER.norm>
-0.470465

>  <SCORE.INTRA>
-0.774642

>  <SCORE.INTRA.DIHEDRAL>
-0.662779

>  <SCORE.INTRA.DIHEDRAL.0>
6.31833

>  <SCORE.INTRA.POLAR>
0

>  <SCORE.INTRA.POLAR.0>
0

>  <SCORE.INTRA.REPUL>
0

>  <SCORE.INTRA.REPUL.0>
0

>  <SCORE.INTRA.SOLV>
-0.479004

>  <SCORE.INTRA.SOLV.lig_0>
-48.4015

>  <SCORE.INTRA.VDW>
-0.20375

>  <SCORE.INTRA.VDW.0>
-2.83256

>  <SCORE.INTRA.norm>
-0.0286904

>  <SCORE.RESTR>
0

>  <SCORE.RESTR.CAVITY>
0

>  <SCORE.RESTR.norm>
0

>  <SCORE.SYSTEM>
0

>  <SCORE.SYSTEM.CONST>
0

>  <SCORE.SYSTEM.DIHEDRAL>
0

>  <SCORE.SYSTEM.SOLV>
0

>  <SCORE.SYSTEM.norm>
0

>  <SCORE.heavy>
27

>  <SCORE.norm>
-0.499155

>  <RMSD>
16.805

$$$$
ligand
 OpenBabel02271912153D
libRbt.so/2013.1/901 2013/11/27
 27 29  0  0  0  0  0  0  0  0999 V2000
    8.3908    9.8023   22.7402 N   0  0  0  0  0  0  0  0  0  0  0  0
    8.5054   10.7999   21.6494 C   0  0  2  0  0  0  0  0  0  0  0  0
    8.3484   12.1841   22.2656 C   0  0  0  0  0  0  0  0  0  0  0  0
    8.3850   12.4674   23.5089 O   0  0  0  0  0  0  0  0  0  0  0  0
    7.4520   10.4876   20.5843 C   0  0  0  0  0  0  0  0  0  0  0  0
    7.7002    9.1594   19.8820 C   0  0  0  0  0  0  0  0  0  0  0  0
    6.5855    8.4760   18.5986 S   0  0  2  0  0  0  0  0  0  0  0  0
    5.2689    7.8925   19.6647 C   0  0  0  0  0  0  0  0  0  0  0  0
    7.5290    6.9666   18.2142 C   0  0  0  0  0  0  0  0  0  0  0  0
    8.8629    7.2901   17.5993 C   0  0  1  0  0  0  0  0  0  0  0  0
    9.4552    6.1521   16.9278 O   0  0  0  0  0  0  0  0  0  0  0  0
    8.8273    8.4223   16.5984 C   0  0  1  0  0  0  0  0  0  0  0  0
    9.2262    9.5596   17.2308 O   0  0  0  0  0  0  0  0  0  0  0  0
    9.9508    8.0036   15.6792 C   0  0  1  0  0  0  0  0  0  0  0  0
   11.0919    8.4365   16.2758 O   0  0  0  0  0  0  0  0  0  0  0  0
    9.9505    6.4591   15.6525 C   0  0  2  0  0  0  0  0  0  0  0  0
    8.1082   13.1010   21.4782 O   0  0  0  0  0  0  0  0  0  0  0  0
    8.0094    3.1994   12.0775 N   0  0  0  0  0  0  0  0  0  0  0  0
    9.1808    3.1711   12.9067 C   0  0  0  0  0  0  0  0  0  0  0  0
    9.5965    4.1329   13.8606 N   0  0  0  0  0  0  0  0  0  0  0  0
    8.7681    5.0983   13.9347 C   0  0  0  0  0  0  0  0  0  0  0  0
    7.5320    5.2176   13.1295 C   0  0  0  0  0  0  0  0  0  0  0  0
    7.1830    4.2918   12.2268 C   0  0  0  0  0  0  0  0  0  0  0  0
    6.0695    4.5304   11.5649 N   0  0  0  0  0  0  0  0  0  0  0  0
    6.8467    6.3085   13.3760 N   0  0  0  0  0  0  0  0  0  0  0  0
    7.6550    6.8728   14.3457 C   0  0  0  0  0  0  0  0  0  0  0  0
    8.8499    6.1272   14.7075 N   0  0  0  0  0  0  0  0  0  0  0  0
  2  1  1  1  0  0  0
  2  3  1  0  0  0  0
  2  5  1  0  0  0  0
  3  4  1  0  0  0  0
  3 17  1  0  0  0  0
  5  6  1  0  0  0  0
  7  6  1  1  0  0  0
  7  8  1  0  0  0  0
  7  9  1  0  0  0  0
 10  9  1  6  0  0  0
 10 11  1  0  0  0  0
 10 12  1  0  0  0  0
 11 16  1  0  0  0  0
 12 13  1  1  0  0  0
 12 14  1  0  0  0  0
 14 15  1  1  0  0  0
 14 16  1  0  0  0  0
 16 27  1  6  0  0  0
 18 19  2  0  0  0  0
 18 23  1  0  0  0  0
 19 20  1  0  0  0  0
 20 21  2  0  0  0  0
 21 22  1  0  0  0  0
 21 27  1  0  0  0  0
 22 23  2  0  0  0  0
 22 25  1  0  0  0  0
 23 24  1  0  0  0  0
 25 26  2  0  0  0  0
 26 27  1  0  0  0  0
M  END
>  <CHROM.1>
13.03990819,-65.69873217,177.85008712,-76.45583352,-65.24083910,-162.75109623
-104.04095678,8.20344876,7.71741143,17.11322452,1.58306305,0.19942593,0.92292235

>  <Name>
ligand

>  <RI>
0

>  <Rbt.Current_Directory>
/home/itssahil/PROJECTS/Mol_Feturizer/Test_systems_manuscript/rnas/4aob

>  <Rbt.Executable>
rbdock ($Id: //depot/dev/client3/rdock/2013.1/src/exe/rbdock.cxx#4 $)

>  <Rbt.Library>
libRbt.so (2013.1, Build901 2013/11/27)

>  <Rbt.Parameter_File>
/export/apps/rDock/src/rDock_2013.1_src/data/scripts/dock_solv.prm

>  <Rbt.Receptor>
prm/blind_docking_100.prm

>  <SCORE>
-14.4061

>  <SCORE.INTER>
-15.2634

>  <SCORE.INTER.CONST>
1

>  <SCORE.INTER.POLAR>
0

>  <SCORE.INTER.ROT>
7

>  <SCORE.INTER.SOLV>
13.9916

>  <SCORE.INTER.VDW>
-23.1061

>  <SCORE.INTER.norm>
-0.56531

>  <SCORE.INTRA>
0.857255

>  <SCORE.INTRA.DIHEDRAL>
-1.59571

>  <SCORE.INTRA.DIHEDRAL.0>
6.31833

>  <SCORE.INTRA.POLAR>
0

>  <SCORE.INTRA.POLAR.0>
0

>  <SCORE.INTRA.REPUL>
0

>  <SCORE.INTRA.REPUL.0>
0

>  <SCORE.INTRA.SOLV>
0.295681

>  <SCORE.INTRA.SOLV.lig_0>
-48.4015

>  <SCORE.INTRA.VDW>
1.50727

>  <SCORE.INTRA.VDW.0>
-2.83256

>  <SCORE.INTRA.norm>
0.0317502

>  <SCORE.RESTR>
0

>  <SCORE.RESTR.CAVITY>
0

>  <SCORE.RESTR.norm>
0

>  <SCORE.SYSTEM>
0

>  <SCORE.SYSTEM.CONST>
0

>  <SCORE.SYSTEM.DIHEDRAL>
0

>  <SCORE.SYSTEM.SOLV>
0

>  <SCORE.SYSTEM.norm>
0

>  <SCORE.heavy>
27

>  <SCORE.norm>
-0.53356

>  <RMSD>
16.815

$$$$
ligand
 OpenBabel02271912153D
libRbt.so/2013.1/901 2013/11/27
 27 29  0  0  0  0  0  0  0  0999 V2000
    5.3026   -2.2007   22.3360 N   0  0  0  0  0  0  0  0  0  0  0  0
    6.5399   -2.7496   22.9410 C   0  0  2  0  0  0  0  0  0  0  0  0
    7.4132   -1.5750   23.3627 C   0  0  0  0  0  0  0  0  0  0  0  0
    7.2234   -0.3478   23.0703 O   0  0  0  0  0  0  0  0  0  0  0  0
    7.2160   -3.6736   21.9257 C   0  0  0  0  0  0  0  0  0  0  0  0
    6.2976   -4.7867   21.4393 C   0  0  0  0  0  0  0  0  0  0  0  0
    6.8544   -6.1422   20.3397 S   0  0  2  0  0  0  0  0  0  0  0  0
    7.7805   -7.1009   21.5372 C   0  0  0  0  0  0  0  0  0  0  0  0
    8.1414   -5.2270   19.4330 C   0  0  0  0  0  0  0  0  0  0  0  0
    7.7074   -4.9080   18.0288 C   0  0  1  0  0  0  0  0  0  0  0  0
    6.3641   -4.3703   17.9715 O   0  0  0  0  0  0  0  0  0  0  0  0
    8.6051   -3.9279   17.3087 C   0  0  1  0  0  0  0  0  0  0  0  0
    9.4589   -4.6358   16.5200 O   0  0  0  0  0  0  0  0  0  0  0  0
    7.6003   -3.2633   16.3970 C   0  0  1  0  0  0  0  0  0  0  0  0
    7.4774   -4.0887   15.3250 O   0  0  0  0  0  0  0  0  0  0  0  0
    6.2596   -3.2292   17.1634 C   0  0  2  0  0  0  0  0  0  0  0  0
    8.4280   -1.8591   24.0013 O   0  0  0  0  0  0  0  0  0  0  0  0
    7.8195    1.6934   17.8774 N   0  0  0  0  0  0  0  0  0  0  0  0
    7.7575    0.8342   16.7291 C   0  0  0  0  0  0  0  0  0  0  0  0
    7.2965   -0.5042   16.6662 N   0  0  0  0  0  0  0  0  0  0  0  0
    6.8978   -0.9097   17.8066 C   0  0  0  0  0  0  0  0  0  0  0  0
    6.9152   -0.1020   19.0466 C   0  0  0  0  0  0  0  0  0  0  0  0
    7.3736    1.1564   19.0654 C   0  0  0  0  0  0  0  0  0  0  0  0
    7.3515    1.7550   20.2384 N   0  0  0  0  0  0  0  0  0  0  0  0
    6.4643   -0.7428   20.0985 N   0  0  0  0  0  0  0  0  0  0  0  0
    6.1568   -1.9570   19.5127 C   0  0  0  0  0  0  0  0  0  0  0  0
    6.4152   -2.0723   18.0863 N   0  0  0  0  0  0  0  0  0  0  0  0
  2  1  1  6  0  0  0
  2  3  1  0  0  0  0
  2  5  1  0  0  0  0
  3  4  1  0  0  0  0
  3 17  1  0  0  0  0
  5  6  1  0  0  0  0
  7  6  1  1  0  0  0
  7  8  1  0  0  0  0
  7  9  1  0  0  0  0
 10  9  1  1  0  0  0
 10 11  1  0  0  0  0
 10 12  1  0  0  0  0
 11 16  1  0  0  0  0
 12 13  1  6  0  0  0
 12 14  1  0  0  0  0
 14 15  1  6  0  0  0
 14 16  1  0  0  0  0
 16 27  1  1  0  0  0
 18 19  2  0  0  0  0
 18 23  1  0  0  0  0
 19 20  1  0  0  0  0
 20 21  2  0  0  0  0
 21 22  1  0  0  0  0
 21 27  1  0  0  0  0
 22 23  2  0  0  0  0
 22 25  1  0  0  0  0
 23 24  1  0  0  0  0
 25 26  2  0  0  0  0
 26 27  1  0  0  0  0
M  END
>  <CHROM.1>
-9.86260440,-56.07619989,-174.27807106,74.73775130,-106.64162760,46.59873287
150.72291611,7.22808373,-2.65265252,19.48163579,1.78156338,-1.47370429,2.83222898

>  <Name>
ligand

>  <RI>
0

>  <Rbt.Current_Directory>
/home/itssahil/PROJECTS/Mol_Feturizer/Test_systems_manuscript/rnas/4aob

>  <Rbt.Executable>
rbdock ($Id: //depot/dev/client3/rdock/2013.1/src/exe/rbdock.cxx#4 $)

>  <Rbt.Library>
libRbt.so (2013.1, Build901 2013/11/27)

>  <Rbt.Parameter_File>
/export/apps/rDock/src/rDock_2013.1_src/data/scripts/dock_solv.prm

>  <Rbt.Receptor>
prm/blind_docking_100.prm

>  <SCORE>
-8.33043

>  <SCORE.INTER>
-10.0889

>  <SCORE.INTER.CONST>
1

>  <SCORE.INTER.POLAR>
0

>  <SCORE.INTER.ROT>
7

>  <SCORE.INTER.SOLV>
9.29276

>  <SCORE.INTER.VDW>
-18.0902

>  <SCORE.INTER.norm>
-0.373665

>  <SCORE.INTRA>
1.75852

>  <SCORE.INTRA.DIHEDRAL>
1.88802

>  <SCORE.INTRA.DIHEDRAL.0>
6.31833

>  <SCORE.INTRA.POLAR>
0

>  <SCORE.INTRA.POLAR.0>
0

>  <SCORE.INTRA.REPUL>
0

>  <SCORE.INTRA.REPUL.0>
0

>  <SCORE.INTRA.SOLV>
1.6851

>  <SCORE.INTRA.SOLV.lig_0>
-48.4015

>  <SCORE.INTRA.VDW>
-0.0280426

>  <SCORE.INTRA.VDW.0>
-2.83256

>  <SCORE.INTRA.norm>
0.0651303

>  <SCORE.RESTR>
0

>  <SCORE.RESTR.CAVITY>
0

>  <SCORE.RESTR.norm>
0

>  <SCORE.SYSTEM>
0

>  <SCORE.SYSTEM.CONST>
0

>  <SCORE.SYSTEM.DIHEDRAL>
0

>  <SCORE.SYSTEM.SOLV>
0

>  <SCORE.SYSTEM.norm>
0

>  <SCORE.heavy>
27

>  <SCORE.norm>
-0.308534

>  <RMSD>
16.854

$$$$
ligand
 OpenBabel02271912153D
libRbt.so/2013.1/901 2013/11/27
 27 29  0  0  0  0  0  0  0  0999 V2000
    9.5245   -0.6413   18.7629 N   0  0  0  0  0  0  0  0  0  0  0  0
    8.4212   -0.0099   17.9997 C   0  0  2  0  0  0  0  0  0  0  0  0
    8.3448   -0.6927   16.6402 C   0  0  0  0  0  0  0  0  0  0  0  0
    7.3056   -1.2093   16.1103 O   0  0  0  0  0  0  0  0  0  0  0  0
    8.6843    1.4947   17.9082 C   0  0  0  0  0  0  0  0  0  0  0  0
    7.5824    2.2414   17.1683 C   0  0  0  0  0  0  0  0  0  0  0  0
    7.7303    3.9900   16.6418 S   0  0  2  0  0  0  0  0  0  0  0  0
    7.4054    4.7771   18.2183 C   0  0  0  0  0  0  0  0  0  0  0  0
    6.1447    4.1282   15.7569 C   0  0  0  0  0  0  0  0  0  0  0  0
    6.1570    5.2676   14.7752 C   0  0  1  0  0  0  0  0  0  0  0  0
    6.2400    6.5591   15.4248 O   0  0  0  0  0  0  0  0  0  0  0  0
    7.2831    5.2080   13.7685 C   0  0  1  0  0  0  0  0  0  0  0  0
    6.7945    4.6704   12.6176 O   0  0  0  0  0  0  0  0  0  0  0  0
    7.4977    6.6823   13.5181 C   0  0  1  0  0  0  0  0  0  0  0  0
    6.5630    7.0368   12.5982 O   0  0  0  0  0  0  0  0  0  0  0  0
    7.1962    7.4074   14.8483 C   0  0  2  0  0  0  0  0  0  0  0  0
    9.4094   -0.7977   16.0286 O   0  0  0  0  0  0  0  0  0  0  0  0
    9.9687    8.5688   19.1073 N   0  0  0  0  0  0  0  0  0  0  0  0
    8.6586    8.9379   18.6512 C   0  0  0  0  0  0  0  0  0  0  0  0
    8.0072    8.5395   17.4575 N   0  0  0  0  0  0  0  0  0  0  0  0
    8.7383    7.7518   16.7729 C   0  0  0  0  0  0  0  0  0  0  0  0
   10.0967    7.3078   17.1575 C   0  0  0  0  0  0  0  0  0  0  0  0
   10.6824    7.7203   18.2893 C   0  0  0  0  0  0  0  0  0  0  0  0
   11.9002    7.2653   18.5011 N   0  0  0  0  0  0  0  0  0  0  0  0
   10.6553    6.5053   16.2833 N   0  0  0  0  0  0  0  0  0  0  0  0
    9.6384    6.4413   15.3485 C   0  0  0  0  0  0  0  0  0  0  0  0
    8.4376    7.2065   15.6438 N   0  0  0  0  0  0  0  0  0  0  0  0
  2  1  1  1  0  0  0
  2  3  1  0  0  0  0
  2  5  1  0  0  0  0
  3  4  1  0  0  0  0
  3 17  1  0  0  0  0
  5  6  1  0  0  0  0
  7  6  1  1  0  0  0
  7  8  1  0  0  0  0
  7  9  1  0  0  0  0
 10  9  1  1  0  0  0
 10 11  1  0  0  0  0
 10 12  1  0  0  0  0
 11 16  1  0  0  0  0
 12 13  1  6  0  0  0
 12 14  1  0  0  0  0
 14 15  1  6  0  0  0
 14 16  1  0  0  0  0
 16 27  1  1  0  0  0
 18 19  2  0  0  0  0
 18 23  1  0  0  0  0
 19 20  1  0  0  0  0
 20 21  2  0  0  0  0
 21 22  1  0  0  0  0
 21 27  1  0  0  0  0
 22 23  2  0  0  0  0
 22 25  1  0  0  0  0
 23 24  1  0  0  0  0
 25 26  2  0  0  0  0
 26 27  1  0  0  0  0
M  END
>  <CHROM.1>
127.44873013,-178.56287344,-169.24209840,-78.52830927,-158.94616986,-66.60107701
-81.96553943,8.25940002,4.77581741,16.33536389,-1.66019309,-0.94551952,-0.13771757

>  <Name>
ligand

>  <RI>
0

>  <Rbt.Current_Directory>
/home/itssahil/PROJECTS/Mol_Feturizer/Test_systems_manuscript/rnas/4aob

>  <Rbt.Executable>
rbdock ($Id: //depot/dev/client3/rdock/2013.1/src/exe/rbdock.cxx#4 $)

>  <Rbt.Library>
libRbt.so (2013.1, Build901 2013/11/27)

>  <Rbt.Parameter_File>
/export/apps/rDock/src/rDock_2013.1_src/data/scripts/dock_solv.prm

>  <Rbt.Receptor>
prm/blind_docking_60.prm

>  <SCORE>
-12.761

>  <SCORE.INTER>
-11.5311

>  <SCORE.INTER.CONST>
1

>  <SCORE.INTER.POLAR>
0

>  <SCORE.INTER.ROT>
7

>  <SCORE.INTER.SOLV>
11.3652

>  <SCORE.INTER.VDW>
-19.7424

>  <SCORE.INTER.norm>
-0.427077

>  <SCORE.INTRA>
-1.22992

>  <SCORE.INTRA.DIHEDRAL>
0.0779662

>  <SCORE.INTRA.DIHEDRAL.0>
6.31833

>  <SCORE.INTRA.POLAR>
0

>  <SCORE.INTRA.POLAR.0>
0

>  <SCORE.INTRA.REPUL>
0

>  <SCORE.INTRA.REPUL.0>
0

>  <SCORE.INTRA.SOLV>
-0.50054

>  <SCORE.INTRA.SOLV.lig_0>
-48.4015

>  <SCORE.INTRA.VDW>
-1.01864

>  <SCORE.INTRA.VDW.0>
-2.83256

>  <SCORE.INTRA.norm>
-0.0455527

>  <SCORE.RESTR>
0

>  <SCORE.RESTR.CAVITY>
0

>  <SCORE.RESTR.norm>
0

>  <SCORE.SYSTEM>
0

>  <SCORE.SYSTEM.CONST>
0

>  <SCORE.SYSTEM.DIHEDRAL>
0

>  <SCORE.SYSTEM.SOLV>
0

>  <SCORE.SYSTEM.norm>
0

>  <SCORE.heavy>
27

>  <SCORE.norm>
-0.47263

>  <RMSD>
16.862

$$$$
ligand
 OpenBabel02271912153D
libRbt.so/2013.1/901 2013/11/27
 27 29  0  0  0  0  0  0  0  0999 V2000
    7.7851   -2.8159   18.4413 N   0  0  0  0  0  0  0  0  0  0  0  0
    6.7834   -2.0037   17.7097 C   0  0  2  0  0  0  0  0  0  0  0  0
    5.7987   -2.9610   17.0508 C   0  0  0  0  0  0  0  0  0  0  0  0
    4.5699   -3.1126   17.3583 O   0  0  0  0  0  0  0  0  0  0  0  0
    7.5142   -1.1038   16.7109 C   0  0  0  0  0  0  0  0  0  0  0  0
    7.3831    0.3760   17.0458 C   0  0  0  0  0  0  0  0  0  0  0  0
    8.7744    1.5620   16.9259 S   0  0  2  0  0  0  0  0  0  0  0  0
    9.6534    1.1019   18.4179 C   0  0  0  0  0  0  0  0  0  0  0  0
    7.8714    3.0688   17.4056 C   0  0  0  0  0  0  0  0  0  0  0  0
    7.0929    3.6378   16.2514 C   0  0  1  0  0  0  0  0  0  0  0  0
    6.0311    4.5238   16.6809 O   0  0  0  0  0  0  0  0  0  0  0  0
    7.9311    4.4058   15.2552 C   0  0  1  0  0  0  0  0  0  0  0  0
    8.2149    3.5780   14.2128 O   0  0  0  0  0  0  0  0  0  0  0  0
    6.9138    5.4096   14.7655 C   0  0  1  0  0  0  0  0  0  0  0  0
    6.1940    4.7646   13.8108 O   0  0  0  0  0  0  0  0  0  0  0  0
    5.9915    5.7277   15.9631 C   0  0  2  0  0  0  0  0  0  0  0  0
    6.2621   -3.6929   16.1745 O   0  0  0  0  0  0  0  0  0  0  0  0
    6.2854    8.8308   20.1416 N   0  0  0  0  0  0  0  0  0  0  0  0
    5.2963    7.9049   19.6671 C   0  0  0  0  0  0  0  0  0  0  0  0
    5.3425    7.1027   18.5000 N   0  0  0  0  0  0  0  0  0  0  0  0
    6.4311    7.2783   17.8613 C   0  0  0  0  0  0  0  0  0  0  0  0
    7.5127    8.2028   18.2687 C   0  0  0  0  0  0  0  0  0  0  0  0
    7.4224    8.9550   19.3733 C   0  0  0  0  0  0  0  0  0  0  0  0
    8.4466    9.7490   19.6090 N   0  0  0  0  0  0  0  0  0  0  0  0
    8.5307    8.2186   17.4419 N   0  0  0  0  0  0  0  0  0  0  0  0
    8.0870    7.2940   16.5144 C   0  0  0  0  0  0  0  0  0  0  0  0
    6.7855    6.6964   16.7667 N   0  0  0  0  0  0  0  0  0  0  0  0
  2  1  1  6  0  0  0
  2  3  1  0  0  0  0
  2  5  1  0  0  0  0
  3  4  1  0  0  0  0
  3 17  1  0  0  0  0
  5  6  1  0  0  0  0
  7  6  1  1  0  0  0
  7  8  1  0  0  0  0
  7  9  1  0  0  0  0
 10  9  1  1  0  0  0
 10 11  1  0  0  0  0
 10 12  1  0  0  0  0
 11 16  1  0  0  0  0
 12 13  1  6  0  0  0
 12 14  1  0  0  0  0
 14 15  1  6  0  0  0
 14 16  1  0  0  0  0
 16 27  1  1  0  0  0
 18 19  2  0  0  0  0
 18 23  1  0  0  0  0
 19 20  1  0  0  0  0
 20 21  2  0  0  0  0
 21 22  1  0  0  0  0
 21 27  1  0  0  0  0
 22 23  2  0  0  0  0
 22 25  1  0  0  0  0
 23 24  1  0  0  0  0
 25 26  2  0  0  0  0
 26 27  1  0  0  0  0
M  END
>  <CHROM.1>
111.85280089,-114.17663372,138.11130286,-76.56096432,-80.61736253,159.99665990
-74.78386958,7.14661037,3.56008971,17.13519051,1.86809448,-1.49424081,-2.73998854

>  <Name>
ligand

>  <RI>
0

>  <Rbt.Current_Directory>
/home/itssahil/PROJECTS/Mol_Feturizer/Test_systems_manuscript/rnas/4aob

>  <Rbt.Executable>
rbdock ($Id: //depot/dev/client3/rdock/2013.1/src/exe/rbdock.cxx#4 $)

>  <Rbt.Library>
libRbt.so (2013.1, Build901 2013/11/27)

>  <Rbt.Parameter_File>
/export/apps/rDock/src/rDock_2013.1_src/data/scripts/dock_solv.prm

>  <Rbt.Receptor>
prm/blind_docking_40.prm

>  <SCORE>
-11.0292

>  <SCORE.INTER>
-15.8634

>  <SCORE.INTER.CONST>
1

>  <SCORE.INTER.POLAR>
0

>  <SCORE.INTER.ROT>
7

>  <SCORE.INTER.SOLV>
11.525

>  <SCORE.INTER.VDW>
-22.684

>  <SCORE.INTER.norm>
-0.587535

>  <SCORE.INTRA>
4.83421

>  <SCORE.INTRA.DIHEDRAL>
8.86749

>  <SCORE.INTRA.DIHEDRAL.0>
6.31833

>  <SCORE.INTRA.POLAR>
0

>  <SCORE.INTRA.POLAR.0>
0

>  <SCORE.INTRA.REPUL>
0

>  <SCORE.INTRA.REPUL.0>
0

>  <SCORE.INTRA.SOLV>
-0.0323829

>  <SCORE.INTRA.SOLV.lig_0>
-48.4015

>  <SCORE.INTRA.VDW>
0.416656

>  <SCORE.INTRA.VDW.0>
-2.83256

>  <SCORE.INTRA.norm>
0.179045

>  <SCORE.RESTR>
0

>  <SCORE.RESTR.CAVITY>
0

>  <SCORE.RESTR.norm>
0

>  <SCORE.SYSTEM>
0

>  <SCORE.SYSTEM.CONST>
0

>  <SCORE.SYSTEM.DIHEDRAL>
0

>  <SCORE.SYSTEM.SOLV>
0

>  <SCORE.SYSTEM.norm>
0

>  <SCORE.heavy>
27

>  <SCORE.norm>
-0.40849

>  <RMSD>
16.971

$$$$
ligand
 OpenBabel02271912153D
libRbt.so/2013.1/901 2013/11/27
 27 29  0  0  0  0  0  0  0  0999 V2000
   11.3280    8.8821   22.9019 N   0  0  0  0  0  0  0  0  0  0  0  0
   10.1201    9.7133   23.1219 C   0  0  2  0  0  0  0  0  0  0  0  0
    9.4739    9.2605   24.4248 C   0  0  0  0  0  0  0  0  0  0  0  0
    9.3002    8.0550   24.8042 O   0  0  0  0  0  0  0  0  0  0  0  0
    9.1989    9.5736   21.9080 C   0  0  0  0  0  0  0  0  0  0  0  0
    7.8549   10.2616   22.1063 C   0  0  0  0  0  0  0  0  0  0  0  0
    7.6822   12.0535   22.4468 S   0  0  2  0  0  0  0  0  0  0  0  0
    5.9212   12.0997   22.7742 C   0  0  0  0  0  0  0  0  0  0  0  0
    7.8173   12.6560   20.7336 C   0  0  0  0  0  0  0  0  0  0  0  0
    7.7851   14.1584   20.6719 C   0  0  1  0  0  0  0  0  0  0  0  0
    8.3905   14.6774   19.4631 O   0  0  0  0  0  0  0  0  0  0  0  0
    6.3986   14.7541   20.7607 C   0  0  1  0  0  0  0  0  0  0  0  0
    6.1861   15.1426   22.0477 O   0  0  0  0  0  0  0  0  0  0  0  0
    6.5921   16.0081   19.9406 C   0  0  1  0  0  0  0  0  0  0  0  0
    7.1432   16.9168   20.7867 O   0  0  0  0  0  0  0  0  0  0  0  0
    7.6149   15.6629   18.8358 C   0  0  2  0  0  0  0  0  0  0  0  0
    9.0312   10.1554   25.1470 O   0  0  0  0  0  0  0  0  0  0  0  0
    3.4724   15.6492   15.6713 N   0  0  0  0  0  0  0  0  0  0  0  0
    4.0411   16.6327   16.5487 C   0  0  0  0  0  0  0  0  0  0  0  0
    5.1953   16.5116   17.3618 N   0  0  0  0  0  0  0  0  0  0  0  0
    5.7368   15.3659   17.2279 C   0  0  0  0  0  0  0  0  0  0  0  0
    5.2327   14.2883   16.3475 C   0  0  0  0  0  0  0  0  0  0  0  0
    4.1280   14.4391   15.6054 C   0  0  0  0  0  0  0  0  0  0  0  0
    3.7788   13.3952   14.8820 N   0  0  0  0  0  0  0  0  0  0  0  0
    5.9549   13.1942   16.3886 N   0  0  0  0  0  0  0  0  0  0  0  0
    6.9206   13.5909   17.2953 C   0  0  0  0  0  0  0  0  0  0  0  0
    6.8007   14.9417   17.8202 N   0  0  0  0  0  0  0  0  0  0  0  0
  2  1  1  6  0  0  0
  2  3  1  0  0  0  0
  2  5  1  0  0  0  0
  3  4  1  0  0  0  0
  3 17  1  0  0  0  0
  5  6  1  0  0  0  0
  7  6  1  6  0  0  0
  7  8  1  0  0  0  0
  7  9  1  0  0  0  0
 10  9  1  6  0  0  0
 10 11  1  0  0  0  0
 10 12  1  0  0  0  0
 11 16  1  0  0  0  0
 12 13  1  1  0  0  0
 12 14  1  0  0  0  0
 14 15  1  1  0  0  0
 14 16  1  0  0  0  0
 16 27  1  6  0  0  0
 18 19  2  0  0  0  0
 18 23  1  0  0  0  0
 19 20  1  0  0  0  0
 20 21  2  0  0  0  0
 21 22  1  0  0  0  0
 21 27  1  0  0  0  0
 22 23  2  0  0  0  0
 22 25  1  0  0  0  0
 23 24  1  0  0  0  0
 25 26  2  0  0  0  0
 26 27  1  0  0  0  0
M  END
>  <CHROM.1>
-43.49444983,173.29992201,59.39209734,-172.80890481,-176.91872334,157.57274932
162.44796968,7.08245437,13.16393128,20.16806566,0.16836290,1.12400919,-2.65203206

>  <Name>
ligand

>  <RI>
0

>  <Rbt.Current_Directory>
/home/itssahil/PROJECTS/Mol_Feturizer/Test_systems_manuscript/rnas/4aob

>  <Rbt.Executable>
rbdock ($Id: //depot/dev/client3/rdock/2013.1/src/exe/rbdock.cxx#4 $)

>  <Rbt.Library>
libRbt.so (2013.1, Build901 2013/11/27)

>  <Rbt.Parameter_File>
/export/apps/rDock/src/rDock_2013.1_src/data/scripts/dock_solv.prm

>  <Rbt.Receptor>
prm/blind_docking_40.prm

>  <SCORE>
-14.0815

>  <SCORE.INTER>
-13.4848

>  <SCORE.INTER.CONST>
1

>  <SCORE.INTER.POLAR>
0

>  <SCORE.INTER.ROT>
7

>  <SCORE.INTER.SOLV>
23.3204

>  <SCORE.INTER.VDW>
-25.03

>  <SCORE.INTER.norm>
-0.499439

>  <SCORE.INTRA>
-0.629398

>  <SCORE.INTRA.DIHEDRAL>
-0.362408

>  <SCORE.INTRA.DIHEDRAL.0>
6.31833

>  <SCORE.INTRA.POLAR>
0

>  <SCORE.INTRA.POLAR.0>
0

>  <SCORE.INTRA.REPUL>
0

>  <SCORE.INTRA.REPUL.0>
0

>  <SCORE.INTRA.SOLV>
-0.464978

>  <SCORE.INTRA.SOLV.lig_0>
-48.4015

>  <SCORE.INTRA.VDW>
-0.215705

>  <SCORE.INTRA.VDW.0>
-2.83256

>  <SCORE.INTRA.norm>
-0.023311

>  <SCORE.RESTR>
0.0327035

>  <SCORE.RESTR.CAVITY>
0.0327035

>  <SCORE.RESTR.norm>
0.00121124

>  <SCORE.SYSTEM>
0

>  <SCORE.SYSTEM.CONST>
0

>  <SCORE.SYSTEM.DIHEDRAL>
0

>  <SCORE.SYSTEM.SOLV>
0

>  <SCORE.SYSTEM.norm>
0

>  <SCORE.heavy>
27

>  <SCORE.norm>
-0.521538

>  <RMSD>
16.987

$$$$
ligand
 OpenBabel02271912153D
libRbt.so/2013.1/901 2013/11/27
 27 29  0  0  0  0  0  0  0  0999 V2000
    5.7389   -4.8216   23.7408 N   0  0  0  0  0  0  0  0  0  0  0  0
    6.8486   -4.2690   22.9274 C   0  0  2  0  0  0  0  0  0  0  0  0
    7.4611   -3.1091   23.7017 C   0  0  0  0  0  0  0  0  0  0  0  0
    6.8347   -2.2749   24.4360 O   0  0  0  0  0  0  0  0  0  0  0  0
    6.2995   -3.8611   21.5585 C   0  0  0  0  0  0  0  0  0  0  0  0
    5.8130   -5.0502   20.7408 C   0  0  0  0  0  0  0  0  0  0  0  0
    6.9395   -6.2921   20.0026 S   0  0  2  0  0  0  0  0  0  0  0  0
    7.7395   -6.8591   21.5023 C   0  0  0  0  0  0  0  0  0  0  0  0
    8.1510   -5.1426   19.2766 C   0  0  0  0  0  0  0  0  0  0  0  0
    7.8110   -4.8095   17.8500 C   0  0  1  0  0  0  0  0  0  0  0  0
    6.4662   -4.2920   17.7061 O   0  0  0  0  0  0  0  0  0  0  0  0
    8.7404   -3.8047   17.2083 C   0  0  1  0  0  0  0  0  0  0  0  0
    9.6589   -4.4874   16.4716 O   0  0  0  0  0  0  0  0  0  0  0  0
    7.7909   -3.1424   16.2376 C   0  0  1  0  0  0  0  0  0  0  0  0
    7.7569   -3.9535   15.1484 O   0  0  0  0  0  0  0  0  0  0  0  0
    6.3995   -3.1407   16.9085 C   0  0  2  0  0  0  0  0  0  0  0  0
    8.6722   -2.9391   23.5503 O   0  0  0  0  0  0  0  0  0  0  0  0
    8.0963    1.6858   17.9089 N   0  0  0  0  0  0  0  0  0  0  0  0
    8.1691    0.8328   16.7566 C   0  0  0  0  0  0  0  0  0  0  0  0
    7.6507   -0.4776   16.6084 N   0  0  0  0  0  0  0  0  0  0  0  0
    7.0550   -0.8615   17.6675 C   0  0  0  0  0  0  0  0  0  0  0  0
    6.9209   -0.0574   18.9028 C   0  0  0  0  0  0  0  0  0  0  0  0
    7.4392    1.1733   19.0062 C   0  0  0  0  0  0  0  0  0  0  0  0
    7.2652    1.7708   20.1671 N   0  0  0  0  0  0  0  0  0  0  0  0
    6.2748   -0.6732   19.8639 N   0  0  0  0  0  0  0  0  0  0  0  0
    5.9971   -1.8675   19.2248 C   0  0  0  0  0  0  0  0  0  0  0  0
    6.4709   -1.9954   17.8559 N   0  0  0  0  0  0  0  0  0  0  0  0
  2  1  1  1  0  0  0
  2  3  1  0  0  0  0
  2  5  1  0  0  0  0
  3  4  1  0  0  0  0
  3 17  1  0  0  0  0
  5  6  1  0  0  0  0
  7  6  1  1  0  0  0
  7  8  1  0  0  0  0
  7  9  1  0  0  0  0
 10  9  1  1  0  0  0
 10 11  1  0  0  0  0
 10 12  1  0  0  0  0
 11 16  1  0  0  0  0
 12 13  1  6  0  0  0
 12 14  1  0  0  0  0
 14 15  1  6  0  0  0
 14 16  1  0  0  0  0
 16 27  1  1  0  0  0
 18 19  2  0  0  0  0
 18 23  1  0  0  0  0
 19 20  1  0  0  0  0
 20 21  2  0  0  0  0
 21 22  1  0  0  0  0
 21 27  1  0  0  0  0
 22 23  2  0  0  0  0
 22 25  1  0  0  0  0
 23 24  1  0  0  0  0
 25 26  2  0  0  0  0
 26 27  1  0  0  0  0
M  END
>  <CHROM.1>
-35.88872475,-65.66032731,-70.80985384,58.76495120,-92.54947496,54.92968051
144.16447574,7.27732968,-2.94217833,19.42461826,2.43950302,-1.43439285,3.04757883

>  <Name>
ligand

>  <RI>
0

>  <Rbt.Current_Directory>
/home/itssahil/PROJECTS/Mol_Feturizer/Test_systems_manuscript/rnas/4aob

>  <Rbt.Executable>
rbdock ($Id: //depot/dev/client3/rdock/2013.1/src/exe/rbdock.cxx#4 $)

>  <Rbt.Library>
libRbt.so (2013.1, Build901 2013/11/27)

>  <Rbt.Parameter_File>
/export/apps/rDock/src/rDock_2013.1_src/data/scripts/dock_solv.prm

>  <Rbt.Receptor>
prm/blind_docking_80.prm

>  <SCORE>
-10.3408

>  <SCORE.INTER>
-11.3936

>  <SCORE.INTER.CONST>
1

>  <SCORE.INTER.POLAR>
0

>  <SCORE.INTER.ROT>
7

>  <SCORE.INTER.SOLV>
8.22062

>  <SCORE.INTER.VDW>
-18.6026

>  <SCORE.INTER.norm>
-0.421984

>  <SCORE.INTRA>
1.05274

>  <SCORE.INTRA.DIHEDRAL>
-1.08012

>  <SCORE.INTRA.DIHEDRAL.0>
6.31833

>  <SCORE.INTRA.POLAR>
0

>  <SCORE.INTRA.POLAR.0>
0

>  <SCORE.INTRA.REPUL>
0

>  <SCORE.INTRA.REPUL.0>
0

>  <SCORE.INTRA.SOLV>
1.21359

>  <SCORE.INTRA.SOLV.lig_0>
-48.4015

>  <SCORE.INTRA.VDW>
0.986013

>  <SCORE.INTRA.VDW.0>
-2.83256

>  <SCORE.INTRA.norm>
0.0389906

>  <SCORE.RESTR>
0

>  <SCORE.RESTR.CAVITY>
0

>  <SCORE.RESTR.norm>
0

>  <SCORE.SYSTEM>
0

>  <SCORE.SYSTEM.CONST>
0

>  <SCORE.SYSTEM.DIHEDRAL>
0

>  <SCORE.SYSTEM.SOLV>
0

>  <SCORE.SYSTEM.norm>
0

>  <SCORE.heavy>
27

>  <SCORE.norm>
-0.382994

>  <RMSD>
17.033

$$$$
ligand
 OpenBabel02271912153D
libRbt.so/2013.1/901 2013/11/27
 27 29  0  0  0  0  0  0  0  0999 V2000
    9.5494    3.8046   10.4729 N   0  0  0  0  0  0  0  0  0  0  0  0
    8.9471    4.3428   11.7162 C   0  0  2  0  0  0  0  0  0  0  0  0
    9.5838    3.6173   12.8944 C   0  0  0  0  0  0  0  0  0  0  0  0
   10.0631    4.1574   13.9462 O   0  0  0  0  0  0  0  0  0  0  0  0
    7.4288    4.1656   11.6441 C   0  0  0  0  0  0  0  0  0  0  0  0
    6.6711    5.2850   12.3454 C   0  0  0  0  0  0  0  0  0  0  0  0
    6.5391    5.4229   14.1675 S   0  0  2  0  0  0  0  0  0  0  0  0
    7.9898    6.4302   14.4698 C   0  0  0  0  0  0  0  0  0  0  0  0
    7.0874    3.7396   14.5943 C   0  0  0  0  0  0  0  0  0  0  0  0
    7.0021    3.4892   16.0748 C   0  0  1  0  0  0  0  0  0  0  0  0
    6.3553    2.2322   16.3889 O   0  0  0  0  0  0  0  0  0  0  0  0
    8.3380    3.4856   16.7822 C   0  0  1  0  0  0  0  0  0  0  0  0
    8.5225    4.7109   17.3453 O   0  0  0  0  0  0  0  0  0  0  0  0
    8.0454    2.5169   17.9039 C   0  0  1  0  0  0  0  0  0  0  0  0
    7.4269    3.2487   18.8670 O   0  0  0  0  0  0  0  0  0  0  0  0
    7.0501    1.4766   17.3441 C   0  0  2  0  0  0  0  0  0  0  0  0
    9.6892    2.3947   12.7821 O   0  0  0  0  0  0  0  0  0  0  0  0
    7.7088   -3.2338   15.2105 N   0  0  0  0  0  0  0  0  0  0  0  0
    6.6181   -2.6071   15.9020 C   0  0  0  0  0  0  0  0  0  0  0  0
    6.5626   -1.2949   16.4338 N   0  0  0  0  0  0  0  0  0  0  0  0
    7.6475   -0.6624   16.2179 C   0  0  0  0  0  0  0  0  0  0  0  0
    8.8247   -1.2159   15.5119 C   0  0  0  0  0  0  0  0  0  0  0  0
    8.8411   -2.4681   15.0369 C   0  0  0  0  0  0  0  0  0  0  0  0
    9.9584   -2.8409   14.4473 N   0  0  0  0  0  0  0  0  0  0  0  0
    9.8281   -0.3759   15.4234 N   0  0  0  0  0  0  0  0  0  0  0  0
    9.2741    0.7122   16.0722 C   0  0  0  0  0  0  0  0  0  0  0  0
    7.9158    0.5499   16.5656 N   0  0  0  0  0  0  0  0  0  0  0  0
  2  1  1  6  0  0  0
  2  3  1  0  0  0  0
  2  5  1  0  0  0  0
  3  4  1  0  0  0  0
  3 17  1  0  0  0  0
  5  6  1  0  0  0  0
  7  6  1  6  0  0  0
  7  8  1  0  0  0  0
  7  9  1  0  0  0  0
 10  9  1  6  0  0  0
 10 11  1  0  0  0  0
 10 12  1  0  0  0  0
 11 16  1  0  0  0  0
 12 13  1  1  0  0  0
 12 14  1  0  0  0  0
 14 15  1  1  0  0  0
 14 16  1  0  0  0  0
 16 27  1  6  0  0  0
 18 19  2  0  0  0  0
 18 23  1  0  0  0  0
 19 20  1  0  0  0  0
 20 21  2  0  0  0  0
 21 22  1  0  0  0  0
 21 27  1  0  0  0  0
 22 23  2  0  0  0  0
 22 25  1  0  0  0  0
 23 24  1  0  0  0  0
 25 26  2  0  0  0  0
 26 27  1  0  0  0  0
M  END
>  <CHROM.1>
131.80187674,-146.81735703,-75.22583014,90.32866186,-176.10394471,132.27466398
-94.33491681,8.05451264,2.16143809,15.01730530,-1.66888221,-1.21813041,2.69725626

>  <Name>
ligand

>  <RI>
0

>  <Rbt.Current_Directory>
/home/itssahil/PROJECTS/Mol_Feturizer/Test_systems_manuscript/rnas/4aob

>  <Rbt.Executable>
rbdock ($Id: //depot/dev/client3/rdock/2013.1/src/exe/rbdock.cxx#4 $)

>  <Rbt.Library>
libRbt.so (2013.1, Build901 2013/11/27)

>  <Rbt.Parameter_File>
/export/apps/rDock/src/rDock_2013.1_src/data/scripts/dock_solv.prm

>  <Rbt.Receptor>
prm/blind_docking_20.prm

>  <SCORE>
-6.7114

>  <SCORE.INTER>
-12.4532

>  <SCORE.INTER.CONST>
1

>  <SCORE.INTER.POLAR>
0

>  <SCORE.INTER.ROT>
7

>  <SCORE.INTER.SOLV>
12.5803

>  <SCORE.INTER.VDW>
-20.7622

>  <SCORE.INTER.norm>
-0.461229

>  <SCORE.INTRA>
4.60321

>  <SCORE.INTRA.DIHEDRAL>
9.57318

>  <SCORE.INTRA.DIHEDRAL.0>
6.31833

>  <SCORE.INTRA.POLAR>
0

>  <SCORE.INTRA.POLAR.0>
0

>  <SCORE.INTRA.REPUL>
0

>  <SCORE.INTRA.REPUL.0>
0

>  <SCORE.INTRA.SOLV>
-0.386246

>  <SCORE.INTRA.SOLV.lig_0>
-48.4015

>  <SCORE.INTRA.VDW>
0.00973961

>  <SCORE.INTRA.VDW.0>
-2.83256

>  <SCORE.INTRA.norm>
0.170489

>  <SCORE.RESTR>
1.13857

>  <SCORE.RESTR.CAVITY>
1.13857

>  <SCORE.RESTR.norm>
0.0421692

>  <SCORE.SYSTEM>
0

>  <SCORE.SYSTEM.CONST>
0

>  <SCORE.SYSTEM.DIHEDRAL>
0

>  <SCORE.SYSTEM.SOLV>
0

>  <SCORE.SYSTEM.norm>
0

>  <SCORE.heavy>
27

>  <SCORE.norm>
-0.24857

>  <RMSD>
17.486

$$$$
ligand
 OpenBabel02271912153D
libRbt.so/2013.1/901 2013/11/27
 27 29  0  0  0  0  0  0  0  0999 V2000
    8.6583   -3.2061   13.8382 N   0  0  0  0  0  0  0  0  0  0  0  0
    8.4817   -2.8069   15.2552 C   0  0  2  0  0  0  0  0  0  0  0  0
    6.9900   -2.8277   15.5627 C   0  0  0  0  0  0  0  0  0  0  0  0
    6.2568   -1.8166   15.8227 O   0  0  0  0  0  0  0  0  0  0  0  0
    9.1242   -1.4337   15.4632 C   0  0  0  0  0  0  0  0  0  0  0  0
    9.0801   -0.9767   16.9152 C   0  0  0  0  0  0  0  0  0  0  0  0
    9.6096    0.6898   17.4621 S   0  0  2  0  0  0  0  0  0  0  0  0
    9.6078    0.4087   19.2317 C   0  0  0  0  0  0  0  0  0  0  0  0
    8.0430    1.5692   17.1643 C   0  0  0  0  0  0  0  0  0  0  0  0
    8.0257    2.9122   17.8411 C   0  0  1  0  0  0  0  0  0  0  0  0
    9.0225    3.8162   17.3063 O   0  0  0  0  0  0  0  0  0  0  0  0
    6.6966    3.6283   17.7665 C   0  0  1  0  0  0  0  0  0  0  0  0
    6.0324    3.4117   18.9345 O   0  0  0  0  0  0  0  0  0  0  0  0
    7.1644    5.0647   17.7772 C   0  0  1  0  0  0  0  0  0  0  0  0
    7.3682    5.3731   19.0845 O   0  0  0  0  0  0  0  0  0  0  0  0
    8.5187    5.0963   17.0348 C   0  0  2  0  0  0  0  0  0  0  0  0
    6.4657   -3.9416   15.6163 O   0  0  0  0  0  0  0  0  0  0  0  0
    7.4334    7.7726   12.6950 N   0  0  0  0  0  0  0  0  0  0  0  0
    7.8728    8.1554   14.0069 C   0  0  0  0  0  0  0  0  0  0  0  0
    8.1447    7.3145   15.1145 N   0  0  0  0  0  0  0  0  0  0  0  0
    7.9627    6.0882   14.8195 C   0  0  0  0  0  0  0  0  0  0  0  0
    7.5176    5.5918   13.4982 C   0  0  0  0  0  0  0  0  0  0  0  0
    7.2569    6.4230   12.4808 C   0  0  0  0  0  0  0  0  0  0  0  0
    6.8496    5.8515   11.3661 N   0  0  0  0  0  0  0  0  0  0  0  0
    7.3907    4.2876   13.4415 N   0  0  0  0  0  0  0  0  0  0  0  0
    7.7646    3.9646   14.7329 C   0  0  0  0  0  0  0  0  0  0  0  0
    8.1294    5.0745   15.5988 N   0  0  0  0  0  0  0  0  0  0  0  0
  2  1  1  6  0  0  0
  2  3  1  0  0  0  0
  2  5  1  0  0  0  0
  3  4  1  0  0  0  0
  3 17  1  0  0  0  0
  5  6  1  0  0  0  0
  7  6  1  6  0  0  0
  7  8  1  0  0  0  0
  7  9  1  0  0  0  0
 10  9  1  6  0  0  0
 10 11  1  0  0  0  0
 10 12  1  0  0  0  0
 11 16  1  0  0  0  0
 12 13  1  1  0  0  0
 12 14  1  0  0  0  0
 14 15  1  1  0  0  0
 14 16  1  0  0  0  0
 16 27  1  6  0  0  0
 18 19  2  0  0  0  0
 18 23  1  0  0  0  0
 19 20  1  0  0  0  0
 20 21  2  0  0  0  0
 21 22  1  0  0  0  0
 21 27  1  0  0  0  0
 22 23  2  0  0  0  0
 22 25  1  0  0  0  0
 23 24  1  0  0  0  0
 25 26  2  0  0  0  0
 26 27  1  0  0  0  0
M  END
>  <CHROM.1>
-112.65297288,-176.01531859,-173.52876548,-169.15225236,165.45473657,64.39676119
-159.69845392,7.90767951,2.60105974,15.93074337,1.12916396,1.44076339,-2.89055923

>  <Name>
ligand

>  <RI>
0

>  <Rbt.Current_Directory>
/home/itssahil/PROJECTS/Mol_Feturizer/Test_systems_manuscript/rnas/4aob

>  <Rbt.Executable>
rbdock ($Id: //depot/dev/client3/rdock/2013.1/src/exe/rbdock.cxx#4 $)

>  <Rbt.Library>
libRbt.so (2013.1, Build901 2013/11/27)

>  <Rbt.Parameter_File>
/export/apps/rDock/src/rDock_2013.1_src/data/scripts/dock_solv.prm

>  <Rbt.Receptor>
prm/blind_docking_40.prm

>  <SCORE>
-15.1091

>  <SCORE.INTER>
-13.7679

>  <SCORE.INTER.CONST>
1

>  <SCORE.INTER.POLAR>
0

>  <SCORE.INTER.ROT>
7

>  <SCORE.INTER.SOLV>
11.697

>  <SCORE.INTER.VDW>
-21.3443

>  <SCORE.INTER.norm>
-0.509923

>  <SCORE.INTRA>
-1.35737

>  <SCORE.INTRA.DIHEDRAL>
-1.95049

>  <SCORE.INTRA.DIHEDRAL.0>
6.31833

>  <SCORE.INTRA.POLAR>
0

>  <SCORE.INTRA.POLAR.0>
0

>  <SCORE.INTRA.REPUL>
0

>  <SCORE.INTRA.REPUL.0>
0

>  <SCORE.INTRA.SOLV>
-0.816474

>  <SCORE.INTRA.SOLV.lig_0>
-48.4015

>  <SCORE.INTRA.VDW>
0.0261102

>  <SCORE.INTRA.VDW.0>
-2.83256

>  <SCORE.INTRA.norm>
-0.0502731

>  <SCORE.RESTR>
0.0161948

>  <SCORE.RESTR.CAVITY>
0.0161948

>  <SCORE.RESTR.norm>
0.000599808

>  <SCORE.SYSTEM>
0

>  <SCORE.SYSTEM.CONST>
0

>  <SCORE.SYSTEM.DIHEDRAL>
0

>  <SCORE.SYSTEM.SOLV>
0

>  <SCORE.SYSTEM.norm>
0

>  <SCORE.heavy>
27

>  <SCORE.norm>
-0.559596

>  <RMSD>
17.757

$$$$
ligand
 OpenBabel02271912153D
libRbt.so/2013.1/901 2013/11/27
 27 29  0  0  0  0  0  0  0  0999 V2000
    8.7244    9.1327   21.3620 N   0  0  0  0  0  0  0  0  0  0  0  0
    7.6010    8.9143   20.4194 C   0  0  2  0  0  0  0  0  0  0  0  0
    6.3748    8.5293   21.2370 C   0  0  0  0  0  0  0  0  0  0  0  0
    5.1726    8.8939   21.0154 O   0  0  0  0  0  0  0  0  0  0  0  0
    8.0117    7.8462   19.4034 C   0  0  0  0  0  0  0  0  0  0  0  0
    9.2606    8.2278   18.6200 C   0  0  0  0  0  0  0  0  0  0  0  0
    9.9866    7.1745   17.3085 S   0  0  2  0  0  0  0  0  0  0  0  0
   11.2759    8.2861   16.7495 C   0  0  0  0  0  0  0  0  0  0  0  0
    8.6751    7.3745   16.0611 C   0  0  0  0  0  0  0  0  0  0  0  0
    7.5084    6.4659   16.3350 C   0  0  1  0  0  0  0  0  0  0  0  0
    6.5240    6.4908   15.2733 O   0  0  0  0  0  0  0  0  0  0  0  0
    7.8859    5.0182   16.5514 C   0  0  1  0  0  0  0  0  0  0  0  0
    7.9402    4.7903   17.8921 O   0  0  0  0  0  0  0  0  0  0  0  0
    6.6425    4.3358   16.0312 C   0  0  1  0  0  0  0  0  0  0  0  0
    5.7550    4.3599   17.0594 O   0  0  0  0  0  0  0  0  0  0  0  0
    6.1035    5.2125   14.8793 C   0  0  2  0  0  0  0  0  0  0  0  0
    6.5878    7.8439   22.2387 O   0  0  0  0  0  0  0  0  0  0  0  0
    7.5378    6.1093    9.9485 N   0  0  0  0  0  0  0  0  0  0  0  0
    6.6247    6.7600   10.8448 C   0  0  0  0  0  0  0  0  0  0  0  0
    6.3271    6.4158   12.1868 N   0  0  0  0  0  0  0  0  0  0  0  0
    7.0030    5.4041   12.5652 C   0  0  0  0  0  0  0  0  0  0  0  0
    7.9711    4.6683   11.7215 C   0  0  0  0  0  0  0  0  0  0  0  0
    8.2125    5.0183   10.4514 C   0  0  0  0  0  0  0  0  0  0  0  0
    9.0818    4.2671    9.8072 N   0  0  0  0  0  0  0  0  0  0  0  0
    8.5349    3.6528   12.3309 N   0  0  0  0  0  0  0  0  0  0  0  0
    7.9210    3.7569   13.5655 C   0  0  0  0  0  0  0  0  0  0  0  0
    6.9709    4.8458   13.7271 N   0  0  0  0  0  0  0  0  0  0  0  0
  2  1  1  1  0  0  0
  2  3  1  0  0  0  0
  2  5  1  0  0  0  0
  3  4  1  0  0  0  0
  3 17  1  0  0  0  0
  5  6  1  0  0  0  0
  7  6  1  1  0  0  0
  7  8  1  0  0  0  0
  7  9  1  0  0  0  0
 10  9  1  6  0  0  0
 10 11  1  0  0  0  0
 10 12  1  0  0  0  0
 11 16  1  0  0  0  0
 12 13  1  1  0  0  0
 12 14  1  0  0  0  0
 14 15  1  1  0  0  0
 14 16  1  0  0  0  0
 16 27  1  6  0  0  0
 18 19  2  0  0  0  0
 18 23  1  0  0  0  0
 19 20  1  0  0  0  0
 20 21  2  0  0  0  0
 21 22  1  0  0  0  0
 21 27  1  0  0  0  0
 22 23  2  0  0  0  0
 22 25  1  0  0  0  0
 23 24  1  0  0  0  0
 25 26  2  0  0  0  0
 26 27  1  0  0  0  0
M  END
>  <CHROM.1>
141.63222365,-58.54619469,-178.80653052,174.85902529,-81.09014412,-173.15568114
-66.08334282,7.73923513,6.36211400,15.97062282,-1.58626258,-0.43454900,-1.91865023

>  <Name>
ligand

>  <RI>
0

>  <Rbt.Current_Directory>
/home/itssahil/PROJECTS/Mol_Feturizer/Test_systems_manuscript/rnas/4aob

>  <Rbt.Executable>
rbdock ($Id: //depot/dev/client3/rdock/2013.1/src/exe/rbdock.cxx#4 $)

>  <Rbt.Library>
libRbt.so (2013.1, Build901 2013/11/27)

>  <Rbt.Parameter_File>
/export/apps/rDock/src/rDock_2013.1_src/data/scripts/dock_solv.prm

>  <Rbt.Receptor>
prm/blind_docking_100.prm

>  <SCORE>
-10.3078

>  <SCORE.INTER>
-9.83732

>  <SCORE.INTER.CONST>
1

>  <SCORE.INTER.POLAR>
0

>  <SCORE.INTER.ROT>
7

>  <SCORE.INTER.SOLV>
8.95224

>  <SCORE.INTER.VDW>
-17.809

>  <SCORE.INTER.norm>
-0.364345

>  <SCORE.INTRA>
-0.470472

>  <SCORE.INTRA.DIHEDRAL>
-2.4954

>  <SCORE.INTRA.DIHEDRAL.0>
6.31833

>  <SCORE.INTRA.POLAR>
0

>  <SCORE.INTRA.POLAR.0>
0

>  <SCORE.INTRA.REPUL>
0

>  <SCORE.INTRA.REPUL.0>
0

>  <SCORE.INTRA.SOLV>
0.399184

>  <SCORE.INTRA.SOLV.lig_0>
-48.4015

>  <SCORE.INTRA.VDW>
0.577638

>  <SCORE.INTRA.VDW.0>
-2.83256

>  <SCORE.INTRA.norm>
-0.0174249

>  <SCORE.RESTR>
0

>  <SCORE.RESTR.CAVITY>
0

>  <SCORE.RESTR.norm>
0

>  <SCORE.SYSTEM>
0

>  <SCORE.SYSTEM.CONST>
0

>  <SCORE.SYSTEM.DIHEDRAL>
0

>  <SCORE.SYSTEM.SOLV>
0

>  <SCORE.SYSTEM.norm>
0

>  <SCORE.heavy>
27

>  <SCORE.norm>
-0.38177

>  <RMSD>
17.837

$$$$
ligand
 OpenBabel02271912153D
libRbt.so/2013.1/901 2013/11/27
 27 29  0  0  0  0  0  0  0  0999 V2000
   10.5352   -2.6462   16.9821 N   0  0  0  0  0  0  0  0  0  0  0  0
    9.7948   -1.4465   16.5230 C   0  0  2  0  0  0  0  0  0  0  0  0
   10.2263   -1.1519   15.0922 C   0  0  0  0  0  0  0  0  0  0  0  0
   11.2719   -1.5950   14.5108 O   0  0  0  0  0  0  0  0  0  0  0  0
   10.0762   -0.2945   17.4902 C   0  0  0  0  0  0  0  0  0  0  0  0
    9.1058    0.8669   17.3210 C   0  0  0  0  0  0  0  0  0  0  0  0
    7.3657    0.8156   17.8920 S   0  0  2  0  0  0  0  0  0  0  0  0
    7.0000   -0.8933   17.4964 C   0  0  0  0  0  0  0  0  0  0  0  0
    6.6155    1.7456   16.5178 C   0  0  0  0  0  0  0  0  0  0  0  0
    6.4402    3.1986   16.8643 C   0  0  1  0  0  0  0  0  0  0  0  0
    7.6466    3.9701   16.6490 O   0  0  0  0  0  0  0  0  0  0  0  0
    5.3335    3.8900   16.1013 C   0  0  1  0  0  0  0  0  0  0  0  0
    4.2271    3.9194   16.8934 O   0  0  0  0  0  0  0  0  0  0  0  0
    5.8827    5.2964   16.0469 C   0  0  1  0  0  0  0  0  0  0  0  0
    5.5514    5.8644   17.2357 O   0  0  0  0  0  0  0  0  0  0  0  0
    7.4197    5.1699   15.9597 C   0  0  2  0  0  0  0  0  0  0  0  0
    9.5159   -0.3636   14.4658 O   0  0  0  0  0  0  0  0  0  0  0  0
   10.1329    2.4909   12.4049 N   0  0  0  0  0  0  0  0  0  0  0  0
   10.1250    2.4991   13.8403 C   0  0  0  0  0  0  0  0  0  0  0  0
    9.3185    3.2824   14.7027 N   0  0  0  0  0  0  0  0  0  0  0  0
    8.5276    4.0318   14.0418 C   0  0  0  0  0  0  0  0  0  0  0  0
    8.4549    4.0930   12.5649 C   0  0  0  0  0  0  0  0  0  0  0  0
    9.2467    3.3450   11.7855 C   0  0  0  0  0  0  0  0  0  0  0  0
    9.0929    3.5113   10.4879 N   0  0  0  0  0  0  0  0  0  0  0  0
    7.5693    4.9505   12.1167 N   0  0  0  0  0  0  0  0  0  0  0  0
    7.0801    5.4247   13.3200 C   0  0  0  0  0  0  0  0  0  0  0  0
    7.6627    4.8568   14.5253 N   0  0  0  0  0  0  0  0  0  0  0  0
  2  1  1  1  0  0  0
  2  3  1  0  0  0  0
  2  5  1  0  0  0  0
  3  4  1  0  0  0  0
  3 17  1  0  0  0  0
  5  6  1  0  0  0  0
  7  6  1  6  0  0  0
  7  8  1  0  0  0  0
  7  9  1  0  0  0  0
 10  9  1  6  0  0  0
 10 11  1  0  0  0  0
 10 12  1  0  0  0  0
 11 16  1  0  0  0  0
 12 13  1  1  0  0  0
 12 14  1  0  0  0  0
 14 15  1  1  0  0  0
 14 16  1  0  0  0  0
 16 27  1  6  0  0  0
 18 19  2  0  0  0  0
 18 23  1  0  0  0  0
 19 20  1  0  0  0  0
 20 21  2  0  0  0  0
 21 22  1  0  0  0  0
 21 27  1  0  0  0  0
 22 23  2  0  0  0  0
 22 25  1  0  0  0  0
 23 24  1  0  0  0  0
 25 26  2  0  0  0  0
 26 27  1  0  0  0  0
M  END
>  <CHROM.1>
-17.61128930,-165.48789401,74.09442938,-37.40328465,-96.44432169,83.32530723
-34.27529615,8.13030368,2.28784633,15.36965909,0.87409186,-0.82031719,2.34165566

>  <Name>
ligand

>  <RI>
0

>  <Rbt.Current_Directory>
/home/itssahil/PROJECTS/Mol_Feturizer/Test_systems_manuscript/rnas/4aob

>  <Rbt.Executable>
rbdock ($Id: //depot/dev/client3/rdock/2013.1/src/exe/rbdock.cxx#4 $)

>  <Rbt.Library>
libRbt.so (2013.1, Build901 2013/11/27)

>  <Rbt.Parameter_File>
/export/apps/rDock/src/rDock_2013.1_src/data/scripts/dock_solv.prm

>  <Rbt.Receptor>
prm/blind_docking_20.prm

>  <SCORE>
-3.75497

>  <SCORE.INTER>
-7.25182

>  <SCORE.INTER.CONST>
1

>  <SCORE.INTER.POLAR>
0

>  <SCORE.INTER.ROT>
7

>  <SCORE.INTER.SOLV>
14.3562

>  <SCORE.INTER.VDW>
-17.8866

>  <SCORE.INTER.norm>
-0.268586

>  <SCORE.INTRA>
2.1595

>  <SCORE.INTRA.DIHEDRAL>
3.84267

>  <SCORE.INTRA.DIHEDRAL.0>
6.31833

>  <SCORE.INTRA.POLAR>
0

>  <SCORE.INTRA.POLAR.0>
0

>  <SCORE.INTRA.REPUL>
0

>  <SCORE.INTRA.REPUL.0>
0

>  <SCORE.INTRA.SOLV>
-0.077968

>  <SCORE.INTRA.SOLV.lig_0>
-48.4015

>  <SCORE.INTRA.VDW>
0.277145

>  <SCORE.INTRA.VDW.0>
-2.83256

>  <SCORE.INTRA.norm>
0.0799814

>  <SCORE.RESTR>
1.33735

>  <SCORE.RESTR.CAVITY>
1.33735

>  <SCORE.RESTR.norm>
0.0495315

>  <SCORE.SYSTEM>
0

>  <SCORE.SYSTEM.CONST>
0

>  <SCORE.SYSTEM.DIHEDRAL>
0

>  <SCORE.SYSTEM.SOLV>
0

>  <SCORE.SYSTEM.norm>
0

>  <SCORE.heavy>
27

>  <SCORE.norm>
-0.139073

>  <RMSD>
17.919

$$$$
ligand
 OpenBabel02271912153D
libRbt.so/2013.1/901 2013/11/27
 27 29  0  0  0  0  0  0  0  0999 V2000
    5.5871   -3.1396   17.2686 N   0  0  0  0  0  0  0  0  0  0  0  0
    6.5807   -2.4659   16.3984 C   0  0  2  0  0  0  0  0  0  0  0  0
    7.5482   -3.5261   15.8885 C   0  0  0  0  0  0  0  0  0  0  0  0
    8.2206   -4.3426   16.6017 O   0  0  0  0  0  0  0  0  0  0  0  0
    7.2649   -1.3565   17.2002 C   0  0  0  0  0  0  0  0  0  0  0  0
    8.3558   -0.6459   16.4103 C   0  0  0  0  0  0  0  0  0  0  0  0
    9.0808    0.9590   16.9155 S   0  0  2  0  0  0  0  0  0  0  0  0
    9.4767    0.5554   18.6158 C   0  0  0  0  0  0  0  0  0  0  0  0
    7.5340    1.9109   17.0480 C   0  0  0  0  0  0  0  0  0  0  0  0
    7.7741    3.2778   17.6274 C   0  0  1  0  0  0  0  0  0  0  0  0
    8.8402    3.9877   16.9519 O   0  0  0  0  0  0  0  0  0  0  0  0
    6.5626    4.1818   17.6091 C   0  0  1  0  0  0  0  0  0  0  0  0
    5.9815    4.1364   18.8390 O   0  0  0  0  0  0  0  0  0  0  0  0
    7.2345    5.5288   17.4808 C   0  0  1  0  0  0  0  0  0  0  0  0
    7.5977    5.8778   18.7425 O   0  0  0  0  0  0  0  0  0  0  0  0
    8.5066    5.3115   16.6319 C   0  0  2  0  0  0  0  0  0  0  0  0
    7.7308   -3.5485   14.6700 O   0  0  0  0  0  0  0  0  0  0  0  0
    7.2327    7.8998   12.2900 N   0  0  0  0  0  0  0  0  0  0  0  0
    7.8126    8.2968   13.5416 C   0  0  0  0  0  0  0  0  0  0  0  0
    8.1215    7.4793   14.6571 N   0  0  0  0  0  0  0  0  0  0  0  0
    7.8279    6.2599   14.4318 C   0  0  0  0  0  0  0  0  0  0  0  0
    7.2334    5.7497   13.1761 C   0  0  0  0  0  0  0  0  0  0  0  0
    6.9430    6.5600   12.1500 C   0  0  0  0  0  0  0  0  0  0  0  0
    6.3990    5.9798   11.1000 N   0  0  0  0  0  0  0  0  0  0  0  0
    7.0101    4.4573   13.1868 N   0  0  0  0  0  0  0  0  0  0  0  0
    7.4733    4.1551   14.4541 C   0  0  0  0  0  0  0  0  0  0  0  0
    7.9910    5.2660   15.2368 N   0  0  0  0  0  0  0  0  0  0  0  0
  2  1  1  1  0  0  0
  2  3  1  0  0  0  0
  2  5  1  0  0  0  0
  3  4  1  0  0  0  0
  3 17  1  0  0  0  0
  5  6  1  0  0  0  0
  7  6  1  6  0  0  0
  7  8  1  0  0  0  0
  7  9  1  0  0  0  0
 10  9  1  6  0  0  0
 10 11  1  0  0  0  0
 10 12  1  0  0  0  0
 11 16  1  0  0  0  0
 12 13  1  1  0  0  0
 12 14  1  0  0  0  0
 14 15  1  1  0  0  0
 14 16  1  0  0  0  0
 16 27  1  6  0  0  0
 18 19  2  0  0  0  0
 18 23  1  0  0  0  0
 19 20  1  0  0  0  0
 20 21  2  0  0  0  0
 21 22  1  0  0  0  0
 21 27  1  0  0  0  0
 22 23  2  0  0  0  0
 22 25  1  0  0  0  0
 23 24  1  0  0  0  0
 25 26  2  0  0  0  0
 26 27  1  0  0  0  0
M  END
>  <CHROM.1>
-54.31365372,177.21475910,164.90350164,50.76594561,172.86022398,50.70761623
-164.34044750,7.63674406,2.72393384,15.88093177,1.38466994,1.44811549,3.05456029

>  <Name>
ligand

>  <RI>
0

>  <Rbt.Current_Directory>
/home/itssahil/PROJECTS/Mol_Feturizer/Test_systems_manuscript/rnas/4aob

>  <Rbt.Executable>
rbdock ($Id: //depot/dev/client3/rdock/2013.1/src/exe/rbdock.cxx#4 $)

>  <Rbt.Library>
libRbt.so (2013.1, Build901 2013/11/27)

>  <Rbt.Parameter_File>
/export/apps/rDock/src/rDock_2013.1_src/data/scripts/dock_solv.prm

>  <Rbt.Receptor>
prm/blind_docking_80.prm

>  <SCORE>
-14.0717

>  <SCORE.INTER>
-13.0126

>  <SCORE.INTER.CONST>
1

>  <SCORE.INTER.POLAR>
0

>  <SCORE.INTER.ROT>
7

>  <SCORE.INTER.SOLV>
14.9375

>  <SCORE.INTER.VDW>
-21.9209

>  <SCORE.INTER.norm>
-0.481947

>  <SCORE.INTRA>
-1.05909

>  <SCORE.INTRA.DIHEDRAL>
-2.14734

>  <SCORE.INTRA.DIHEDRAL.0>
6.31833

>  <SCORE.INTRA.POLAR>
0

>  <SCORE.INTRA.POLAR.0>
0

>  <SCORE.INTRA.REPUL>
0

>  <SCORE.INTRA.REPUL.0>
0

>  <SCORE.INTRA.SOLV>
-0.814208

>  <SCORE.INTRA.SOLV.lig_0>
-48.4015

>  <SCORE.INTRA.VDW>
0.421687

>  <SCORE.INTRA.VDW.0>
-2.83256

>  <SCORE.INTRA.norm>
-0.0392255

>  <SCORE.RESTR>
0

>  <SCORE.RESTR.CAVITY>
0

>  <SCORE.RESTR.norm>
0

>  <SCORE.SYSTEM>
0

>  <SCORE.SYSTEM.CONST>
0

>  <SCORE.SYSTEM.DIHEDRAL>
0

>  <SCORE.SYSTEM.SOLV>
0

>  <SCORE.SYSTEM.norm>
0

>  <SCORE.heavy>
27

>  <SCORE.norm>
-0.521173

>  <RMSD>
17.921

$$$$
ligand
 OpenBabel02271912153D
libRbt.so/2013.1/901 2013/11/27
 27 29  0  0  0  0  0  0  0  0999 V2000
    9.2508   -2.3105   16.3859 N   0  0  0  0  0  0  0  0  0  0  0  0
   10.3731   -2.0449   17.3176 C   0  0  2  0  0  0  0  0  0  0  0  0
   10.2153   -2.9742   18.5142 C   0  0  0  0  0  0  0  0  0  0  0  0
    9.3523   -2.8662   19.4474 O   0  0  0  0  0  0  0  0  0  0  0  0
   10.3582   -0.5622   17.6958 C   0  0  0  0  0  0  0  0  0  0  0  0
    9.0577   -0.1380   18.3649 C   0  0  0  0  0  0  0  0  0  0  0  0
    8.5972    1.6122   18.6506 S   0  0  2  0  0  0  0  0  0  0  0  0
    7.1000    1.3482   19.5989 C   0  0  0  0  0  0  0  0  0  0  0  0
    7.9858    1.9945   16.9784 C   0  0  0  0  0  0  0  0  0  0  0  0
    7.4218    3.3866   16.9010 C   0  0  1  0  0  0  0  0  0  0  0  0
    8.4281    4.3760   16.5762 O   0  0  0  0  0  0  0  0  0  0  0  0
    6.3042    3.5491   15.8962 C   0  0  1  0  0  0  0  0  0  0  0  0
    5.1203    3.4737   16.5634 O   0  0  0  0  0  0  0  0  0  0  0  0
    6.5050    4.9937   15.5024 C   0  0  1  0  0  0  0  0  0  0  0  0
    5.8804    5.7245   16.4622 O   0  0  0  0  0  0  0  0  0  0  0  0
    8.0241    5.2656   15.5705 C   0  0  2  0  0  0  0  0  0  0  0  0
   11.0438   -3.8818   18.6053 O   0  0  0  0  0  0  0  0  0  0  0  0
    8.1188    5.4009   10.3601 N   0  0  0  0  0  0  0  0  0  0  0  0
    7.5018    6.2280   11.3581 C   0  0  0  0  0  0  0  0  0  0  0  0
    7.5618    6.0855   12.7666 N   0  0  0  0  0  0  0  0  0  0  0  0
    8.2785    5.0860   13.0999 C   0  0  0  0  0  0  0  0  0  0  0  0
    8.9596    4.1777   12.1504 C   0  0  0  0  0  0  0  0  0  0  0  0
    8.8649    4.3395   10.8242 C   0  0  0  0  0  0  0  0  0  0  0  0
    9.5035    3.4493   10.0930 N   0  0  0  0  0  0  0  0  0  0  0  0
    9.6299    3.2130   12.7338 N   0  0  0  0  0  0  0  0  0  0  0  0
    9.3724    3.5225   14.0566 C   0  0  0  0  0  0  0  0  0  0  0  0
    8.5386    4.6890   14.2988 N   0  0  0  0  0  0  0  0  0  0  0  0
  2  1  1  6  0  0  0
  2  3  1  0  0  0  0
  2  5  1  0  0  0  0
  3  4  1  0  0  0  0
  3 17  1  0  0  0  0
  5  6  1  0  0  0  0
  7  6  1  6  0  0  0
  7  8  1  0  0  0  0
  7  9  1  0  0  0  0
 10  9  1  6  0  0  0
 10 11  1  0  0  0  0
 10 12  1  0  0  0  0
 11 16  1  0  0  0  0
 12 13  1  1  0  0  0
 12 14  1  0  0  0  0
 14 15  1  1  0  0  0
 14 16  1  0  0  0  0
 16 27  1  6  0  0  0
 18 19  2  0  0  0  0
 18 23  1  0  0  0  0
 19 20  1  0  0  0  0
 20 21  2  0  0  0  0
 21 22  1  0  0  0  0
 21 27  1  0  0  0  0
 22 23  2  0  0  0  0
 22 25  1  0  0  0  0
 23 24  1  0  0  0  0
 25 26  2  0  0  0  0
 26 27  1  0  0  0  0
M  END
>  <CHROM.1>
-73.43022428,59.37575815,-168.12106753,-174.18830279,175.92922557,88.34770332
171.49154907,8.40861684,2.37941434,15.70380363,-1.26427466,0.94833350,-0.96924178

>  <Name>
ligand

>  <RI>
0

>  <Rbt.Current_Directory>
/home/itssahil/PROJECTS/Mol_Feturizer/Test_systems_manuscript/rnas/4aob

>  <Rbt.Executable>
rbdock ($Id: //depot/dev/client3/rdock/2013.1/src/exe/rbdock.cxx#4 $)

>  <Rbt.Library>
libRbt.so (2013.1, Build901 2013/11/27)

>  <Rbt.Parameter_File>
/export/apps/rDock/src/rDock_2013.1_src/data/scripts/dock_solv.prm

>  <Rbt.Receptor>
prm/blind_docking_60.prm

>  <SCORE>
-14.7119

>  <SCORE.INTER>
-15.2122

>  <SCORE.INTER.CONST>
1

>  <SCORE.INTER.POLAR>
0

>  <SCORE.INTER.ROT>
7

>  <SCORE.INTER.SOLV>
11.607

>  <SCORE.INTER.VDW>
-22.2771

>  <SCORE.INTER.norm>
-0.563416

>  <SCORE.INTRA>
0.500351

>  <SCORE.INTRA.DIHEDRAL>
0.400601

>  <SCORE.INTRA.DIHEDRAL.0>
6.31833

>  <SCORE.INTRA.POLAR>
0

>  <SCORE.INTRA.POLAR.0>
0

>  <SCORE.INTRA.REPUL>
0

>  <SCORE.INTRA.REPUL.0>
0

>  <SCORE.INTRA.SOLV>
0.0194869

>  <SCORE.INTRA.SOLV.lig_0>
-48.4015

>  <SCORE.INTRA.VDW>
0.290307

>  <SCORE.INTRA.VDW.0>
-2.83256

>  <SCORE.INTRA.norm>
0.0185315

>  <SCORE.RESTR>
0

>  <SCORE.RESTR.CAVITY>
0

>  <SCORE.RESTR.norm>
0

>  <SCORE.SYSTEM>
0

>  <SCORE.SYSTEM.CONST>
0

>  <SCORE.SYSTEM.DIHEDRAL>
0

>  <SCORE.SYSTEM.SOLV>
0

>  <SCORE.SYSTEM.norm>
0

>  <SCORE.heavy>
27

>  <SCORE.norm>
-0.544884

>  <RMSD>
17.961

$$$$
ligand
 OpenBabel02271912153D
libRbt.so/2013.1/901 2013/11/27
 27 29  0  0  0  0  0  0  0  0999 V2000
    6.1182    9.7871   21.6586 N   0  0  0  0  0  0  0  0  0  0  0  0
    7.5210   10.1486   21.3429 C   0  0  2  0  0  0  0  0  0  0  0  0
    8.0019   11.1246   22.4089 C   0  0  0  0  0  0  0  0  0  0  0  0
    7.5620   11.2182   23.6027 O   0  0  0  0  0  0  0  0  0  0  0  0
    7.5739   10.7242   19.9260 C   0  0  0  0  0  0  0  0  0  0  0  0
    7.8795    9.6682   18.8722 C   0  0  0  0  0  0  0  0  0  0  0  0
    6.7610    8.2660   18.4989 S   0  0  2  0  0  0  0  0  0  0  0  0
    7.1666    7.2160   19.8930 C   0  0  0  0  0  0  0  0  0  0  0  0
    7.7078    7.5397   17.1232 C   0  0  0  0  0  0  0  0  0  0  0  0
    7.2896    6.1206   16.8530 C   0  0  1  0  0  0  0  0  0  0  0  0
    6.0224    6.0382   16.1570 O   0  0  0  0  0  0  0  0  0  0  0  0
    8.2877    5.3218   16.0462 C   0  0  1  0  0  0  0  0  0  0  0  0
    9.0319    4.5779   16.9095 O   0  0  0  0  0  0  0  0  0  0  0  0
    7.3556    4.3745   15.3277 C   0  0  1  0  0  0  0  0  0  0  0  0
    7.1106    3.3668   16.2053 O   0  0  0  0  0  0  0  0  0  0  0  0
    6.0445    5.1502   15.0720 C   0  0  2  0  0  0  0  0  0  0  0  0
    8.8610   11.9328   22.0523 O   0  0  0  0  0  0  0  0  0  0  0  0
    5.9545    5.6906    9.8880 N   0  0  0  0  0  0  0  0  0  0  0  0
    5.4612    4.6836   10.7842 C   0  0  0  0  0  0  0  0  0  0  0  0
    5.5440    4.6598   12.1986 N   0  0  0  0  0  0  0  0  0  0  0  0
    6.1311    5.6990   12.6447 C   0  0  0  0  0  0  0  0  0  0  0  0
    6.6693    6.7937   11.8064 C   0  0  0  0  0  0  0  0  0  0  0  0
    6.5828    6.7699   10.4700 C   0  0  0  0  0  0  0  0  0  0  0  0
    7.1199    7.7971    9.8444 N   0  0  0  0  0  0  0  0  0  0  0  0
    7.2414    7.7517   12.4956 N   0  0  0  0  0  0  0  0  0  0  0  0
    7.0551    7.2574   13.7735 C   0  0  0  0  0  0  0  0  0  0  0  0
    6.3600    5.9847   13.8811 N   0  0  0  0  0  0  0  0  0  0  0  0
  2  1  1  1  0  0  0
  2  3  1  0  0  0  0
  2  5  1  0  0  0  0
  3  4  1  0  0  0  0
  3 17  1  0  0  0  0
  5  6  1  0  0  0  0
  7  6  1  1  0  0  0
  7  8  1  0  0  0  0
  7  9  1  0  0  0  0
 10  9  1  6  0  0  0
 10 11  1  0  0  0  0
 10 12  1  0  0  0  0
 11 16  1  0  0  0  0
 12 13  1  1  0  0  0
 12 14  1  0  0  0  0
 14 15  1  1  0  0  0
 14 16  1  0  0  0  0
 16 27  1  6  0  0  0
 18 19  2  0  0  0  0
 18 23  1  0  0  0  0
 19 20  1  0  0  0  0
 20 21  2  0  0  0  0
 21 22  1  0  0  0  0
 21 27  1  0  0  0  0
 22 23  2  0  0  0  0
 22 25  1  0  0  0  0
 23 24  1  0  0  0  0
 25 26  2  0  0  0  0
 26 27  1  0  0  0  0
M  END
>  <CHROM.1>
25.98886608,-92.87581226,64.41840610,-78.12260131,162.18143378,75.84277632
-159.33541121,7.06549773,7.31759185,16.39688694,0.30690220,-1.45429558,-0.13682690

>  <Name>
ligand

>  <RI>
0

>  <Rbt.Current_Directory>
/home/itssahil/PROJECTS/Mol_Feturizer/Test_systems_manuscript/rnas/4aob

>  <Rbt.Executable>
rbdock ($Id: //depot/dev/client3/rdock/2013.1/src/exe/rbdock.cxx#4 $)

>  <Rbt.Library>
libRbt.so (2013.1, Build901 2013/11/27)

>  <Rbt.Parameter_File>
/export/apps/rDock/src/rDock_2013.1_src/data/scripts/dock_solv.prm

>  <Rbt.Receptor>
prm/blind_docking_100.prm

>  <SCORE>
-11.2415

>  <SCORE.INTER>
-13.3439

>  <SCORE.INTER.CONST>
1

>  <SCORE.INTER.POLAR>
0

>  <SCORE.INTER.ROT>
7

>  <SCORE.INTER.SOLV>
20.0221

>  <SCORE.INTER.VDW>
-23.8366

>  <SCORE.INTER.norm>
-0.494217

>  <SCORE.INTRA>
2.10233

>  <SCORE.INTRA.DIHEDRAL>
1.65631

>  <SCORE.INTRA.DIHEDRAL.0>
6.31833

>  <SCORE.INTRA.POLAR>
0

>  <SCORE.INTRA.POLAR.0>
0

>  <SCORE.INTRA.REPUL>
0

>  <SCORE.INTRA.REPUL.0>
0

>  <SCORE.INTRA.SOLV>
1.55533

>  <SCORE.INTRA.SOLV.lig_0>
-48.4015

>  <SCORE.INTRA.VDW>
0.496514

>  <SCORE.INTRA.VDW.0>
-2.83256

>  <SCORE.INTRA.norm>
0.0778641

>  <SCORE.RESTR>
0

>  <SCORE.RESTR.CAVITY>
0

>  <SCORE.RESTR.norm>
0

>  <SCORE.SYSTEM>
0

>  <SCORE.SYSTEM.CONST>
0

>  <SCORE.SYSTEM.DIHEDRAL>
0

>  <SCORE.SYSTEM.SOLV>
0

>  <SCORE.SYSTEM.norm>
0

>  <SCORE.heavy>
27

>  <SCORE.norm>
-0.416353

>  <RMSD>
18.071

$$$$
ligand
 OpenBabel02271912153D
libRbt.so/2013.1/901 2013/11/27
 27 29  0  0  0  0  0  0  0  0999 V2000
    7.6913    6.3424    9.8817 N   0  0  0  0  0  0  0  0  0  0  0  0
    7.2014    4.9608   10.1045 C   0  0  2  0  0  0  0  0  0  0  0  0
    5.6848    5.0195   10.2341 C   0  0  0  0  0  0  0  0  0  0  0  0
    4.9301    5.9781    9.8615 O   0  0  0  0  0  0  0  0  0  0  0  0
    7.8936    4.3870   11.3428 C   0  0  0  0  0  0  0  0  0  0  0  0
    7.8220    5.3209   12.5435 C   0  0  0  0  0  0  0  0  0  0  0  0
    8.3924    4.8502   14.2197 S   0  0  2  0  0  0  0  0  0  0  0  0
    9.7777    3.8134   13.7544 C   0  0  0  0  0  0  0  0  0  0  0  0
    7.0752    3.6566   14.6151 C   0  0  0  0  0  0  0  0  0  0  0  0
    6.9923    3.3944   16.0937 C   0  0  1  0  0  0  0  0  0  0  0  0
    6.3414    2.1375   16.3990 O   0  0  0  0  0  0  0  0  0  0  0  0
    8.3298    3.3800   16.7979 C   0  0  1  0  0  0  0  0  0  0  0  0
    8.5203    4.5999   17.3705 O   0  0  0  0  0  0  0  0  0  0  0  0
    8.0361    2.4033   17.9124 C   0  0  1  0  0  0  0  0  0  0  0  0
    7.4226    3.1296   18.8828 O   0  0  0  0  0  0  0  0  0  0  0  0
    7.0355    1.3714   17.3465 C   0  0  2  0  0  0  0  0  0  0  0  0
    5.1549    4.0654   10.8063 O   0  0  0  0  0  0  0  0  0  0  0  0
    7.6670   -3.3206   15.1645 N   0  0  0  0  0  0  0  0  0  0  0  0
    6.5799   -2.6947   15.8624 C   0  0  0  0  0  0  0  0  0  0  0  0
    6.5319   -1.3877   16.4077 N   0  0  0  0  0  0  0  0  0  0  0  0
    7.6205   -0.7593   16.1983 C   0  0  0  0  0  0  0  0  0  0  0  0
    8.7945   -1.3123   15.4866 C   0  0  0  0  0  0  0  0  0  0  0  0
    8.8037   -2.5596   14.9987 C   0  0  0  0  0  0  0  0  0  0  0  0
    9.9188   -2.9328   14.4052 N   0  0  0  0  0  0  0  0  0  0  0  0
    9.8028   -0.4773   15.4066 N   0  0  0  0  0  0  0  0  0  0  0  0
    9.2550    0.6073   16.0667 C   0  0  0  0  0  0  0  0  0  0  0  0
    7.8958    0.4478   16.5584 N   0  0  0  0  0  0  0  0  0  0  0  0
  2  1  1  1  0  0  0
  2  3  1  0  0  0  0
  2  5  1  0  0  0  0
  3  4  1  0  0  0  0
  3 17  1  0  0  0  0
  5  6  1  0  0  0  0
  7  6  1  6  0  0  0
  7  8  1  0  0  0  0
  7  9  1  0  0  0  0
 10  9  1  6  0  0  0
 10 11  1  0  0  0  0
 10 12  1  0  0  0  0
 11 16  1  0  0  0  0
 12 13  1  1  0  0  0
 12 14  1  0  0  0  0
 14 15  1  1  0  0  0
 14 16  1  0  0  0  0
 16 27  1  6  0  0  0
 18 19  2  0  0  0  0
 18 23  1  0  0  0  0
 19 20  1  0  0  0  0
 20 21  2  0  0  0  0
 21 22  1  0  0  0  0
 21 27  1  0  0  0  0
 22 23  2  0  0  0  0
 22 25  1  0  0  0  0
 23 24  1  0  0  0  0
 25 26  2  0  0  0  0
 26 27  1  0  0  0  0
M  END
>  <CHROM.1>
17.74793142,49.95797680,173.10414757,34.67194841,-161.88959915,-158.46512394
-94.12231216,7.67956882,2.25876745,14.58058536,2.66337436,-1.39333224,0.41793914

>  <Name>
ligand

>  <RI>
0

>  <Rbt.Current_Directory>
/home/itssahil/PROJECTS/Mol_Feturizer/Test_systems_manuscript/rnas/4aob

>  <Rbt.Executable>
rbdock ($Id: //depot/dev/client3/rdock/2013.1/src/exe/rbdock.cxx#4 $)

>  <Rbt.Library>
libRbt.so (2013.1, Build901 2013/11/27)

>  <Rbt.Parameter_File>
/export/apps/rDock/src/rDock_2013.1_src/data/scripts/dock_solv.prm

>  <Rbt.Receptor>
prm/blind_docking_20.prm

>  <SCORE>
-6.81716

>  <SCORE.INTER>
-11.5463

>  <SCORE.INTER.CONST>
1

>  <SCORE.INTER.POLAR>
0

>  <SCORE.INTER.ROT>
7

>  <SCORE.INTER.SOLV>
16.5495

>  <SCORE.INTER.VDW>
-21.4807

>  <SCORE.INTER.norm>
-0.427641

>  <SCORE.INTRA>
3.55463

>  <SCORE.INTRA.DIHEDRAL>
1.82714

>  <SCORE.INTRA.DIHEDRAL.0>
6.31833

>  <SCORE.INTRA.POLAR>
0

>  <SCORE.INTRA.POLAR.0>
0

>  <SCORE.INTRA.REPUL>
0

>  <SCORE.INTRA.REPUL.0>
0

>  <SCORE.INTRA.SOLV>
0.237654

>  <SCORE.INTRA.SOLV.lig_0>
-48.4015

>  <SCORE.INTRA.VDW>
2.52224

>  <SCORE.INTRA.VDW.0>
-2.83256

>  <SCORE.INTRA.norm>
0.131653

>  <SCORE.RESTR>
1.17452

>  <SCORE.RESTR.CAVITY>
1.17452

>  <SCORE.RESTR.norm>
0.0435006

>  <SCORE.SYSTEM>
0

>  <SCORE.SYSTEM.CONST>
0

>  <SCORE.SYSTEM.DIHEDRAL>
0

>  <SCORE.SYSTEM.SOLV>
0

>  <SCORE.SYSTEM.norm>
0

>  <SCORE.heavy>
27

>  <SCORE.norm>
-0.252487

>  <RMSD>
18.120

$$$$
ligand
 OpenBabel02271912153D
libRbt.so/2013.1/901 2013/11/27
 27 29  0  0  0  0  0  0  0  0999 V2000
    8.8661    5.2085   10.1621 N   0  0  0  0  0  0  0  0  0  0  0  0
    7.4092    4.9448   10.0842 C   0  0  2  0  0  0  0  0  0  0  0  0
    6.7200    6.2472    9.6980 C   0  0  0  0  0  0  0  0  0  0  0  0
    7.2016    7.4224    9.8175 O   0  0  0  0  0  0  0  0  0  0  0  0
    6.9379    4.3852   11.4283 C   0  0  0  0  0  0  0  0  0  0  0  0
    7.1745    5.3491   12.5832 C   0  0  0  0  0  0  0  0  0  0  0  0
    6.4387    5.1268   14.2463 S   0  0  2  0  0  0  0  0  0  0  0  0
    7.1893    6.5323   15.0659 C   0  0  0  0  0  0  0  0  0  0  0  0
    7.4546    3.7174   14.7918 C   0  0  0  0  0  0  0  0  0  0  0  0
    7.1336    3.3193   16.2062 C   0  0  1  0  0  0  0  0  0  0  0  0
    6.3867    2.0808   16.2785 O   0  0  0  0  0  0  0  0  0  0  0  0
    8.3450    3.1554   17.0955 C   0  0  1  0  0  0  0  0  0  0  0  0
    8.5008    4.3004   17.8145 O   0  0  0  0  0  0  0  0  0  0  0  0
    7.8391    2.0954   18.0457 C   0  0  1  0  0  0  0  0  0  0  0  0
    7.1177    2.7608   18.9851 O   0  0  0  0  0  0  0  0  0  0  0  0
    6.8912    1.1860   17.2329 C   0  0  2  0  0  0  0  0  0  0  0  0
    5.5645    6.1436    9.2828 O   0  0  0  0  0  0  0  0  0  0  0  0
    7.7357   -3.4355   14.9739 N   0  0  0  0  0  0  0  0  0  0  0  0
    6.5915   -2.8380   15.6018 C   0  0  0  0  0  0  0  0  0  0  0  0
    6.4887   -1.5479   16.1788 N   0  0  0  0  0  0  0  0  0  0  0  0
    7.5844   -0.9060   16.0738 C   0  0  0  0  0  0  0  0  0  0  0  0
    8.8157   -1.4296   15.4411 C   0  0  0  0  0  0  0  0  0  0  0  0
    8.8748   -2.6620   14.9199 C   0  0  0  0  0  0  0  0  0  0  0  0
   10.0364   -3.0097   14.4055 N   0  0  0  0  0  0  0  0  0  0  0  0
    9.8193   -0.5855   15.4646 N   0  0  0  0  0  0  0  0  0  0  0  0
    9.2114    0.4754   16.1103 C   0  0  0  0  0  0  0  0  0  0  0  0
    7.8193    0.2920   16.4888 N   0  0  0  0  0  0  0  0  0  0  0  0
  2  1  1  1  0  0  0
  2  3  1  0  0  0  0
  2  5  1  0  0  0  0
  3  4  1  0  0  0  0
  3 17  1  0  0  0  0
  5  6  1  0  0  0  0
  7  6  1  6  0  0  0
  7  8  1  0  0  0  0
  7  9  1  0  0  0  0
 10  9  1  6  0  0  0
 10 11  1  0  0  0  0
 10 12  1  0  0  0  0
 11 16  1  0  0  0  0
 12 13  1  1  0  0  0
 12 14  1  0  0  0  0
 14 15  1  1  0  0  0
 14 16  1  0  0  0  0
 16 27  1  6  0  0  0
 18 19  2  0  0  0  0
 18 23  1  0  0  0  0
 19 20  1  0  0  0  0
 20 21  2  0  0  0  0
 21 22  1  0  0  0  0
 21 27  1  0  0  0  0
 22 23  2  0  0  0  0
 22 25  1  0  0  0  0
 23 24  1  0  0  0  0
 25 26  2  0  0  0  0
 26 27  1  0  0  0  0
M  END
>  <CHROM.1>
-19.81959818,60.53904660,167.68259803,177.40883383,177.01392165,106.80034099
-100.99872812,7.55240205,2.43225403,14.57477487,-2.43375575,-1.39860985,1.66939639

>  <Name>
ligand

>  <RI>
0

>  <Rbt.Current_Directory>
/home/itssahil/PROJECTS/Mol_Feturizer/Test_systems_manuscript/rnas/4aob

>  <Rbt.Executable>
rbdock ($Id: //depot/dev/client3/rdock/2013.1/src/exe/rbdock.cxx#4 $)

>  <Rbt.Library>
libRbt.so (2013.1, Build901 2013/11/27)

>  <Rbt.Parameter_File>
/export/apps/rDock/src/rDock_2013.1_src/data/scripts/dock_solv.prm

>  <Rbt.Receptor>
prm/blind_docking_20.prm

>  <SCORE>
-12.4471

>  <SCORE.INTER>
-15.8255

>  <SCORE.INTER.CONST>
1

>  <SCORE.INTER.POLAR>
0

>  <SCORE.INTER.ROT>
7

>  <SCORE.INTER.SOLV>
15.0596

>  <SCORE.INTER.VDW>
-23.8369

>  <SCORE.INTER.norm>
-0.58613

>  <SCORE.INTRA>
1.82588

>  <SCORE.INTRA.DIHEDRAL>
2.18416

>  <SCORE.INTRA.DIHEDRAL.0>
6.31833

>  <SCORE.INTRA.POLAR>
0

>  <SCORE.INTRA.POLAR.0>
0

>  <SCORE.INTRA.REPUL>
0

>  <SCORE.INTRA.REPUL.0>
0

>  <SCORE.INTRA.SOLV>
-0.0554851

>  <SCORE.INTRA.SOLV.lig_0>
-48.4015

>  <SCORE.INTRA.VDW>
0.761546

>  <SCORE.INTRA.VDW.0>
-2.83256

>  <SCORE.INTRA.norm>
0.0676254

>  <SCORE.RESTR>
1.55251

>  <SCORE.RESTR.CAVITY>
1.55251

>  <SCORE.RESTR.norm>
0.0575004

>  <SCORE.SYSTEM>
0

>  <SCORE.SYSTEM.CONST>
0

>  <SCORE.SYSTEM.DIHEDRAL>
0

>  <SCORE.SYSTEM.SOLV>
0

>  <SCORE.SYSTEM.norm>
0

>  <SCORE.heavy>
27

>  <SCORE.norm>
-0.461004

>  <RMSD>
18.126

$$$$
ligand
 OpenBabel02271912153D
libRbt.so/2013.1/901 2013/11/27
 27 29  0  0  0  0  0  0  0  0999 V2000
    9.3382   -2.6960   16.7260 N   0  0  0  0  0  0  0  0  0  0  0  0
   10.6080   -1.9681   16.9627 C   0  0  2  0  0  0  0  0  0  0  0  0
   11.5983   -2.9471   17.5800 C   0  0  0  0  0  0  0  0  0  0  0  0
   11.3190   -3.9073   18.3722 O   0  0  0  0  0  0  0  0  0  0  0  0
   10.3216   -0.7551   17.8506 C   0  0  0  0  0  0  0  0  0  0  0  0
    9.4149    0.2666   17.1776 C   0  0  0  0  0  0  0  0  0  0  0  0
    8.9409    1.8570   17.9538 S   0  0  2  0  0  0  0  0  0  0  0  0
    7.9032    1.2196   19.2681 C   0  0  0  0  0  0  0  0  0  0  0  0
    7.7482    2.4134   16.6952 C   0  0  0  0  0  0  0  0  0  0  0  0
    7.2436    3.7999   16.9865 C   0  0  1  0  0  0  0  0  0  0  0  0
    8.1164    4.8298   16.4627 O   0  0  0  0  0  0  0  0  0  0  0  0
    5.8586    4.0822   16.4506 C   0  0  1  0  0  0  0  0  0  0  0  0
    4.9687    3.9135   17.4666 O   0  0  0  0  0  0  0  0  0  0  0  0
    5.9677    5.5668   16.1930 C   0  0  1  0  0  0  0  0  0  0  0  0
    5.7327    6.1639   17.3904 O   0  0  0  0  0  0  0  0  0  0  0  0
    7.4290    5.8384   15.7724 C   0  0  2  0  0  0  0  0  0  0  0  0
   12.7867   -2.7458   17.3240 O   0  0  0  0  0  0  0  0  0  0  0  0
    6.8325    7.1823   10.7711 N   0  0  0  0  0  0  0  0  0  0  0  0
    6.7781    7.9160   12.0037 C   0  0  0  0  0  0  0  0  0  0  0  0
    6.9703    7.4253   13.3191 N   0  0  0  0  0  0  0  0  0  0  0  0
    7.2286    6.1775   13.3136 C   0  0  0  0  0  0  0  0  0  0  0  0
    7.3123    5.3349   12.0997 C   0  0  0  0  0  0  0  0  0  0  0  0
    7.1091    5.8364   10.8745 C   0  0  0  0  0  0  0  0  0  0  0  0
    7.1937    4.9737    9.8828 N   0  0  0  0  0  0  0  0  0  0  0  0
    7.5797    4.0756   12.3506 N   0  0  0  0  0  0  0  0  0  0  0  0
    7.6702    4.1308   13.7293 C   0  0  0  0  0  0  0  0  0  0  0  0
    7.4606    5.4334   14.3408 N   0  0  0  0  0  0  0  0  0  0  0  0
  2  1  1  1  0  0  0
  2  3  1  0  0  0  0
  2  5  1  0  0  0  0
  3  4  1  0  0  0  0
  3 17  1  0  0  0  0
  5  6  1  0  0  0  0
  7  6  1  6  0  0  0
  7  8  1  0  0  0  0
  7  9  1  0  0  0  0
 10  9  1  6  0  0  0
 10 11  1  0  0  0  0
 10 12  1  0  0  0  0
 11 16  1  0  0  0  0
 12 13  1  1  0  0  0
 12 14  1  0  0  0  0
 14 15  1  1  0  0  0
 14 16  1  0  0  0  0
 16 27  1  6  0  0  0
 18 19  2  0  0  0  0
 18 23  1  0  0  0  0
 19 20  1  0  0  0  0
 20 21  2  0  0  0  0
 21 22  1  0  0  0  0
 21 27  1  0  0  0  0
 22 23  2  0  0  0  0
 22 25  1  0  0  0  0
 23 24  1  0  0  0  0
 25 26  2  0  0  0  0
 26 27  1  0  0  0  0
M  END
>  <CHROM.1>
-33.49331032,-64.53533975,-177.50006106,-68.59985287,-174.94584982,85.43448225
-163.03956414,8.11857273,2.94532275,15.61426578,-0.84720840,0.96917700,-1.16792480

>  <Name>
ligand

>  <RI>
0

>  <Rbt.Current_Directory>
/home/itssahil/PROJECTS/Mol_Feturizer/Test_systems_manuscript/rnas/4aob

>  <Rbt.Executable>
rbdock ($Id: //depot/dev/client3/rdock/2013.1/src/exe/rbdock.cxx#4 $)

>  <Rbt.Library>
libRbt.so (2013.1, Build901 2013/11/27)

>  <Rbt.Parameter_File>
/export/apps/rDock/src/rDock_2013.1_src/data/scripts/dock_solv.prm

>  <Rbt.Receptor>
prm/blind_docking_40.prm

>  <SCORE>
-18.4261

>  <SCORE.INTER>
-17.9944

>  <SCORE.INTER.CONST>
1

>  <SCORE.INTER.POLAR>
0

>  <SCORE.INTER.ROT>
7

>  <SCORE.INTER.SOLV>
12.7613

>  <SCORE.INTER.VDW>
-24.5167

>  <SCORE.INTER.norm>
-0.666458

>  <SCORE.INTRA>
-0.431763

>  <SCORE.INTRA.DIHEDRAL>
-0.730849

>  <SCORE.INTRA.DIHEDRAL.0>
6.31833

>  <SCORE.INTRA.POLAR>
0

>  <SCORE.INTRA.POLAR.0>
0

>  <SCORE.INTRA.REPUL>
0

>  <SCORE.INTRA.REPUL.0>
0

>  <SCORE.INTRA.SOLV>
-0.190331

>  <SCORE.INTRA.SOLV.lig_0>
-48.4015

>  <SCORE.INTRA.VDW>
0.0288264

>  <SCORE.INTRA.VDW.0>
-2.83256

>  <SCORE.INTRA.norm>
-0.0159912

>  <SCORE.RESTR>
0

>  <SCORE.RESTR.CAVITY>
0

>  <SCORE.RESTR.norm>
0

>  <SCORE.SYSTEM>
0

>  <SCORE.SYSTEM.CONST>
0

>  <SCORE.SYSTEM.DIHEDRAL>
0

>  <SCORE.SYSTEM.SOLV>
0

>  <SCORE.SYSTEM.norm>
0

>  <SCORE.heavy>
27

>  <SCORE.norm>
-0.682449

>  <RMSD>
18.162

$$$$
ligand
 OpenBabel02271912153D
libRbt.so/2013.1/901 2013/11/27
 27 29  0  0  0  0  0  0  0  0999 V2000
    9.3424   -2.6260   16.6977 N   0  0  0  0  0  0  0  0  0  0  0  0
   10.6251   -1.9299   16.9590 C   0  0  2  0  0  0  0  0  0  0  0  0
   11.5770   -2.9318   17.5997 C   0  0  0  0  0  0  0  0  0  0  0  0
   11.2649   -3.8453   18.4337 O   0  0  0  0  0  0  0  0  0  0  0  0
   10.3513   -0.7071   17.8374 C   0  0  0  0  0  0  0  0  0  0  0  0
    9.4351    0.3072   17.1660 C   0  0  0  0  0  0  0  0  0  0  0  0
    8.9322    1.8839   17.9519 S   0  0  2  0  0  0  0  0  0  0  0  0
    7.8939    1.2203   19.2527 C   0  0  0  0  0  0  0  0  0  0  0  0
    7.7412    2.4337   16.6888 C   0  0  0  0  0  0  0  0  0  0  0  0
    7.2356    3.8214   16.9727 C   0  0  1  0  0  0  0  0  0  0  0  0
    8.1091    4.8491   16.4456 O   0  0  0  0  0  0  0  0  0  0  0  0
    5.8515    4.1007   16.4330 C   0  0  1  0  0  0  0  0  0  0  0  0
    4.9598    3.9366   17.4481 O   0  0  0  0  0  0  0  0  0  0  0  0
    5.9606    5.5842   16.1685 C   0  0  1  0  0  0  0  0  0  0  0  0
    5.7233    6.1868   17.3627 O   0  0  0  0  0  0  0  0  0  0  0  0
    7.4227    5.8542   15.7494 C   0  0  2  0  0  0  0  0  0  0  0  0
   12.7692   -2.7997   17.3177 O   0  0  0  0  0  0  0  0  0  0  0  0
    6.7915    7.1630   10.7430 N   0  0  0  0  0  0  0  0  0  0  0  0
    6.7285    7.9020   11.9720 C   0  0  0  0  0  0  0  0  0  0  0  0
    6.9321    7.4211   13.2893 N   0  0  0  0  0  0  0  0  0  0  0  0
    7.2104    6.1776   13.2895 C   0  0  0  0  0  0  0  0  0  0  0  0
    7.3044    5.3303   12.0796 C   0  0  0  0  0  0  0  0  0  0  0  0
    7.0899    5.8223   10.8524 C   0  0  0  0  0  0  0  0  0  0  0  0
    7.1857    4.9560    9.8648 N   0  0  0  0  0  0  0  0  0  0  0  0
    7.5926    4.0767   12.3361 N   0  0  0  0  0  0  0  0  0  0  0  0
    7.6858    4.1404   13.7142 C   0  0  0  0  0  0  0  0  0  0  0  0
    7.4570    5.4425   14.3198 N   0  0  0  0  0  0  0  0  0  0  0  0
  2  1  1  1  0  0  0
  2  3  1  0  0  0  0
  2  5  1  0  0  0  0
  3  4  1  0  0  0  0
  3 17  1  0  0  0  0
  5  6  1  0  0  0  0
  7  6  1  6  0  0  0
  7  8  1  0  0  0  0
  7  9  1  0  0  0  0
 10  9  1  6  0  0  0
 10 11  1  0  0  0  0
 10 12  1  0  0  0  0
 11 16  1  0  0  0  0
 12 13  1  1  0  0  0
 12 14  1  0  0  0  0
 14 15  1  1  0  0  0
 14 16  1  0  0  0  0
 16 27  1  6  0  0  0
 18 19  2  0  0  0  0
 18 23  1  0  0  0  0
 19 20  1  0  0  0  0
 20 21  2  0  0  0  0
 21 22  1  0  0  0  0
 21 27  1  0  0  0  0
 22 23  2  0  0  0  0
 22 25  1  0  0  0  0
 23 24  1  0  0  0  0
 25 26  2  0  0  0  0
 26 27  1  0  0  0  0
M  END
>  <CHROM.1>
-36.77416631,-62.00994983,-179.37844993,-68.59084174,-173.77964463,85.41364178
-163.97773737,8.10894548,2.95936127,15.60141809,-0.84337557,0.96950584,-1.17606367

>  <Name>
ligand

>  <RI>
0

>  <Rbt.Current_Directory>
/home/itssahil/PROJECTS/Mol_Feturizer/Test_systems_manuscript/rnas/4aob

>  <Rbt.Executable>
rbdock ($Id: //depot/dev/client3/rdock/2013.1/src/exe/rbdock.cxx#4 $)

>  <Rbt.Library>
libRbt.so (2013.1, Build901 2013/11/27)

>  <Rbt.Parameter_File>
/export/apps/rDock/src/rDock_2013.1_src/data/scripts/dock_solv.prm

>  <Rbt.Receptor>
prm/blind_docking_40.prm

>  <SCORE>
-18.4387

>  <SCORE.INTER>
-18.0349

>  <SCORE.INTER.CONST>
1

>  <SCORE.INTER.POLAR>
0

>  <SCORE.INTER.ROT>
7

>  <SCORE.INTER.SOLV>
12.8992

>  <SCORE.INTER.VDW>
-24.5897

>  <SCORE.INTER.norm>
-0.667959

>  <SCORE.INTRA>
-0.403843

>  <SCORE.INTRA.DIHEDRAL>
-0.723464

>  <SCORE.INTRA.DIHEDRAL.0>
6.31833

>  <SCORE.INTRA.POLAR>
0

>  <SCORE.INTRA.POLAR.0>
0

>  <SCORE.INTRA.REPUL>
0

>  <SCORE.INTRA.REPUL.0>
0

>  <SCORE.INTRA.SOLV>
-0.17234

>  <SCORE.INTRA.SOLV.lig_0>
-48.4015

>  <SCORE.INTRA.VDW>
0.0440586

>  <SCORE.INTRA.VDW.0>
-2.83256

>  <SCORE.INTRA.norm>
-0.0149571

>  <SCORE.RESTR>
0

>  <SCORE.RESTR.CAVITY>
0

>  <SCORE.RESTR.norm>
0

>  <SCORE.SYSTEM>
0

>  <SCORE.SYSTEM.CONST>
0

>  <SCORE.SYSTEM.DIHEDRAL>
0

>  <SCORE.SYSTEM.SOLV>
0

>  <SCORE.SYSTEM.norm>
0

>  <SCORE.heavy>
27

>  <SCORE.norm>
-0.682916

>  <RMSD>
18.175

$$$$
ligand
 OpenBabel02271912153D
libRbt.so/2013.1/901 2013/11/27
 27 29  0  0  0  0  0  0  0  0999 V2000
    7.0998    7.8548    9.6921 N   0  0  0  0  0  0  0  0  0  0  0  0
    7.2382    6.5521   10.3864 C   0  0  2  0  0  0  0  0  0  0  0  0
    6.2260    5.5900    9.7780 C   0  0  0  0  0  0  0  0  0  0  0  0
    6.4643    4.6983    8.8973 O   0  0  0  0  0  0  0  0  0  0  0  0
    7.0395    6.7711   11.8878 C   0  0  0  0  0  0  0  0  0  0  0  0
    7.3097    5.5161   12.7070 C   0  0  0  0  0  0  0  0  0  0  0  0
    7.1588    5.4539   14.5318 S   0  0  2  0  0  0  0  0  0  0  0  0
    8.7869    6.0674   14.9604 C   0  0  0  0  0  0  0  0  0  0  0  0
    7.3091    3.6512   14.7420 C   0  0  0  0  0  0  0  0  0  0  0  0
    6.9532    3.2261   16.1400 C   0  0  1  0  0  0  0  0  0  0  0  0
    6.2622    1.9540   16.1745 O   0  0  0  0  0  0  0  0  0  0  0  0
    8.1360    3.1101   17.0742 C   0  0  1  0  0  0  0  0  0  0  0  0
    8.2110    4.2546   17.8069 O   0  0  0  0  0  0  0  0  0  0  0  0
    7.6438    2.0195   17.9966 C   0  0  1  0  0  0  0  0  0  0  0  0
    6.8570    2.6425   18.9122 O   0  0  0  0  0  0  0  0  0  0  0  0
    6.7708    1.0748   17.1412 C   0  0  2  0  0  0  0  0  0  0  0  0
    5.0574    5.7359   10.1407 O   0  0  0  0  0  0  0  0  0  0  0  0
    7.9265   -3.4954   14.9160 N   0  0  0  0  0  0  0  0  0  0  0  0
    6.7337   -2.9593   15.5079 C   0  0  0  0  0  0  0  0  0  0  0  0
    6.5454   -1.6765   16.0796 N   0  0  0  0  0  0  0  0  0  0  0  0
    7.6084   -0.9776   16.0069 C   0  0  0  0  0  0  0  0  0  0  0  0
    8.8843   -1.4353   15.4127 C   0  0  0  0  0  0  0  0  0  0  0  0
    9.0242   -2.6628   14.8954 C   0  0  0  0  0  0  0  0  0  0  0  0
   10.2177   -2.9486   14.4172 N   0  0  0  0  0  0  0  0  0  0  0  0
    9.8408   -0.5393   15.4655 N   0  0  0  0  0  0  0  0  0  0  0  0
    9.1583    0.4879   16.0907 C   0  0  0  0  0  0  0  0  0  0  0  0
    7.7670    0.2311   16.4271 N   0  0  0  0  0  0  0  0  0  0  0  0
  2  1  1  6  0  0  0
  2  3  1  0  0  0  0
  2  5  1  0  0  0  0
  3  4  1  0  0  0  0
  3 17  1  0  0  0  0
  5  6  1  0  0  0  0
  7  6  1  6  0  0  0
  7  8  1  0  0  0  0
  7  9  1  0  0  0  0
 10  9  1  6  0  0  0
 10 11  1  0  0  0  0
 10 12  1  0  0  0  0
 11 16  1  0  0  0  0
 12 13  1  1  0  0  0
 12 14  1  0  0  0  0
 14 15  1  1  0  0  0
 14 16  1  0  0  0  0
 16 27  1  6  0  0  0
 18 19  2  0  0  0  0
 18 23  1  0  0  0  0
 19 20  1  0  0  0  0
 20 21  2  0  0  0  0
 21 22  1  0  0  0  0
 21 27  1  0  0  0  0
 22 23  2  0  0  0  0
 22 25  1  0  0  0  0
 23 24  1  0  0  0  0
 25 26  2  0  0  0  0
 26 27  1  0  0  0  0
M  END
>  <CHROM.1>
99.52916931,-173.85758767,179.99279964,-84.74338043,-168.72590497,143.67965319
-101.78008620,7.51436579,2.49691632,14.57669459,-3.06146383,-1.41905298,1.06858420

>  <Name>
ligand

>  <RI>
0

>  <Rbt.Current_Directory>
/home/itssahil/PROJECTS/Mol_Feturizer/Test_systems_manuscript/rnas/4aob

>  <Rbt.Executable>
rbdock ($Id: //depot/dev/client3/rdock/2013.1/src/exe/rbdock.cxx#4 $)

>  <Rbt.Library>
libRbt.so (2013.1, Build901 2013/11/27)

>  <Rbt.Parameter_File>
/export/apps/rDock/src/rDock_2013.1_src/data/scripts/dock_solv.prm

>  <Rbt.Receptor>
prm/blind_docking_20.prm

>  <SCORE>
-9.35574

>  <SCORE.INTER>
-12.2768

>  <SCORE.INTER.CONST>
1

>  <SCORE.INTER.POLAR>
0

>  <SCORE.INTER.ROT>
7

>  <SCORE.INTER.SOLV>
19.5439

>  <SCORE.INTER.VDW>
-22.9658

>  <SCORE.INTER.norm>
-0.454695

>  <SCORE.INTRA>
1.60758

>  <SCORE.INTRA.DIHEDRAL>
2.42279

>  <SCORE.INTRA.DIHEDRAL.0>
6.31833

>  <SCORE.INTRA.POLAR>
0

>  <SCORE.INTRA.POLAR.0>
0

>  <SCORE.INTRA.REPUL>
0

>  <SCORE.INTRA.REPUL.0>
0

>  <SCORE.INTRA.SOLV>
-0.606117

>  <SCORE.INTRA.SOLV.lig_0>
-48.4015

>  <SCORE.INTRA.VDW>
0.699243

>  <SCORE.INTRA.VDW.0>
-2.83256

>  <SCORE.INTRA.norm>
0.05954

>  <SCORE.RESTR>
1.31345

>  <SCORE.RESTR.CAVITY>
1.31345

>  <SCORE.RESTR.norm>
0.0486463

>  <SCORE.SYSTEM>
0

>  <SCORE.SYSTEM.CONST>
0

>  <SCORE.SYSTEM.DIHEDRAL>
0

>  <SCORE.SYSTEM.SOLV>
0

>  <SCORE.SYSTEM.norm>
0

>  <SCORE.heavy>
27

>  <SCORE.norm>
-0.346509

>  <RMSD>
18.180

$$$$
ligand
 OpenBabel02271912153D
libRbt.so/2013.1/901 2013/11/27
 27 29  0  0  0  0  0  0  0  0999 V2000
    9.3733   -2.6622   16.7549 N   0  0  0  0  0  0  0  0  0  0  0  0
   10.6328   -1.9150   16.9868 C   0  0  2  0  0  0  0  0  0  0  0  0
   11.6341   -2.8741   17.6175 C   0  0  0  0  0  0  0  0  0  0  0  0
   12.8594   -3.0119   17.2899 O   0  0  0  0  0  0  0  0  0  0  0  0
   10.3280   -0.6962   17.8605 C   0  0  0  0  0  0  0  0  0  0  0  0
    9.3732    0.2838   17.1920 C   0  0  0  0  0  0  0  0  0  0  0  0
    8.8683    1.8731   17.9509 S   0  0  2  0  0  0  0  0  0  0  0  0
    7.8649    1.2292   19.2884 C   0  0  0  0  0  0  0  0  0  0  0  0
    7.6451    2.3793   16.7004 C   0  0  0  0  0  0  0  0  0  0  0  0
    7.1207    3.7631   16.9686 C   0  0  1  0  0  0  0  0  0  0  0  0
    7.9985    4.7974   16.4619 O   0  0  0  0  0  0  0  0  0  0  0  0
    5.7484    4.0297   16.3933 C   0  0  1  0  0  0  0  0  0  0  0  0
    4.8326    3.8596   17.3856 O   0  0  0  0  0  0  0  0  0  0  0  0
    5.8517    5.5135   16.1288 C   0  0  1  0  0  0  0  0  0  0  0  0
    5.5788    6.1162   17.3153 O   0  0  0  0  0  0  0  0  0  0  0  0
    7.3215    5.7954   15.7465 C   0  0  2  0  0  0  0  0  0  0  0  0
   11.1891   -3.6219   18.4899 O   0  0  0  0  0  0  0  0  0  0  0  0
    6.8665    7.1061   10.7216 N   0  0  0  0  0  0  0  0  0  0  0  0
    6.7743    7.8474   11.9474 C   0  0  0  0  0  0  0  0  0  0  0  0
    6.9297    7.3655   13.2709 N   0  0  0  0  0  0  0  0  0  0  0  0
    7.1916    6.1185   13.2808 C   0  0  0  0  0  0  0  0  0  0  0  0
    7.3129    5.2686   12.0752 C   0  0  0  0  0  0  0  0  0  0  0  0
    7.1438    5.7618   10.8415 C   0  0  0  0  0  0  0  0  0  0  0  0
    7.2596    4.8931    9.8582 N   0  0  0  0  0  0  0  0  0  0  0  0
    7.5764    4.0117   12.3418 N   0  0  0  0  0  0  0  0  0  0  0  0
    7.6267    4.0758   13.7221 C   0  0  0  0  0  0  0  0  0  0  0  0
    7.3958    5.3815   14.3190 N   0  0  0  0  0  0  0  0  0  0  0  0
  2  1  1  1  0  0  0
  2  3  1  0  0  0  0
  2  5  1  0  0  0  0
  3  4  1  0  0  0  0
  3 17  1  0  0  0  0
  5  6  1  0  0  0  0
  7  6  1  6  0  0  0
  7  8  1  0  0  0  0
  7  9  1  0  0  0  0
 10  9  1  6  0  0  0
 10 11  1  0  0  0  0
 10 12  1  0  0  0  0
 11 16  1  0  0  0  0
 12 13  1  1  0  0  0
 12 14  1  0  0  0  0
 14 15  1  1  0  0  0
 14 16  1  0  0  0  0
 16 27  1  6  0  0  0
 18 19  2  0  0  0  0
 18 23  1  0  0  0  0
 19 20  1  0  0  0  0
 20 21  2  0  0  0  0
 21 22  1  0  0  0  0
 21 27  1  0  0  0  0
 22 23  2  0  0  0  0
 22 25  1  0  0  0  0
 23 24  1  0  0  0  0
 25 26  2  0  0  0  0
 26 27  1  0  0  0  0
M  END
>  <CHROM.1>
134.76546434,-62.63964214,-177.39607027,-69.35498033,-174.26495016,82.68708677
-162.69047531,8.07323958,2.92098862,15.60012490,-0.86924074,0.94227680,-1.14808376

>  <Name>
ligand

>  <RI>
0

>  <Rbt.Current_Directory>
/home/itssahil/PROJECTS/Mol_Feturizer/Test_systems_manuscript/rnas/4aob

>  <Rbt.Executable>
rbdock ($Id: //depot/dev/client3/rdock/2013.1/src/exe/rbdock.cxx#4 $)

>  <Rbt.Library>
libRbt.so (2013.1, Build901 2013/11/27)

>  <Rbt.Parameter_File>
/export/apps/rDock/src/rDock_2013.1_src/data/scripts/dock_solv.prm

>  <Rbt.Receptor>
prm/blind_docking_60.prm

>  <SCORE>
-18.1929

>  <SCORE.INTER>
-17.9086

>  <SCORE.INTER.CONST>
1

>  <SCORE.INTER.POLAR>
0

>  <SCORE.INTER.ROT>
7

>  <SCORE.INTER.SOLV>
13.2509

>  <SCORE.INTER.VDW>
-24.6227

>  <SCORE.INTER.norm>
-0.663283

>  <SCORE.INTRA>
-0.28432

>  <SCORE.INTRA.DIHEDRAL>
-0.872279

>  <SCORE.INTRA.DIHEDRAL.0>
6.31833

>  <SCORE.INTRA.POLAR>
0

>  <SCORE.INTRA.POLAR.0>
0

>  <SCORE.INTRA.REPUL>
0

>  <SCORE.INTRA.REPUL.0>
0

>  <SCORE.INTRA.SOLV>
-0.119828

>  <SCORE.INTRA.SOLV.lig_0>
-48.4015

>  <SCORE.INTRA.VDW>
0.211733

>  <SCORE.INTRA.VDW.0>
-2.83256

>  <SCORE.INTRA.norm>
-0.0105304

>  <SCORE.RESTR>
0

>  <SCORE.RESTR.CAVITY>
0

>  <SCORE.RESTR.norm>
0

>  <SCORE.SYSTEM>
0

>  <SCORE.SYSTEM.CONST>
0

>  <SCORE.SYSTEM.DIHEDRAL>
0

>  <SCORE.SYSTEM.SOLV>
0

>  <SCORE.SYSTEM.norm>
0

>  <SCORE.heavy>
27

>  <SCORE.norm>
-0.673813

>  <RMSD>
18.191

$$$$
ligand
 OpenBabel02271912153D
libRbt.so/2013.1/901 2013/11/27
 27 29  0  0  0  0  0  0  0  0999 V2000
    6.5002   -2.6353   15.5479 N   0  0  0  0  0  0  0  0  0  0  0  0
    7.9784   -2.5500   15.4701 C   0  0  2  0  0  0  0  0  0  0  0  0
    8.5558   -3.5751   16.4377 C   0  0  0  0  0  0  0  0  0  0  0  0
    7.9042   -4.4763   17.0629 O   0  0  0  0  0  0  0  0  0  0  0  0
    8.4056   -1.1142   15.7824 C   0  0  0  0  0  0  0  0  0  0  0  0
    7.6759   -0.5309   16.9851 C   0  0  0  0  0  0  0  0  0  0  0  0
    7.8772    1.2035   17.5401 S   0  0  2  0  0  0  0  0  0  0  0  0
    7.0013    1.0934   19.0993 C   0  0  0  0  0  0  0  0  0  0  0  0
    6.6664    1.9752   16.4199 C   0  0  0  0  0  0  0  0  0  0  0  0
    6.4507    3.4257   16.7536 C   0  0  1  0  0  0  0  0  0  0  0  0
    7.6287    4.2323   16.5111 O   0  0  0  0  0  0  0  0  0  0  0  0
    5.3110    4.0735   16.0010 C   0  0  1  0  0  0  0  0  0  0  0  0
    4.2167    4.0769   16.8102 O   0  0  0  0  0  0  0  0  0  0  0  0
    5.8146    5.4957   15.9230 C   0  0  1  0  0  0  0  0  0  0  0  0
    5.4840    6.0662   17.1108 O   0  0  0  0  0  0  0  0  0  0  0  0
    7.3534    5.4166   15.8128 C   0  0  2  0  0  0  0  0  0  0  0  0
    9.7616   -3.4767   16.6718 O   0  0  0  0  0  0  0  0  0  0  0  0
   10.0258    2.7067   12.2505 N   0  0  0  0  0  0  0  0  0  0  0  0
   10.0288    2.7218   13.6859 C   0  0  0  0  0  0  0  0  0  0  0  0
    9.2329    3.5134   14.5506 N   0  0  0  0  0  0  0  0  0  0  0  0
    8.4408    4.2636   13.8921 C   0  0  0  0  0  0  0  0  0  0  0  0
    8.3572    4.3181   12.4155 C   0  0  0  0  0  0  0  0  0  0  0  0
    9.1392    3.5623   11.6337 C   0  0  0  0  0  0  0  0  0  0  0  0
    8.9764    3.7231   10.3366 N   0  0  0  0  0  0  0  0  0  0  0  0
    7.4726    5.1780   11.9699 N   0  0  0  0  0  0  0  0  0  0  0  0
    6.9950    5.6605   13.1745 C   0  0  0  0  0  0  0  0  0  0  0  0
    7.5838    5.0954   14.3781 N   0  0  0  0  0  0  0  0  0  0  0  0
  2  1  1  1  0  0  0
  2  3  1  0  0  0  0
  2  5  1  0  0  0  0
  3  4  1  0  0  0  0
  3 17  1  0  0  0  0
  5  6  1  0  0  0  0
  7  6  1  6  0  0  0
  7  8  1  0  0  0  0
  7  9  1  0  0  0  0
 10  9  1  6  0  0  0
 10 11  1  0  0  0  0
 10 12  1  0  0  0  0
 11 16  1  0  0  0  0
 12 13  1  1  0  0  0
 12 14  1  0  0  0  0
 14 15  1  1  0  0  0
 14 16  1  0  0  0  0
 16 27  1  6  0  0  0
 18 19  2  0  0  0  0
 18 23  1  0  0  0  0
 19 20  1  0  0  0  0
 20 21  2  0  0  0  0
 21 22  1  0  0  0  0
 21 27  1  0  0  0  0
 22 23  2  0  0  0  0
 22 25  1  0  0  0  0
 23 24  1  0  0  0  0
 25 26  2  0  0  0  0
 26 27  1  0  0  0  0
M  END
>  <CHROM.1>
9.10996203,44.62659522,-175.54438344,-170.46552251,172.33111334,66.48976493
-32.09999027,7.63731290,2.09738816,15.39506186,-1.38711291,0.99155044,-0.49259552

>  <Name>
ligand

>  <RI>
0

>  <Rbt.Current_Directory>
/home/itssahil/PROJECTS/Mol_Feturizer/Test_systems_manuscript/rnas/4aob

>  <Rbt.Executable>
rbdock ($Id: //depot/dev/client3/rdock/2013.1/src/exe/rbdock.cxx#4 $)

>  <Rbt.Library>
libRbt.so (2013.1, Build901 2013/11/27)

>  <Rbt.Parameter_File>
/export/apps/rDock/src/rDock_2013.1_src/data/scripts/dock_solv.prm

>  <Rbt.Receptor>
prm/blind_docking_20.prm

>  <SCORE>
-7.72955

>  <SCORE.INTER>
-8.39207

>  <SCORE.INTER.CONST>
1

>  <SCORE.INTER.POLAR>
0

>  <SCORE.INTER.ROT>
7

>  <SCORE.INTER.SOLV>
18.8942

>  <SCORE.INTER.VDW>
-20.1594

>  <SCORE.INTER.norm>
-0.310818

>  <SCORE.INTRA>
0.0649005

>  <SCORE.INTRA.DIHEDRAL>
-1.30192

>  <SCORE.INTRA.DIHEDRAL.0>
6.31833

>  <SCORE.INTRA.POLAR>
0

>  <SCORE.INTRA.POLAR.0>
0

>  <SCORE.INTRA.REPUL>
0

>  <SCORE.INTRA.REPUL.0>
0

>  <SCORE.INTRA.SOLV>
0.106563

>  <SCORE.INTRA.SOLV.lig_0>
-48.4015

>  <SCORE.INTRA.VDW>
0.66258

>  <SCORE.INTRA.VDW.0>
-2.83256

>  <SCORE.INTRA.norm>
0.00240372

>  <SCORE.RESTR>
0.597618

>  <SCORE.RESTR.CAVITY>
0.597618

>  <SCORE.RESTR.norm>
0.022134

>  <SCORE.SYSTEM>
0

>  <SCORE.SYSTEM.CONST>
0

>  <SCORE.SYSTEM.DIHEDRAL>
0

>  <SCORE.SYSTEM.SOLV>
0

>  <SCORE.SYSTEM.norm>
0

>  <SCORE.heavy>
27

>  <SCORE.norm>
-0.28628

>  <RMSD>
18.215

$$$$
ligand
 OpenBabel02271912153D
libRbt.so/2013.1/901 2013/11/27
 27 29  0  0  0  0  0  0  0  0999 V2000
   10.8490   -1.7990   16.2361 N   0  0  0  0  0  0  0  0  0  0  0  0
   10.3966   -1.9315   17.6418 C   0  0  2  0  0  0  0  0  0  0  0  0
    9.0672   -2.6753   17.6353 C   0  0  0  0  0  0  0  0  0  0  0  0
    8.1361   -2.5529   16.7718 O   0  0  0  0  0  0  0  0  0  0  0  0
   10.3072   -0.5362   18.2636 C   0  0  0  0  0  0  0  0  0  0  0  0
    9.3551    0.3840   17.5114 C   0  0  0  0  0  0  0  0  0  0  0  0
    8.8406    2.0276   18.1362 S   0  0  2  0  0  0  0  0  0  0  0  0
    7.6746    1.4906   19.3863 C   0  0  0  0  0  0  0  0  0  0  0  0
    7.7794    2.5145   16.7387 C   0  0  0  0  0  0  0  0  0  0  0  0
    7.1566    3.8652   16.9619 C   0  0  1  0  0  0  0  0  0  0  0  0
    7.9759    4.9452   16.4528 O   0  0  0  0  0  0  0  0  0  0  0  0
    5.7848    4.0259   16.3476 C   0  0  1  0  0  0  0  0  0  0  0  0
    4.8573    3.8158   17.3212 O   0  0  0  0  0  0  0  0  0  0  0  0
    5.7951    5.5073   16.0513 C   0  0  1  0  0  0  0  0  0  0  0  0
    5.4521    6.1156   17.2165 O   0  0  0  0  0  0  0  0  0  0  0  0
    7.2521    5.8795   15.6982 C   0  0  2  0  0  0  0  0  0  0  0  0
    8.8627   -3.4231   18.5930 O   0  0  0  0  0  0  0  0  0  0  0  0
    6.9619    7.0855   10.6349 N   0  0  0  0  0  0  0  0  0  0  0  0
    6.8059    7.8471   11.8416 C   0  0  0  0  0  0  0  0  0  0  0  0
    6.9209    7.3937   13.1792 N   0  0  0  0  0  0  0  0  0  0  0  0
    7.2101    6.1535   13.2235 C   0  0  0  0  0  0  0  0  0  0  0  0
    7.3968    5.2843   12.0402 C   0  0  0  0  0  0  0  0  0  0  0  0
    7.2644    5.7504   10.7915 C   0  0  0  0  0  0  0  0  0  0  0  0
    7.4374    4.8664    9.8305 N   0  0  0  0  0  0  0  0  0  0  0  0
    7.6779    4.0390   12.3411 N   0  0  0  0  0  0  0  0  0  0  0  0
    7.6735    4.1300   13.7208 C   0  0  0  0  0  0  0  0  0  0  0  0
    7.3906    5.4410   14.2829 N   0  0  0  0  0  0  0  0  0  0  0  0
  2  1  1  6  0  0  0
  2  3  1  0  0  0  0
  2  5  1  0  0  0  0
  3  4  1  0  0  0  0
  3 17  1  0  0  0  0
  5  6  1  0  0  0  0
  7  6  1  6  0  0  0
  7  8  1  0  0  0  0
  7  9  1  0  0  0  0
 10  9  1  6  0  0  0
 10 11  1  0  0  0  0
 10 12  1  0  0  0  0
 11 16  1  0  0  0  0
 12 13  1  1  0  0  0
 12 14  1  0  0  0  0
 14 15  1  1  0  0  0
 14 16  1  0  0  0  0
 16 27  1  6  0  0  0
 18 19  2  0  0  0  0
 18 23  1  0  0  0  0
 19 20  1  0  0  0  0
 20 21  2  0  0  0  0
 21 22  1  0  0  0  0
 21 27  1  0  0  0  0
 22 23  2  0  0  0  0
 22 25  1  0  0  0  0
 23 24  1  0  0  0  0
 25 26  2  0  0  0  0
 26 27  1  0  0  0  0
M  END
>  <CHROM.1>
-37.40610385,58.52821096,170.73715590,-75.82935790,178.92606721,89.91137104
-160.01571845,7.75952141,3.03686363,15.60382724,-1.01202676,1.09144251,-1.11639953

>  <Name>
ligand

>  <RI>
0

>  <Rbt.Current_Directory>
/home/itssahil/PROJECTS/Mol_Feturizer/Test_systems_manuscript/rnas/4aob

>  <Rbt.Executable>
rbdock ($Id: //depot/dev/client3/rdock/2013.1/src/exe/rbdock.cxx#4 $)

>  <Rbt.Library>
libRbt.so (2013.1, Build901 2013/11/27)

>  <Rbt.Parameter_File>
/export/apps/rDock/src/rDock_2013.1_src/data/scripts/dock_solv.prm

>  <Rbt.Receptor>
prm/blind_docking_80.prm

>  <SCORE>
-14.8702

>  <SCORE.INTER>
-14.8024

>  <SCORE.INTER.CONST>
1

>  <SCORE.INTER.POLAR>
0

>  <SCORE.INTER.ROT>
7

>  <SCORE.INTER.SOLV>
14.3393

>  <SCORE.INTER.VDW>
-22.9147

>  <SCORE.INTER.norm>
-0.548237

>  <SCORE.INTRA>
-0.0678028

>  <SCORE.INTRA.DIHEDRAL>
-0.0732025

>  <SCORE.INTRA.DIHEDRAL.0>
6.31833

>  <SCORE.INTRA.POLAR>
0

>  <SCORE.INTRA.POLAR.0>
0

>  <SCORE.INTRA.REPUL>
0

>  <SCORE.INTRA.REPUL.0>
0

>  <SCORE.INTRA.SOLV>
-0.116551

>  <SCORE.INTRA.SOLV.lig_0>
-48.4015

>  <SCORE.INTRA.VDW>
0.0270739

>  <SCORE.INTRA.VDW.0>
-2.83256

>  <SCORE.INTRA.norm>
-0.00251121

>  <SCORE.RESTR>
0

>  <SCORE.RESTR.CAVITY>
0

>  <SCORE.RESTR.norm>
0

>  <SCORE.SYSTEM>
0

>  <SCORE.SYSTEM.CONST>
0

>  <SCORE.SYSTEM.DIHEDRAL>
0

>  <SCORE.SYSTEM.SOLV>
0

>  <SCORE.SYSTEM.norm>
0

>  <SCORE.heavy>
27

>  <SCORE.norm>
-0.550748

>  <RMSD>
18.252

$$$$
ligand
 OpenBabel02271912153D
libRbt.so/2013.1/901 2013/11/27
 27 29  0  0  0  0  0  0  0  0999 V2000
    8.2950   -2.6472   14.8647 N   0  0  0  0  0  0  0  0  0  0  0  0
    8.1816   -2.8265   16.3321 C   0  0  2  0  0  0  0  0  0  0  0  0
    6.7568   -3.2696   16.6386 C   0  0  0  0  0  0  0  0  0  0  0  0
    5.7056   -2.5524   16.5493 O   0  0  0  0  0  0  0  0  0  0  0  0
    8.5695   -1.5154   17.0194 C   0  0  0  0  0  0  0  0  0  0  0  0
    7.7004   -0.3429   16.5846 C   0  0  0  0  0  0  0  0  0  0  0  0
    7.8231    1.3290   17.3239 S   0  0  2  0  0  0  0  0  0  0  0  0
    6.9933    1.0008   18.8777 C   0  0  0  0  0  0  0  0  0  0  0  0
    6.5457    2.1501   16.3188 C   0  0  0  0  0  0  0  0  0  0  0  0
    6.3927    3.5983   16.6949 C   0  0  1  0  0  0  0  0  0  0  0  0
    7.6111    4.3552   16.4960 O   0  0  0  0  0  0  0  0  0  0  0  0
    5.2974    4.3222   15.9457 C   0  0  1  0  0  0  0  0  0  0  0  0
    4.1910    4.3526   16.7377 O   0  0  0  0  0  0  0  0  0  0  0  0
    5.8684    5.7207   15.9204 C   0  0  1  0  0  0  0  0  0  0  0  0
    5.5451    6.2694   17.1204 O   0  0  0  0  0  0  0  0  0  0  0  0
    7.4034    5.5722   15.8313 C   0  0  2  0  0  0  0  0  0  0  0  0
    6.6293   -4.4183   17.0662 O   0  0  0  0  0  0  0  0  0  0  0  0
   10.0687    2.9154   12.2241 N   0  0  0  0  0  0  0  0  0  0  0  0
   10.0584    2.8933   13.6593 C   0  0  0  0  0  0  0  0  0  0  0  0
    9.2662    3.6742   14.5371 N   0  0  0  0  0  0  0  0  0  0  0  0
    8.4917    4.4530   13.8912 C   0  0  0  0  0  0  0  0  0  0  0  0
    8.4227    4.5470   12.4158 C   0  0  0  0  0  0  0  0  0  0  0  0
    9.2008    3.7999   11.6217 C   0  0  0  0  0  0  0  0  0  0  0  0
    9.0527    3.9967   10.3278 N   0  0  0  0  0  0  0  0  0  0  0  0
    7.5553    5.4313   11.9847 N   0  0  0  0  0  0  0  0  0  0  0  0
    7.0735    5.8896   13.1971 C   0  0  0  0  0  0  0  0  0  0  0  0
    7.6425    5.2848   14.3909 N   0  0  0  0  0  0  0  0  0  0  0  0
  2  1  1  6  0  0  0
  2  3  1  0  0  0  0
  2  5  1  0  0  0  0
  3  4  1  0  0  0  0
  3 17  1  0  0  0  0
  5  6  1  0  0  0  0
  7  6  1  6  0  0  0
  7  8  1  0  0  0  0
  7  9  1  0  0  0  0
 10  9  1  6  0  0  0
 10 11  1  0  0  0  0
 10 12  1  0  0  0  0
 11 16  1  0  0  0  0
 12 13  1  1  0  0  0
 12 14  1  0  0  0  0
 14 15  1  1  0  0  0
 14 16  1  0  0  0  0
 16 27  1  6  0  0  0
 18 19  2  0  0  0  0
 18 23  1  0  0  0  0
 19 20  1  0  0  0  0
 20 21  2  0  0  0  0
 21 22  1  0  0  0  0
 21 27  1  0  0  0  0
 22 23  2  0  0  0  0
 22 25  1  0  0  0  0
 23 24  1  0  0  0  0
 25 26  2  0  0  0  0
 26 27  1  0  0  0  0
M  END
>  <CHROM.1>
-70.51906242,58.49364384,174.88566014,-75.44036237,179.97670765,60.75962822
-34.01009430,7.45347314,2.26562789,15.39300136,-1.65435756,0.97782710,-0.31234286

>  <Name>
ligand

>  <RI>
0

>  <Rbt.Current_Directory>
/home/itssahil/PROJECTS/Mol_Feturizer/Test_systems_manuscript/rnas/4aob

>  <Rbt.Executable>
rbdock ($Id: //depot/dev/client3/rdock/2013.1/src/exe/rbdock.cxx#4 $)

>  <Rbt.Library>
libRbt.so (2013.1, Build901 2013/11/27)

>  <Rbt.Parameter_File>
/export/apps/rDock/src/rDock_2013.1_src/data/scripts/dock_solv.prm

>  <Rbt.Receptor>
prm/blind_docking_20.prm

>  <SCORE>
-12.3804

>  <SCORE.INTER>
-11.5031

>  <SCORE.INTER.CONST>
1

>  <SCORE.INTER.POLAR>
0

>  <SCORE.INTER.ROT>
7

>  <SCORE.INTER.SOLV>
15.0087

>  <SCORE.INTER.VDW>
-20.9383

>  <SCORE.INTER.norm>
-0.426039

>  <SCORE.INTRA>
-1.1796

>  <SCORE.INTRA.DIHEDRAL>
-2.69918

>  <SCORE.INTRA.DIHEDRAL.0>
6.31833

>  <SCORE.INTRA.POLAR>
0

>  <SCORE.INTRA.POLAR.0>
0

>  <SCORE.INTRA.REPUL>
0

>  <SCORE.INTRA.REPUL.0>
0

>  <SCORE.INTRA.SOLV>
-0.0744953

>  <SCORE.INTRA.SOLV.lig_0>
-48.4015

>  <SCORE.INTRA.VDW>
0.207237

>  <SCORE.INTRA.VDW.0>
-2.83256

>  <SCORE.INTRA.norm>
-0.0436889

>  <SCORE.RESTR>
0.302283

>  <SCORE.RESTR.CAVITY>
0.302283

>  <SCORE.RESTR.norm>
0.0111957

>  <SCORE.SYSTEM>
0

>  <SCORE.SYSTEM.CONST>
0

>  <SCORE.SYSTEM.DIHEDRAL>
0

>  <SCORE.SYSTEM.SOLV>
0

>  <SCORE.SYSTEM.norm>
0

>  <SCORE.heavy>
27

>  <SCORE.norm>
-0.458533

>  <RMSD>
18.275

$$$$
ligand
 OpenBabel02271912153D
libRbt.so/2013.1/901 2013/11/27
 27 29  0  0  0  0  0  0  0  0999 V2000
    8.9820   -2.4963   14.9150 N   0  0  0  0  0  0  0  0  0  0  0  0
    8.3257   -2.7126   16.2268 C   0  0  2  0  0  0  0  0  0  0  0  0
    6.8578   -3.0259   15.9674 C   0  0  0  0  0  0  0  0  0  0  0  0
    5.8667   -2.6482   16.6763 O   0  0  0  0  0  0  0  0  0  0  0  0
    8.5359   -1.4688   17.0931 C   0  0  0  0  0  0  0  0  0  0  0  0
    7.8150   -0.2429   16.5486 C   0  0  0  0  0  0  0  0  0  0  0  0
    7.9001    1.4080   17.3384 S   0  0  2  0  0  0  0  0  0  0  0  0
    6.9966    1.0376   18.8408 C   0  0  0  0  0  0  0  0  0  0  0  0
    6.6719    2.2567   16.2957 C   0  0  0  0  0  0  0  0  0  0  0  0
    6.5389    3.7078   16.6681 C   0  0  1  0  0  0  0  0  0  0  0  0
    7.7574    4.4547   16.4350 O   0  0  0  0  0  0  0  0  0  0  0  0
    5.4305    4.4362   15.9428 C   0  0  1  0  0  0  0  0  0  0  0  0
    4.3445    4.4786   16.7621 O   0  0  0  0  0  0  0  0  0  0  0  0
    6.0108    5.8303   15.8962 C   0  0  1  0  0  0  0  0  0  0  0  0
    5.7216    6.3872   17.1011 O   0  0  0  0  0  0  0  0  0  0  0  0
    7.5420    5.6699   15.7695 C   0  0  2  0  0  0  0  0  0  0  0  0
    6.6249   -3.7626   15.0074 O   0  0  0  0  0  0  0  0  0  0  0  0
    9.9901    2.8694   12.1173 N   0  0  0  0  0  0  0  0  0  0  0  0
    9.9987    2.8428   13.5525 C   0  0  0  0  0  0  0  0  0  0  0  0
    9.2678    3.6671   14.4436 N   0  0  0  0  0  0  0  0  0  0  0  0
    8.5329    4.4938   13.8110 C   0  0  0  0  0  0  0  0  0  0  0  0
    8.4490    4.5971   12.3370 C   0  0  0  0  0  0  0  0  0  0  0  0
    9.1690    3.8071   11.5299 C   0  0  0  0  0  0  0  0  0  0  0  0
    9.0149    4.0172   10.2387 N   0  0  0  0  0  0  0  0  0  0  0  0
    7.6308    5.5340   11.9208 N   0  0  0  0  0  0  0  0  0  0  0  0
    7.1949    6.0162   13.1412 C   0  0  0  0  0  0  0  0  0  0  0  0
    7.7429    5.3738   14.3251 N   0  0  0  0  0  0  0  0  0  0  0  0
  2  1  1  6  0  0  0
  2  3  1  0  0  0  0
  2  5  1  0  0  0  0
  3  4  1  0  0  0  0
  3 17  1  0  0  0  0
  5  6  1  0  0  0  0
  7  6  1  6  0  0  0
  7  8  1  0  0  0  0
  7  9  1  0  0  0  0
 10  9  1  6  0  0  0
 10 11  1  0  0  0  0
 10 12  1  0  0  0  0
 11 16  1  0  0  0  0
 12 13  1  1  0  0  0
 12 14  1  0  0  0  0
 14 15  1  1  0  0  0
 14 16  1  0  0  0  0
 16 27  1  6  0  0  0
 18 19  2  0  0  0  0
 18 23  1  0  0  0  0
 19 20  1  0  0  0  0
 20 21  2  0  0  0  0
 21 22  1  0  0  0  0
 21 27  1  0  0  0  0
 22 23  2  0  0  0  0
 22 25  1  0  0  0  0
 23 24  1  0  0  0  0
 25 26  2  0  0  0  0
 26 27  1  0  0  0  0
M  END
>  <CHROM.1>
-142.84517110,66.47149470,-178.63313848,-67.89412311,-177.78405970,64.05098592
-30.85665351,7.54975574,2.36179348,15.25783650,-1.60922275,1.03887839,-0.28905388

>  <Name>
ligand

>  <RI>
0

>  <Rbt.Current_Directory>
/home/itssahil/PROJECTS/Mol_Feturizer/Test_systems_manuscript/rnas/4aob

>  <Rbt.Executable>
rbdock ($Id: //depot/dev/client3/rdock/2013.1/src/exe/rbdock.cxx#4 $)

>  <Rbt.Library>
libRbt.so (2013.1, Build901 2013/11/27)

>  <Rbt.Parameter_File>
/export/apps/rDock/src/rDock_2013.1_src/data/scripts/dock_solv.prm

>  <Rbt.Receptor>
prm/blind_docking_20.prm

>  <SCORE>
-12.7354

>  <SCORE.INTER>
-12.1393

>  <SCORE.INTER.CONST>
1

>  <SCORE.INTER.POLAR>
0

>  <SCORE.INTER.ROT>
7

>  <SCORE.INTER.SOLV>
14.019

>  <SCORE.INTER.VDW>
-21.0325

>  <SCORE.INTER.norm>
-0.449604

>  <SCORE.INTRA>
-0.877251

>  <SCORE.INTRA.DIHEDRAL>
-2.8063

>  <SCORE.INTRA.DIHEDRAL.0>
6.31833

>  <SCORE.INTRA.POLAR>
0

>  <SCORE.INTRA.POLAR.0>
0

>  <SCORE.INTRA.REPUL>
0

>  <SCORE.INTRA.REPUL.0>
0

>  <SCORE.INTRA.SOLV>
-0.0984204

>  <SCORE.INTRA.SOLV.lig_0>
-48.4015

>  <SCORE.INTRA.VDW>
0.575109

>  <SCORE.INTRA.VDW.0>
-2.83256

>  <SCORE.INTRA.norm>
-0.0324908

>  <SCORE.RESTR>
0.281123

>  <SCORE.RESTR.CAVITY>
0.281123

>  <SCORE.RESTR.norm>
0.010412

>  <SCORE.SYSTEM>
0

>  <SCORE.SYSTEM.CONST>
0

>  <SCORE.SYSTEM.DIHEDRAL>
0

>  <SCORE.SYSTEM.SOLV>
0

>  <SCORE.SYSTEM.norm>
0

>  <SCORE.heavy>
27

>  <SCORE.norm>
-0.471683

>  <RMSD>
18.314

$$$$
ligand
 OpenBabel02271912153D
libRbt.so/2013.1/901 2013/11/27
 27 29  0  0  0  0  0  0  0  0999 V2000
    9.3084   -1.0421   15.0773 N   0  0  0  0  0  0  0  0  0  0  0  0
    8.3879   -1.9279   15.8300 C   0  0  2  0  0  0  0  0  0  0  0  0
    8.0053   -3.0858   14.9172 C   0  0  0  0  0  0  0  0  0  0  0  0
    8.4869   -3.3290   13.7611 O   0  0  0  0  0  0  0  0  0  0  0  0
    7.1869   -1.1043   16.2998 C   0  0  0  0  0  0  0  0  0  0  0  0
    7.5663   -0.0378   17.3185 C   0  0  0  0  0  0  0  0  0  0  0  0
    8.2135    1.6121   16.8544 S   0  0  2  0  0  0  0  0  0  0  0  0
    8.4349    2.2897   18.4983 C   0  0  0  0  0  0  0  0  0  0  0  0
    6.6489    2.3539   16.2904 C   0  0  0  0  0  0  0  0  0  0  0  0
    6.5699    3.8135   16.6443 C   0  0  1  0  0  0  0  0  0  0  0  0
    7.8016    4.5207   16.3619 O   0  0  0  0  0  0  0  0  0  0  0  0
    5.4608    4.5636   15.9427 C   0  0  1  0  0  0  0  0  0  0  0  0
    4.4029    4.6500   16.7947 O   0  0  0  0  0  0  0  0  0  0  0  0
    6.0796    5.9392   15.8565 C   0  0  1  0  0  0  0  0  0  0  0  0
    5.8448    6.5218   17.0611 O   0  0  0  0  0  0  0  0  0  0  0  0
    7.6007    5.7319   15.6847 C   0  0  2  0  0  0  0  0  0  0  0  0
    7.1024   -3.8186   15.3249 O   0  0  0  0  0  0  0  0  0  0  0  0
    9.9837    2.9352   11.9868 N   0  0  0  0  0  0  0  0  0  0  0  0
   10.0578    2.9430   13.4203 C   0  0  0  0  0  0  0  0  0  0  0  0
    9.3378    3.7615   14.3256 N   0  0  0  0  0  0  0  0  0  0  0  0
    8.5452    4.5460   13.7093 C   0  0  0  0  0  0  0  0  0  0  0  0
    8.3913    4.6112   12.2387 C   0  0  0  0  0  0  0  0  0  0  0  0
    9.1030    3.8287   11.4171 C   0  0  0  0  0  0  0  0  0  0  0  0
    8.8833    4.0024   10.1300 N   0  0  0  0  0  0  0  0  0  0  0  0
    7.5212    5.5080   11.8399 N   0  0  0  0  0  0  0  0  0  0  0  0
    7.1231    6.0032   13.0681 C   0  0  0  0  0  0  0  0  0  0  0  0
    7.7472    5.4090   14.2395 N   0  0  0  0  0  0  0  0  0  0  0  0
  2  1  1  6  0  0  0
  2  3  1  0  0  0  0
  2  5  1  0  0  0  0
  3  4  1  0  0  0  0
  3 17  1  0  0  0  0
  5  6  1  0  0  0  0
  7  6  1  1  0  0  0
  7  8  1  0  0  0  0
  7  9  1  0  0  0  0
 10  9  1  6  0  0  0
 10 11  1  0  0  0  0
 10 12  1  0  0  0  0
 11 16  1  0  0  0  0
 12 13  1  1  0  0  0
 12 14  1  0  0  0  0
 14 15  1  1  0  0  0
 14 16  1  0  0  0  0
 16 27  1  6  0  0  0
 18 19  2  0  0  0  0
 18 23  1  0  0  0  0
 19 20  1  0  0  0  0
 20 21  2  0  0  0  0
 21 22  1  0  0  0  0
 21 27  1  0  0  0  0
 22 23  2  0  0  0  0
 22 25  1  0  0  0  0
 23 24  1  0  0  0  0
 25 26  2  0  0  0  0
 26 27  1  0  0  0  0
M  END
>  <CHROM.1>
6.31352908,-65.80936440,83.83959227,-179.70403648,143.88758494,44.52882923
-34.73197948,7.75421483,2.53670874,15.01470018,-1.32248940,1.11150234,-0.36855142

>  <Name>
ligand

>  <RI>
0

>  <Rbt.Current_Directory>
/home/itssahil/PROJECTS/Mol_Feturizer/Test_systems_manuscript/rnas/4aob

>  <Rbt.Executable>
rbdock ($Id: //depot/dev/client3/rdock/2013.1/src/exe/rbdock.cxx#4 $)

>  <Rbt.Library>
libRbt.so (2013.1, Build901 2013/11/27)

>  <Rbt.Parameter_File>
/export/apps/rDock/src/rDock_2013.1_src/data/scripts/dock_solv.prm

>  <Rbt.Receptor>
prm/blind_docking_20.prm

>  <SCORE>
-9.87678

>  <SCORE.INTER>
-12.3875

>  <SCORE.INTER.CONST>
1

>  <SCORE.INTER.POLAR>
0

>  <SCORE.INTER.ROT>
7

>  <SCORE.INTER.SOLV>
16.7051

>  <SCORE.INTER.VDW>
-22.0934

>  <SCORE.INTER.norm>
-0.458798

>  <SCORE.INTRA>
1.86207

>  <SCORE.INTRA.DIHEDRAL>
1.50546

>  <SCORE.INTRA.DIHEDRAL.0>
6.31833

>  <SCORE.INTRA.POLAR>
0

>  <SCORE.INTRA.POLAR.0>
0

>  <SCORE.INTRA.REPUL>
0

>  <SCORE.INTRA.REPUL.0>
0

>  <SCORE.INTRA.SOLV>
1.10058

>  <SCORE.INTRA.SOLV.lig_0>
-48.4015

>  <SCORE.INTRA.VDW>
0.559049

>  <SCORE.INTRA.VDW.0>
-2.83256

>  <SCORE.INTRA.norm>
0.0689654

>  <SCORE.RESTR>
0.648683

>  <SCORE.RESTR.CAVITY>
0.648683

>  <SCORE.RESTR.norm>
0.0240253

>  <SCORE.SYSTEM>
0

>  <SCORE.SYSTEM.CONST>
0

>  <SCORE.SYSTEM.DIHEDRAL>
0

>  <SCORE.SYSTEM.SOLV>
0

>  <SCORE.SYSTEM.norm>
0

>  <SCORE.heavy>
27

>  <SCORE.norm>
-0.365807

>  <RMSD>
18.350

$$$$
ligand
 OpenBabel02271912153D
libRbt.so/2013.1/901 2013/11/27
 27 29  0  0  0  0  0  0  0  0999 V2000
    9.4926   -2.1106   14.8915 N   0  0  0  0  0  0  0  0  0  0  0  0
    8.6846   -2.5538   16.0530 C   0  0  2  0  0  0  0  0  0  0  0  0
    7.3270   -3.0059   15.5308 C   0  0  0  0  0  0  0  0  0  0  0  0
    6.1878   -2.6810   16.0043 O   0  0  0  0  0  0  0  0  0  0  0  0
    8.5949   -1.4032   17.0578 C   0  0  0  0  0  0  0  0  0  0  0  0
    7.8834   -0.1813   16.4921 C   0  0  0  0  0  0  0  0  0  0  0  0
    7.8850    1.4551   17.3159 S   0  0  2  0  0  0  0  0  0  0  0  0
    7.0007    1.0088   18.8091 C   0  0  0  0  0  0  0  0  0  0  0  0
    6.6160    2.2624   16.2892 C   0  0  0  0  0  0  0  0  0  0  0  0
    6.4412    3.7088   16.6621 C   0  0  1  0  0  0  0  0  0  0  0  0
    7.6358    4.4918   16.4240 O   0  0  0  0  0  0  0  0  0  0  0  0
    5.3085    4.4036   15.9414 C   0  0  1  0  0  0  0  0  0  0  0  0
    4.2251    4.4136   16.7651 O   0  0  0  0  0  0  0  0  0  0  0  0
    5.8467    5.8144   15.8924 C   0  0  1  0  0  0  0  0  0  0  0  0
    5.5458    6.3626   17.0984 O   0  0  0  0  0  0  0  0  0  0  0  0
    7.3814    5.7000   15.7594 C   0  0  2  0  0  0  0  0  0  0  0  0
    7.3484   -3.8066   14.5944 O   0  0  0  0  0  0  0  0  0  0  0  0
    9.8032    2.8833   12.1021 N   0  0  0  0  0  0  0  0  0  0  0  0
    9.8038    2.8475   13.5371 C   0  0  0  0  0  0  0  0  0  0  0  0
    9.0816    3.6779   14.4297 N   0  0  0  0  0  0  0  0  0  0  0  0
    8.3635    4.5204   13.7986 C   0  0  0  0  0  0  0  0  0  0  0  0
    8.2891    4.6344   12.3248 C   0  0  0  0  0  0  0  0  0  0  0  0
    9.0006    3.8380   11.5164 C   0  0  0  0  0  0  0  0  0  0  0  0
    8.8567    4.0587   10.2258 N   0  0  0  0  0  0  0  0  0  0  0  0
    7.4885    5.5870   11.9104 N   0  0  0  0  0  0  0  0  0  0  0  0
    7.0539    6.0686   13.1316 C   0  0  0  0  0  0  0  0  0  0  0  0
    7.5852    5.4098   14.3142 N   0  0  0  0  0  0  0  0  0  0  0  0
  2  1  1  6  0  0  0
  2  3  1  0  0  0  0
  2  5  1  0  0  0  0
  3  4  1  0  0  0  0
  3 17  1  0  0  0  0
  5  6  1  0  0  0  0
  7  6  1  6  0  0  0
  7  8  1  0  0  0  0
  7  9  1  0  0  0  0
 10  9  1  6  0  0  0
 10 11  1  0  0  0  0
 10 12  1  0  0  0  0
 11 16  1  0  0  0  0
 12 13  1  1  0  0  0
 12 14  1  0  0  0  0
 14 15  1  1  0  0  0
 14 16  1  0  0  0  0
 16 27  1  6  0  0  0
 18 19  2  0  0  0  0
 18 23  1  0  0  0  0
 19 20  1  0  0  0  0
 20 21  2  0  0  0  0
 21 22  1  0  0  0  0
 21 27  1  0  0  0  0
 22 23  2  0  0  0  0
 22 25  1  0  0  0  0
 23 24  1  0  0  0  0
 25 26  2  0  0  0  0
 26 27  1  0  0  0  0
M  END
>  <CHROM.1>
-132.69989354,62.69344861,-168.21870623,-63.99538667,-175.96873989,63.49276620
-28.13306181,7.54807569,2.39345330,15.18134403,-1.42799644,1.05070655,-0.38496012

>  <Name>
ligand

>  <RI>
0

>  <Rbt.Current_Directory>
/home/itssahil/PROJECTS/Mol_Feturizer/Test_systems_manuscript/rnas/4aob

>  <Rbt.Executable>
rbdock ($Id: //depot/dev/client3/rdock/2013.1/src/exe/rbdock.cxx#4 $)

>  <Rbt.Library>
libRbt.so (2013.1, Build901 2013/11/27)

>  <Rbt.Parameter_File>
/export/apps/rDock/src/rDock_2013.1_src/data/scripts/dock_solv.prm

>  <Rbt.Receptor>
prm/blind_docking_20.prm

>  <SCORE>
-11.626

>  <SCORE.INTER>
-11.2962

>  <SCORE.INTER.CONST>
1

>  <SCORE.INTER.POLAR>
0

>  <SCORE.INTER.ROT>
7

>  <SCORE.INTER.SOLV>
14.3919

>  <SCORE.INTER.VDW>
-20.5948

>  <SCORE.INTER.norm>
-0.418379

>  <SCORE.INTRA>
-0.559248

>  <SCORE.INTRA.DIHEDRAL>
-2.25742

>  <SCORE.INTRA.DIHEDRAL.0>
6.31833

>  <SCORE.INTRA.POLAR>
0

>  <SCORE.INTRA.POLAR.0>
0

>  <SCORE.INTRA.REPUL>
0

>  <SCORE.INTRA.REPUL.0>
0

>  <SCORE.INTRA.SOLV>
-0.0720952

>  <SCORE.INTRA.SOLV.lig_0>
-48.4015

>  <SCORE.INTRA.VDW>
0.605508

>  <SCORE.INTRA.VDW.0>
-2.83256

>  <SCORE.INTRA.norm>
-0.0207129

>  <SCORE.RESTR>
0.229442

>  <SCORE.RESTR.CAVITY>
0.229442

>  <SCORE.RESTR.norm>
0.00849784

>  <SCORE.SYSTEM>
0

>  <SCORE.SYSTEM.CONST>
0

>  <SCORE.SYSTEM.DIHEDRAL>
0

>  <SCORE.SYSTEM.SOLV>
0

>  <SCORE.SYSTEM.norm>
0

>  <SCORE.heavy>
27

>  <SCORE.norm>
-0.430594

>  <RMSD>
18.358

$$$$
ligand
 OpenBabel02271912153D
libRbt.so/2013.1/901 2013/11/27
 27 29  0  0  0  0  0  0  0  0999 V2000
    0.7264   15.2616   14.2657 N   0  0  0  0  0  0  0  0  0  0  0  0
    1.2364   16.6373   14.4793 C   0  0  2  0  0  0  0  0  0  0  0  0
    0.7523   17.4989   13.3202 C   0  0  0  0  0  0  0  0  0  0  0  0
    1.3310   17.6450   12.1928 O   0  0  0  0  0  0  0  0  0  0  0  0
    2.7610   16.5838   14.5991 C   0  0  0  0  0  0  0  0  0  0  0  0
    3.2279   16.1054   15.9675 C   0  0  0  0  0  0  0  0  0  0  0  0
    4.9512   15.5930   16.3201 S   0  0  2  0  0  0  0  0  0  0  0  0
    4.8875   13.9372   15.6382 C   0  0  0  0  0  0  0  0  0  0  0  0
    4.7795   15.3267   18.1134 C   0  0  0  0  0  0  0  0  0  0  0  0
    5.8877   15.9947   18.8800 C   0  0  1  0  0  0  0  0  0  0  0  0
    5.8642   15.6656   20.2900 O   0  0  0  0  0  0  0  0  0  0  0  0
    7.2752   15.6704   18.3754 C   0  0  1  0  0  0  0  0  0  0  0  0
    7.6812   16.6884   17.5683 O   0  0  0  0  0  0  0  0  0  0  0  0
    8.0607   15.7783   19.6614 C   0  0  1  0  0  0  0  0  0  0  0  0
    8.3216   17.1019   19.8206 O   0  0  0  0  0  0  0  0  0  0  0  0
    7.1226   15.3094   20.7955 C   0  0  2  0  0  0  0  0  0  0  0  0
   -0.2697   18.1558   13.5264 O   0  0  0  0  0  0  0  0  0  0  0  0
    8.2011   10.7674   23.1155 N   0  0  0  0  0  0  0  0  0  0  0  0
    8.2004   12.1304   23.5660 C   0  0  0  0  0  0  0  0  0  0  0  0
    7.8733   13.2929   22.8247 N   0  0  0  0  0  0  0  0  0  0  0  0
    7.5409   13.0008   21.6298 C   0  0  0  0  0  0  0  0  0  0  0  0
    7.5043   11.6305   21.0716 C   0  0  0  0  0  0  0  0  0  0  0  0
    7.8358   10.5589   21.8034 C   0  0  0  0  0  0  0  0  0  0  0  0
    7.7792    9.4007   21.1786 N   0  0  0  0  0  0  0  0  0  0  0  0
    7.1415   11.5850   19.8119 N   0  0  0  0  0  0  0  0  0  0  0  0
    6.9437   12.9340   19.5815 C   0  0  0  0  0  0  0  0  0  0  0  0
    7.1821   13.8252   20.7056 N   0  0  0  0  0  0  0  0  0  0  0  0
  2  1  1  6  0  0  0
  2  3  1  0  0  0  0
  2  5  1  0  0  0  0
  3  4  1  0  0  0  0
  3 17  1  0  0  0  0
  5  6  1  0  0  0  0
  7  6  1  6  0  0  0
  7  8  1  0  0  0  0
  7  9  1  0  0  0  0
 10  9  1  6  0  0  0
 10 11  1  0  0  0  0
 10 12  1  0  0  0  0
 11 16  1  0  0  0  0
 12 13  1  6  0  0  0
 12 14  1  0  0  0  0
 14 15  1  1  0  0  0
 14 16  1  0  0  0  0
 16 27  1  6  0  0  0
 18 19  2  0  0  0  0
 18 23  1  0  0  0  0
 19 20  1  0  0  0  0
 20 21  2  0  0  0  0
 21 22  1  0  0  0  0
 21 27  1  0  0  0  0
 22 23  2  0  0  0  0
 22 25  1  0  0  0  0
 23 24  1  0  0  0  0
 25 26  2  0  0  0  0
 26 27  1  0  0  0  0
M  END
>  <CHROM.1>
-86.52621453,-78.04324902,166.56564200,-79.82103702,-131.90216045,-173.08779658
-131.55320216,5.49706250,14.73679996,18.28036978,2.45438737,-0.74159192,-0.34591317

>  <Name>
ligand

>  <RI>
0

>  <Rbt.Current_Directory>
/home/itssahil/PROJECTS/Mol_Feturizer/Test_systems_manuscript/rnas/4aob

>  <Rbt.Executable>
rbdock ($Id: //depot/dev/client3/rdock/2013.1/src/exe/rbdock.cxx#4 $)

>  <Rbt.Library>
libRbt.so (2013.1, Build901 2013/11/27)

>  <Rbt.Parameter_File>
/export/apps/rDock/src/rDock_2013.1_src/data/scripts/dock_solv.prm

>  <Rbt.Receptor>
prm/blind_docking_60.prm

>  <SCORE>
-14.5063

>  <SCORE.INTER>
-16.5469

>  <SCORE.INTER.CONST>
1

>  <SCORE.INTER.POLAR>
0

>  <SCORE.INTER.ROT>
7

>  <SCORE.INTER.SOLV>
14.4742

>  <SCORE.INTER.VDW>
-24.1226

>  <SCORE.INTER.norm>
-0.612847

>  <SCORE.INTRA>
2.04061

>  <SCORE.INTRA.DIHEDRAL>
3.56297

>  <SCORE.INTRA.DIHEDRAL.0>
6.31833

>  <SCORE.INTRA.POLAR>
0

>  <SCORE.INTRA.POLAR.0>
0

>  <SCORE.INTRA.REPUL>
0

>  <SCORE.INTRA.REPUL.0>
0

>  <SCORE.INTRA.SOLV>
0.0483065

>  <SCORE.INTRA.SOLV.lig_0>
-48.4015

>  <SCORE.INTRA.VDW>
0.234973

>  <SCORE.INTRA.VDW.0>
-2.83256

>  <SCORE.INTRA.norm>
0.0755782

>  <SCORE.RESTR>
0

>  <SCORE.RESTR.CAVITY>
0

>  <SCORE.RESTR.norm>
0

>  <SCORE.SYSTEM>
0

>  <SCORE.SYSTEM.CONST>
0

>  <SCORE.SYSTEM.DIHEDRAL>
0

>  <SCORE.SYSTEM.SOLV>
0

>  <SCORE.SYSTEM.norm>
0

>  <SCORE.heavy>
27

>  <SCORE.norm>
-0.537269

>  <RMSD>
18.498

$$$$
ligand
 OpenBabel02271912153D
libRbt.so/2013.1/901 2013/11/27
 27 29  0  0  0  0  0  0  0  0999 V2000
    0.4853   15.5287   14.4481 N   0  0  0  0  0  0  0  0  0  0  0  0
    1.2280   16.8119   14.4383 C   0  0  2  0  0  0  0  0  0  0  0  0
    0.8006   17.5881   13.1993 C   0  0  0  0  0  0  0  0  0  0  0  0
    1.4189   17.6336   12.0843 O   0  0  0  0  0  0  0  0  0  0  0  0
    2.7281   16.5125   14.4784 C   0  0  0  0  0  0  0  0  0  0  0  0
    3.2126   16.1154   15.8664 C   0  0  0  0  0  0  0  0  0  0  0  0
    4.9191   15.5449   16.2114 S   0  0  2  0  0  0  0  0  0  0  0  0
    4.7849   13.8792   15.5649 C   0  0  0  0  0  0  0  0  0  0  0  0
    4.7579   15.3221   18.0116 C   0  0  0  0  0  0  0  0  0  0  0  0
    5.8849   15.9861   18.7538 C   0  0  1  0  0  0  0  0  0  0  0  0
    5.7801   15.8180   20.1883 O   0  0  0  0  0  0  0  0  0  0  0  0
    7.2609   15.5048   18.3536 C   0  0  1  0  0  0  0  0  0  0  0  0
    7.7780   16.3937   17.4620 O   0  0  0  0  0  0  0  0  0  0  0  0
    8.0016   15.6954   19.6565 C   0  0  1  0  0  0  0  0  0  0  0  0
    8.3606   17.0053   19.6847 O   0  0  0  0  0  0  0  0  0  0  0  0
    6.9854   15.4268   20.7885 C   0  0  2  0  0  0  0  0  0  0  0  0
   -0.2132   18.2785   13.3181 O   0  0  0  0  0  0  0  0  0  0  0  0
    6.4959   11.1483   23.7261 N   0  0  0  0  0  0  0  0  0  0  0  0
    6.4361   12.5538   24.0115 C   0  0  0  0  0  0  0  0  0  0  0  0
    6.5793   13.6338   23.1054 N   0  0  0  0  0  0  0  0  0  0  0  0
    6.7695   13.2172   21.9162 C   0  0  0  0  0  0  0  0  0  0  0  0
    6.8418   11.7933   21.5188 C   0  0  0  0  0  0  0  0  0  0  0  0
    6.7156   10.8021   22.4107 C   0  0  0  0  0  0  0  0  0  0  0  0
    6.8199    9.5815   21.9268 N   0  0  0  0  0  0  0  0  0  0  0  0
    7.0573   11.6150   20.2373 N   0  0  0  0  0  0  0  0  0  0  0  0
    7.1140   12.9347   19.8286 C   0  0  0  0  0  0  0  0  0  0  0  0
    6.9299   13.9415   20.8616 N   0  0  0  0  0  0  0  0  0  0  0  0
  2  1  1  6  0  0  0
  2  3  1  0  0  0  0
  2  5  1  0  0  0  0
  3  4  1  0  0  0  0
  3 17  1  0  0  0  0
  5  6  1  0  0  0  0
  7  6  1  6  0  0  0
  7  8  1  0  0  0  0
  7  9  1  0  0  0  0
 10  9  1  6  0  0  0
 10 11  1  0  0  0  0
 10 12  1  0  0  0  0
 11 16  1  0  0  0  0
 12 13  1  6  0  0  0
 12 14  1  0  0  0  0
 14 15  1  1  0  0  0
 14 16  1  0  0  0  0
 16 27  1  6  0  0  0
 18 19  2  0  0  0  0
 18 23  1  0  0  0  0
 19 20  1  0  0  0  0
 20 21  2  0  0  0  0
 21 22  1  0  0  0  0
 21 27  1  0  0  0  0
 22 23  2  0  0  0  0
 22 25  1  0  0  0  0
 23 24  1  0  0  0  0
 25 26  2  0  0  0  0
 26 27  1  0  0  0  0
M  END
>  <CHROM.1>
-97.34390341,-76.98189028,174.08053336,-76.44165960,-130.78281864,-179.80060437
-108.08029297,5.19970227,14.80634855,18.36830582,2.21130111,-0.58214588,-0.68222162

>  <Name>
ligand

>  <RI>
0

>  <Rbt.Current_Directory>
/home/itssahil/PROJECTS/Mol_Feturizer/Test_systems_manuscript/rnas/4aob

>  <Rbt.Executable>
rbdock ($Id: //depot/dev/client3/rdock/2013.1/src/exe/rbdock.cxx#4 $)

>  <Rbt.Library>
libRbt.so (2013.1, Build901 2013/11/27)

>  <Rbt.Parameter_File>
/export/apps/rDock/src/rDock_2013.1_src/data/scripts/dock_solv.prm

>  <Rbt.Receptor>
prm/blind_docking_60.prm

>  <SCORE>
-15.9627

>  <SCORE.INTER>
-17.8032

>  <SCORE.INTER.CONST>
1

>  <SCORE.INTER.POLAR>
0

>  <SCORE.INTER.ROT>
7

>  <SCORE.INTER.SOLV>
15.3916

>  <SCORE.INTER.VDW>
-25.266

>  <SCORE.INTER.norm>
-0.659378

>  <SCORE.INTRA>
1.83889

>  <SCORE.INTRA.DIHEDRAL>
2.66963

>  <SCORE.INTRA.DIHEDRAL.0>
6.31833

>  <SCORE.INTRA.POLAR>
0

>  <SCORE.INTRA.POLAR.0>
0

>  <SCORE.INTRA.REPUL>
0

>  <SCORE.INTRA.REPUL.0>
0

>  <SCORE.INTRA.SOLV>
-0.0617493

>  <SCORE.INTRA.SOLV.lig_0>
-48.4015

>  <SCORE.INTRA.VDW>
0.534953

>  <SCORE.INTRA.VDW.0>
-2.83256

>  <SCORE.INTRA.norm>
0.0681071

>  <SCORE.RESTR>
0.00164825

>  <SCORE.RESTR.CAVITY>
0.00164825

>  <SCORE.RESTR.norm>
6.10461e-05

>  <SCORE.SYSTEM>
0

>  <SCORE.SYSTEM.CONST>
0

>  <SCORE.SYSTEM.DIHEDRAL>
0

>  <SCORE.SYSTEM.SOLV>
0

>  <SCORE.SYSTEM.norm>
0

>  <SCORE.heavy>
27

>  <SCORE.norm>
-0.59121

>  <RMSD>
18.632

$$$$
ligand
 OpenBabel02271912153D
libRbt.so/2013.1/901 2013/11/27
 27 29  0  0  0  0  0  0  0  0999 V2000
    7.3530   -3.0544   15.5781 N   0  0  0  0  0  0  0  0  0  0  0  0
    7.5564   -2.9913   17.0454 C   0  0  2  0  0  0  0  0  0  0  0  0
    6.1979   -3.1660   17.7120 C   0  0  0  0  0  0  0  0  0  0  0  0
    5.9729   -3.7271   18.8354 O   0  0  0  0  0  0  0  0  0  0  0  0
    8.2350   -1.6642   17.3915 C   0  0  0  0  0  0  0  0  0  0  0  0
    7.4446   -0.4551   16.9094 C   0  0  0  0  0  0  0  0  0  0  0  0
    7.9679    1.2746   17.2109 S   0  0  2  0  0  0  0  0  0  0  0  0
    7.6392    1.3554   18.9704 C   0  0  0  0  0  0  0  0  0  0  0  0
    6.5328    2.1122   16.4659 C   0  0  0  0  0  0  0  0  0  0  0  0
    6.4912    3.5699   16.8338 C   0  0  1  0  0  0  0  0  0  0  0  0
    7.6859    4.2796   16.4265 O   0  0  0  0  0  0  0  0  0  0  0  0
    5.3139    4.3227   16.2573 C   0  0  1  0  0  0  0  0  0  0  0  0
    4.3519    4.4038   17.2167 O   0  0  0  0  0  0  0  0  0  0  0  0
    5.9197    5.6992   16.1134 C   0  0  1  0  0  0  0  0  0  0  0  0
    5.8134    6.2754   17.3390 O   0  0  0  0  0  0  0  0  0  0  0  0
    7.4142    5.4941   15.7807 C   0  0  2  0  0  0  0  0  0  0  0  0
    5.2254   -2.7715   17.0663 O   0  0  0  0  0  0  0  0  0  0  0  0
    6.9199    7.1955   10.8781 N   0  0  0  0  0  0  0  0  0  0  0  0
    6.9313    7.8522   12.1544 C   0  0  0  0  0  0  0  0  0  0  0  0
    7.0849    7.2652   13.4350 N   0  0  0  0  0  0  0  0  0  0  0  0
    7.2364    6.0029   13.3496 C   0  0  0  0  0  0  0  0  0  0  0  0
    7.2450    5.2343   12.0848 C   0  0  0  0  0  0  0  0  0  0  0  0
    7.0816    5.8272   10.8950 C   0  0  0  0  0  0  0  0  0  0  0  0
    7.0900    5.0245    9.8507 N   0  0  0  0  0  0  0  0  0  0  0  0
    7.4053    3.9436   12.2544 N   0  0  0  0  0  0  0  0  0  0  0  0
    7.5039    3.9042   13.6331 C   0  0  0  0  0  0  0  0  0  0  0  0
    7.4073    5.1788   14.3264 N   0  0  0  0  0  0  0  0  0  0  0  0
  2  1  1  6  0  0  0
  2  3  1  0  0  0  0
  2  5  1  0  0  0  0
  3  4  1  0  0  0  0
  3 17  1  0  0  0  0
  5  6  1  0  0  0  0
  7  6  1  6  0  0  0
  7  8  1  0  0  0  0
  7  9  1  0  0  0  0
 10  9  1  6  0  0  0
 10 11  1  0  0  0  0
 10 12  1  0  0  0  0
 11 16  1  0  0  0  0
 12 13  1  1  0  0  0
 12 14  1  0  0  0  0
 14 15  1  1  0  0  0
 14 16  1  0  0  0  0
 16 27  1  6  0  0  0
 18 19  2  0  0  0  0
 18 23  1  0  0  0  0
 19 20  1  0  0  0  0
 20 21  2  0  0  0  0
 21 22  1  0  0  0  0
 21 27  1  0  0  0  0
 22 23  2  0  0  0  0
 22 25  1  0  0  0  0
 23 24  1  0  0  0  0
 25 26  2  0  0  0  0
 26 27  1  0  0  0  0
M  END
>  <CHROM.1>
147.59075759,57.04034641,178.21337245,-71.42219710,166.52739807,58.35700041
-177.85349489,6.87818941,2.74631365,15.45954569,-1.61642228,1.37214568,-0.47838183

>  <Name>
ligand

>  <RI>
0

>  <Rbt.Current_Directory>
/home/itssahil/PROJECTS/Mol_Feturizer/Test_systems_manuscript/rnas/4aob

>  <Rbt.Executable>
rbdock ($Id: //depot/dev/client3/rdock/2013.1/src/exe/rbdock.cxx#4 $)

>  <Rbt.Library>
libRbt.so (2013.1, Build901 2013/11/27)

>  <Rbt.Parameter_File>
/export/apps/rDock/src/rDock_2013.1_src/data/scripts/dock_solv.prm

>  <Rbt.Receptor>
prm/blind_docking_100.prm

>  <SCORE>
-16.1558

>  <SCORE.INTER>
-15.1263

>  <SCORE.INTER.CONST>
1

>  <SCORE.INTER.POLAR>
0

>  <SCORE.INTER.ROT>
7

>  <SCORE.INTER.SOLV>
15.349

>  <SCORE.INTER.VDW>
-23.4672

>  <SCORE.INTER.norm>
-0.560232

>  <SCORE.INTRA>
-1.02957

>  <SCORE.INTRA.DIHEDRAL>
-2.9511

>  <SCORE.INTRA.DIHEDRAL.0>
6.31833

>  <SCORE.INTRA.POLAR>
0

>  <SCORE.INTRA.POLAR.0>
0

>  <SCORE.INTRA.REPUL>
0

>  <SCORE.INTRA.REPUL.0>
0

>  <SCORE.INTRA.SOLV>
-0.0186088

>  <SCORE.INTRA.SOLV.lig_0>
-48.4015

>  <SCORE.INTRA.VDW>
0.455281

>  <SCORE.INTRA.VDW.0>
-2.83256

>  <SCORE.INTRA.norm>
-0.0381324

>  <SCORE.RESTR>
0

>  <SCORE.RESTR.CAVITY>
0

>  <SCORE.RESTR.norm>
0

>  <SCORE.SYSTEM>
0

>  <SCORE.SYSTEM.CONST>
0

>  <SCORE.SYSTEM.DIHEDRAL>
0

>  <SCORE.SYSTEM.SOLV>
0

>  <SCORE.SYSTEM.norm>
0

>  <SCORE.heavy>
27

>  <SCORE.norm>
-0.598365

>  <RMSD>
18.681

$$$$
ligand
 OpenBabel02271912153D
libRbt.so/2013.1/901 2013/11/27
 27 29  0  0  0  0  0  0  0  0999 V2000
    8.4906   -3.2406   14.7799 N   0  0  0  0  0  0  0  0  0  0  0  0
    8.4409   -2.5103   16.0693 C   0  0  2  0  0  0  0  0  0  0  0  0
    6.9760   -2.3217   16.4419 C   0  0  0  0  0  0  0  0  0  0  0  0
    6.3595   -2.8938   17.4011 O   0  0  0  0  0  0  0  0  0  0  0  0
    9.2022   -1.1916   15.9175 C   0  0  0  0  0  0  0  0  0  0  0  0
    9.5901   -0.5779   17.2562 C   0  0  0  0  0  0  0  0  0  0  0  0
    8.8200    0.9434   17.9266 S   0  0  2  0  0  0  0  0  0  0  0  0
    7.1385    0.3469   18.0919 C   0  0  0  0  0  0  0  0  0  0  0  0
    8.7828    1.9142   16.3863 C   0  0  0  0  0  0  0  0  0  0  0  0
    7.9918    3.1827   16.5515 C   0  0  1  0  0  0  0  0  0  0  0  0
    8.7291    4.3555   16.1298 O   0  0  0  0  0  0  0  0  0  0  0  0
    6.6776    3.1969   15.8048 C   0  0  1  0  0  0  0  0  0  0  0  0
    5.6889    2.8693   16.6809 O   0  0  0  0  0  0  0  0  0  0  0  0
    6.5486    4.6743   15.5162 C   0  0  1  0  0  0  0  0  0  0  0  0
    6.0262    5.2228   16.6439 O   0  0  0  0  0  0  0  0  0  0  0  0
    7.9815    5.2134   15.3105 C   0  0  2  0  0  0  0  0  0  0  0  0
    6.3219   -1.5844   15.7023 O   0  0  0  0  0  0  0  0  0  0  0  0
    7.5646    6.1944   10.2077 N   0  0  0  0  0  0  0  0  0  0  0  0
    7.1347    6.8931   11.3856 C   0  0  0  0  0  0  0  0  0  0  0  0
    7.3218    6.5169   12.7389 N   0  0  0  0  0  0  0  0  0  0  0  0
    7.9675    5.4221   12.8292 C   0  0  0  0  0  0  0  0  0  0  0  0
    8.4580    4.6305   11.6788 C   0  0  0  0  0  0  0  0  0  0  0  0
    8.2466    5.0150   10.4133 C   0  0  0  0  0  0  0  0  0  0  0  0
    8.7188    4.2087    9.4849 N   0  0  0  0  0  0  0  0  0  0  0  0
    9.0864    3.5326   12.0253 N   0  0  0  0  0  0  0  0  0  0  0  0
    8.9945    3.6402   13.4007 C   0  0  0  0  0  0  0  0  0  0  0  0
    8.3069    4.8141   13.9144 N   0  0  0  0  0  0  0  0  0  0  0  0
  2  1  1  6  0  0  0
  2  3  1  0  0  0  0
  2  5  1  0  0  0  0
  3  4  1  0  0  0  0
  3 17  1  0  0  0  0
  5  6  1  0  0  0  0
  7  6  1  6  0  0  0
  7  8  1  0  0  0  0
  7  9  1  0  0  0  0
 10  9  1  6  0  0  0
 10 11  1  0  0  0  0
 10 12  1  0  0  0  0
 11 16  1  0  0  0  0
 12 13  1  1  0  0  0
 12 14  1  0  0  0  0
 14 15  1  1  0  0  0
 14 16  1  0  0  0  0
 16 27  1  6  0  0  0
 18 19  2  0  0  0  0
 18 23  1  0  0  0  0
 19 20  1  0  0  0  0
 20 21  2  0  0  0  0
 21 22  1  0  0  0  0
 21 27  1  0  0  0  0
 22 23  2  0  0  0  0
 22 25  1  0  0  0  0
 23 24  1  0  0  0  0
 25 26  2  0  0  0  0
 26 27  1  0  0  0  0
M  END
>  <CHROM.1>
110.44485762,-161.91318340,-109.53756813,62.96762997,171.06208166,127.82604104
-171.63296997,7.84875614,2.38801202,14.94417160,-1.60530011,1.33561503,-0.58077592

>  <Name>
ligand

>  <RI>
0

>  <Rbt.Current_Directory>
/home/itssahil/PROJECTS/Mol_Feturizer/Test_systems_manuscript/rnas/4aob

>  <Rbt.Executable>
rbdock ($Id: //depot/dev/client3/rdock/2013.1/src/exe/rbdock.cxx#4 $)

>  <Rbt.Library>
libRbt.so (2013.1, Build901 2013/11/27)

>  <Rbt.Parameter_File>
/export/apps/rDock/src/rDock_2013.1_src/data/scripts/dock_solv.prm

>  <Rbt.Receptor>
prm/blind_docking_20.prm

>  <SCORE>
-6.52562

>  <SCORE.INTER>
-10.8876

>  <SCORE.INTER.CONST>
1

>  <SCORE.INTER.POLAR>
0

>  <SCORE.INTER.ROT>
7

>  <SCORE.INTER.SOLV>
14.7661

>  <SCORE.INTER.VDW>
-20.4471

>  <SCORE.INTER.norm>
-0.403243

>  <SCORE.INTRA>
4.01943

>  <SCORE.INTRA.DIHEDRAL>
8.39341

>  <SCORE.INTRA.DIHEDRAL.0>
6.31833

>  <SCORE.INTRA.POLAR>
0

>  <SCORE.INTRA.POLAR.0>
0

>  <SCORE.INTRA.REPUL>
0

>  <SCORE.INTRA.REPUL.0>
0

>  <SCORE.INTRA.SOLV>
-0.549822

>  <SCORE.INTRA.SOLV.lig_0>
-48.4015

>  <SCORE.INTRA.VDW>
0.0976348

>  <SCORE.INTRA.VDW.0>
-2.83256

>  <SCORE.INTRA.norm>
0.148868

>  <SCORE.RESTR>
0.342503

>  <SCORE.RESTR.CAVITY>
0.342503

>  <SCORE.RESTR.norm>
0.0126853

>  <SCORE.SYSTEM>
0

>  <SCORE.SYSTEM.CONST>
0

>  <SCORE.SYSTEM.DIHEDRAL>
0

>  <SCORE.SYSTEM.SOLV>
0

>  <SCORE.SYSTEM.norm>
0

>  <SCORE.heavy>
27

>  <SCORE.norm>
-0.24169

>  <RMSD>
18.730

$$$$
ligand
 OpenBabel02271912153D
libRbt.so/2013.1/901 2013/11/27
 27 29  0  0  0  0  0  0  0  0999 V2000
    9.0146   -3.5432   16.0504 N   0  0  0  0  0  0  0  0  0  0  0  0
    8.6558   -2.1316   15.7729 C   0  0  2  0  0  0  0  0  0  0  0  0
    9.9498   -1.3503   15.5849 C   0  0  0  0  0  0  0  0  0  0  0  0
   11.0075   -1.4572   16.2901 O   0  0  0  0  0  0  0  0  0  0  0  0
    7.7933   -1.6079   16.9233 C   0  0  0  0  0  0  0  0  0  0  0  0
    7.1471   -0.2648   16.6108 C   0  0  0  0  0  0  0  0  0  0  0  0
    8.0246    1.3355   16.7708 S   0  0  2  0  0  0  0  0  0  0  0  0
    8.0095    1.4766   18.5570 C   0  0  0  0  0  0  0  0  0  0  0  0
    6.6675    2.4282   16.2413 C   0  0  0  0  0  0  0  0  0  0  0  0
    7.0023    3.8764   16.4708 C   0  0  1  0  0  0  0  0  0  0  0  0
    8.2307    4.2730   15.8144 O   0  0  0  0  0  0  0  0  0  0  0  0
    5.9301    4.8411   16.0183 C   0  0  1  0  0  0  0  0  0  0  0  0
    5.1905    5.1928   17.1053 O   0  0  0  0  0  0  0  0  0  0  0  0
    6.7804    6.0344   15.6503 C   0  0  1  0  0  0  0  0  0  0  0  0
    7.0153    6.6897   16.8169 O   0  0  0  0  0  0  0  0  0  0  0  0
    8.1152    5.4781   15.1070 C   0  0  2  0  0  0  0  0  0  0  0  0
    9.9402   -0.4964   14.6965 O   0  0  0  0  0  0  0  0  0  0  0  0
    6.5297    6.9289   10.3577 N   0  0  0  0  0  0  0  0  0  0  0  0
    6.8202    7.6499   11.5645 C   0  0  0  0  0  0  0  0  0  0  0  0
    7.2592    7.1285   12.8067 N   0  0  0  0  0  0  0  0  0  0  0  0
    7.3970    5.8628   12.7539 C   0  0  0  0  0  0  0  0  0  0  0  0
    7.1294    5.0306   11.5597 C   0  0  0  0  0  0  0  0  0  0  0  0
    6.7010    5.5626   10.4076 C   0  0  0  0  0  0  0  0  0  0  0  0
    6.4825    4.7076    9.4298 N   0  0  0  0  0  0  0  0  0  0  0  0
    7.3327    3.7496   11.7546 N   0  0  0  0  0  0  0  0  0  0  0  0
    7.7361    3.7802   13.0769 C   0  0  0  0  0  0  0  0  0  0  0  0
    7.7870    5.0889   13.7087 N   0  0  0  0  0  0  0  0  0  0  0  0
  2  1  1  1  0  0  0
  2  3  1  0  0  0  0
  2  5  1  0  0  0  0
  3  4  1  0  0  0  0
  3 17  1  0  0  0  0
  5  6  1  0  0  0  0
  7  6  1  1  0  0  0
  7  8  1  0  0  0  0
  7  9  1  0  0  0  0
 10  9  1  6  0  0  0
 10 11  1  0  0  0  0
 10 12  1  0  0  0  0
 11 16  1  0  0  0  0
 12 13  1  1  0  0  0
 12 14  1  0  0  0  0
 14 15  1  1  0  0  0
 14 16  1  0  0  0  0
 16 27  1  6  0  0  0
 18 19  2  0  0  0  0
 18 23  1  0  0  0  0
 19 20  1  0  0  0  0
 20 21  2  0  0  0  0
 21 22  1  0  0  0  0
 21 27  1  0  0  0  0
 22 23  2  0  0  0  0
 22 25  1  0  0  0  0
 23 24  1  0  0  0  0
 25 26  2  0  0  0  0
 26 27  1  0  0  0  0
M  END
>  <CHROM.1>
-42.47835968,-168.74247890,-81.20674447,-74.92422636,170.84681385,56.27627760
168.85895146,7.65720058,3.05189023,14.78928658,-0.78978780,1.22532064,-1.25912395

>  <Name>
ligand

>  <RI>
0

>  <Rbt.Current_Directory>
/home/itssahil/PROJECTS/Mol_Feturizer/Test_systems_manuscript/rnas/4aob

>  <Rbt.Executable>
rbdock ($Id: //depot/dev/client3/rdock/2013.1/src/exe/rbdock.cxx#4 $)

>  <Rbt.Library>
libRbt.so (2013.1, Build901 2013/11/27)

>  <Rbt.Parameter_File>
/export/apps/rDock/src/rDock_2013.1_src/data/scripts/dock_solv.prm

>  <Rbt.Receptor>
prm/blind_docking_20.prm

>  <SCORE>
-12.6858

>  <SCORE.INTER>
-11.631

>  <SCORE.INTER.CONST>
1

>  <SCORE.INTER.POLAR>
0

>  <SCORE.INTER.ROT>
7

>  <SCORE.INTER.SOLV>
14.649

>  <SCORE.INTER.VDW>
-20.9037

>  <SCORE.INTER.norm>
-0.43078

>  <SCORE.INTRA>
-1.54171

>  <SCORE.INTRA.DIHEDRAL>
-0.998908

>  <SCORE.INTRA.DIHEDRAL.0>
6.31833

>  <SCORE.INTRA.POLAR>
0

>  <SCORE.INTRA.POLAR.0>
0

>  <SCORE.INTRA.REPUL>
0

>  <SCORE.INTRA.REPUL.0>
0

>  <SCORE.INTRA.SOLV>
-0.715244

>  <SCORE.INTRA.SOLV.lig_0>
-48.4015

>  <SCORE.INTRA.VDW>
-0.684635

>  <SCORE.INTRA.VDW.0>
-2.83256

>  <SCORE.INTRA.norm>
-0.0571004

>  <SCORE.RESTR>
0.487008

>  <SCORE.RESTR.CAVITY>
0.487008

>  <SCORE.RESTR.norm>
0.0180373

>  <SCORE.SYSTEM>
0

>  <SCORE.SYSTEM.CONST>
0

>  <SCORE.SYSTEM.DIHEDRAL>
0

>  <SCORE.SYSTEM.SOLV>
0

>  <SCORE.SYSTEM.norm>
0

>  <SCORE.heavy>
27

>  <SCORE.norm>
-0.469843

>  <RMSD>
18.806

$$$$
ligand
 OpenBabel02271912153D
libRbt.so/2013.1/901 2013/11/27
 27 29  0  0  0  0  0  0  0  0999 V2000
    8.0673   -2.7558   17.8012 N   0  0  0  0  0  0  0  0  0  0  0  0
    6.8582   -1.9871   17.4200 C   0  0  2  0  0  0  0  0  0  0  0  0
    5.7835   -2.9841   17.0061 C   0  0  0  0  0  0  0  0  0  0  0  0
    5.8609   -3.8274   16.0520 O   0  0  0  0  0  0  0  0  0  0  0  0
    7.2310   -1.0022   16.3097 C   0  0  0  0  0  0  0  0  0  0  0  0
    8.3463   -0.0490   16.7179 C   0  0  0  0  0  0  0  0  0  0  0  0
    8.0479    1.5341   17.5905 S   0  0  2  0  0  0  0  0  0  0  0  0
    7.0417    0.9162   18.9383 C   0  0  0  0  0  0  0  0  0  0  0  0
    6.8315    2.2409   16.4342 C   0  0  0  0  0  0  0  0  0  0  0  0
    6.5581    3.6887   16.7363 C   0  0  1  0  0  0  0  0  0  0  0  0
    7.6470    4.5548   16.3348 O   0  0  0  0  0  0  0  0  0  0  0  0
    5.3032    4.2315   16.0916 C   0  0  1  0  0  0  0  0  0  0  0  0
    4.3053    4.2031   17.0167 O   0  0  0  0  0  0  0  0  0  0  0  0
    5.7005    5.6772   15.9059 C   0  0  1  0  0  0  0  0  0  0  0  0
    5.4638    6.2778   17.1013 O   0  0  0  0  0  0  0  0  0  0  0  0
    7.2200    5.6882   15.6283 C   0  0  2  0  0  0  0  0  0  0  0  0
    4.7208   -2.9205   17.6267 O   0  0  0  0  0  0  0  0  0  0  0  0
    6.8987    7.1716   10.6413 N   0  0  0  0  0  0  0  0  0  0  0  0
    6.7983    7.8747   11.8887 C   0  0  0  0  0  0  0  0  0  0  0  0
    6.9153    7.3466   13.1984 N   0  0  0  0  0  0  0  0  0  0  0  0
    7.1482    6.0940   13.1725 C   0  0  0  0  0  0  0  0  0  0  0  0
    7.2747    5.2811   11.9423 C   0  0  0  0  0  0  0  0  0  0  0  0
    7.1425    5.8179   10.7223 C   0  0  0  0  0  0  0  0  0  0  0  0
    7.2584    4.9791    9.7134 N   0  0  0  0  0  0  0  0  0  0  0  0
    7.5037    4.0103   12.1725 N   0  0  0  0  0  0  0  0  0  0  0  0
    7.5270    4.0284   13.5549 C   0  0  0  0  0  0  0  0  0  0  0  0
    7.3140    5.3192   14.1898 N   0  0  0  0  0  0  0  0  0  0  0  0
  2  1  1  6  0  0  0
  2  3  1  0  0  0  0
  2  5  1  0  0  0  0
  3  4  1  0  0  0  0
  3 17  1  0  0  0  0
  5  6  1  0  0  0  0
  7  6  1  6  0  0  0
  7  8  1  0  0  0  0
  7  9  1  0  0  0  0
 10  9  1  6  0  0  0
 10 11  1  0  0  0  0
 10 12  1  0  0  0  0
 11 16  1  0  0  0  0
 12 13  1  1  0  0  0
 12 14  1  0  0  0  0
 14 15  1  1  0  0  0
 14 16  1  0  0  0  0
 16 27  1  6  0  0  0
 18 19  2  0  0  0  0
 18 23  1  0  0  0  0
 19 20  1  0  0  0  0
 20 21  2  0  0  0  0
 21 22  1  0  0  0  0
 21 27  1  0  0  0  0
 22 23  2  0  0  0  0
 22 25  1  0  0  0  0
 23 24  1  0  0  0  0
 25 26  2  0  0  0  0
 26 27  1  0  0  0  0
M  END
>  <CHROM.1>
-60.16920794,-57.74147988,-86.90817213,51.97540530,-169.40720131,74.12309721
-172.60000325,6.79944566,2.85944786,15.32406456,-1.73795564,1.40764066,-0.37395263

>  <Name>
ligand

>  <RI>
0

>  <Rbt.Current_Directory>
/home/itssahil/PROJECTS/Mol_Feturizer/Test_systems_manuscript/rnas/4aob

>  <Rbt.Executable>
rbdock ($Id: //depot/dev/client3/rdock/2013.1/src/exe/rbdock.cxx#4 $)

>  <Rbt.Library>
libRbt.so (2013.1, Build901 2013/11/27)

>  <Rbt.Parameter_File>
/export/apps/rDock/src/rDock_2013.1_src/data/scripts/dock_solv.prm

>  <Rbt.Receptor>
prm/blind_docking_20.prm

>  <SCORE>
-15.762

>  <SCORE.INTER>
-17.26

>  <SCORE.INTER.CONST>
1

>  <SCORE.INTER.POLAR>
0

>  <SCORE.INTER.ROT>
7

>  <SCORE.INTER.SOLV>
14.0257

>  <SCORE.INTER.VDW>
-24.4486

>  <SCORE.INTER.norm>
-0.639259

>  <SCORE.INTRA>
1.09892

>  <SCORE.INTRA.DIHEDRAL>
0.811188

>  <SCORE.INTRA.DIHEDRAL.0>
6.31833

>  <SCORE.INTRA.POLAR>
0

>  <SCORE.INTRA.POLAR.0>
0

>  <SCORE.INTRA.REPUL>
0

>  <SCORE.INTRA.REPUL.0>
0

>  <SCORE.INTRA.SOLV>
0.72208

>  <SCORE.INTRA.SOLV.lig_0>
-48.4015

>  <SCORE.INTRA.VDW>
0.332282

>  <SCORE.INTRA.VDW.0>
-2.83256

>  <SCORE.INTRA.norm>
0.0407006

>  <SCORE.RESTR>
0.399105

>  <SCORE.RESTR.CAVITY>
0.399105

>  <SCORE.RESTR.norm>
0.0147817

>  <SCORE.SYSTEM>
0

>  <SCORE.SYSTEM.CONST>
0

>  <SCORE.SYSTEM.DIHEDRAL>
0

>  <SCORE.SYSTEM.SOLV>
0

>  <SCORE.SYSTEM.norm>
0

>  <SCORE.heavy>
27

>  <SCORE.norm>
-0.583777

>  <RMSD>
18.812

$$$$
ligand
 OpenBabel02271912153D
libRbt.so/2013.1/901 2013/11/27
 27 29  0  0  0  0  0  0  0  0999 V2000
    6.2365   -3.4263   15.9718 N   0  0  0  0  0  0  0  0  0  0  0  0
    7.2846   -2.4081   15.7206 C   0  0  2  0  0  0  0  0  0  0  0  0
    8.6396   -3.0892   15.8634 C   0  0  0  0  0  0  0  0  0  0  0  0
    8.9010   -4.1107   16.5814 O   0  0  0  0  0  0  0  0  0  0  0  0
    7.0849   -1.2456   16.6955 C   0  0  0  0  0  0  0  0  0  0  0  0
    8.1667   -0.1809   16.5721 C   0  0  0  0  0  0  0  0  0  0  0  0
    8.0555    1.4640   17.3712 S   0  0  2  0  0  0  0  0  0  0  0  0
    7.2952    0.9654   18.9152 C   0  0  0  0  0  0  0  0  0  0  0  0
    6.6647    2.1286   16.4015 C   0  0  0  0  0  0  0  0  0  0  0  0
    6.4144    3.5779   16.7158 C   0  0  1  0  0  0  0  0  0  0  0  0
    7.5185    4.4295   16.3248 O   0  0  0  0  0  0  0  0  0  0  0  0
    5.1703    4.1471   16.0729 C   0  0  1  0  0  0  0  0  0  0  0  0
    4.1697    4.1269   16.9952 O   0  0  0  0  0  0  0  0  0  0  0  0
    5.5919    5.5877   15.9011 C   0  0  1  0  0  0  0  0  0  0  0  0
    5.3620    6.1815   17.1011 O   0  0  0  0  0  0  0  0  0  0  0  0
    7.1121    5.5760   15.6274 C   0  0  2  0  0  0  0  0  0  0  0  0
    9.5763   -2.5576   15.2648 O   0  0  0  0  0  0  0  0  0  0  0  0
    6.8218    7.1072   10.6529 N   0  0  0  0  0  0  0  0  0  0  0  0
    6.7289    7.8008   11.9062 C   0  0  0  0  0  0  0  0  0  0  0  0
    6.8358    7.2596   13.2115 N   0  0  0  0  0  0  0  0  0  0  0  0
    7.0510    6.0042   13.1751 C   0  0  0  0  0  0  0  0  0  0  0  0
    7.1686    5.2003   11.9380 C   0  0  0  0  0  0  0  0  0  0  0  0
    7.0464    5.7496   10.7225 C   0  0  0  0  0  0  0  0  0  0  0  0
    7.1526    4.9181    9.7066 N   0  0  0  0  0  0  0  0  0  0  0  0
    7.3792    3.9245   12.1575 N   0  0  0  0  0  0  0  0  0  0  0  0
    7.4000    3.9302   13.5401 C   0  0  0  0  0  0  0  0  0  0  0  0
    7.2038    5.2183   14.1858 N   0  0  0  0  0  0  0  0  0  0  0  0
  2  1  1  1  0  0  0
  2  3  1  0  0  0  0
  2  5  1  0  0  0  0
  3  4  1  0  0  0  0
  3 17  1  0  0  0  0
  5  6  1  0  0  0  0
  7  6  1  6  0  0  0
  7  8  1  0  0  0  0
  7  9  1  0  0  0  0
 10  9  1  6  0  0  0
 10 11  1  0  0  0  0
 10 12  1  0  0  0  0
 11 16  1  0  0  0  0
 12 13  1  1  0  0  0
 12 14  1  0  0  0  0
 14 15  1  1  0  0  0
 14 16  1  0  0  0  0
 16 27  1  6  0  0  0
 18 19  2  0  0  0  0
 18 23  1  0  0  0  0
 19 20  1  0  0  0  0
 20 21  2  0  0  0  0
 21 22  1  0  0  0  0
 21 27  1  0  0  0  0
 22 23  2  0  0  0  0
 22 25  1  0  0  0  0
 23 24  1  0  0  0  0
 25 26  2  0  0  0  0
 26 27  1  0  0  0  0
M  END
>  <CHROM.1>
-27.19439374,176.58399979,168.59029157,38.19368110,-173.29737203,64.87079553
-172.74197386,7.08761786,2.74758437,15.07724346,-1.14524533,1.21796641,-0.83060000

>  <Name>
ligand

>  <RI>
0

>  <Rbt.Current_Directory>
/home/itssahil/PROJECTS/Mol_Feturizer/Test_systems_manuscript/rnas/4aob

>  <Rbt.Executable>
rbdock ($Id: //depot/dev/client3/rdock/2013.1/src/exe/rbdock.cxx#4 $)

>  <Rbt.Library>
libRbt.so (2013.1, Build901 2013/11/27)

>  <Rbt.Parameter_File>
/export/apps/rDock/src/rDock_2013.1_src/data/scripts/dock_solv.prm

>  <Rbt.Receptor>
prm/blind_docking_20.prm

>  <SCORE>
-11.8874

>  <SCORE.INTER>
-11.9608

>  <SCORE.INTER.CONST>
1

>  <SCORE.INTER.POLAR>
0

>  <SCORE.INTER.ROT>
7

>  <SCORE.INTER.SOLV>
20.3565

>  <SCORE.INTER.VDW>
-23.026

>  <SCORE.INTER.norm>
-0.442992

>  <SCORE.INTRA>
-0.407226

>  <SCORE.INTRA.DIHEDRAL>
-1.44715

>  <SCORE.INTRA.DIHEDRAL.0>
6.31833

>  <SCORE.INTRA.POLAR>
0

>  <SCORE.INTRA.POLAR.0>
0

>  <SCORE.INTRA.REPUL>
0

>  <SCORE.INTRA.REPUL.0>
0

>  <SCORE.INTRA.SOLV>
-0.85921

>  <SCORE.INTRA.SOLV.lig_0>
-48.4015

>  <SCORE.INTRA.VDW>
0.745956

>  <SCORE.INTRA.VDW.0>
-2.83256

>  <SCORE.INTRA.norm>
-0.0150824

>  <SCORE.RESTR>
0.480569

>  <SCORE.RESTR.CAVITY>
0.480569

>  <SCORE.RESTR.norm>
0.0177988

>  <SCORE.SYSTEM>
0

>  <SCORE.SYSTEM.CONST>
0

>  <SCORE.SYSTEM.DIHEDRAL>
0

>  <SCORE.SYSTEM.SOLV>
0

>  <SCORE.SYSTEM.norm>
0

>  <SCORE.heavy>
27

>  <SCORE.norm>
-0.440275

>  <RMSD>
18.853

$$$$
ligand
 OpenBabel02271912153D
libRbt.so/2013.1/901 2013/11/27
 27 29  0  0  0  0  0  0  0  0999 V2000
    5.6931   -3.1272   17.7808 N   0  0  0  0  0  0  0  0  0  0  0  0
    6.4609   -2.3494   16.7789 C   0  0  2  0  0  0  0  0  0  0  0  0
    7.4772   -3.2872   16.1402 C   0  0  0  0  0  0  0  0  0  0  0  0
    8.2021   -3.0364   15.1208 O   0  0  0  0  0  0  0  0  0  0  0  0
    7.1004   -1.1461   17.4750 C   0  0  0  0  0  0  0  0  0  0  0  0
    7.9468   -0.3013   16.5320 C   0  0  0  0  0  0  0  0  0  0  0  0
    8.2689    1.4831   16.7947 S   0  0  2  0  0  0  0  0  0  0  0  0
    8.2989    1.4932   18.5862 C   0  0  0  0  0  0  0  0  0  0  0  0
    6.6073    2.1079   16.3886 C   0  0  0  0  0  0  0  0  0  0  0  0
    6.4758    3.5730   16.7022 C   0  0  1  0  0  0  0  0  0  0  0  0
    7.6234    4.3397   16.2640 O   0  0  0  0  0  0  0  0  0  0  0  0
    5.2530    4.2292   16.1027 C   0  0  1  0  0  0  0  0  0  0  0  0
    4.2895    4.2862   17.0622 O   0  0  0  0  0  0  0  0  0  0  0  0
    5.7719    5.6343   15.9053 C   0  0  1  0  0  0  0  0  0  0  0  0
    5.6320    6.2482   17.1090 O   0  0  0  0  0  0  0  0  0  0  0  0
    7.2756    5.5101   15.5745 C   0  0  2  0  0  0  0  0  0  0  0  0
    7.5562   -4.4137   16.6333 O   0  0  0  0  0  0  0  0  0  0  0  0
    6.5706    6.9683   10.6196 N   0  0  0  0  0  0  0  0  0  0  0  0
    6.5297    7.6708   11.8707 C   0  0  0  0  0  0  0  0  0  0  0  0
    6.7521    7.1505   13.1698 N   0  0  0  0  0  0  0  0  0  0  0  0
    7.0259    5.9067   13.1289 C   0  0  0  0  0  0  0  0  0  0  0  0
    7.0978    5.0953   11.8932 C   0  0  0  0  0  0  0  0  0  0  0  0
    6.8659    5.6240   10.6846 C   0  0  0  0  0  0  0  0  0  0  0  0
    6.9430    4.7870    9.6705 N   0  0  0  0  0  0  0  0  0  0  0  0
    7.3855    3.8338   12.1080 N   0  0  0  0  0  0  0  0  0  0  0  0
    7.5005    3.8563   13.4857 C   0  0  0  0  0  0  0  0  0  0  0  0
    7.2860    5.1407   14.1330 N   0  0  0  0  0  0  0  0  0  0  0  0
  2  1  1  1  0  0  0
  2  3  1  0  0  0  0
  2  5  1  0  0  0  0
  3  4  1  0  0  0  0
  3 17  1  0  0  0  0
  5  6  1  0  0  0  0
  7  6  1  1  0  0  0
  7  8  1  0  0  0  0
  7  9  1  0  0  0  0
 10  9  1  6  0  0  0
 10 11  1  0  0  0  0
 10 12  1  0  0  0  0
 11 16  1  0  0  0  0
 12 13  1  1  0  0  0
 12 14  1  0  0  0  0
 14 15  1  1  0  0  0
 14 16  1  0  0  0  0
 16 27  1  6  0  0  0
 18 19  2  0  0  0  0
 18 23  1  0  0  0  0
 19 20  1  0  0  0  0
 20 21  2  0  0  0  0
 21 22  1  0  0  0  0
 21 27  1  0  0  0  0
 22 23  2  0  0  0  0
 22 25  1  0  0  0  0
 23 24  1  0  0  0  0
 25 26  2  0  0  0  0
 26 27  1  0  0  0  0
M  END
>  <CHROM.1>
170.44952469,178.41199487,153.91289676,33.34536653,171.76089020,44.28979508
-179.96502524,6.94886183,2.71404690,15.13337042,1.24500523,-1.34921033,2.35298823

>  <Name>
ligand

>  <RI>
0

>  <Rbt.Current_Directory>
/home/itssahil/PROJECTS/Mol_Feturizer/Test_systems_manuscript/rnas/4aob

>  <Rbt.Executable>
rbdock ($Id: //depot/dev/client3/rdock/2013.1/src/exe/rbdock.cxx#4 $)

>  <Rbt.Library>
libRbt.so (2013.1, Build901 2013/11/27)

>  <Rbt.Parameter_File>
/export/apps/rDock/src/rDock_2013.1_src/data/scripts/dock_solv.prm

>  <Rbt.Receptor>
prm/blind_docking_20.prm

>  <SCORE>
-12.0278

>  <SCORE.INTER>
-14.1237

>  <SCORE.INTER.CONST>
1

>  <SCORE.INTER.POLAR>
0

>  <SCORE.INTER.ROT>
7

>  <SCORE.INTER.SOLV>
18.454

>  <SCORE.INTER.VDW>
-23.8338

>  <SCORE.INTER.norm>
-0.523099

>  <SCORE.INTRA>
1.48597

>  <SCORE.INTRA.DIHEDRAL>
0.939219

>  <SCORE.INTRA.DIHEDRAL.0>
6.31833

>  <SCORE.INTRA.POLAR>
0

>  <SCORE.INTRA.POLAR.0>
0

>  <SCORE.INTRA.REPUL>
0

>  <SCORE.INTRA.REPUL.0>
0

>  <SCORE.INTRA.SOLV>
-0.700671

>  <SCORE.INTRA.SOLV.lig_0>
-48.4015

>  <SCORE.INTRA.VDW>
1.3667

>  <SCORE.INTRA.VDW.0>
-2.83256

>  <SCORE.INTRA.norm>
0.055036

>  <SCORE.RESTR>
0.609871

>  <SCORE.RESTR.CAVITY>
0.609871

>  <SCORE.RESTR.norm>
0.0225878

>  <SCORE.SYSTEM>
0

>  <SCORE.SYSTEM.CONST>
0

>  <SCORE.SYSTEM.DIHEDRAL>
0

>  <SCORE.SYSTEM.SOLV>
0

>  <SCORE.SYSTEM.norm>
0

>  <SCORE.heavy>
27

>  <SCORE.norm>
-0.445475

>  <RMSD>
18.855

$$$$
ligand
 OpenBabel02271912153D
libRbt.so/2013.1/901 2013/11/27
 27 29  0  0  0  0  0  0  0  0999 V2000
    7.9953   -2.6150   15.1948 N   0  0  0  0  0  0  0  0  0  0  0  0
    7.5986   -2.4063   16.6081 C   0  0  2  0  0  0  0  0  0  0  0  0
    6.4167   -3.3217   16.9004 C   0  0  0  0  0  0  0  0  0  0  0  0
    5.2046   -2.9618   17.0693 O   0  0  0  0  0  0  0  0  0  0  0  0
    7.2828   -0.9236   16.8167 C   0  0  0  0  0  0  0  0  0  0  0  0
    8.5034   -0.0306   16.6386 C   0  0  0  0  0  0  0  0  0  0  0  0
    8.5475    1.7275   17.1523 S   0  0  2  0  0  0  0  0  0  0  0  0
    8.1631    1.5130   18.8892 C   0  0  0  0  0  0  0  0  0  0  0  0
    6.9631    2.2497   16.4221 C   0  0  0  0  0  0  0  0  0  0  0  0
    6.6651    3.6929   16.7224 C   0  0  1  0  0  0  0  0  0  0  0  0
    7.7138    4.5824   16.2684 O   0  0  0  0  0  0  0  0  0  0  0  0
    5.3711    4.1972   16.1254 C   0  0  1  0  0  0  0  0  0  0  0  0
    4.4132    4.1527   17.0913 O   0  0  0  0  0  0  0  0  0  0  0  0
    5.7229    5.6507   15.9105 C   0  0  1  0  0  0  0  0  0  0  0  0
    5.5203    6.2570   17.1092 O   0  0  0  0  0  0  0  0  0  0  0  0
    7.2289    5.6975   15.5701 C   0  0  2  0  0  0  0  0  0  0  0  0
    6.6817   -4.5171   17.0391 O   0  0  0  0  0  0  0  0  0  0  0  0
    6.7262    7.1379   10.5854 N   0  0  0  0  0  0  0  0  0  0  0  0
    6.6678    7.8511   11.8297 C   0  0  0  0  0  0  0  0  0  0  0  0
    6.8329    7.3344   13.1388 N   0  0  0  0  0  0  0  0  0  0  0  0
    7.0688    6.0824   13.1151 C   0  0  0  0  0  0  0  0  0  0  0  0
    7.1542    5.2595   11.8879 C   0  0  0  0  0  0  0  0  0  0  0  0
    6.9771    5.7856   10.6690 C   0  0  0  0  0  0  0  0  0  0  0  0
    7.0599    4.9387    9.6636 N   0  0  0  0  0  0  0  0  0  0  0  0
    7.3954    3.9914   12.1204 N   0  0  0  0  0  0  0  0  0  0  0  0
    7.4677    4.0212   13.5010 C   0  0  0  0  0  0  0  0  0  0  0  0
    7.2731    5.3167   14.1322 N   0  0  0  0  0  0  0  0  0  0  0  0
  2  1  1  6  0  0  0
  2  3  1  0  0  0  0
  2  5  1  0  0  0  0
  3  4  1  0  0  0  0
  3 17  1  0  0  0  0
  5  6  1  0  0  0  0
  7  6  1  6  0  0  0
  7  8  1  0  0  0  0
  7  9  1  0  0  0  0
 10  9  1  6  0  0  0
 10 11  1  0  0  0  0
 10 12  1  0  0  0  0
 11 16  1  0  0  0  0
 12 13  1  1  0  0  0
 12 14  1  0  0  0  0
 14 15  1  1  0  0  0
 14 16  1  0  0  0  0
 16 27  1  6  0  0  0
 18 19  2  0  0  0  0
 18 23  1  0  0  0  0
 19 20  1  0  0  0  0
 20 21  2  0  0  0  0
 21 22  1  0  0  0  0
 21 27  1  0  0  0  0
 22 23  2  0  0  0  0
 22 25  1  0  0  0  0
 23 24  1  0  0  0  0
 25 26  2  0  0  0  0
 26 27  1  0  0  0  0
M  END
>  <CHROM.1>
-108.14387619,-65.09413102,-166.90110417,57.90733257,177.79765218,56.89526264
-171.26413645,6.96860848,2.84264786,15.17600948,-1.31962895,1.43018686,-0.73575396

>  <Name>
ligand

>  <RI>
0

>  <Rbt.Current_Directory>
/home/itssahil/PROJECTS/Mol_Feturizer/Test_systems_manuscript/rnas/4aob

>  <Rbt.Executable>
rbdock ($Id: //depot/dev/client3/rdock/2013.1/src/exe/rbdock.cxx#4 $)

>  <Rbt.Library>
libRbt.so (2013.1, Build901 2013/11/27)

>  <Rbt.Parameter_File>
/export/apps/rDock/src/rDock_2013.1_src/data/scripts/dock_solv.prm

>  <Rbt.Receptor>
prm/blind_docking_20.prm

>  <SCORE>
-15.408

>  <SCORE.INTER>
-15.6345

>  <SCORE.INTER.CONST>
1

>  <SCORE.INTER.POLAR>
0

>  <SCORE.INTER.ROT>
7

>  <SCORE.INTER.SOLV>
16.8229

>  <SCORE.INTER.VDW>
-24.2973

>  <SCORE.INTER.norm>
-0.579056

>  <SCORE.INTRA>
-0.620342

>  <SCORE.INTRA.DIHEDRAL>
-2.18436

>  <SCORE.INTRA.DIHEDRAL.0>
6.31833

>  <SCORE.INTRA.POLAR>
0

>  <SCORE.INTRA.POLAR.0>
0

>  <SCORE.INTRA.REPUL>
0

>  <SCORE.INTRA.REPUL.0>
0

>  <SCORE.INTRA.SOLV>
-0.149472

>  <SCORE.INTRA.SOLV.lig_0>
-48.4015

>  <SCORE.INTRA.VDW>
0.546576

>  <SCORE.INTRA.VDW.0>
-2.83256

>  <SCORE.INTRA.norm>
-0.0229756

>  <SCORE.RESTR>
0.84681

>  <SCORE.RESTR.CAVITY>
0.84681

>  <SCORE.RESTR.norm>
0.0313633

>  <SCORE.SYSTEM>
0

>  <SCORE.SYSTEM.CONST>
0

>  <SCORE.SYSTEM.DIHEDRAL>
0

>  <SCORE.SYSTEM.SOLV>
0

>  <SCORE.SYSTEM.norm>
0

>  <SCORE.heavy>
27

>  <SCORE.norm>
-0.570668

>  <RMSD>
18.859

$$$$
ligand
 OpenBabel02271912153D
libRbt.so/2013.1/901 2013/11/27
 27 29  0  0  0  0  0  0  0  0999 V2000
    9.0289   -2.7833   14.5463 N   0  0  0  0  0  0  0  0  0  0  0  0
    8.3958   -2.3379   15.8109 C   0  0  2  0  0  0  0  0  0  0  0  0
    6.9156   -2.6903   15.7403 C   0  0  0  0  0  0  0  0  0  0  0  0
    6.4142   -3.8627   15.7802 O   0  0  0  0  0  0  0  0  0  0  0  0
    8.6544   -0.8403   15.9898 C   0  0  0  0  0  0  0  0  0  0  0  0
    7.9537   -0.2635   17.2127 C   0  0  0  0  0  0  0  0  0  0  0  0
    8.0596    1.5010   17.6942 S   0  0  2  0  0  0  0  0  0  0  0  0
    7.0895    1.4310   19.1990 C   0  0  0  0  0  0  0  0  0  0  0  0
    6.8979    2.1745   16.4641 C   0  0  0  0  0  0  0  0  0  0  0  0
    6.5609    3.6119   16.7511 C   0  0  1  0  0  0  0  0  0  0  0  0
    7.6200    4.5190   16.3610 O   0  0  0  0  0  0  0  0  0  0  0  0
    5.2957    4.0987   16.0822 C   0  0  1  0  0  0  0  0  0  0  0  0
    4.2846    4.0357   16.9911 O   0  0  0  0  0  0  0  0  0  0  0  0
    5.6367    5.5581   15.8923 C   0  0  1  0  0  0  0  0  0  0  0  0
    5.3562    6.1566   17.0792 O   0  0  0  0  0  0  0  0  0  0  0  0
    7.1589    5.6293   15.6393 C   0  0  2  0  0  0  0  0  0  0  0  0
    6.1433   -1.7447   15.5729 O   0  0  0  0  0  0  0  0  0  0  0  0
    6.8396    7.0593   10.6365 N   0  0  0  0  0  0  0  0  0  0  0  0
    6.6873    7.7657   11.8768 C   0  0  0  0  0  0  0  0  0  0  0  0
    6.8104    7.2534   13.1922 N   0  0  0  0  0  0  0  0  0  0  0  0
    7.1037    6.0134   13.1796 C   0  0  0  0  0  0  0  0  0  0  0  0
    7.2871    5.1986   11.9577 C   0  0  0  0  0  0  0  0  0  0  0  0
    7.1471    5.7195   10.7318 C   0  0  0  0  0  0  0  0  0  0  0  0
    7.3180    4.8800    9.7313 N   0  0  0  0  0  0  0  0  0  0  0  0
    7.5736    3.9420   12.2013 N   0  0  0  0  0  0  0  0  0  0  0  0
    7.5758    3.9712   13.5837 C   0  0  0  0  0  0  0  0  0  0  0  0
    7.2916    5.2549   14.2052 N   0  0  0  0  0  0  0  0  0  0  0  0
  2  1  1  6  0  0  0
  2  3  1  0  0  0  0
  2  5  1  0  0  0  0
  3  4  1  0  0  0  0
  3 17  1  0  0  0  0
  5  6  1  0  0  0  0
  7  6  1  6  0  0  0
  7  8  1  0  0  0  0
  7  9  1  0  0  0  0
 10  9  1  6  0  0  0
 10 11  1  0  0  0  0
 10 12  1  0  0  0  0
 11 16  1  0  0  0  0
 12 13  1  1  0  0  0
 12 14  1  0  0  0  0
 14 15  1  1  0  0  0
 14 16  1  0  0  0  0
 16 27  1  6  0  0  0
 18 19  2  0  0  0  0
 18 23  1  0  0  0  0
 19 20  1  0  0  0  0
 20 21  2  0  0  0  0
 21 22  1  0  0  0  0
 21 27  1  0  0  0  0
 22 23  2  0  0  0  0
 22 25  1  0  0  0  0
 23 24  1  0  0  0  0
 25 26  2  0  0  0  0
 26 27  1  0  0  0  0
M  END
>  <CHROM.1>
69.93570274,175.72694502,-179.66910066,-177.76518618,169.61203445,76.95676193
-173.03880409,7.02778488,2.86031402,15.04781280,-1.22965060,1.31678596,-0.77662511

>  <Name>
ligand

>  <RI>
0

>  <Rbt.Current_Directory>
/home/itssahil/PROJECTS/Mol_Feturizer/Test_systems_manuscript/rnas/4aob

>  <Rbt.Executable>
rbdock ($Id: //depot/dev/client3/rdock/2013.1/src/exe/rbdock.cxx#4 $)

>  <Rbt.Library>
libRbt.so (2013.1, Build901 2013/11/27)

>  <Rbt.Parameter_File>
/export/apps/rDock/src/rDock_2013.1_src/data/scripts/dock_solv.prm

>  <Rbt.Receptor>
prm/blind_docking_20.prm

>  <SCORE>
-14.0515

>  <SCORE.INTER>
-14.7078

>  <SCORE.INTER.CONST>
1

>  <SCORE.INTER.POLAR>
0

>  <SCORE.INTER.ROT>
7

>  <SCORE.INTER.SOLV>
15.749

>  <SCORE.INTER.VDW>
-23.3215

>  <SCORE.INTER.norm>
-0.544732

>  <SCORE.INTRA>
-0.116254

>  <SCORE.INTRA.DIHEDRAL>
-2.01068

>  <SCORE.INTRA.DIHEDRAL.0>
6.31833

>  <SCORE.INTRA.POLAR>
0

>  <SCORE.INTRA.POLAR.0>
0

>  <SCORE.INTRA.REPUL>
0

>  <SCORE.INTRA.REPUL.0>
0

>  <SCORE.INTRA.SOLV>
-0.813251

>  <SCORE.INTRA.SOLV.lig_0>
-48.4015

>  <SCORE.INTRA.VDW>
1.29571

>  <SCORE.INTRA.VDW.0>
-2.83256

>  <SCORE.INTRA.norm>
-0.00430569

>  <SCORE.RESTR>
0.772533

>  <SCORE.RESTR.CAVITY>
0.772533

>  <SCORE.RESTR.norm>
0.0286123

>  <SCORE.SYSTEM>
0

>  <SCORE.SYSTEM.CONST>
0

>  <SCORE.SYSTEM.DIHEDRAL>
0

>  <SCORE.SYSTEM.SOLV>
0

>  <SCORE.SYSTEM.norm>
0

>  <SCORE.heavy>
27

>  <SCORE.norm>
-0.520425

>  <RMSD>
18.868

$$$$
ligand
 OpenBabel02271912153D
libRbt.so/2013.1/901 2013/11/27
 27 29  0  0  0  0  0  0  0  0999 V2000
    9.1865   -2.2412   14.8817 N   0  0  0  0  0  0  0  0  0  0  0  0
    8.6354   -2.5487   16.2234 C   0  0  2  0  0  0  0  0  0  0  0  0
    7.1914   -2.9984   16.0421 C   0  0  0  0  0  0  0  0  0  0  0  0
    6.2496   -2.3223   15.5097 O   0  0  0  0  0  0  0  0  0  0  0  0
    8.7774   -1.3092   17.1095 C   0  0  0  0  0  0  0  0  0  0  0  0
    7.9911   -0.1158   16.5835 C   0  0  0  0  0  0  0  0  0  0  0  0
    7.9244    1.5020   17.4406 S   0  0  2  0  0  0  0  0  0  0  0  0
    7.0123    0.9999   18.8988 C   0  0  0  0  0  0  0  0  0  0  0  0
    6.6621    2.2961   16.3955 C   0  0  0  0  0  0  0  0  0  0  0  0
    6.5356    3.7635   16.7000 C   0  0  1  0  0  0  0  0  0  0  0  0
    7.6777    4.5262   16.2408 O   0  0  0  0  0  0  0  0  0  0  0  0
    5.3053    4.4161   16.1121 C   0  0  1  0  0  0  0  0  0  0  0  0
    4.3547    4.4808   17.0839 O   0  0  0  0  0  0  0  0  0  0  0  0
    5.8223    5.8193   15.8973 C   0  0  1  0  0  0  0  0  0  0  0  0
    5.6988    6.4422   17.0983 O   0  0  0  0  0  0  0  0  0  0  0  0
    7.3214    5.6917   15.5474 C   0  0  2  0  0  0  0  0  0  0  0  0
    6.9074   -4.1025   16.5097 O   0  0  0  0  0  0  0  0  0  0  0  0
    6.6544    7.1397   10.5843 N   0  0  0  0  0  0  0  0  0  0  0  0
    6.6450    7.8524   11.8303 C   0  0  0  0  0  0  0  0  0  0  0  0
    6.8522    7.3334   13.1325 N   0  0  0  0  0  0  0  0  0  0  0  0
    7.0780    6.0797   13.0998 C   0  0  0  0  0  0  0  0  0  0  0  0
    7.1143    5.2572   11.8699 C   0  0  0  0  0  0  0  0  0  0  0  0
    6.8982    5.7856   10.6583 C   0  0  0  0  0  0  0  0  0  0  0  0
    6.9395    4.9389    9.6501 N   0  0  0  0  0  0  0  0  0  0  0  0
    7.3542    3.9872   12.0931 N   0  0  0  0  0  0  0  0  0  0  0  0
    7.4751    4.0154   13.4703 C   0  0  0  0  0  0  0  0  0  0  0  0
    7.3123    5.3117   14.1087 N   0  0  0  0  0  0  0  0  0  0  0  0
  2  1  1  6  0  0  0
  2  3  1  0  0  0  0
  2  5  1  0  0  0  0
  3  4  1  0  0  0  0
  3 17  1  0  0  0  0
  5  6  1  0  0  0  0
  7  6  1  6  0  0  0
  7  8  1  0  0  0  0
  7  9  1  0  0  0  0
 10  9  1  6  0  0  0
 10 11  1  0  0  0  0
 10 12  1  0  0  0  0
 11 16  1  0  0  0  0
 12 13  1  1  0  0  0
 12 14  1  0  0  0  0
 14 15  1  1  0  0  0
 14 16  1  0  0  0  0
 16 27  1  6  0  0  0
 18 19  2  0  0  0  0
 18 23  1  0  0  0  0
 19 20  1  0  0  0  0
 20 21  2  0  0  0  0
 21 22  1  0  0  0  0
 21 27  1  0  0  0  0
 22 23  2  0  0  0  0
 22 25  1  0  0  0  0
 23 24  1  0  0  0  0
 25 26  2  0  0  0  0
 26 27  1  0  0  0  0
M  END
>  <CHROM.1>
-59.01809452,62.17951947,178.46507052,-67.11581137,-170.22571317,71.25559240
-177.73477712,7.04403691,2.88415983,15.06241418,-1.12041741,1.31891147,-0.88953401

>  <Name>
ligand

>  <RI>
0

>  <Rbt.Current_Directory>
/home/itssahil/PROJECTS/Mol_Feturizer/Test_systems_manuscript/rnas/4aob

>  <Rbt.Executable>
rbdock ($Id: //depot/dev/client3/rdock/2013.1/src/exe/rbdock.cxx#4 $)

>  <Rbt.Library>
libRbt.so (2013.1, Build901 2013/11/27)

>  <Rbt.Parameter_File>
/export/apps/rDock/src/rDock_2013.1_src/data/scripts/dock_solv.prm

>  <Rbt.Receptor>
prm/blind_docking_20.prm

>  <SCORE>
-14.0353

>  <SCORE.INTER>
-13.666

>  <SCORE.INTER.CONST>
1

>  <SCORE.INTER.POLAR>
0

>  <SCORE.INTER.ROT>
7

>  <SCORE.INTER.SOLV>
15.3641

>  <SCORE.INTER.VDW>
-22.4987

>  <SCORE.INTER.norm>
-0.506149

>  <SCORE.INTRA>
-0.776371

>  <SCORE.INTRA.DIHEDRAL>
-1.79652

>  <SCORE.INTRA.DIHEDRAL.0>
6.31833

>  <SCORE.INTRA.POLAR>
0

>  <SCORE.INTRA.POLAR.0>
0

>  <SCORE.INTRA.REPUL>
0

>  <SCORE.INTRA.REPUL.0>
0

>  <SCORE.INTRA.SOLV>
-0.199296

>  <SCORE.INTRA.SOLV.lig_0>
-48.4015

>  <SCORE.INTRA.VDW>
0.221539

>  <SCORE.INTRA.VDW.0>
-2.83256

>  <SCORE.INTRA.norm>
-0.0287545

>  <SCORE.RESTR>
0.407063

>  <SCORE.RESTR.CAVITY>
0.407063

>  <SCORE.RESTR.norm>
0.0150764

>  <SCORE.SYSTEM>
0

>  <SCORE.SYSTEM.CONST>
0

>  <SCORE.SYSTEM.DIHEDRAL>
0

>  <SCORE.SYSTEM.SOLV>
0

>  <SCORE.SYSTEM.norm>
0

>  <SCORE.heavy>
27

>  <SCORE.norm>
-0.519828

>  <RMSD>
18.881

$$$$
ligand
 OpenBabel02271912153D
libRbt.so/2013.1/901 2013/11/27
 27 29  0  0  0  0  0  0  0  0999 V2000
    7.0737   -3.4946   17.0170 N   0  0  0  0  0  0  0  0  0  0  0  0
    7.2283   -2.7922   15.7205 C   0  0  2  0  0  0  0  0  0  0  0  0
    7.9965   -3.7124   14.7807 C   0  0  0  0  0  0  0  0  0  0  0  0
    8.5007   -4.8463   15.0768 O   0  0  0  0  0  0  0  0  0  0  0  0
    7.9296   -1.4545   15.9662 C   0  0  0  0  0  0  0  0  0  0  0  0
    7.1970   -0.5822   16.9769 C   0  0  0  0  0  0  0  0  0  0  0  0
    7.6953    1.1362   17.3710 S   0  0  2  0  0  0  0  0  0  0  0  0
    6.9967    1.2512   19.0171 C   0  0  0  0  0  0  0  0  0  0  0  0
    6.4811    2.0031   16.3267 C   0  0  0  0  0  0  0  0  0  0  0  0
    6.3877    3.4615   16.6820 C   0  0  1  0  0  0  0  0  0  0  0  0
    7.6151    4.1793   16.4083 O   0  0  0  0  0  0  0  0  0  0  0  0
    5.2768    4.2033   15.9744 C   0  0  1  0  0  0  0  0  0  0  0  0
    4.2128    4.2797   16.8198 O   0  0  0  0  0  0  0  0  0  0  0  0
    5.8846    5.5840   15.8939 C   0  0  1  0  0  0  0  0  0  0  0  0
    5.6374    6.1631   17.0977 O   0  0  0  0  0  0  0  0  0  0  0  0
    7.4084    5.3897   15.7314 C   0  0  2  0  0  0  0  0  0  0  0  0
    8.1895   -3.2818   13.6424 O   0  0  0  0  0  0  0  0  0  0  0  0
    7.3133    7.0436   10.7887 N   0  0  0  0  0  0  0  0  0  0  0  0
    7.1575    7.7039   12.0538 C   0  0  0  0  0  0  0  0  0  0  0  0
    7.2149    7.1310   13.3485 N   0  0  0  0  0  0  0  0  0  0  0  0
    7.4476    5.8795   13.2903 C   0  0  0  0  0  0  0  0  0  0  0  0
    7.6287    5.1088   12.0398 C   0  0  0  0  0  0  0  0  0  0  0  0
    7.5520    5.6874   10.8342 C   0  0  0  0  0  0  0  0  0  0  0  0
    7.7125    4.8833    9.8034 N   0  0  0  0  0  0  0  0  0  0  0  0
    7.8460    3.8304   12.2364 N   0  0  0  0  0  0  0  0  0  0  0  0
    7.8070    3.8011   13.6182 C   0  0  0  0  0  0  0  0  0  0  0  0
    7.5668    5.0700   14.2868 N   0  0  0  0  0  0  0  0  0  0  0  0
  2  1  1  1  0  0  0
  2  3  1  0  0  0  0
  2  5  1  0  0  0  0
  3  4  1  0  0  0  0
  3 17  1  0  0  0  0
  5  6  1  0  0  0  0
  7  6  1  6  0  0  0
  7  8  1  0  0  0  0
  7  9  1  0  0  0  0
 10  9  1  6  0  0  0
 10 11  1  0  0  0  0
 10 12  1  0  0  0  0
 11 16  1  0  0  0  0
 12 13  1  1  0  0  0
 12 14  1  0  0  0  0
 14 15  1  1  0  0  0
 14 16  1  0  0  0  0
 16 27  1  6  0  0  0
 18 19  2  0  0  0  0
 18 23  1  0  0  0  0
 19 20  1  0  0  0  0
 20 21  2  0  0  0  0
 21 22  1  0  0  0  0
 21 27  1  0  0  0  0
 22 23  2  0  0  0  0
 22 25  1  0  0  0  0
 23 24  1  0  0  0  0
 25 26  2  0  0  0  0
 26 27  1  0  0  0  0
M  END
>  <CHROM.1>
-4.45606675,-56.37729102,-174.18547213,-155.33143383,165.51774673,65.09429617
179.14837130,7.15862343,2.56551568,14.97451346,1.33134953,-1.25867197,2.58653343

>  <Name>
ligand

>  <RI>
0

>  <Rbt.Current_Directory>
/home/itssahil/PROJECTS/Mol_Feturizer/Test_systems_manuscript/rnas/4aob

>  <Rbt.Executable>
rbdock ($Id: //depot/dev/client3/rdock/2013.1/src/exe/rbdock.cxx#4 $)

>  <Rbt.Library>
libRbt.so (2013.1, Build901 2013/11/27)

>  <Rbt.Parameter_File>
/export/apps/rDock/src/rDock_2013.1_src/data/scripts/dock_solv.prm

>  <Rbt.Receptor>
prm/blind_docking_20.prm

>  <SCORE>
-12.0145

>  <SCORE.INTER>
-12.6547

>  <SCORE.INTER.CONST>
1

>  <SCORE.INTER.POLAR>
0

>  <SCORE.INTER.ROT>
7

>  <SCORE.INTER.SOLV>
16.4748

>  <SCORE.INTER.VDW>
-22.1947

>  <SCORE.INTER.norm>
-0.468693

>  <SCORE.INTRA>
0.119379

>  <SCORE.INTRA.DIHEDRAL>
-0.426072

>  <SCORE.INTRA.DIHEDRAL.0>
6.31833

>  <SCORE.INTRA.POLAR>
0

>  <SCORE.INTRA.POLAR.0>
0

>  <SCORE.INTRA.REPUL>
0

>  <SCORE.INTRA.REPUL.0>
0

>  <SCORE.INTRA.SOLV>
-0.0723554

>  <SCORE.INTRA.SOLV.lig_0>
-48.4015

>  <SCORE.INTRA.VDW>
0.368593

>  <SCORE.INTRA.VDW.0>
-2.83256

>  <SCORE.INTRA.norm>
0.00442145

>  <SCORE.RESTR>
0.520779

>  <SCORE.RESTR.CAVITY>
0.520779

>  <SCORE.RESTR.norm>
0.0192881

>  <SCORE.SYSTEM>
0

>  <SCORE.SYSTEM.CONST>
0

>  <SCORE.SYSTEM.DIHEDRAL>
0

>  <SCORE.SYSTEM.SOLV>
0

>  <SCORE.SYSTEM.norm>
0

>  <SCORE.heavy>
27

>  <SCORE.norm>
-0.444983

>  <RMSD>
18.884

$$$$
ligand
 OpenBabel02271912153D
libRbt.so/2013.1/901 2013/11/27
 27 29  0  0  0  0  0  0  0  0999 V2000
    7.0246   -3.5815   15.6638 N   0  0  0  0  0  0  0  0  0  0  0  0
    7.0831   -2.5824   16.7577 C   0  0  2  0  0  0  0  0  0  0  0  0
    5.7752   -2.6646   17.5342 C   0  0  0  0  0  0  0  0  0  0  0  0
    5.5090   -2.0733   18.6328 O   0  0  0  0  0  0  0  0  0  0  0  0
    7.3413   -1.2019   16.1500 C   0  0  0  0  0  0  0  0  0  0  0  0
    7.6449   -0.1429   17.2014 C   0  0  0  0  0  0  0  0  0  0  0  0
    8.1796    1.5602   16.7890 S   0  0  2  0  0  0  0  0  0  0  0  0
    8.4748    2.1625   18.4505 C   0  0  0  0  0  0  0  0  0  0  0  0
    6.5474    2.2479   16.3656 C   0  0  0  0  0  0  0  0  0  0  0  0
    6.4674    3.7161   16.6813 C   0  0  1  0  0  0  0  0  0  0  0  0
    7.6268    4.4481   16.2156 O   0  0  0  0  0  0  0  0  0  0  0  0
    5.2510    4.4088   16.1106 C   0  0  1  0  0  0  0  0  0  0  0  0
    4.3126    4.4947   17.0926 O   0  0  0  0  0  0  0  0  0  0  0  0
    5.8070    5.7977   15.9000 C   0  0  1  0  0  0  0  0  0  0  0  0
    5.7141    6.4155   17.1064 O   0  0  0  0  0  0  0  0  0  0  0  0
    7.2981    5.6285   15.5338 C   0  0  2  0  0  0  0  0  0  0  0  0
    4.9206   -3.4231   17.0729 O   0  0  0  0  0  0  0  0  0  0  0  0
    6.6309    7.1320   10.5872 N   0  0  0  0  0  0  0  0  0  0  0  0
    6.6561    7.8358   11.8381 C   0  0  0  0  0  0  0  0  0  0  0  0
    6.8589    7.3013   13.1346 N   0  0  0  0  0  0  0  0  0  0  0  0
    7.0441    6.0413   13.0914 C   0  0  0  0  0  0  0  0  0  0  0  0
    7.0424    5.2268   11.8557 C   0  0  0  0  0  0  0  0  0  0  0  0
    6.8320    5.7703   10.6497 C   0  0  0  0  0  0  0  0  0  0  0  0
    6.8366    4.9298    9.6356 N   0  0  0  0  0  0  0  0  0  0  0  0
    7.2437    3.9482   12.0680 N   0  0  0  0  0  0  0  0  0  0  0  0
    7.3784    3.9628   13.4440 C   0  0  0  0  0  0  0  0  0  0  0  0
    7.2632    5.2592   14.0927 N   0  0  0  0  0  0  0  0  0  0  0  0
  2  1  1  6  0  0  0
  2  3  1  0  0  0  0
  2  5  1  0  0  0  0
  3  4  1  0  0  0  0
  3 17  1  0  0  0  0
  5  6  1  0  0  0  0
  7  6  1  1  0  0  0
  7  8  1  0  0  0  0
  7  9  1  0  0  0  0
 10  9  1  6  0  0  0
 10 11  1  0  0  0  0
 10 12  1  0  0  0  0
 11 16  1  0  0  0  0
 12 13  1  1  0  0  0
 12 14  1  0  0  0  0
 14 15  1  1  0  0  0
 14 16  1  0  0  0  0
 16 27  1  6  0  0  0
 18 19  2  0  0  0  0
 18 23  1  0  0  0  0
 19 20  1  0  0  0  0
 20 21  2  0  0  0  0
 21 22  1  0  0  0  0
 21 27  1  0  0  0  0
 22 23  2  0  0  0  0
 22 25  1  0  0  0  0
 23 24  1  0  0  0  0
 25 26  2  0  0  0  0
 26 27  1  0  0  0  0
M  END
>  <CHROM.1>
171.48216030,-170.60490702,172.95457542,-175.48273424,149.42835384,46.34965354
-177.58606160,6.74195410,2.91583781,15.21644972,-1.76846667,1.45962632,-0.33439127

>  <Name>
ligand

>  <RI>
0

>  <Rbt.Current_Directory>
/home/itssahil/PROJECTS/Mol_Feturizer/Test_systems_manuscript/rnas/4aob

>  <Rbt.Executable>
rbdock ($Id: //depot/dev/client3/rdock/2013.1/src/exe/rbdock.cxx#4 $)

>  <Rbt.Library>
libRbt.so (2013.1, Build901 2013/11/27)

>  <Rbt.Parameter_File>
/export/apps/rDock/src/rDock_2013.1_src/data/scripts/dock_solv.prm

>  <Rbt.Receptor>
prm/blind_docking_20.prm

>  <SCORE>
-15.4736

>  <SCORE.INTER>
-16.3064

>  <SCORE.INTER.CONST>
1

>  <SCORE.INTER.POLAR>
0

>  <SCORE.INTER.ROT>
7

>  <SCORE.INTER.SOLV>
18.7996

>  <SCORE.INTER.VDW>
-25.4041

>  <SCORE.INTER.norm>
-0.603939

>  <SCORE.INTRA>
0.112488

>  <SCORE.INTRA.DIHEDRAL>
-0.415695

>  <SCORE.INTRA.DIHEDRAL.0>
6.31833

>  <SCORE.INTRA.POLAR>
0

>  <SCORE.INTRA.POLAR.0>
0

>  <SCORE.INTRA.REPUL>
0

>  <SCORE.INTRA.REPUL.0>
0

>  <SCORE.INTRA.SOLV>
-0.671319

>  <SCORE.INTRA.SOLV.lig_0>
-48.4015

>  <SCORE.INTRA.VDW>
0.655995

>  <SCORE.INTRA.VDW.0>
-2.83256

>  <SCORE.INTRA.norm>
0.00416621

>  <SCORE.RESTR>
0.720287

>  <SCORE.RESTR.CAVITY>
0.720287

>  <SCORE.RESTR.norm>
0.0266773

>  <SCORE.SYSTEM>
0

>  <SCORE.SYSTEM.CONST>
0

>  <SCORE.SYSTEM.DIHEDRAL>
0

>  <SCORE.SYSTEM.SOLV>
0

>  <SCORE.SYSTEM.norm>
0

>  <SCORE.heavy>
27

>  <SCORE.norm>
-0.573095

>  <RMSD>
18.895

$$$$
ligand
 OpenBabel02271912153D
libRbt.so/2013.1/901 2013/11/27
 27 29  0  0  0  0  0  0  0  0999 V2000
    8.0214   -2.7901   14.9949 N   0  0  0  0  0  0  0  0  0  0  0  0
    7.7892   -2.8814   16.4565 C   0  0  2  0  0  0  0  0  0  0  0  0
    6.3043   -3.1399   16.6771 C   0  0  0  0  0  0  0  0  0  0  0  0
    5.5810   -2.6502   17.6069 O   0  0  0  0  0  0  0  0  0  0  0  0
    8.2841   -1.5917   17.1148 C   0  0  0  0  0  0  0  0  0  0  0  0
    7.5887   -0.3497   16.5736 C   0  0  0  0  0  0  0  0  0  0  0  0
    7.8193    1.3230   17.2846 S   0  0  2  0  0  0  0  0  0  0  0  0
    7.0400    1.0522   18.8752 C   0  0  0  0  0  0  0  0  0  0  0  0
    6.5411    2.1916   16.3213 C   0  0  0  0  0  0  0  0  0  0  0  0
    6.4932    3.6560   16.6603 C   0  0  1  0  0  0  0  0  0  0  0  0
    7.6950    4.3580   16.2604 O   0  0  0  0  0  0  0  0  0  0  0  0
    5.3263    4.3973   16.0489 C   0  0  1  0  0  0  0  0  0  0  0  0
    4.3477    4.4966   16.9896 O   0  0  0  0  0  0  0  0  0  0  0  0
    5.9347    5.7710   15.8892 C   0  0  1  0  0  0  0  0  0  0  0  0
    5.8070    6.3706   17.1014 O   0  0  0  0  0  0  0  0  0  0  0  0
    7.4347    5.5599   15.5866 C   0  0  2  0  0  0  0  0  0  0  0  0
    5.7769   -3.9455   15.9081 O   0  0  0  0  0  0  0  0  0  0  0  0
    6.7343    7.1008   10.6561 N   0  0  0  0  0  0  0  0  0  0  0  0
    6.6830    7.7804   11.9195 C   0  0  0  0  0  0  0  0  0  0  0  0
    6.9054    7.2387   13.2099 N   0  0  0  0  0  0  0  0  0  0  0  0
    7.1900    5.9982   13.1476 C   0  0  0  0  0  0  0  0  0  0  0  0
    7.2732    5.2098   11.8978 C   0  0  0  0  0  0  0  0  0  0  0  0
    7.0409    5.7581   10.6981 C   0  0  0  0  0  0  0  0  0  0  0  0
    7.1288    4.9401    9.6695 N   0  0  0  0  0  0  0  0  0  0  0  0
    7.5710    3.9471   12.0911 N   0  0  0  0  0  0  0  0  0  0  0  0
    7.6811    3.9459   13.4694 C   0  0  0  0  0  0  0  0  0  0  0  0
    7.4532    5.2166   14.1388 N   0  0  0  0  0  0  0  0  0  0  0  0
  2  1  1  6  0  0  0
  2  3  1  0  0  0  0
  2  5  1  0  0  0  0
  3  4  1  0  0  0  0
  3 17  1  0  0  0  0
  5  6  1  0  0  0  0
  7  6  1  6  0  0  0
  7  8  1  0  0  0  0
  7  9  1  0  0  0  0
 10  9  1  6  0  0  0
 10 11  1  0  0  0  0
 10 12  1  0  0  0  0
 11 16  1  0  0  0  0
 12 13  1  1  0  0  0
 12 14  1  0  0  0  0
 14 15  1  1  0  0  0
 14 16  1  0  0  0  0
 16 27  1  6  0  0  0
 18 19  2  0  0  0  0
 18 23  1  0  0  0  0
 19 20  1  0  0  0  0
 20 21  2  0  0  0  0
 21 22  1  0  0  0  0
 21 27  1  0  0  0  0
 22 23  2  0  0  0  0
 22 25  1  0  0  0  0
 23 24  1  0  0  0  0
 25 26  2  0  0  0  0
 26 27  1  0  0  0  0
M  END
>  <CHROM.1>
-141.77112975,58.71912435,172.88627434,-66.94533501,-178.68208759,66.23788688
175.88496452,6.88519489,2.76886229,15.14654388,-1.51044028,1.37530438,-0.53105235

>  <Name>
ligand

>  <RI>
0

>  <Rbt.Current_Directory>
/home/itssahil/PROJECTS/Mol_Feturizer/Test_systems_manuscript/rnas/4aob

>  <Rbt.Executable>
rbdock ($Id: //depot/dev/client3/rdock/2013.1/src/exe/rbdock.cxx#4 $)

>  <Rbt.Library>
libRbt.so (2013.1, Build901 2013/11/27)

>  <Rbt.Parameter_File>
/export/apps/rDock/src/rDock_2013.1_src/data/scripts/dock_solv.prm

>  <Rbt.Receptor>
prm/blind_docking_20.prm

>  <SCORE>
-15.1156

>  <SCORE.INTER>
-14.5238

>  <SCORE.INTER.CONST>
1

>  <SCORE.INTER.POLAR>
0

>  <SCORE.INTER.ROT>
7

>  <SCORE.INTER.SOLV>
16.2305

>  <SCORE.INTER.VDW>
-23.3593

>  <SCORE.INTER.norm>
-0.537918

>  <SCORE.INTRA>
-0.924183

>  <SCORE.INTRA.DIHEDRAL>
-2.63866

>  <SCORE.INTRA.DIHEDRAL.0>
6.31833

>  <SCORE.INTRA.POLAR>
0

>  <SCORE.INTRA.POLAR.0>
0

>  <SCORE.INTRA.REPUL>
0

>  <SCORE.INTRA.REPUL.0>
0

>  <SCORE.INTRA.SOLV>
-0.0954821

>  <SCORE.INTRA.SOLV.lig_0>
-48.4015

>  <SCORE.INTRA.VDW>
0.442885

>  <SCORE.INTRA.VDW.0>
-2.83256

>  <SCORE.INTRA.norm>
-0.034229

>  <SCORE.RESTR>
0.332321

>  <SCORE.RESTR.CAVITY>
0.332321

>  <SCORE.RESTR.norm>
0.0123082

>  <SCORE.SYSTEM>
0

>  <SCORE.SYSTEM.CONST>
0

>  <SCORE.SYSTEM.DIHEDRAL>
0

>  <SCORE.SYSTEM.SOLV>
0

>  <SCORE.SYSTEM.norm>
0

>  <SCORE.heavy>
27

>  <SCORE.norm>
-0.559839

>  <RMSD>
18.902

$$$$
ligand
 OpenBabel02271912153D
libRbt.so/2013.1/901 2013/11/27
 27 29  0  0  0  0  0  0  0  0999 V2000
    9.1830   -2.3201   14.9164 N   0  0  0  0  0  0  0  0  0  0  0  0
    8.5658   -2.6245   16.2297 C   0  0  2  0  0  0  0  0  0  0  0  0
    7.1281   -3.0609   15.9789 C   0  0  0  0  0  0  0  0  0  0  0  0
    6.6028   -3.3200   14.8456 O   0  0  0  0  0  0  0  0  0  0  0  0
    8.6764   -1.3876   17.1238 C   0  0  0  0  0  0  0  0  0  0  0  0
    7.8720   -0.2065   16.5976 C   0  0  0  0  0  0  0  0  0  0  0  0
    7.8584    1.4398   17.4014 S   0  0  2  0  0  0  0  0  0  0  0  0
    6.9932    0.9999   18.9076 C   0  0  0  0  0  0  0  0  0  0  0  0
    6.5698    2.2172   16.3761 C   0  0  0  0  0  0  0  0  0  0  0  0
    6.4162    3.6788   16.6956 C   0  0  1  0  0  0  0  0  0  0  0  0
    7.5636    4.4605   16.2840 O   0  0  0  0  0  0  0  0  0  0  0  0
    5.1981    4.3253   16.0765 C   0  0  1  0  0  0  0  0  0  0  0  0
    4.2157    4.3662   17.0176 O   0  0  0  0  0  0  0  0  0  0  0  0
    5.7052    5.7371   15.8972 C   0  0  1  0  0  0  0  0  0  0  0  0
    5.5355    6.3423   17.1015 O   0  0  0  0  0  0  0  0  0  0  0  0
    7.2163    5.6312   15.5947 C   0  0  2  0  0  0  0  0  0  0  0  0
    6.3986   -3.1107   16.9708 O   0  0  0  0  0  0  0  0  0  0  0  0
    6.6972    7.1393   10.6318 N   0  0  0  0  0  0  0  0  0  0  0  0
    6.6394    7.8349   11.8861 C   0  0  0  0  0  0  0  0  0  0  0  0
    6.8093    7.3006   13.1874 N   0  0  0  0  0  0  0  0  0  0  0  0
    7.0492    6.0498   13.1457 C   0  0  0  0  0  0  0  0  0  0  0  0
    7.1345    5.2443   11.9070 C   0  0  0  0  0  0  0  0  0  0  0  0
    6.9527    5.7868   10.6959 C   0  0  0  0  0  0  0  0  0  0  0  0
    7.0360    4.9543    9.6787 N   0  0  0  0  0  0  0  0  0  0  0  0
    7.3804    3.9739   12.1212 N   0  0  0  0  0  0  0  0  0  0  0  0
    7.4558    3.9847   13.5019 C   0  0  0  0  0  0  0  0  0  0  0  0
    7.2584    5.2706   14.1516 N   0  0  0  0  0  0  0  0  0  0  0  0
  2  1  1  6  0  0  0
  2  3  1  0  0  0  0
  2  5  1  0  0  0  0
  3  4  1  0  0  0  0
  3 17  1  0  0  0  0
  5  6  1  0  0  0  0
  7  6  1  6  0  0  0
  7  8  1  0  0  0  0
  7  9  1  0  0  0  0
 10  9  1  6  0  0  0
 10 11  1  0  0  0  0
 10 12  1  0  0  0  0
 11 16  1  0  0  0  0
 12 13  1  1  0  0  0
 12 14  1  0  0  0  0
 14 15  1  1  0  0  0
 14 16  1  0  0  0  0
 16 27  1  6  0  0  0
 18 19  2  0  0  0  0
 18 23  1  0  0  0  0
 19 20  1  0  0  0  0
 20 21  2  0  0  0  0
 21 22  1  0  0  0  0
 21 27  1  0  0  0  0
 22 23  2  0  0  0  0
 22 25  1  0  0  0  0
 23 24  1  0  0  0  0
 25 26  2  0  0  0  0
 26 27  1  0  0  0  0
M  END
>  <CHROM.1>
9.87676303,64.94482408,-177.20590375,-68.02136950,-173.72477044,68.76277856
-177.66276403,6.98696193,2.83517418,15.06411977,-1.18100638,1.30005071,-0.82281804

>  <Name>
ligand

>  <RI>
0

>  <Rbt.Current_Directory>
/home/itssahil/PROJECTS/Mol_Feturizer/Test_systems_manuscript/rnas/4aob

>  <Rbt.Executable>
rbdock ($Id: //depot/dev/client3/rdock/2013.1/src/exe/rbdock.cxx#4 $)

>  <Rbt.Library>
libRbt.so (2013.1, Build901 2013/11/27)

>  <Rbt.Parameter_File>
/export/apps/rDock/src/rDock_2013.1_src/data/scripts/dock_solv.prm

>  <Rbt.Receptor>
prm/blind_docking_20.prm

>  <SCORE>
-13.7551

>  <SCORE.INTER>
-13.5914

>  <SCORE.INTER.CONST>
1

>  <SCORE.INTER.POLAR>
0

>  <SCORE.INTER.ROT>
7

>  <SCORE.INTER.SOLV>
15.5545

>  <SCORE.INTER.VDW>
-22.5124

>  <SCORE.INTER.norm>
-0.503385

>  <SCORE.INTRA>
-0.57531

>  <SCORE.INTRA.DIHEDRAL>
-2.08877

>  <SCORE.INTRA.DIHEDRAL.0>
6.31833

>  <SCORE.INTRA.POLAR>
0

>  <SCORE.INTRA.POLAR.0>
0

>  <SCORE.INTRA.REPUL>
0

>  <SCORE.INTRA.REPUL.0>
0

>  <SCORE.INTRA.SOLV>
-0.192167

>  <SCORE.INTRA.SOLV.lig_0>
-48.4015

>  <SCORE.INTRA.VDW>
0.565158

>  <SCORE.INTRA.VDW.0>
-2.83256

>  <SCORE.INTRA.norm>
-0.0213078

>  <SCORE.RESTR>
0.411564

>  <SCORE.RESTR.CAVITY>
0.411564

>  <SCORE.RESTR.norm>
0.0152431

>  <SCORE.SYSTEM>
0

>  <SCORE.SYSTEM.CONST>
0

>  <SCORE.SYSTEM.DIHEDRAL>
0

>  <SCORE.SYSTEM.SOLV>
0

>  <SCORE.SYSTEM.norm>
0

>  <SCORE.heavy>
27

>  <SCORE.norm>
-0.50945

>  <RMSD>
18.903

$$$$
ligand
 OpenBabel02271912153D
libRbt.so/2013.1/901 2013/11/27
 27 29  0  0  0  0  0  0  0  0999 V2000
    8.2773   -2.7241   14.9280 N   0  0  0  0  0  0  0  0  0  0  0  0
    7.9105   -2.8587   16.3583 C   0  0  2  0  0  0  0  0  0  0  0  0
    6.4185   -3.1571   16.4305 C   0  0  0  0  0  0  0  0  0  0  0  0
    5.5991   -2.7121   17.3011 O   0  0  0  0  0  0  0  0  0  0  0  0
    8.3079   -1.5754   17.0911 C   0  0  0  0  0  0  0  0  0  0  0  0
    7.5840   -0.3454   16.5598 C   0  0  0  0  0  0  0  0  0  0  0  0
    7.7786    1.3269   17.2822 S   0  0  2  0  0  0  0  0  0  0  0  0
    7.0014    1.0298   18.8691 C   0  0  0  0  0  0  0  0  0  0  0  0
    6.4850    2.1754   16.3215 C   0  0  0  0  0  0  0  0  0  0  0  0
    6.4146    3.6388   16.6610 C   0  0  1  0  0  0  0  0  0  0  0  0
    7.6226    4.3512   16.3001 O   0  0  0  0  0  0  0  0  0  0  0  0
    5.2615    4.3717   16.0143 C   0  0  1  0  0  0  0  0  0  0  0  0
    4.2530    4.4615   16.9239 O   0  0  0  0  0  0  0  0  0  0  0  0
    5.8634    5.7505   15.8758 C   0  0  1  0  0  0  0  0  0  0  0  0
    5.6928    6.3470   17.0843 O   0  0  0  0  0  0  0  0  0  0  0  0
    7.3738    5.5521   15.6203 C   0  0  2  0  0  0  0  0  0  0  0  0
    5.9859   -3.9509   15.5930 O   0  0  0  0  0  0  0  0  0  0  0  0
    6.9142    7.1223   10.6707 N   0  0  0  0  0  0  0  0  0  0  0  0
    6.8313    7.8004   11.9333 C   0  0  0  0  0  0  0  0  0  0  0  0
    6.9868    7.2500   13.2297 N   0  0  0  0  0  0  0  0  0  0  0  0
    7.2391    6.0022   13.1749 C   0  0  0  0  0  0  0  0  0  0  0  0
    7.3503    5.2144   11.9269 C   0  0  0  0  0  0  0  0  0  0  0  0
    7.1815    5.7715   10.7206 C   0  0  0  0  0  0  0  0  0  0  0  0
    7.2876    4.9536    9.6937 N   0  0  0  0  0  0  0  0  0  0  0  0
    7.6049    3.9435   12.1278 N   0  0  0  0  0  0  0  0  0  0  0  0
    7.6597    3.9363   13.5094 C   0  0  0  0  0  0  0  0  0  0  0  0
    7.4407    5.2115   14.1733 N   0  0  0  0  0  0  0  0  0  0  0  0
  2  1  1  6  0  0  0
  2  3  1  0  0  0  0
  2  5  1  0  0  0  0
  3  4  1  0  0  0  0
  3 17  1  0  0  0  0
  5  6  1  0  0  0  0
  7  6  1  6  0  0  0
  7  8  1  0  0  0  0
  7  9  1  0  0  0  0
 10  9  1  6  0  0  0
 10 11  1  0  0  0  0
 10 12  1  0  0  0  0
 11 16  1  0  0  0  0
 12 13  1  1  0  0  0
 12 14  1  0  0  0  0
 14 15  1  1  0  0  0
 14 16  1  0  0  0  0
 16 27  1  6  0  0  0
 18 19  2  0  0  0  0
 18 23  1  0  0  0  0
 19 20  1  0  0  0  0
 20 21  2  0  0  0  0
 21 22  1  0  0  0  0
 21 27  1  0  0  0  0
 22 23  2  0  0  0  0
 22 25  1  0  0  0  0
 23 24  1  0  0  0  0
 25 26  2  0  0  0  0
 26 27  1  0  0  0  0
M  END
>  <CHROM.1>
-142.01494970,61.50595847,176.82683539,-67.20515326,-178.17398320,64.27839837
178.00310032,6.91231579,2.76559307,15.11257754,-1.50637402,1.33642592,-0.51591521

>  <Name>
ligand

>  <RI>
0

>  <Rbt.Current_Directory>
/home/itssahil/PROJECTS/Mol_Feturizer/Test_systems_manuscript/rnas/4aob

>  <Rbt.Executable>
rbdock ($Id: //depot/dev/client3/rdock/2013.1/src/exe/rbdock.cxx#4 $)

>  <Rbt.Library>
libRbt.so (2013.1, Build901 2013/11/27)

>  <Rbt.Parameter_File>
/export/apps/rDock/src/rDock_2013.1_src/data/scripts/dock_solv.prm

>  <Rbt.Receptor>
prm/blind_docking_20.prm

>  <SCORE>
-15.0005

>  <SCORE.INTER>
-14.2788

>  <SCORE.INTER.CONST>
1

>  <SCORE.INTER.POLAR>
0

>  <SCORE.INTER.ROT>
7

>  <SCORE.INTER.SOLV>
16.1386

>  <SCORE.INTER.VDW>
-23.1654

>  <SCORE.INTER.norm>
-0.528845

>  <SCORE.INTRA>
-1.0085

>  <SCORE.INTRA.DIHEDRAL>
-2.8417

>  <SCORE.INTRA.DIHEDRAL.0>
6.31833

>  <SCORE.INTRA.POLAR>
0

>  <SCORE.INTRA.POLAR.0>
0

>  <SCORE.INTRA.REPUL>
0

>  <SCORE.INTRA.REPUL.0>
0

>  <SCORE.INTRA.SOLV>
-0.115245

>  <SCORE.INTRA.SOLV.lig_0>
-48.4015

>  <SCORE.INTRA.VDW>
0.469967

>  <SCORE.INTRA.VDW.0>
-2.83256

>  <SCORE.INTRA.norm>
-0.037352

>  <SCORE.RESTR>
0.286809

>  <SCORE.RESTR.CAVITY>
0.286809

>  <SCORE.RESTR.norm>
0.0106226

>  <SCORE.SYSTEM>
0

>  <SCORE.SYSTEM.CONST>
0

>  <SCORE.SYSTEM.DIHEDRAL>
0

>  <SCORE.SYSTEM.SOLV>
0

>  <SCORE.SYSTEM.norm>
0

>  <SCORE.heavy>
27

>  <SCORE.norm>
-0.555575

>  <RMSD>
18.905

$$$$
ligand
 OpenBabel02271912153D
libRbt.so/2013.1/901 2013/11/27
 27 29  0  0  0  0  0  0  0  0999 V2000
    7.2780   -3.0975   15.6086 N   0  0  0  0  0  0  0  0  0  0  0  0
    7.2699   -2.8707   17.0738 C   0  0  2  0  0  0  0  0  0  0  0  0
    5.8179   -2.8455   17.5334 C   0  0  0  0  0  0  0  0  0  0  0  0
    4.8271   -3.3880   16.9405 O   0  0  0  0  0  0  0  0  0  0  0  0
    8.0235   -1.5733   17.3750 C   0  0  0  0  0  0  0  0  0  0  0  0
    7.3670   -0.3514   16.7465 C   0  0  0  0  0  0  0  0  0  0  0  0
    7.9341    1.3639   17.0511 S   0  0  2  0  0  0  0  0  0  0  0  0
    7.5585    1.4679   18.8000 C   0  0  0  0  0  0  0  0  0  0  0  0
    6.5466    2.2389   16.2601 C   0  0  0  0  0  0  0  0  0  0  0  0
    6.5537    3.7047   16.5966 C   0  0  1  0  0  0  0  0  0  0  0  0
    7.7333    4.3825   16.1006 O   0  0  0  0  0  0  0  0  0  0  0  0
    5.3565    4.4672   16.0765 C   0  0  1  0  0  0  0  0  0  0  0  0
    4.4573    4.5873   17.0911 O   0  0  0  0  0  0  0  0  0  0  0  0
    5.9765    5.8284   15.8643 C   0  0  1  0  0  0  0  0  0  0  0  0
    5.9564    6.4330   17.0807 O   0  0  0  0  0  0  0  0  0  0  0  0
    7.4437    5.5877   15.4452 C   0  0  2  0  0  0  0  0  0  0  0  0
    5.5846   -2.1869   18.5484 O   0  0  0  0  0  0  0  0  0  0  0  0
    6.6152    7.1816   10.5515 N   0  0  0  0  0  0  0  0  0  0  0  0
    6.7087    7.8657   11.8100 C   0  0  0  0  0  0  0  0  0  0  0  0
    6.9502    7.3069   13.0896 N   0  0  0  0  0  0  0  0  0  0  0  0
    7.1017    6.0435   13.0211 C   0  0  0  0  0  0  0  0  0  0  0  0
    7.0295    5.2479   11.7752 C   0  0  0  0  0  0  0  0  0  0  0  0
    6.7843    5.8146   10.5866 C   0  0  0  0  0  0  0  0  0  0  0  0
    6.7268    4.9897    9.5614 N   0  0  0  0  0  0  0  0  0  0  0  0
    7.2069    3.9617   11.9611 N   0  0  0  0  0  0  0  0  0  0  0  0
    7.3975    3.9523   13.3306 C   0  0  0  0  0  0  0  0  0  0  0  0
    7.3413    5.2412   14.0016 N   0  0  0  0  0  0  0  0  0  0  0  0
  2  1  1  6  0  0  0
  2  3  1  0  0  0  0
  2  5  1  0  0  0  0
  3  4  1  0  0  0  0
  3 17  1  0  0  0  0
  5  6  1  0  0  0  0
  7  6  1  6  0  0  0
  7  8  1  0  0  0  0
  7  9  1  0  0  0  0
 10  9  1  6  0  0  0
 10 11  1  0  0  0  0
 10 12  1  0  0  0  0
 11 16  1  0  0  0  0
 12 13  1  1  0  0  0
 12 14  1  0  0  0  0
 14 15  1  1  0  0  0
 14 16  1  0  0  0  0
 16 27  1  6  0  0  0
 18 19  2  0  0  0  0
 18 23  1  0  0  0  0
 19 20  1  0  0  0  0
 20 21  2  0  0  0  0
 21 22  1  0  0  0  0
 21 27  1  0  0  0  0
 22 23  2  0  0  0  0
 22 25  1  0  0  0  0
 23 24  1  0  0  0  0
 25 26  2  0  0  0  0
 26 27  1  0  0  0  0
M  END
>  <CHROM.1>
23.76811136,62.20715651,174.03032807,-64.98436692,167.57366605,63.15395507
-179.17531660,6.75640203,2.86047478,15.23742464,-1.71594072,1.46251893,-0.40635043

>  <Name>
ligand

>  <RI>
0

>  <Rbt.Current_Directory>
/home/itssahil/PROJECTS/Mol_Feturizer/Test_systems_manuscript/rnas/4aob

>  <Rbt.Executable>
rbdock ($Id: //depot/dev/client3/rdock/2013.1/src/exe/rbdock.cxx#4 $)

>  <Rbt.Library>
libRbt.so (2013.1, Build901 2013/11/27)

>  <Rbt.Parameter_File>
/export/apps/rDock/src/rDock_2013.1_src/data/scripts/dock_solv.prm

>  <Rbt.Receptor>
prm/blind_docking_20.prm

>  <SCORE>
-15.1824

>  <SCORE.INTER>
-15.2095

>  <SCORE.INTER.CONST>
1

>  <SCORE.INTER.POLAR>
0

>  <SCORE.INTER.ROT>
7

>  <SCORE.INTER.SOLV>
16.8254

>  <SCORE.INTER.VDW>
-24.0148

>  <SCORE.INTER.norm>
-0.563316

>  <SCORE.INTRA>
-0.596487

>  <SCORE.INTRA.DIHEDRAL>
-2.87235

>  <SCORE.INTRA.DIHEDRAL.0>
6.31833

>  <SCORE.INTRA.POLAR>
0

>  <SCORE.INTRA.POLAR.0>
0

>  <SCORE.INTRA.REPUL>
0

>  <SCORE.INTRA.REPUL.0>
0

>  <SCORE.INTRA.SOLV>
-0.13027

>  <SCORE.INTRA.SOLV.lig_0>
-48.4015

>  <SCORE.INTRA.VDW>
0.904825

>  <SCORE.INTRA.VDW.0>
-2.83256

>  <SCORE.INTRA.norm>
-0.0220921

>  <SCORE.RESTR>
0.623627

>  <SCORE.RESTR.CAVITY>
0.623627

>  <SCORE.RESTR.norm>
0.0230973

>  <SCORE.SYSTEM>
0

>  <SCORE.SYSTEM.CONST>
0

>  <SCORE.SYSTEM.DIHEDRAL>
0

>  <SCORE.SYSTEM.SOLV>
0

>  <SCORE.SYSTEM.norm>
0

>  <SCORE.heavy>
27

>  <SCORE.norm>
-0.562311

>  <RMSD>
18.915

$$$$
ligand
 OpenBabel02271912153D
libRbt.so/2013.1/901 2013/11/27
 27 29  0  0  0  0  0  0  0  0999 V2000
    8.7926   -3.6774   15.6398 N   0  0  0  0  0  0  0  0  0  0  0  0
    8.0055   -2.7342   16.4699 C   0  0  2  0  0  0  0  0  0  0  0  0
    6.5333   -3.0924   16.3131 C   0  0  0  0  0  0  0  0  0  0  0  0
    5.5798   -2.7259   17.0774 O   0  0  0  0  0  0  0  0  0  0  0  0
    8.3311   -1.3043   16.0327 C   0  0  0  0  0  0  0  0  0  0  0  0
    7.6694   -0.2537   16.9144 C   0  0  0  0  0  0  0  0  0  0  0  0
    8.1778    1.5063   16.9366 S   0  0  2  0  0  0  0  0  0  0  0  0
    8.1399    1.7780   18.7073 C   0  0  0  0  0  0  0  0  0  0  0  0
    6.6130    2.2345   16.3559 C   0  0  0  0  0  0  0  0  0  0  0  0
    6.5350    3.7025   16.6733 C   0  0  1  0  0  0  0  0  0  0  0  0
    7.6990    4.4321   16.2154 O   0  0  0  0  0  0  0  0  0  0  0  0
    5.3238    4.3993   16.0967 C   0  0  1  0  0  0  0  0  0  0  0  0
    4.3800    4.4862   17.0734 O   0  0  0  0  0  0  0  0  0  0  0  0
    5.8846    5.7870   15.8914 C   0  0  1  0  0  0  0  0  0  0  0  0
    5.7865    6.4032   17.0981 O   0  0  0  0  0  0  0  0  0  0  0  0
    7.3774    5.6143   15.5335 C   0  0  2  0  0  0  0  0  0  0  0  0
    6.2596   -3.8560   15.3854 O   0  0  0  0  0  0  0  0  0  0  0  0
    6.7343    7.1253   10.5859 N   0  0  0  0  0  0  0  0  0  0  0  0
    6.7531    7.8272   11.8380 C   0  0  0  0  0  0  0  0  0  0  0  0
    6.9495    7.2908   13.1347 N   0  0  0  0  0  0  0  0  0  0  0  0
    7.1354    6.0309   13.0904 C   0  0  0  0  0  0  0  0  0  0  0  0
    7.1401    5.2182   11.8534 C   0  0  0  0  0  0  0  0  0  0  0  0
    6.9355    5.7636   10.6474 C   0  0  0  0  0  0  0  0  0  0  0  0
    6.9454    4.9247    9.6319 N   0  0  0  0  0  0  0  0  0  0  0  0
    7.3407    3.9394   12.0648 N   0  0  0  0  0  0  0  0  0  0  0  0
    7.4686    3.9519   13.4415 C   0  0  0  0  0  0  0  0  0  0  0  0
    7.3497    5.2473   14.0917 N   0  0  0  0  0  0  0  0  0  0  0  0
  2  1  1  6  0  0  0
  2  3  1  0  0  0  0
  2  5  1  0  0  0  0
  3  4  1  0  0  0  0
  3 17  1  0  0  0  0
  5  6  1  0  0  0  0
  7  6  1  1  0  0  0
  7  8  1  0  0  0  0
  7  9  1  0  0  0  0
 10  9  1  6  0  0  0
 10 11  1  0  0  0  0
 10 12  1  0  0  0  0
 11 16  1  0  0  0  0
 12 13  1  1  0  0  0
 12 14  1  0  0  0  0
 14 15  1  1  0  0  0
 14 16  1  0  0  0  0
 16 27  1  6  0  0  0
 18 19  2  0  0  0  0
 18 23  1  0  0  0  0
 19 20  1  0  0  0  0
 20 21  2  0  0  0  0
 21 22  1  0  0  0  0
 21 27  1  0  0  0  0
 22 23  2  0  0  0  0
 22 25  1  0  0  0  0
 23 24  1  0  0  0  0
 25 26  2  0  0  0  0
 26 27  1  0  0  0  0
M  END
>  <CHROM.1>
163.11753222,-174.62589617,163.99975336,-136.84523071,161.63973061,51.95731164
-177.76199558,6.99383789,2.81627534,15.03989375,-1.19645993,1.40330668,-0.79994432

>  <Name>
ligand

>  <RI>
0

>  <Rbt.Current_Directory>
/home/itssahil/PROJECTS/Mol_Feturizer/Test_systems_manuscript/rnas/4aob

>  <Rbt.Executable>
rbdock ($Id: //depot/dev/client3/rdock/2013.1/src/exe/rbdock.cxx#4 $)

>  <Rbt.Library>
libRbt.so (2013.1, Build901 2013/11/27)

>  <Rbt.Parameter_File>
/export/apps/rDock/src/rDock_2013.1_src/data/scripts/dock_solv.prm

>  <Rbt.Receptor>
prm/blind_docking_20.prm

>  <SCORE>
-14.1609

>  <SCORE.INTER>
-16.1474

>  <SCORE.INTER.CONST>
1

>  <SCORE.INTER.POLAR>
0

>  <SCORE.INTER.ROT>
7

>  <SCORE.INTER.SOLV>
14.9785

>  <SCORE.INTER.VDW>
-24.0245

>  <SCORE.INTER.norm>
-0.598054

>  <SCORE.INTRA>
1.24207

>  <SCORE.INTRA.DIHEDRAL>
2.52947

>  <SCORE.INTRA.DIHEDRAL.0>
6.31833

>  <SCORE.INTRA.POLAR>
0

>  <SCORE.INTRA.POLAR.0>
0

>  <SCORE.INTRA.REPUL>
0

>  <SCORE.INTRA.REPUL.0>
0

>  <SCORE.INTRA.SOLV>
-0.713049

>  <SCORE.INTRA.SOLV.lig_0>
-48.4015

>  <SCORE.INTRA.VDW>
0.333861

>  <SCORE.INTRA.VDW.0>
-2.83256

>  <SCORE.INTRA.norm>
0.0460026

>  <SCORE.RESTR>
0.744443

>  <SCORE.RESTR.CAVITY>
0.744443

>  <SCORE.RESTR.norm>
0.0275719

>  <SCORE.SYSTEM>
0

>  <SCORE.SYSTEM.CONST>
0

>  <SCORE.SYSTEM.DIHEDRAL>
0

>  <SCORE.SYSTEM.SOLV>
0

>  <SCORE.SYSTEM.norm>
0

>  <SCORE.heavy>
27

>  <SCORE.norm>
-0.524479

>  <RMSD>
18.926

$$$$
ligand
 OpenBabel02271912153D
libRbt.so/2013.1/901 2013/11/27
 27 29  0  0  0  0  0  0  0  0999 V2000
    9.0273   -2.1004   14.8430 N   0  0  0  0  0  0  0  0  0  0  0  0
    8.0995   -2.3458   15.9732 C   0  0  2  0  0  0  0  0  0  0  0  0
    7.0592   -3.3579   15.5107 C   0  0  0  0  0  0  0  0  0  0  0  0
    7.0911   -4.0357   14.4305 O   0  0  0  0  0  0  0  0  0  0  0  0
    7.4932   -1.0106   16.4108 C   0  0  0  0  0  0  0  0  0  0  0  0
    8.5432   -0.0133   16.8822 C   0  0  0  0  0  0  0  0  0  0  0  0
    8.1293    1.5659   17.7137 S   0  0  2  0  0  0  0  0  0  0  0  0
    7.0197    0.9297   18.9686 C   0  0  0  0  0  0  0  0  0  0  0  0
    7.0066    2.2381   16.4473 C   0  0  0  0  0  0  0  0  0  0  0  0
    6.6362    3.6663   16.7389 C   0  0  1  0  0  0  0  0  0  0  0  0
    7.6615    4.6013   16.3248 O   0  0  0  0  0  0  0  0  0  0  0  0
    5.3442    4.1166   16.0962 C   0  0  1  0  0  0  0  0  0  0  0  0
    4.3548    4.0279   17.0265 O   0  0  0  0  0  0  0  0  0  0  0  0
    5.6408    5.5845   15.8966 C   0  0  1  0  0  0  0  0  0  0  0  0
    5.3691    6.1776   17.0882 O   0  0  0  0  0  0  0  0  0  0  0  0
    7.1548    5.6969   15.6112 C   0  0  2  0  0  0  0  0  0  0  0  0
    6.0692   -3.4827   16.2337 O   0  0  0  0  0  0  0  0  0  0  0  0
    6.8823    7.1594   10.6151 N   0  0  0  0  0  0  0  0  0  0  0  0
    6.7637    7.8667   11.8586 C   0  0  0  0  0  0  0  0  0  0  0  0
    6.8687    7.3442   13.1716 N   0  0  0  0  0  0  0  0  0  0  0  0
    7.1089    6.0929   13.1532 C   0  0  0  0  0  0  0  0  0  0  0  0
    7.2540    5.2760   11.9276 C   0  0  0  0  0  0  0  0  0  0  0  0
    7.1328    5.8074   10.7042 C   0  0  0  0  0  0  0  0  0  0  0  0
    7.2650    4.9654    9.6999 N   0  0  0  0  0  0  0  0  0  0  0  0
    7.4876    4.0074   12.1654 N   0  0  0  0  0  0  0  0  0  0  0  0
    7.4949    4.0309   13.5479 C   0  0  0  0  0  0  0  0  0  0  0  0
    7.2674    5.3229   14.1753 N   0  0  0  0  0  0  0  0  0  0  0  0
  2  1  1  6  0  0  0
  2  3  1  0  0  0  0
  2  5  1  0  0  0  0
  3  4  1  0  0  0  0
  3 17  1  0  0  0  0
  5  6  1  0  0  0  0
  7  6  1  6  0  0  0
  7  8  1  0  0  0  0
  7  9  1  0  0  0  0
 10  9  1  6  0  0  0
 10 11  1  0  0  0  0
 10 12  1  0  0  0  0
 11 16  1  0  0  0  0
 12 13  1  1  0  0  0
 12 14  1  0  0  0  0
 14 15  1  1  0  0  0
 14 16  1  0  0  0  0
 16 27  1  6  0  0  0
 18 19  2  0  0  0  0
 18 23  1  0  0  0  0
 19 20  1  0  0  0  0
 20 21  2  0  0  0  0
 21 22  1  0  0  0  0
 21 27  1  0  0  0  0
 22 23  2  0  0  0  0
 22 25  1  0  0  0  0
 23 24  1  0  0  0  0
 25 26  2  0  0  0  0
 26 27  1  0  0  0  0
M  END
>  <CHROM.1>
10.14788986,-60.63138900,-169.99782857,50.44406107,-171.30458504,80.60743937
-168.87658585,7.03891938,2.81350205,15.01431893,-1.20473583,1.36256913,-0.76611074

>  <Name>
ligand

>  <RI>
0

>  <Rbt.Current_Directory>
/home/itssahil/PROJECTS/Mol_Feturizer/Test_systems_manuscript/rnas/4aob

>  <Rbt.Executable>
rbdock ($Id: //depot/dev/client3/rdock/2013.1/src/exe/rbdock.cxx#4 $)

>  <Rbt.Library>
libRbt.so (2013.1, Build901 2013/11/27)

>  <Rbt.Parameter_File>
/export/apps/rDock/src/rDock_2013.1_src/data/scripts/dock_solv.prm

>  <Rbt.Receptor>
prm/blind_docking_20.prm

>  <SCORE>
-14.0785

>  <SCORE.INTER>
-15.0191

>  <SCORE.INTER.CONST>
1

>  <SCORE.INTER.POLAR>
0

>  <SCORE.INTER.ROT>
7

>  <SCORE.INTER.SOLV>
16.669

>  <SCORE.INTER.VDW>
-23.8357

>  <SCORE.INTER.norm>
-0.556262

>  <SCORE.INTRA>
0.531825

>  <SCORE.INTRA.DIHEDRAL>
-0.55821

>  <SCORE.INTRA.DIHEDRAL.0>
6.31833

>  <SCORE.INTRA.POLAR>
0

>  <SCORE.INTRA.POLAR.0>
0

>  <SCORE.INTRA.REPUL>
0

>  <SCORE.INTRA.REPUL.0>
0

>  <SCORE.INTRA.SOLV>
-0.155291

>  <SCORE.INTRA.SOLV.lig_0>
-48.4015

>  <SCORE.INTRA.VDW>
0.888575

>  <SCORE.INTRA.VDW.0>
-2.83256

>  <SCORE.INTRA.norm>
0.0196972

>  <SCORE.RESTR>
0.408767

>  <SCORE.RESTR.CAVITY>
0.408767

>  <SCORE.RESTR.norm>
0.0151395

>  <SCORE.SYSTEM>
0

>  <SCORE.SYSTEM.CONST>
0

>  <SCORE.SYSTEM.DIHEDRAL>
0

>  <SCORE.SYSTEM.SOLV>
0

>  <SCORE.SYSTEM.norm>
0

>  <SCORE.heavy>
27

>  <SCORE.norm>
-0.521425

>  <RMSD>
18.928

$$$$
ligand
 OpenBabel02271912153D
libRbt.so/2013.1/901 2013/11/27
 27 29  0  0  0  0  0  0  0  0999 V2000
    9.6872   -2.7189   14.5136 N   0  0  0  0  0  0  0  0  0  0  0  0
    8.7907   -2.3512   15.6359 C   0  0  2  0  0  0  0  0  0  0  0  0
    7.3986   -2.8777   15.3118 C   0  0  0  0  0  0  0  0  0  0  0  0
    6.2924   -2.2886   15.5504 O   0  0  0  0  0  0  0  0  0  0  0  0
    8.8358   -0.8333   15.8247 C   0  0  0  0  0  0  0  0  0  0  0  0
    7.9232   -0.3517   16.9446 C   0  0  0  0  0  0  0  0  0  0  0  0
    7.9427    1.3623   17.5916 S   0  0  2  0  0  0  0  0  0  0  0  0
    6.9936    1.0987   19.0884 C   0  0  0  0  0  0  0  0  0  0  0  0
    6.7346    2.0875   16.4380 C   0  0  0  0  0  0  0  0  0  0  0  0
    6.4896    3.5412   16.7359 C   0  0  1  0  0  0  0  0  0  0  0  0
    7.5943    4.3849   16.3298 O   0  0  0  0  0  0  0  0  0  0  0  0
    5.2443    4.1060   16.0915 C   0  0  1  0  0  0  0  0  0  0  0  0
    4.2476    4.0998   17.0184 O   0  0  0  0  0  0  0  0  0  0  0  0
    5.6690    5.5433   15.9005 C   0  0  1  0  0  0  0  0  0  0  0  0
    5.4461    6.1521   17.0942 O   0  0  0  0  0  0  0  0  0  0  0  0
    7.1880    5.5240   15.6203 C   0  0  2  0  0  0  0  0  0  0  0  0
    7.3494   -4.0074   14.8222 O   0  0  0  0  0  0  0  0  0  0  0  0
    6.6120    6.9240   10.6320 N   0  0  0  0  0  0  0  0  0  0  0  0
    6.4890    7.6298   11.8759 C   0  0  0  0  0  0  0  0  0  0  0  0
    6.6840    7.1267   13.1862 N   0  0  0  0  0  0  0  0  0  0  0  0
    7.0168    5.8968   13.1642 C   0  0  0  0  0  0  0  0  0  0  0  0
    7.1752    5.0838   11.9377 C   0  0  0  0  0  0  0  0  0  0  0  0
    6.9668    5.5953   10.7175 C   0  0  0  0  0  0  0  0  0  0  0  0
    7.1228    4.7580    9.7128 N   0  0  0  0  0  0  0  0  0  0  0  0
    7.5127    3.8382   12.1720 N   0  0  0  0  0  0  0  0  0  0  0  0
    7.5720    3.8727   13.5530 C   0  0  0  0  0  0  0  0  0  0  0  0
    7.2724    5.1487   14.1829 N   0  0  0  0  0  0  0  0  0  0  0  0
  2  1  1  6  0  0  0
  2  3  1  0  0  0  0
  2  5  1  0  0  0  0
  3  4  1  0  0  0  0
  3 17  1  0  0  0  0
  5  6  1  0  0  0  0
  7  6  1  6  0  0  0
  7  8  1  0  0  0  0
  7  9  1  0  0  0  0
 10  9  1  6  0  0  0
 10 11  1  0  0  0  0
 10 12  1  0  0  0  0
 11 16  1  0  0  0  0
 12 13  1  1  0  0  0
 12 14  1  0  0  0  0
 14 15  1  1  0  0  0
 14 16  1  0  0  0  0
 16 27  1  6  0  0  0
 18 19  2  0  0  0  0
 18 23  1  0  0  0  0
 19 20  1  0  0  0  0
 20 21  2  0  0  0  0
 21 22  1  0  0  0  0
 21 27  1  0  0  0  0
 22 23  2  0  0  0  0
 22 25  1  0  0  0  0
 23 24  1  0  0  0  0
 25 26  2  0  0  0  0
 26 27  1  0  0  0  0
M  END
>  <CHROM.1>
-141.38241695,178.96237230,170.20342796,-166.11848017,178.55423988,73.96119778
-178.54476186,7.06873958,2.74931138,14.95276949,-1.04974063,1.27566337,-0.89406664

>  <Name>
ligand

>  <RI>
0

>  <Rbt.Current_Directory>
/home/itssahil/PROJECTS/Mol_Feturizer/Test_systems_manuscript/rnas/4aob

>  <Rbt.Executable>
rbdock ($Id: //depot/dev/client3/rdock/2013.1/src/exe/rbdock.cxx#4 $)

>  <Rbt.Library>
libRbt.so (2013.1, Build901 2013/11/27)

>  <Rbt.Parameter_File>
/export/apps/rDock/src/rDock_2013.1_src/data/scripts/dock_solv.prm

>  <Rbt.Receptor>
prm/blind_docking_20.prm

>  <SCORE>
-14.2577

>  <SCORE.INTER>
-14.3991

>  <SCORE.INTER.CONST>
1

>  <SCORE.INTER.POLAR>
0

>  <SCORE.INTER.ROT>
7

>  <SCORE.INTER.SOLV>
15.164

>  <SCORE.INTER.VDW>
-22.9207

>  <SCORE.INTER.norm>
-0.5333

>  <SCORE.INTRA>
-0.387186

>  <SCORE.INTRA.DIHEDRAL>
-0.882761

>  <SCORE.INTRA.DIHEDRAL.0>
6.31833

>  <SCORE.INTRA.POLAR>
0

>  <SCORE.INTRA.POLAR.0>
0

>  <SCORE.INTRA.REPUL>
0

>  <SCORE.INTRA.REPUL.0>
0

>  <SCORE.INTRA.SOLV>
-0.809367

>  <SCORE.INTRA.SOLV.lig_0>
-48.4015

>  <SCORE.INTRA.VDW>
0.458878

>  <SCORE.INTRA.VDW.0>
-2.83256

>  <SCORE.INTRA.norm>
-0.0143402

>  <SCORE.RESTR>
0.528554

>  <SCORE.RESTR.CAVITY>
0.528554

>  <SCORE.RESTR.norm>
0.0195761

>  <SCORE.SYSTEM>
0

>  <SCORE.SYSTEM.CONST>
0

>  <SCORE.SYSTEM.DIHEDRAL>
0

>  <SCORE.SYSTEM.SOLV>
0

>  <SCORE.SYSTEM.norm>
0

>  <SCORE.heavy>
27

>  <SCORE.norm>
-0.528064

>  <RMSD>
18.930

$$$$
ligand
 OpenBabel02271912153D
libRbt.so/2013.1/901 2013/11/27
 27 29  0  0  0  0  0  0  0  0999 V2000
    6.8949   -3.6845   15.3717 N   0  0  0  0  0  0  0  0  0  0  0  0
    7.0857   -2.8119   16.5551 C   0  0  2  0  0  0  0  0  0  0  0  0
    5.9242   -3.0599   17.5090 C   0  0  0  0  0  0  0  0  0  0  0  0
    6.0041   -3.5291   18.6926 O   0  0  0  0  0  0  0  0  0  0  0  0
    7.1838   -1.3591   16.0845 C   0  0  0  0  0  0  0  0  0  0  0  0
    7.5187   -0.3951   17.2149 C   0  0  0  0  0  0  0  0  0  0  0  0
    8.0581    1.3335   16.9364 S   0  0  2  0  0  0  0  0  0  0  0  0
    8.1414    1.8707   18.6438 C   0  0  0  0  0  0  0  0  0  0  0  0
    6.4714    2.0078   16.3500 C   0  0  0  0  0  0  0  0  0  0  0  0
    6.3348    3.4682   16.6824 C   0  0  1  0  0  0  0  0  0  0  0  0
    7.4922    4.2397   16.2800 O   0  0  0  0  0  0  0  0  0  0  0  0
    5.1257    4.1348   16.0669 C   0  0  1  0  0  0  0  0  0  0  0  0
    4.1420    4.1790   17.0066 O   0  0  0  0  0  0  0  0  0  0  0  0
    5.6501    5.5420   15.9013 C   0  0  1  0  0  0  0  0  0  0  0  0
    5.4853    6.1383   17.1108 O   0  0  0  0  0  0  0  0  0  0  0  0
    7.1604    5.4207   15.6007 C   0  0  2  0  0  0  0  0  0  0  0  0
    4.7994   -2.8324   17.0601 O   0  0  0  0  0  0  0  0  0  0  0  0
    6.5706    6.9552   10.6538 N   0  0  0  0  0  0  0  0  0  0  0  0
    6.5051    7.6393   11.9141 C   0  0  0  0  0  0  0  0  0  0  0  0
    6.6967    7.0989   13.2098 N   0  0  0  0  0  0  0  0  0  0  0  0
    6.9661    5.8546   13.1564 C   0  0  0  0  0  0  0  0  0  0  0  0
    7.0619    5.0612   11.9106 C   0  0  0  0  0  0  0  0  0  0  0  0
    6.8588    5.6088   10.7053 C   0  0  0  0  0  0  0  0  0  0  0  0
    6.9548    4.7866    9.6807 N   0  0  0  0  0  0  0  0  0  0  0  0
    7.3395    3.7954   12.1129 N   0  0  0  0  0  0  0  0  0  0  0  0
    7.4243    3.7970   13.4930 C   0  0  0  0  0  0  0  0  0  0  0  0
    7.2009    5.0727   14.1545 N   0  0  0  0  0  0  0  0  0  0  0  0
  2  1  1  6  0  0  0
  2  3  1  0  0  0  0
  2  5  1  0  0  0  0
  3  4  1  0  0  0  0
  3 17  1  0  0  0  0
  5  6  1  0  0  0  0
  7  6  1  1  0  0  0
  7  8  1  0  0  0  0
  7  9  1  0  0  0  0
 10  9  1  6  0  0  0
 10 11  1  0  0  0  0
 10 12  1  0  0  0  0
 11 16  1  0  0  0  0
 12 13  1  1  0  0  0
 12 14  1  0  0  0  0
 14 15  1  1  0  0  0
 14 16  1  0  0  0  0
 16 27  1  6  0  0  0
 18 19  2  0  0  0  0
 18 23  1  0  0  0  0
 19 20  1  0  0  0  0
 20 21  2  0  0  0  0
 21 22  1  0  0  0  0
 21 27  1  0  0  0  0
 22 23  2  0  0  0  0
 22 25  1  0  0  0  0
 23 24  1  0  0  0  0
 25 26  2  0  0  0  0
 26 27  1  0  0  0  0
M  END
>  <CHROM.1>
117.22326383,-174.32281862,166.37001113,175.92683327,150.81631559,50.13431272
-179.78084868,6.67450652,2.68009808,15.23739829,-1.65502729,1.42263927,-0.43953049

>  <Name>
ligand

>  <RI>
0

>  <Rbt.Current_Directory>
/home/itssahil/PROJECTS/Mol_Feturizer/Test_systems_manuscript/rnas/4aob

>  <Rbt.Executable>
rbdock ($Id: //depot/dev/client3/rdock/2013.1/src/exe/rbdock.cxx#4 $)

>  <Rbt.Library>
libRbt.so (2013.1, Build901 2013/11/27)

>  <Rbt.Parameter_File>
/export/apps/rDock/src/rDock_2013.1_src/data/scripts/dock_solv.prm

>  <Rbt.Receptor>
prm/blind_docking_20.prm

>  <SCORE>
-14.7243

>  <SCORE.INTER>
-15.1269

>  <SCORE.INTER.CONST>
1

>  <SCORE.INTER.POLAR>
0

>  <SCORE.INTER.ROT>
7

>  <SCORE.INTER.SOLV>
19.8131

>  <SCORE.INTER.VDW>
-24.9556

>  <SCORE.INTER.norm>
-0.560256

>  <SCORE.INTRA>
-0.44824

>  <SCORE.INTRA.DIHEDRAL>
-1.00701

>  <SCORE.INTRA.DIHEDRAL.0>
6.31833

>  <SCORE.INTRA.POLAR>
0

>  <SCORE.INTRA.POLAR.0>
0

>  <SCORE.INTRA.REPUL>
0

>  <SCORE.INTRA.REPUL.0>
0

>  <SCORE.INTRA.SOLV>
-0.71703

>  <SCORE.INTRA.SOLV.lig_0>
-48.4015

>  <SCORE.INTRA.VDW>
0.413782

>  <SCORE.INTRA.VDW.0>
-2.83256

>  <SCORE.INTRA.norm>
-0.0166015

>  <SCORE.RESTR>
0.850832

>  <SCORE.RESTR.CAVITY>
0.850832

>  <SCORE.RESTR.norm>
0.0315123

>  <SCORE.SYSTEM>
0

>  <SCORE.SYSTEM.CONST>
0

>  <SCORE.SYSTEM.DIHEDRAL>
0

>  <SCORE.SYSTEM.SOLV>
0

>  <SCORE.SYSTEM.norm>
0

>  <SCORE.heavy>
27

>  <SCORE.norm>
-0.545345

>  <RMSD>
18.932

$$$$
ligand
 OpenBabel02271912153D
libRbt.so/2013.1/901 2013/11/27
 27 29  0  0  0  0  0  0  0  0999 V2000
    9.4666   -3.0605   14.7938 N   0  0  0  0  0  0  0  0  0  0  0  0
    8.5386   -2.5611   15.8368 C   0  0  2  0  0  0  0  0  0  0  0  0
    7.1480   -3.0943   15.5172 C   0  0  0  0  0  0  0  0  0  0  0  0
    6.0662   -2.7990   16.1255 O   0  0  0  0  0  0  0  0  0  0  0  0
    8.6094   -1.0328   15.8675 C   0  0  0  0  0  0  0  0  0  0  0  0
    7.7174   -0.4233   16.9408 C   0  0  0  0  0  0  0  0  0  0  0  0
    7.8725    1.3103   17.5128 S   0  0  2  0  0  0  0  0  0  0  0  0
    7.0000    1.1617   19.0708 C   0  0  0  0  0  0  0  0  0  0  0  0
    6.6416    2.0605   16.4000 C   0  0  0  0  0  0  0  0  0  0  0  0
    6.4276    3.5158   16.7132 C   0  0  1  0  0  0  0  0  0  0  0  0
    7.5570    4.3378   16.3313 O   0  0  0  0  0  0  0  0  0  0  0  0
    5.2042    4.1182   16.0610 C   0  0  1  0  0  0  0  0  0  0  0  0
    4.1962    4.1245   16.9756 O   0  0  0  0  0  0  0  0  0  0  0  0
    5.6653    5.5471   15.8933 C   0  0  1  0  0  0  0  0  0  0  0  0
    5.4421    6.1464   17.0919 O   0  0  0  0  0  0  0  0  0  0  0  0
    7.1868    5.4950   15.6314 C   0  0  2  0  0  0  0  0  0  0  0  0
    7.0856   -3.9334   14.6170 O   0  0  0  0  0  0  0  0  0  0  0  0
    6.8196    7.0008   10.6542 N   0  0  0  0  0  0  0  0  0  0  0  0
    6.7139    7.6953   11.9060 C   0  0  0  0  0  0  0  0  0  0  0  0
    6.8451    7.1618   13.2122 N   0  0  0  0  0  0  0  0  0  0  0  0
    7.0975    5.9133   13.1783 C   0  0  0  0  0  0  0  0  0  0  0  0
    7.2313    5.1092   11.9429 C   0  0  0  0  0  0  0  0  0  0  0  0
    7.0851    5.6506   10.7266 C   0  0  0  0  0  0  0  0  0  0  0  0
    7.2097    4.8194    9.7125 N   0  0  0  0  0  0  0  0  0  0  0  0
    7.4813    3.8410   12.1650 N   0  0  0  0  0  0  0  0  0  0  0  0
    7.5106    3.8518   13.5473 C   0  0  0  0  0  0  0  0  0  0  0  0
    7.2801    5.1355   14.1904 N   0  0  0  0  0  0  0  0  0  0  0  0
  2  1  1  6  0  0  0
  2  3  1  0  0  0  0
  2  5  1  0  0  0  0
  3  4  1  0  0  0  0
  3 17  1  0  0  0  0
  5  6  1  0  0  0  0
  7  6  1  6  0  0  0
  7  8  1  0  0  0  0
  7  9  1  0  0  0  0
 10  9  1  6  0  0  0
 10 11  1  0  0  0  0
 10 12  1  0  0  0  0
 11 16  1  0  0  0  0
 12 13  1  1  0  0  0
 12 14  1  0  0  0  0
 14 15  1  1  0  0  0
 14 16  1  0  0  0  0
 16 27  1  6  0  0  0
 18 19  2  0  0  0  0
 18 23  1  0  0  0  0
 19 20  1  0  0  0  0
 20 21  2  0  0  0  0
 21 22  1  0  0  0  0
 21 27  1  0  0  0  0
 22 23  2  0  0  0  0
 22 25  1  0  0  0  0
 23 24  1  0  0  0  0
 25 26  2  0  0  0  0
 26 27  1  0  0  0  0
M  END
>  <CHROM.1>
-174.24771910,-178.29614311,164.54662597,-161.10132255,174.58665679,71.46318370
-176.08770137,7.02124389,2.70072123,14.98380305,-1.18407802,1.28808420,-0.76475176

>  <Name>
ligand

>  <RI>
0

>  <Rbt.Current_Directory>
/home/itssahil/PROJECTS/Mol_Feturizer/Test_systems_manuscript/rnas/4aob

>  <Rbt.Executable>
rbdock ($Id: //depot/dev/client3/rdock/2013.1/src/exe/rbdock.cxx#4 $)

>  <Rbt.Library>
libRbt.so (2013.1, Build901 2013/11/27)

>  <Rbt.Parameter_File>
/export/apps/rDock/src/rDock_2013.1_src/data/scripts/dock_solv.prm

>  <Rbt.Receptor>
prm/blind_docking_20.prm

>  <SCORE>
-14.6021

>  <SCORE.INTER>
-15.1069

>  <SCORE.INTER.CONST>
1

>  <SCORE.INTER.POLAR>
0

>  <SCORE.INTER.ROT>
7

>  <SCORE.INTER.SOLV>
15

>  <SCORE.INTER.VDW>
-23.3379

>  <SCORE.INTER.norm>
-0.559514

>  <SCORE.INTRA>
-0.0289129

>  <SCORE.INTRA.DIHEDRAL>
-0.124461

>  <SCORE.INTRA.DIHEDRAL.0>
6.31833

>  <SCORE.INTRA.POLAR>
0

>  <SCORE.INTRA.POLAR.0>
0

>  <SCORE.INTRA.REPUL>
0

>  <SCORE.INTRA.REPUL.0>
0

>  <SCORE.INTRA.SOLV>
-0.772225

>  <SCORE.INTRA.SOLV.lig_0>
-48.4015

>  <SCORE.INTRA.VDW>
0.41943

>  <SCORE.INTRA.VDW.0>
-2.83256

>  <SCORE.INTRA.norm>
-0.00107085

>  <SCORE.RESTR>
0.533728

>  <SCORE.RESTR.CAVITY>
0.533728

>  <SCORE.RESTR.norm>
0.0197677

>  <SCORE.SYSTEM>
0

>  <SCORE.SYSTEM.CONST>
0

>  <SCORE.SYSTEM.DIHEDRAL>
0

>  <SCORE.SYSTEM.SOLV>
0

>  <SCORE.SYSTEM.norm>
0

>  <SCORE.heavy>
27

>  <SCORE.norm>
-0.540818

>  <RMSD>
18.943

$$$$
ligand
 OpenBabel02271912153D
libRbt.so/2013.1/901 2013/11/27
 27 29  0  0  0  0  0  0  0  0999 V2000
    8.0894   -3.4240   17.3262 N   0  0  0  0  0  0  0  0  0  0  0  0
    8.3184   -2.2052   16.5135 C   0  0  2  0  0  0  0  0  0  0  0  0
    9.5124   -2.4686   15.6050 C   0  0  0  0  0  0  0  0  0  0  0  0
   10.5508   -3.1490   15.8985 O   0  0  0  0  0  0  0  0  0  0  0  0
    8.5243   -1.0171   17.4557 C   0  0  0  0  0  0  0  0  0  0  0  0
    8.7379    0.2944   16.7117 C   0  0  0  0  0  0  0  0  0  0  0  0
    8.5276    1.9391   17.4912 S   0  0  2  0  0  0  0  0  0  0  0  0
    6.8532    1.7408   18.0974 C   0  0  0  0  0  0  0  0  0  0  0  0
    8.3217    2.9207   15.9712 C   0  0  0  0  0  0  0  0  0  0  0  0
    7.7077    4.2632   16.2592 C   0  0  1  0  0  0  0  0  0  0  0  0
    8.3175    5.3287   15.4912 O   0  0  0  0  0  0  0  0  0  0  0  0
    6.2194    4.3331   16.0044 C   0  0  1  0  0  0  0  0  0  0  0  0
    5.5777    4.1655   17.1929 O   0  0  0  0  0  0  0  0  0  0  0  0
    6.0804    5.7880   15.6219 C   0  0  1  0  0  0  0  0  0  0  0  0
    6.0107    6.4694   16.7951 O   0  0  0  0  0  0  0  0  0  0  0  0
    7.3815    6.1804   14.8875 C   0  0  2  0  0  0  0  0  0  0  0  0
    9.4831   -1.9189   14.5026 O   0  0  0  0  0  0  0  0  0  0  0  0
    6.5879    7.1367    9.8248 N   0  0  0  0  0  0  0  0  0  0  0  0
    6.8154    7.9790   10.9647 C   0  0  0  0  0  0  0  0  0  0  0  0
    7.0291    7.5864   12.3094 N   0  0  0  0  0  0  0  0  0  0  0  0
    7.0128    6.3179   12.4286 C   0  0  0  0  0  0  0  0  0  0  0  0
    6.7923    5.3653   11.3176 C   0  0  0  0  0  0  0  0  0  0  0  0
    6.5793    5.7794   10.0618 C   0  0  0  0  0  0  0  0  0  0  0  0
    6.3776    4.8284    9.1730 N   0  0  0  0  0  0  0  0  0  0  0  0
    6.8081    4.1081   11.6913 N   0  0  0  0  0  0  0  0  0  0  0  0
    7.0459    4.2739   13.0433 C   0  0  0  0  0  0  0  0  0  0  0  0
    7.1821    5.6430   13.5142 N   0  0  0  0  0  0  0  0  0  0  0  0
  2  1  1  1  0  0  0
  2  3  1  0  0  0  0
  2  5  1  0  0  0  0
  3  4  1  0  0  0  0
  3 17  1  0  0  0  0
  5  6  1  0  0  0  0
  7  6  1  6  0  0  0
  7  8  1  0  0  0  0
  7  9  1  0  0  0  0
 10  9  1  6  0  0  0
 10 11  1  0  0  0  0
 10 12  1  0  0  0  0
 11 16  1  0  0  0  0
 12 13  1  1  0  0  0
 12 14  1  0  0  0  0
 14 15  1  1  0  0  0
 14 16  1  0  0  0  0
 16 27  1  6  0  0  0
 18 19  2  0  0  0  0
 18 23  1  0  0  0  0
 19 20  1  0  0  0  0
 20 21  2  0  0  0  0
 21 22  1  0  0  0  0
 21 27  1  0  0  0  0
 22 23  2  0  0  0  0
 22 25  1  0  0  0  0
 23 24  1  0  0  0  0
 25 26  2  0  0  0  0
 26 27  1  0  0  0  0
M  END
>  <CHROM.1>
-36.00185231,-178.72944604,161.55432563,-54.89563215,162.38382393,139.25197063
-142.22559622,7.56731911,3.13097556,14.76153325,-0.71093759,1.26076834,-1.37627435

>  <Name>
ligand

>  <RI>
0

>  <Rbt.Current_Directory>
/home/itssahil/PROJECTS/Mol_Feturizer/Test_systems_manuscript/rnas/4aob

>  <Rbt.Executable>
rbdock ($Id: //depot/dev/client3/rdock/2013.1/src/exe/rbdock.cxx#4 $)

>  <Rbt.Library>
libRbt.so (2013.1, Build901 2013/11/27)

>  <Rbt.Parameter_File>
/export/apps/rDock/src/rDock_2013.1_src/data/scripts/dock_solv.prm

>  <Rbt.Receptor>
prm/blind_docking_20.prm

>  <SCORE>
-7.93846

>  <SCORE.INTER>
-9.88262

>  <SCORE.INTER.CONST>
1

>  <SCORE.INTER.POLAR>
0

>  <SCORE.INTER.ROT>
7

>  <SCORE.INTER.SOLV>
15.5657

>  <SCORE.INTER.VDW>
-20.0437

>  <SCORE.INTER.norm>
-0.366023

>  <SCORE.INTRA>
1.94416

>  <SCORE.INTRA.DIHEDRAL>
2.47146

>  <SCORE.INTRA.DIHEDRAL.0>
6.31833

>  <SCORE.INTRA.POLAR>
0

>  <SCORE.INTRA.POLAR.0>
0

>  <SCORE.INTRA.REPUL>
0

>  <SCORE.INTRA.REPUL.0>
0

>  <SCORE.INTRA.SOLV>
-0.575011

>  <SCORE.INTRA.SOLV.lig_0>
-48.4015

>  <SCORE.INTRA.VDW>
0.995934

>  <SCORE.INTRA.VDW.0>
-2.83256

>  <SCORE.INTRA.norm>
0.0720059

>  <SCORE.RESTR>
0

>  <SCORE.RESTR.CAVITY>
0

>  <SCORE.RESTR.norm>
0

>  <SCORE.SYSTEM>
0

>  <SCORE.SYSTEM.CONST>
0

>  <SCORE.SYSTEM.DIHEDRAL>
0

>  <SCORE.SYSTEM.SOLV>
0

>  <SCORE.SYSTEM.norm>
0

>  <SCORE.heavy>
27

>  <SCORE.norm>
-0.294017

>  <RMSD>
18.989

$$$$
ligand
 OpenBabel02271912153D
libRbt.so/2013.1/901 2013/11/27
 27 29  0  0  0  0  0  0  0  0999 V2000
    9.0351   -2.1397   14.8834 N   0  0  0  0  0  0  0  0  0  0  0  0
    8.0616   -2.3133   15.9882 C   0  0  2  0  0  0  0  0  0  0  0  0
    7.0039   -3.3069   15.5254 C   0  0  0  0  0  0  0  0  0  0  0  0
    7.0082   -3.9613   14.4303 O   0  0  0  0  0  0  0  0  0  0  0  0
    7.4866   -0.9439   16.3570 C   0  0  0  0  0  0  0  0  0  0  0  0
    8.5449    0.0174   16.8816 C   0  0  0  0  0  0  0  0  0  0  0  0
    8.1433    1.6015   17.7098 S   0  0  2  0  0  0  0  0  0  0  0  0
    7.0036    0.9811   18.9455 C   0  0  0  0  0  0  0  0  0  0  0  0
    7.0520    2.2941   16.4270 C   0  0  0  0  0  0  0  0  0  0  0  0
    6.7302    3.7385   16.6959 C   0  0  1  0  0  0  0  0  0  0  0  0
    7.7395    4.6380   16.1772 O   0  0  0  0  0  0  0  0  0  0  0  0
    5.4032    4.1944   16.1335 C   0  0  1  0  0  0  0  0  0  0  0  0
    4.4829    4.1566   17.1355 O   0  0  0  0  0  0  0  0  0  0  0  0
    5.7114    5.6485   15.8632 C   0  0  1  0  0  0  0  0  0  0  0  0
    5.5383    6.2857   17.0505 O   0  0  0  0  0  0  0  0  0  0  0  0
    7.2022    5.7200   15.4653 C   0  0  2  0  0  0  0  0  0  0  0  0
    6.0278   -3.4397   16.2657 O   0  0  0  0  0  0  0  0  0  0  0  0
    6.6098    7.0282   10.4541 N   0  0  0  0  0  0  0  0  0  0  0  0
    6.5978    7.7779   11.6781 C   0  0  0  0  0  0  0  0  0  0  0  0
    6.7833    7.2953   12.9974 N   0  0  0  0  0  0  0  0  0  0  0  0
    6.9907    6.0380   13.0046 C   0  0  0  0  0  0  0  0  0  0  0  0
    7.0277    5.1785   11.8003 C   0  0  0  0  0  0  0  0  0  0  0  0
    6.8325    5.6735   10.5711 C   0  0  0  0  0  0  0  0  0  0  0  0
    6.8719    4.7964    9.5892 N   0  0  0  0  0  0  0  0  0  0  0  0
    7.2463    3.9124   12.0639 N   0  0  0  0  0  0  0  0  0  0  0  0
    7.3530    3.9801   13.4409 C   0  0  0  0  0  0  0  0  0  0  0  0
    7.2027    5.2973   14.0385 N   0  0  0  0  0  0  0  0  0  0  0  0
  2  1  1  6  0  0  0
  2  3  1  0  0  0  0
  2  5  1  0  0  0  0
  3  4  1  0  0  0  0
  3 17  1  0  0  0  0
  5  6  1  0  0  0  0
  7  6  1  6  0  0  0
  7  8  1  0  0  0  0
  7  9  1  0  0  0  0
 10  9  1  6  0  0  0
 10 11  1  0  0  0  0
 10 12  1  0  0  0  0
 11 16  1  0  0  0  0
 12 13  1  1  0  0  0
 12 14  1  0  0  0  0
 14 15  1  1  0  0  0
 14 16  1  0  0  0  0
 16 27  1  6  0  0  0
 18 19  2  0  0  0  0
 18 23  1  0  0  0  0
 19 20  1  0  0  0  0
 20 21  2  0  0  0  0
 21 22  1  0  0  0  0
 21 27  1  0  0  0  0
 22 23  2  0  0  0  0
 22 25  1  0  0  0  0
 23 24  1  0  0  0  0
 25 26  2  0  0  0  0
 26 27  1  0  0  0  0
M  END
>  <CHROM.1>
5.35982825,-62.89769475,-167.57437842,52.19373120,-169.76447286,85.32855834
-168.50374910,6.99031215,2.81912313,14.95884832,-0.97633368,1.41032070,-1.01537685

>  <Name>
ligand

>  <RI>
0

>  <Rbt.Current_Directory>
/home/itssahil/PROJECTS/Mol_Feturizer/Test_systems_manuscript/rnas/4aob

>  <Rbt.Executable>
rbdock ($Id: //depot/dev/client3/rdock/2013.1/src/exe/rbdock.cxx#4 $)

>  <Rbt.Library>
libRbt.so (2013.1, Build901 2013/11/27)

>  <Rbt.Parameter_File>
/export/apps/rDock/src/rDock_2013.1_src/data/scripts/dock_solv.prm

>  <Rbt.Receptor>
prm/blind_docking_20.prm

>  <SCORE>
-13.553

>  <SCORE.INTER>
-14.7484

>  <SCORE.INTER.CONST>
1

>  <SCORE.INTER.POLAR>
0

>  <SCORE.INTER.ROT>
7

>  <SCORE.INTER.SOLV>
17.0685

>  <SCORE.INTER.VDW>
-23.7884

>  <SCORE.INTER.norm>
-0.546236

>  <SCORE.INTRA>
0.839117

>  <SCORE.INTRA.DIHEDRAL>
0.371084

>  <SCORE.INTRA.DIHEDRAL.0>
6.31833

>  <SCORE.INTRA.POLAR>
0

>  <SCORE.INTRA.POLAR.0>
0

>  <SCORE.INTRA.REPUL>
0

>  <SCORE.INTRA.REPUL.0>
0

>  <SCORE.INTRA.SOLV>
-0.172933

>  <SCORE.INTRA.SOLV.lig_0>
-48.4015

>  <SCORE.INTRA.VDW>
0.740042

>  <SCORE.INTRA.VDW.0>
-2.83256

>  <SCORE.INTRA.norm>
0.0310784

>  <SCORE.RESTR>
0.356222

>  <SCORE.RESTR.CAVITY>
0.356222

>  <SCORE.RESTR.norm>
0.0131934

>  <SCORE.SYSTEM>
0

>  <SCORE.SYSTEM.CONST>
0

>  <SCORE.SYSTEM.DIHEDRAL>
0

>  <SCORE.SYSTEM.SOLV>
0

>  <SCORE.SYSTEM.norm>
0

>  <SCORE.heavy>
27

>  <SCORE.norm>
-0.501964

>  <RMSD>
19.002

$$$$
ligand
 OpenBabel02271912153D
libRbt.so/2013.1/901 2013/11/27
 27 29  0  0  0  0  0  0  0  0999 V2000
    8.5696   -3.9259   16.6195 N   0  0  0  0  0  0  0  0  0  0  0  0
    7.6526   -2.8060   16.9411 C   0  0  2  0  0  0  0  0  0  0  0  0
    6.2332   -3.2615   16.6277 C   0  0  0  0  0  0  0  0  0  0  0  0
    5.2151   -3.1416   17.3871 O   0  0  0  0  0  0  0  0  0  0  0  0
    8.0833   -1.5729   16.1438 C   0  0  0  0  0  0  0  0  0  0  0  0
    7.1593   -0.3813   16.3570 C   0  0  0  0  0  0  0  0  0  0  0  0
    7.7152    1.2054   17.0849 S   0  0  2  0  0  0  0  0  0  0  0  0
    7.0188    1.0113   18.7244 C   0  0  0  0  0  0  0  0  0  0  0  0
    6.5326    2.3044   16.2423 C   0  0  0  0  0  0  0  0  0  0  0  0
    6.8267    3.7523   16.5234 C   0  0  1  0  0  0  0  0  0  0  0  0
    8.0672    4.1940   15.9210 O   0  0  0  0  0  0  0  0  0  0  0  0
    5.7488    4.7061   16.0614 C   0  0  1  0  0  0  0  0  0  0  0  0
    4.9652    5.0105   17.1318 O   0  0  0  0  0  0  0  0  0  0  0  0
    6.5839    5.9276   15.7563 C   0  0  1  0  0  0  0  0  0  0  0  0
    6.7644    6.5541   16.9481 O   0  0  0  0  0  0  0  0  0  0  0  0
    7.9484    5.4161   15.2439 C   0  0  2  0  0  0  0  0  0  0  0  0
    6.0798   -3.8507   15.5564 O   0  0  0  0  0  0  0  0  0  0  0  0
    6.5608    6.9802   10.4687 N   0  0  0  0  0  0  0  0  0  0  0  0
    6.8036    7.6725   11.7025 C   0  0  0  0  0  0  0  0  0  0  0  0
    7.1905    7.1214   12.9493 N   0  0  0  0  0  0  0  0  0  0  0  0
    7.3275    5.8568   12.8730 C   0  0  0  0  0  0  0  0  0  0  0  0
    7.1067    5.0530   11.6501 C   0  0  0  0  0  0  0  0  0  0  0  0
    6.7268    5.6127   10.4941 C   0  0  0  0  0  0  0  0  0  0  0  0
    6.5462    4.7809    9.4888 N   0  0  0  0  0  0  0  0  0  0  0  0
    7.2990    3.7672   11.8236 N   0  0  0  0  0  0  0  0  0  0  0  0
    7.6483    3.7662   13.1615 C   0  0  0  0  0  0  0  0  0  0  0  0
    7.6765    5.0600   13.8248 N   0  0  0  0  0  0  0  0  0  0  0  0
  2  1  1  6  0  0  0
  2  3  1  0  0  0  0
  2  5  1  0  0  0  0
  3  4  1  0  0  0  0
  3 17  1  0  0  0  0
  5  6  1  0  0  0  0
  7  6  1  6  0  0  0
  7  8  1  0  0  0  0
  7  9  1  0  0  0  0
 10  9  1  6  0  0  0
 10 11  1  0  0  0  0
 10 12  1  0  0  0  0
 11 16  1  0  0  0  0
 12 13  1  1  0  0  0
 12 14  1  0  0  0  0
 14 15  1  1  0  0  0
 14 16  1  0  0  0  0
 16 27  1  6  0  0  0
 18 19  2  0  0  0  0
 18 23  1  0  0  0  0
 19 20  1  0  0  0  0
 20 21  2  0  0  0  0
 21 22  1  0  0  0  0
 21 27  1  0  0  0  0
 22 23  2  0  0  0  0
 22 25  1  0  0  0  0
 23 24  1  0  0  0  0
 25 26  2  0  0  0  0
 26 27  1  0  0  0  0
M  END
>  <CHROM.1>
131.92927634,177.31891306,118.17444765,-103.71592253,-173.82193421,68.08217265
170.36424240,6.98051638,2.68995333,15.01203501,-1.43988793,1.51959832,-0.60331928

>  <Name>
ligand

>  <RI>
0

>  <Rbt.Current_Directory>
/home/itssahil/PROJECTS/Mol_Feturizer/Test_systems_manuscript/rnas/4aob

>  <Rbt.Executable>
rbdock ($Id: //depot/dev/client3/rdock/2013.1/src/exe/rbdock.cxx#4 $)

>  <Rbt.Library>
libRbt.so (2013.1, Build901 2013/11/27)

>  <Rbt.Parameter_File>
/export/apps/rDock/src/rDock_2013.1_src/data/scripts/dock_solv.prm

>  <Rbt.Receptor>
prm/blind_docking_20.prm

>  <SCORE>
-10.9841

>  <SCORE.INTER>
-14.0934

>  <SCORE.INTER.CONST>
1

>  <SCORE.INTER.POLAR>
0

>  <SCORE.INTER.ROT>
7

>  <SCORE.INTER.SOLV>
14.9628

>  <SCORE.INTER.VDW>
-22.6499

>  <SCORE.INTER.norm>
-0.521977

>  <SCORE.INTRA>
2.78405

>  <SCORE.INTRA.DIHEDRAL>
6.29864

>  <SCORE.INTRA.DIHEDRAL.0>
6.31833

>  <SCORE.INTRA.POLAR>
0

>  <SCORE.INTRA.POLAR.0>
0

>  <SCORE.INTRA.REPUL>
0

>  <SCORE.INTRA.REPUL.0>
0

>  <SCORE.INTRA.SOLV>
-0.770049

>  <SCORE.INTRA.SOLV.lig_0>
-48.4015

>  <SCORE.INTRA.VDW>
0.0197525

>  <SCORE.INTRA.VDW.0>
-2.83256

>  <SCORE.INTRA.norm>
0.103113

>  <SCORE.RESTR>
0.325195

>  <SCORE.RESTR.CAVITY>
0.325195

>  <SCORE.RESTR.norm>
0.0120443

>  <SCORE.SYSTEM>
0

>  <SCORE.SYSTEM.CONST>
0

>  <SCORE.SYSTEM.DIHEDRAL>
0

>  <SCORE.SYSTEM.SOLV>
0

>  <SCORE.SYSTEM.norm>
0

>  <SCORE.heavy>
27

>  <SCORE.norm>
-0.40682

>  <RMSD>
19.009

$$$$
ligand
 OpenBabel02271912153D
libRbt.so/2013.1/901 2013/11/27
 27 29  0  0  0  0  0  0  0  0999 V2000
    9.5033   -2.3140   14.9918 N   0  0  0  0  0  0  0  0  0  0  0  0
    8.3654   -2.3730   15.9405 C   0  0  2  0  0  0  0  0  0  0  0  0
    7.3052   -3.2873   15.3402 C   0  0  0  0  0  0  0  0  0  0  0  0
    7.3276   -3.8100   14.1767 O   0  0  0  0  0  0  0  0  0  0  0  0
    7.8640   -0.9501   16.1965 C   0  0  0  0  0  0  0  0  0  0  0  0
    8.8844   -0.0888   16.9287 C   0  0  0  0  0  0  0  0  0  0  0  0
    8.4714    1.5170   17.7081 S   0  0  2  0  0  0  0  0  0  0  0  0
    7.0067    1.0134   18.6090 C   0  0  0  0  0  0  0  0  0  0  0  0
    7.8039    2.3547   16.2353 C   0  0  0  0  0  0  0  0  0  0  0  0
    7.2847    3.7266   16.5675 C   0  0  1  0  0  0  0  0  0  0  0  0
    8.0804    4.7803   15.9731 O   0  0  0  0  0  0  0  0  0  0  0  0
    5.8523    3.9668   16.1483 C   0  0  1  0  0  0  0  0  0  0  0  0
    5.0551    3.7746   17.2345 O   0  0  0  0  0  0  0  0  0  0  0  0
    5.8960    5.4534   15.8825 C   0  0  1  0  0  0  0  0  0  0  0  0
    5.7436    6.0463   17.0952 O   0  0  0  0  0  0  0  0  0  0  0  0
    7.3088    5.7666   15.3422 C   0  0  2  0  0  0  0  0  0  0  0  0
    6.3088   -3.4880   16.0369 O   0  0  0  0  0  0  0  0  0  0  0  0
    6.5994    7.1561   10.3682 N   0  0  0  0  0  0  0  0  0  0  0  0
    6.6730    7.8927   11.5980 C   0  0  0  0  0  0  0  0  0  0  0  0
    6.8820    7.3873   12.9052 N   0  0  0  0  0  0  0  0  0  0  0  0
    7.0225    6.1209   12.8941 C   0  0  0  0  0  0  0  0  0  0  0  0
    6.9688    5.2732   11.6820 C   0  0  0  0  0  0  0  0  0  0  0  0
    6.7543    5.7904   10.4653 C   0  0  0  0  0  0  0  0  0  0  0  0
    6.7103    4.9227    9.4753 N   0  0  0  0  0  0  0  0  0  0  0  0
    7.1296    3.9946   11.9266 N   0  0  0  0  0  0  0  0  0  0  0  0
    7.2912    4.0423   13.2990 C   0  0  0  0  0  0  0  0  0  0  0  0
    7.2335    5.3593   13.9129 N   0  0  0  0  0  0  0  0  0  0  0  0
  2  1  1  6  0  0  0
  2  3  1  0  0  0  0
  2  5  1  0  0  0  0
  3  4  1  0  0  0  0
  3 17  1  0  0  0  0
  5  6  1  0  0  0  0
  7  6  1  6  0  0  0
  7  8  1  0  0  0  0
  7  9  1  0  0  0  0
 10  9  1  6  0  0  0
 10 11  1  0  0  0  0
 10 12  1  0  0  0  0
 11 16  1  0  0  0  0
 12 13  1  1  0  0  0
 12 14  1  0  0  0  0
 14 15  1  1  0  0  0
 14 16  1  0  0  0  0
 16 27  1  6  0  0  0
 18 19  2  0  0  0  0
 18 23  1  0  0  0  0
 19 20  1  0  0  0  0
 20 21  2  0  0  0  0
 21 22  1  0  0  0  0
 21 27  1  0  0  0  0
 22 23  2  0  0  0  0
 22 25  1  0  0  0  0
 23 24  1  0  0  0  0
 25 26  2  0  0  0  0
 26 27  1  0  0  0  0
M  END
>  <CHROM.1>
-6.10372088,-66.12482534,-165.96058495,48.41391866,176.76930909,112.18947910
-155.73330295,7.21143953,2.80768763,14.86485569,-0.56470388,1.42894795,-1.43522624

>  <Name>
ligand

>  <RI>
0

>  <Rbt.Current_Directory>
/home/itssahil/PROJECTS/Mol_Feturizer/Test_systems_manuscript/rnas/4aob

>  <Rbt.Executable>
rbdock ($Id: //depot/dev/client3/rdock/2013.1/src/exe/rbdock.cxx#4 $)

>  <Rbt.Library>
libRbt.so (2013.1, Build901 2013/11/27)

>  <Rbt.Parameter_File>
/export/apps/rDock/src/rDock_2013.1_src/data/scripts/dock_solv.prm

>  <Rbt.Receptor>
prm/blind_docking_20.prm

>  <SCORE>
-11.2369

>  <SCORE.INTER>
-13.2692

>  <SCORE.INTER.CONST>
1

>  <SCORE.INTER.POLAR>
0

>  <SCORE.INTER.ROT>
7

>  <SCORE.INTER.SOLV>
16.0446

>  <SCORE.INTER.VDW>
-22.461

>  <SCORE.INTER.norm>
-0.491454

>  <SCORE.INTRA>
1.90011

>  <SCORE.INTRA.DIHEDRAL>
2.72322

>  <SCORE.INTRA.DIHEDRAL.0>
6.31833

>  <SCORE.INTRA.POLAR>
0

>  <SCORE.INTRA.POLAR.0>
0

>  <SCORE.INTRA.REPUL>
0

>  <SCORE.INTRA.REPUL.0>
0

>  <SCORE.INTRA.SOLV>
-0.0702851

>  <SCORE.INTRA.SOLV.lig_0>
-48.4015

>  <SCORE.INTRA.VDW>
0.573645

>  <SCORE.INTRA.VDW.0>
-2.83256

>  <SCORE.INTRA.norm>
0.0703745

>  <SCORE.RESTR>
0.132267

>  <SCORE.RESTR.CAVITY>
0.132267

>  <SCORE.RESTR.norm>
0.0048988

>  <SCORE.SYSTEM>
0

>  <SCORE.SYSTEM.CONST>
0

>  <SCORE.SYSTEM.DIHEDRAL>
0

>  <SCORE.SYSTEM.SOLV>
0

>  <SCORE.SYSTEM.norm>
0

>  <SCORE.heavy>
27

>  <SCORE.norm>
-0.41618

>  <RMSD>
19.024

$$$$
ligand
 OpenBabel02271912153D
libRbt.so/2013.1/901 2013/11/27
 27 29  0  0  0  0  0  0  0  0999 V2000
   10.6439   -1.8366   14.9736 N   0  0  0  0  0  0  0  0  0  0  0  0
   10.0257   -2.2178   16.2662 C   0  0  2  0  0  0  0  0  0  0  0  0
    8.6733   -2.8516   15.9670 C   0  0  0  0  0  0  0  0  0  0  0  0
    7.7739   -2.3850   15.1919 O   0  0  0  0  0  0  0  0  0  0  0  0
    9.9292   -0.9733   17.1514 C   0  0  0  0  0  0  0  0  0  0  0  0
    9.1378    0.1530   16.4999 C   0  0  0  0  0  0  0  0  0  0  0  0
    8.7747    1.7421   17.3362 S   0  0  2  0  0  0  0  0  0  0  0  0
    7.1628    1.3354   18.0048 C   0  0  0  0  0  0  0  0  0  0  0  0
    8.3897    2.7308   15.8562 C   0  0  0  0  0  0  0  0  0  0  0  0
    7.6694    4.0020   16.2126 C   0  0  1  0  0  0  0  0  0  0  0  0
    8.2279    5.1614   15.5487 O   0  0  0  0  0  0  0  0  0  0  0  0
    6.1903    3.9862   15.9009 C   0  0  1  0  0  0  0  0  0  0  0  0
    5.5191    3.6867   17.0464 O   0  0  0  0  0  0  0  0  0  0  0  0
    5.9600    5.4521   15.6171 C   0  0  1  0  0  0  0  0  0  0  0  0
    5.7975    6.0384   16.8318 O   0  0  0  0  0  0  0  0  0  0  0  0
    7.2552    5.9877   14.9680 C   0  0  2  0  0  0  0  0  0  0  0  0
    8.4145   -3.8869   16.5832 O   0  0  0  0  0  0  0  0  0  0  0  0
    6.6560    7.2639    9.9493 N   0  0  0  0  0  0  0  0  0  0  0  0
    6.7893    8.0327   11.1543 C   0  0  0  0  0  0  0  0  0  0  0  0
    6.9580    7.5557   12.4779 N   0  0  0  0  0  0  0  0  0  0  0  0
    6.9965    6.2824   12.5089 C   0  0  0  0  0  0  0  0  0  0  0  0
    6.8741    5.4020   11.3255 C   0  0  0  0  0  0  0  0  0  0  0  0
    6.7009    5.8942   10.0919 C   0  0  0  0  0  0  0  0  0  0  0  0
    6.5867    5.0005    9.1311 N   0  0  0  0  0  0  0  0  0  0  0  0
    6.9321    4.1235   11.6125 N   0  0  0  0  0  0  0  0  0  0  0  0
    7.0979    4.2036   12.9830 C   0  0  0  0  0  0  0  0  0  0  0  0
    7.1465    5.5406   13.5528 N   0  0  0  0  0  0  0  0  0  0  0  0
  2  1  1  6  0  0  0
  2  3  1  0  0  0  0
  2  5  1  0  0  0  0
  3  4  1  0  0  0  0
  3 17  1  0  0  0  0
  5  6  1  0  0  0  0
  7  6  1  6  0  0  0
  7  8  1  0  0  0  0
  7  9  1  0  0  0  0
 10  9  1  6  0  0  0
 10 11  1  0  0  0  0
 10 12  1  0  0  0  0
 11 16  1  0  0  0  0
 12 13  1  1  0  0  0
 12 14  1  0  0  0  0
 14 15  1  1  0  0  0
 14 16  1  0  0  0  0
 16 27  1  6  0  0  0
 18 19  2  0  0  0  0
 18 23  1  0  0  0  0
 19 20  1  0  0  0  0
 20 21  2  0  0  0  0
 21 22  1  0  0  0  0
 21 27  1  0  0  0  0
 22 23  2  0  0  0  0
 22 25  1  0  0  0  0
 23 24  1  0  0  0  0
 25 26  2  0  0  0  0
 26 27  1  0  0  0  0
M  END
>  <CHROM.1>
-48.17137380,57.36950547,176.93200207,-93.92921568,163.81898444,132.91709889
-140.66127507,7.62382723,3.01177747,14.70792380,-0.67221242,1.25969715,-1.40038784

>  <Name>
ligand

>  <RI>
0

>  <Rbt.Current_Directory>
/home/itssahil/PROJECTS/Mol_Feturizer/Test_systems_manuscript/rnas/4aob

>  <Rbt.Executable>
rbdock ($Id: //depot/dev/client3/rdock/2013.1/src/exe/rbdock.cxx#4 $)

>  <Rbt.Library>
libRbt.so (2013.1, Build901 2013/11/27)

>  <Rbt.Parameter_File>
/export/apps/rDock/src/rDock_2013.1_src/data/scripts/dock_solv.prm

>  <Rbt.Receptor>
prm/blind_docking_20.prm

>  <SCORE>
-8.80414

>  <SCORE.INTER>
-11.0456

>  <SCORE.INTER.CONST>
1

>  <SCORE.INTER.POLAR>
0

>  <SCORE.INTER.ROT>
7

>  <SCORE.INTER.SOLV>
16.8299

>  <SCORE.INTER.VDW>
-21.2404

>  <SCORE.INTER.norm>
-0.409095

>  <SCORE.INTRA>
2.15909

>  <SCORE.INTRA.DIHEDRAL>
3.33585

>  <SCORE.INTRA.DIHEDRAL.0>
6.31833

>  <SCORE.INTRA.POLAR>
0

>  <SCORE.INTRA.POLAR.0>
0

>  <SCORE.INTRA.REPUL>
0

>  <SCORE.INTRA.REPUL.0>
0

>  <SCORE.INTRA.SOLV>
0.108523

>  <SCORE.INTRA.SOLV.lig_0>
-48.4015

>  <SCORE.INTRA.VDW>
0.436904

>  <SCORE.INTRA.VDW.0>
-2.83256

>  <SCORE.INTRA.norm>
0.0799664

>  <SCORE.RESTR>
0.0823382

>  <SCORE.RESTR.CAVITY>
0.0823382

>  <SCORE.RESTR.norm>
0.00304956

>  <SCORE.SYSTEM>
0

>  <SCORE.SYSTEM.CONST>
0

>  <SCORE.SYSTEM.DIHEDRAL>
0

>  <SCORE.SYSTEM.SOLV>
0

>  <SCORE.SYSTEM.norm>
0

>  <SCORE.heavy>
27

>  <SCORE.norm>
-0.326079

>  <RMSD>
19.046

$$$$
ligand
 OpenBabel02271912153D
libRbt.so/2013.1/901 2013/11/27
 27 29  0  0  0  0  0  0  0  0999 V2000
    9.2045   -2.0015   14.5297 N   0  0  0  0  0  0  0  0  0  0  0  0
    8.3881   -2.3142   15.7272 C   0  0  2  0  0  0  0  0  0  0  0  0
    7.3258   -3.3255   15.3157 C   0  0  0  0  0  0  0  0  0  0  0  0
    6.1970   -3.5093   15.8809 O   0  0  0  0  0  0  0  0  0  0  0  0
    7.8037   -1.0117   16.2781 C   0  0  0  0  0  0  0  0  0  0  0  0
    8.8585   -0.1147   16.9121 C   0  0  0  0  0  0  0  0  0  0  0  0
    8.4718    1.4984   17.6900 S   0  0  2  0  0  0  0  0  0  0  0  0
    6.9779    1.0291   18.5610 C   0  0  0  0  0  0  0  0  0  0  0  0
    7.8541    2.3582   16.2083 C   0  0  0  0  0  0  0  0  0  0  0  0
    7.3142    3.7210   16.5448 C   0  0  1  0  0  0  0  0  0  0  0  0
    8.0850    4.7880   15.9412 O   0  0  0  0  0  0  0  0  0  0  0  0
    5.8735    3.9356   16.1406 C   0  0  1  0  0  0  0  0  0  0  0  0
    5.0913    3.7305   17.2353 O   0  0  0  0  0  0  0  0  0  0  0  0
    5.8883    5.4224   15.8731 C   0  0  1  0  0  0  0  0  0  0  0  0
    5.7382    6.0137   17.0869 O   0  0  0  0  0  0  0  0  0  0  0  0
    7.2896    5.7600   15.3177 C   0  0  2  0  0  0  0  0  0  0  0  0
    7.6226   -4.0687   14.3787 O   0  0  0  0  0  0  0  0  0  0  0  0
    6.5700    7.1428   10.3433 N   0  0  0  0  0  0  0  0  0  0  0  0
    6.6527    7.8816   11.5713 C   0  0  0  0  0  0  0  0  0  0  0  0
    6.8635    7.3778   12.8788 N   0  0  0  0  0  0  0  0  0  0  0  0
    6.9962    6.1105   12.8699 C   0  0  0  0  0  0  0  0  0  0  0  0
    6.9329    5.2605   11.6600 C   0  0  0  0  0  0  0  0  0  0  0  0
    6.7169    5.7764   10.4429 C   0  0  0  0  0  0  0  0  0  0  0  0
    6.6640    4.9068    9.4550 N   0  0  0  0  0  0  0  0  0  0  0  0
    7.0869    3.9816   11.9067 N   0  0  0  0  0  0  0  0  0  0  0  0
    7.2539    4.0313   13.2785 C   0  0  0  0  0  0  0  0  0  0  0  0
    7.2064    5.3499   13.8897 N   0  0  0  0  0  0  0  0  0  0  0  0
  2  1  1  6  0  0  0
  2  3  1  0  0  0  0
  2  5  1  0  0  0  0
  3  4  1  0  0  0  0
  3 17  1  0  0  0  0
  5  6  1  0  0  0  0
  7  6  1  6  0  0  0
  7  8  1  0  0  0  0
  7  9  1  0  0  0  0
 10  9  1  6  0  0  0
 10 11  1  0  0  0  0
 10 12  1  0  0  0  0
 11 16  1  0  0  0  0
 12 13  1  1  0  0  0
 12 14  1  0  0  0  0
 14 15  1  1  0  0  0
 14 16  1  0  0  0  0
 16 27  1  6  0  0  0
 18 19  2  0  0  0  0
 18 23  1  0  0  0  0
 19 20  1  0  0  0  0
 20 21  2  0  0  0  0
 21 22  1  0  0  0  0
 21 27  1  0  0  0  0
 22 23  2  0  0  0  0
 22 25  1  0  0  0  0
 23 24  1  0  0  0  0
 25 26  2  0  0  0  0
 26 27  1  0  0  0  0
M  END
>  <CHROM.1>
-154.87832492,-70.34236610,-178.78466046,42.11663594,174.54511273,115.19050405
-154.32048920,7.19877872,2.79493418,14.82888951,-0.55393702,1.43047311,-1.43982700

>  <Name>
ligand

>  <RI>
0

>  <Rbt.Current_Directory>
/home/itssahil/PROJECTS/Mol_Feturizer/Test_systems_manuscript/rnas/4aob

>  <Rbt.Executable>
rbdock ($Id: //depot/dev/client3/rdock/2013.1/src/exe/rbdock.cxx#4 $)

>  <Rbt.Library>
libRbt.so (2013.1, Build901 2013/11/27)

>  <Rbt.Parameter_File>
/export/apps/rDock/src/rDock_2013.1_src/data/scripts/dock_solv.prm

>  <Rbt.Receptor>
prm/blind_docking_20.prm

>  <SCORE>
-10.8954

>  <SCORE.INTER>
-13.0958

>  <SCORE.INTER.CONST>
1

>  <SCORE.INTER.POLAR>
0

>  <SCORE.INTER.ROT>
7

>  <SCORE.INTER.SOLV>
17.4576

>  <SCORE.INTER.VDW>
-22.8164

>  <SCORE.INTER.norm>
-0.485028

>  <SCORE.INTRA>
2.11361

>  <SCORE.INTRA.DIHEDRAL>
2.54114

>  <SCORE.INTRA.DIHEDRAL.0>
6.31833

>  <SCORE.INTRA.POLAR>
0

>  <SCORE.INTRA.POLAR.0>
0

>  <SCORE.INTRA.REPUL>
0

>  <SCORE.INTRA.REPUL.0>
0

>  <SCORE.INTRA.SOLV>
-0.0443799

>  <SCORE.INTRA.SOLV.lig_0>
-48.4015

>  <SCORE.INTRA.VDW>
0.865229

>  <SCORE.INTRA.VDW.0>
-2.83256

>  <SCORE.INTRA.norm>
0.0782818

>  <SCORE.RESTR>
0.0867369

>  <SCORE.RESTR.CAVITY>
0.0867369

>  <SCORE.RESTR.norm>
0.00321248

>  <SCORE.SYSTEM>
0

>  <SCORE.SYSTEM.CONST>
0

>  <SCORE.SYSTEM.DIHEDRAL>
0

>  <SCORE.SYSTEM.SOLV>
0

>  <SCORE.SYSTEM.norm>
0

>  <SCORE.heavy>
27

>  <SCORE.norm>
-0.403534

>  <RMSD>
19.059

$$$$
ligand
 OpenBabel02271912153D
libRbt.so/2013.1/901 2013/11/27
 27 29  0  0  0  0  0  0  0  0999 V2000
    7.5033   -3.5519   18.0244 N   0  0  0  0  0  0  0  0  0  0  0  0
    7.1438   -2.4695   17.0770 C   0  0  2  0  0  0  0  0  0  0  0  0
    7.5047   -2.9395   15.6738 C   0  0  0  0  0  0  0  0  0  0  0  0
    6.6919   -3.3545   14.7824 O   0  0  0  0  0  0  0  0  0  0  0  0
    7.8717   -1.1894   17.4933 C   0  0  0  0  0  0  0  0  0  0  0  0
    7.4167    0.0304   16.7031 C   0  0  0  0  0  0  0  0  0  0  0  0
    8.0647    1.7187   16.9971 S   0  0  2  0  0  0  0  0  0  0  0  0
    7.6730    1.8607   18.7398 C   0  0  0  0  0  0  0  0  0  0  0  0
    6.7325    2.6526   16.1790 C   0  0  0  0  0  0  0  0  0  0  0  0
    6.9136    4.1361   16.3473 C   0  0  1  0  0  0  0  0  0  0  0  0
    8.0895    4.6329   15.6635 O   0  0  0  0  0  0  0  0  0  0  0  0
    5.7429    4.9632   15.8673 C   0  0  1  0  0  0  0  0  0  0  0  0
    4.9763    5.2789   16.9467 O   0  0  0  0  0  0  0  0  0  0  0  0
    6.4602    6.2235   15.4436 C   0  0  1  0  0  0  0  0  0  0  0  0
    6.6310    6.9468   16.5808 O   0  0  0  0  0  0  0  0  0  0  0  0
    7.8432    5.7894   14.9098 C   0  0  2  0  0  0  0  0  0  0  0  0
    8.7075   -2.9684   15.4072 O   0  0  0  0  0  0  0  0  0  0  0  0
    6.5249    6.9497   10.0016 N   0  0  0  0  0  0  0  0  0  0  0  0
    6.8054    7.7456   11.1628 C   0  0  0  0  0  0  0  0  0  0  0  0
    7.1670    7.2995   12.4583 N   0  0  0  0  0  0  0  0  0  0  0  0
    7.2396    6.0282   12.5058 C   0  0  0  0  0  0  0  0  0  0  0  0
    6.9755    5.1214   11.3662 C   0  0  0  0  0  0  0  0  0  0  0  0
    6.6216    5.5844   10.1603 C   0  0  0  0  0  0  0  0  0  0  0  0
    6.3968    4.6690    9.2403 N   0  0  0  0  0  0  0  0  0  0  0  0
    7.1030    3.8505   11.6646 N   0  0  0  0  0  0  0  0  0  0  0  0
    7.4550    3.9621   12.9971 C   0  0  0  0  0  0  0  0  0  0  0  0
    7.5502    5.3112   13.5314 N   0  0  0  0  0  0  0  0  0  0  0  0
  2  1  1  1  0  0  0
  2  3  1  0  0  0  0
  2  5  1  0  0  0  0
  3  4  1  0  0  0  0
  3 17  1  0  0  0  0
  5  6  1  0  0  0  0
  7  6  1  6  0  0  0
  7  8  1  0  0  0  0
  7  9  1  0  0  0  0
 10  9  1  6  0  0  0
 10 11  1  0  0  0  0
 10 12  1  0  0  0  0
 11 16  1  0  0  0  0
 12 13  1  1  0  0  0
 12 14  1  0  0  0  0
 14 15  1  1  0  0  0
 14 16  1  0  0  0  0
 16 27  1  6  0  0  0
 18 19  2  0  0  0  0
 18 23  1  0  0  0  0
 19 20  1  0  0  0  0
 20 21  2  0  0  0  0
 21 22  1  0  0  0  0
 21 27  1  0  0  0  0
 22 23  2  0  0  0  0
 22 25  1  0  0  0  0
 23 24  1  0  0  0  0
 25 26  2  0  0  0  0
 26 27  1  0  0  0  0
M  END
>  <CHROM.1>
103.74154123,-171.82177350,178.27440415,-56.22755540,175.20849474,66.18384848
178.50764344,7.15140699,2.98473920,14.79817808,-0.46427968,1.47433875,-1.61542011

>  <Name>
ligand

>  <RI>
0

>  <Rbt.Current_Directory>
/home/itssahil/PROJECTS/Mol_Feturizer/Test_systems_manuscript/rnas/4aob

>  <Rbt.Executable>
rbdock ($Id: //depot/dev/client3/rdock/2013.1/src/exe/rbdock.cxx#4 $)

>  <Rbt.Library>
libRbt.so (2013.1, Build901 2013/11/27)

>  <Rbt.Parameter_File>
/export/apps/rDock/src/rDock_2013.1_src/data/scripts/dock_solv.prm

>  <Rbt.Receptor>
prm/blind_docking_20.prm

>  <SCORE>
-13.9493

>  <SCORE.INTER>
-13.4578

>  <SCORE.INTER.CONST>
1

>  <SCORE.INTER.POLAR>
0

>  <SCORE.INTER.ROT>
7

>  <SCORE.INTER.SOLV>
15.7858

>  <SCORE.INTER.VDW>
-22.5004

>  <SCORE.INTER.norm>
-0.498436

>  <SCORE.INTRA>
-1.16061

>  <SCORE.INTRA.DIHEDRAL>
-2.45099

>  <SCORE.INTRA.DIHEDRAL.0>
6.31833

>  <SCORE.INTRA.POLAR>
0

>  <SCORE.INTRA.POLAR.0>
0

>  <SCORE.INTRA.REPUL>
0

>  <SCORE.INTRA.REPUL.0>
0

>  <SCORE.INTRA.SOLV>
-0.805223

>  <SCORE.INTRA.SOLV.lig_0>
-48.4015

>  <SCORE.INTRA.VDW>
0.467498

>  <SCORE.INTRA.VDW.0>
-2.83256

>  <SCORE.INTRA.norm>
-0.0429855

>  <SCORE.RESTR>
0.669116

>  <SCORE.RESTR.CAVITY>
0.669116

>  <SCORE.RESTR.norm>
0.0247821

>  <SCORE.SYSTEM>
0

>  <SCORE.SYSTEM.CONST>
0

>  <SCORE.SYSTEM.DIHEDRAL>
0

>  <SCORE.SYSTEM.SOLV>
0

>  <SCORE.SYSTEM.norm>
0

>  <SCORE.heavy>
27

>  <SCORE.norm>
-0.51664

>  <RMSD>
19.082

$$$$
ligand
 OpenBabel02271912153D
libRbt.so/2013.1/901 2013/11/27
 27 29  0  0  0  0  0  0  0  0999 V2000
    8.4829   -2.6020   17.0230 N   0  0  0  0  0  0  0  0  0  0  0  0
    8.3195   -1.6873   15.8675 C   0  0  2  0  0  0  0  0  0  0  0  0
    9.6784   -1.5378   15.1958 C   0  0  0  0  0  0  0  0  0  0  0  0
    9.9146   -0.9489   14.0890 O   0  0  0  0  0  0  0  0  0  0  0  0
    7.7413   -0.3616   16.3674 C   0  0  0  0  0  0  0  0  0  0  0  0
    8.7866    0.5227   17.0342 C   0  0  0  0  0  0  0  0  0  0  0  0
    8.4511    2.2381   17.5833 S   0  0  2  0  0  0  0  0  0  0  0  0
    6.7588    2.0222   18.1311 C   0  0  0  0  0  0  0  0  0  0  0  0
    8.2773    3.0055   15.9410 C   0  0  0  0  0  0  0  0  0  0  0  0
    8.0038    4.4807   16.0463 C   0  0  1  0  0  0  0  0  0  0  0  0
    8.7730    5.2571   15.0963 O   0  0  0  0  0  0  0  0  0  0  0  0
    6.5532    4.8589   15.8521 C   0  0  1  0  0  0  0  0  0  0  0  0
    5.9874    5.0128   17.0803 O   0  0  0  0  0  0  0  0  0  0  0  0
    6.7128    6.2382   15.2567 C   0  0  1  0  0  0  0  0  0  0  0  0
    6.8910    7.0739   16.3128 O   0  0  0  0  0  0  0  0  0  0  0  0
    8.0057    6.2105   14.4119 C   0  0  2  0  0  0  0  0  0  0  0  0
   10.6231   -2.0921   15.7602 O   0  0  0  0  0  0  0  0  0  0  0  0
    6.5224    6.6885    9.4374 N   0  0  0  0  0  0  0  0  0  0  0  0
    6.9534    7.6279   10.4336 C   0  0  0  0  0  0  0  0  0  0  0  0
    7.3439    7.3632   11.7698 N   0  0  0  0  0  0  0  0  0  0  0  0
    7.2868    6.1170   12.0297 C   0  0  0  0  0  0  0  0  0  0  0  0
    6.8619    5.0706   11.0730 C   0  0  0  0  0  0  0  0  0  0  0  0
    6.4861    5.3659    9.8218 C   0  0  0  0  0  0  0  0  0  0  0  0
    6.1125    4.3428    9.0811 N   0  0  0  0  0  0  0  0  0  0  0  0
    6.8744    3.8600   11.5775 N   0  0  0  0  0  0  0  0  0  0  0  0
    7.3155    4.1489   12.8558 C   0  0  0  0  0  0  0  0  0  0  0  0
    7.5823    5.5481   13.1485 N   0  0  0  0  0  0  0  0  0  0  0  0
  2  1  1  1  0  0  0
  2  3  1  0  0  0  0
  2  5  1  0  0  0  0
  3  4  1  0  0  0  0
  3 17  1  0  0  0  0
  5  6  1  0  0  0  0
  7  6  1  6  0  0  0
  7  8  1  0  0  0  0
  7  9  1  0  0  0  0
 10  9  1  6  0  0  0
 10 11  1  0  0  0  0
 10 12  1  0  0  0  0
 11 16  1  0  0  0  0
 12 13  1  1  0  0  0
 12 14  1  0  0  0  0
 14 15  1  1  0  0  0
 14 16  1  0  0  0  0
 16 27  1  6  0  0  0
 18 19  2  0  0  0  0
 18 23  1  0  0  0  0
 19 20  1  0  0  0  0
 20 21  2  0  0  0  0
 21 22  1  0  0  0  0
 21 27  1  0  0  0  0
 22 23  2  0  0  0  0
 22 25  1  0  0  0  0
 23 24  1  0  0  0  0
 25 26  2  0  0  0  0
 26 27  1  0  0  0  0
M  END
>  <CHROM.1>
171.95202700,77.89706265,173.58294976,36.06738543,-179.21093425,136.78614487
-153.61612155,7.74019694,3.36058728,14.49030888,-0.55167297,1.29604706,-1.62680863

>  <Name>
ligand

>  <RI>
0

>  <Rbt.Current_Directory>
/home/itssahil/PROJECTS/Mol_Feturizer/Test_systems_manuscript/rnas/4aob

>  <Rbt.Executable>
rbdock ($Id: //depot/dev/client3/rdock/2013.1/src/exe/rbdock.cxx#4 $)

>  <Rbt.Library>
libRbt.so (2013.1, Build901 2013/11/27)

>  <Rbt.Parameter_File>
/export/apps/rDock/src/rDock_2013.1_src/data/scripts/dock_solv.prm

>  <Rbt.Receptor>
prm/blind_docking_20.prm

>  <SCORE>
-6.79018

>  <SCORE.INTER>
-9.95637

>  <SCORE.INTER.CONST>
1

>  <SCORE.INTER.POLAR>
0

>  <SCORE.INTER.ROT>
7

>  <SCORE.INTER.SOLV>
17.9508

>  <SCORE.INTER.VDW>
-20.8878

>  <SCORE.INTER.norm>
-0.368754

>  <SCORE.INTRA>
3.11187

>  <SCORE.INTRA.DIHEDRAL>
3.48117

>  <SCORE.INTRA.DIHEDRAL.0>
6.31833

>  <SCORE.INTRA.POLAR>
0

>  <SCORE.INTRA.POLAR.0>
0

>  <SCORE.INTRA.REPUL>
0

>  <SCORE.INTRA.REPUL.0>
0

>  <SCORE.INTRA.SOLV>
-0.0191134

>  <SCORE.INTRA.SOLV.lig_0>
-48.4015

>  <SCORE.INTRA.VDW>
1.38084

>  <SCORE.INTRA.VDW.0>
-2.83256

>  <SCORE.INTRA.norm>
0.115254

>  <SCORE.RESTR>
0.0543166

>  <SCORE.RESTR.CAVITY>
0.0543166

>  <SCORE.RESTR.norm>
0.00201173

>  <SCORE.SYSTEM>
0

>  <SCORE.SYSTEM.CONST>
0

>  <SCORE.SYSTEM.DIHEDRAL>
0

>  <SCORE.SYSTEM.SOLV>
0

>  <SCORE.SYSTEM.norm>
0

>  <SCORE.heavy>
27

>  <SCORE.norm>
-0.251488

>  <RMSD>
19.086

$$$$
ligand
 OpenBabel02271912153D
libRbt.so/2013.1/901 2013/11/27
 27 29  0  0  0  0  0  0  0  0999 V2000
    6.1361   -1.5050   15.5660 N   0  0  0  0  0  0  0  0  0  0  0  0
    7.3273   -1.8655   16.3719 C   0  0  2  0  0  0  0  0  0  0  0  0
    6.8412   -2.5648   17.6348 C   0  0  0  0  0  0  0  0  0  0  0  0
    5.8106   -2.2573   18.3210 O   0  0  0  0  0  0  0  0  0  0  0  0
    8.1330   -0.5955   16.6542 C   0  0  0  0  0  0  0  0  0  0  0  0
    7.3038    0.4909   17.3260 C   0  0  0  0  0  0  0  0  0  0  0  0
    7.9372    2.1768   17.6622 S   0  0  2  0  0  0  0  0  0  0  0  0
    6.6362    2.7429   18.7565 C   0  0  0  0  0  0  0  0  0  0  0  0
    7.5140    2.9356   16.0618 C   0  0  0  0  0  0  0  0  0  0  0  0
    7.5696    4.4370   16.1300 C   0  0  1  0  0  0  0  0  0  0  0  0
    8.5818    4.9953   15.2578 O   0  0  0  0  0  0  0  0  0  0  0  0
    6.2667    5.1230   15.7879 C   0  0  1  0  0  0  0  0  0  0  0  0
    5.6333    5.4340   16.9517 O   0  0  0  0  0  0  0  0  0  0  0  0
    6.7887    6.4146   15.2032 C   0  0  1  0  0  0  0  0  0  0  0  0
    7.0464    7.2195   16.2668 O   0  0  0  0  0  0  0  0  0  0  0  0
    8.1182    6.0756   14.4936 C   0  0  2  0  0  0  0  0  0  0  0  0
    7.5532   -3.4793   18.0532 O   0  0  0  0  0  0  0  0  0  0  0  0
    6.4365    6.8460    9.6199 N   0  0  0  0  0  0  0  0  0  0  0  0
    6.8578    7.7293   10.6700 C   0  0  0  0  0  0  0  0  0  0  0  0
    7.3081    7.3862   11.9690 N   0  0  0  0  0  0  0  0  0  0  0  0
    7.3195    6.1230   12.1355 C   0  0  0  0  0  0  0  0  0  0  0  0
    6.9108    5.1304   11.1165 C   0  0  0  0  0  0  0  0  0  0  0  0
    6.4768    5.4983    9.9040 C   0  0  0  0  0  0  0  0  0  0  0  0
    6.1259    4.5155    9.1003 N   0  0  0  0  0  0  0  0  0  0  0  0
    6.9988    3.8879   11.5273 N   0  0  0  0  0  0  0  0  0  0  0  0
    7.4713    4.1030   12.8088 C   0  0  0  0  0  0  0  0  0  0  0  0
    7.6817    5.4883   13.1979 N   0  0  0  0  0  0  0  0  0  0  0  0
  2  1  1  6  0  0  0
  2  3  1  0  0  0  0
  2  5  1  0  0  0  0
  3  4  1  0  0  0  0
  3 17  1  0  0  0  0
  5  6  1  0  0  0  0
  7  6  1  6  0  0  0
  7  8  1  0  0  0  0
  7  9  1  0  0  0  0
 10  9  1  6  0  0  0
 10 11  1  0  0  0  0
 10 12  1  0  0  0  0
 11 16  1  0  0  0  0
 12 13  1  1  0  0  0
 12 14  1  0  0  0  0
 14 15  1  1  0  0  0
 14 16  1  0  0  0  0
 16 27  1  6  0  0  0
 18 19  2  0  0  0  0
 18 23  1  0  0  0  0
 19 20  1  0  0  0  0
 20 21  2  0  0  0  0
 21 22  1  0  0  0  0
 21 27  1  0  0  0  0
 22 23  2  0  0  0  0
 22 25  1  0  0  0  0
 23 24  1  0  0  0  0
 25 26  2  0  0  0  0
 26 27  1  0  0  0  0
M  END
>  <CHROM.1>
-38.88375259,55.42921434,-174.54547263,-167.61322777,164.61290601,116.75046024
-171.90895660,7.10251154,3.30315689,14.88139256,1.39522819,1.48931708,2.64406291

>  <Name>
ligand

>  <RI>
0

>  <Rbt.Current_Directory>
/home/itssahil/PROJECTS/Mol_Feturizer/Test_systems_manuscript/rnas/4aob

>  <Rbt.Executable>
rbdock ($Id: //depot/dev/client3/rdock/2013.1/src/exe/rbdock.cxx#4 $)

>  <Rbt.Library>
libRbt.so (2013.1, Build901 2013/11/27)

>  <Rbt.Parameter_File>
/export/apps/rDock/src/rDock_2013.1_src/data/scripts/dock_solv.prm

>  <Rbt.Receptor>
prm/blind_docking_20.prm

>  <SCORE>
-6.50306

>  <SCORE.INTER>
-8.73864

>  <SCORE.INTER.CONST>
1

>  <SCORE.INTER.POLAR>
0

>  <SCORE.INTER.ROT>
7

>  <SCORE.INTER.SOLV>
23.7052

>  <SCORE.INTER.VDW>
-21.9942

>  <SCORE.INTER.norm>
-0.323653

>  <SCORE.INTRA>
1.65692

>  <SCORE.INTRA.DIHEDRAL>
3.22943

>  <SCORE.INTRA.DIHEDRAL.0>
6.31833

>  <SCORE.INTRA.POLAR>
0

>  <SCORE.INTRA.POLAR.0>
0

>  <SCORE.INTRA.REPUL>
0

>  <SCORE.INTRA.REPUL.0>
0

>  <SCORE.INTRA.SOLV>
0.0745843

>  <SCORE.INTRA.SOLV.lig_0>
-48.4015

>  <SCORE.INTRA.VDW>
0.00490831

>  <SCORE.INTRA.VDW.0>
-2.83256

>  <SCORE.INTRA.norm>
0.0613672

>  <SCORE.RESTR>
0.578669

>  <SCORE.RESTR.CAVITY>
0.578669

>  <SCORE.RESTR.norm>
0.0214322

>  <SCORE.SYSTEM>
0

>  <SCORE.SYSTEM.CONST>
0

>  <SCORE.SYSTEM.DIHEDRAL>
0

>  <SCORE.SYSTEM.SOLV>
0

>  <SCORE.SYSTEM.norm>
0

>  <SCORE.heavy>
27

>  <SCORE.norm>
-0.240854

>  <RMSD>
19.097

$$$$
ligand
 OpenBabel02271912153D
libRbt.so/2013.1/901 2013/11/27
 27 29  0  0  0  0  0  0  0  0999 V2000
    8.4462   -2.7398   17.0413 N   0  0  0  0  0  0  0  0  0  0  0  0
    7.1030   -2.1179   17.1274 C   0  0  2  0  0  0  0  0  0  0  0  0
    6.1022   -3.0821   16.5035 C   0  0  0  0  0  0  0  0  0  0  0  0
    6.2513   -3.7263   15.4125 O   0  0  0  0  0  0  0  0  0  0  0  0
    7.1462   -0.7554   16.4321 C   0  0  0  0  0  0  0  0  0  0  0  0
    7.8456    0.3096   17.2662 C   0  0  0  0  0  0  0  0  0  0  0  0
    8.4929    1.8731   16.5641 S   0  0  2  0  0  0  0  0  0  0  0  0
    9.0079    2.6628   18.0878 C   0  0  0  0  0  0  0  0  0  0  0  0
    6.8978    2.6663   16.1861 C   0  0  0  0  0  0  0  0  0  0  0  0
    6.9697    4.1593   16.3527 C   0  0  1  0  0  0  0  0  0  0  0  0
    8.0957    4.7424   15.6534 O   0  0  0  0  0  0  0  0  0  0  0  0
    5.7340    4.8963   15.8891 C   0  0  1  0  0  0  0  0  0  0  0  0
    4.9606    5.1542   16.9789 O   0  0  0  0  0  0  0  0  0  0  0  0
    6.3491    6.2065   15.4565 C   0  0  1  0  0  0  0  0  0  0  0  0
    6.4808    6.9411   16.5916 O   0  0  0  0  0  0  0  0  0  0  0  0
    7.7534    5.8769   14.9037 C   0  0  2  0  0  0  0  0  0  0  0  0
    5.0262   -3.1987   17.0926 O   0  0  0  0  0  0  0  0  0  0  0  0
    6.5381    6.9646    9.9525 N   0  0  0  0  0  0  0  0  0  0  0  0
    6.8088    7.7778   11.1041 C   0  0  0  0  0  0  0  0  0  0  0  0
    7.1413    7.3507   12.4136 N   0  0  0  0  0  0  0  0  0  0  0  0
    7.1957    6.0797   12.4853 C   0  0  0  0  0  0  0  0  0  0  0  0
    6.9396    5.1558   11.3578 C   0  0  0  0  0  0  0  0  0  0  0  0
    6.6133    5.6013   10.1376 C   0  0  0  0  0  0  0  0  0  0  0  0
    6.3924    4.6723    9.2303 N   0  0  0  0  0  0  0  0  0  0  0  0
    7.0444    3.8890   11.6813 N   0  0  0  0  0  0  0  0  0  0  0  0
    7.3743    4.0202   13.0176 C   0  0  0  0  0  0  0  0  0  0  0  0
    7.4784    5.3775   13.5292 N   0  0  0  0  0  0  0  0  0  0  0  0
  2  1  1  6  0  0  0
  2  3  1  0  0  0  0
  2  5  1  0  0  0  0
  3  4  1  0  0  0  0
  3 17  1  0  0  0  0
  5  6  1  0  0  0  0
  7  6  1  1  0  0  0
  7  8  1  0  0  0  0
  7  9  1  0  0  0  0
 10  9  1  6  0  0  0
 10 11  1  0  0  0  0
 10 12  1  0  0  0  0
 11 16  1  0  0  0  0
 12 13  1  1  0  0  0
 12 14  1  0  0  0  0
 14 15  1  1  0  0  0
 14 16  1  0  0  0  0
 16 27  1  6  0  0  0
 18 19  2  0  0  0  0
 18 23  1  0  0  0  0
 19 20  1  0  0  0  0
 20 21  2  0  0  0  0
 21 22  1  0  0  0  0
 21 27  1  0  0  0  0
 22 23  2  0  0  0  0
 22 25  1  0  0  0  0
 23 24  1  0  0  0  0
 25 26  2  0  0  0  0
 26 27  1  0  0  0  0
M  END
>  <CHROM.1>
-44.28308803,-75.72863647,161.66363735,174.81697536,146.70196139,50.50119569
-176.01973991,7.03158940,3.07845770,14.80321916,1.42890791,1.45331659,2.75977050

>  <Name>
ligand

>  <RI>
0

>  <Rbt.Current_Directory>
/home/itssahil/PROJECTS/Mol_Feturizer/Test_systems_manuscript/rnas/4aob

>  <Rbt.Executable>
rbdock ($Id: //depot/dev/client3/rdock/2013.1/src/exe/rbdock.cxx#4 $)

>  <Rbt.Library>
libRbt.so (2013.1, Build901 2013/11/27)

>  <Rbt.Parameter_File>
/export/apps/rDock/src/rDock_2013.1_src/data/scripts/dock_solv.prm

>  <Rbt.Receptor>
prm/blind_docking_20.prm

>  <SCORE>
-13.847

>  <SCORE.INTER>
-15.0128

>  <SCORE.INTER.CONST>
1

>  <SCORE.INTER.POLAR>
0

>  <SCORE.INTER.ROT>
7

>  <SCORE.INTER.SOLV>
17.2925

>  <SCORE.INTER.VDW>
-24.0394

>  <SCORE.INTER.norm>
-0.55603

>  <SCORE.INTRA>
0.541785

>  <SCORE.INTRA.DIHEDRAL>
0.570649

>  <SCORE.INTRA.DIHEDRAL.0>
6.31833

>  <SCORE.INTRA.POLAR>
0

>  <SCORE.INTRA.POLAR.0>
0

>  <SCORE.INTRA.REPUL>
0

>  <SCORE.INTRA.REPUL.0>
0

>  <SCORE.INTRA.SOLV>
-0.190559

>  <SCORE.INTRA.SOLV.lig_0>
-48.4015

>  <SCORE.INTRA.VDW>
0.35174

>  <SCORE.INTRA.VDW.0>
-2.83256

>  <SCORE.INTRA.norm>
0.0200661

>  <SCORE.RESTR>
0.623994

>  <SCORE.RESTR.CAVITY>
0.623994

>  <SCORE.RESTR.norm>
0.0231109

>  <SCORE.SYSTEM>
0

>  <SCORE.SYSTEM.CONST>
0

>  <SCORE.SYSTEM.DIHEDRAL>
0

>  <SCORE.SYSTEM.SOLV>
0

>  <SCORE.SYSTEM.norm>
0

>  <SCORE.heavy>
27

>  <SCORE.norm>
-0.512853

>  <RMSD>
19.127

$$$$
ligand
 OpenBabel02271912153D
libRbt.so/2013.1/901 2013/11/27
 27 29  0  0  0  0  0  0  0  0999 V2000
    6.8335   -2.2383   17.3649 N   0  0  0  0  0  0  0  0  0  0  0  0
    7.4542   -1.6106   16.1736 C   0  0  2  0  0  0  0  0  0  0  0  0
    8.3475   -2.6513   15.5108 C   0  0  0  0  0  0  0  0  0  0  0  0
    8.1910   -3.1526   14.3482 O   0  0  0  0  0  0  0  0  0  0  0  0
    8.2107   -0.3563   16.6163 C   0  0  0  0  0  0  0  0  0  0  0  0
    7.3047    0.6772   17.2722 C   0  0  0  0  0  0  0  0  0  0  0  0
    7.8587    2.3679   17.7097 S   0  0  2  0  0  0  0  0  0  0  0  0
    6.3152    2.9987   18.3655 C   0  0  0  0  0  0  0  0  0  0  0  0
    7.9266    3.0609   16.0270 C   0  0  0  0  0  0  0  0  0  0  0  0
    7.9687    4.5641   16.0496 C   0  0  1  0  0  0  0  0  0  0  0  0
    8.8923    5.1083   15.0761 O   0  0  0  0  0  0  0  0  0  0  0  0
    6.6320    5.2267   15.8066 C   0  0  1  0  0  0  0  0  0  0  0  0
    6.1004    5.5635   17.0134 O   0  0  0  0  0  0  0  0  0  0  0  0
    7.0834    6.5068   15.1433 C   0  0  1  0  0  0  0  0  0  0  0  0
    7.4242    7.3437   16.1577 O   0  0  0  0  0  0  0  0  0  0  0  0
    8.3489    6.1620   14.3274 C   0  0  2  0  0  0  0  0  0  0  0  0
    9.2755   -3.0820   16.1977 O   0  0  0  0  0  0  0  0  0  0  0  0
    6.4057    6.7751    9.5292 N   0  0  0  0  0  0  0  0  0  0  0  0
    6.9312    7.6870   10.5054 C   0  0  0  0  0  0  0  0  0  0  0  0
    7.4448    7.3861   11.7913 N   0  0  0  0  0  0  0  0  0  0  0  0
    7.4088    6.1333   12.0217 C   0  0  0  0  0  0  0  0  0  0  0  0
    6.8930    5.1134   11.0814 C   0  0  0  0  0  0  0  0  0  0  0  0
    6.4020    5.4426    9.8795 C   0  0  0  0  0  0  0  0  0  0  0  0
    5.9575    4.4401    9.1499 N   0  0  0  0  0  0  0  0  0  0  0  0
    6.9494    3.8895   11.5497 N   0  0  0  0  0  0  0  0  0  0  0  0
    7.5096    4.1436   12.7881 C   0  0  0  0  0  0  0  0  0  0  0  0
    7.8067    5.5343   13.0920 N   0  0  0  0  0  0  0  0  0  0  0  0
  2  1  1  1  0  0  0
  2  3  1  0  0  0  0
  2  5  1  0  0  0  0
  3  4  1  0  0  0  0
  3 17  1  0  0  0  0
  5  6  1  0  0  0  0
  7  6  1  6  0  0  0
  7  8  1  0  0  0  0
  7  9  1  0  0  0  0
 10  9  1  6  0  0  0
 10 11  1  0  0  0  0
 10 12  1  0  0  0  0
 11 16  1  0  0  0  0
 12 13  1  1  0  0  0
 12 14  1  0  0  0  0
 14 15  1  1  0  0  0
 14 16  1  0  0  0  0
 16 27  1  6  0  0  0
 18 19  2  0  0  0  0
 18 23  1  0  0  0  0
 19 20  1  0  0  0  0
 20 21  2  0  0  0  0
 21 22  1  0  0  0  0
 21 27  1  0  0  0  0
 22 23  2  0  0  0  0
 22 25  1  0  0  0  0
 23 24  1  0  0  0  0
 25 26  2  0  0  0  0
 26 27  1  0  0  0  0
M  END
>  <CHROM.1>
115.75734272,-60.33339784,-171.69356843,178.43398230,163.40457577,138.88197575
-167.94818685,7.43928551,3.33077895,14.57852559,0.00290690,1.46775531,-2.13852092

>  <Name>
ligand

>  <RI>
0

>  <Rbt.Current_Directory>
/home/itssahil/PROJECTS/Mol_Feturizer/Test_systems_manuscript/rnas/4aob

>  <Rbt.Executable>
rbdock ($Id: //depot/dev/client3/rdock/2013.1/src/exe/rbdock.cxx#4 $)

>  <Rbt.Library>
libRbt.so (2013.1, Build901 2013/11/27)

>  <Rbt.Parameter_File>
/export/apps/rDock/src/rDock_2013.1_src/data/scripts/dock_solv.prm

>  <Rbt.Receptor>
prm/blind_docking_20.prm

>  <SCORE>
-7.898

>  <SCORE.INTER>
-9.54242

>  <SCORE.INTER.CONST>
1

>  <SCORE.INTER.POLAR>
0

>  <SCORE.INTER.ROT>
7

>  <SCORE.INTER.SOLV>
17.8523

>  <SCORE.INTER.VDW>
-20.5791

>  <SCORE.INTER.norm>
-0.353423

>  <SCORE.INTRA>
1.51365

>  <SCORE.INTRA.DIHEDRAL>
1.29669

>  <SCORE.INTRA.DIHEDRAL.0>
6.31833

>  <SCORE.INTRA.POLAR>
0

>  <SCORE.INTRA.POLAR.0>
0

>  <SCORE.INTRA.REPUL>
0

>  <SCORE.INTRA.REPUL.0>
0

>  <SCORE.INTRA.SOLV>
0.184145

>  <SCORE.INTRA.SOLV.lig_0>
-48.4015

>  <SCORE.INTRA.VDW>
0.773235

>  <SCORE.INTRA.VDW.0>
-2.83256

>  <SCORE.INTRA.norm>
0.0560612

>  <SCORE.RESTR>
0.130762

>  <SCORE.RESTR.CAVITY>
0.130762

>  <SCORE.RESTR.norm>
0.00484304

>  <SCORE.SYSTEM>
0

>  <SCORE.SYSTEM.CONST>
0

>  <SCORE.SYSTEM.DIHEDRAL>
0

>  <SCORE.SYSTEM.SOLV>
0

>  <SCORE.SYSTEM.norm>
0

>  <SCORE.heavy>
27

>  <SCORE.norm>
-0.292519

>  <RMSD>
19.145

$$$$
ligand
 OpenBabel02271912153D
libRbt.so/2013.1/901 2013/11/27
 27 29  0  0  0  0  0  0  0  0999 V2000
    9.5976   -0.8807   15.7070 N   0  0  0  0  0  0  0  0  0  0  0  0
    8.6702   -1.7271   16.4956 C   0  0  2  0  0  0  0  0  0  0  0  0
    7.6695   -2.3474   15.5290 C   0  0  0  0  0  0  0  0  0  0  0  0
    6.3982   -2.3072   15.6270 O   0  0  0  0  0  0  0  0  0  0  0  0
    8.0144   -0.8641   17.5757 C   0  0  0  0  0  0  0  0  0  0  0  0
    7.3281    0.3707   17.0069 C   0  0  0  0  0  0  0  0  0  0  0  0
    8.1968    1.9550   16.7041 S   0  0  2  0  0  0  0  0  0  0  0  0
    8.4208    2.4718   18.4051 C   0  0  0  0  0  0  0  0  0  0  0  0
    6.7656    2.9311   16.1427 C   0  0  0  0  0  0  0  0  0  0  0  0
    7.0440    4.4077   16.2070 C   0  0  1  0  0  0  0  0  0  0  0  0
    8.2029    4.7886   15.4267 O   0  0  0  0  0  0  0  0  0  0  0  0
    5.8969    5.2768   15.7446 C   0  0  1  0  0  0  0  0  0  0  0  0
    5.2181    5.7031   16.8446 O   0  0  0  0  0  0  0  0  0  0  0  0
    6.6600    6.4625   15.2021 C   0  0  1  0  0  0  0  0  0  0  0  0
    6.9429    7.2394   16.2800 O   0  0  0  0  0  0  0  0  0  0  0  0
    7.9795    5.9117   14.6176 C   0  0  2  0  0  0  0  0  0  0  0  0
    8.1498   -2.9946   14.5969 O   0  0  0  0  0  0  0  0  0  0  0  0
    6.4461    6.8612    9.7266 N   0  0  0  0  0  0  0  0  0  0  0  0
    6.8459    7.7047   10.8171 C   0  0  0  0  0  0  0  0  0  0  0  0
    7.2552    7.3139   12.1162 N   0  0  0  0  0  0  0  0  0  0  0  0
    7.2494    6.0458   12.2407 C   0  0  0  0  0  0  0  0  0  0  0  0
    6.8604    5.0920   11.1779 C   0  0  0  0  0  0  0  0  0  0  0  0
    6.4650    5.5046    9.9665 C   0  0  0  0  0  0  0  0  0  0  0  0
    6.1276    4.5528    9.1208 N   0  0  0  0  0  0  0  0  0  0  0  0
    6.9242    3.8357   11.5492 N   0  0  0  0  0  0  0  0  0  0  0  0
    7.3618    4.0031   12.8501 C   0  0  0  0  0  0  0  0  0  0  0  0
    7.5746    5.3724   13.2911 N   0  0  0  0  0  0  0  0  0  0  0  0
  2  1  1  6  0  0  0
  2  3  1  0  0  0  0
  2  5  1  0  0  0  0
  3  4  1  0  0  0  0
  3 17  1  0  0  0  0
  5  6  1  0  0  0  0
  7  6  1  1  0  0  0
  7  8  1  0  0  0  0
  7  9  1  0  0  0  0
 10  9  1  6  0  0  0
 10 11  1  0  0  0  0
 10 12  1  0  0  0  0
 11 16  1  0  0  0  0
 12 13  1  1  0  0  0
 12 14  1  0  0  0  0
 14 15  1  1  0  0  0
 14 16  1  0  0  0  0
 16 27  1  6  0  0  0
 18 19  2  0  0  0  0
 18 23  1  0  0  0  0
 19 20  1  0  0  0  0
 20 21  2  0  0  0  0
 21 22  1  0  0  0  0
 21 27  1  0  0  0  0
 22 23  2  0  0  0  0
 22 25  1  0  0  0  0
 23 24  1  0  0  0  0
 25 26  2  0  0  0  0
 26 27  1  0  0  0  0
M  END
>  <CHROM.1>
-127.32938494,54.74885939,-86.68367590,-71.62169547,162.42237316,57.40169832
178.79857143,7.31390951,3.30162992,14.54117018,-0.05098573,1.42852903,-2.06506193

>  <Name>
ligand

>  <RI>
0

>  <Rbt.Current_Directory>
/home/itssahil/PROJECTS/Mol_Feturizer/Test_systems_manuscript/rnas/4aob

>  <Rbt.Executable>
rbdock ($Id: //depot/dev/client3/rdock/2013.1/src/exe/rbdock.cxx#4 $)

>  <Rbt.Library>
libRbt.so (2013.1, Build901 2013/11/27)

>  <Rbt.Parameter_File>
/export/apps/rDock/src/rDock_2013.1_src/data/scripts/dock_solv.prm

>  <Rbt.Receptor>
prm/blind_docking_20.prm

>  <SCORE>
-11.7025

>  <SCORE.INTER>
-12.9135

>  <SCORE.INTER.CONST>
1

>  <SCORE.INTER.POLAR>
0

>  <SCORE.INTER.ROT>
7

>  <SCORE.INTER.SOLV>
19.7494

>  <SCORE.INTER.VDW>
-23.4588

>  <SCORE.INTER.norm>
-0.478279

>  <SCORE.INTRA>
0.676436

>  <SCORE.INTRA.DIHEDRAL>
-0.580466

>  <SCORE.INTRA.DIHEDRAL.0>
6.31833

>  <SCORE.INTRA.POLAR>
0

>  <SCORE.INTRA.POLAR.0>
0

>  <SCORE.INTRA.REPUL>
0

>  <SCORE.INTRA.REPUL.0>
0

>  <SCORE.INTRA.SOLV>
1.17978

>  <SCORE.INTRA.SOLV.lig_0>
-48.4015

>  <SCORE.INTRA.VDW>
0.37678

>  <SCORE.INTRA.VDW.0>
-2.83256

>  <SCORE.INTRA.norm>
0.0250532

>  <SCORE.RESTR>
0.534641

>  <SCORE.RESTR.CAVITY>
0.534641

>  <SCORE.RESTR.norm>
0.0198015

>  <SCORE.SYSTEM>
0

>  <SCORE.SYSTEM.CONST>
0

>  <SCORE.SYSTEM.DIHEDRAL>
0

>  <SCORE.SYSTEM.SOLV>
0

>  <SCORE.SYSTEM.norm>
0

>  <SCORE.heavy>
27

>  <SCORE.norm>
-0.433425

>  <RMSD>
19.165

$$$$
ligand
 OpenBabel02271912153D
libRbt.so/2013.1/901 2013/11/27
 27 29  0  0  0  0  0  0  0  0999 V2000
    9.7566   -0.7462   15.9034 N   0  0  0  0  0  0  0  0  0  0  0  0
    8.8262   -1.7003   16.5533 C   0  0  2  0  0  0  0  0  0  0  0  0
    7.9662   -2.3279   15.4639 C   0  0  0  0  0  0  0  0  0  0  0  0
    8.3826   -2.8387   14.3716 O   0  0  0  0  0  0  0  0  0  0  0  0
    8.0128   -0.9512   17.6111 C   0  0  0  0  0  0  0  0  0  0  0  0
    7.3199    0.2855   17.0546 C   0  0  0  0  0  0  0  0  0  0  0  0
    8.1910    1.8621   16.7198 S   0  0  2  0  0  0  0  0  0  0  0  0
    8.3462    2.4503   18.4052 C   0  0  0  0  0  0  0  0  0  0  0  0
    6.7773    2.8040   16.0637 C   0  0  0  0  0  0  0  0  0  0  0  0
    7.0104    4.2869   16.1560 C   0  0  1  0  0  0  0  0  0  0  0  0
    8.1589    4.7173   15.3861 O   0  0  0  0  0  0  0  0  0  0  0  0
    5.8384    5.1291   15.7065 C   0  0  1  0  0  0  0  0  0  0  0  0
    5.1445    5.5140   16.8122 O   0  0  0  0  0  0  0  0  0  0  0  0
    6.5662    6.3473   15.1881 C   0  0  1  0  0  0  0  0  0  0  0  0
    6.8228    7.1124   16.2809 O   0  0  0  0  0  0  0  0  0  0  0  0
    7.9032    5.8479   14.5972 C   0  0  2  0  0  0  0  0  0  0  0  0
    6.7481   -2.2807   15.6439 O   0  0  0  0  0  0  0  0  0  0  0  0
    6.4989    6.8440    9.6767 N   0  0  0  0  0  0  0  0  0  0  0  0
    6.8902    7.6758   10.7793 C   0  0  0  0  0  0  0  0  0  0  0  0
    7.2626    7.2726   12.0857 N   0  0  0  0  0  0  0  0  0  0  0  0
    7.2295    6.0044   12.2050 C   0  0  0  0  0  0  0  0  0  0  0  0
    6.8461    5.0620   11.1301 C   0  0  0  0  0  0  0  0  0  0  0  0
    6.4861    5.4864    9.9118 C   0  0  0  0  0  0  0  0  0  0  0  0
    6.1495    4.5443    9.0550 N   0  0  0  0  0  0  0  0  0  0  0  0
    6.8772    3.8034   11.4978 N   0  0  0  0  0  0  0  0  0  0  0  0
    7.2886    3.9578   12.8089 C   0  0  0  0  0  0  0  0  0  0  0  0
    7.5179    5.3212   13.2598 N   0  0  0  0  0  0  0  0  0  0  0  0
  2  1  1  6  0  0  0
  2  3  1  0  0  0  0
  2  5  1  0  0  0  0
  3  4  1  0  0  0  0
  3 17  1  0  0  0  0
  5  6  1  0  0  0  0
  7  6  1  1  0  0  0
  7  8  1  0  0  0  0
  7  9  1  0  0  0  0
 10  9  1  6  0  0  0
 10 11  1  0  0  0  0
 10 12  1  0  0  0  0
 11 16  1  0  0  0  0
 12 13  1  1  0  0  0
 12 14  1  0  0  0  0
 14 15  1  1  0  0  0
 14 16  1  0  0  0  0
 16 27  1  6  0  0  0
 18 19  2  0  0  0  0
 18 23  1  0  0  0  0
 19 20  1  0  0  0  0
 20 21  2  0  0  0  0
 21 22  1  0  0  0  0
 21 27  1  0  0  0  0
 22 23  2  0  0  0  0
 22 25  1  0  0  0  0
 23 24  1  0  0  0  0
 25 26  2  0  0  0  0
 26 27  1  0  0  0  0
M  END
>  <CHROM.1>
48.89802246,53.32424401,-77.24083187,-75.99472080,158.89473024,61.39139279
-178.00909472,7.33399212,3.25495282,14.51905531,-0.30118773,1.40310070,-1.83330323

>  <Name>
ligand

>  <RI>
0

>  <Rbt.Current_Directory>
/home/itssahil/PROJECTS/Mol_Feturizer/Test_systems_manuscript/rnas/4aob

>  <Rbt.Executable>
rbdock ($Id: //depot/dev/client3/rdock/2013.1/src/exe/rbdock.cxx#4 $)

>  <Rbt.Library>
libRbt.so (2013.1, Build901 2013/11/27)

>  <Rbt.Parameter_File>
/export/apps/rDock/src/rDock_2013.1_src/data/scripts/dock_solv.prm

>  <Rbt.Receptor>
prm/blind_docking_20.prm

>  <SCORE>
-10.7547

>  <SCORE.INTER>
-12.6407

>  <SCORE.INTER.CONST>
1

>  <SCORE.INTER.POLAR>
0

>  <SCORE.INTER.ROT>
7

>  <SCORE.INTER.SOLV>
19.7877

>  <SCORE.INTER.VDW>
-23.2897

>  <SCORE.INTER.norm>
-0.468175

>  <SCORE.INTRA>
1.37095

>  <SCORE.INTRA.DIHEDRAL>
-1.32904

>  <SCORE.INTRA.DIHEDRAL.0>
6.31833

>  <SCORE.INTRA.POLAR>
0

>  <SCORE.INTRA.POLAR.0>
0

>  <SCORE.INTRA.REPUL>
0

>  <SCORE.INTRA.REPUL.0>
0

>  <SCORE.INTRA.SOLV>
1.45567

>  <SCORE.INTRA.SOLV.lig_0>
-48.4015

>  <SCORE.INTRA.VDW>
1.30764

>  <SCORE.INTRA.VDW.0>
-2.83256

>  <SCORE.INTRA.norm>
0.050776

>  <SCORE.RESTR>
0.515045

>  <SCORE.RESTR.CAVITY>
0.515045

>  <SCORE.RESTR.norm>
0.0190758

>  <SCORE.SYSTEM>
0

>  <SCORE.SYSTEM.CONST>
0

>  <SCORE.SYSTEM.DIHEDRAL>
0

>  <SCORE.SYSTEM.SOLV>
0

>  <SCORE.SYSTEM.norm>
0

>  <SCORE.heavy>
27

>  <SCORE.norm>
-0.398323

>  <RMSD>
19.184

$$$$
ligand
 OpenBabel02271912153D
libRbt.so/2013.1/901 2013/11/27
 27 29  0  0  0  0  0  0  0  0999 V2000
    5.6957    2.8746   16.3065 N   0  0  0  0  0  0  0  0  0  0  0  0
    6.8756    3.6801   15.9099 C   0  0  2  0  0  0  0  0  0  0  0  0
    8.0826    3.1428   16.6680 C   0  0  0  0  0  0  0  0  0  0  0  0
    8.6609    2.0224   16.4735 O   0  0  0  0  0  0  0  0  0  0  0  0
    6.5849    5.1542   16.1997 C   0  0  0  0  0  0  0  0  0  0  0  0
    6.1407    5.9215   14.9616 C   0  0  0  0  0  0  0  0  0  0  0  0
    7.2856    6.4154   13.6193 S   0  0  2  0  0  0  0  0  0  0  0  0
    8.1071    7.7746   14.4488 C   0  0  0  0  0  0  0  0  0  0  0  0
    6.0748    7.2400   12.5375 C   0  0  0  0  0  0  0  0  0  0  0  0
    6.2795    6.8684   11.0946 C   0  0  1  0  0  0  0  0  0  0  0  0
    7.6793    6.8222   10.7264 O   0  0  0  0  0  0  0  0  0  0  0  0
    5.6776    5.5378   10.7044 C   0  0  1  0  0  0  0  0  0  0  0  0
    4.4720    5.7737   10.1184 O   0  0  0  0  0  0  0  0  0  0  0  0
    6.6330    5.1211    9.6109 C   0  0  1  0  0  0  0  0  0  0  0  0
    6.2036    5.7553    8.4889 O   0  0  0  0  0  0  0  0  0  0  0  0
    8.0223    5.6723   10.0010 C   0  0  2  0  0  0  0  0  0  0  0  0
    8.4953    3.8451   17.5926 O   0  0  0  0  0  0  0  0  0  0  0  0
   11.9786    2.8391   11.8707 N   0  0  0  0  0  0  0  0  0  0  0  0
   11.8704    3.8107   10.8195 C   0  0  0  0  0  0  0  0  0  0  0  0
   10.7183    4.5272   10.4105 N   0  0  0  0  0  0  0  0  0  0  0  0
    9.7063    4.2196   11.1211 C   0  0  0  0  0  0  0  0  0  0  0  0
    9.7154    3.2372   12.2281 C   0  0  0  0  0  0  0  0  0  0  0  0
   10.8243    2.5700   12.5733 C   0  0  0  0  0  0  0  0  0  0  0  0
   10.6893    1.7108   13.5625 N   0  0  0  0  0  0  0  0  0  0  0  0
    8.5470    3.0820   12.8035 N   0  0  0  0  0  0  0  0  0  0  0  0
    7.8031    3.9769   12.0567 C   0  0  0  0  0  0  0  0  0  0  0  0
    8.5133    4.6962   11.0113 N   0  0  0  0  0  0  0  0  0  0  0  0
  2  1  1  1  0  0  0
  2  3  1  0  0  0  0
  2  5  1  0  0  0  0
  3  4  1  0  0  0  0
  3 17  1  0  0  0  0
  5  6  1  0  0  0  0
  7  6  1  1  0  0  0
  7  8  1  0  0  0  0
  7  9  1  0  0  0  0
 10  9  1  1  0  0  0
 10 11  1  0  0  0  0
 10 12  1  0  0  0  0
 11 16  1  0  0  0  0
 12 13  1  6  0  0  0
 12 14  1  0  0  0  0
 14 15  1  6  0  0  0
 14 16  1  0  0  0  0
 16 27  1  1  0  0  0
 18 19  2  0  0  0  0
 18 23  1  0  0  0  0
 19 20  1  0  0  0  0
 20 21  2  0  0  0  0
 21 22  1  0  0  0  0
 21 27  1  0  0  0  0
 22 23  2  0  0  0  0
 22 25  1  0  0  0  0
 23 24  1  0  0  0  0
 25 26  2  0  0  0  0
 26 27  1  0  0  0  0
M  END
>  <CHROM.1>
70.40868625,-98.87356118,-74.16963111,-75.17667262,-136.63163050,-41.12988928
-114.95344074,7.95735484,4.72618217,12.80283913,1.34090085,-0.59974030,1.84257917

>  <Name>
ligand

>  <RI>
0

>  <Rbt.Current_Directory>
/home/itssahil/PROJECTS/Mol_Feturizer/Test_systems_manuscript/rnas/4aob

>  <Rbt.Executable>
rbdock ($Id: //depot/dev/client3/rdock/2013.1/src/exe/rbdock.cxx#4 $)

>  <Rbt.Library>
libRbt.so (2013.1, Build901 2013/11/27)

>  <Rbt.Parameter_File>
/export/apps/rDock/src/rDock_2013.1_src/data/scripts/dock_solv.prm

>  <Rbt.Receptor>
prm/blind_docking_20.prm

>  <SCORE>
-2.57056

>  <SCORE.INTER>
-8.31344

>  <SCORE.INTER.CONST>
1

>  <SCORE.INTER.POLAR>
0

>  <SCORE.INTER.ROT>
7

>  <SCORE.INTER.SOLV>
26.0027

>  <SCORE.INTER.VDW>
-22.4765

>  <SCORE.INTER.norm>
-0.307905

>  <SCORE.INTRA>
3.50327

>  <SCORE.INTRA.DIHEDRAL>
7.17895

>  <SCORE.INTRA.DIHEDRAL.0>
6.31833

>  <SCORE.INTRA.POLAR>
0

>  <SCORE.INTRA.POLAR.0>
0

>  <SCORE.INTRA.REPUL>
0

>  <SCORE.INTRA.REPUL.0>
0

>  <SCORE.INTRA.SOLV>
0.246713

>  <SCORE.INTRA.SOLV.lig_0>
-48.4015

>  <SCORE.INTRA.VDW>
-0.20956

>  <SCORE.INTRA.VDW.0>
-2.83256

>  <SCORE.INTRA.norm>
0.129751

>  <SCORE.RESTR>
2.23961

>  <SCORE.RESTR.CAVITY>
2.23961

>  <SCORE.RESTR.norm>
0.0829485

>  <SCORE.SYSTEM>
0

>  <SCORE.SYSTEM.CONST>
0

>  <SCORE.SYSTEM.DIHEDRAL>
0

>  <SCORE.SYSTEM.SOLV>
0

>  <SCORE.SYSTEM.norm>
0

>  <SCORE.heavy>
27

>  <SCORE.norm>
-0.095206

>  <RMSD>
20.030

$$$$
ligand
 OpenBabel02271912153D
libRbt.so/2013.1/901 2013/11/27
 27 29  0  0  0  0  0  0  0  0999 V2000
    6.4877    3.6837   17.9781 N   0  0  0  0  0  0  0  0  0  0  0  0
    6.0803    4.7711   17.0561 C   0  0  2  0  0  0  0  0  0  0  0  0
    4.5599    4.8596   17.0831 C   0  0  0  0  0  0  0  0  0  0  0  0
    3.8487    5.3849   18.0027 O   0  0  0  0  0  0  0  0  0  0  0  0
    6.6455    4.4745   15.6654 C   0  0  0  0  0  0  0  0  0  0  0  0
    6.2241    5.5050   14.6263 C   0  0  0  0  0  0  0  0  0  0  0  0
    7.4146    6.4213   13.5776 S   0  0  2  0  0  0  0  0  0  0  0  0
    7.8836    7.6947   14.7477 C   0  0  0  0  0  0  0  0  0  0  0  0
    6.2137    7.2555   12.4921 C   0  0  0  0  0  0  0  0  0  0  0  0
    6.3709    6.8245   11.0598 C   0  0  1  0  0  0  0  0  0  0  0  0
    7.7590    6.7070   10.6646 O   0  0  0  0  0  0  0  0  0  0  0  0
    5.7065    5.5071   10.7311 C   0  0  1  0  0  0  0  0  0  0  0  0
    4.4988    5.7720   10.1620 O   0  0  0  0  0  0  0  0  0  0  0  0
    6.6195    5.0123    9.6338 C   0  0  1  0  0  0  0  0  0  0  0  0
    6.1914    5.6235    8.4986 O   0  0  0  0  0  0  0  0  0  0  0  0
    8.0385    5.5187    9.9747 C   0  0  2  0  0  0  0  0  0  0  0  0
    3.9712    4.3179   16.1458 O   0  0  0  0  0  0  0  0  0  0  0  0
   11.9704    2.7480   11.9842 N   0  0  0  0  0  0  0  0  0  0  0  0
   11.8811    3.7060   10.9189 C   0  0  0  0  0  0  0  0  0  0  0  0
   10.7336    4.4059   10.4704 N   0  0  0  0  0  0  0  0  0  0  0  0
    9.7058    4.0964   11.1571 C   0  0  0  0  0  0  0  0  0  0  0  0
    9.6946    3.1273   12.2756 C   0  0  0  0  0  0  0  0  0  0  0  0
   10.8002    2.4755   12.6586 C   0  0  0  0  0  0  0  0  0  0  0  0
   10.6470    1.6266   13.6541 N   0  0  0  0  0  0  0  0  0  0  0  0
    8.5126    2.9669   12.8212 N   0  0  0  0  0  0  0  0  0  0  0  0
    7.7804    3.8454   12.0439 C   0  0  0  0  0  0  0  0  0  0  0  0
    8.5115    4.5595   11.0094 N   0  0  0  0  0  0  0  0  0  0  0  0
  2  1  1  1  0  0  0
  2  3  1  0  0  0  0
  2  5  1  0  0  0  0
  3  4  1  0  0  0  0
  3 17  1  0  0  0  0
  5  6  1  0  0  0  0
  7  6  1  1  0  0  0
  7  8  1  0  0  0  0
  7  9  1  0  0  0  0
 10  9  1  1  0  0  0
 10 11  1  0  0  0  0
 10 12  1  0  0  0  0
 11 16  1  0  0  0  0
 12 13  1  6  0  0  0
 12 14  1  0  0  0  0
 14 15  1  6  0  0  0
 14 16  1  0  0  0  0
 16 27  1  1  0  0  0
 18 19  2  0  0  0  0
 18 23  1  0  0  0  0
 19 20  1  0  0  0  0
 20 21  2  0  0  0  0
 21 22  1  0  0  0  0
 21 27  1  0  0  0  0
 22 23  2  0  0  0  0
 22 25  1  0  0  0  0
 23 24  1  0  0  0  0
 25 26  2  0  0  0  0
 26 27  1  0  0  0  0
M  END
>  <CHROM.1>
76.84149459,177.25516852,125.80263415,-81.61480449,-116.97077778,-41.07635360
-110.67437781,7.48400772,4.90173581,12.90962345,-2.28549563,0.52338819,-1.29336383

>  <Name>
ligand

>  <RI>
0

>  <Rbt.Current_Directory>
/home/itssahil/PROJECTS/Mol_Feturizer/Test_systems_manuscript/rnas/4aob

>  <Rbt.Executable>
rbdock ($Id: //depot/dev/client3/rdock/2013.1/src/exe/rbdock.cxx#4 $)

>  <Rbt.Library>
libRbt.so (2013.1, Build901 2013/11/27)

>  <Rbt.Parameter_File>
/export/apps/rDock/src/rDock_2013.1_src/data/scripts/dock_solv.prm

>  <Rbt.Receptor>
prm/blind_docking_20.prm

>  <SCORE>
-5.9378

>  <SCORE.INTER>
-12.2134

>  <SCORE.INTER.CONST>
1

>  <SCORE.INTER.POLAR>
0

>  <SCORE.INTER.ROT>
7

>  <SCORE.INTER.SOLV>
20.5009

>  <SCORE.INTER.VDW>
-23.2425

>  <SCORE.INTER.norm>
-0.452348

>  <SCORE.INTRA>
3.88399

>  <SCORE.INTRA.DIHEDRAL>
7.74072

>  <SCORE.INTRA.DIHEDRAL.0>
6.31833

>  <SCORE.INTRA.POLAR>
0

>  <SCORE.INTRA.POLAR.0>
0

>  <SCORE.INTRA.REPUL>
0

>  <SCORE.INTRA.REPUL.0>
0

>  <SCORE.INTRA.SOLV>
-0.575683

>  <SCORE.INTRA.SOLV.lig_0>
-48.4015

>  <SCORE.INTRA.VDW>
0.301469

>  <SCORE.INTRA.VDW.0>
-2.83256

>  <SCORE.INTRA.norm>
0.143851

>  <SCORE.RESTR>
2.3916

>  <SCORE.RESTR.CAVITY>
2.3916

>  <SCORE.RESTR.norm>
0.088578

>  <SCORE.SYSTEM>
0

>  <SCORE.SYSTEM.CONST>
0

>  <SCORE.SYSTEM.DIHEDRAL>
0

>  <SCORE.SYSTEM.SOLV>
0

>  <SCORE.SYSTEM.norm>
0

>  <SCORE.heavy>
27

>  <SCORE.norm>
-0.219919

>  <RMSD>
20.165

$$$$
ligand
 OpenBabel02271912153D
libRbt.so/2013.1/901 2013/11/27
 27 29  0  0  0  0  0  0  0  0999 V2000
   13.4727   -7.2906    6.9456 N   0  0  0  0  0  0  0  0  0  0  0  0
   12.0005   -7.4277    6.8358 C   0  0  2  0  0  0  0  0  0  0  0  0
   11.4009   -6.0274    6.8350 C   0  0  0  0  0  0  0  0  0  0  0  0
   12.0075   -4.9448    6.5390 O   0  0  0  0  0  0  0  0  0  0  0  0
   11.5002   -8.3004    7.9890 C   0  0  0  0  0  0  0  0  0  0  0  0
   11.7239   -7.6599    9.3524 C   0  0  0  0  0  0  0  0  0  0  0  0
   12.2734   -8.5981   10.8269 S   0  0  2  0  0  0  0  0  0  0  0  0
   11.1033   -9.9523   10.7392 C   0  0  0  0  0  0  0  0  0  0  0  0
   11.5724   -7.5056   12.1042 C   0  0  0  0  0  0  0  0  0  0  0  0
   10.0755   -7.6317   12.1786 C   0  0  1  0  0  0  0  0  0  0  0  0
    9.5815   -7.5856   13.5390 O   0  0  0  0  0  0  0  0  0  0  0  0
    9.3238   -6.5755   11.4012 C   0  0  1  0  0  0  0  0  0  0  0  0
    8.9674   -7.1070   10.2000 O   0  0  0  0  0  0  0  0  0  0  0  0
    8.0682   -6.4712   12.2348 C   0  0  1  0  0  0  0  0  0  0  0  0
    7.2677   -7.4869   11.8188 O   0  0  0  0  0  0  0  0  0  0  0  0
    8.4855   -6.7260   13.7001 C   0  0  2  0  0  0  0  0  0  0  0  0
   10.2310   -5.9412    7.2122 O   0  0  0  0  0  0  0  0  0  0  0  0
    7.6868   -1.9342   15.5910 N   0  0  0  0  0  0  0  0  0  0  0  0
    6.8224   -3.0516   15.3361 C   0  0  0  0  0  0  0  0  0  0  0  0
    7.1725   -4.3238   14.8195 N   0  0  0  0  0  0  0  0  0  0  0  0
    8.4240   -4.4024   14.5933 C   0  0  0  0  0  0  0  0  0  0  0  0
    9.3973   -3.3121   14.8270 C   0  0  0  0  0  0  0  0  0  0  0  0
    9.0217   -2.1180   15.3035 C   0  0  0  0  0  0  0  0  0  0  0  0
    9.9850   -1.2309   15.4455 N   0  0  0  0  0  0  0  0  0  0  0  0
   10.6290   -3.6285   14.5061 N   0  0  0  0  0  0  0  0  0  0  0  0
   10.4272   -4.9267   14.0747 C   0  0  0  0  0  0  0  0  0  0  0  0
    9.0614   -5.4229   14.1299 N   0  0  0  0  0  0  0  0  0  0  0  0
  2  1  1  1  0  0  0
  2  3  1  0  0  0  0
  2  5  1  0  0  0  0
  3  4  1  0  0  0  0
  3 17  1  0  0  0  0
  5  6  1  0  0  0  0
  7  6  1  6  0  0  0
  7  8  1  0  0  0  0
  7  9  1  0  0  0  0
 10  9  1  1  0  0  0
 10 11  1  0  0  0  0
 10 12  1  0  0  0  0
 11 16  1  0  0  0  0
 12 13  1  6  0  0  0
 12 14  1  0  0  0  0
 14 15  1  6  0  0  0
 14 16  1  0  0  0  0
 16 27  1  6  0  0  0
 18 19  2  0  0  0  0
 18 23  1  0  0  0  0
 19 20  1  0  0  0  0
 20 21  2  0  0  0  0
 21 22  1  0  0  0  0
 21 27  1  0  0  0  0
 22 23  2  0  0  0  0
 22 25  1  0  0  0  0
 23 24  1  0  0  0  0
 25 26  2  0  0  0  0
 26 27  1  0  0  0  0
M  END
>  <CHROM.1>
21.17326398,64.53967128,-139.73994746,-49.08795828,73.08418152,141.09941431
-168.33140675,10.04342473,-6.03795604,11.67430021,-0.44869328,1.13732534
-0.04322942

>  <Name>
ligand

>  <RI>
0

>  <Rbt.Current_Directory>
/home/itssahil/PROJECTS/Mol_Feturizer/Test_systems_manuscript/rnas/4aob

>  <Rbt.Executable>
rbdock ($Id: //depot/dev/client3/rdock/2013.1/src/exe/rbdock.cxx#4 $)

>  <Rbt.Library>
libRbt.so (2013.1, Build901 2013/11/27)

>  <Rbt.Parameter_File>
/export/apps/rDock/src/rDock_2013.1_src/data/scripts/dock_solv.prm

>  <Rbt.Receptor>
prm/blind_docking_20.prm

>  <SCORE>
-0.294158

>  <SCORE.INTER>
-7.2094

>  <SCORE.INTER.CONST>
1

>  <SCORE.INTER.POLAR>
0

>  <SCORE.INTER.ROT>
7

>  <SCORE.INTER.SOLV>
12.4351

>  <SCORE.INTER.VDW>
-17.218

>  <SCORE.INTER.norm>
-0.267015

>  <SCORE.INTRA>
6.06972

>  <SCORE.INTRA.DIHEDRAL>
7.16377

>  <SCORE.INTRA.DIHEDRAL.0>
6.31833

>  <SCORE.INTRA.POLAR>
0

>  <SCORE.INTRA.POLAR.0>
0

>  <SCORE.INTRA.REPUL>
0

>  <SCORE.INTRA.REPUL.0>
0

>  <SCORE.INTRA.SOLV>
0.698141

>  <SCORE.INTRA.SOLV.lig_0>
-48.4015

>  <SCORE.INTRA.VDW>
2.13877

>  <SCORE.INTRA.VDW.0>
-2.83256

>  <SCORE.INTRA.norm>
0.224804

>  <SCORE.RESTR>
0.845524

>  <SCORE.RESTR.CAVITY>
0.845524

>  <SCORE.RESTR.norm>
0.0313157

>  <SCORE.SYSTEM>
0

>  <SCORE.SYSTEM.CONST>
0

>  <SCORE.SYSTEM.DIHEDRAL>
0

>  <SCORE.SYSTEM.SOLV>
0

>  <SCORE.SYSTEM.norm>
0

>  <SCORE.heavy>
27

>  <SCORE.norm>
-0.0108947

>  <RMSD>
23.096

$$$$
ligand
 OpenBabel02271912153D
libRbt.so/2013.1/901 2013/11/27
 27 29  0  0  0  0  0  0  0  0999 V2000
    9.2038   -2.5217   14.1787 N   0  0  0  0  0  0  0  0  0  0  0  0
    8.1017   -2.8643   15.1095 C   0  0  2  0  0  0  0  0  0  0  0  0
    8.7007   -3.0287   16.5003 C   0  0  0  0  0  0  0  0  0  0  0  0
    8.0729   -3.3604   17.5602 O   0  0  0  0  0  0  0  0  0  0  0  0
    7.4004   -4.1249   14.5989 C   0  0  0  0  0  0  0  0  0  0  0  0
    8.3261   -5.3329   14.5446 C   0  0  0  0  0  0  0  0  0  0  0  0
    9.6172   -5.5544   13.2637 S   0  0  2  0  0  0  0  0  0  0  0  0
    8.7167   -4.9092   11.8554 C   0  0  0  0  0  0  0  0  0  0  0  0
    9.4821   -7.3601   13.0705 C   0  0  0  0  0  0  0  0  0  0  0  0
   10.7732   -7.9626   12.5887 C   0  0  1  0  0  0  0  0  0  0  0  0
   10.6043   -9.3116   12.0900 O   0  0  0  0  0  0  0  0  0  0  0  0
   11.4582   -7.1723   11.4972 C   0  0  1  0  0  0  0  0  0  0  0  0
   12.4258   -6.4069   12.0719 O   0  0  0  0  0  0  0  0  0  0  0  0
   12.1534   -8.2885   10.7534 C   0  0  1  0  0  0  0  0  0  0  0  0
   13.3023   -8.5246   11.4388 O   0  0  0  0  0  0  0  0  0  0  0  0
   11.2394   -9.5293   10.8590 C   0  0  2  0  0  0  0  0  0  0  0  0
    9.8981   -2.7579   16.6075 O   0  0  0  0  0  0  0  0  0  0  0  0
    6.3452   -8.1234    9.7431 N   0  0  0  0  0  0  0  0  0  0  0  0
    7.0974   -8.1964   10.9635 C   0  0  0  0  0  0  0  0  0  0  0  0
    8.4471   -8.5933   11.1327 N   0  0  0  0  0  0  0  0  0  0  0  0
    8.9841   -8.8930   10.0167 C   0  0  0  0  0  0  0  0  0  0  0  0
    8.2976   -8.8454    8.7063 C   0  0  0  0  0  0  0  0  0  0  0  0
    7.0147   -8.4779    8.5922 C   0  0  0  0  0  0  0  0  0  0  0  0
    6.5210   -8.4984    7.3712 N   0  0  0  0  0  0  0  0  0  0  0  0
    9.0564   -9.2116    7.7011 N   0  0  0  0  0  0  0  0  0  0  0  0
   10.2269   -9.4842    8.3849 C   0  0  0  0  0  0  0  0  0  0  0  0
   10.1978   -9.2838    9.8249 N   0  0  0  0  0  0  0  0  0  0  0  0
  2  1  1  6  0  0  0
  2  3  1  0  0  0  0
  2  5  1  0  0  0  0
  3  4  1  0  0  0  0
  3 17  1  0  0  0  0
  5  6  1  0  0  0  0
  7  6  1  1  0  0  0
  7  8  1  0  0  0  0
  7  9  1  0  0  0  0
 10  9  1  6  0  0  0
 10 11  1  0  0  0  0
 10 12  1  0  0  0  0
 11 16  1  0  0  0  0
 12 13  1  1  0  0  0
 12 14  1  0  0  0  0
 14 15  1  1  0  0  0
 14 16  1  0  0  0  0
 16 27  1  6  0  0  0
 18 19  2  0  0  0  0
 18 23  1  0  0  0  0
 19 20  1  0  0  0  0
 20 21  2  0  0  0  0
 21 22  1  0  0  0  0
 21 27  1  0  0  0  0
 22 23  2  0  0  0  0
 22 25  1  0  0  0  0
 23 24  1  0  0  0  0
 25 26  2  0  0  0  0
 26 27  1  0  0  0  0
M  END
>  <CHROM.1>
-177.90199943,61.60577910,-74.76288913,-38.50028216,-153.68712533,-164.57768589
2.89203880,9.38281194,-6.79101614,12.04464313,1.62224200,-0.28538421,0.87144599

>  <Name>
ligand

>  <RI>
0

>  <Rbt.Current_Directory>
/home/itssahil/PROJECTS/Mol_Feturizer/Test_systems_manuscript/rnas/4aob

>  <Rbt.Executable>
rbdock ($Id: //depot/dev/client3/rdock/2013.1/src/exe/rbdock.cxx#4 $)

>  <Rbt.Library>
libRbt.so (2013.1, Build901 2013/11/27)

>  <Rbt.Parameter_File>
/export/apps/rDock/src/rDock_2013.1_src/data/scripts/dock_solv.prm

>  <Rbt.Receptor>
prm/blind_docking_20.prm

>  <SCORE>
5.63109

>  <SCORE.INTER>
-3.9258

>  <SCORE.INTER.CONST>
1

>  <SCORE.INTER.POLAR>
0

>  <SCORE.INTER.ROT>
7

>  <SCORE.INTER.SOLV>
13.295

>  <SCORE.INTER.VDW>
-15.3155

>  <SCORE.INTER.norm>
-0.1454

>  <SCORE.INTRA>
7.35092

>  <SCORE.INTRA.DIHEDRAL>
3.22951

>  <SCORE.INTRA.DIHEDRAL.0>
6.31833

>  <SCORE.INTRA.POLAR>
0

>  <SCORE.INTRA.POLAR.0>
0

>  <SCORE.INTRA.REPUL>
0

>  <SCORE.INTRA.REPUL.0>
0

>  <SCORE.INTRA.SOLV>
2.33526

>  <SCORE.INTRA.SOLV.lig_0>
-48.4015

>  <SCORE.INTRA.VDW>
4.56854

>  <SCORE.INTRA.VDW.0>
-2.83256

>  <SCORE.INTRA.norm>
0.272256

>  <SCORE.RESTR>
2.20597

>  <SCORE.RESTR.CAVITY>
2.20597

>  <SCORE.RESTR.norm>
0.0817025

>  <SCORE.SYSTEM>
0

>  <SCORE.SYSTEM.CONST>
0

>  <SCORE.SYSTEM.DIHEDRAL>
0

>  <SCORE.SYSTEM.SOLV>
0

>  <SCORE.SYSTEM.norm>
0

>  <SCORE.heavy>
27

>  <SCORE.norm>
0.208559

>  <RMSD>
23.829

$$$$
ligand
 OpenBabel02271912153D
libRbt.so/2013.1/901 2013/11/27
 27 29  0  0  0  0  0  0  0  0999 V2000
    7.6447   -4.4477   17.2066 N   0  0  0  0  0  0  0  0  0  0  0  0
    8.3823   -3.9199   16.0336 C   0  0  2  0  0  0  0  0  0  0  0  0
    7.6944   -2.6352   15.5902 C   0  0  0  0  0  0  0  0  0  0  0  0
    6.4367   -2.4449   15.4935 O   0  0  0  0  0  0  0  0  0  0  0  0
    8.4136   -4.9967   14.9468 C   0  0  0  0  0  0  0  0  0  0  0  0
    9.3924   -4.6738   13.8257 C   0  0  0  0  0  0  0  0  0  0  0  0
    9.0353   -4.9886   12.0565 S   0  0  2  0  0  0  0  0  0  0  0  0
    7.3502   -4.3816   12.0070 C   0  0  0  0  0  0  0  0  0  0  0  0
    8.8389   -6.7966   12.1505 C   0  0  0  0  0  0  0  0  0  0  0  0
    8.0541   -7.3287   10.9831 C   0  0  1  0  0  0  0  0  0  0  0  0
    8.2507   -6.5477    9.7797 O   0  0  0  0  0  0  0  0  0  0  0  0
    8.3627   -8.7659   10.6305 C   0  0  1  0  0  0  0  0  0  0  0  0
    7.4077   -9.5549   11.1943 O   0  0  0  0  0  0  0  0  0  0  0  0
    8.1006   -8.7397    9.1428 C   0  0  1  0  0  0  0  0  0  0  0  0
    6.7577   -8.8916    9.0054 O   0  0  0  0  0  0  0  0  0  0  0  0
    8.5023   -7.3334    8.6458 C   0  0  2  0  0  0  0  0  0  0  0  0
    8.4389   -1.7173   15.2415 O   0  0  0  0  0  0  0  0  0  0  0  0
   12.7418   -7.1438    5.6184 N   0  0  0  0  0  0  0  0  0  0  0  0
   11.3419   -6.9456    5.3702 C   0  0  0  0  0  0  0  0  0  0  0  0
   10.2737   -7.0184    6.2983 N   0  0  0  0  0  0  0  0  0  0  0  0
   10.6970   -7.2849    7.4703 C   0  0  0  0  0  0  0  0  0  0  0  0
   12.1164   -7.5009    7.8296 C   0  0  0  0  0  0  0  0  0  0  0  0
   13.0951   -7.4372    6.9175 C   0  0  0  0  0  0  0  0  0  0  0  0
   14.3112   -7.6692    7.3673 N   0  0  0  0  0  0  0  0  0  0  0  0
   12.3023   -7.7736    9.0990 N   0  0  0  0  0  0  0  0  0  0  0  0
   10.9923   -7.7219    9.5387 C   0  0  0  0  0  0  0  0  0  0  0  0
    9.9844   -7.4123    8.5373 N   0  0  0  0  0  0  0  0  0  0  0  0
  2  1  1  1  0  0  0
  2  3  1  0  0  0  0
  2  5  1  0  0  0  0
  3  4  1  0  0  0  0
  3 17  1  0  0  0  0
  5  6  1  0  0  0  0
  7  6  1  1  0  0  0
  7  8  1  0  0  0  0
  7  9  1  0  0  0  0
 10  9  1  1  0  0  0
 10 11  1  0  0  0  0
 10 12  1  0  0  0  0
 11 16  1  0  0  0  0
 12 13  1  1  0  0  0
 12 14  1  0  0  0  0
 14 15  1  1  0  0  0
 14 16  1  0  0  0  0
 16 27  1  1  0  0  0
 18 19  2  0  0  0  0
 18 23  1  0  0  0  0
 19 20  1  0  0  0  0
 20 21  2  0  0  0  0
 21 22  1  0  0  0  0
 21 27  1  0  0  0  0
 22 23  2  0  0  0  0
 22 25  1  0  0  0  0
 23 24  1  0  0  0  0
 25 26  2  0  0  0  0
 26 27  1  0  0  0  0
M  END
>  <CHROM.1>
-43.20420146,-167.71998160,-139.99647572,43.85759493,159.08005294,31.30580942
-135.93326555,9.33365365,-6.27252878,10.82427321,-2.01356626,-0.53514730
-2.27752545

>  <Name>
ligand

>  <RI>
0

>  <Rbt.Current_Directory>
/home/itssahil/PROJECTS/Mol_Feturizer/Test_systems_manuscript/rnas/4aob

>  <Rbt.Executable>
rbdock ($Id: //depot/dev/client3/rdock/2013.1/src/exe/rbdock.cxx#4 $)

>  <Rbt.Library>
libRbt.so (2013.1, Build901 2013/11/27)

>  <Rbt.Parameter_File>
/export/apps/rDock/src/rDock_2013.1_src/data/scripts/dock_solv.prm

>  <Rbt.Receptor>
prm/blind_docking_20.prm

>  <SCORE>
11.1997

>  <SCORE.INTER>
8.06019

>  <SCORE.INTER.CONST>
1

>  <SCORE.INTER.POLAR>
0

>  <SCORE.INTER.ROT>
7

>  <SCORE.INTER.SOLV>
19.9255

>  <SCORE.INTER.VDW>
-9.53504

>  <SCORE.INTER.norm>
0.298526

>  <SCORE.INTRA>
2.49872

>  <SCORE.INTRA.DIHEDRAL>
4.41774

>  <SCORE.INTRA.DIHEDRAL.0>
6.31833

>  <SCORE.INTRA.POLAR>
0

>  <SCORE.INTRA.POLAR.0>
0

>  <SCORE.INTRA.REPUL>
0

>  <SCORE.INTRA.REPUL.0>
0

>  <SCORE.INTRA.SOLV>
-0.721244

>  <SCORE.INTRA.SOLV.lig_0>
-48.4015

>  <SCORE.INTRA.VDW>
0.650474

>  <SCORE.INTRA.VDW.0>
-2.83256

>  <SCORE.INTRA.norm>
0.0925452

>  <SCORE.RESTR>
0.640832

>  <SCORE.RESTR.CAVITY>
0.640832

>  <SCORE.RESTR.norm>
0.0237345

>  <SCORE.SYSTEM>
0

>  <SCORE.SYSTEM.CONST>
0

>  <SCORE.SYSTEM.DIHEDRAL>
0

>  <SCORE.SYSTEM.SOLV>
0

>  <SCORE.SYSTEM.norm>
0

>  <SCORE.heavy>
27

>  <SCORE.norm>
0.414805

>  <RMSD>
24.647

$$$$
ligand
 OpenBabel02271912153D
libRbt.so/2013.1/901 2013/11/27
 27 29  0  0  0  0  0  0  0  0999 V2000
    9.6553   -2.7771   15.0849 N   0  0  0  0  0  0  0  0  0  0  0  0
    8.2038   -2.8513   14.7915 C   0  0  2  0  0  0  0  0  0  0  0  0
    7.4612   -2.1846   15.9423 C   0  0  0  0  0  0  0  0  0  0  0  0
    6.5434   -2.7099   16.6559 O   0  0  0  0  0  0  0  0  0  0  0  0
    7.8170   -4.3180   14.5895 C   0  0  0  0  0  0  0  0  0  0  0  0
    8.2005   -4.8440   13.2127 C   0  0  0  0  0  0  0  0  0  0  0  0
    7.9330   -6.5789   12.6881 S   0  0  2  0  0  0  0  0  0  0  0  0
    9.4787   -7.2786   13.2639 C   0  0  0  0  0  0  0  0  0  0  0  0
    8.2020   -6.3527   10.9013 C   0  0  0  0  0  0  0  0  0  0  0  0
    7.5575   -7.4515   10.1018 C   0  0  1  0  0  0  0  0  0  0  0  0
    7.5694   -7.1831    8.6789 O   0  0  0  0  0  0  0  0  0  0  0  0
    8.1849   -8.8127   10.2983 C   0  0  1  0  0  0  0  0  0  0  0  0
    7.4356   -9.4978   11.2046 O   0  0  0  0  0  0  0  0  0  0  0  0
    7.9219   -9.4277    8.9437 C   0  0  1  0  0  0  0  0  0  0  0  0
    6.6487   -9.8985    8.9969 O   0  0  0  0  0  0  0  0  0  0  0  0
    7.9920   -8.2791    7.9132 C   0  0  2  0  0  0  0  0  0  0  0  0
    7.7465   -1.0052   16.1573 O   0  0  0  0  0  0  0  0  0  0  0  0
   11.9196   -5.0246    6.8376 N   0  0  0  0  0  0  0  0  0  0  0  0
   10.5095   -4.8396    7.0327 C   0  0  0  0  0  0  0  0  0  0  0  0
    9.5351   -5.8233    7.3339 N   0  0  0  0  0  0  0  0  0  0  0  0
   10.0617   -6.9791    7.4370 C   0  0  0  0  0  0  0  0  0  0  0  0
   11.5015   -7.2729    7.2601 C   0  0  0  0  0  0  0  0  0  0  0  0
   12.3881   -6.3145    6.9611 C   0  0  0  0  0  0  0  0  0  0  0  0
   13.6338   -6.7151    6.8114 N   0  0  0  0  0  0  0  0  0  0  0  0
   11.8012   -8.5416    7.4041 N   0  0  0  0  0  0  0  0  0  0  0  0
   10.5429   -9.0446    7.6790 C   0  0  0  0  0  0  0  0  0  0  0  0
    9.4529   -8.0826    7.7093 N   0  0  0  0  0  0  0  0  0  0  0  0
  2  1  1  1  0  0  0
  2  3  1  0  0  0  0
  2  5  1  0  0  0  0
  3  4  1  0  0  0  0
  3 17  1  0  0  0  0
  5  6  1  0  0  0  0
  7  6  1  1  0  0  0
  7  8  1  0  0  0  0
  7  9  1  0  0  0  0
 10  9  1  1  0  0  0
 10 11  1  0  0  0  0
 10 12  1  0  0  0  0
 11 16  1  0  0  0  0
 12 13  1  1  0  0  0
 12 14  1  0  0  0  0
 14 15  1  1  0  0  0
 14 16  1  0  0  0  0
 16 27  1  1  0  0  0
 18 19  2  0  0  0  0
 18 23  1  0  0  0  0
 19 20  1  0  0  0  0
 20 21  2  0  0  0  0
 21 22  1  0  0  0  0
 21 27  1  0  0  0  0
 22 23  2  0  0  0  0
 22 25  1  0  0  0  0
 23 24  1  0  0  0  0
 25 26  2  0  0  0  0
 26 27  1  0  0  0  0
M  END
>  <CHROM.1>
-124.36920178,-78.45683388,177.48137028,-88.49529288,-158.15720121,170.63169782
-41.61360807,8.97923498,-6.30121437,10.65381937,-1.95932723,-0.76257027,-2.36924640

>  <Name>
ligand

>  <RI>
0

>  <Rbt.Current_Directory>
/home/itssahil/PROJECTS/Mol_Feturizer/Test_systems_manuscript/rnas/4aob

>  <Rbt.Executable>
rbdock ($Id: //depot/dev/client3/rdock/2013.1/src/exe/rbdock.cxx#4 $)

>  <Rbt.Library>
libRbt.so (2013.1, Build901 2013/11/27)

>  <Rbt.Parameter_File>
/export/apps/rDock/src/rDock_2013.1_src/data/scripts/dock_solv.prm

>  <Rbt.Receptor>
prm/blind_docking_20.prm

>  <SCORE>
-2.52809

>  <SCORE.INTER>
-4.20404

>  <SCORE.INTER.CONST>
1

>  <SCORE.INTER.POLAR>
0

>  <SCORE.INTER.ROT>
7

>  <SCORE.INTER.SOLV>
11.9076

>  <SCORE.INTER.VDW>
-15.0385

>  <SCORE.INTER.norm>
-0.155705

>  <SCORE.INTRA>
1.0984

>  <SCORE.INTRA.DIHEDRAL>
1.77606

>  <SCORE.INTRA.DIHEDRAL.0>
6.31833

>  <SCORE.INTRA.POLAR>
0

>  <SCORE.INTRA.POLAR.0>
0

>  <SCORE.INTRA.REPUL>
0

>  <SCORE.INTRA.REPUL.0>
0

>  <SCORE.INTRA.SOLV>
0.0182823

>  <SCORE.INTRA.SOLV.lig_0>
-48.4015

>  <SCORE.INTRA.VDW>
0.20123

>  <SCORE.INTRA.VDW.0>
-2.83256

>  <SCORE.INTRA.norm>
0.0406815

>  <SCORE.RESTR>
0.577545

>  <SCORE.RESTR.CAVITY>
0.577545

>  <SCORE.RESTR.norm>
0.0213906

>  <SCORE.SYSTEM>
0

>  <SCORE.SYSTEM.CONST>
0

>  <SCORE.SYSTEM.DIHEDRAL>
0

>  <SCORE.SYSTEM.SOLV>
0

>  <SCORE.SYSTEM.norm>
0

>  <SCORE.heavy>
27

>  <SCORE.norm>
-0.093633

>  <RMSD>
24.966

$$$$
ligand
 OpenBabel02271912153D
libRbt.so/2013.1/901 2013/11/27
 27 29  0  0  0  0  0  0  0  0999 V2000
    9.8242   -2.7594   14.7644 N   0  0  0  0  0  0  0  0  0  0  0  0
    8.3443   -2.8309   14.7101 C   0  0  2  0  0  0  0  0  0  0  0  0
    7.8002   -2.2001   15.9853 C   0  0  0  0  0  0  0  0  0  0  0  0
    6.8270   -1.3794   16.0679 O   0  0  0  0  0  0  0  0  0  0  0  0
    7.9286   -4.2928   14.5320 C   0  0  0  0  0  0  0  0  0  0  0  0
    8.2356   -4.8270   13.1393 C   0  0  0  0  0  0  0  0  0  0  0  0
    7.9356   -6.5638   12.6391 S   0  0  2  0  0  0  0  0  0  0  0  0
    9.4584   -7.2882   13.2450 C   0  0  0  0  0  0  0  0  0  0  0  0
    8.2310   -6.3727   10.8524 C   0  0  0  0  0  0  0  0  0  0  0  0
    7.5680   -7.4673   10.0623 C   0  0  1  0  0  0  0  0  0  0  0  0
    7.5647   -7.2007    8.6390 O   0  0  0  0  0  0  0  0  0  0  0  0
    8.1869   -8.8332   10.2529 C   0  0  1  0  0  0  0  0  0  0  0  0
    7.4432   -9.5112   11.1693 O   0  0  0  0  0  0  0  0  0  0  0  0
    7.9024   -9.4478    8.9024 C   0  0  1  0  0  0  0  0  0  0  0  0
    6.6262   -9.9082    8.9718 O   0  0  0  0  0  0  0  0  0  0  0  0
    7.9690   -8.3010    7.8696 C   0  0  2  0  0  0  0  0  0  0  0  0
    8.4038   -2.4758   17.0236 O   0  0  0  0  0  0  0  0  0  0  0  0
   11.9187   -5.0662    6.8159 N   0  0  0  0  0  0  0  0  0  0  0  0
   10.5143   -4.8697    7.0381 C   0  0  0  0  0  0  0  0  0  0  0  0
    9.5328   -5.8494    7.3293 N   0  0  0  0  0  0  0  0  0  0  0  0
   10.0468   -7.0136    7.3942 C   0  0  0  0  0  0  0  0  0  0  0  0
   11.4800   -7.3196    7.1869 C   0  0  0  0  0  0  0  0  0  0  0  0
   12.3734   -6.3643    6.8987 C   0  0  0  0  0  0  0  0  0  0  0  0
   13.6117   -6.7756    6.7189 N   0  0  0  0  0  0  0  0  0  0  0  0
   11.7664   -8.5951    7.2934 N   0  0  0  0  0  0  0  0  0  0  0  0
   10.5065   -9.0902    7.5753 C   0  0  0  0  0  0  0  0  0  0  0  0
    9.4288   -8.1165    7.6476 N   0  0  0  0  0  0  0  0  0  0  0  0
  2  1  1  1  0  0  0
  2  3  1  0  0  0  0
  2  5  1  0  0  0  0
  3  4  1  0  0  0  0
  3 17  1  0  0  0  0
  5  6  1  0  0  0  0
  7  6  1  1  0  0  0
  7  8  1  0  0  0  0
  7  9  1  0  0  0  0
 10  9  1  1  0  0  0
 10 11  1  0  0  0  0
 10 12  1  0  0  0  0
 11 16  1  0  0  0  0
 12 13  1  1  0  0  0
 12 14  1  0  0  0  0
 14 15  1  1  0  0  0
 14 16  1  0  0  0  0
 16 27  1  1  0  0  0
 18 19  2  0  0  0  0
 18 23  1  0  0  0  0
 19 20  1  0  0  0  0
 20 21  2  0  0  0  0
 21 22  1  0  0  0  0
 21 27  1  0  0  0  0
 22 23  2  0  0  0  0
 22 25  1  0  0  0  0
 23 24  1  0  0  0  0
 25 26  2  0  0  0  0
 26 27  1  0  0  0  0
M  END
>  <CHROM.1>
135.48550124,-71.63333240,176.81643278,-84.47910533,-157.97155522,168.74466470
-40.03014676,9.03734980,-6.32283899,10.61240453,-1.90767507,-0.75383930,-2.33056460

>  <Name>
ligand

>  <RI>
0

>  <Rbt.Current_Directory>
/home/itssahil/PROJECTS/Mol_Feturizer/Test_systems_manuscript/rnas/4aob

>  <Rbt.Executable>
rbdock ($Id: //depot/dev/client3/rdock/2013.1/src/exe/rbdock.cxx#4 $)

>  <Rbt.Library>
libRbt.so (2013.1, Build901 2013/11/27)

>  <Rbt.Parameter_File>
/export/apps/rDock/src/rDock_2013.1_src/data/scripts/dock_solv.prm

>  <Rbt.Receptor>
prm/blind_docking_20.prm

>  <SCORE>
-2.57941

>  <SCORE.INTER>
-3.84117

>  <SCORE.INTER.CONST>
1

>  <SCORE.INTER.POLAR>
0

>  <SCORE.INTER.ROT>
7

>  <SCORE.INTER.SOLV>
11.5318

>  <SCORE.INTER.VDW>
-14.6714

>  <SCORE.INTER.norm>
-0.142266

>  <SCORE.INTRA>
0.648268

>  <SCORE.INTRA.DIHEDRAL>
0.919592

>  <SCORE.INTRA.DIHEDRAL.0>
6.31833

>  <SCORE.INTRA.POLAR>
0

>  <SCORE.INTRA.POLAR.0>
0

>  <SCORE.INTRA.REPUL>
0

>  <SCORE.INTRA.REPUL.0>
0

>  <SCORE.INTRA.SOLV>
0.118824

>  <SCORE.INTRA.SOLV.lig_0>
-48.4015

>  <SCORE.INTRA.VDW>
0.12906

>  <SCORE.INTRA.VDW.0>
-2.83256

>  <SCORE.INTRA.norm>
0.0240099

>  <SCORE.RESTR>
0.613492

>  <SCORE.RESTR.CAVITY>
0.613492

>  <SCORE.RESTR.norm>
0.0227219

>  <SCORE.SYSTEM>
0

>  <SCORE.SYSTEM.CONST>
0

>  <SCORE.SYSTEM.DIHEDRAL>
0

>  <SCORE.SYSTEM.SOLV>
0

>  <SCORE.SYSTEM.norm>
0

>  <SCORE.heavy>
27

>  <SCORE.norm>
-0.0955337

>  <RMSD>
25.000

$$$$
ligand
 OpenBabel02271912153D
libRbt.so/2013.1/901 2013/11/27
 27 29  0  0  0  0  0  0  0  0999 V2000
    8.1433   -3.4675   14.1981 N   0  0  0  0  0  0  0  0  0  0  0  0
    8.0038   -4.9213   13.9425 C   0  0  2  0  0  0  0  0  0  0  0  0
    8.6735   -5.6629   15.0922 C   0  0  0  0  0  0  0  0  0  0  0  0
    8.8689   -6.9212   15.1692 O   0  0  0  0  0  0  0  0  0  0  0  0
    8.6153   -5.2417   12.5768 C   0  0  0  0  0  0  0  0  0  0  0  0
    8.3069   -6.6584   12.1110 C   0  0  0  0  0  0  0  0  0  0  0  0
    9.3176   -8.1135   12.5774 S   0  0  2  0  0  0  0  0  0  0  0  0
   10.8739   -7.2782   12.8790 C   0  0  0  0  0  0  0  0  0  0  0  0
    9.5269   -8.8262   10.9148 C   0  0  0  0  0  0  0  0  0  0  0  0
    8.2227   -8.8781   10.1675 C   0  0  1  0  0  0  0  0  0  0  0  0
    7.8653   -7.6014    9.5853 O   0  0  0  0  0  0  0  0  0  0  0  0
    8.1867   -9.8966    9.0511 C   0  0  1  0  0  0  0  0  0  0  0  0
    7.5712  -11.0167    9.5191 O   0  0  0  0  0  0  0  0  0  0  0  0
    7.2250   -9.2208    8.1019 C   0  0  1  0  0  0  0  0  0  0  0  0
    5.9833   -9.5310    8.5572 O   0  0  0  0  0  0  0  0  0  0  0  0
    7.4506   -7.6998    8.2494 C   0  0  2  0  0  0  0  0  0  0  0  0
    9.0036   -4.9739   16.0591 O   0  0  0  0  0  0  0  0  0  0  0  0
   12.4977   -6.4029    8.1077 N   0  0  0  0  0  0  0  0  0  0  0  0
   11.5669   -6.6317    9.1763 C   0  0  0  0  0  0  0  0  0  0  0  0
   10.2004   -6.9937    9.0789 N   0  0  0  0  0  0  0  0  0  0  0  0
    9.8415   -7.1210    7.8629 C   0  0  0  0  0  0  0  0  0  0  0  0
   10.7239   -6.9132    6.6930 C   0  0  0  0  0  0  0  0  0  0  0  0
   12.0078   -6.5567    6.8291 C   0  0  0  0  0  0  0  0  0  0  0  0
   12.6752   -6.3853    5.7065 N   0  0  0  0  0  0  0  0  0  0  0  0
   10.1219   -7.0916    5.5414 N   0  0  0  0  0  0  0  0  0  0  0  0
    8.8566   -7.4192    5.9927 C   0  0  0  0  0  0  0  0  0  0  0  0
    8.6700   -7.4478    7.4346 N   0  0  0  0  0  0  0  0  0  0  0  0
  2  1  1  1  0  0  0
  2  3  1  0  0  0  0
  2  5  1  0  0  0  0
  3  4  1  0  0  0  0
  3 17  1  0  0  0  0
  5  6  1  0  0  0  0
  7  6  1  6  0  0  0
  7  8  1  0  0  0  0
  7  9  1  0  0  0  0
 10  9  1  6  0  0  0
 10 11  1  0  0  0  0
 10 12  1  0  0  0  0
 11 16  1  0  0  0  0
 12 13  1  1  0  0  0
 12 14  1  0  0  0  0
 14 15  1  1  0  0  0
 14 16  1  0  0  0  0
 16 27  1  6  0  0  0
 18 19  2  0  0  0  0
 18 23  1  0  0  0  0
 19 20  1  0  0  0  0
 20 21  2  0  0  0  0
 21 22  1  0  0  0  0
 21 27  1  0  0  0  0
 22 23  2  0  0  0  0
 22 25  1  0  0  0  0
 23 24  1  0  0  0  0
 25 26  2  0  0  0  0
 26 27  1  0  0  0  0
M  END
>  <CHROM.1>
-173.05512295,-169.86393295,-86.06361732,-25.67455105,-46.85098788,80.12868467
-4.10856228,9.18150145,-7.28311354,10.25854829,-1.76225342,-0.71744597,-1.93737878

>  <Name>
ligand

>  <RI>
0

>  <Rbt.Current_Directory>
/home/itssahil/PROJECTS/Mol_Feturizer/Test_systems_manuscript/rnas/4aob

>  <Rbt.Executable>
rbdock ($Id: //depot/dev/client3/rdock/2013.1/src/exe/rbdock.cxx#4 $)

>  <Rbt.Library>
libRbt.so (2013.1, Build901 2013/11/27)

>  <Rbt.Parameter_File>
/export/apps/rDock/src/rDock_2013.1_src/data/scripts/dock_solv.prm

>  <Rbt.Receptor>
prm/blind_docking_20.prm

>  <SCORE>
-0.863207

>  <SCORE.INTER>
-8.41299

>  <SCORE.INTER.CONST>
1

>  <SCORE.INTER.POLAR>
0

>  <SCORE.INTER.ROT>
7

>  <SCORE.INTER.SOLV>
10.9353

>  <SCORE.INTER.VDW>
-17.5204

>  <SCORE.INTER.norm>
-0.311592

>  <SCORE.INTRA>
6.25482

>  <SCORE.INTRA.DIHEDRAL>
5.46656

>  <SCORE.INTRA.DIHEDRAL.0>
6.31833

>  <SCORE.INTRA.POLAR>
0

>  <SCORE.INTRA.POLAR.0>
0

>  <SCORE.INTRA.REPUL>
0

>  <SCORE.INTRA.REPUL.0>
0

>  <SCORE.INTRA.SOLV>
-0.449146

>  <SCORE.INTRA.SOLV.lig_0>
-48.4015

>  <SCORE.INTRA.VDW>
3.74611

>  <SCORE.INTRA.VDW.0>
-2.83256

>  <SCORE.INTRA.norm>
0.23166

>  <SCORE.RESTR>
1.29496

>  <SCORE.RESTR.CAVITY>
1.29496

>  <SCORE.RESTR.norm>
0.0479617

>  <SCORE.SYSTEM>
0

>  <SCORE.SYSTEM.CONST>
0

>  <SCORE.SYSTEM.DIHEDRAL>
0

>  <SCORE.SYSTEM.SOLV>
0

>  <SCORE.SYSTEM.norm>
0

>  <SCORE.heavy>
27

>  <SCORE.norm>
-0.0319706

>  <RMSD>
25.579

$$$$
