@<TRIPOS>MOLECULE
4aob_rdock.pdb
 2023 2268 0 0 0
SMALL
GASTEIGER

@<TRIPOS>ATOM
      1  P         -3.8990    8.4520   32.3040 P.3     1  G1          0.1280
      2  C5'       -5.4790   10.5440   32.6120 C.3     1  G1          0.1795
      3  O5'       -4.5400    9.6270   33.2070 O.3     1  G1         -0.3259
      4  C4'       -6.2760   11.2840   33.6580 C.3     1  G1          0.1772
      5  O4'       -6.7700   10.3700   34.6730 O.3     1  G1         -0.3307
      6  C3'       -5.5110   12.3230   34.4520 C.3     1  G1          0.1860
      7  O3'       -5.3950   13.5590   33.7880 O.3     1  G1         -0.3112
      8  C2'       -6.3270   12.4420   35.7470 C.3     1  G1          0.2309
      9  O2'       -7.4020   13.3390   35.5810 O.3     1  G1         -0.2156
     10  C1'       -6.7180   10.9870   35.9710 C.3     1  G1          0.2408
     11  N1        -4.9840   10.0130   40.6740 N.ar    1  G1         -0.1709
     12  C2        -5.8160   11.0140   40.2480 C.ar    1  G1          0.2606
     13  N2        -6.2520   11.8460   41.1760 N.pl3   1  G1         -0.0859
     14  N3        -6.1770   11.1950   38.9870 N.ar    1  G1         -0.1918
     15  C4        -5.6580   10.2530   38.1730 C.ar    1  G1          0.1723
     16  C5        -4.8100    9.2140   38.4960 C.ar    1  G1          0.1748
     17  C6        -4.4240    9.0390   39.8510 C.ar    1  G1          0.3023
     18  O6        -3.6770    8.1820   40.3310 O.2     1  G1         -0.2633
     19  N7        -4.4380    8.5120   37.3610 N.ar    1  G1         -0.2173
     20  C8        -5.0670    9.1140   36.3850 C.ar    1  G1          0.1817
     21  N9        -5.8200   10.1830   36.8060 N.ar    1  G1         -0.2693
     22  OP1       -5.0450    7.5020   32.1210 O.3     1  G1         -0.1955
     23  OP2       -2.5640    7.8630   32.7810 O.co2   1  G1         -0.7863
     24  P         -3.8530   13.9930   33.9250 P.3     2  G2          0.2141
     25  C5'       -4.0230   15.6920   35.8940 C.3     2  G2          0.1812
     26  O5'       -3.5800   14.4290   35.4260 O.3     2  G2         -0.3114
     27  C4'       -4.1160   15.6180   37.4050 C.3     2  G2          0.1773
     28  O4'       -4.4670   14.2620   37.8280 O.3     2  G2         -0.3307
     29  C3'       -2.8310   15.8740   38.1610 C.3     2  G2          0.1860
     30  O3'       -2.4520   17.2530   38.1530 O.3     2  G2         -0.3112
     31  C2'       -3.1930   15.2970   39.5270 C.3     2  G2          0.2309
     32  O2'       -3.9940   16.1720   40.2300 O.3     2  G2         -0.2156
     33  C1'       -3.9850   14.0360   39.1340 C.3     2  G2          0.2408
     34  N1        -0.9960   10.7460   41.6120 N.ar    2  G2         -0.1709
     35  C2        -1.6320   11.8650   42.0980 C.ar    2  G2          0.2606
     36  N2        -1.4410   12.1270   43.4270 N.pl3   2  G2         -0.0859
     37  N3        -2.4150   12.6540   41.3580 N.ar    2  G2         -0.1918
     38  C4        -2.4190   12.2750   40.0620 C.ar    2  G2          0.1723
     39  C5        -1.7480   11.2220   39.4700 C.ar    2  G2          0.1748
     40  C6        -0.9630   10.3670   40.2780 C.ar    2  G2          0.3023
     41  O6        -0.3740    9.3340   39.9490 O.2     2  G2         -0.2633
     42  N7        -2.0990   11.1050   38.1320 N.ar    2  G2         -0.2173
     43  C8        -2.9030   12.1130   37.9230 C.ar    2  G2          0.1817
     44  N9        -3.1710   12.8360   39.0590 N.ar    2  G2         -0.2693
     45  OP1       -3.8850   15.3620   33.2720 O.2     2  G2         -0.5172
     46  OP2       -2.9090   12.8340   33.5550 O.co2   2  G2         -0.4373
     47  P         -0.9070   17.7580   38.0780 P.3     3  C3          0.2141
     48  C5'       -0.8530   18.1910   40.6680 C.3     3  C3          0.1812
     49  O5'       -0.5090   17.3500   39.5780 O.3     3  C3         -0.3114
     50  C4'       -0.1640   17.6720   41.8860 C.3     3  C3          0.1773
     51  O4'       -0.5450   16.2880   42.0750 O.3     3  C3         -0.3307
     52  C3'        1.3470   17.5820   41.8200 C.3     3  C3          0.1860
     53  O3'        2.0000   18.7960   42.1300 O.3     3  C3         -0.3112
     54  C2'        1.6470   16.5850   42.9290 C.3     3  C3          0.2309
     55  O2'        1.5920   17.2360   44.1840 O.3     3  C3         -0.2156
     56  C1'        0.5010   15.5870   42.7490 C.3     3  C3          0.2420
     57  N1         0.8930   14.4310   41.9310 N.ar    3  C3         -0.2535
     58  C2         1.5820   13.3650   42.5470 C.ar    3  C3          0.3532
     59  O2         1.8030   13.4200   43.7510 O.2     3  C3         -0.2443
     60  N3         1.9700   12.3020   41.8000 N.ar    3  C3         -0.1739
     61  C4         1.7440   12.3000   40.4760 C.ar    3  C3          0.1759
     62  N4         2.1620   11.2490   39.7820 N.pl3   3  C3         -0.1070
     63  C5         1.0650   13.3810   39.8170 C.ar    3  C3          0.0566
     64  C6         0.6700   14.4190   40.5760 C.ar    3  C3          0.0850
     65  OP1       -0.8100   19.2490   38.0820 O.3     3  C3         -0.4373
     66  OP2       -0.2140   16.9320   37.0810 O.co2   3  C3         -0.5172
     67  P          3.3950   19.0500   41.3950 P.3     4  U4          0.2141
     68  C5'        4.8220   18.5460   43.5340 C.3     4  U4          0.1812
     69  O5'        4.4430   18.1730   42.2150 O.3     4  U4         -0.3114
     70  C4'        5.5890   17.4210   44.1690 C.3     4  U4          0.1773
     71  O4'        4.8340   16.2120   43.9660 O.3     4  U4         -0.3307
     72  C3'        6.9120   17.0640   43.5170 C.3     4  U4          0.1860
     73  O3'        7.9960   17.8350   43.9780 O.3     4  U4         -0.3112
     74  C2'        7.1250   15.6380   43.9850 C.3     4  U4          0.2309
     75  O2'        7.4010   15.6220   45.3690 O.3     4  U4         -0.2156
     76  C1'        5.7240   15.0920   43.8380 C.3     4  U4          0.2420
     77  N1         5.5040   14.4510   42.5350 N.ar    4  U4         -0.2534
     78  C2         6.0180   13.1710   42.3500 C.ar    4  U4          0.3546
     79  O2         6.6930   12.5890   43.2050 O.2     4  U4         -0.2443
     80  N3         5.7840   12.6360   41.1010 N.ar    4  U4         -0.1530
     81  C4         5.0480   13.2010   40.0710 C.ar    4  U4          0.2846
     82  O4         4.9370   12.5970   39.0020 O.2     4  U4         -0.2650
     83  C5         4.4850   14.4870   40.3730 C.ar    4  U4          0.0814
     84  C6         4.7480   15.0660   41.5520 C.ar    4  U4          0.0870
     85  OP1        3.7360   20.4280   41.7190 O.3     4  U4         -0.4373
     86  OP2        3.2160   18.6590   39.9720 O.co2   4  U4         -0.5172
     87  P          8.6710   18.7180   42.8470 P.3     5  U5          0.2141
     88  C5'       10.7660   17.2840   43.4230 C.3     5  U5          0.1812
     89  O5'        9.8120   17.6910   42.4050 O.3     5  U5         -0.3114
     90  C4'       11.3570   15.9460   43.1020 C.3     5  U5          0.1773
     91  O4'       10.2840   14.9740   42.9880 O.3     5  U5         -0.3307
     92  C3'       12.0840   15.8510   41.7730 C.3     5  U5          0.1860
     93  O3'       13.4120   16.3190   41.8310 O.3     5  U5         -0.3112
     94  C2'       11.9810   14.3520   41.4530 C.3     5  U5          0.2309
     95  O2'       12.9110   13.4500   42.0390 O.3     5  U5         -0.2156
     96  C1'       10.5760   14.0350   41.9450 C.3     5  U5          0.2420
     97  N1         9.5900   14.1790   40.8600 N.ar    5  U5         -0.2534
     98  C2         9.4450   13.0950   40.0200 C.ar    5  U5          0.3546
     99  O2        10.0450   12.0450   40.1980 O.2     5  U5         -0.2443
    100  N3         8.5070   13.2560   39.0170 N.ar    5  U5         -0.1530
    101  C4         7.6970   14.3700   38.7880 C.ar    5  U5          0.2846
    102  O4         6.8920   14.3660   37.8380 O.2     5  U5         -0.2650
    103  C5         7.9090   15.4530   39.7100 C.ar    5  U5          0.0814
    104  C6         8.8340   15.3300   40.6810 C.ar    5  U5          0.0870
    105  OP1        9.2480   19.7850   43.7110 O.3     5  U5         -0.4373
    106  OP2        7.7840   19.1230   41.7220 O.co2   5  U5         -0.5172
    107  P         14.0420   16.9120   40.4790 P.3     6  A6          0.2141
    108  C5'       15.6950   14.8750   40.2850 C.3     6  A6          0.1812
    109  O5'       14.5580   15.5910   39.7490 O.3     6  A6         -0.3114
    110  C4'       15.9170   13.6250   39.4840 C.3     6  A6          0.1773
    111  O4'       14.6950   12.8730   39.5480 O.3     6  A6         -0.3307
    112  C3'       16.1130   13.7770   37.9790 C.3     6  A6          0.1860
    113  O3'       17.4680   13.9420   37.6810 O.3     6  A6         -0.3112
    114  C2'       15.7320   12.3980   37.4780 C.3     6  A6          0.2309
    115  O2'       16.6980   11.4330   37.7670 O.3     6  A6         -0.2156
    116  C1'       14.5550   12.0720   38.3840 C.3     6  A6          0.2408
    117  N1        10.7680   10.5790   35.2490 N.ar    6  A6         -0.2040
    118  C2        11.8090    9.9130   35.7900 C.ar    6  A6          0.2016
    119  N3        12.7500   10.3540   36.6290 N.ar    6  A6         -0.2048
    120  C4        12.5630   11.6590   36.9030 C.ar    6  A6          0.1692
    121  C5        11.5520   12.4780   36.4210 C.ar    6  A6          0.1518
    122  C6        10.6210   11.8970   35.5440 C.ar    6  A6          0.1919
    123  N6         9.5870   12.5660   35.0190 N.pl3   6  A6         -0.1054
    124  N7        11.6500   13.7520   36.9650 N.ar    6  A6         -0.2193
    125  C8        12.7250   13.6910   37.7160 C.ar    6  A6          0.1816
    126  N9        13.3180   12.4500   37.7330 N.ar    6  A6         -0.2693
    127  OP1       15.1350   17.7400   41.0100 O.3     6  A6         -0.4373
    128  OP2       13.1050   17.5830   39.5710 O.co2   6  A6         -0.5172
    129  P         17.7610   14.9660   36.5630 P.3     7  U7          0.2141
    130  C5'       18.3410   12.9900   35.0440 C.3     7  U7          0.1812
    131  O5'       17.5010   14.0960   35.2690 O.3     7  U7         -0.3114
    132  C4'       17.6710   12.0290   34.1040 C.3     7  U7          0.1773
    133  O4'       16.3420   11.6960   34.5870 O.3     7  U7         -0.3307
    134  C3'       17.3760   12.4920   32.6830 C.3     7  U7          0.1860
    135  O3'       18.5020   12.5740   31.8550 O.3     7  U7         -0.3112
    136  C2'       16.4800   11.3590   32.2580 C.3     7  U7          0.2309
    137  O2'       17.2660   10.2020   32.5420 O.3     7  U7         -0.2156
    138  C1'       15.5270   11.3310   33.4570 C.3     7  U7          0.2420
    139  N1        14.3910   12.2650   33.3650 N.ar    7  U7         -0.2534
    140  C2        13.3940   11.9600   32.4630 C.ar    7  U7          0.3546
    141  O2        13.4320   10.9660   31.7380 O.2     7  U7         -0.2443
    142  N3        12.3420   12.8540   32.4440 N.ar    7  U7         -0.1530
    143  C4        12.1820   13.9860   33.2250 C.ar    7  U7          0.2846
    144  O4        11.1850   14.6920   33.0740 O.2     7  U7         -0.2650
    145  C5        13.2490   14.2270   34.1440 C.ar    7  U7          0.0814
    146  C6        14.2980   13.3830   34.1800 C.ar    7  U7          0.0870
    147  OP1       19.2150   15.2470   36.7790 O.3     7  U7         -0.4373
    148  OP2       16.7370   16.0640   36.4310 O.co2   7  U7         -0.5172
    149  P         18.8970   13.8280   30.9790 P.3     8  C8          0.2141
    150  C5'       18.0340   12.4230   29.0080 C.3     8  C8          0.1812
    151  O5'       17.9240   13.6470   29.7370 O.3     8  C8         -0.3114
    152  C4'       16.9950   12.3640   27.9370 C.3     8  C8          0.1773
    153  O4'       15.7410   12.2560   28.6060 O.3     8  C8         -0.3307
    154  C3'       16.8220   13.6090   27.1290 C.3     8  C8          0.1860
    155  O3'       17.7850   13.6750   26.0970 O.3     8  C8         -0.3112
    156  C2'       15.4200   13.4190   26.5950 C.3     8  C8          0.2309
    157  O2'       15.4780   12.5220   25.5280 O.3     8  C8         -0.2156
    158  C1'       14.7240   12.7740   27.7950 C.3     8  C8          0.2420
    159  N1        13.9300   13.6940   28.6220 N.ar    8  C8         -0.2535
    160  C2        12.5240   13.8150   28.4100 C.ar    8  C8          0.3532
    161  O2        11.9800   13.1160   27.5480 O.2     8  C8         -0.2443
    162  N3        11.8250   14.7320   29.1190 N.ar    8  C8         -0.1739
    163  C4        12.4380   15.4590   30.0490 C.ar    8  C8          0.1759
    164  N4        11.7000   16.2760   30.7620 N.pl3   8  C8         -0.1070
    165  C5        13.8450   15.3300   30.3180 C.ar    8  C8          0.0566
    166  C6        14.5480   14.4530   29.5760 C.ar    8  C8          0.0850
    167  OP1       20.2720   13.4540   30.5890 O.2     8  C8         -0.5172
    168  OP2       18.6530   15.1600   31.5020 O.co2   8  C8         -0.4373
    169  P         18.2760   15.1360   25.4480 P.3     9  A9          0.2141
    170  C5'       19.2920   13.3630   23.8290 C.3     9  A9          0.1812
    171  O5'       18.7730   14.6880   24.0080 O.3     9  A9         -0.3114
    172  C4'       19.8830   13.2370   22.4510 C.3     9  A9          0.1773
    173  O4'       19.5370   14.4440   21.6860 O.3     9  A9         -0.3307
    174  C3'       21.4150   13.1060   22.4200 C.3     9  A9          0.1860
    175  O3'       21.8230   12.1800   21.4120 O.3     9  A9         -0.3112
    176  C2'       21.8860   14.5580   22.1580 C.3     9  A9          0.2309
    177  O2'       23.1420   14.6240   21.4970 O.3     9  A9         -0.2156
    178  C1'       20.7360   15.1130   21.2810 C.3     9  A9          0.2408
    179  N1        20.1060   19.6580   23.8120 N.ar    9  A9         -0.2040
    180  C2        20.2980   18.4000   24.2600 C.ar    9  A9          0.2016
    181  N3        20.4540   17.2620   23.5620 N.ar    9  A9         -0.2048
    182  C4        20.3840   17.5010   22.2340 C.ar    9  A9          0.1692
    183  C5        20.1950   18.7350   21.6180 C.ar    9  A9          0.1518
    184  C6        20.0580   19.8690   22.4710 C.ar    9  A9          0.1919
    185  N6        19.8900   21.1240   22.0220 N.pl3   9  A9         -0.1054
    186  N7        20.2070   18.6000   20.2320 N.ar    9  A9         -0.2193
    187  C8        20.3810   17.3150   20.0400 C.ar    9  A9          0.1816
    188  N9        20.5000   16.5850   21.2080 N.ar    9  A9         -0.2693
    189  OP1       19.5140   15.5110   26.2930 O.3     9  A9         -0.4373
    190  OP2       17.0810   16.0810   25.3050 O.co2   9  A9         -0.5172
    191  P         20.8740   11.1310   20.6500 P.3    10  A10         0.2141
    192  C5'       23.3610   10.2340   20.6970 C.3    10  A10         0.1812
    193  O5'       21.9700    9.9890   20.4170 O.3    10  A10        -0.3114
    194  C4'       23.9310    9.1630   21.5550 C.3    10  A10         0.1773
    195  O4'       23.4900    9.3770   22.8900 O.3    10  A10        -0.3307
    196  C3'       23.4870    7.7480   21.2690 C.3    10  A10         0.1860
    197  O3'       24.2390    7.2090   20.2370 O.3    10  A10        -0.3112
    198  C2'       23.8190    7.0440   22.5730 C.3    10  A10         0.2309
    199  O2'       25.1590    6.6810   22.7910 O.3    10  A10        -0.2156
    200  C1'       23.4200    8.1240   23.5850 C.3    10  A10         0.2408
    201  N1        20.2240    5.3720   26.5900 N.ar   10  A10        -0.2040
    202  C2        21.5210    5.2440   26.3270 C.ar   10  A10         0.2016
    203  N3        22.2860    5.9580   25.5080 N.ar   10  A10        -0.2048
    204  C4        21.5880    6.9660   24.9590 C.ar   10  A10         0.1692
    205  C5        20.2440    7.2190   25.1240 C.ar   10  A10         0.1518
    206  C6        19.5400    6.3720   25.9930 C.ar   10  A10         0.1919
    207  N6        18.2390    6.5080   26.2640 N.pl3  10  A10        -0.1054
    208  N7        19.8540    8.3160   24.3670 N.ar   10  A10        -0.2193
    209  C8        20.9650    8.7240   23.8120 C.ar   10  A10         0.1816
    210  N9        22.0590    7.9640   24.1380 N.ar   10  A10        -0.2693
    211  OP1       20.2270   11.4770   19.3930 O.2    10  A10        -0.5172
    212  OP2       20.0270   10.6320   21.6990 O.co2  10  A10        -0.4373
    213  P         23.4300    6.6130   19.0010 P.3    11  G11         0.2141
    214  C5'       24.3200    4.4390   20.1650 C.3    11  G11         0.1812
    215  O5'       23.2510    5.1000   19.4890 O.3    11  G11        -0.3114
    216  C4'       23.7660    3.2350   20.8200 C.3    11  G11         0.1773
    217  O4'       23.1240    3.6960   22.0190 O.3    11  G11        -0.3307
    218  C3'       22.6710    2.5220   20.0200 C.3    11  G11         0.1860
    219  O3'       23.1240    1.4180   19.2380 O.3    11  G11        -0.3112
    220  C2'       21.7560    1.9410   21.1060 C.3    11  G11         0.2309
    221  O2'       21.9660    0.5780   21.4310 O.3    11  G11        -0.2156
    222  C1'       21.9500    2.9230   22.2710 C.3    11  G11         0.2408
    223  N1        17.5730    4.1180   24.6270 N.ar   11  G11        -0.1709
    224  C2        18.4270    3.0800   24.8880 C.ar   11  G11         0.2606
    225  N2        18.0600    2.2590   25.8790 N.pl3  11  G11        -0.0859
    226  N3        19.5540    2.8590   24.2200 N.ar   11  G11        -0.1918
    227  C4        19.7500    3.7800   23.2510 C.ar   11  G11         0.1723
    228  C5        18.9590    4.8620   22.9230 C.ar   11  G11         0.1748
    229  C6        17.7670    5.0880   23.6490 C.ar   11  G11         0.3023
    230  O6        16.9370    5.9940   23.5010 O.2    11  G11        -0.2633
    231  N7        19.5180    5.5820   21.8790 N.ar   11  G11        -0.2173
    232  C8        20.6190    4.9410   21.5970 C.ar   11  G11         0.1817
    233  N9        20.8250    3.8430   22.3910 N.ar   11  G11        -0.2693
    234  OP1       24.3680    6.5550   17.8100 O.2    11  G11        -0.5172
    235  OP2       22.1090    7.3050   18.8200 O.co2  11  G11        -0.4373
    236  P         22.4100    1.1270   17.8680 P.3    12  A12         0.2141
    237  C5'       21.3390   -1.2190   17.8340 C.3    12  A12         0.1812
    238  O5'       21.3010    0.1000   18.3350 O.3    12  A12        -0.3114
    239  C4'       20.2990   -2.0420   18.5190 C.3    12  A12         0.1773
    240  O4'       20.0780   -1.5090   19.8440 O.3    12  A12        -0.3307
    241  C3'       18.9410   -2.0370   17.8290 C.3    12  A12         0.1860
    242  O3'       18.8470   -3.1380   16.9780 O.3    12  A12        -0.3112
    243  C2'       17.9820   -2.2250   18.9810 C.3    12  A12         0.2309
    244  O2'       17.7720   -3.5410   19.4400 O.3    12  A12        -0.2156
    245  C1'       18.6740   -1.4240   20.0840 C.3    12  A12         0.2408
    246  N1        15.9960    2.2040   22.5920 N.ar   12  A12        -0.2040
    247  C2        16.2410    0.9110   22.8630 C.ar   12  A12         0.2016
    248  N3        16.9470    0.0210   22.1660 N.ar   12  A12        -0.2048
    249  C4        17.4520    0.5860   21.0520 C.ar   12  A12         0.1692
    250  C5        17.2920    1.9010   20.6430 C.ar   12  A12         0.1518
    251  C6        16.4980    2.7330   21.4590 C.ar   12  A12         0.1919
    252  N6        16.2330    4.0100   21.1850 N.pl3  12  A12        -0.1054
    253  N7        17.9510    2.1230   19.4410 N.ar   12  A12        -0.2193
    254  C8        18.4870    0.9640   19.1550 C.ar   12  A12         0.1816
    255  N9        18.2500   -0.0070   20.1010 N.ar   12  A12        -0.2693
    256  OP1       23.2160    0.3760   16.8630 O.2    12  A12        -0.5172
    257  OP2       21.9640    2.4880   17.5260 O.co2  12  A12        -0.4373
    258  P         19.0550   -3.0560   15.3740 P.3    13  G13         0.2141
    259  C5'       19.9310   -4.9340   13.7790 C.3    13  G13         0.1812
    260  O5'       19.4600   -4.5660   15.0680 O.3    13  G13        -0.3114
    261  C4'       19.3800   -6.2710   13.3990 C.3    13  G13         0.1773
    262  O4'       18.7530   -6.8680   14.5470 O.3    13  G13        -0.3307
    263  C3'       18.2700   -6.2500   12.3730 C.3    13  G13         0.1860
    264  O3'       18.7780   -6.2160   11.0530 O.3    13  G13        -0.3112
    265  C2'       17.6740   -7.6040   12.5880 C.3    13  G13         0.2309
    266  O2'       18.7040   -8.3670   11.9840 O.3    13  G13        -0.2156
    267  C1'       17.6480   -7.6470   14.1200 C.3    13  G13         0.2408
    268  N1        13.2190   -8.5710   16.4410 N.ar   13  G13        -0.1709
    269  C2        14.1710   -9.4520   16.0180 C.ar   13  G13         0.2606
    270  N2        13.9160  -10.7430   16.2620 N.pl3  13  G13        -0.0859
    271  N3        15.2970   -9.0950   15.4190 N.ar   13  G13        -0.1918
    272  C4        15.3860   -7.7560   15.2730 C.ar   13  G13         0.1723
    273  C5        14.4950   -6.7900   15.6810 C.ar   13  G13         0.1748
    274  C6        13.3010   -7.1930   16.3260 C.ar   13  G13         0.3023
    275  O6        12.3880   -6.4940   16.7500 O.2    13  G13        -0.2633
    276  N7        14.9580   -5.5230   15.3570 N.ar   13  G13        -0.2173
    277  C8        16.1190   -5.7350   14.8000 C.ar   13  G13         0.1817
    278  N9        16.4350   -7.0690   14.7040 N.ar   13  G13        -0.2693
    279  OP1       20.2220   -2.1590   15.0320 O.3    13  G13        -0.4373
    280  OP2       17.7100   -2.9330   14.6780 O.co2  13  G13        -0.5172
    281  P         18.7480   -4.7860   10.2020 P.3    14  A14         0.2141
    282  C5'       16.9790   -5.7020    8.3430 C.3    14  A14         0.1812
    283  O5'       18.3450   -5.3280    8.7350 O.3    14  A14        -0.3114
    284  C4'       16.9030   -7.1520    7.8760 C.3    14  A14         0.1773
    285  O4'       17.8880   -7.4360    6.8190 O.3    14  A14        -0.3307
    286  C3'       17.1520   -8.2400    8.9420 C.3    14  A14         0.1860
    287  O3'       16.4290   -9.3560    8.4380 O.3    14  A14        -0.3112
    288  C2'       18.5890   -8.6470    8.6470 C.3    14  A14         0.2309
    289  O2'       19.0330   -9.9170    9.0570 O.3    14  A14        -0.2156
    290  C1'       18.4920   -8.6900    7.1340 C.3    14  A14         0.2408
    291  N1        22.2690  -12.0620    6.1480 N.ar   14  A14        -0.2040
    292  C2        21.3210  -12.0140    7.1020 C.ar   14  A14         0.2016
    293  N3        20.3720  -11.0900    7.3100 N.ar   14  A14        -0.2048
    294  C4        20.4570  -10.1010    6.3950 C.ar   14  A14         0.1692
    295  C5        21.3780  -10.0060    5.3590 C.ar   14  A14         0.1518
    296  C6        22.3280  -11.0550    5.2440 C.ar   14  A14         0.1919
    297  N6        23.2700  -11.0990    4.3000 N.pl3  14  A14        -0.1054
    298  N7        21.1670   -8.8450    4.6170 N.ar   14  A14        -0.2193
    299  C8        20.1400   -8.2750    5.2070 C.ar   14  A14         0.1816
    300  N9        19.6890   -8.9560    6.3190 N.ar   14  A14        -0.2693
    301  OP1       20.2060   -4.3780   10.2010 O.2    14  A14        -0.5172
    302  OP2       17.7180   -3.7870   10.7020 O.co2  14  A14        -0.4373
    303  P         15.3300  -10.1360    9.2660 P.3    15  G15         0.2141
    304  C5'       14.7240  -12.6250    9.0340 C.3    15  G15         0.1812
    305  O5'       15.6990  -11.6730    9.4130 O.3    15  G15        -0.3114
    306  C4'       14.1790  -13.3750   10.2280 C.3    15  G15         0.1773
    307  O4'       14.4810  -12.7480   11.5070 O.3    15  G15        -0.3307
    308  C3'       12.6830  -13.4670   10.3160 C.3    15  G15         0.1860
    309  O3'       12.1750  -14.2880    9.3270 O.3    15  G15        -0.3112
    310  C2'       12.5160  -14.0500   11.7010 C.3    15  G15         0.2309
    311  O2'       12.9800  -15.3720   11.6500 O.3    15  G15        -0.2156
    312  C1'       13.5240  -13.2050   12.4830 C.3    15  G15         0.2408
    313  N1         9.7580  -11.5560   15.4970 N.ar   15  G15        -0.1709
    314  C2        10.0530  -12.8350   15.0930 C.ar   15  G15         0.2606
    315  N2         9.2280  -13.7900   15.5290 N.pl3  15  G15        -0.0859
    316  N3        11.0550  -13.1440   14.2790 N.ar   15  G15        -0.1918
    317  C4        11.7870  -12.0560   13.9440 C.ar   15  G15         0.1723
    318  C5        11.6020  -10.7410   14.3280 C.ar   15  G15         0.1748
    319  C6        10.5020  -10.4220   15.1710 C.ar   15  G15         0.3023
    320  O6        10.1730   -9.3180   15.6200 O.2    15  G15        -0.2633
    321  N7        12.5820   -9.9230   13.7790 N.ar   15  G15        -0.2173
    322  C8        13.3130  -10.7310   13.0610 C.ar   15  G15         0.1817
    323  N9        12.9050  -12.0450   13.1380 N.ar   15  G15        -0.2693
    324  OP1       14.1040  -10.2000    8.4110 O.2    15  G15        -0.5172
    325  OP2       15.3280   -9.5280   10.6400 O.co2  15  G15        -0.4373
    326  P         11.1060  -13.6030    8.4250 P.3    16  G16         0.2141
    327  C5'        9.3480  -15.3940    9.2190 C.3    16  G16         0.1812
    328  O5'        9.8140  -14.0210    9.2630 O.3    16  G16        -0.3114
    329  C4'        8.4380  -15.7120   10.3840 C.3    16  G16         0.1773
    330  O4'        8.9890  -15.1820   11.6230 O.3    16  G16        -0.3307
    331  C3'        7.0690  -15.0740   10.3440 C.3    16  G16         0.1860
    332  O3'        6.1810  -15.6460    9.3950 O.3    16  G16        -0.3112
    333  C2'        6.6440  -15.2110   11.7900 C.3    16  G16         0.2309
    334  O2'        6.3810  -16.5600   12.0530 O.3    16  G16        -0.2156
    335  C1'        7.9320  -14.8060   12.5010 C.3    16  G16         0.2408
    336  N1         5.6730  -10.7630   14.5540 N.ar   16  G16        -0.1709
    337  C2         5.3360  -12.0870   14.6570 C.ar   16  G16         0.2606
    338  N2         4.2650  -12.3670   15.4160 N.pl3  16  G16        -0.0859
    339  N3         6.0280  -13.0680   14.1000 N.ar   16  G16        -0.1918
    340  C4         7.0900  -12.6030   13.4030 C.ar   16  G16         0.1723
    341  C5         7.5100  -11.3010   13.2470 C.ar   16  G16         0.1748
    342  C6         6.7650  -10.2690   13.8530 C.ar   16  G16         0.3023
    343  O6         6.9590   -9.0660   13.8040 O.2    16  G16        -0.2633
    344  N7         8.6470  -11.2410   12.4530 N.ar   16  G16        -0.2173
    345  C8         8.8880  -12.4860   12.1380 C.ar   16  G16         0.1817
    346  N9         7.9900  -13.3640   12.6940 N.ar   16  G16        -0.2693
    347  OP1       11.0270  -14.3940    7.1590 O.2    16  G16        -0.5172
    348  OP2       11.3790  -12.1330    8.3400 O.co2  16  G16        -0.4373
    349  P          5.5840  -14.5220    8.3480 P.3    17  G17         0.2141
    350  C5'        3.2880  -14.9130    9.6100 C.3    17  G17         0.1812
    351  O5'        4.2990  -13.9940    9.1560 O.3    17  G17        -0.3114
    352  C4'        2.4880  -14.3400   10.7570 C.3    17  G17         0.1773
    353  O4'        3.3810  -13.6670   11.6760 O.3    17  G17        -0.3307
    354  C3'        1.4670  -13.2810   10.3830 C.3    17  G17         0.1860
    355  O3'        0.2460  -13.7760    9.8830 O.3    17  G17        -0.3112
    356  C2'        1.2920  -12.5260   11.6930 C.3    17  G17         0.2309
    357  O2'        0.3970  -13.0710   12.6290 O.3    17  G17        -0.2156
    358  C1'        2.7220  -12.5360   12.2350 C.3    17  G17         0.2408
    359  N1         3.1130   -7.5520   12.9870 N.ar   17  G17        -0.1709
    360  C2         2.1620   -8.4310   13.4400 C.ar   17  G17         0.2606
    361  N2         1.2480   -7.9290   14.2840 N.pl3  17  G17        -0.0859
    362  N3         2.1410   -9.7180   13.1300 N.ar   17  G17        -0.1918
    363  C4         3.1720  -10.0570   12.3300 C.ar   17  G17         0.1723
    364  C5         4.1320   -9.2420   11.7730 C.ar   17  G17         0.1748
    365  C6         4.1380   -7.8720   12.1080 C.ar   17  G17         0.3023
    366  O6         4.8960   -6.9990   11.7210 O.2    17  G17        -0.2633
    367  N7         5.0080   -9.9770   10.9870 N.ar   17  G17        -0.2173
    368  C8         4.5690  -11.2030   11.0760 C.ar   17  G17         0.1817
    369  N9         3.4810  -11.3250   11.9100 N.ar   17  G17        -0.2693
    370  OP1        5.0960  -15.1600    7.0650 O.2    17  G17        -0.5172
    371  OP2        6.6470  -13.4280    8.2870 O.co2  17  G17        -0.4373
    372  P         -0.0900  -13.4060    8.3600 P.3    18  C18         0.2141
    373  C5'       -2.0640  -12.1660    9.6220 C.3    18  C18         0.1812
    374  O5'       -1.0360  -12.1570    8.6240 O.3    18  C18        -0.3114
    375  C4'       -2.2030  -10.7700   10.1930 C.3    18  C18         0.1773
    376  O4'       -0.9110  -10.3510   10.6970 O.3    18  C18        -0.3307
    377  C3'       -2.5750   -9.6980    9.1930 C.3    18  C18         0.1860
    378  O3'       -3.9620   -9.5840    9.1150 O.3    18  C18        -0.3112
    379  C2'       -2.0260   -8.4300    9.8250 C.3    18  C18         0.2309
    380  O2'       -2.9970   -7.7830   10.6520 O.3    18  C18        -0.2156
    381  C1'       -0.7740   -8.9500   10.5540 C.3    18  C18         0.2420
    382  N1         0.5250   -8.6640    9.9020 N.ar   18  C18        -0.2535
    383  C2         1.0770   -7.3930   10.0680 C.ar   18  C18         0.3532
    384  O2         0.4570   -6.5550   10.7590 O.2    18  C18        -0.2443
    385  N3         2.2740   -7.1050    9.4820 N.ar   18  C18        -0.1739
    386  C4         2.9250   -8.0520    8.7930 C.ar   18  C18         0.1759
    387  N4         4.1050   -7.7290    8.2310 N.pl3  18  C18        -0.1070
    388  C5         2.3720   -9.3560    8.5980 C.ar   18  C18         0.0566
    389  C6         1.1730   -9.6080    9.1480 C.ar   18  C18         0.0850
    390  OP1       -0.9810  -14.5200    7.8790 O.3    18  C18        -0.4373
    391  OP2        1.1390  -12.9680    7.5460 O.co2  18  C18        -0.5172
    392  P         -4.5370   -9.7030    7.6380 P.3    19  A19         0.2141
    393  C5'       -5.5150   -7.3590    8.3970 C.3    19  A19         0.1812
    394  O5'       -5.0170   -8.2130    7.3570 O.3    19  A19        -0.3114
    395  C4'       -4.8870   -5.9850    8.2420 C.3    19  A19         0.1773
    396  O4'       -3.4370   -6.1130    8.2440 O.3    19  A19        -0.3307
    397  C3'       -5.2190   -5.2020    6.9600 C.3    19  A19         0.1860
    398  O3'       -4.9980   -3.8130    7.2060 O.3    19  A19        -0.3112
    399  C2'       -4.0750   -5.5880    6.0530 C.3    19  A19         0.2309
    400  O2'       -3.8220   -4.6630    5.0290 O.3    19  A19        -0.2156
    401  C1'       -2.9250   -5.5520    7.0500 C.3    19  A19         0.2408
    402  N1         2.1930   -5.6190    6.7710 N.ar   19  A19        -0.2040
    403  C2         1.3300   -4.7640    7.3360 C.ar   19  A19         0.2016
    404  N3         0.0020   -4.8210    7.3880 N.ar   19  A19        -0.2048
    405  C4        -0.4520   -5.9250    6.7660 C.ar   19  A19         0.1692
    406  C5         0.3080   -6.9050    6.1550 C.ar   19  A19         0.1518
    407  C6         1.7070   -6.7330    6.1760 C.ar   19  A19         0.1919
    408  N6         2.5750   -7.6140    5.6570 N.pl3  19  A19        -0.1054
    409  N7        -0.5030   -7.9080    5.6440 N.ar   19  A19        -0.2193
    410  C8        -1.7170   -7.5130    5.9430 C.ar   19  A19         0.1816
    411  N9        -1.7590   -6.3190    6.6190 N.ar   19  A19        -0.2693
    412  OP1       -5.7400  -10.5760    7.7240 O.3    19  A19        -0.4373
    413  OP2       -3.5030   -9.9440    6.5640 O.co2  19  A19        -0.5172
    414  P         -5.9770   -2.6800    6.6080 P.3    20  A20         0.2141
    415  C5'       -5.4390   -0.4920    7.9710 C.3    20  A20         0.1812
    416  O5'       -5.0790   -1.4260    6.9510 O.3    20  A20        -0.3114
    417  C4'       -4.7740    0.8050    7.6090 C.3    20  A20         0.1773
    418  O4'       -3.3540    0.5290    7.5630 O.3    20  A20        -0.3307
    419  C3'       -5.1200    1.3590    6.2280 C.3    20  A20         0.1860
    420  O3'       -4.9780    2.7720    6.2660 O.3    20  A20        -0.3112
    421  C2'       -4.0460    0.7570    5.3420 C.3    20  A20         0.2309
    422  O2'       -3.7370    1.6810    4.3140 O.3    20  A20        -0.2156
    423  C1'       -2.8550    0.8110    6.2890 C.3    20  A20         0.2408
    424  N1         2.1980    0.4660    5.4540 N.ar   20  A20        -0.2040
    425  C2         1.4150    1.4720    5.8510 C.ar   20  A20         0.2016
    426  N3         0.1010    1.4880    6.0600 N.ar   20  A20        -0.2048
    427  C4        -0.4370    0.2790    5.8200 C.ar   20  A20         0.1692
    428  C5         0.2310   -0.8500    5.3920 C.ar   20  A20         0.1518
    429  C6         1.6310   -0.7280    5.1930 C.ar   20  A20         0.1919
    430  N6         2.4180   -1.7240    4.7680 N.pl3  20  A20        -0.1054
    431  N7        -0.6500   -1.9170    5.2560 N.ar   20  A20        -0.2193
    432  C8        -1.8030   -1.4230    5.6330 C.ar   20  A20         0.1816
    433  N9        -1.7500   -0.1000    5.9820 N.ar   20  A20        -0.2693
    434  OP1       -7.2420   -2.5890    7.4150 O.3    20  A20        -0.4373
    435  OP2       -5.9820   -2.7870    5.1050 O.co2  20  A20        -0.5172
    436  P         -6.2800    3.6550    6.6380 P.3    21  G21         0.2141
    437  C5'       -5.3460    4.7970    8.8010 C.3    21  G21         0.1812
    438  O5'       -6.1480    3.7110    8.2320 O.3    21  G21        -0.3114
    439  C4'       -3.8730    4.4320    8.7880 C.3    21  G21         0.1773
    440  O4'       -3.1880    4.5370    7.4970 O.3    21  G21        -0.3307
    441  C3'       -2.9380    5.1960    9.6850 C.3    21  G21         0.1860
    442  O3'       -3.1420    4.8550   11.0310 O.3    21  G21        -0.3112
    443  C2'       -1.6280    4.5510    9.2840 C.3    21  G21         0.2309
    444  O2'       -1.6150    3.2580    9.7710 O.3    21  G21        -0.2156
    445  C1'       -1.7850    4.4490    7.7620 C.3    21  G21         0.2408
    446  N1         2.7590    6.5540    7.0750 N.ar   21  G21        -0.1709
    447  C2         2.4130    5.3600    7.6650 C.ar   21  G21         0.2606
    448  N2         3.4180    4.6260    8.1550 N.pl3  21  G21        -0.0859
    449  N3         1.1710    4.9180    7.7690 N.ar   21  G21        -0.1918
    450  C4         0.2810    5.7820    7.2410 C.ar   21  G21         0.1723
    451  C5         0.5170    6.9890    6.6190 C.ar   21  G21         0.1748
    452  C6         1.8720    7.4300    6.4690 C.ar   21  G21         0.3023
    453  O6         2.2990    8.4590    5.9350 O.2    21  G21        -0.2633
    454  N7        -0.6810    7.5850    6.2300 N.ar   21  G21        -0.2173
    455  C8        -1.5980    6.7190    6.5720 C.ar   21  G21         0.1817
    456  N9        -1.0780    5.5900    7.1680 N.ar   21  G21        -0.2693
    457  OP1       -7.5460    3.0240    6.1860 O.3    21  G21        -0.4373
    458  OP2       -5.9660    5.0680    6.1800 O.co2  21  G21        -0.5172
    459  P         -2.9210    6.0410   12.0670 P.3    22  A22         0.2141
    460  C5'       -0.6780    4.8070   12.6540 C.3    22  A22         0.1812
    461  O5'       -1.3440    5.9860   12.2260 O.3    22  A22        -0.3114
    462  C4'        0.8120    5.0790   12.7880 C.3    22  A22         0.1773
    463  O4'        1.4220    5.2640   11.4620 O.3    22  A22        -0.3307
    464  C3'        1.1710    6.3630   13.5080 C.3    22  A22         0.1860
    465  O3'        1.2120    6.0560   14.8590 O.3    22  A22        -0.3112
    466  C2'        2.5840    6.6050   13.0070 C.3    22  A22         0.2309
    467  O2'        3.5770    5.7840   13.6470 O.3    22  A22        -0.2156
    468  C1'        2.4230    6.2550   11.5330 C.3    22  A22         0.2408
    469  N1         3.8870   10.3700    8.8920 N.ar   22  A22        -0.2040
    470  C2         4.5720    9.4660    9.6030 C.ar   22  A22         0.2016
    471  N3         4.1330    8.4040   10.2510 N.ar   22  A22        -0.2048
    472  C4         2.8040    8.3160   10.1480 C.ar   22  A22         0.1692
    473  C5         1.9650    9.1700    9.4520 C.ar   22  A22         0.1518
    474  C6         2.5550   10.2390    8.7980 C.ar   22  A22         0.1919
    475  N6         1.8800   11.1240    8.0770 N.pl3  22  A22        -0.1054
    476  N7         0.6490    8.7520    9.5490 N.ar   22  A22        -0.2193
    477  C8         0.7220    7.6550   10.2710 C.ar   22  A22         0.1816
    478  N9         1.9890    7.3750   10.7230 N.ar   22  A22        -0.2693
    479  OP1       -3.4470    5.7100   13.4550 O.3    22  A22        -0.4373
    480  OP2       -3.4130    7.2810   11.3310 O.co2  22  A22        -0.5172
    481  P          0.9070    7.3060   15.7740 P.3    23  G23         0.2141
    482  C5'        3.3130    8.0120   16.4320 C.3    23  G23         0.1812
    483  O5'        2.2140    8.2000   15.5780 O.3    23  G23        -0.3114
    484  C4'        4.4800    8.8050   15.9600 C.3    23  G23         0.1773
    485  O4'        4.5840    8.7230   14.5220 O.3    23  G23        -0.3307
    486  C3'        4.4780   10.2800   16.2210 C.3    23  G23         0.1860
    487  O3'        4.9740   10.6090   17.4960 O.3    23  G23        -0.3112
    488  C2'        5.5460   10.7580   15.2340 C.3    23  G23         0.2309
    489  O2'        6.8500   10.6520   15.7190 O.3    23  G23        -0.2156
    490  C1'        5.2860    9.8650   14.0170 C.3    23  G23         0.2408
    491  N1         4.7700   13.5180   10.4920 N.ar   23  G23        -0.1709
    492  C2         5.9090   13.0640   11.0980 C.ar   23  G23         0.2606
    493  N2         7.0350   13.7070   10.7730 N.pl3  23  G23        -0.0859
    494  N3         5.9360   12.0830   11.9930 N.ar   23  G23        -0.1918
    495  C4         4.7020   11.6060   12.2530 C.ar   23  G23         0.1723
    496  C5         3.4980   12.0010   11.7160 C.ar   23  G23         0.1748
    497  C6         3.4830   13.0690   10.7690 C.ar   23  G23         0.3023
    498  O6         2.5010   13.6090   10.2110 O.2    23  G23        -0.2633
    499  N7         2.4560   11.2440   12.2320 N.ar   23  G23        -0.2173
    500  C8         3.0330   10.4120   13.0520 C.ar   23  G23         0.1817
    501  N9         4.3950   10.5690   13.1060 N.ar   23  G23        -0.2693
    502  OP1        0.8800    6.8230   17.2300 O.3    23  G23        -0.4373
    503  OP2       -0.2310    7.9580   15.1150 O.co2  23  G23        -0.5172
    504  P          4.0860   11.4600   18.5550 P.3    24  A24         0.2141
    505  C5'        1.4690   11.1280   17.9100 C.3    24  A24         0.1812
    506  O5'        2.7470   10.6030   18.3230 O.3    24  A24        -0.3114
    507  C4'        0.5260   11.2410   19.0960 C.3    24  A24         0.1773
    508  O4'        1.2520   11.2430   20.3820 O.3    24  A24        -0.3307
    509  C3'       -0.2090   12.5800   19.0910 C.3    24  A24         0.1860
    510  O3'       -1.3810   12.4960   18.2900 O.3    24  A24        -0.3112
    511  C2'       -0.5640   12.7770   20.5520 C.3    24  A24         0.2309
    512  O2'       -1.7360   12.0350   20.8570 O.3    24  A24        -0.2156
    513  C1'        0.6860   12.2370   21.2390 C.3    24  A24         0.2408
    514  N1         1.7380   16.9340   23.1220 N.ar   24  A24        -0.2040
    515  C2         0.5900   16.2670   23.0150 C.ar   24  A24         0.2016
    516  N3         0.3590   15.0600   22.5000 N.ar   24  A24        -0.2048
    517  C4         1.4980   14.5170   22.0410 C.ar   24  A24         0.1692
    518  C5         2.7520   15.0990   22.0650 C.ar   24  A24         0.1518
    519  C6         2.8560   16.3650   22.6390 C.ar   24  A24         0.1919
    520  N6         3.9960   17.0360   22.7190 N.pl3  24  A24        -0.1054
    521  N7         3.6840   14.2800   21.4570 N.ar   24  A24        -0.2193
    522  C8         2.9950   13.2120   21.1280 C.ar   24  A24         0.1816
    523  N9         1.6690   13.2830   21.4600 N.ar   24  A24        -0.2693
    524  OP1        4.1530   12.8730   18.1150 O.2    24  A24        -0.5172
    525  OP2        4.4990   11.1710   19.9500 O.co2  24  A24        -0.4373
    526  P         -1.2580   13.0180   16.8180 P.3    25  C25         0.2141
    527  C5'       -3.2250   14.4670   17.8410 C.3    25  C25         0.1812
    528  O5'       -2.1360   14.3490   16.8890 O.3    25  C25        -0.3114
    529  C4'       -3.2820   15.8380   18.4900 C.3    25  C25         0.1773
    530  O4'       -2.2870   15.9100   19.5110 O.3    25  C25        -0.3307
    531  C3'       -2.9200   17.0220   17.6250 C.3    25  C25         0.1860
    532  O3'       -4.0270   17.3190   16.8090 O.3    25  C25        -0.3112
    533  C2'       -2.6240   18.0870   18.6670 C.3    25  C25         0.2309
    534  O2'       -3.7750   18.5840   19.3130 O.3    25  C25        -0.2156
    535  C1'       -1.9020   17.2540   19.7040 C.3    25  C25         0.2420
    536  N1        -0.4500   17.3310   19.5920 N.ar   25  C25        -0.2535
    537  C2         0.1540   18.5090   20.0100 C.ar   25  C25         0.3532
    538  O2        -0.5700   19.4250   20.4140 O.2    25  C25        -0.2443
    539  N3         1.5070   18.6150   19.9870 N.ar   25  C25        -0.1739
    540  C4         2.2460   17.5940   19.5460 C.ar   25  C25         0.1759
    541  N4         3.5740   17.7490   19.5150 N.pl3  25  C25        -0.1070
    542  C5         1.6500   16.3740   19.0810 C.ar   25  C25         0.0566
    543  C6         0.3100   16.2870   19.1230 C.ar   25  C25         0.0850
    544  OP1       -1.9300   11.9160   16.0490 O.2    25  C25        -0.5172
    545  OP2        0.2100   13.4790   16.5700 O.co2  25  C25        -0.4373
    546  P         -3.8970   17.3640   15.2580 P.3    26  U26         0.2141
    547  C5'       -4.2110   19.9410   15.6620 C.3    26  U26         0.1812
    548  O5'       -3.5520   18.8880   14.9270 O.3    26  U26        -0.3114
    549  C4'       -3.5470   21.2670   15.3970 C.3    26  U26         0.1773
    550  O4'       -2.6300   21.6400   16.4820 O.3    26  U26        -0.3307
    551  C3'       -2.6810   21.3540   14.1500 C.3    26  U26         0.1860
    552  O3'       -3.5000   21.5470   13.0070 O.3    26  U26        -0.3112
    553  C2'       -1.8590   22.5910   14.4810 C.3    26  U26         0.2309
    554  O2'       -2.6350   23.7930   14.3810 O.3    26  U26        -0.2156
    555  C1'       -1.4830   22.2770   15.9310 C.3    26  U26         0.2420
    556  N1        -0.3280   21.3660   16.0660 N.ar   26  U26        -0.2534
    557  C2         0.9300   21.9460   16.1960 C.ar   26  U26         0.3546
    558  O2         1.1080   23.1540   16.1790 O.2    26  U26        -0.2443
    559  N3         1.9720   21.0530   16.3260 N.ar   26  U26        -0.1530
    560  C4         1.8920   19.6810   16.3850 C.ar   26  U26         0.2846
    561  O4         2.9230   19.0220   16.5120 O.2    26  U26        -0.2650
    562  C5         0.5630   19.1530   16.2390 C.ar   26  U26         0.0814
    563  C6        -0.4720   19.9910   16.0570 C.ar   26  U26         0.0870
    564  OP1       -5.3400   17.0040   14.9690 O.3    26  U26        -0.4373
    565  OP2       -2.7520   16.4940   14.8330 O.co2  26  U26        -0.5172
    566  P         -3.1200   21.1210   11.5050 P.3    27  G27         0.2141
    567  C5'       -2.0200   23.3960   10.7960 C.3    27  G27         0.1812
    568  O5'       -1.8300   22.0210   11.2370 O.3    27  G27        -0.3114
    569  C4'       -0.7060   24.1150   10.7050 C.3    27  G27         0.1773
    570  O4'       -0.0540   23.9930   11.9920 O.3    27  G27        -0.3307
    571  C3'        0.3020   23.5210    9.7280 C.3    27  G27         0.1860
    572  O3'        0.1270   23.8380    8.3500 O.3    27  G27        -0.3112
    573  C2'        1.6230   23.9960   10.3070 C.3    27  G27         0.2309
    574  O2'        1.9610   25.3350    9.9720 O.3    27  G27        -0.2156
    575  C1'        1.3530   23.8360   11.8070 C.3    27  G27         0.2408
    576  N1         5.3190   21.0600   13.3640 N.ar   27  G27        -0.1709
    577  C2         5.2770   22.3550   12.9080 C.ar   27  G27         0.2606
    578  N2         6.4470   22.9920   12.8250 N.pl3  27  G27        -0.0859
    579  N3         4.1740   22.9670   12.5270 N.ar   27  G27        -0.1918
    580  C4         3.0850   22.1860   12.6680 C.ar   27  G27         0.1723
    581  C5         3.0090   20.8950   13.1420 C.ar   27  G27         0.1748
    582  C6         4.2130   20.2320   13.5180 C.ar   27  G27         0.3023
    583  O6         4.3670   19.0670   13.9140 O.2    27  G27        -0.2633
    584  N7         1.7010   20.4320   13.1000 N.ar   27  G27        -0.2173
    585  C8         1.0110   21.4440   12.6390 C.ar   27  G27         0.1817
    586  N9         1.7880   22.5380   12.3510 N.ar   27  G27        -0.2693
    587  OP1       -4.2230   21.7280   10.6860 O.2    27  G27        -0.5172
    588  OP2       -2.8640   19.6450   11.4080 O.co2  27  G27        -0.4373
    589  P          0.4670   22.6230    7.2560 P.3    28  G28         0.2141
    590  C5'        3.0820   23.0210    6.6090 C.3    28  G28         0.1812
    591  O5'        2.0500   22.2960    7.3330 O.3    28  G28        -0.3114
    592  C4'        4.4210   23.0070    7.3190 C.3    28  G28         0.1773
    593  O4'        4.2930   22.7350    8.7440 O.3    28  G28        -0.3307
    594  C3'        5.3290   21.9030    6.8320 C.3    28  G28         0.1860
    595  O3'        6.0080   22.2850    5.6790 O.3    28  G28        -0.3112
    596  C2'        6.3090   21.7220    7.9770 C.3    28  G28         0.2309
    597  O2'        7.3560   22.6360    8.0150 O.3    28  G28        -0.2156
    598  C1'        5.4200   21.9580    9.1780 C.3    28  G28         0.2408
    599  N1         6.7630   17.7030   11.6050 N.ar   28  G28        -0.1709
    600  C2         7.5420   18.7600   11.2150 C.ar   28  G28         0.2606
    601  N2         8.8550   18.6840   11.5290 N.pl3  28  G28        -0.0859
    602  N3         7.0830   19.8020   10.5440 N.ar   28  G28        -0.1918
    603  C4         5.7590   19.7110   10.3110 C.ar   28  G28         0.1723
    604  C5         4.8940   18.7050   10.6680 C.ar   28  G28         0.1748
    605  C6         5.3990   17.5860   11.3750 C.ar   28  G28         0.3023
    606  O6         4.7930   16.5680   11.7490 O.2    28  G28        -0.2633
    607  N7         3.5990   18.9940   10.2470 N.ar   28  G28        -0.2173
    608  C8         3.6940   20.1710    9.6910 C.ar   28  G28         0.1817
    609  N9         4.9720   20.6730    9.7090 N.ar   28  G28        -0.2693
    610  OP1        0.0500   23.3550    6.0420 O.2    28  G28        -0.5172
    611  OP2       -0.2170   21.3140    7.5550 O.co2  28  G28        -0.4373
    612  P          6.0740   21.2230    4.5360 P.3    29  C29         0.2141
    613  C5'        8.5670   20.6790    5.2120 C.3    29  C29         0.1812
    614  O5'        7.2260   20.2080    4.9810 O.3    29  C29        -0.3114
    615  C4'        9.3530   19.6800    6.0360 C.3    29  C29         0.1773
    616  O4'        8.7380   19.5610    7.3570 O.3    29  C29        -0.3307
    617  C3'        9.3340   18.2710    5.4820 C.3    29  C29         0.1860
    618  O3'       10.3220   18.0070    4.4890 O.3    29  C29        -0.3112
    619  C2'        9.5320   17.4180    6.7350 C.3    29  C29         0.2309
    620  O2'       10.8860   17.3080    7.1010 O.3    29  C29        -0.2156
    621  C1'        8.7380   18.1990    7.7800 C.3    29  C29         0.2420
    622  N1         7.3550   17.7190    7.8740 N.ar   29  C29        -0.2535
    623  C2         7.1020   16.5030    8.5470 C.ar   29  C29         0.3532
    624  O2         8.0400   15.9380    9.1460 O.2    29  C29        -0.2443
    625  N3         5.8350   15.9970    8.5440 N.ar   29  C29        -0.1739
    626  C4         4.8510   16.6610    7.9130 C.ar   29  C29         0.1759
    627  N4         3.6300   16.1550    7.9530 N.pl3  29  C29        -0.1070
    628  C5         5.0890   17.8860    7.2150 C.ar   29  C29         0.0566
    629  C6         6.3460   18.3610    7.2020 C.ar   29  C29         0.0850
    630  OP1        6.5720   22.0530    3.3950 O.2    29  C29        -0.5172
    631  OP2        4.7690   20.4830    4.4350 O.co2  29  C29        -0.4373
    632  P         10.0840   16.6060    3.6400 P.3    30  U30         0.2141
    633  C5'       10.6270   14.1690    4.3800 C.3    30  U30         0.1812
    634  O5'       10.9950   15.5350    4.3890 O.3    30  U30        -0.3114
    635  C4'       10.8820   13.5220    5.7240 C.3    30  U30         0.1773
    636  O4'        9.9310   14.0230    6.7120 O.3    30  U30        -0.3307
    637  C3'       10.6080   12.0370    5.6750 C.3    30  U30         0.1860
    638  O3'       11.7940   11.4510    5.2810 O.3    30  U30        -0.3112
    639  C2'       10.1940   11.7040    7.0910 C.3    30  U30         0.2309
    640  O2'       11.3160   11.5410    7.9210 O.3    30  U30        -0.2156
    641  C1'        9.3570   12.9270    7.4440 C.3    30  U30         0.2420
    642  N1         7.8960   12.8400    7.1620 N.ar   30  U30        -0.2534
    643  C2         7.2150   11.7170    7.6060 C.ar   30  U30         0.3546
    644  O2         7.7610   10.7910    8.1860 O.2    30  U30        -0.2443
    645  N3         5.8600   11.7390    7.3920 N.ar   30  U30        -0.1530
    646  C4         5.1260   12.7290    6.7980 C.ar   30  U30         0.2846
    647  O4         3.9080   12.5810    6.6680 O.2    30  U30        -0.2650
    648  C5         5.8920   13.8620    6.3730 C.ar   30  U30         0.0814
    649  C6         7.2150   13.8900    6.5910 C.ar   30  U30         0.0870
    650  OP1       10.6880   16.8260    2.3060 O.2    30  U30        -0.5172
    651  OP2        8.6610   16.0930    3.6860 O.co2  30  U30        -0.4373
    652  P         11.5850   10.4420    4.1190 P.3    31  U31         0.2141
    653  C5'       11.3840    8.5520    5.9280 C.3    31  U31         0.1812
    654  O5'       10.8050    9.2520    4.8470 O.3    31  U31        -0.3114
    655  C4'       10.2940    7.7900    6.5750 C.3    31  U31         0.1773
    656  O4'        9.2220    8.6970    6.8940 O.3    31  U31        -0.3307
    657  C3'        9.6070    6.7990    5.6780 C.3    31  U31         0.1860
    658  O3'       10.3040    5.5690    5.6600 O.3    31  U31        -0.3112
    659  C2'        8.3020    6.5760    6.4190 C.3    31  U31         0.2309
    660  O2'        8.5610    5.7330    7.5110 O.3    31  U31        -0.2156
    661  C1'        7.9970    7.9800    6.9350 C.3    31  U31         0.2420
    662  N1         6.9860    8.7250    6.1640 N.ar   31  U31        -0.2534
    663  C2         5.6570    8.6410    6.5600 C.ar   31  U31         0.3546
    664  O2         5.2740    7.9260    7.4720 O.2    31  U31        -0.2443
    665  N3         4.7950    9.4420    5.8560 N.ar   31  U31        -0.1530
    666  C4         5.1000   10.2680    4.8010 C.ar   31  U31         0.2846
    667  O4         4.1860   10.8810    4.2210 O.2    31  U31        -0.2650
    668  C5         6.4830   10.2750    4.4350 C.ar   31  U31         0.0814
    669  C6         7.3540    9.5250    5.1110 C.ar   31  U31         0.0870
    670  OP1       12.9930    9.9670    3.8270 O.3    31  U31        -0.4373
    671  OP2       10.7190   11.0780    3.0880 O.co2  31  U31        -0.5172
    672  P         10.2200    4.8050    4.2480 P.3    32  G32         0.2141
    673  C5'        8.7180    2.8440    5.0070 C.3    32  G32         0.1812
    674  O5'        8.7960    4.1180    4.3650 O.3    32  G32        -0.3114
    675  C4'        7.2710    2.4850    5.1590 C.3    32  G32         0.1773
    676  O4'        6.5380    3.6070    5.6990 O.3    32  G32        -0.3307
    677  C3'        6.5130    2.2320    3.8710 C.3    32  G32         0.1860
    678  O3'        6.8210    0.9550    3.4050 O.3    32  G32        -0.3112
    679  C2'        5.0930    2.2860    4.3750 C.3    32  G32         0.2309
    680  O2'        4.7420    1.1570    5.1220 O.3    32  G32        -0.2156
    681  C1'        5.1800    3.4740    5.3340 C.3    32  G32         0.2408
    682  N1         1.2730    6.0990    3.5340 N.ar   32  G32        -0.1709
    683  C2         1.2750    4.9590    4.2860 C.ar   32  G32         0.2606
    684  N2         0.0830    4.4230    4.5510 N.pl3  32  G32        -0.0859
    685  N3         2.3700    4.3520    4.6920 N.ar   32  G32        -0.1918
    686  C4         3.4840    5.0110    4.3050 C.ar   32  G32         0.1723
    687  C5         3.5830    6.1810    3.5950 C.ar   32  G32         0.1748
    688  C6         2.4000    6.8230    3.1780 C.ar   32  G32         0.3023
    689  O6         2.2790    7.8590    2.5280 O.2    32  G32        -0.2633
    690  N7         4.9070    6.5730    3.4800 N.ar   32  G32        -0.2173
    691  C8         5.5750    5.6570    4.1250 C.ar   32  G32         0.1817
    692  N9         4.7730    4.6860    4.6530 N.ar   32  G32        -0.2693
    693  OP1       11.3660    3.7330    4.1980 O.3    32  G32        -0.4373
    694  OP2       10.0080    5.9060    3.1900 O.co2  32  G32        -0.5172
    695  P          7.5580    0.7800    2.0470 P.3    33  A33         0.2141
    696  C5'        5.6990   -1.1110    2.0680 C.3    33  A33         0.1812
    697  O5'        6.4080   -0.0680    1.3430 O.3    33  A33        -0.3114
    698  C4'        5.2100   -2.1990    1.1290 C.3    33  A33         0.1773
    699  O4'        3.8290   -2.5080    1.4390 O.3    33  A33        -0.3307
    700  C3'        5.2190   -1.8540   -0.3560 C.3    33  A33         0.1860
    701  O3'        5.4150   -3.1050   -0.9830 O.3    33  A33        -0.3112
    702  C2'        3.8090   -1.3550   -0.5910 C.3    33  A33         0.2309
    703  O2'        3.3320   -1.6960   -1.8490 O.3    33  A33        -0.2156
    704  C1'        3.0270   -2.3070    0.2870 C.3    33  A33         0.2408
    705  N1         0.2650    1.4790    2.4220 N.ar   33  A33        -0.2040
    706  C2         1.5360    1.4260    2.0050 C.ar   33  A33         0.2016
    707  N3         2.1940    0.4180    1.4410 N.ar   33  A33        -0.2048
    708  C4         1.3830   -0.6360    1.2650 C.ar   33  A33         0.1692
    709  C5         0.0380   -0.7040    1.5670 C.ar   33  A33         0.1518
    710  C6        -0.5380    0.4290    2.1650 C.ar   33  A33         0.1919
    711  N6        -1.8180    0.5130    2.5140 N.pl3  33  A33        -0.1054
    712  N7        -0.4670   -1.9570    1.2670 N.ar   33  A33        -0.2193
    713  C8         0.5600   -2.5990    0.7670 C.ar   33  A33         0.1816
    714  N9         1.7050   -1.8530    0.7150 N.ar   33  A33        -0.2693
    715  OP1        8.7580   -0.0870    2.2280 O.3    33  A33        -0.4373
    716  OP2        7.6730    2.0890    1.3870 O.co2  33  A33        -0.5172
    717  P          6.6870   -3.3510   -1.8870 P.3    34  U34         0.2141
    718  C5'        8.7360   -4.5550   -0.6550 C.3    34  U34         0.1812
    719  O5'        7.8330   -3.4460   -0.7750 O.3    34  U34        -0.3114
    720  C4'        9.8630   -4.1940    0.2890 C.3    34  U34         0.1773
    721  O4'       11.1180   -4.0580   -0.4500 O.3    34  U34        -0.3307
    722  C3'        9.7190   -2.8920    1.0820 C.3    34  U34         0.1860
    723  O3'       10.2710   -2.9470    2.3980 O.3    34  U34        -0.3112
    724  C2'       10.5440   -1.9070    0.2650 C.3    34  U34         0.2309
    725  O2'       11.0370   -0.9540    1.1540 O.3    34  U34        -0.2156
    726  C1'       11.7080   -2.7800   -0.1850 C.3    34  U34         0.2420
    727  N1        12.3820   -2.3470   -1.4180 N.ar   34  U34        -0.2534
    728  C2        13.7630   -2.4780   -1.5060 C.ar   34  U34         0.3546
    729  O2        14.4770   -2.7720   -0.5440 O.2    34  U34        -0.2443
    730  N3        14.2800   -2.2220   -2.7550 N.ar   34  U34        -0.1530
    731  C4        13.5780   -1.9300   -3.9100 C.ar   34  U34         0.2846
    732  O4        14.1840   -1.7910   -4.9710 O.2    34  U34        -0.2650
    733  C5        12.1660   -1.8440   -3.7400 C.ar   34  U34         0.0814
    734  C6        11.6280   -2.0560   -2.5340 C.ar   34  U34         0.0870
    735  OP1        6.8780   -2.1150   -2.7280 O.2    34  U34        -0.5172
    736  OP2        6.4350   -4.6580   -2.5390 O.co2  34  U34        -0.4373
    737  P          9.4760   -3.7030    3.6230 P.3    35  G35         0.2141
    738  C5'        7.2000   -4.8070    3.7520 C.3    35  G35         0.1812
    739  O5'        8.4070   -4.6560    2.9800 O.3    35  G35        -0.3114
    740  C4'        6.8880   -3.6530    4.7500 C.3    35  G35         0.1773
    741  O4'        5.6190   -3.1290    4.3380 O.3    35  G35        -0.3307
    742  C3'        6.4710   -4.2270    6.0880 C.3    35  G35         0.1860
    743  O3'        6.0810   -3.3360    7.1040 O.3    35  G35        -0.3112
    744  C2'        5.2410   -5.0280    5.6900 C.3    35  G35         0.2309
    745  O2'        4.3640   -5.4120    6.6920 O.3    35  G35        -0.2156
    746  C1'        4.5830   -4.0880    4.6860 C.3    35  G35         0.2408
    747  N1         0.5510   -5.9270    2.1840 N.ar   35  G35        -0.1709
    748  C2         0.6030   -5.0840    3.2760 C.ar   35  G35         0.2606
    749  N2        -0.5790   -4.7360    3.8160 N.pl3  35  G35        -0.0859
    750  N3         1.7270   -4.6440    3.8180 N.ar   35  G35        -0.1918
    751  C4         2.8170   -5.1370    3.1910 C.ar   35  G35         0.1723
    752  C5         2.8770   -5.9830    2.0950 C.ar   35  G35         0.1748
    753  C6         1.6570   -6.4390    1.5100 C.ar   35  G35         0.3023
    754  O6         1.4920   -7.1980    0.5330 O.2    35  G35        -0.2633
    755  N7         4.1960   -6.2530    1.7540 N.ar   35  G35        -0.2173
    756  C8         4.9020   -5.5660    2.6160 C.ar   35  G35         0.1817
    757  N9         4.1270   -4.8490    3.5040 N.ar   35  G35        -0.2693
    758  OP1        8.5150   -2.6840    4.2980 O.2    35  G35        -0.5172
    759  OP2       10.2570   -4.7310    4.4490 O.co2  35  G35        -0.4373
    760  P          5.9690   -4.0180    8.6380 P.3    36  A36         0.2141
    761  C5'        7.0090   -2.0020    9.9010 C.3    36  A36         0.1812
    762  O5'        5.8530   -2.6290    9.4200 O.3    36  A36        -0.3114
    763  C4'        6.9690   -0.5880    9.5380 C.3    36  A36         0.1773
    764  O4'        6.2390   -0.4700    8.2910 O.3    36  A36        -0.3307
    765  C3'        6.1940    0.3020   10.4910 C.3    36  A36         0.1860
    766  O3'        6.9850    0.7660   11.5490 O.3    36  A36        -0.3112
    767  C2'        5.8900    1.4660    9.5860 C.3    36  A36         0.2309
    768  O2'        7.1640    2.0230    9.3730 O.3    36  A36        -0.2156
    769  C1'        5.4190    0.7240    8.3220 C.3    36  A36         0.2408
    770  N1         0.5690    1.7860    9.8500 N.ar   36  A36        -0.2040
    771  C2         1.6700    2.5510    9.8110 C.ar   36  A36         0.2016
    772  N3         2.8910    2.2400    9.4020 N.ar   36  A36        -0.2048
    773  C4         2.9230    0.9790    8.9310 C.ar   36  A36         0.1692
    774  C5         1.8650    0.0850    8.8830 C.ar   36  A36         0.1518
    775  C6         0.6440    0.5180    9.3850 C.ar   36  A36         0.1919
    776  N6        -0.4480   -0.2500    9.4170 N.pl3  36  A36        -0.1054
    777  N7         2.2730   -1.1360    8.3780 N.ar   36  A36        -0.2193
    778  C8         3.5410   -0.9530    8.1020 C.ar   36  A36         0.1816
    779  N9         4.0040    0.3030    8.4090 N.ar   36  A36        -0.2693
    780  OP1        7.3230   -4.6430    8.9400 O.2    36  A36        -0.5172
    781  OP2        4.7580   -4.8540    8.9510 O.co2  36  A36        -0.4373
    782  P          6.6620    0.2120   13.0340 P.3    37  C37         0.2141
    783  C5'        4.8340    2.0740   13.3790 C.3    37  C37         0.1812
    784  O5'        5.1940    0.6950   13.3840 O.3    37  C37        -0.3114
    785  C4'        3.3650    2.1180   13.6800 C.3    37  C37         0.1773
    786  O4'        2.6200    1.6620   12.5100 O.3    37  C37        -0.3307
    787  C3'        2.9670    1.1600   14.7850 C.3    37  C37         0.1860
    788  O3'        3.2670    1.7610   16.0420 O.3    37  C37        -0.3112
    789  C2'        1.5050    0.8770   14.4480 C.3    37  C37         0.2309
    790  O2'        0.6150    1.8840   14.9140 O.3    37  C37        -0.2156
    791  C1'        1.5600    0.8330   12.9150 C.3    37  C37         0.2420
    792  N1         1.7960   -0.5050   12.3520 N.ar   37  C37        -0.2535
    793  C2         0.7200   -1.3880   12.2220 C.ar   37  C37         0.3532
    794  O2        -0.4010   -1.0270   12.6040 O.2    37  C37        -0.2443
    795  N3         0.9250   -2.6090   11.6800 N.ar   37  C37        -0.1739
    796  C4         2.1430   -2.9660   11.2900 C.ar   37  C37         0.1759
    797  N4         2.2980   -4.1860   10.7700 N.pl3  37  C37        -0.1070
    798  C5         3.2580   -2.0830   11.3970 C.ar   37  C37         0.0566
    799  C6         3.0370   -0.8680   11.9180 C.ar   37  C37         0.0850
    800  OP1        7.5190    0.9310   13.9840 O.3    37  C37        -0.4373
    801  OP2        6.6060   -1.2930   13.0290 O.co2  37  C37        -0.5172
    802  P          3.4580    0.8780   17.3890 P.3    38  C38         0.2141
    803  C5'        1.6530   -0.5930   18.7190 C.3    38  C38         0.1812
    804  O5'        2.0430    0.1490   17.5230 O.3    38  C38        -0.3114
    805  C4'        0.7020   -1.7030   18.3310 C.3    38  C38         0.1773
    806  O4'        0.5450   -1.7230   16.8830 O.3    38  C38        -0.3307
    807  C3'        1.1950   -3.0940   18.6360 C.3    38  C38         0.1860
    808  O3'        0.9540   -3.3360   19.9850 O.3    38  C38        -0.3112
    809  C2'        0.3870   -3.9310   17.6720 C.3    38  C38         0.2309
    810  O2'       -0.9810   -3.9240   18.0350 O.3    38  C38        -0.2156
    811  C1'        0.4600   -3.0640   16.4240 C.3    38  C38         0.2420
    812  N1         1.6210   -3.3050   15.5900 N.ar   38  C38        -0.2535
    813  C2         1.7430   -4.5180   14.9180 C.ar   38  C38         0.3532
    814  O2         0.8740   -5.3700   15.0760 O.2    38  C38        -0.2443
    815  N3         2.8150   -4.7290   14.1140 N.ar   38  C38        -0.1739
    816  C4         3.7210   -3.7650   13.9490 C.ar   38  C38         0.1759
    817  N4         4.7550   -4.0100   13.1560 N.pl3  38  C38        -0.1070
    818  C5         3.6200   -2.5130   14.6230 C.ar   38  C38         0.0566
    819  C6         2.5480   -2.3180   15.4070 C.ar   38  C38         0.0850
    820  OP1        3.6550    1.8630   18.4800 O.3    38  C38        -0.4373
    821  OP2        4.4240   -0.2150   17.1680 O.co2  38  C38        -0.5172
    822  P          2.2900   -3.7390   20.7320 P.3    39  C39         0.2141
    823  C5'        1.1180   -6.0740   21.0200 C.3    39  C39         0.1812
    824  O5'        2.2660   -5.3310   20.5730 O.3    39  C39        -0.3114
    825  C4'        1.1380   -7.4890   20.4830 C.3    39  C39         0.1773
    826  O4'        0.9390   -7.4780   19.0450 O.3    39  C39        -0.3307
    827  C3'        2.4280   -8.2720   20.6590 C.3    39  C39         0.1860
    828  O3'        2.5650   -8.8660   21.9300 O.3    39  C39        -0.3112
    829  C2'        2.2820   -9.3420   19.5880 C.3    39  C39         0.2309
    830  O2'        1.3590  -10.3510   19.9090 O.3    39  C39        -0.2156
    831  C1'        1.7250   -8.5110   18.4480 C.3    39  C39         0.2420
    832  N1         2.8100   -7.9100   17.6490 N.ar   39  C39        -0.2535
    833  C2         3.3640   -8.7010   16.6650 C.ar   39  C39         0.3532
    834  O2         2.9020   -9.8460   16.4990 O.2    39  C39        -0.2443
    835  N3         4.3650   -8.2020   15.8920 N.ar   39  C39        -0.1739
    836  C4         4.8040   -6.9600   16.0940 C.ar   39  C39         0.1759
    837  N4         5.8010   -6.5160   15.3270 N.pl3  39  C39        -0.1070
    838  C5         4.2630   -6.1300   17.1150 C.ar   39  C39         0.0566
    839  C6         3.2780   -6.6410   17.8640 C.ar   39  C39         0.0850
    840  OP1        2.0070   -3.3640   22.1270 O.3    39  C39        -0.4373
    841  OP2        3.5100   -3.2120   20.0560 O.co2  39  C39        -0.5172
    842  P          3.9830   -8.7380   22.6140 P.3    40  C40         0.2141
    843  C5'        4.0300  -11.3610   22.5800 C.3    40  C40         0.1812
    844  O5'        4.7270  -10.1230   22.3380 O.3    40  C40        -0.3114
    845  C4'        4.5640  -12.4630   21.6860 C.3    40  C40         0.1773
    846  O4'        4.2320  -12.1990   20.2820 O.3    40  C40        -0.3307
    847  C3'        6.0730  -12.6460   21.6750 C.3    40  C40         0.1860
    848  O3'        6.5530  -13.3870   22.7840 O.3    40  C40        -0.3112
    849  C2'        6.2750  -13.3940   20.3700 C.3    40  C40         0.2309
    850  O2'        5.8290  -14.7190   20.5430 O.3    40  C40        -0.2156
    851  C1'        5.3000  -12.6510   19.4500 C.3    40  C40         0.2420
    852  N1         5.9250  -11.4810   18.8220 N.ar   40  C40        -0.2535
    853  C2         6.6170  -11.6470   17.6170 C.ar   40  C40         0.3532
    854  O2         6.6400  -12.7710   17.0880 O.2    40  C40        -0.2443
    855  N3         7.2200  -10.5730   17.0460 N.ar   40  C40        -0.1739
    856  C4         7.1480   -9.3750   17.6390 C.ar   40  C40         0.1759
    857  N4         7.7500   -8.3440   17.0460 N.pl3  40  C40        -0.1070
    858  C5         6.4640   -9.1840   18.8750 C.ar   40  C40         0.0566
    859  C6         5.8850  -10.2580   19.4330 C.ar   40  C40         0.0850
    860  OP1        3.6500   -8.7050   24.0630 O.3    40  C40        -0.4373
    861  OP2        4.7040   -7.6120   21.9500 O.co2  40  C40        -0.5172
    862  P          7.8960  -12.7950   23.4220 P.3    41  C41         0.2141
    863  C5'        9.1020  -14.8590   22.2190 C.3    41  C41         0.1812
    864  O5'        9.0380  -13.4420   22.5150 O.3    41  C41        -0.3114
    865  C4'       10.0850  -15.0590   21.0900 C.3    41  C41         0.1773
    866  O4'        9.5730  -14.3760   19.9070 O.3    41  C41        -0.3307
    867  C3'       11.4570  -14.4170   21.2910 C.3    41  C41         0.1860
    868  O3'       12.3190  -15.2010   22.1100 O.3    41  C41        -0.3112
    869  C2'       11.9430  -14.2310   19.8560 C.3    41  C41         0.2309
    870  O2'       12.3480  -15.4110   19.1760 O.3    41  C41        -0.2156
    871  C1'       10.6520  -13.7920   19.1770 C.3    41  C41         0.2420
    872  N1        10.4790  -12.3410   19.1960 N.ar   41  C41        -0.2535
    873  C2        11.2420  -11.5480   18.3240 C.ar   41  C41         0.3532
    874  O2        12.0610  -12.1010   17.5640 O.2    41  C41        -0.2443
    875  N3        11.0600  -10.2050   18.3240 N.ar   41  C41        -0.1739
    876  C4        10.1610   -9.6580   19.1380 C.ar   41  C41         0.1759
    877  N4        10.0420   -8.3390   19.1320 N.pl3  41  C41        -0.1070
    878  C5         9.3640  -10.4430   20.0240 C.ar   41  C41         0.0566
    879  C6         9.5450  -11.7680   20.0110 C.ar   41  C41         0.0850
    880  OP1        7.9690  -13.3080   24.8070 O.3    41  C41        -0.4373
    881  OP2        7.9540  -11.3260   23.2090 O.co2  41  C41        -0.5172
    882  P         13.1630  -14.4350   23.2430 P.3    42  G42         0.2141
    883  C5'       15.2810  -13.0200   22.6770 C.3    42  G42         0.1812
    884  O5'       13.9050  -13.2650   22.4520 O.3    42  G42        -0.3114
    885  C4'       15.8910  -12.5350   21.4080 C.3    42  G42         0.1773
    886  O4'       14.8590  -12.3720   20.3910 O.3    42  G42        -0.3307
    887  C3'       16.5370  -11.1630   21.5200 C.3    42  G42         0.1860
    888  O3'       17.8920  -11.3530   21.7310 O.3    42  G42        -0.3112
    889  C2'       16.4300  -10.6510   20.1140 C.3    42  G42         0.2309
    890  O2'       17.3800  -11.4110   19.4030 O.3    42  G42        -0.2156
    891  C1'       15.0000  -11.0700   19.7840 C.3    42  G42         0.2408
    892  N1        13.4850   -6.2470   20.6100 N.ar   42  G42        -0.1709
    893  C2        14.5700   -6.7010   19.8930 C.ar   42  G42         0.2606
    894  N2        15.3760   -5.7570   19.3750 N.pl3  42  G42        -0.0859
    895  N3        14.8630   -7.9860   19.7290 N.ar   42  G42        -0.1918
    896  C4        13.9780   -8.7890   20.3590 C.ar   42  G42         0.1723
    897  C5        12.8730   -8.4310   21.1120 C.ar   42  G42         0.1748
    898  C6        12.5670   -7.0600   21.2760 C.ar   42  G42         0.3023
    899  O6        11.6430   -6.5520   21.9280 O.2    42  G42        -0.2633
    900  N7        12.2350   -9.5540   21.6180 N.ar   42  G42        -0.2173
    901  C8        12.9310  -10.5590   21.1550 C.ar   42  G42         0.1817
    902  N9        14.0090  -10.1680   20.3920 N.ar   42  G42        -0.2693
    903  OP1       14.2600  -15.3140   23.7530 O.2    42  G42        -0.5172
    904  OP2       12.1390  -13.9340   24.1790 O.co2  42  G42        -0.4373
    905  P         18.3240  -11.3120   23.2600 P.3    43  G43         0.2141
    906  C5'       19.9410   -9.5380   22.1280 C.3    43  G43         0.1812
    907  O5'       19.0650   -9.8960   23.2290 O.3    43  G43        -0.3114
    908  C4'       19.6100   -8.1630   21.5910 C.3    43  G43         0.1773
    909  O4'       18.2070   -8.0890   21.1990 O.3    43  G43        -0.3307
    910  C3'       19.8030   -7.0240   22.5640 C.3    43  G43         0.1860
    911  O3'       21.1360   -6.5960   22.4570 O.3    43  G43        -0.3112
    912  C2'       18.8930   -5.9510   21.9900 C.3    43  G43         0.2309
    913  O2'       19.4660   -5.3710   20.8680 O.3    43  G43        -0.2156
    914  C1'       17.7210   -6.7680   21.4300 C.3    43  G43         0.2408
    915  N1        14.1610   -4.2130   24.0760 N.ar   43  G43        -0.1709
    916  C2        15.1470   -3.7210   23.2530 C.ar   43  G43         0.2606
    917  N2        15.1750   -2.3730   23.0960 N.pl3  43  G43        -0.0859
    918  N3        15.9930   -4.4880   22.5690 N.ar   43  G43        -0.1918
    919  C4        15.8080   -5.8020   22.8260 C.ar   43  G43         0.1723
    920  C5        14.8510   -6.3950   23.6250 C.ar   43  G43         0.1748
    921  C6        13.9130   -5.5630   24.3100 C.ar   43  G43         0.3023
    922  O6        12.9820   -5.9000   25.0550 O.2    43  G43        -0.2633
    923  N7        14.9990   -7.7770   23.6290 N.ar   43  G43        -0.2173
    924  C8        16.0150   -7.9980   22.8350 C.ar   43  G43         0.1817
    925  N9        16.5620   -6.8460   22.3250 N.ar   43  G43        -0.2693
    926  OP1       19.4170  -12.3060   23.4650 O.2    43  G43        -0.5172
    927  OP2       17.0590  -11.3570   24.1130 O.co2  43  G43        -0.4373
    928  P         21.8690   -6.0820   23.7940 P.3    44  C44         0.2141
    929  C5'       21.8630   -3.7350   22.5460 C.3    44  C44         0.1812
    930  O5'       21.5090   -4.5490   23.6700 O.3    44  C44        -0.3114
    931  C4'       21.2510   -2.3760   22.7920 C.3    44  C44         0.1773
    932  O4'       19.7950   -2.5010   22.7870 O.3    44  C44        -0.3307
    933  C3'       21.5580   -1.7900   24.1700 C.3    44  C44         0.1860
    934  O3'       22.7920   -1.0980   24.1910 O.3    44  C44        -0.3112
    935  C2'       20.3770   -0.8480   24.3990 C.3    44  C44         0.2309
    936  O2'       20.4710    0.3590   23.6750 O.3    44  C44        -0.2156
    937  C1'       19.2340   -1.6380   23.7850 C.3    44  C44         0.2420
    938  N1        18.4710   -2.4490   24.7520 N.ar   44  C44        -0.2535
    939  C2        17.6650   -1.8010   25.6990 C.ar   44  C44         0.3532
    940  O2        17.6850   -0.5660   25.7600 O.2    44  C44        -0.2443
    941  N3        16.9010   -2.5420   26.5320 N.ar   44  C44        -0.1739
    942  C4        16.9070   -3.8760   26.4350 C.ar   44  C44         0.1759
    943  N4        16.1370   -4.5690   27.2800 N.pl3  44  C44        -0.1070
    944  C5        17.6980   -4.5590   25.4680 C.ar   44  C44         0.0566
    945  C6        18.4530   -3.8130   24.6500 C.ar   44  C44         0.0850
    946  OP1       23.3580   -6.0190   23.6680 O.2    44  C44        -0.5172
    947  OP2       21.2530   -6.6860   25.0460 O.co2  44  C44        -0.4373
    948  P         23.4070   -0.7140   25.5950 P.3    45  A45         0.2141
    949  C5'       22.0030    1.2970   26.5360 C.3    45  A45         0.1812
    950  O5'       22.2020   -0.1520   26.4660 O.3    45  A45        -0.3114
    951  C4'       20.9760    1.6410   27.5690 C.3    45  A45         0.1773
    952  O4'       19.8460    0.7630   27.3870 O.3    45  A45        -0.3307
    953  C3'       21.4350    1.3900   28.9810 C.3    45  A45         0.1860
    954  O3'       21.9770    2.6130   29.3390 O.3    45  A45        -0.3112
    955  C2'       20.1360    1.0760   29.7230 C.3    45  A45         0.2309
    956  O2'       19.4520    2.2180   30.1920 O.3    45  A45        -0.2156
    957  C1'       19.2870    0.4260   28.6320 C.3    45  A45         0.2408
    958  N1        17.0310   -3.8520   30.3710 N.ar   45  A45        -0.2040
    959  C2        16.8070   -2.5620   30.6540 C.ar   45  A45         0.2016
    960  N3        17.4100   -1.4780   30.1640 N.ar   45  A45        -0.2048
    961  C4        18.4030   -1.8310   29.3320 C.ar   45  A45         0.1692
    962  C5        18.8040   -3.1160   29.0180 C.ar   45  A45         0.1518
    963  C6        18.0740   -4.1620   29.5660 C.ar   45  A45         0.1919
    964  N6        18.3350   -5.4370   29.3200 N.pl3  45  A45        -0.1054
    965  N7        19.8540   -3.0930   28.1180 N.ar   45  A45        -0.2193
    966  C8        20.0980   -1.8180   27.9520 C.ar   45  A45         0.1816
    967  N9        19.2700   -1.0010   28.6730 N.ar   45  A45        -0.2693
    968  OP1       24.3640    0.4350   25.3600 O.2    45  A45        -0.5172
    969  OP2       23.7810   -1.9070   26.3610 O.co2  45  A45        -0.4373
    970  P         22.7610    2.5560   30.6920 P.3    46  A46         0.2141
    971  C5'       21.1760    3.2640   32.6400 C.3    46  A46         0.1812
    972  O5'       21.8200    2.2240   31.9240 O.3    46  A46        -0.3114
    973  C4'       20.1990    2.6710   33.5990 C.3    46  A46         0.1773
    974  O4'       19.7320    1.4040   33.0730 O.3    46  A46        -0.3307
    975  C3'       20.7700    2.3650   34.9700 C.3    46  A46         0.1860
    976  O3'       19.7010    2.6240   35.8630 O.3    46  A46        -0.3112
    977  C2'       21.1520    0.8870   34.8640 C.3    46  A46         0.2309
    978  O2'       21.1380    0.2200   36.1100 O.3    46  A46        -0.2156
    979  C1'       20.0450    0.3590   33.9630 C.3    46  A46         0.2408
    980  N1        19.0760   -4.6000   33.0130 N.ar   46  A46        -0.2040
    981  C2        18.5110   -3.7080   33.8370 C.ar   46  A46         0.2016
    982  N3        18.8060   -2.4130   34.0220 N.ar   46  A46        -0.2048
    983  C4        19.8240   -2.0370   33.2250 C.ar   46  A46         0.1692
    984  C5        20.4670   -2.8190   32.2790 C.ar   46  A46         0.1518
    985  C6        20.0590   -4.1770   32.1840 C.ar   46  A46         0.1919
    986  N6        20.5990   -5.0540   31.3420 N.pl3  46  A46        -0.1054
    987  N7        21.4640   -2.0890   31.6350 N.ar   46  A46        -0.2193
    988  C8        21.3830   -0.8960   32.1790 C.ar   46  A46         0.1816
    989  N9        20.4350   -0.8050   33.1740 N.ar   46  A46        -0.2693
    990  OP1       23.2990    3.9230   30.7380 O.2    46  A46        -0.5172
    991  OP2       23.6350    1.3500   30.8680 O.co2  46  A46        -0.4373
    992  P         19.7930    3.9850   36.6290 P.3    47  C47         0.2141
    993  C5'       17.6960    5.5720   37.1470 C.3    47  C47         0.1812
    994  O5'       18.3200    4.2480   37.1800 O.3    47  C47        -0.3114
    995  C4'       16.2460    5.4270   37.6090 C.3    47  C47         0.1773
    996  O4'       15.3960    4.9800   36.4890 O.3    47  C47        -0.3307
    997  C3'       16.0560    4.3580   38.6700 C.3    47  C47         0.1860
    998  O3'       16.3620    4.8350   39.9790 O.3    47  C47        -0.3112
    999  C2'       14.6090    3.9510   38.4610 C.3    47  C47         0.2309
   1000  O2'       13.8000    4.9490   39.0310 O.3    47  C47        -0.2156
   1001  C1'       14.4900    3.9940   36.9350 C.3    47  C47         0.2420
   1002  N1        14.8010    2.7200   36.2480 N.ar   47  C47        -0.2535
   1003  C2        13.9340    1.6100   36.3980 C.ar   47  C47         0.3532
   1004  O2        12.9030    1.7270   37.1110 O.2    47  C47        -0.2443
   1005  N3        14.2570    0.4340   35.7950 N.ar   47  C47        -0.1739
   1006  C4        15.3720    0.3410   35.0710 C.ar   47  C47         0.1759
   1007  N4        15.6460   -0.8340   34.4890 N.pl3  47  C47        -0.1070
   1008  C5        16.2630    1.4460   34.9110 C.ar   47  C47         0.0566
   1009  C6        15.9350    2.6060   35.5020 C.ar   47  C47         0.0850
   1010  OP1       20.0770    5.1340   35.6460 O.2    47  C47        -0.5172
   1011  OP2       20.7150    3.5710   37.7850 O.co2  47  C47        -0.4373
   1012  P         16.4430    3.6700   41.1090 P.3    48  C48         0.2141
   1013  C5'       14.0450    3.0370   42.0230 C.3    48  C48         0.1812
   1014  O5'       15.0610    2.8920   41.0190 O.3    48  C48        -0.3114
   1015  C4'       13.0860    1.8830   41.9080 C.3    48  C48         0.1773
   1016  O4'       12.9790    1.4840   40.5040 O.3    48  C48        -0.3307
   1017  C3'       13.5160    0.6010   42.5940 C.3    48  C48         0.1860
   1018  O3'       13.3470    0.5910   43.9910 O.3    48  C48        -0.3112
   1019  C2'       12.6660   -0.4310   41.8640 C.3    48  C48         0.2309
   1020  O2'       11.2840   -0.4700   42.2100 O.3    48  C48        -0.2156
   1021  C1'       12.7770    0.0750   40.4220 C.3    48  C48         0.2420
   1022  N1        13.8830   -0.5180   39.6410 N.ar   48  C48        -0.2535
   1023  C2        13.7180   -1.8020   39.0860 C.ar   48  C48         0.3532
   1024  O2        12.6730   -2.4200   39.3070 O.2    48  C48        -0.2443
   1025  N3        14.7190   -2.3410   38.3530 N.ar   48  C48        -0.1739
   1026  C4        15.8230   -1.6220   38.0950 C.ar   48  C48         0.1759
   1027  N4        16.7720   -2.1820   37.3240 N.pl3  48  C48        -0.1070
   1028  C5        16.0060   -0.3010   38.6200 C.ar   48  C48         0.0566
   1029  C6        15.0320    0.1920   39.4070 C.ar   48  C48         0.0850
   1030  OP1       16.3940    4.4030   42.3630 O.3    48  C48        -0.4373
   1031  OP2       17.5200    2.6570   40.8670 O.co2  48  C48        -0.5172
   1032  P         14.5850    0.0670   44.9600 P.3    49  A49         0.2141
   1033  C5'       13.0710   -2.0020   45.3150 C.3    49  A49         0.1812
   1034  O5'       14.3430   -1.5110   44.9310 O.3    49  A49        -0.3114
   1035  C4'       13.0060   -3.4460   44.9910 C.3    49  A49         0.1773
   1036  O4'       13.0480   -3.5720   43.5550 O.3    49  A49        -0.3307
   1037  C3'       14.2050   -4.2600   45.4250 C.3    49  A49         0.1860
   1038  O3'       14.2070   -4.5750   46.8000 O.3    49  A49        -0.3112
   1039  C2'       14.0910   -5.4750   44.5150 C.3    49  A49         0.2309
   1040  O2'       13.2020   -6.4760   44.9360 O.3    49  A49        -0.2156
   1041  C1'       13.6690   -4.8140   43.2000 C.3    49  A49         0.2408
   1042  N1        17.2050   -6.5130   39.8140 N.ar   49  A49        -0.2040
   1043  C2        16.1850   -7.1340   40.4130 C.ar   49  A49         0.2016
   1044  N3        15.3010   -6.6530   41.2870 N.ar   49  A49        -0.2048
   1045  C4        15.5280   -5.3490   41.5140 C.ar   49  A49         0.1692
   1046  C5        16.5490   -4.5820   40.9810 C.ar   49  A49         0.1518
   1047  C6        17.4190   -5.2090   40.0930 C.ar   49  A49         0.1919
   1048  N6        18.4520   -4.5930   39.5270 N.pl3  49  A49        -0.1054
   1049  N7        16.5090   -3.2920   41.4820 N.ar   49  A49        -0.2193
   1050  C8        15.4640   -3.2940   42.2760 C.ar   49  A49         0.1816
   1051  N9        14.8270   -4.5090   42.3500 N.ar   49  A49        -0.2693
   1052  OP1       14.2820    0.3880   46.3850 O.3    49  A49        -0.4373
   1053  OP2       15.9000    0.4960   44.4200 O.co2  49  A49        -0.5172
   1054  P         15.5480   -4.2510   47.7020 P.3    50  A50         0.2141
   1055  C5'       15.9270   -6.8440   47.1730 C.3    50  A50         0.1812
   1056  O5'       16.4510   -5.5010   47.2440 O.3    50  A50        -0.3114
   1057  C4'       16.8540   -7.7510   46.3990 C.3    50  A50         0.1773
   1058  O4'       16.7860   -7.4520   44.9760 O.3    50  A50        -0.3307
   1059  C3'       18.3610   -7.6820   46.6760 C.3    50  A50         0.1860
   1060  O3'       18.8480   -8.2770   47.8810 O.3    50  A50        -0.3112
   1061  C2'       18.9200   -8.4320   45.4640 C.3    50  A50         0.2309
   1062  O2'       19.0380   -9.8500   45.6370 O.3    50  A50        -0.2156
   1063  C1'       17.9660   -7.9490   44.3450 C.3    50  A50         0.2408
   1064  N1        21.0870   -7.1730   40.4120 N.ar   50  A50        -0.2040
   1065  C2        20.5380   -8.2760   40.9420 C.ar   50  A50         0.2016
   1066  N3        19.7090   -8.3850   41.9720 N.ar   50  A50        -0.2048
   1067  C4        19.4450   -7.1710   42.5030 C.ar   50  A50         0.1692
   1068  C5        19.9760   -5.9520   42.1000 C.ar   50  A50         0.1518
   1069  C6        20.8210   -5.9710   40.9800 C.ar   50  A50         0.1919
   1070  N6        21.3710   -4.8800   40.4480 N.pl3  50  A50        -0.1054
   1071  N7        19.5310   -4.9230   42.9260 N.ar   50  A50        -0.2193
   1072  C8        18.7160   -5.5240   43.7660 C.ar   50  A50         0.1816
   1073  N9        18.5990   -6.8850   43.5500 N.ar   50  A50        -0.2693
   1074  OP1       15.1850   -4.3690   49.1420 O.3    50  A50        -0.4373
   1075  OP2       16.1360   -2.9510   47.2460 O.co2  50  A50        -0.5172
   1076  P         19.6650   -7.3320   48.9090 P.3    51  A51         0.2141
   1077  C5'       22.1120   -6.3950   48.5260 C.3    51  A51         0.1812
   1078  O5'       21.2040   -7.5320   48.5690 O.3    51  A51        -0.3114
   1079  C4'       23.4700   -6.7990   47.9620 C.3    51  A51         0.1773
   1080  O4'       23.9510   -8.0010   48.6370 O.3    51  A51        -0.3307
   1081  C3'       23.5020   -7.1270   46.4630 C.3    51  A51         0.1860
   1082  O3'       23.7460   -5.9750   45.6490 O.3    51  A51        -0.3112
   1083  C2'       24.5670   -8.2330   46.3650 C.3    51  A51         0.2309
   1084  O2'       25.9180   -7.8140   46.4880 O.3    51  A51        -0.2156
   1085  C1'       24.3510   -8.9750   47.6760 C.3    51  A51         0.2408
   1086  N1        23.5100  -13.9570   46.6370 N.ar   51  A51        -0.2040
   1087  C2        24.5530  -13.1430   46.3840 C.ar   51  A51         0.2016
   1088  N3        24.6960  -11.8390   46.6520 N.ar   51  A51        -0.2048
   1089  C4        23.6030  -11.3630   47.2780 C.ar   51  A51         0.1692
   1090  C5        22.4450  -12.0670   47.5840 C.ar   51  A51         0.1518
   1091  C6        22.4160  -13.4360   47.2380 C.ar   51  A51         0.1919
   1092  N6        21.3690  -14.2340   47.4620 N.pl3  51  A51        -0.1054
   1093  N7        21.5090  -11.2340   48.1860 N.ar   51  A51        -0.2193
   1094  C8        22.1160  -10.0740   48.2540 C.ar   51  A51         0.1816
   1095  N9        23.3750  -10.0710   47.6900 N.ar   51  A51        -0.2693
   1096  OP1       19.4470   -7.9740   50.2520 O.3    51  A51        -0.4373
   1097  OP2       19.3970   -5.8380   48.6680 O.co2  51  A51        -0.5172
   1098  P         23.3570   -6.1900   44.1160 P.3    52  A52         0.2141
   1099  C5'       24.9240   -7.2260   42.3000 C.3    52  A52         0.1812
   1100  O5'       24.7950   -6.6150   43.5820 O.3    52  A52        -0.3114
   1101  C4'       25.1940   -8.7110   42.4220 C.3    52  A52         0.1773
   1102  O4'       24.5400   -9.2860   43.5910 O.3    52  A52        -0.3307
   1103  C3'       24.6010   -9.5280   41.2860 C.3    52  A52         0.1860
   1104  O3'       25.2740   -9.4080   40.0340 O.3    52  A52        -0.3112
   1105  C2'       24.5990  -10.9350   41.8700 C.3    52  A52         0.2309
   1106  O2'       25.7750  -11.6360   41.6000 O.3    52  A52        -0.2156
   1107  C1'       24.3450  -10.6720   43.3610 C.3    52  A52         0.2408
   1108  N1        21.0370  -14.5810   43.6410 N.ar   52  A52        -0.2040
   1109  C2        22.2880  -14.4760   43.1690 C.ar   52  A52         0.2016
   1110  N3        23.0890  -13.4060   43.1200 N.ar   52  A52        -0.2048
   1111  C4        22.4690  -12.3200   43.6260 C.ar   52  A52         0.1692
   1112  C5        21.1760  -12.2600   44.1290 C.ar   52  A52         0.1518
   1113  C6        20.4370  -13.4750   44.1400 C.ar   52  A52         0.1919
   1114  N6        19.1790  -13.5780   44.5770 N.pl3  52  A52        -0.1054
   1115  N7        20.8600  -10.9590   44.5200 N.ar   52  A52        -0.2193
   1116  C8        21.9620  -10.2810   44.2830 C.ar   52  A52         0.1816
   1117  N9        22.9870  -11.0510   43.7680 N.ar   52  A52        -0.2693
   1118  OP1       22.8830   -4.8930   43.5150 O.2    52  A52        -0.5172
   1119  OP2       22.4440   -7.4100   44.1170 O.co2  52  A52        -0.4373
   1120  P         24.5510   -9.9800   38.7170 P.3    53  A53         0.2141
   1121  C5'       24.7430  -12.3600   37.6520 C.3    53  A53         0.1812
   1122  O5'       24.5670  -11.5720   38.8330 O.3    53  A53        -0.3114
   1123  C4'       24.0540  -13.7060   37.7760 C.3    53  A53         0.1773
   1124  O4'       23.7180  -13.9540   39.1700 O.3    53  A53        -0.3307
   1125  C3'       22.7390  -13.8530   36.9980 C.3    53  A53         0.1860
   1126  O3'       22.8520  -14.3050   35.6360 O.3    53  A53        -0.3112
   1127  C2'       21.9370  -14.8260   37.8600 C.3    53  A53         0.2309
   1128  O2'       22.2550  -16.1610   37.5760 O.3    53  A53        -0.2156
   1129  C1'       22.3850  -14.4320   39.2630 C.3    53  A53         0.2408
   1130  N1        17.9490  -13.3560   41.6100 N.ar   53  A53        -0.2040
   1131  C2        18.4510  -14.4950   41.0980 C.ar   53  A53         0.2016
   1132  N3        19.6120  -14.6990   40.4760 N.ar   53  A53        -0.2048
   1133  C4        20.3230  -13.5580   40.4140 C.ar   53  A53         0.1692
   1134  C5        19.9480  -12.3130   40.9000 C.ar   53  A53         0.1518
   1135  C6        18.6930  -12.2260   41.5310 C.ar   53  A53         0.1919
   1136  N6        18.2050  -11.0980   42.0580 N.pl3  53  A53        -0.1054
   1137  N7        20.9260  -11.3650   40.6320 N.ar   53  A53        -0.2193
   1138  C8        21.8600  -12.0470   40.0120 C.ar   53  A53         0.1816
   1139  N9        21.5670  -13.3830   39.8620 N.ar   53  A53        -0.2693
   1140  OP1       25.3770   -9.6200   37.5440 O.2    53  A53        -0.5172
   1141  OP2       23.2110   -9.3900   38.8510 O.co2  53  A53        -0.4373
   1142  P         22.1860  -13.3480   34.5080 P.3    54  U54         0.2141
   1143  C5'       19.7210  -14.3420   34.9450 C.3    54  U54         0.1812
   1144  O5'       20.6670  -13.2210   35.0160 O.3    54  U54        -0.3114
   1145  C4'       18.5640  -14.1140   35.8880 C.3    54  U54         0.1773
   1146  O4'       19.0680  -13.3990   37.0510 O.3    54  U54        -0.3307
   1147  C3'       17.4490  -13.1780   35.4270 C.3    54  U54         0.1860
   1148  O3'       16.3820  -13.5350   34.5680 O.3    54  U54        -0.3112
   1149  C2'       16.7970  -12.8310   36.7420 C.3    54  U54         0.2309
   1150  O2'       16.1470  -13.9720   37.2820 O.3    54  U54        -0.2156
   1151  C1'       18.0350  -12.5250   37.5590 C.3    54  U54         0.2420
   1152  N1        18.4760  -11.1130   37.4850 N.ar   54  U54        -0.2534
   1153  C2        17.8630  -10.2090   38.3450 C.ar   54  U54         0.3546
   1154  O2        16.9390  -10.5130   39.0770 O.2    54  U54        -0.2443
   1155  N3        18.3860   -8.9410   38.3190 N.ar   54  U54        -0.1530
   1156  C4        19.3960   -8.4680   37.5030 C.ar   54  U54         0.2846
   1157  O4        19.7370   -7.2760   37.5800 O.2    54  U54        -0.2650
   1158  C5        19.9770   -9.4610   36.6400 C.ar   54  U54         0.0814
   1159  C6        19.5210  -10.7210   36.6740 C.ar   54  U54         0.0870
   1160  OP1       22.1810  -14.0720   33.1990 O.2    54  U54        -0.5172
   1161  OP2       22.8120  -11.9910   34.6190 O.co2  54  U54        -0.4373
   1162  P         15.8830  -12.3050   33.6080 P.3    55  G55         0.2141
   1163  C5'       13.8370  -12.9190   35.1650 C.3    55  G55         0.1812
   1164  O5'       14.3510  -12.2100   34.0320 O.3    55  G55        -0.3114
   1165  C4'       13.1670  -11.9690   36.1580 C.3    55  G55         0.1773
   1166  O4'       14.1490  -11.2030   36.9000 O.3    55  G55        -0.3307
   1167  C3'       12.2460  -10.8380   35.7030 C.3    55  G55         0.1860
   1168  O3'       10.9600  -11.1220   35.1360 O.3    55  G55        -0.3112
   1169  C2'       12.0490  -10.1150   37.0270 C.3    55  G55         0.2309
   1170  O2'       11.2640  -10.9310   37.8870 O.3    55  G55        -0.2156
   1171  C1'       13.4750  -10.1300   37.5680 C.3    55  G55         0.2408
   1172  N1        13.9100   -5.1150   38.3650 N.ar   55  G55        -0.1709
   1173  C2        12.9930   -6.0050   38.8920 C.ar   55  G55         0.2606
   1174  N2        12.0820   -5.4880   39.7390 N.pl3  55  G55        -0.0859
   1175  N3        12.9680   -7.3080   38.6060 N.ar   55  G55        -0.1918
   1176  C4        13.9490   -7.6550   37.7480 C.ar   55  G55         0.1723
   1177  C5        14.9050   -6.8510   37.1630 C.ar   55  G55         0.1748
   1178  C6        14.9060   -5.4480   37.4540 C.ar   55  G55         0.3023
   1179  O6        15.6630   -4.5700   37.0180 O.2    55  G55        -0.2633
   1180  N7        15.7180   -7.5930   36.3190 N.ar   55  G55        -0.2173
   1181  C8        15.2670   -8.8120   36.4270 C.ar   55  G55         0.1817
   1182  N9        14.1880   -8.9140   37.2630 N.ar   55  G55        -0.2693
   1183  OP1       16.1410  -12.8250   32.2200 O.2    55  G55        -0.5172
   1184  OP2       16.4670  -10.9760   34.0000 O.co2  55  G55        -0.4373
   1185  P         10.2660   -9.9930   34.1950 P.3    56  G56         0.2141
   1186  C5'        8.9920   -9.2940   36.4280 C.3    56  G56         0.1812
   1187  O5'        8.9340   -9.6220   35.0100 O.3    56  G56        -0.3114
   1188  C4'        8.5040   -7.8730   36.7360 C.3    56  G56         0.1773
   1189  O4'        9.4850   -7.1210   37.5340 O.3    56  G56        -0.3307
   1190  C3'        8.1560   -6.9010   35.6030 C.3    56  G56         0.1860
   1191  O3'        6.8590   -7.0870   35.0730 O.3    56  G56        -0.3112
   1192  C2'        8.1000   -5.5730   36.3670 C.3    56  G56         0.2309
   1193  O2'        6.9210   -5.3370   37.1430 O.3    56  G56        -0.2156
   1194  C1'        9.3390   -5.7080   37.2580 C.3    56  G56         0.2408
   1195  N1        12.3240   -1.6940   36.3260 N.ar   56  G56        -0.1709
   1196  C2        11.1750   -1.7710   37.0630 C.ar   56  G56         0.2606
   1197  N2        10.7810   -0.6400   37.6490 N.pl3  56  G56        -0.0859
   1198  N3        10.4660   -2.8810   37.2210 N.ar   56  G56        -0.1918
   1199  C4        11.0190   -3.9280   36.5770 C.ar   56  G56         0.1723
   1200  C5        12.1500   -3.9510   35.7900 C.ar   56  G56         0.1748
   1201  C6        12.8740   -2.7380   35.5950 C.ar   56  G56         0.3023
   1202  O6        13.8720   -2.5380   34.8950 O.2    56  G56        -0.2633
   1203  N7        12.3610   -5.2220   35.2670 N.ar   56  G56        -0.2173
   1204  C8        11.3770   -5.9370   35.7440 C.ar   56  G56         0.1817
   1205  N9        10.5400   -5.2200   36.5680 N.ar   56  G56        -0.2693
   1206  OP1       10.0060  -10.5940   32.8480 O.2    56  G56        -0.5172
   1207  OP2       11.2000   -8.7860   34.2710 O.co2  56  G56        -0.4373
   1208  P          6.3790   -6.5610   33.6260 P.3    57  U57         0.2141
   1209  C5'        6.4370   -4.1490   32.6310 C.3    57  U57         0.1812
   1210  O5'        6.2030   -4.9900   33.7900 O.3    57  U57        -0.3114
   1211  C4'        6.8190   -2.8170   33.1530 C.3    57  U57         0.1773
   1212  O4'        7.9360   -2.9360   34.0810 O.3    57  U57        -0.3307
   1213  C3'        7.2930   -1.7530   32.2050 C.3    57  U57         0.1860
   1214  O3'        6.1870   -1.1910   31.5510 O.3    57  U57        -0.3112
   1215  C2'        7.8180   -0.7560   33.2320 C.3    57  U57         0.2309
   1216  O2'        6.7980   -0.3010   34.0990 O.3    57  U57        -0.2156
   1217  C1'        8.6480   -1.6820   34.1310 C.3    57  U57         0.2420
   1218  N1        10.0100   -1.8520   33.5750 N.ar   57  U57        -0.2534
   1219  C2        10.7930   -0.7130   33.4300 C.ar   57  U57         0.3546
   1220  O2        10.4490    0.3850   33.8290 O.2    57  U57        -0.2443
   1221  N3        11.9700   -0.9030   32.7500 N.ar   57  U57        -0.1530
   1222  C4        12.4420   -2.0660   32.2050 C.ar   57  U57         0.2846
   1223  O4        13.4930   -2.0490   31.5730 O.2    57  U57        -0.2650
   1224  C5        11.5950   -3.2020   32.4010 C.ar   57  U57         0.0814
   1225  C6        10.4200   -3.0550   33.0360 C.ar   57  U57         0.0870
   1226  OP1        4.9860   -7.1170   33.4380 O.3    57  U57        -0.4373
   1227  OP2        7.4460   -6.7070   32.5180 O.co2  57  U57        -0.5172
   1228  P          5.9740   -1.2650   29.9980 P.3    58  G58         0.2141
   1229  C5'        6.8690    1.0500   29.5650 C.3    58  G58         0.1812
   1230  O5'        7.1300   -0.3240   29.5000 O.3    58  G58        -0.3114
   1231  C4'        8.1210    1.7810   29.6880 C.3    58  G58         0.1773
   1232  O4'        9.0340    0.9670   30.4620 O.3    58  G58        -0.3307
   1233  C3'        8.8180    1.9480   28.3800 C.3    58  G58         0.1860
   1234  O3'        8.2080    3.0040   27.7350 O.3    58  G58        -0.3112
   1235  C2'       10.2490    2.1550   28.8350 C.3    58  G58         0.2309
   1236  O2'       10.3930    3.4690   29.3770 O.3    58  G58        -0.2156
   1237  C1'       10.3380    1.0760   29.9260 C.3    58  G58         0.2408
   1238  N1        14.1590   -1.5890   27.9330 N.ar   58  G58        -0.1709
   1239  C2        14.0140   -0.2320   28.1050 C.ar   58  G58         0.2606
   1240  N2        15.0620    0.5400   27.7650 N.pl3  58  G58        -0.0859
   1241  N3        12.9520    0.3340   28.6200 N.ar   58  G58        -0.1918
   1242  C4        12.0190   -0.5630   28.9790 C.ar   58  G58         0.1723
   1243  C5        12.0480   -1.9380   28.8530 C.ar   58  G58         0.1748
   1244  C6        13.2160   -2.5470   28.2860 C.ar   58  G58         0.3023
   1245  O6        13.4390   -3.7560   28.0470 O.2    58  G58        -0.2633
   1246  N7        10.8400   -2.4990   29.2730 N.ar   58  G58        -0.2173
   1247  C8        10.1280   -1.4720   29.6660 C.ar   58  G58         0.1817
   1248  N9        10.7890   -0.2670   29.5230 N.ar   58  G58        -0.2693
   1249  OP1        4.7060   -0.5670   29.5640 O.2    58  G58        -0.5172
   1250  OP2        6.2830   -2.6580   29.6280 O.co2  58  G58        -0.4373
   1251  P          7.7200    2.7510   26.2280 P.3    59  C59         0.2141
   1252  C5'        9.7410    3.9710   25.2640 C.3    59  C59         0.1812
   1253  O5'        9.0000    2.8070   25.3270 O.3    59  C59        -0.3114
   1254  C4'       11.1400    3.5630   24.9360 C.3    59  C59         0.1773
   1255  O4'       11.6170    2.5890   25.9010 O.3    59  C59        -0.3307
   1256  C3'       11.3280    2.8370   23.6150 C.3    59  C59         0.1860
   1257  O3'       11.3240    3.8130   22.5690 O.3    59  C59        -0.3112
   1258  C2'       12.6860    2.2010   23.8370 C.3    59  C59         0.2309
   1259  O2'       13.6210    3.2530   23.9590 O.3    59  C59        -0.2156
   1260  C1'       12.5620    1.7270   25.2680 C.3    59  C59         0.2420
   1261  N1        12.0760    0.3620   25.3740 N.ar   59  C59        -0.2535
   1262  C2        12.9230   -0.6840   25.0350 C.ar   59  C59         0.3532
   1263  O2        14.0640   -0.4180   24.6150 O.2    59  C59        -0.2443
   1264  N3        12.4710   -1.9680   25.1470 N.ar   59  C59        -0.1739
   1265  C4        11.2410   -2.2050   25.6080 C.ar   59  C59         0.1759
   1266  N4        10.8510   -3.4600   25.7250 N.pl3  59  C59        -0.1070
   1267  C5        10.3760   -1.1560   26.0060 C.ar   59  C59         0.0566
   1268  C6        10.8200    0.1040   25.8540 C.ar   59  C59         0.0850
   1269  OP1        6.9620    3.9460   25.6840 O.2    59  C59        -0.5172
   1270  OP2        7.1450    1.3540   26.1620 O.co2  59  C59        -0.4373
   1271  P         10.5890    3.4940   21.1830 P.3    60  C60         0.2141
   1272  C5'       13.1380    3.1410   20.3350 C.3    60  C60         0.1812
   1273  O5'       11.6840    3.0120   20.1340 O.3    60  C60        -0.3114
   1274  C4'       13.8500    1.9840   19.6560 C.3    60  C60         0.1773
   1275  O4'       13.8950    0.8810   20.5730 O.3    60  C60        -0.3307
   1276  C3'       13.1440    1.3780   18.4490 C.3    60  C60         0.1860
   1277  O3'       13.4700    2.1530   17.2810 O.3    60  C60        -0.3112
   1278  C2'       13.7080   -0.0400   18.4000 C.3    60  C60         0.2309
   1279  O2'       14.8790   -0.1690   17.6070 O.3    60  C60        -0.2156
   1280  C1'       14.0670   -0.3100   19.8630 C.3    60  C60         0.2420
   1281  N1        13.2090   -1.2910   20.4890 N.ar   60  C60        -0.2535
   1282  C2        13.4370   -2.6610   20.2620 C.ar   60  C60         0.3532
   1283  O2        14.3890   -3.0040   19.5250 O.2    60  C60        -0.2443
   1284  N3        12.5870   -3.5720   20.8170 N.ar   60  C60        -0.1739
   1285  C4        11.5610   -3.1550   21.5690 C.ar   60  C60         0.1759
   1286  N4        10.7840   -4.0720   22.1300 N.pl3  60  C60        -0.1070
   1287  C5        11.3130   -1.7740   21.8050 C.ar   60  C60         0.0566
   1288  C6        12.1350   -0.8830   21.2250 C.ar   60  C60         0.0850
   1289  OP1       10.0990    4.8090   20.6950 O.2    60  C60        -0.5172
   1290  OP2        9.6770    2.3520   21.4270 O.co2  60  C60        -0.4373
   1291  P         12.4310    2.2900   16.0660 P.3    61  A61         0.2141
   1292  C5'       13.6920    4.4490   15.2490 C.3    61  A61         0.1812
   1293  O5'       13.2950    3.1160   15.0040 O.3    61  A61        -0.3114
   1294  C4'       14.3510    5.0630   14.0460 C.3    61  A61         0.1773
   1295  O4'       13.4790    4.9570   12.9010 O.3    61  A61        -0.3307
   1296  C3'       14.6060    6.5600   14.1900 C.3    61  A61         0.1860
   1297  O3'       15.8840    6.7460   14.7470 O.3    61  A61        -0.3112
   1298  C2'       14.6310    7.0560   12.7490 C.3    61  A61         0.2309
   1299  O2'       15.9250    7.0530   12.1350 O.3    61  A61        -0.2156
   1300  C1'       13.6270    6.1170   12.0820 C.3    61  A61         0.2408
   1301  N1        11.0740    9.9040    9.8170 N.ar   61  A61        -0.2040
   1302  C2        12.3620    9.5360    9.7830 C.ar   61  A61         0.2016
   1303  N3        12.9760    8.5630   10.4530 N.ar   61  A61        -0.2048
   1304  C4        12.0940    7.8770   11.1980 C.ar   61  A61         0.1692
   1305  C5        10.7450    8.1450   11.3480 C.ar   61  A61         0.1518
   1306  C6        10.2240    9.2110   10.6150 C.ar   61  A61         0.1919
   1307  N6         8.9440    9.5890   10.6760 N.pl3  61  A61        -0.1054
   1308  N7        10.1620    7.2500   12.2210 N.ar   61  A61        -0.2193
   1309  C8        11.1420    6.4390   12.5330 C.ar   61  A61         0.1816
   1310  N9        12.3350    6.7570   11.9400 N.ar   61  A61        -0.2693
   1311  OP1       11.2680    3.2040   16.2650 O.3    61  A61        -0.4373
   1312  OP2       12.1200    0.8350   15.7550 O.co2  61  A61        -0.5172
   1313  P         15.7650    7.5930   16.0570 P.3    62  A62         0.2141
   1314  C5'       17.0940    9.5200   14.9310 C.3    62  A62         0.1812
   1315  O5'       15.9000    9.0940   15.5520 O.3    62  A62        -0.3114
   1316  C4'       16.7030   10.3810   13.7980 C.3    62  A62         0.1773
   1317  O4'       15.5010    9.8410   13.2160 O.3    62  A62        -0.3307
   1318  C3'       16.2710   11.7680   14.2050 C.3    62  A62         0.1860
   1319  O3'       17.4070   12.5290   14.6200 O.3    62  A62        -0.3112
   1320  C2'       15.4500   12.2040   12.9900 C.3    62  A62         0.2309
   1321  O2'       16.1780   12.5770   11.8570 O.3    62  A62        -0.2156
   1322  C1'       14.7860   10.8910   12.5880 C.3    62  A62         0.2408
   1323  N1        10.0720   12.6850   11.6740 N.ar   62  A62        -0.2040
   1324  C2        11.2800   13.0270   11.2100 C.ar   62  A62         0.2016
   1325  N3        12.4790   12.5250   11.5170 N.ar   62  A62        -0.2048
   1326  C4        12.3680   11.5620   12.4460 C.ar   62  A62         0.1692
   1327  C5        11.2030   11.1090   13.0390 C.ar   62  A62         0.1518
   1328  C6         9.9940   11.7360   12.6380 C.ar   62  A62         0.1919
   1329  N6         8.7860   11.4470   13.1540 N.pl3  62  A62        -0.1054
   1330  N7        11.4750   10.0720   13.9220 N.ar   62  A62        -0.2193
   1331  C8        12.7760    9.9300   13.8490 C.ar   62  A62         0.1816
   1332  N9        13.3790   10.7990   12.9740 N.ar   62  A62        -0.2693
   1333  OP1       16.9710    7.2820   16.9430 O.3    62  A62        -0.4373
   1334  OP2       14.3670    7.4920   16.5770 O.co2  62  A62        -0.5172
   1335  P         17.1680   14.0200   15.2460 P.3    63  U63         0.2141
   1336  C5'       17.5600   12.9590   17.6740 C.3    63  U63         0.1812
   1337  O5'       16.7730   13.7810   16.7820 O.3    63  U63        -0.3114
   1338  C4'       17.4110   13.4450   19.1030 C.3    63  U63         0.1773
   1339  O4'       17.9650   14.7880   19.2400 O.3    63  U63        -0.3307
   1340  C3'       15.9860   13.5490   19.6330 C.3    63  U63         0.1860
   1341  O3'       15.9390   13.2400   21.0410 O.3    63  U63        -0.3112
   1342  C2'       15.6560   15.0050   19.3670 C.3    63  U63         0.2309
   1343  O2'       14.7580   15.5550   20.2790 O.3    63  U63        -0.2156
   1344  C1'       16.9770   15.6730   19.6890 C.3    63  U63         0.2420
   1345  N1        17.0770   16.8810   18.8960 N.ar   63  U63        -0.2534
   1346  C2        17.0730   18.1070   19.5400 C.ar   63  U63         0.3546
   1347  O2        17.0840   18.2190   20.7520 O.2    63  U63        -0.2443
   1348  N3        17.1200   19.1950   18.7030 N.ar   63  U63        -0.1530
   1349  C4        17.1300   19.1820   17.3210 C.ar   63  U63         0.2846
   1350  O4        17.1320   20.2440   16.7020 O.2    63  U63        -0.2650
   1351  C5        17.1320   17.8680   16.7370 C.ar   63  U63         0.0814
   1352  C6        17.1090   16.7940   17.5260 C.ar   63  U63         0.0870
   1353  OP1       15.9970   14.6870   14.5130 O.2    63  U63        -0.5172
   1354  OP2       18.4720   14.7070   15.2980 O.co2  63  U63        -0.4373
   1355  P         15.6980   11.6720   21.4610 P.3    64  U64         0.2141
   1356  C5'       13.3750   12.4120   22.3210 C.3    64  U64         0.1812
   1357  O5'       14.1070   11.7070   21.3550 O.3    64  U64        -0.3114
   1358  C4'       11.9650   12.4640   21.8790 C.3    64  U64         0.1773
   1359  O4'       11.1850   13.0890   22.9430 O.3    64  U64        -0.3307
   1360  C3'       11.7520   13.3050   20.6630 C.3    64  U64         0.1860
   1361  O3'       10.6310   12.7930   20.0370 O.3    64  U64        -0.3112
   1362  C2'       11.4940   14.6790   21.2720 C.3    64  U64         0.2309
   1363  O2'       10.6410   15.3700   20.4360 O.3    64  U64        -0.2156
   1364  C1'       10.6800   14.3180   22.5140 C.3    64  U64         0.2420
   1365  N1        10.7560   15.2430   23.6550 N.ar   64  U64        -0.2534
   1366  C2         9.6910   16.0910   23.8820 C.ar   64  U64         0.3546
   1367  O2         8.7190   16.1530   23.1360 O.2    64  U64        -0.2443
   1368  N3         9.8240   16.8960   24.9900 N.ar   64  U64        -0.1530
   1369  C4        10.8750   16.9300   25.8700 C.ar   64  U64         0.2846
   1370  O4        10.8260   17.6800   26.8420 O.2    64  U64        -0.2650
   1371  C5        11.9430   16.0450   25.5520 C.ar   64  U64         0.0814
   1372  C6        11.8360   15.2290   24.5020 C.ar   64  U64         0.0870
   1373  OP1       16.1970   11.3900   22.8530 O.3    64  U64        -0.4373
   1374  OP2       16.1240   10.7510   20.3040 O.co2  64  U64        -0.5172
   1375  P         10.6280   12.2640   18.5520 P.3    65  C65         0.2141
   1376  C5'       12.7730   12.9530   17.1440 C.3    65  C65         0.1812
   1377  O5'       11.5470   13.3300   17.8110 O.3    65  C65        -0.3114
   1378  C4'       13.0300   13.9570   16.0660 C.3    65  C65         0.1773
   1379  O4'       12.1560   13.6210   14.9610 O.3    65  C65        -0.3307
   1380  C3'       12.6290   15.3980   16.4150 C.3    65  C65         0.1860
   1381  O3'       13.5680   16.1630   17.1770 O.3    65  C65        -0.3112
   1382  C2'       12.3340   16.0170   15.0500 C.3    65  C65         0.2309
   1383  O2'       13.4740   16.6680   14.5080 O.3    65  C65        -0.2156
   1384  C1'       11.8070   14.8050   14.2580 C.3    65  C65         0.2420
   1385  N1        10.3760   14.8350   14.0980 N.ar   65  C65        -0.2535
   1386  C2         9.8740   15.4920   12.9940 C.ar   65  C65         0.3532
   1387  O2        10.6770   15.9670   12.1800 O.2    65  C65        -0.2443
   1388  N3         8.5260   15.5600   12.8100 N.ar   65  C65        -0.1739
   1389  C4         7.7080   15.0210   13.7100 C.ar   65  C65         0.1759
   1390  N4         6.3990   15.0800   13.4790 N.pl3  65  C65        -0.1070
   1391  C5         8.2010   14.3120   14.8420 C.ar   65  C65         0.0566
   1392  C6         9.5310   14.2650   15.0090 C.ar   65  C65         0.0850
   1393  OP1        9.2730   12.4550   17.9500 O.2    65  C65        -0.5172
   1394  OP2       11.2680   10.9220   18.4910 O.co2  65  C65        -0.4373
   1395  P         12.9930   17.2720   18.1900 P.3    66  C66         0.2141
   1396  C5'       13.5970   19.2420   16.5780 C.3    66  C66         0.1812
   1397  O5'       12.5560   18.4770   17.2450 O.3    66  C66        -0.3114
   1398  C4'       12.9850   20.2590   15.6790 C.3    66  C66         0.1773
   1399  O4'       12.1600   19.5960   14.6790 O.3    66  C66        -0.3307
   1400  C3'       12.0210   21.2100   16.3370 C.3    66  C66         0.1860
   1401  O3'       12.7320   22.1210   17.1160 O.3    66  C66        -0.3112
   1402  C2'       11.2380   21.7290   15.1300 C.3    66  C66         0.2309
   1403  O2'       11.9320   22.5800   14.2490 O.3    66  C66        -0.2156
   1404  C1'       11.0650   20.4370   14.3360 C.3    66  C66         0.2420
   1405  N1         9.7990   19.7360   14.6180 N.ar   66  C66        -0.2535
   1406  C2         8.6180   20.3980   14.2890 C.ar   66  C66         0.3532
   1407  O2         8.6920   21.5330   13.8060 O.2    66  C66        -0.2443
   1408  N3         7.4270   19.7820   14.4920 N.ar   66  C66        -0.1739
   1409  C4         7.3920   18.5710   15.0520 C.ar   66  C66         0.1759
   1410  N4         6.1910   18.0030   15.2420 N.pl3  66  C66        -0.1070
   1411  C5         8.5870   17.8790   15.4290 C.ar   66  C66         0.0566
   1412  C6         9.7560   18.5040   15.2140 C.ar   66  C66         0.0850
   1413  OP1       14.1170   17.6470   19.1530 O.3    66  C66        -0.4373
   1414  OP2       11.7550   16.7430   18.7040 O.co2  66  C66        -0.5172
   1415  P         12.0100   22.9270   18.2660 P.3    67  U67         0.2141
   1416  C5'       10.4680   24.7070   17.1460 C.3    67  U67         0.1812
   1417  O5'       10.6040   23.4170   17.7140 O.3    67  U67        -0.3114
   1418  C4'        9.0640   24.8390   16.6690 C.3    67  U67         0.1773
   1419  O4'        8.5940   23.5280   16.2600 O.3    67  U67        -0.3307
   1420  C3'        8.0760   25.2290   17.7420 C.3    67  U67         0.1860
   1421  O3'        8.1850   26.6210   17.9040 O.3    67  U67        -0.3112
   1422  C2'        6.7480   24.7300   17.1640 C.3    67  U67         0.2309
   1423  O2'        6.0910   25.6190   16.2660 O.3    67  U67        -0.2156
   1424  C1'        7.1870   23.4620   16.4220 C.3    67  U67         0.2420
   1425  N1         6.9050   22.2050   17.1060 N.ar   67  U67        -0.2534
   1426  C2         5.6830   21.5660   16.8950 C.ar   67  U67         0.3546
   1427  O2         4.7880   22.0310   16.2100 O.2    67  U67        -0.2443
   1428  N3         5.5570   20.3480   17.5060 N.ar   67  U67        -0.1530
   1429  C4         6.5010   19.6870   18.2460 C.ar   67  U67         0.2846
   1430  O4         6.2270   18.5780   18.7250 O.2    67  U67        -0.2650
   1431  C5         7.7400   20.4000   18.4020 C.ar   67  U67         0.0814
   1432  C6         7.9010   21.5920   17.8130 C.ar   67  U67         0.0870
   1433  OP1       12.9180   24.1420   18.5390 O.2    67  U67        -0.5172
   1434  OP2       11.6950   21.9360   19.3380 O.co2  67  U67        -0.4373
   1435  P          8.2850   27.2980   19.3420 P.3    68  G68         0.2141
   1436  C5'        5.8640   28.2950   18.5860 C.3    68  G68         0.1812
   1437  O5'        6.8040   27.8340   19.6140 O.3    68  G68        -0.3114
   1438  C4'        4.4320   28.1720   19.1040 C.3    68  G68         0.1773
   1439  O4'        3.9410   26.8460   18.7760 O.3    68  G68        -0.3307
   1440  C3'        4.3270   28.3300   20.6250 C.3    68  G68         0.1860
   1441  O3'        4.0360   29.6770   21.0010 O.3    68  G68        -0.3112
   1442  C2'        3.3980   27.2040   21.1070 C.3    68  G68         0.2309
   1443  O2'        2.0770   27.5430   21.4740 O.3    68  G68        -0.2156
   1444  C1'        3.3780   26.2400   19.9190 C.3    68  G68         0.2408
   1445  N1         2.8200   21.2260   20.0090 N.ar   68  G68        -0.1709
   1446  C2         1.9220   22.2130   19.6800 C.ar   68  G68         0.2606
   1447  N2         0.7070   21.8050   19.2860 N.pl3  68  G68        -0.0859
   1448  N3         2.2080   23.4990   19.6760 N.ar   68  G68        -0.1918
   1449  C4         3.4760   23.7370   20.0590 C.ar   68  G68         0.1723
   1450  C5         4.4620   22.8330   20.3850 C.ar   68  G68         0.1748
   1451  C6         4.1480   21.4390   20.3660 C.ar   68  G68         0.3023
   1452  O6         4.8760   20.4680   20.6570 O.2    68  G68        -0.2633
   1453  N7         5.6430   23.4890   20.7090 N.ar   68  G68        -0.2173
   1454  C8         5.3550   24.7580   20.5770 C.ar   68  G68         0.1817
   1455  N9         4.0600   24.9740   20.1680 N.ar   68  G68        -0.2693
   1456  OP1        9.2820   28.4290   19.2420 O.2    68  G68        -0.5172
   1457  OP2        8.4480   26.2720   20.3880 O.co2  68  G68        -0.4373
   1458  P          2.8320   30.6460   20.4200 P.3    69  C69         0.2141
   1459  C5'        2.1390   31.2920   22.9770 C.3    69  C69         0.1812
   1460  O5'        2.7890   31.6270   21.7030 O.3    69  C69        -0.3114
   1461  C4'        3.1000   31.3630   24.1730 C.3    69  C69         0.1773
   1462  O4'        3.9420   30.1900   24.2120 O.3    69  C69        -0.3307
   1463  C3'        4.1660   32.4320   24.2080 C.3    69  C69         0.1860
   1464  O3'        3.7230   33.6840   24.6330 O.3    69  C69        -0.3112
   1465  C2'        5.0700   31.9320   25.3240 C.3    69  C69         0.2309
   1466  O2'        4.5290   32.2650   26.5690 O.3    69  C69        -0.2156
   1467  C1'        5.0400   30.4250   25.0840 C.3    69  C69         0.2420
   1468  N1         6.2650   29.9180   24.4400 N.ar   69  C69        -0.2535
   1469  C2         7.5030   30.1340   25.0700 C.ar   69  C69         0.3532
   1470  O2         7.5280   30.7720   26.1310 O.2    69  C69        -0.2443
   1471  N3         8.6370   29.6500   24.4960 N.ar   69  C69        -0.1739
   1472  C4         8.5690   29.0140   23.3220 C.ar   69  C69         0.1759
   1473  N4         9.7110   28.6180   22.7570 N.pl3  69  C69        -0.1070
   1474  C5         7.3210   28.7830   22.6580 C.ar   69  C69         0.0566
   1475  C6         6.2080   29.2700   23.2370 C.ar   69  C69         0.0850
   1476  OP1        1.4120   30.1170   20.2430 O.3    69  C69        -0.4373
   1477  OP2        3.4770   31.3010   19.2750 O.co2  69  C69        -0.5172
   1478  P          4.4240   34.9600   23.9730 P.3    70  A70         0.2141
   1479  C5'        5.7870   35.4090   26.1410 C.3    70  A70         0.1812
   1480  O5'        5.8210   35.1260   24.7630 O.3    70  A70        -0.3114
   1481  C4'        7.1090   35.2190   26.7800 C.3    70  A70         0.1773
   1482  O4'        7.4890   33.8140   26.8230 O.3    70  A70        -0.3307
   1483  C3'        8.2850   35.8900   26.1150 C.3    70  A70         0.1860
   1484  O3'        8.3020   37.2260   26.4870 O.3    70  A70        -0.3112
   1485  C2'        9.4400   35.1840   26.8280 C.3    70  A70         0.2309
   1486  O2'        9.8270   35.7430   28.0710 O.3    70  A70        -0.2156
   1487  C1'        8.9260   33.7270   26.8790 C.3    70  A70         0.2408
   1488  N1        12.9680   31.3580   24.6530 N.ar   70  A70        -0.2040
   1489  C2        12.8040   31.9330   25.8530 C.ar   70  A70         0.2016
   1490  N3        11.7100   32.4920   26.3870 N.ar   70  A70        -0.2048
   1491  C4        10.6940   32.4950   25.5060 C.ar   70  A70         0.1692
   1492  C5        10.6940   31.9250   24.2410 C.ar   70  A70         0.1518
   1493  C6        11.9070   31.3140   23.8090 C.ar   70  A70         0.1919
   1494  N6        12.0730   30.7570   22.6060 N.pl3  70  A70        -0.1054
   1495  N7         9.4400   32.0520   23.6450 N.ar   70  A70        -0.2193
   1496  C8         8.7330   32.7100   24.5320 C.ar   70  A70         0.1816
   1497  N9         9.4120   32.9620   25.7060 N.ar   70  A70        -0.2693
   1498  OP1        3.3550   35.9420   24.2850 O.3    70  A70        -0.4373
   1499  OP2        4.7730   34.7450   22.5390 O.co2  70  A70        -0.5172
   1500  P          9.2450   38.2640   25.7130 P.3    71  G71         0.2141
   1501  C5'       11.2720   38.6300   27.3960 C.3    71  G71         0.1812
   1502  O5'       10.8000   38.1090   26.1600 O.3    71  G71        -0.3114
   1503  C4'       12.5570   38.0260   27.8620 C.3    71  G71         0.1773
   1504  O4'       12.5290   36.5690   27.8500 O.3    71  G71        -0.3307
   1505  C3'       13.7340   38.3470   27.0000 C.3    71  G71         0.1860
   1506  O3'       14.3060   39.5810   27.2290 O.3    71  G71        -0.3112
   1507  C2'       14.7470   37.3050   27.4550 C.3    71  G71         0.2309
   1508  O2'       15.5520   37.6780   28.5490 O.3    71  G71        -0.2156
   1509  C1'       13.8540   36.0600   27.5640 C.3    71  G71         0.2408
   1510  N1        16.4080   33.2810   24.0530 N.ar   71  G71        -0.1709
   1511  C2        16.8760   33.8110   25.2210 C.ar   71  G71         0.2606
   1512  N2        18.1600   33.5570   25.4990 N.pl3  71  G71        -0.0859
   1513  N3        16.1420   34.5420   26.0540 N.ar   71  G71        -0.1918
   1514  C4        14.8630   34.6590   25.6260 C.ar   71  G71         0.1723
   1515  C5        14.2980   34.1530   24.4740 C.ar   71  G71         0.1748
   1516  C6        15.0990   33.3720   23.6000 C.ar   71  G71         0.3023
   1517  O6        14.7720   32.8240   22.5230 O.2    71  G71        -0.2633
   1518  N7        12.9480   34.4730   24.4040 N.ar   71  G71        -0.2173
   1519  C8        12.7170   35.1700   25.4870 C.ar   71  G71         0.1817
   1520  N9        13.8200   35.2930   26.2970 N.ar   71  G71        -0.2693
   1521  OP1        8.6380   39.5820   26.1340 O.3    71  G71        -0.4373
   1522  OP2        9.0370   37.8490   24.2880 O.co2  71  G71        -0.5172
   1523  P         14.6090   40.5940   26.0730 P.3    72  A72         0.2141
   1524  C5'       17.2150   40.5370   26.5290 C.3    72  A72         0.1812
   1525  O5'       16.1000   40.2170   25.6710 O.3    72  A72        -0.3114
   1526  C4'       18.3920   39.6970   26.1120 C.3    72  A72         0.1773
   1527  O4'       18.0850   38.2950   26.3300 O.3    72  A72        -0.3307
   1528  C3'       18.6790   39.7610   24.6260 C.3    72  A72         0.1860
   1529  O3'       19.4700   40.8820   24.4590 O.3    72  A72        -0.3112
   1530  C2'       19.3530   38.4350   24.3690 C.3    72  A72         0.2309
   1531  O2'       20.5620   38.2660   25.0230 O.3    72  A72        -0.2156
   1532  C1'       18.4680   37.5360   25.1920 C.3    72  A72         0.2408
   1533  N1        16.6350   35.3360   21.0190 N.ar   72  A72        -0.2040
   1534  C2        17.8540   35.3420   21.5810 C.ar   72  A72         0.2016
   1535  N3        18.2570   35.9310   22.6870 N.ar   72  A72        -0.2048
   1536  C4        17.2420   36.5810   23.2620 C.ar   72  A72         0.1692
   1537  C5        15.9260   36.6170   22.8410 C.ar   72  A72         0.1518
   1538  C6        15.6270   35.9760   21.6480 C.ar   72  A72         0.1919
   1539  N6        14.3980   35.9320   21.1100 N.pl3  72  A72        -0.1054
   1540  N7        15.1610   37.3860   23.6980 N.ar   72  A72        -0.2193
   1541  C8        16.0200   37.8000   24.5950 C.ar   72  A72         0.1816
   1542  N9        17.2820   37.2980   24.4220 N.ar   72  A72        -0.2693
   1543  OP1       14.6120   42.0260   26.5630 O.3    72  A72        -0.4373
   1544  OP2       13.7120   40.1620   24.9780 O.co2  72  A72        -0.5172
   1545  P         18.9780   41.8210   23.3020 P.3    73  G73         0.2141
   1546  C5'       21.3110   41.2370   22.1880 C.3    73  G73         0.1812
   1547  O5'       19.8660   41.3840   22.0560 O.3    73  G73        -0.3114
   1548  C4'       21.8650   40.4160   21.0350 C.3    73  G73         0.1773
   1549  O4'       21.4220   39.0070   21.0550 O.3    73  G73        -0.3307
   1550  C3'       21.3890   40.8520   19.6890 C.3    73  G73         0.1860
   1551  O3'       22.0610   42.0680   19.4490 O.3    73  G73        -0.3112
   1552  C2'       21.8020   39.6550   18.8490 C.3    73  G73         0.2309
   1553  O2'       23.2200   39.6700   18.7930 O.3    73  G73        -0.2156
   1554  C1'       21.3470   38.5140   19.7390 C.3    73  G73         0.2408
   1555  N1        18.2090   35.9730   16.7070 N.ar   73  G73        -0.1709
   1556  C2        19.5700   36.1360   16.6250 C.ar   73  G73         0.2606
   1557  N2        20.1610   35.5690   15.5720 N.pl3  73  G73        -0.0859
   1558  N3        20.2890   36.8400   17.4930 N.ar   73  G73        -0.1918
   1559  C4        19.5160   37.4120   18.4430 C.ar   73  G73         0.1723
   1560  C5        18.1500   37.3150   18.6160 C.ar   73  G73         0.1748
   1561  C6        17.3930   36.5290   17.6850 C.ar   73  G73         0.3023
   1562  O6        16.1720   36.3260   17.6470 O.2    73  G73        -0.2633
   1563  N7        17.7500   37.9820   19.7720 N.ar   73  G73        -0.2173
   1564  C8        18.8630   38.4560   20.2670 C.ar   73  G73         0.1817
   1565  N9        19.9650   38.1670   19.4910 N.ar   73  G73        -0.2693
   1566  OP1       19.5810   43.0840   23.7600 O.3    73  G73        -0.4373
   1567  OP2       17.5170   41.7340   22.9940 O.co2  73  G73        -0.5172
   1568  P         21.2330   43.1470   18.6330 P.3    74  G74         0.2141
   1569  C5'       21.9540   42.0950   16.3260 C.3    74  G74         0.1812
   1570  O5'       20.9540   42.3440   17.2940 O.3    74  G74        -0.3114
   1571  C4'       21.2600   41.4310   15.1920 C.3    74  G74         0.1773
   1572  O4'       20.5220   40.3460   15.7480 O.3    74  G74        -0.3307
   1573  C3'       20.1100   42.2190   14.5700 C.3    74  G74         0.1860
   1574  O3'       20.4840   43.2560   13.7140 O.3    74  G74        -0.3112
   1575  C2'       19.3320   41.1350   13.8580 C.3    74  G74         0.2309
   1576  O2'       19.8660   40.7630   12.6170 O.3    74  G74        -0.2156
   1577  C1'       19.4950   39.9910   14.8330 C.3    74  G74         0.2408
   1578  N1        14.7770   38.1570   15.1450 N.ar   74  G74        -0.1709
   1579  C2        15.6530   38.0610   14.0960 C.ar   74  G74         0.2606
   1580  N2        15.1800   37.4460   12.9820 N.pl3  74  G74        -0.0859
   1581  N3        16.8760   38.5950   14.1070 N.ar   74  G74        -0.1918
   1582  C4        17.1470   39.2160   15.2850 C.ar   74  G74         0.1723
   1583  C5        16.3640   39.2950   16.4060 C.ar   74  G74         0.1748
   1584  C6        15.0550   38.7590   16.3680 C.ar   74  G74         0.3023
   1585  O6        14.2040   38.7420   17.2690 O.2    74  G74        -0.2633
   1586  N7        17.0220   39.9790   17.4160 N.ar   74  G74        -0.2173
   1587  C8        18.1840   40.2690   16.9070 C.ar   74  G74         0.1817
   1588  N9        18.3080   39.8750   15.6090 N.ar   74  G74        -0.2693
   1589  OP1       22.1510   44.2840   18.3450 O.2    74  G74        -0.5172
   1590  OP2       19.8950   43.2930   19.3270 O.co2  74  G74        -0.4373
   1591  P         19.8470   44.6720   14.0250 P.3    75  A75         0.2141
   1592  C5'       17.5980   45.7070   13.0740 C.3    75  A75         0.1812
   1593  O5'       18.5180   44.6140   13.1400 O.3    75  A75        -0.3114
   1594  C4'       16.4130   45.2340   12.3150 C.3    75  A75         0.1773
   1595  O4'       16.6150   45.6020   10.9180 O.3    75  A75        -0.3307
   1596  C3'       16.2560   43.7240   12.3040 C.3    75  A75         0.1860
   1597  O3'       15.6480   43.2320   13.4940 O.3    75  A75        -0.3112
   1598  C2'       15.6510   43.4800   10.9150 C.3    75  A75         0.2309
   1599  O2'       14.3360   43.9370   10.7050 O.3    75  A75        -0.2156
   1600  C1'       16.4510   44.4720   10.0700 C.3    75  A75         0.2408
   1601  N1        18.9980   41.7030    6.5240 N.ar   75  A75        -0.2040
   1602  C2        17.6990   41.9860    6.7000 C.ar   75  A75         0.2016
   1603  N3        17.1070   42.6850    7.6710 N.ar   75  A75        -0.2048
   1604  C4        18.0190   43.2000    8.5130 C.ar   75  A75         0.1692
   1605  C5        19.3950   43.0500    8.4380 C.ar   75  A75         0.1518
   1606  C6        19.8950   42.2350    7.3800 C.ar   75  A75         0.1919
   1607  N6        21.1950   41.9800    7.1730 N.pl3  75  A75        -0.1054
   1608  N7        20.0250   43.7820    9.4420 N.ar   75  A75        -0.2193
   1609  C8        19.0320   44.3290   10.1020 C.ar   75  A75         0.1816
   1610  N9        17.7860   44.0160    9.5960 N.ar   75  A75        -0.2693
   1611  OP1       20.8260   45.6910   13.4340 O.2    75  A75        -0.5172
   1612  OP2       19.4920   44.6600   15.5170 O.co2  75  A75        -0.4373
   1613  P         14.3990   42.1460   13.5010 P.3    76  A76         0.2141
   1614  C5'       12.8650   40.7200   11.8200 C.3    76  A76         0.1812
   1615  O5'       14.0210   41.5540   12.0700 O.3    76  A76        -0.3114
   1616  C4'       12.9590   40.1200   10.4130 C.3    76  A76         0.1773
   1617  O4'       14.0510   40.7210    9.6110 O.3    76  A76        -0.3307
   1618  C3'       13.2390   38.6380   10.3780 C.3    76  A76         0.1860
   1619  O3'       11.9980   38.0540   10.4240 O.3    76  A76        -0.3112
   1620  C2'       13.8780   38.4450    9.0030 C.3    76  A76         0.2309
   1621  O2'       12.9590   38.4740    7.9510 O.3    76  A76        -0.2156
   1622  C1'       14.7130   39.7190    8.8380 C.3    76  A76         0.2408
   1623  N1        19.7220   38.7490    7.6940 N.ar   76  A76        -0.2040
   1624  C2        18.5930   38.5460    6.9870 C.ar   76  A76         0.2016
   1625  N3        17.3220   38.7720    7.3360 N.ar   76  A76        -0.2048
   1626  C4        17.2530   39.2500    8.5940 C.ar   76  A76         0.1692
   1627  C5        18.3210   39.4720    9.4540 C.ar   76  A76         0.1518
   1628  C6        19.6150   39.1740    8.9670 C.ar   76  A76         0.1919
   1629  N6        20.7220   39.2540    9.7020 N.pl3  76  A76        -0.1054
   1630  N7        17.8750   39.9770   10.6640 N.ar   76  A76        -0.2193
   1631  C8        16.5720   40.0310   10.5270 C.ar   76  A76         0.1816
   1632  N9        16.1270   39.6520    9.2850 N.ar   76  A76        -0.2693
   1633  OP1       13.2500   43.0220   13.8660 O.2    76  A76        -0.5172
   1634  OP2       14.6760   40.9590   14.3190 O.co2  76  A76        -0.4373
   1635  P         11.9970   36.6510   11.1060 P.3    77  A77         0.2141
   1636  C5'       12.1820   35.2840    8.8680 C.3    77  A77         0.1812
   1637  O5'       12.7900   35.8270   10.0160 O.3    77  A77        -0.3114
   1638  C4'       13.3000   34.6210    8.1130 C.3    77  A77         0.1773
   1639  O4'       14.4030   35.5590    7.8780 O.3    77  A77        -0.3307
   1640  C3'       13.9690   33.4300    8.8030 C.3    77  A77         0.1860
   1641  O3'       13.2450   32.2730    8.4260 O.3    77  A77        -0.3112
   1642  C2'       15.2910   33.3590    8.0520 C.3    77  A77         0.2309
   1643  O2'       15.1690   32.7420    6.7830 O.3    77  A77        -0.2156
   1644  C1'       15.6280   34.8440    7.8640 C.3    77  A77         0.2408
   1645  N1        20.2560   36.2750    9.7070 N.ar   77  A77        -0.2040
   1646  C2        19.8960   35.7980    8.5080 C.ar   77  A77         0.2016
   1647  N3        18.6760   35.4470    8.0650 N.ar   77  A77        -0.2048
   1648  C4        17.7520   35.6110    9.0310 C.ar   77  A77         0.1692
   1649  C5        17.9810   36.0390   10.3230 C.ar   77  A77         0.1518
   1650  C6        19.3090   36.3890   10.6620 C.ar   77  A77         0.1919
   1651  N6        19.6730   36.8040   11.8740 N.pl3  77  A77        -0.1054
   1652  N7        16.8050   36.0130   11.0600 N.ar   77  A77        -0.2193
   1653  C8        15.9070   35.5840   10.2070 C.ar   77  A77         0.1816
   1654  N9        16.4060   35.3320    8.9640 N.ar   77  A77        -0.2693
   1655  OP1       10.6710   35.9760   11.1870 O.2    77  A77        -0.5172
   1656  OP2       12.8950   36.7490   12.3130 O.co2  77  A77        -0.4373
   1657  P         13.1730   31.0750    9.4500 P.3    78  C78         0.2141
   1658  C5'       15.2330   30.0500   10.6830 C.3    78  C78         0.1812
   1659  O5'       14.7150   30.7810    9.6180 O.3    78  C78        -0.3114
   1660  C4'       16.6250   30.4950   10.7410 C.3    78  C78         0.1773
   1661  O4'       16.6110   31.9410   10.6470 O.3    78  C78        -0.3307
   1662  C3'       17.3120   30.1900   12.0460 C.3    78  C78         0.1860
   1663  O3'       17.8020   28.8700   11.9930 O.3    78  C78        -0.3112
   1664  C2'       18.3290   31.3380   12.1650 C.3    78  C78         0.2309
   1665  O2'       19.5700   31.2840   11.4820 O.3    78  C78        -0.2156
   1666  C1'       17.5030   32.5070   11.6350 C.3    78  C78         0.2420
   1667  N1        16.7260   33.2150   12.7170 N.ar   78  C78        -0.2535
   1668  C2        17.4240   34.0740   13.5680 C.ar   78  C78         0.3532
   1669  O2        18.6410   34.2040   13.4120 O.2    78  C78        -0.2443
   1670  N3        16.7510   34.7510   14.5340 N.ar   78  C78        -0.1739
   1671  C4        15.4370   34.5540   14.6940 C.ar   78  C78         0.1759
   1672  N4        14.8150   35.2310   15.6630 N.pl3  78  C78        -0.1070
   1673  C5        14.6960   33.6900   13.8310 C.ar   78  C78         0.0566
   1674  C6        15.3750   33.0480   12.8630 C.ar   78  C78         0.0850
   1675  OP1       12.4020   29.9020    8.8530 O.2    78  C78        -0.5172
   1676  OP2       12.8390   31.6210   10.7610 O.co2  78  C78        -0.4373
   1677  P         17.7510   28.0000   13.3360 P.3    79  G79         0.2141
   1678  C5'       20.0760   28.9240   13.8500 C.3    79  G79         0.1812
   1679  O5'       18.7860   28.6920   14.3320 O.3    79  G79        -0.3114
   1680  C4'       20.9050   29.6030   14.8770 C.3    79  G79         0.1773
   1681  O4'       20.6070   31.0340   14.8390 O.3    79  G79        -0.3307
   1682  C3'       20.6200   29.2020   16.3090 C.3    79  G79         0.1860
   1683  O3'       21.3710   28.0650   16.6450 O.3    79  G79        -0.3112
   1684  C2'       21.1700   30.4120   17.0380 C.3    79  G79         0.2309
   1685  O2'       22.5790   30.3870   16.9640 O.3    79  G79        -0.2156
   1686  C1'       20.6290   31.5510   16.1630 C.3    79  G79         0.2408
   1687  N1        18.0420   34.1150   19.6150 N.ar   79  G79        -0.1709
   1688  C2        19.3990   34.0030   19.4190 C.ar   79  G79         0.2606
   1689  N2        20.1930   34.6610   20.2780 N.pl3  79  G79        -0.0859
   1690  N3        19.9410   33.3330   18.4200 N.ar   79  G79        -0.1918
   1691  C4        19.0150   32.6820   17.6840 C.ar   79  G79         0.1723
   1692  C5        17.6410   32.6840   17.8240 C.ar   79  G79         0.1748
   1693  C6        17.0640   33.4630   18.8600 C.ar   79  G79         0.3023
   1694  O6        15.8710   33.5450   19.1890 O.2    79  G79        -0.2633
   1695  N7        17.0460   31.8860   16.8570 N.ar   79  G79        -0.2173
   1696  C8        18.0530   31.4250   16.1630 C.ar   79  G79         0.1817
   1697  N9        19.2720   31.8970   16.5980 N.ar   79  G79        -0.2693
   1698  OP1       18.2560   26.6480   12.8650 O.2    79  G79        -0.5172
   1699  OP2       16.4140   28.0860   13.9420 O.co2  79  G79        -0.4373
   1700  P         20.9370   26.9690   17.7240 P.3    80  U80         0.2141
   1701  C5'       22.1950   28.3630   19.5100 C.3    80  U80         0.1812
   1702  O5'       20.9980   27.7710   19.0990 O.3    80  U80        -0.3114
   1703  C4'       21.9170   29.1200   20.7740 C.3    80  U80         0.1773
   1704  O4'       21.1420   30.2870   20.4270 O.3    80  U80        -0.3307
   1705  C3'       21.0560   28.4050   21.7950 C.3    80  U80         0.1860
   1706  O3'       21.8550   27.6340   22.6780 O.3    80  U80        -0.3112
   1707  C2'       20.5190   29.5790   22.5940 C.3    80  U80         0.2309
   1708  O2'       21.4910   30.0670   23.4900 O.3    80  U80        -0.2156
   1709  C1'       20.2950   30.6290   21.5050 C.3    80  U80         0.2420
   1710  N1        18.9000   30.6660   21.0400 N.ar   80  U80        -0.2534
   1711  C2        18.0290   31.4820   21.7260 C.ar   80  U80         0.3546
   1712  O2        18.3750   32.1840   22.6460 O.2    80  U80        -0.2443
   1713  N3        16.7340   31.4530   21.2790 N.ar   80  U80        -0.1530
   1714  C4        16.2200   30.6940   20.2500 C.ar   80  U80         0.2846
   1715  O4        15.0230   30.7890   19.9630 O.2    80  U80        -0.2650
   1716  C5        17.1830   29.8610   19.5920 C.ar   80  U80         0.0814
   1717  C6        18.4640   29.8870   19.9900 C.ar   80  U80         0.0870
   1718  OP1       22.0580   25.9530   17.7490 O.3    80  U80        -0.4373
   1719  OP2       19.4990   26.5070   17.5820 O.co2  80  U80        -0.5172
   1720  P         21.2340   26.4540   23.6000 P.3    81  U81         0.2141
   1721  C5'       21.3600   27.7820   25.8330 C.3    81  U81         0.1812
   1722  O5'       20.5640   27.2570   24.7990 O.3    81  U81        -0.3114
   1723  C4'       20.4930   28.6830   26.6440 C.3    81  U81         0.1773
   1724  O4'       19.8430   29.6720   25.7850 O.3    81  U81        -0.3307
   1725  C3'       19.3190   28.0330   27.3490 C.3    81  U81         0.1860
   1726  O3'       19.6800   27.2510   28.4740 O.3    81  U81        -0.3112
   1727  C2'       18.4940   29.2620   27.6900 C.3    81  U81         0.2309
   1728  O2'       19.1070   30.0340   28.7250 O.3    81  U81        -0.2156
   1729  C1'       18.5810   30.0400   26.3630 C.3    81  U81         0.2420
   1730  N1        17.4930   29.7280   25.4010 N.ar   81  U81        -0.2534
   1731  C2        16.2440   30.3280   25.5940 C.ar   81  U81         0.3546
   1732  O2        15.9980   31.0710   26.5210 O.2    81  U81        -0.2443
   1733  N3        15.2980   30.0100   24.6500 N.ar   81  U81        -0.1530
   1734  C4        15.4440   29.1610   23.5740 C.ar   81  U81         0.2846
   1735  O4        14.4780   28.9380   22.8500 O.2    81  U81        -0.2650
   1736  C5        16.7750   28.6260   23.4050 C.ar   81  U81         0.0814
   1737  C6        17.7270   28.9160   24.3060 C.ar   81  U81         0.0870
   1738  OP1       22.3880   25.7710   24.2430 O.3    81  U81        -0.4373
   1739  OP2       20.1160   25.6590   22.9730 O.co2  81  U81        -0.5172
   1740  P         18.9100   25.8470   28.8320 P.3    82  G82         0.2141
   1741  C5'       17.4690   26.9830   30.7070 C.3    82  G82         0.1812
   1742  O5'       17.4890   26.1910   29.4790 O.3    82  G82        -0.3114
   1743  C4'       16.1820   27.7610   30.8990 C.3    82  G82         0.1773
   1744  O4'       15.9610   28.7330   29.8300 O.3    82  G82        -0.3307
   1745  C3'       14.9200   26.9390   30.8550 C.3    82  G82         0.1860
   1746  O3'       14.8300   26.2440   32.0550 O.3    82  G82        -0.3112
   1747  C2'       13.8740   28.0300   30.6840 C.3    82  G82         0.2309
   1748  O2'       13.6540   28.8460   31.8040 O.3    82  G82        -0.2156
   1749  C1'       14.5560   28.9070   29.6380 C.3    82  G82         0.2408
   1750  N1        10.9000   28.7660   26.1500 N.ar   82  G82        -0.1709
   1751  C2        10.9160   29.3890   27.3600 C.ar   82  G82         0.2606
   1752  N2         9.8080   30.0310   27.6950 N.pl3  82  G82        -0.0859
   1753  N3        11.9330   29.3400   28.2000 N.ar   82  G82        -0.1918
   1754  C4        12.9680   28.6320   27.7010 C.ar   82  G82         0.1723
   1755  C5        13.0790   28.0400   26.4690 C.ar   82  G82         0.1748
   1756  C6        11.9840   28.1100   25.5820 C.ar   82  G82         0.3023
   1757  O6        11.8970   27.6650   24.4480 O.2    82  G82        -0.2633
   1758  N7        14.3380   27.4800   26.3020 N.ar   82  G82        -0.2173
   1759  C8        14.9600   27.7470   27.4170 C.ar   82  G82         0.1817
   1760  N9        14.1970   28.4710   28.2950 N.ar   82  G82        -0.2693
   1761  OP1       19.6200   25.2600   29.9830 O.3    82  G82        -0.4373
   1762  OP2       18.6730   25.0120   27.6600 O.co2  82  G82        -0.5172
   1763  P         13.6990   25.2140   32.3550 P.3    83  A83         0.2141
   1764  C5'       11.0730   25.5960   32.9260 C.3    83  A83         0.1812
   1765  O5'       12.3710   26.1080   32.4670 O.3    83  A83        -0.3114
   1766  C4'        9.9510   26.4910   32.4080 C.3    83  A83         0.1773
   1767  O4'       10.4340   27.3580   31.3240 O.3    83  A83        -0.3307
   1768  C3'        8.7760   25.7150   31.8190 C.3    83  A83         0.1860
   1769  O3'        7.7730   25.6030   32.7650 O.3    83  A83        -0.3112
   1770  C2'        8.2110   26.6330   30.7340 C.3    83  A83         0.2309
   1771  O2'        6.9840   27.2760   31.0110 O.3    83  A83        -0.2156
   1772  C1'        9.4510   27.4210   30.2770 C.3    83  A83         0.2408
   1773  N1         8.4600   25.9580   25.4340 N.ar   83  A83        -0.2040
   1774  C2         7.7350   26.6340   26.3330 C.ar   83  A83         0.2016
   1775  N3         8.0580   26.9970   27.5780 N.ar   83  A83        -0.2048
   1776  C4         9.3030   26.5810   27.8880 C.ar   83  A83         0.1692
   1777  C5        10.1620   25.8620   27.0780 C.ar   83  A83         0.1518
   1778  C6         9.7020   25.5360   25.7900 C.ar   83  A83         0.1919
   1779  N6        10.4430   24.8710   24.8910 N.pl3  83  A83        -0.1054
   1780  N7        11.3730   25.6370   27.7210 N.ar   83  A83        -0.2193
   1781  C8        11.2150   26.1950   28.8950 C.ar   83  A83         0.1816
   1782  N9         9.9930   26.8000   29.0600 N.ar   83  A83        -0.2693
   1783  OP1       14.0930   24.7770   33.7120 O.3    83  A83        -0.4373
   1784  OP2       13.6410   24.2160   31.2390 O.co2  83  A83        -0.5172
   1785  P          7.4580   24.1220   33.0720 P.3    84  A84         0.2141
   1786  C5'        5.0130   24.8660   32.3900 C.3    84  A84         0.1812
   1787  O5'        6.0400   23.8840   32.3480 O.3    84  A84        -0.3114
   1788  C4'        4.4650   25.0170   31.0320 C.3    84  A84         0.1773
   1789  O4'        5.5300   25.3910   30.1200 O.3    84  A84        -0.3307
   1790  C3'        3.9760   23.7140   30.4240 C.3    84  A84         0.1860
   1791  O3'        2.6960   23.3750   30.8260 O.3    84  A84        -0.3112
   1792  C2'        3.9500   24.0350   28.9360 C.3    84  A84         0.2309
   1793  O2'        2.7970   24.6760   28.4290 O.3    84  A84        -0.2156
   1794  C1'        5.2030   24.9050   28.7950 C.3    84  A84         0.2408
   1795  N1         6.9170   22.2520   24.7260 N.ar   84  A84        -0.2040
   1796  C2         5.7870   22.9600   24.9420 C.ar   84  A84         0.2016
   1797  N3         5.4150   23.6470   26.0270 N.ar   84  A84        -0.2048
   1798  C4         6.3400   23.5350   27.0000 C.ar   84  A84         0.1692
   1799  C5         7.5430   22.8470   26.9290 C.ar   84  A84         0.1518
   1800  C6         7.8200   22.1580   25.7300 C.ar   84  A84         0.1919
   1801  N6         8.8970   21.4020   25.5470 N.pl3  84  A84        -0.1054
   1802  N7         8.2400   22.9550   28.1250 N.ar   84  A84        -0.2193
   1803  C8         7.4650   23.6970   28.8760 C.ar   84  A84         0.1816
   1804  N9         6.3060   24.0960   28.2540 N.ar   84  A84        -0.2693
   1805  OP1        7.2950   24.0790   34.5590 O.3    84  A84        -0.4373
   1806  OP2        8.6100   23.4320   32.4620 O.co2  84  A84        -0.5172
   1807  P          2.6580   22.0860   31.6580 P.3    85  A85         0.2141
   1808  C5'        1.1190   21.3230   29.7160 C.3    85  A85         0.1812
   1809  O5'        2.2610   21.0360   30.5380 O.3    85  A85        -0.3114
   1810  C4'        1.3910   20.8380   28.3160 C.3    85  A85         0.1773
   1811  O4'        2.5840   21.4910   27.8110 O.3    85  A85        -0.3307
   1812  C3'        1.7470   19.3610   28.2030 C.3    85  A85         0.1860
   1813  O3'        0.5410   18.6240   28.1810 O.3    85  A85        -0.3112
   1814  C2'        2.4820   19.3130   26.8730 C.3    85  A85         0.2309
   1815  O2'        1.6950   19.4570   25.7140 O.3    85  A85        -0.2156
   1816  C1'        3.2660   20.6120   26.9220 C.3    85  A85         0.2408
   1817  N1         7.9330   18.5820   26.1180 N.ar   85  A85        -0.2040
   1818  C2         6.8250   18.5900   25.3630 C.ar   85  A85         0.2016
   1819  N3         5.6350   19.1200   25.6230 N.ar   85  A85        -0.2048
   1820  C4         5.6440   19.7310   26.8210 C.ar   85  A85         0.1692
   1821  C5         6.7070   19.8110   27.7000 C.ar   85  A85         0.1518
   1822  C6         7.9030   19.2060   27.3120 C.ar   85  A85         0.1919
   1823  N6         9.0070   19.2230   28.0510 N.pl3  85  A85        -0.1054
   1824  N7         6.3510   20.5210   28.8360 N.ar   85  A85        -0.2193
   1825  C8         5.1030   20.8630   28.6170 C.ar   85  A85         0.1816
   1826  N9         4.6090   20.4090   27.4250 N.ar   85  A85        -0.2693
   1827  OP1        1.4520   22.2630   32.5000 O.3    85  A85        -0.4373
   1828  OP2        3.9900   21.8240   32.2950 O.co2  85  A85        -0.5172
   1829  P          0.5430   17.4440   29.2320 P.3    86  G86         0.2141
   1830  C5'        0.8970   15.7650   27.1810 C.3    86  G86         0.1812
   1831  O5'        1.3210   16.2590   28.4820 O.3    86  G86        -0.3114
   1832  C4'        2.0960   15.2470   26.4290 C.3    86  G86         0.1773
   1833  O4'        3.1910   16.2040   26.4890 O.3    86  G86        -0.3307
   1834  C3'        2.8010   14.0230   26.9610 C.3    86  G86         0.1860
   1835  O3'        2.0390   12.8630   26.7890 O.3    86  G86        -0.3112
   1836  C2'        4.0580   14.0480   26.1010 C.3    86  G86         0.2309
   1837  O2'        3.7970   13.6530   24.7590 O.3    86  G86        -0.2156
   1838  C1'        4.3990   15.5460   26.1480 C.3    86  G86         0.2408
   1839  N1         9.0870   14.8230   27.9620 N.ar   86  G86        -0.1709
   1840  C2         8.5080   14.3080   26.8290 C.ar   86  G86         0.2606
   1841  N2         9.3020   13.5690   26.0520 N.pl3  86  G86        -0.0859
   1842  N3         7.2520   14.5450   26.4620 N.ar   86  G86        -0.1918
   1843  C4         6.6300   15.3910   27.3150 C.ar   86  G86         0.1723
   1844  C5         7.1100   15.9380   28.4870 C.ar   86  G86         0.1748
   1845  C6         8.4490   15.6580   28.8780 C.ar   86  G86         0.3023
   1846  O6         9.0390   16.0020   29.9080 O.2    86  G86        -0.2633
   1847  N7         6.1370   16.7100   29.1020 N.ar   86  G86        -0.2173
   1848  C8         5.1130   16.6470   28.2920 C.ar   86  G86         0.1817
   1849  N9         5.3490   15.8700   27.1880 N.ar   86  G86        -0.2693
   1850  OP1       -0.8970   17.0350   29.2370 O.2    86  G86        -0.5172
   1851  OP2        1.2780   17.8960   30.4750 O.co2  86  G86        -0.4373
   1852  P          2.0230   11.9000   28.0060 P.3    87  A87         0.2141
   1853  C5'        3.5370   10.5590   26.3360 C.3    87  A87         0.1812
   1854  O5'        2.9340   10.6540   27.6150 O.3    87  A87        -0.3114
   1855  C4'        4.9020   10.0020   26.5000 C.3    87  A87         0.1773
   1856  O4'        5.8190   11.0950   26.7140 O.3    87  A87        -0.3307
   1857  C3'        5.0840    9.2200   27.7760 C.3    87  A87         0.1860
   1858  O3'        4.5700    7.9410   27.6110 O.3    87  A87        -0.3112
   1859  C2'        6.5980    9.2340   27.9430 C.3    87  A87         0.2309
   1860  O2'        7.2250    8.1960   27.2160 O.3    87  A87        -0.2156
   1861  C1'        6.9380   10.6500   27.4520 C.3    87  A87         0.2408
   1862  N1        10.0340   12.4640   31.1450 N.ar   87  A87        -0.2040
   1863  C2        10.2030   11.5110   30.2260 C.ar   87  A87         0.2016
   1864  N3         9.3590   11.0780   29.2930 N.ar   87  A87        -0.2048
   1865  C4         8.2050   11.7500   29.3540 C.ar   87  A87         0.1692
   1866  C5         7.8750   12.7530   30.2490 C.ar   87  A87         0.1518
   1867  C6         8.8520   13.1160   31.1860 C.ar   87  A87         0.1919
   1868  N6         8.6960   14.0990   32.0760 N.pl3  87  A87        -0.1054
   1869  N7         6.6070   13.2480   29.9880 N.ar   87  A87        -0.2193
   1870  C8         6.1890   12.5140   28.9770 C.ar   87  A87         0.1816
   1871  N9         7.1120   11.5970   28.5400 N.ar   87  A87        -0.2693
   1872  OP1        0.7260   11.3220   28.1190 O.2    87  A87        -0.5172
   1873  OP2        2.6200   12.6020   29.1430 O.co2  87  A87        -0.4373
   1874  P          4.3960    7.0840   28.9400 P.3    88  U88         0.2141
   1875  C5'        6.3270    5.3330   29.4130 C.3    88  U88         0.1812
   1876  O5'        5.8880    6.7030   29.3380 O.3    88  U88        -0.3114
   1877  C4'        7.6840    5.3240   30.0870 C.3    88  U88         0.1773
   1878  O4'        8.4080    6.5910   29.9010 O.3    88  U88        -0.3307
   1879  C3'        7.5410    5.2260   31.5790 C.3    88  U88         0.1860
   1880  O3'        7.2230    3.9000   31.8630 O.3    88  U88        -0.3112
   1881  C2'        8.8740    5.7500   32.0750 C.3    88  U88         0.2309
   1882  O2'        9.8940    4.8330   31.8680 O.3    88  U88        -0.2156
   1883  C1'        9.1260    6.8960   31.1000 C.3    88  U88         0.2420
   1884  N1         8.6270    8.1430   31.6760 N.ar   88  U88        -0.2534
   1885  C2         9.2920    8.6180   32.7880 C.ar   88  U88         0.3546
   1886  O2        10.2900    8.0920   33.2340 O.2    88  U88        -0.2443
   1887  N3         8.7290    9.7240   33.3700 N.ar   88  U88        -0.1530
   1888  C4         7.5630   10.3560   32.9990 C.ar   88  U88         0.2846
   1889  O4         7.1690   11.3340   33.6450 O.2    88  U88        -0.2650
   1890  C5         6.9280    9.7990   31.8380 C.ar   88  U88         0.0814
   1891  C6         7.4770    8.7420   31.2270 C.ar   88  U88         0.0870
   1892  OP1        3.6910    5.8170   28.5630 O.2    88  U88        -0.5172
   1893  OP2        3.8950    7.9340   30.0750 O.co2  88  U88        -0.4373
   1894  P          6.4040    3.7360   33.1600 P.3    89  G89         0.2141
   1895  C5'        8.4460    2.8830   34.6170 C.3    89  G89         0.1812
   1896  O5'        7.5430    3.9410   34.2520 O.3    89  G89        -0.3114
   1897  C4'        9.4390    3.3880   35.6460 C.3    89  G89         0.1773
   1898  O4'        9.8270    4.7250   35.2950 O.3    89  G89        -0.3307
   1899  C3'        8.9080    3.5680   37.0380 C.3    89  G89         0.1860
   1900  O3'        9.1100    2.3270   37.6410 O.3    89  G89        -0.3112
   1901  C2'        9.9040    4.5680   37.6280 C.3    89  G89         0.2309
   1902  O2'       11.2210    4.1570   37.8720 O.3    89  G89        -0.2156
   1903  C1'       10.1580    5.4700   36.4490 C.3    89  G89         0.2408
   1904  N1         9.3890   10.1050   38.4380 N.ar   89  G89        -0.1709
   1905  C2        10.3110    9.1390   38.7850 C.ar   89  G89         0.2606
   1906  N2        11.1620    9.4620   39.7430 N.pl3  89  G89        -0.0859
   1907  N3        10.4030    7.9520   38.2100 N.ar   89  G89        -0.1918
   1908  C4         9.5340    7.8160   37.1920 C.ar   89  G89         0.1723
   1909  C5         8.5600    8.6930   36.7740 C.ar   89  G89         0.1748
   1910  C6         8.4390    9.9670   37.4360 C.ar   89  G89         0.3023
   1911  O6         7.6350   10.9050   37.1980 O.2    89  G89        -0.2633
   1912  N7         7.7940    8.1260   35.7620 N.ar   89  G89        -0.2173
   1913  C8         8.2960    6.9330   35.6040 C.ar   89  G89         0.1817
   1914  N9         9.3530    6.6820   36.4370 N.ar   89  G89        -0.2693
   1915  OP1        5.9400    2.3690   33.1640 O.2    89  G89        -0.5172
   1916  OP2        5.4420    4.8090   33.2960 O.co2  89  G89        -0.4373
   1917  P          7.9180    1.6560   38.4220 P.3    90  A90         0.2141
   1918  C5'        9.4740    2.2390   40.4250 C.3    90  A90         0.1812
   1919  O5'        8.2170    2.2960   39.8460 O.3    90  A90        -0.3114
   1920  C4'        9.6360    3.4310   41.3210 C.3    90  A90         0.1773
   1921  O4'        9.5530    4.5920   40.4960 O.3    90  A90        -0.3307
   1922  C3'        8.5060    3.6980   42.3240 C.3    90  A90         0.1860
   1923  O3'        8.4970    3.0230   43.5720 O.3    90  A90        -0.3112
   1924  C2'        8.7080    5.1550   42.6630 C.3    90  A90         0.2309
   1925  O2'        9.5900    5.3540   43.7380 O.3    90  A90        -0.2156
   1926  C1'        9.2230    5.7030   41.3320 C.3    90  A90         0.2408
   1927  N1         6.9120   10.2960   40.8500 N.ar   90  A90        -0.2040
   1928  C2         7.8870    9.8690   41.6810 C.ar   90  A90         0.2016
   1929  N3         8.4690    8.6580   41.7580 N.ar   90  A90        -0.2048
   1930  C4         7.9060    7.8110   40.8780 C.ar   90  A90         0.1692
   1931  C5         6.8800    8.0960   39.9890 C.ar   90  A90         0.1518
   1932  C6         6.3600    9.4030   39.9990 C.ar   90  A90         0.1919
   1933  N6         5.3890    9.8070   39.1990 N.pl3  90  A90        -0.1054
   1934  N7         6.5670    6.9800   39.2380 N.ar   90  A90        -0.2193
   1935  C8         7.3680    6.0520   39.7020 C.ar   90  A90         0.1816
   1936  N9         8.2240    6.4930   40.6660 N.ar   90  A90        -0.2693
   1937  OP1        8.2400    0.1850   38.4890 O.3    90  A90        -0.4373
   1938  OP2        6.5370    2.1530   37.8010 O.co2  90  A90        -0.5172
   1939  P          7.0330    2.3560   43.8350 P.3    91  G91         0.2141
   1940  C5'        7.5940    3.8140   45.9440 C.3    91  G91         0.1812
   1941  O5'        6.6740    3.4620   44.9230 O.3    91  G91        -0.3114
   1942  C4'        7.1740    5.1500   46.5410 C.3    91  G91         0.1773
   1943  O4'        7.3460    6.2020   45.5450 O.3    91  G91        -0.3307
   1944  C3'        5.7000    5.3280   46.9360 C.3    91  G91         0.1860
   1945  O3'        5.2780    4.7390   48.1520 O.3    91  G91        -0.3112
   1946  C2'        5.5910    6.8400   47.0170 C.3    91  G91         0.2309
   1947  O2'        6.5320    7.0850   48.0100 O.3    91  G91        -0.2156
   1948  C1'        6.3700    7.2550   45.7760 C.3    91  G91         0.2408
   1949  N1         3.4520   10.4900   43.0360 N.ar   91  G91        -0.1709
   1950  C2         4.0310   10.6790   44.2510 C.ar   91  G91         0.2606
   1951  N2         3.7770   11.8510   44.8170 N.pl3  91  G91        -0.0859
   1952  N3         4.7240    9.7470   44.9070 N.ar   91  G91        -0.1918
   1953  C4         4.8770    8.6190   44.1720 C.ar   91  G91         0.1723
   1954  C5         4.3660    8.3400   42.9270 C.ar   91  G91         0.1748
   1955  C6         3.5700    9.3460   42.2670 C.ar   91  G91         0.3023
   1956  O6         3.1000    9.3370   41.1280 O.2    91  G91        -0.2633
   1957  N7         4.7480    7.0660   42.5120 N.ar   91  G91        -0.2173
   1958  C8         5.3970    6.5680   43.5300 C.ar   91  G91         0.1817
   1959  N9         5.5630    7.4680   44.5540 N.ar   91  G91        -0.2693
   1960  OP1        7.1810    0.9820   44.4830 O.3    91  G91        -0.4373
   1961  OP2        6.1630    2.4890   42.6140 O.co2  91  G91        -0.5172
   1962  P          3.6800    4.5000   48.3970 P.3    92  C92         0.2141
   1963  C5'        1.8970    6.3960   48.5990 C.3    92  C92         0.1812
   1964  O5'        3.1370    5.9520   48.0110 O.3    92  C92        -0.3114
   1965  C4'        1.7980    7.9030   48.6660 C.3    92  C92         0.1773
   1966  O4'        2.6040    8.5040   47.6080 O.3    92  C92        -0.3307
   1967  C3'        0.3690    8.4370   48.4400 C.3    92  C92         0.1860
   1968  O3'       -0.2710    8.5680   49.6780 O.3    92  C92        -0.3112
   1969  C2'        0.5830    9.7630   47.7340 C.3    92  C92         0.2309
   1970  O2'        0.8970   10.7200   48.6950 O.3    92  C92        -0.2156
   1971  C1'        1.7920    9.4380   46.8810 C.3    92  C92         0.2420
   1972  N1         1.3850    8.7940   45.6500 N.ar   92  C92        -0.2535
   1973  C2         0.8200    9.5730   44.6430 C.ar   92  C92         0.3532
   1974  O2         0.5460   10.7740   44.8880 O.2    92  C92        -0.2443
   1975  N3         0.6050    9.0250   43.4270 N.ar   92  C92        -0.1739
   1976  C4         0.8960    7.7330   43.2220 C.ar   92  C92         0.1759
   1977  N4         0.5100    7.1810   42.0670 N.pl3  92  C92        -0.1070
   1978  C5         1.4360    6.9120   44.2510 C.ar   92  C92         0.0566
   1979  C6         1.6920    7.4840   45.4230 C.ar   92  C92         0.0850
   1980  OP1        3.5400    4.3210   49.8740 O.3    92  C92        -0.4373
   1981  OP2        3.0040    3.5420   47.4880 O.co2  92  C92        -0.5172
   1982  P         -1.8160    8.1660   49.7990 P.3    93  C93         0.2141
   1983  C5'       -2.6950   10.6440   49.2710 C.3    93  C93         0.1812
   1984  O5'       -2.5670    9.2530   48.8320 O.3    93  C93        -0.3114
   1985  C4'       -3.7000   11.4140   48.4570 C.3    93  C93         0.1773
   1986  O4'       -3.0700   11.8610   47.2250 O.3    93  C93        -0.3307
   1987  C3'       -4.9620   10.6810   48.0470 C.3    93  C93         0.1860
   1988  O3'       -5.9190   10.9370   49.0760 O.3    93  C93        -0.3112
   1989  C2'       -5.3240   11.4200   46.7590 C.3    93  C93         0.2309
   1990  O2'       -5.9890   12.6530   47.0030 O.3    93  C93        -0.2156
   1991  C1'       -3.9370   11.6730   46.1540 C.3    93  C93         0.2420
   1992  N1        -3.4530   10.5280   45.4120 N.ar   93  C93        -0.2535
   1993  C2        -3.8160   10.4020   44.0720 C.ar   93  C93         0.3532
   1994  O2        -4.5030   11.2880   43.5650 O.2    93  C93        -0.2443
   1995  N3        -3.4140    9.3190   43.3650 N.ar   93  C93        -0.1739
   1996  C4        -2.7770    8.3240   43.9840 C.ar   93  C93         0.1759
   1997  N4        -2.4220    7.2440   43.2540 N.pl3  93  C93        -0.1070
   1998  C5        -2.4070    8.4100   45.3710 C.ar   93  C93         0.0566
   1999  C6        -2.7690    9.5230   46.0390 C.ar   93  C93         0.0850
   2000  OP1       -2.0830    8.3430   51.2070 O.3    93  C93        -0.4373
   2001  OP2       -1.9840    6.8450   49.2670 O.co2  93  C93        -0.5172
   2002  P         -7.1680    9.9900   49.1420 P.3    94  A94         0.2141
   2003  C5'       -8.8560   11.4890   47.7670 C.3    94  A94         0.1813
   2004  O5'       -8.0070   10.2980   47.8180 O.3    94  A94        -0.3114
   2005  C4'       -9.6470   11.5750   46.4690 C.3    94  A94         0.1801
   2006  O4'       -8.7510   11.6650   45.3020 O.3    94  A94        -0.3306
   2007  C3'      -10.5960   10.4120   46.2030 C.3    94  A94         0.2161
   2008  O3'      -11.9050   10.7430   46.7360 O.3    94  A94        -0.2175
   2009  C2'      -10.5910   10.3080   44.6810 C.3    94  A94         0.2337
   2010  O2'      -11.5040   11.3000   44.2680 O.3    94  A94        -0.2155
   2011  C1'       -9.1460   10.7010   44.3270 C.3    94  A94         0.2409
   2012  N1        -6.6510    7.1560   41.5940 N.ar   94  A94        -0.2040
   2013  C2        -7.4780    8.1450   41.2410 C.ar   94  A94         0.2016
   2014  N3        -8.0370    9.0760   42.0040 N.ar   94  A94        -0.2048
   2015  C4        -7.7040    8.8920   43.2940 C.ar   94  A94         0.1692
   2016  C5        -6.8410    7.9370   43.8060 C.ar   94  A94         0.1518
   2017  C6        -6.2900    7.0480   42.9110 C.ar   94  A94         0.1919
   2018  N6        -5.4900    6.0460   43.2940 N.pl3  94  A94        -0.1054
   2019  N7        -6.7980    7.9950   45.1910 N.ar   94  A94        -0.2193
   2020  C8        -7.6000    8.9890   45.4880 C.ar   94  A94         0.1816
   2021  N9        -8.1970    9.5720   44.3810 N.ar   94  A94        -0.2693
   2022  OP1       -8.0200   10.3330   50.2990 O.3    94  A94        -0.4373
   2023  OP2       -6.7060    8.6270   48.9660 O.co2  94  A94        -0.5172
@<TRIPOS>BOND
     1   732   731    2
     2   731   733   ar
     3   731   730   ar
     4   733   734   ar
     5   730   728   ar
     6   735   717    2
     7   736   717    1
     8   734   727   ar
     9   717   701    1
    10   717   719    1
    11   703   702    1
    12   728   727   ar
    13   728   729    2
    14   727   726    1
    15   701   700    1
    16   719   718    1
    17   718   720    1
    18   702   700    1
    19   702   704    1
    20   721   726    1
    21   721   720    1
    22   700   698    1
    23   726   724    1
    24   724   722    1
    25   724   725    1
    26   704   714    1
    27   704   699    1
    28   720   722    1
    29   754   753    2
    30   714   713   ar
    31   714   708   ar
    32   713   712   ar
    33   722   723    1
    34   698   699    1
    35   698   696    1
    36   708   707   ar
    37   708   709   ar
    38   712   709   ar
    39   697   695    1
    40   697   696    1
    41   716   695    2
    42   707   706   ar
    43   753   752   ar
    44   753   747   ar
    45   709   710   ar
    46   755   752   ar
    47   755   756   ar
    48   706   705   ar
    49   695   715    1
    50   695   678    1
    51   752   751   ar
    52   710   705   ar
    53   710   711    1
    54   747   748   ar
    55   650   632    2
    56   723   737    1
    57   689   688    2
    58   756   757   ar
    59   739   737    1
    60   739   738    1
    61   671   652    2
    62   688   682   ar
    63   688   687   ar
    64   694   672    2
    65   751   757   ar
    66   751   750   ar
    67   748   749    1
    68   748   750   ar
    69   630   612    2
    70   678   677    1
    71   690   687   ar
    72   690   691   ar
    73   757   746    1
    74   682   683   ar
    75   687   686   ar
    76   737   758    2
    77   737   759    1
    78   632   651    1
    79   632   634    1
    80   632   618    1
    81   738   740    1
    82   670   652    1
    83   677   679    1
    84   677   675    1
    85   652   654    1
    86   652   638    1
    87   691   692   ar
    88   693   672    1
    89   667   666    2
    90   672   674    1
    91   672   658    1
    92   683   684    1
    93   683   685   ar
    94   297   296    1
    95   686   692   ar
    96   686   685   ar
    97   422   421    1
    98   741   746    1
    99   741   740    1
   100   674   673    1
   101   679   680    1
   102   679   681    1
   103   633   634    1
   104   633   635    1
   105   631   612    1
   106   668   666   ar
   107   668   669   ar
   108   618   617    1
   109   612   614    1
   110   612   595    1
   111   298   299   ar
   112   298   295   ar
   113   692   681    1
   114   746   744    1
   115   740   742    1
   116   430   429    1
   117   666   665   ar
   118   654   653    1
   119   614   613    1
   120   673   675    1
   121   400   399    1
   122   435   414    2
   123   669   662   ar
   124   675   676    1
   125   429   428   ar
   126   429   424   ar
   127   299   300   ar
   128   613   615    1
   129   296   295   ar
   130   296   291   ar
   131   431   428   ar
   132   431   432   ar
   133   638   637    1
   134   681   676    1
   135   421   419    1
   136   421   423    1
   137   295   294   ar
   138   428   427   ar
   139   424   425   ar
   140   617   615    1
   141   617   619    1
   142   432   433   ar
   143   409   410   ar
   144   409   406   ar
   145   408   407    1
   146   658   657    1
   147   637   635    1
   148   637   639    1
   149   657   659    1
   150   657   655    1
   151   595   594    1
   152   744   742    1
   153   744   745    1
   154   635   636    1
   155   427   433   ar
   156   427   426   ar
   157   425   426   ar
   158   665   663   ar
   159   653   655    1
   160   453   452    2
   161   410   411   ar
   162   433   423    1
   163   615   616    1
   164   610   589    2
   165   399   397    1
   166   399   401    1
   167   742   743    1
   168   291   292   ar
   169   406   407   ar
   170   406   405   ar
   171   662   663   ar
   172   662   661    1
   173   407   402   ar
   174   458   436    2
   175   457   436    1
   176   419   420    1
   177   419   417    1
   178   454   455   ar
   179   454   451   ar
   180   420   436    1
   181   423   418    1
   182   300   294   ar
   183   300   290    1
   184   648   649   ar
   185   648   646   ar
   186   294   293   ar
   187   659   661    1
   188   659   660    1
   189   452   451   ar
   190   452   446   ar
   191  1601  1602   ar
   192  1601  1606   ar
   193   663   664    2
   194   413   392    2
   195   455   456   ar
   196   655   656    1
   197   649   642   ar
   198   414   416    1
   199   414   398    1
   200   414   434    1
   201   590   592    1
   202   590   591    1
   203   451   450   ar
   204   411   405   ar
   205   411   401    1
   206   436   438    1
   207   647   646    2
   208  1602  1603   ar
   209   636   641    1
   210   619   620    1
   211   619   621    1
   212   405   404   ar
   213   402   403   ar
   214  1643  1642    1
   215   646   645   ar
   216   285   290    1
   217   285   284    1
   218   594   592    1
   219   594   596    1
   220   656   661    1
   221   416   415    1
   222   397   398    1
   223   397   395    1
   224  1624  1625   ar
   225  1624  1623   ar
   226   401   396    1
   227   370   349    2
   228   446   447   ar
   229   639   641    1
   230   639   640    1
   231   292   293   ar
   232   743   760    1
   233   290   288    1
   234   347   326    2
   235   642   641    1
   236   642   643   ar
   237   456   450   ar
   238   456   445    1
   239  1607  1606    1
   240   629   628   ar
   241   629   622   ar
   242   628   626   ar
   243   450   449   ar
   244   589   591    1
   245   589   611    1
   246   589   572    1
   247   592   593    1
   248  1625  1626   ar
   249   403   404   ar
   250   616   621    1
   251   394   392    1
   252   394   393    1
   253  1606  1605   ar
   254   645   643   ar
   255   440   445    1
   256   440   439    1
   257   391   372    2
   258   418   417    1
   259   643   644    2
   260   417   415    1
   261   392   412    1
   262   392   378    1
   263   447   449   ar
   264   447   448    1
   265  1603  1604   ar
   266  1623  1628   ar
   267   445   443    1
   268   621   622    1
   269  1644  1639    1
   270  1644  1642    1
   271  1644  1654    1
   272   622   623   ar
   273   284   282    1
   274   284   286    1
   275  1639  1638    1
   276   390   372    1
   277   626   627    1
   278   626   625   ar
   279  1621  1620    1
   280   596   597    1
   281   596   598    1
   282  1642  1640    1
   283  1647  1646   ar
   284  1647  1648   ar
   285   475   474    1
   286   778   777   ar
   287   778   779   ar
   288  1638  1640    1
   289  1638  1636    1
   290   387   386    1
   291   438   437    1
   292   395   396    1
   293   395   393    1
   294   371   349    1
   295   764   769    1
   296   764   763    1
   297   769   779    1
   298   769   767    1
   299   348   326    1
   300   282   283    1
   301   349   351    1
   302   349   332    1
   303   572   571    1
   304   372   374    1
   305   372   355    1
   306   777   774   ar
   307   779   773   ar
   308   324   303    2
   309   326   328    1
   310   326   309    1
   311  1641  1640    1
   312  1641  1657    1
   313  1605  1604   ar
   314  1605  1608   ar
   315   287   286    1
   316   287   303    1
   317  1646  1645   ar
   318  1604  1610   ar
   319   625   623   ar
   320   623   624    2
   321  1626  1632   ar
   322  1626  1627   ar
   323   388   386   ar
   324   388   389   ar
   325   374   373    1
   326   760   780    2
   327   760   781    1
   328   760   762    1
   329   288   286    1
   330   288   289    1
   331   283   281    1
   332   593   598    1
   333   439   437    1
   334   439   441    1
   335   386   385   ar
   336   474   469   ar
   337   474   473   ar
   338  1622  1620    1
   339  1622  1632    1
   340  1622  1617    1
   341  1675  1657    2
   342  1636  1637    1
   343   774   773   ar
   344   774   775   ar
   345   469   470   ar
   346   773   772   ar
   347  1654  1648   ar
   348  1654  1653   ar
   349  1628  1627   ar
   350  1628  1629    1
   351  1620  1618    1
   352  1648  1649   ar
   353   304   305    1
   354   304   306    1
   355   378   377    1
   356   389   382   ar
   357   351   350    1
   358   598   609    1
   359   377   379    1
   360   377   375    1
   361   327   328    1
   362   327   329    1
   363   303   305    1
   364   303   325    1
   365   443   441    1
   366   443   444    1
   367  1632  1631   ar
   368   309   308    1
   369   768   767    1
   370   775   776    1
   371   775   770   ar
   372   332   331    1
   373   772   771   ar
   374   762   761    1
   375  1608  1609   ar
   376  1657  1659    1
   377  1657  1676    1
   378   473   476   ar
   379   473   472   ar
   380  1627  1630   ar
   381   385   383   ar
   382   763   761    1
   383   763   765    1
   384   476   477   ar
   385   767   765    1
   386  1610  1600    1
   387  1610  1609   ar
   388   470   471   ar
   389   350   352    1
   390  1617  1616    1
   391  1659  1658    1
   392   373   375    1
   393   441   442    1
   394   608   609   ar
   395   608   607   ar
   396  1645  1650   ar
   397   609   603   ar
   398   571   573    1
   399   571   569    1
   400  1302  1301   ar
   401  1302  1303   ar
   402   771   770   ar
   403  1301  1306   ar
   404   379   381    1
   405   379   380    1
   406   355   354    1
   407   382   383   ar
   408   382   381    1
   409   574   573    1
   410  1637  1635    1
   411   383   384    2
   412  1600  1598    1
   413  1600  1595    1
   414   472   471   ar
   415   472   478   ar
   416   375   376    1
   417   301   281    2
   418   281   302    1
   419   281   264    1
   420  1653  1652   ar
   421   498   497    2
   422   306   308    1
   423   306   307    1
   424   607   604   ar
   425   477   478   ar
   426   573   575    1
   427   603   602   ar
   428   603   604   ar
   429   308   310    1
   430  1649  1650   ar
   431  1649  1652   ar
   432   331   329    1
   433   331   333    1
   434  1618  1616    1
   435  1618  1619    1
   436   354   352    1
   437   354   356    1
   438   329   330    1
   439  1616  1614    1
   440  1619  1635    1
   441  1303  1304   ar
   442   765   766    1
   443   491   497   ar
   444   491   492   ar
   445  1631  1630   ar
   446   602   600   ar
   447   381   376    1
   448  1306  1307    1
   449  1306  1305   ar
   450  1661  1660    1
   451  1661  1666    1
   452  1650  1651    1
   453   604   605   ar
   454  1658  1660    1
   455   587   566    2
   456   569   567    1
   457   569   570    1
   458  1599  1598    1
   459   478   468    1
   460  1660  1662    1
   461   352   353    1
   462   497   496   ar
   463   797   796    1
   464   493   492    1
   465   567   568    1
   466  1598  1596    1
   467  1595  1594    1
   468   367   368   ar
   469   367   364   ar
   470   442   459    1
   471   264   263    1
   472   368   369   ar
   473   492   494   ar
   474  1635  1655    2
   475  1635  1656    1
   476  1304  1305   ar
   477  1304  1310   ar
   478  1324  1325   ar
   479  1324  1323   ar
   480   600   601    1
   481   600   599   ar
   482   568   566    1
   483   796   798   ar
   484   796   795   ar
   485   480   459    2
   486  1305  1308   ar
   487   605   599   ar
   488   605   606    2
   489   798   799   ar
   490   588   566    1
   491   463   468    1
   492   463   462    1
   493  1665  1664    1
   494   566   552    1
   495   307   312    1
   496  1325  1326   ar
   497   468   466    1
   498   766   782    1
   499   330   335    1
   500  1666  1664    1
   501  1666  1667    1
   502   311   310    1
   503  1323  1328   ar
   504   353   358    1
   505   795   793   ar
   506   356   358    1
   507   356   357    1
   508   310   312    1
   509   496   499   ar
   510   496   495   ar
   511   366   365    2
   512   364   365   ar
   513   364   363   ar
   514   333   334    1
   515   333   335    1
   516   575   570    1
   517   575   586    1
   518  1614  1615    1
   519  1321  1320    1
   520   369   358    1
   521   369   363   ar
   522   799   792   ar
   523  1310  1300    1
   524  1310  1309   ar
   525   266   265    1
   526  1663  1662    1
   527  1663  1677    1
   528   494   495   ar
   529  1662  1664    1
   530   459   461    1
   531   459   479    1
   532  1615  1613    1
   533  1300  1298    1
   534  1300  1295    1
   535   365   359   ar
   536  1299  1298    1
   537   345   344   ar
   538   345   346   ar
   539  1387  1386    2
   540  1308  1309   ar
   541   793   792   ar
   542   793   794    2
   543   461   460    1
   544   499   500   ar
   545   495   501   ar
   546  1596  1594    1
   547  1596  1597    1
   548  1594  1592    1
   549   363   362   ar
   550   586   585   ar
   551   586   580   ar
   552   792   791    1
   553   263   265    1
   554   263   261    1
   555  1326  1332   ar
   556  1326  1327   ar
   557   344   341   ar
   558   312   323    1
   559   335   346    1
   560   786   791    1
   561   786   785    1
   562   579   580   ar
   563   579   577   ar
   564   265   267    1
   565  1322  1332    1
   566  1322  1320    1
   567  1322  1317    1
   568  1576  1575    1
   569  1328  1327   ar
   570  1328  1329    1
   571   585   584   ar
   572   460   462    1
   573   580   581   ar
   574   346   340   ar
   575  1667  1674   ar
   576  1667  1668   ar
   577  1298  1296    1
   578   462   464    1
   579  1388  1386   ar
   580  1388  1389   ar
   581   578   577    1
   582  1674  1673   ar
   583  1698  1677    2
   584  1295  1294    1
   585   577   576   ar
   586   791   789    1
   587  1332  1331   ar
   588  1580  1579    1
   589   359   360   ar
   590  1320  1318    1
   591  1386  1385   ar
   592   552   551    1
   593   466   464    1
   594   466   467    1
   595   801   782    2
   596   782   784    1
   597   782   800    1
   598  1327  1330   ar
   599   500   501   ar
   600   322   323   ar
   601   322   321   ar
   602  1592  1593    1
   603   584   581   ar
   604   501   490    1
   605   362   360   ar
   606   323   317   ar
   607  1593  1591    1
   608   581   582   ar
   609   817   816    1
   610  1317  1316    1
   611   341   340   ar
   612   341   342   ar
   613  1677  1699    1
   614  1677  1679    1
   615   576   582   ar
   616   783   784    1
   617   783   785    1
   618   261   259    1
   619   261   262    1
   620   340   339   ar
   621  1669  1668    2
   622  1611  1591    2
   623   360   361    1
   624  1390  1389    1
   625  1597  1613    1
   626  1613  1633    2
   627  1613  1634    1
   628   464   465    1
   629   582   583    2
   630  1668  1670   ar
   631   785   787    1
   632  1389  1391   ar
   633  1574  1591    1
   634  1574  1573    1
   635   321   318   ar
   636   259   260    1
   637  1316  1318    1
   638  1316  1314    1
   639   343   342    2
   640  1407  1406    2
   641  1673  1671   ar
   642  1331  1330   ar
   643  1678  1679    1
   644  1678  1680    1
   645   342   336   ar
   646  1575  1573    1
   647  1575  1577    1
   648   317   316   ar
   649   317   318   ar
   650   816   815   ar
   651   816   818   ar
   652   490   485    1
   653   490   488    1
   654  1591  1612    1
   655  1294  1296    1
   656  1294  1292    1
   657  1579  1581   ar
   658  1579  1578   ar
   659  1385  1384    1
   660  1385  1392   ar
   661   339   337   ar
   662  1581  1582   ar
   663   815   813   ar
   664   267   262    1
   665   267   278    1
   666   551   553    1
   667   551   549    1
   668  1296  1297    1
   669  1318  1319    1
   670  1403  1402    1
   671  1384  1379    1
   672  1384  1382    1
   673   316   314   ar
   674  1406  1408   ar
   675  1406  1405   ar
   676   318   319   ar
   677  1404  1405    1
   678  1404  1399    1
   679  1404  1402    1
   680   554   553    1
   681   789   787    1
   682   789   790    1
   683   553   555    1
   684  1408  1409   ar
   685  1383  1382    1
   686  1353  1335    2
   687   485   484    1
   688  1670  1671   ar
   689   336   337   ar
   690  1573  1571    1
   691  1405  1412   ar
   692  1319  1335    1
   693   818   819   ar
   694   337   338    1
   695   280   258    2
   696  1399  1398    1
   697  1671  1672    1
   698   278   277   ar
   699   278   272   ar
   700  1297  1313    1
   701   787   788    1
   702   277   276   ar
   703   565   546    2
   704  1577  1588    1
   705  1577  1572    1
   706  1681  1680    1
   707  1681  1686    1
   708  1391  1392   ar
   709   465   481    1
   710  1680  1682    1
   711   813   814    2
   712   813   812   ar
   713   548   546    1
   714   548   547    1
   715  1314  1315    1
   716  1379  1378    1
   717   564   546    1
   718  1293  1292    1
   719  1293  1291    1
   720   279   258    1
   721  1382  1380    1
   722  1409  1410    1
   723  1409  1411   ar
   724   260   258    1
   725   314   313   ar
   726   314   315    1
   727   503   481    2
   728  1402  1400    1
   729  1578  1584   ar
   730   319   313   ar
   731   319   320    2
   732  1571  1572    1
   733  1571  1569    1
   734  1412  1411   ar
   735   488   489    1
   736   488   486    1
   737  1335  1354    1
   738  1335  1337    1
   739   546   532    1
   740   272   271   ar
   741   272   273   ar
   742  1582  1588   ar
   743  1582  1583   ar
   744   837   836    1
   745   276   273   ar
   746   258   242    1
   747   549   547    1
   748   549   550    1
   749   819   812   ar
   750   271   269   ar
   751  1315  1313    1
   752  1557  1556    1
   753   483   481    1
   754   483   482    1
   755   812   811    1
   756  1588  1587   ar
   757  1398  1400    1
   758  1398  1396    1
   759   273   274   ar
   760  1312  1291    2
   761   481   502    1
   762   835   836   ar
   763   835   833   ar
   764   555   556    1
   765   555   550    1
   766   484   486    1
   767   484   482    1
   768   269   270    1
   769   269   268   ar
   770   788   802    1
   771   544   526    2
   772   563   556   ar
   773   563   562   ar
   774  1313  1334    2
   775  1313  1333    1
   776   556   557   ar
   777  1378  1380    1
   778  1378  1376    1
   779  1291  1311    1
   780  1291  1277    1
   781   836   838   ar
   782  1686  1697    1
   783  1686  1684    1
   784  1696  1697   ar
   785  1696  1695   ar
   786   558   557    2
   787   557   559   ar
   788  1427  1426    2
   789   486   487    1
   790   562   560   ar
   791  1419  1424    1
   792  1419  1418    1
   793  1423  1422    1
   794  1682  1683    1
   795  1682  1684    1
   796   274   268   ar
   797   274   275    2
   798   559   560   ar
   799  1569  1570    1
   800  1400  1401    1
   801  1584  1583   ar
   802  1584  1585    2
   803   560   561    2
   804  1583  1586   ar
   805  1380  1381    1
   806  1424  1425    1
   807  1424  1422    1
   808   811   806    1
   809   811   809    1
   810   834   833    2
   811   545   526    1
   812  1396  1397    1
   813  1697  1691   ar
   814  1556  1555   ar
   815  1556  1558   ar
   816  1683  1700    1
   817   833   832   ar
   818  1418  1416    1
   819  1418  1420    1
   820  1350  1349    2
   821  1555  1561   ar
   822  1351  1349   ar
   823  1351  1352   ar
   824  1337  1336    1
   825   532   531    1
   826   526   528    1
   827   526   510    1
   828  1695  1692   ar
   829   256   236    2
   830   806   805    1
   831   528   527    1
   832  1426  1425   ar
   833  1426  1428   ar
   834  1587  1586   ar
   835  1685  1684    1
   836   242   241    1
   837   855   853   ar
   838   855   856   ar
   839   857   856    1
   840   854   853    2
   841  1425  1432   ar
   842   838   839   ar
   843  1401  1415    1
   844  1376  1377    1
   845  1416  1417    1
   846  1422  1420    1
   847   821   802    2
   848  1381  1395    1
   849  1397  1395    1
   850  1277  1276    1
   851  1570  1568    1
   852  1349  1348   ar
   853   802   804    1
   854   802   820    1
   855  1558  1559   ar
   856   487   504    1
   857  1428  1429   ar
   858   804   803    1
   859  1352  1345   ar
   860   257   236    1
   861   874   873    2
   862  1719  1700    2
   863  1279  1278    1
   864   853   852   ar
   865   531   529    1
   866   531   533    1
   867   856   858   ar
   868  1562  1561    2
   869   832   839   ar
   870   832   831    1
   871   809   810    1
   872   809   807    1
   873  1336  1338    1
   874  1691  1692   ar
   875  1691  1690   ar
   876  1561  1560   ar
   877  1417  1415    1
   878  1700  1718    1
   879  1700  1702    1
   880  1420  1421    1
   881   234   213    2
   882  1377  1375    1
   883  1432  1431   ar
   884  1692  1693   ar
   885   241   239    1
   886   241   243    1
   887   237   238    1
   888   237   239    1
   889   527   529    1
   890   236   238    1
   891   236   219    1
   892  1421  1435    1
   893   505   506    1
   894   505   507    1
   895  1393  1375    2
   896   524   504    2
   897  1395  1414    2
   898  1395  1413    1
   899  1429  1431   ar
   900  1429  1430    2
   901  1415  1433    2
   902  1415  1434    1
   903   510   509    1
   904   506   504    1
   905   873   875   ar
   906   873   872   ar
   907   875   876   ar
   908   805   807    1
   909   805   803    1
   910  1589  1568    2
   911  1278  1276    1
   912  1278  1280    1
   913  1690  1688   ar
   914  1559  1560   ar
   915  1559  1565   ar
   916   831   826    1
   917   831   829    1
   918  1276  1274    1
   919   529   530    1
   920  1394  1375    1
   921   239   240    1
   922  1375  1361    1
   923   504   525    1
   924  1436  1438    1
   925  1436  1437    1
   926  1560  1563   ar
   927  1568  1590    1
   928  1568  1551    1
   929   807   808    1
   930   533   534    1
   931   533   535    1
   932  1348  1346   ar
   933  1439  1438    1
   934  1439  1444    1
   935  1553  1552    1
   936   235   213    1
   937   852   859   ar
   938   852   851    1
   939  1552  1550    1
   940  1552  1554    1
   941  1693  1694    2
   942  1693  1687   ar
   943   858   859   ar
   944  1345  1346   ar
   945  1345  1344    1
   946   243   244    1
   947   243   245    1
   948   213   215    1
   949   213   197    1
   950   826   825    1
   951   542   543   ar
   952   542   540   ar
   953   509   507    1
   954   509   511    1
   955   507   508    1
   956  1702  1701    1
   957  1338  1339    1
   958  1338  1340    1
   959  1438  1440    1
   960   543   536   ar
   961   877   876    1
   962   876   878   ar
   963   254   253   ar
   964   254   255   ar
   965   870   869    1
   966   871   872    1
   967   871   869    1
   968   871   866    1
   969   872   879   ar
   970   219   218    1
   971  1339  1344    1
   972  1456  1435    2
   973  1477  1458    2
   974  1447  1446    1
   975  1435  1437    1
   976  1435  1457    1
   977  1342  1340    1
   978  1342  1344    1
   979  1342  1343    1
   980   894   893    1
   981   211   191    2
   982   890   889    1
   983  1688  1687   ar
   984  1688  1689    1
   985   253   250   ar
   986  1551  1550    1
   987   851   846    1
   988   851   849    1
   989   215   214    1
   990  1565  1554    1
   991  1565  1564   ar
   992  1701  1703    1
   993   530   535    1
   994   541   540    1
   995  1283  1282    2
   996  1346  1347    2
   997   540   539   ar
   998   829   830    1
   999   829   827    1
  1000   536   535    1
  1001   536   537   ar
  1002  1716  1717   ar
  1003  1716  1714   ar
  1004  1340  1341    1
  1005  1274  1272    1
  1006  1274  1275    1
  1007  1448  1446   ar
  1008  1448  1449   ar
  1009  1446  1445   ar
  1010  1550  1548    1
  1011   895   893   ar
  1012   895   896   ar
  1013  1554  1549    1
  1014  1563  1564   ar
  1015   891   889    1
  1016   891   886    1
  1017   891   902    1
  1018   240   245    1
  1019   869   867    1
  1020  1280  1281    1
  1021  1280  1275    1
  1022   893   892   ar
  1023   866   865    1
  1024  1444  1455    1
  1025  1444  1442    1
  1026  1715  1714    2
  1027   808   822    1
  1028   539   537   ar
  1029  1717  1710   ar
  1030  1445  1451   ar
  1031   537   538    2
  1032   879   878   ar
  1033   218   216    1
  1034   218   220    1
  1035  1361  1360    1
  1036   187   186   ar
  1037   187   188   ar
  1038   841   822    2
  1039  1449  1455   ar
  1040  1449  1450   ar
  1041   245   255    1
  1042   255   249   ar
  1043   889   887    1
  1044  1273  1272    1
  1045  1273  1271    1
  1046   214   216    1
  1047  1455  1454   ar
  1048   186   183   ar
  1049   197   196    1
  1050  1476  1458    1
  1051  1714  1713   ar
  1052  1282  1281   ar
  1053  1282  1284   ar
  1054   846   845    1
  1055  1374  1355    2
  1056   896   902   ar
  1057   896   897   ar
  1058  1451  1450   ar
  1059  1451  1452    2
  1060   849   850    1
  1061   849   847    1
  1062   508   513    1
  1063  1450  1453   ar
  1064   886   885    1
  1065   902   901   ar
  1066   193   191    1
  1067   193   192    1
  1068  1458  1441    1
  1069  1458  1460    1
  1070  1704  1703    1
  1071  1704  1709    1
  1072  1363  1362    1
  1073   825   827    1
  1074   825   823    1
  1075  1281  1288   ar
  1076   511   512    1
  1077   511   513    1
  1078   824   822    1
  1079   824   823    1
  1080  1454  1453   ar
  1081   892   898   ar
  1082  1440  1441    1
  1083  1440  1442    1
  1084   250   249   ar
  1085   250   251   ar
  1086   191   175    1
  1087   191   212    1
  1088   827   828    1
  1089  1360  1362    1
  1090  1360  1358    1
  1091  1289  1271    2
  1092   192   194    1
  1093   822   840    1
  1094  1703  1705    1
  1095  1284  1285   ar
  1096   216   217    1
  1097   913   912    1
  1098  1533  1534   ar
  1099  1533  1538   ar
  1100  1548  1549    1
  1101  1548  1546    1
  1102  1710  1709    1
  1103  1710  1711   ar
  1104  1341  1355    1
  1105   249   248   ar
  1106   865   867    1
  1107   865   863    1
  1108   220   221    1
  1109   220   222    1
  1110  1442  1443    1
  1111  1539  1538    1
  1112   897   898   ar
  1113   897   900   ar
  1114   522   521   ar
  1115   522   523   ar
  1116   901   900   ar
  1117  1271  1290    1
  1118  1271  1257    1
  1119   252   251    1
  1120   909   914    1
  1121   909   908    1
  1122   188   178    1
  1123   188   182   ar
  1124  1288  1287   ar
  1125   513   523    1
  1126   196   194    1
  1127   196   198    1
  1128  1362  1364    1
  1129   898   899    2
  1130  1713  1711   ar
  1131   178   173    1
  1132   178   176    1
  1133   867   868    1
  1134  1357  1355    1
  1135  1357  1356    1
  1136   885   887    1
  1137   885   883    1
  1138   175   174    1
  1139   914   912    1
  1140   914   925    1
  1141   521   518   ar
  1142   251   246   ar
  1143   523   517   ar
  1144  1355  1373    1
  1145   177   176    1
  1146  1709  1707    1
  1147   887   888    1
  1148   194   195    1
  1149  1285  1287   ar
  1150  1285  1286    1
  1151  1534  1535   ar
  1152   908   906    1
  1153   908   910    1
  1154   232   231   ar
  1155   232   233   ar
  1156   183   182   ar
  1157   183   184   ar
  1158  1538  1537   ar
  1159   847   845    1
  1160   847   848    1
  1161   173   172    1
  1162   845   843    1
  1163  1460  1459    1
  1164  1711  1712    2
  1165   888   905    1
  1166  1705  1707    1
  1167  1705  1706    1
  1168  1358  1356    1
  1169  1358  1359    1
  1170   231   228   ar
  1171   828   842    1
  1172   861   842    2
  1173   912   910    1
  1174   217   222    1
  1175   185   184    1
  1176   517   518   ar
  1177   517   516   ar
  1178  1547  1546    1
  1179  1547  1545    1
  1180   518   519   ar
  1181   868   882    1
  1182   906   907    1
  1183   176   174    1
  1184   248   247   ar
  1185   863   864    1
  1186   182   181   ar
  1187   222   233    1
  1188   925   919   ar
  1189   925   924   ar
  1190   844   843    1
  1191   844   842    1
  1192   233   227   ar
  1193   174   172    1
  1194   172   170    1
  1195   884   883    1
  1196   884   882    1
  1197   911   910    1
  1198   911   928    1
  1199   184   179   ar
  1200   516   515   ar
  1201  1364  1359    1
  1202  1364  1365    1
  1203   864   862    1
  1204  1517  1516    2
  1205  1499  1478    2
  1206   929   931    1
  1207   929   930    1
  1208   918   919   ar
  1209   918   916   ar
  1210  1257  1256    1
  1211   198   199    1
  1212   198   200    1
  1213   246   247   ar
  1214  1707  1708    1
  1215  1494  1493    1
  1216   842   860    1
  1217   519   520    1
  1218   519   514   ar
  1219  1474  1475   ar
  1220  1474  1472   ar
  1221  1706  1720    1
  1222  1535  1536   ar
  1223  1473  1472    1
  1224   848   862    1
  1225   932   931    1
  1226   932   937    1
  1227   931   933    1
  1228   919   920   ar
  1229   924   923   ar
  1230  1537  1536   ar
  1231  1537  1540   ar
  1232  1735  1734    2
  1233   195   200    1
  1234   228   227   ar
  1235   228   229   ar
  1236  1739  1720    2
  1237  1459  1461    1
  1238  1567  1545    2
  1239   515   514   ar
  1240   917   916    1
  1241  1367  1366    2
  1242   881   862    2
  1243   907   905    1
  1244  1475  1468   ar
  1245   882   903    2
  1246   882   904    1
  1247   227   226   ar
  1248   916   915   ar
  1249   905   926    2
  1250   905   927    1
  1251  1536  1542   ar
  1252  1545  1566    1
  1253  1545  1529    1
  1254  1472  1471   ar
  1255  1736  1734   ar
  1256  1736  1737   ar
  1257   862   880    1
  1258   230   229    2
  1259   181   180   ar
  1260  1734  1733   ar
  1261   200   210    1
  1262  1516  1510   ar
  1263  1516  1515   ar
  1264  1720  1738    1
  1265  1720  1722    1
  1266  1256  1258    1
  1267  1256  1254    1
  1268   920   923   ar
  1269   920   921   ar
  1270  1495  1492   ar
  1271  1495  1496   ar
  1272   229   223   ar
  1273  1365  1366   ar
  1274  1365  1372   ar
  1275   946   928    2
  1276   930   928    1
  1277   936   935    1
  1278  1540  1541   ar
  1279   937   935    1
  1280   937   938    1
  1281   928   947    1
  1282  1493  1492   ar
  1283  1493  1488   ar
  1284   179   180   ar
  1285   209   210   ar
  1286   209   208   ar
  1287   170   171    1
  1288  1258  1259    1
  1289  1258  1260    1
  1290  1366  1368   ar
  1291  1478  1498    1
  1292  1478  1464    1
  1293  1478  1480    1
  1294   171   169    1
  1295  1510  1511   ar
  1296   915   921   ar
  1297   210   204   ar
  1298   933   934    1
  1299   933   935    1
  1300  1461  1463    1
  1301  1461  1462    1
  1302   934   948    1
  1303  1463  1464    1
  1304  1463  1465    1
  1305  1462  1467    1
  1306   226   224   ar
  1307  1492  1491   ar
  1308  1522  1500    2
  1309  1737  1730   ar
  1310   921   922    2
  1311   208   205   ar
  1312  1530  1528    1
  1313  1530  1531    1
  1314  1530  1532    1
  1315  1518  1515   ar
  1316  1518  1519   ar
  1317  1542  1541   ar
  1318  1542  1532    1
  1319  1468  1469   ar
  1320  1468  1467    1
  1321  1757  1756    2
  1322  1529  1528    1
  1323  1515  1514   ar
  1324  1471  1469   ar
  1325  1372  1371   ar
  1326  1496  1497   ar
  1327  1263  1262    2
  1328  1528  1526    1
  1329   223   224   ar
  1330  1733  1731   ar
  1331   945   938   ar
  1332   945   944   ar
  1333  1488  1489   ar
  1334  1795  1796   ar
  1335  1795  1800   ar
  1336   938   939   ar
  1337  1837  1836    1
  1338  1480  1479    1
  1339  1722  1721    1
  1340   224   225    1
  1341  1779  1778    1
  1342  1254  1252    1
  1343  1254  1255    1
  1344  1796  1797   ar
  1345   204   205   ar
  1346   204   203   ar
  1347  1544  1523    2
  1348  1368  1369   ar
  1349  1262  1264   ar
  1350  1262  1261   ar
  1351  1469  1470    2
  1352  1467  1465    1
  1353   205   206   ar
  1354  1264  1265   ar
  1355  1532  1527    1
  1356  1511  1512    1
  1357  1511  1513   ar
  1358  1252  1253    1
  1359  1260  1261    1
  1360  1260  1255    1
  1361   190   169    2
  1362  1465  1466    1
  1363  1253  1251    1
  1364   968   948    2
  1365  1818  1819   ar
  1366  1818  1817   ar
  1367  1261  1268   ar
  1368  1730  1731   ar
  1369  1730  1729    1
  1370  1773  1778   ar
  1371  1773  1774   ar
  1372   169   155    1
  1373   169   189    1
  1374   944   942   ar
  1375  1519  1520   ar
  1376  1491  1497   ar
  1377  1491  1490   ar
  1378   203   202   ar
  1379   157   156    1
  1380  1801  1800    1
  1381  1371  1369   ar
  1382  1756  1750   ar
  1383  1756  1755   ar
  1384  1731  1732    2
  1385   948   969    1
  1386   948   950    1
  1387  1265  1266    1
  1388  1265  1267   ar
  1389  1819  1820   ar
  1390  1514  1513   ar
  1391  1514  1520   ar
  1392  1525  1523    1
  1393  1525  1524    1
  1394  1269  1251    2
  1395   939   940    2
  1396   939   941   ar
  1397  1497  1487    1
  1398  1500  1521    1
  1399  1500  1502    1
  1400  1500  1484    1
  1401  1815  1814    1
  1402  1800  1799   ar
  1403  1724  1729    1
  1404  1724  1723    1
  1405  1778  1777   ar
  1406  1721  1723    1
  1407  1489  1490   ar
  1408  1268  1267   ar
  1409  1369  1370    2
  1410   206   207    1
  1411   206   201   ar
  1412  1797  1798   ar
  1413  1841  1840    1
  1414  1523  1543    1
  1415  1523  1506    1
  1416   155   154    1
  1417  1836  1838    1
  1418  1836  1834    1
  1419  1526  1527    1
  1420  1526  1524    1
  1421  1483  1484    1
  1422  1483  1481    1
  1423  1483  1485    1
  1424  1817  1822   ar
  1425  1479  1481    1
  1426  1838  1833    1
  1427  1838  1849    1
  1428  1750  1751   ar
  1429  1502  1501    1
  1430  1270  1251    1
  1431  1251  1234    1
  1432  1520  1509    1
  1433  1758  1755   ar
  1434  1758  1759   ar
  1435   202   201   ar
  1436  1774  1775   ar
  1437  1853  1855    1
  1438  1853  1854    1
  1439  1729  1727    1
  1440  1832  1833    1
  1441  1832  1834    1
  1442  1832  1830    1
  1443   942   941   ar
  1444   942   943    1
  1445  1842  1840   ar
  1446  1842  1843   ar
  1447   950   949    1
  1448  1755  1754   ar
  1449  1855  1856    1
  1450  1855  1857    1
  1451   949   951    1
  1452   156   154    1
  1453   156   158    1
  1454  1723  1725    1
  1455  1856  1861    1
  1456  1481  1482    1
  1457  1835  1834    1
  1458  1835  1852    1
  1459  1820  1826   ar
  1460  1820  1821   ar
  1461  1482  1487    1
  1462  1485  1487    1
  1463  1485  1486    1
  1464  1840  1839   ar
  1465  1814  1816    1
  1466  1814  1812    1
  1467  1816  1826    1
  1468  1816  1811    1
  1469  1799  1798   ar
  1470  1799  1802   ar
  1471  1505  1506    1
  1472  1505  1507    1
  1473  1505  1503    1
  1474  1798  1804   ar
  1475  1777  1780   ar
  1476  1777  1776   ar
  1477   154   152    1
  1478  1830  1831    1
  1479  1849  1843   ar
  1480  1849  1848   ar
  1481  1860  1859    1
  1482  1822  1821   ar
  1483  1822  1823    1
  1484  1843  1844   ar
  1485  1725  1727    1
  1486  1725  1726    1
  1487  1751  1752    1
  1488  1751  1753   ar
  1489   952   951    1
  1490   952   957    1
  1491  1501  1503    1
  1492  1759  1760   ar
  1493  1826  1825   ar
  1494  1861  1859    1
  1495  1861  1871    1
  1496  1507  1509    1
  1497  1507  1508    1
  1498   161   160    2
  1499  1509  1504    1
  1500   951   953    1
  1501  1775  1776   ar
  1502  1858  1857    1
  1503  1858  1874    1
  1504  1854  1852    1
  1505  1762  1740    2
  1506  1727  1728    1
  1507  1821  1824   ar
  1508  1754  1753   ar
  1509  1754  1760   ar
  1510  1780  1781   ar
  1511  1234  1233    1
  1512  1240  1239    1
  1513  1857  1859    1
  1514   158   153    1
  1515   158   159    1
  1516  1811  1810    1
  1517  1504  1503    1
  1518  1776  1782   ar
  1519  1238  1239   ar
  1520  1238  1244   ar
  1521   152   153    1
  1522   152   150    1
  1523   966   965   ar
  1524   966   967   ar
  1525  1839  1845   ar
  1526  1852  1872    2
  1527  1852  1873    1
  1528  1245  1244    2
  1529  1239  1241   ar
  1530   965   962   ar
  1531  1802  1803   ar
  1532  1813  1812    1
  1533  1813  1829    1
  1534  1812  1810    1
  1535  1804  1794    1
  1536  1804  1803   ar
  1537  1244  1243   ar
  1538  1848  1847   ar
  1539  1760  1749    1
  1540  1810  1808    1
  1541  1233  1235    1
  1542  1233  1231    1
  1543   160   159   ar
  1544   160   162   ar
  1545  1793  1792    1
  1546  1726  1740    1
  1547  1831  1829    1
  1548  1844  1845   ar
  1549  1844  1847   ar
  1550  1871  1870   ar
  1551  1871  1865   ar
  1552  1892  1874    2
  1553  1825  1824   ar
  1554  1241  1242   ar
  1555   159   166   ar
  1556   957   967    1
  1557   957   955    1
  1558   967   961   ar
  1559  1794  1792    1
  1560  1794  1789    1
  1561  1740  1742    1
  1562  1740  1761    1
  1563  1235  1236    1
  1564  1235  1237    1
  1565  1243  1242   ar
  1566  1243  1246   ar
  1567  1845  1846    2
  1568  1781  1782   ar
  1569  1792  1790    1
  1570  1874  1876    1
  1571  1874  1893    1
  1572  1870  1869   ar
  1573  1242  1248   ar
  1574   953   954    1
  1575   953   955    1
  1576   150   151    1
  1577   962   961   ar
  1578   962   963   ar
  1579  1782  1772    1
  1580   162   163   ar
  1581  1829  1850    2
  1582  1829  1851    1
  1583  1246  1247   ar
  1584  1864  1865   ar
  1585  1864  1863   ar
  1586   964   963    1
  1587   961   960   ar
  1588  1876  1875    1
  1589   954   970    1
  1590  1865  1866   ar
  1591  1875  1877    1
  1592  1742  1741    1
  1593  1230  1229    1
  1594  1230  1228    1
  1595  1248  1247   ar
  1596  1248  1237    1
  1597  1249  1228    2
  1598  1229  1231    1
  1599   963   958   ar
  1600   166   165   ar
  1601  1250  1228    1
  1602  1749  1744    1
  1603  1749  1747    1
  1604  1231  1232    1
  1605  1808  1809    1
  1606   955   956    1
  1607   151   149    1
  1608  1744  1743    1
  1609  1878  1877    1
  1610  1878  1883    1
  1611  1237  1232    1
  1612  1869  1866   ar
  1613  1228  1214    1
  1614   163   165   ar
  1615   163   164    1
  1616  1877  1879    1
  1617  1789  1788    1
  1618   960   959   ar
  1619  1863  1862   ar
  1620  1866  1867   ar
  1621  1772  1770    1
  1622  1772  1767    1
  1623   958   959   ar
  1624  1790  1791    1
  1625  1790  1788    1
  1626  1809  1807    1
  1627   167   149    2
  1628  1747  1745    1
  1629  1747  1748    1
  1630   970   990    2
  1631   970   991    1
  1632   970   972    1
  1633  1741  1743    1
  1634  1770  1771    1
  1635  1770  1768    1
  1636  1791  1807    1
  1637  1745  1743    1
  1638  1745  1746    1
  1639   149   168    1
  1640   149   135    1
  1641  1788  1786    1
  1642  1883  1884    1
  1643  1883  1881    1
  1644  1862  1867   ar
  1645  1867  1868    1
  1646  1891  1884   ar
  1647  1891  1890   ar
  1648  1784  1763    2
  1649  1767  1766    1
  1650   986   985    1
  1651  1214  1213    1
  1652  1223  1222    2
  1653  1879  1880    1
  1654  1879  1881    1
  1655   987   988   ar
  1656   987   984   ar
  1657  1807  1828    2
  1658  1807  1827    1
  1659  1884  1885   ar
  1660   141   140    2
  1661  1768  1766    1
  1662  1768  1769    1
  1663  1890  1888   ar
  1664   135   134    1
  1665  1880  1894    1
  1666  1882  1881    1
  1667   972   971    1
  1668  1746  1763    1
  1669    22     1    1
  1670   988   989   ar
  1671   985   984   ar
  1672   985   980   ar
  1673  1222  1224   ar
  1674  1222  1221   ar
  1675  1213  1211    1
  1676  1213  1215    1
  1677  1183  1162    2
  1678   136   137    1
  1679   136   134    1
  1680   136   138    1
  1681   984   983   ar
  1682     1    23    1
  1683     1     3    1
  1684  1787  1786    1
  1685  1787  1785    1
  1686  1763  1765    1
  1687  1763  1783    1
  1688  1224  1225   ar
  1689  1766  1764    1
  1690   142   140   ar
  1691   142   143   ar
  1692  1806  1785    2
  1693   140   139   ar
  1694  1765  1764    1
  1695  1227  1208    2
  1696     2     3    1
  1697     2     4    1
  1698  1209  1211    1
  1699  1209  1210    1
  1700   971   973    1
  1701   134   132    1
  1702  1221  1219   ar
  1703  1769  1785    1
  1704  1885  1886    2
  1705  1885  1887   ar
  1706  1206  1185    2
  1707  1888  1887   ar
  1708  1888  1889    2
  1709   980   981   ar
  1710  1225  1218   ar
  1711  1785  1805    1
  1712   974   973    1
  1713   974   979    1
  1714   144   143    2
  1715  1211  1212    1
  1716  1894  1915    2
  1717  1894  1916    1
  1718  1894  1896    1
  1719   989   983   ar
  1720   989   979    1
  1721  1160  1142    2
  1722   143   145   ar
  1723   983   982   ar
  1724  1215  1216    1
  1725  1215  1217    1
  1726    45    24    2
  1727   139   138    1
  1728   139   146   ar
  1729  1219  1218   ar
  1730  1219  1220    2
  1731  1226  1208    1
  1732   138   133    1
  1733    46    24    1
  1734  1218  1217    1
  1735   973   975    1
  1736  1162  1184    1
  1737  1162  1164    1
  1738  1162  1148    1
  1739  1208  1210    1
  1740  1208  1191    1
  1741     4     6    1
  1742     4     5    1
  1743     7    24    1
  1744     7     6    1
  1745   981   982   ar
  1746    24    26    1
  1747   979   977    1
  1748  1164  1163    1
  1749  1212  1217    1
  1750   132   133    1
  1751   132   130    1
  1752   145   146   ar
  1753  1185  1207    1
  1754  1185  1187    1
  1755  1185  1168    1
  1756  1896  1895    1
  1757     6     8    1
  1758  1007  1006    1
  1759  1142  1161    1
  1760  1142  1144    1
  1761  1142  1126    1
  1762  1148  1147    1
  1763  1895  1897    1
  1764     5    10    1
  1765   977   975    1
  1766   977   978    1
  1767  1202  1201    2
  1768  1008  1006   ar
  1769  1008  1009   ar
  1770  1143  1144    1
  1771  1143  1145    1
  1772   975   976    1
  1773  1187  1186    1
  1774   123   122    1
  1775   130   131    1
  1776  1006  1005   ar
  1777  1191  1190    1
  1778  1168  1167    1
  1779  1163  1165    1
  1780   117   122   ar
  1781   117   118   ar
  1782  1203  1204   ar
  1783  1203  1200   ar
  1784   131   129    1
  1785  1898  1897    1
  1786  1898  1903    1
  1787    26    25    1
  1788  1147  1145    1
  1789  1147  1149    1
  1790  1009  1002   ar
  1791   122   121   ar
  1792     9     8    1
  1793  1201  1200   ar
  1794  1201  1195   ar
  1795  1190  1192    1
  1796  1190  1188    1
  1797  1913  1912   ar
  1798  1913  1914   ar
  1799  1126  1125    1
  1800  1897  1899    1
  1801  1010   992    2
  1802  1167  1165    1
  1803  1167  1169    1
  1804  1204  1205   ar
  1805     8    10    1
  1806  1912  1909   ar
  1807  1200  1199   ar
  1808   118   119   ar
  1809  1005  1003   ar
  1810   976   992    1
  1811  1145  1146    1
  1812    25    27    1
  1813    10    21    1
  1814  1165  1166    1
  1815  1002  1003   ar
  1816  1002  1001    1
  1817  1180  1181   ar
  1818  1180  1177   ar
  1819  1195  1196   ar
  1820  1192  1193    1
  1821  1192  1194    1
  1822    20    21   ar
  1823    20    19   ar
  1824  1003  1004    2
  1825   121   120   ar
  1826   121   124   ar
  1827  1181  1182   ar
  1828  1186  1188    1
  1829   148   129    2
  1830  1914  1903    1
  1831  1914  1908   ar
  1832  1903  1901    1
  1833   996  1001    1
  1834   996   995    1
  1835   129   147    1
  1836   129   113    1
  1837  1205  1199   ar
  1838  1205  1194    1
  1839  1199  1198   ar
  1840   119   120   ar
  1841   992   994    1
  1842   992  1011    1
  1843  1158  1159   ar
  1844  1158  1156   ar
  1845  1159  1152   ar
  1846  1188  1189    1
  1847  1149  1150    1
  1848  1149  1151    1
  1849  1909  1908   ar
  1850  1909  1910   ar
  1851    21    15   ar
  1852  1166  1171    1
  1853   120   126   ar
  1854  1001   999    1
  1855   124   125   ar
  1856  1125  1123    1
  1857  1125  1127    1
  1858  1179  1178    2
  1859  1169  1171    1
  1860  1169  1170    1
  1861  1899  1901    1
  1862  1899  1900    1
  1863  1146  1151    1
  1864  1196  1198   ar
  1865  1196  1197    1
  1866    66    47    2
  1867   993   994    1
  1868   993   995    1
  1869  1177  1178   ar
  1870  1177  1176   ar
  1871  1908  1907   ar
  1872  1911  1910    2
  1873  1194  1189    1
  1874  1182  1171    1
  1875  1182  1176   ar
  1876  1027  1026    1
  1877    19    16   ar
  1878    27    28    1
  1879    27    29    1
  1880  1910  1904   ar
  1881  1178  1172   ar
  1882   114   115    1
  1883   114   112    1
  1884   114   116    1
  1885  1152  1151    1
  1886  1152  1153   ar
  1887  1156  1157    2
  1888  1156  1155   ar
  1889  1140  1120    2
  1890  1128  1127    1
  1891   995   997    1
  1892  1901  1902    1
  1893  1900  1917    1
  1894  1121  1123    1
  1895  1121  1122    1
  1896   113   112    1
  1897   125   126   ar
  1898   126   116    1
  1899  1176  1175   ar
  1900  1123  1124    1
  1901  1938  1917    2
  1902    28    33    1
  1903   102   101    2
  1904  1127  1129    1
  1905    43    42   ar
  1906    43    44   ar
  1907   112   110    1
  1908    47    65    1
  1909    47    30    1
  1910    47    49    1
  1911  1026  1025   ar
  1912  1026  1028   ar
  1913    42    39   ar
  1914    30    29    1
  1915    29    31    1
  1916    15    16   ar
  1917    15    14   ar
  1918  1907  1905   ar
  1919  1155  1153   ar
  1920  1153  1154    2
  1921  1025  1023   ar
  1922  1172  1173   ar
  1923   116   111    1
  1924  1917  1937    1
  1925  1917  1919    1
  1926  1904  1905   ar
  1927   999   997    1
  1928   999  1000    1
  1929    16    17   ar
  1930  1175  1173   ar
  1931  1028  1029   ar
  1932   997   998    1
  1933  1120  1122    1
  1934  1120  1141    1
  1935  1120  1104    1
  1936  1905  1906    1
  1937   101   100   ar
  1938   101   103   ar
  1939  1173  1174    1
  1940    14    12   ar
  1941    82    81    2
  1942   100    98   ar
  1943    44    33    1
  1944    44    38   ar
  1945  1023  1024    2
  1946  1023  1022   ar
  1947    33    31    1
  1948  1124  1129    1
  1949  1933  1932    1
  1950  1934  1935   ar
  1951  1934  1931   ar
  1952  1129  1139    1
  1953  1029  1022   ar
  1954    39    38   ar
  1955    39    40   ar
  1956   110   111    1
  1957   110   108    1
  1958  1048  1047    1
  1959    31    32    1
  1960   128   107    2
  1961    49    48    1
  1962  1022  1021    1
  1963  1935  1936   ar
  1964   103   104   ar
  1965   109   108    1
  1966   109   107    1
  1967    62    61    1
  1968  1042  1047   ar
  1969  1042  1043   ar
  1970    63    61   ar
  1971    63    64   ar
  1972  1919  1918    1
  1973    17    18    2
  1974    17    11   ar
  1975  1139  1138   ar
  1976  1139  1133   ar
  1977    41    40    2
  1978    86    67    2
  1979   998  1012    1
  1980  1931  1932   ar
  1981  1931  1930   ar
  1982  1932  1927   ar
  1983  1138  1137   ar
  1984    98    99    2
  1985    98    97   ar
  1986  1104  1103    1
  1987    38    37   ar
  1988    81    83   ar
  1989    81    80   ar
  1990  1047  1046   ar
  1991    12    11   ar
  1992    12    13    1
  1993    40    34   ar
  1994    83    84   ar
  1995  1064  1065   ar
  1996  1064  1069   ar
  1997  1043  1044   ar
  1998  1133  1132   ar
  1999  1133  1134   ar
  2000  1021  1016    1
  2001  1021  1019    1
  2002  1918  1920    1
  2003  1070  1069    1
  2004    61    60   ar
  2005  1132  1131   ar
  2006   107   127    1
  2007   107    93    1
  2008  1921  1920    1
  2009  1921  1926    1
  2010  1016  1015    1
  2011    64    57   ar
  2012  1137  1134   ar
  2013  1936  1930   ar
  2014  1936  1926    1
  2015    48    50    1
  2016   104    97   ar
  2017  1927  1928   ar
  2018    97    96    1
  2019  1031  1012    2
  2020  1930  1929   ar
  2021  1134  1135   ar
  2022  1065  1066   ar
  2023  1069  1068   ar
  2024  1046  1049   ar
  2025  1046  1045   ar
  2026  1014  1012    1
  2027  1014  1013    1
  2028  1131  1130   ar
  2029    80    78   ar
  2030  1012  1030    1
  2031  1956  1955    2
  2032  2013  2012   ar
  2033  2013  2014   ar
  2034  1103  1105    1
  2035  1103  1101    1
  2036  1044  1045   ar
  2037  1920  1922    1
  2038  1926  1924    1
  2039    37    35   ar
  2040    67    85    1
  2041    67    53    1
  2042    67    69    1
  2043    94    92    1
  2044    94    96    1
  2045    94    95    1
  2046  1049  1050   ar
  2047  1045  1051   ar
  2048  1135  1130   ar
  2049  1135  1136    1
  2050    84    77   ar
  2051  2012  2017   ar
  2052  1106  1105    1
  2053    34    35   ar
  2054  1928  1929   ar
  2055   106    87    2
  2056    92    93    1
  2057    92    90    1
  2058    60    58   ar
  2059    52    50    1
  2060    52    53    1
  2061    52    54    1
  2062  1019  1020    1
  2063  1019  1017    1
  2064  1105  1107    1
  2065    50    51    1
  2066  1015  1013    1
  2067  1015  1017    1
  2068    57    58   ar
  2069    57    56    1
  2070    96    91    1
  2071  1066  1067   ar
  2072  2014  2015   ar
  2073  1977  1976    1
  2074    51    56    1
  2075    35    36    1
  2076  1068  1067   ar
  2077  1068  1071   ar
  2078    69    68    1
  2079  1955  1954   ar
  2080  1955  1949   ar
  2081  1050  1051   ar
  2082  1099  1101    1
  2083  1099  1100    1
  2084  1922  1924    1
  2085  1922  1923    1
  2086  1051  1041    1
  2087    78    77   ar
  2088    78    79    2
  2089    89    87    1
  2090    89    88    1
  2091  1101  1102    1
  2092  1067  1073   ar
  2093  1957  1954   ar
  2094  1957  1958   ar
  2095    77    76    1
  2096    58    59    2
  2097  1017  1018    1
  2098  1961  1939    2
  2099  1924  1925    1
  2100    56    54    1
  2101    87   105    1
  2102    87    73    1
  2103  2017  2018    1
  2104  2017  2016   ar
  2105  1071  1072   ar
  2106  1954  1953   ar
  2107    54    55    1
  2108    91    90    1
  2109  1949  1950   ar
  2110    90    88    1
  2111  1110  1109   ar
  2112  1110  1111   ar
  2113  1109  1108   ar
  2114  1041  1036    1
  2115  1041  1039    1
  2116  1976  1975   ar
  2117  1976  1978   ar
  2118  1997  1996    1
  2119  2015  2016   ar
  2120  2015  2021   ar
  2121  1107  1102    1
  2122  1107  1117    1
  2123  1995  1996   ar
  2124  1995  1993   ar
  2125  1975  1973   ar
  2126  1118  1098    2
  2127    72    73    1
  2128    72    74    1
  2129    72    70    1
  2130  1958  1959   ar
  2131    68    70    1
  2132  1073  1072   ar
  2133  1073  1063    1
  2134  1036  1035    1
  2135  1994  1993    2
  2136  1923  1939    1
  2137  1100  1098    1
  2138  1111  1117   ar
  2139  1111  1112   ar
  2140  1108  1113   ar
  2141  1117  1116   ar
  2142  2016  2019   ar
  2143  1939  1960    1
  2144  1939  1941    1
  2145    76    71    1
  2146    76    74    1
  2147    71    70    1
  2148  1996  1998   ar
  2149    74    75    1
  2150  1018  1032    1
  2151  1993  1992   ar
  2152  1098  1119    1
  2153  1098  1082    1
  2154  1112  1113   ar
  2155  1112  1115   ar
  2156  1113  1114    1
  2157  1953  1959   ar
  2158  1953  1952   ar
  2159  1950  1951    1
  2160  1950  1952   ar
  2161  1978  1979   ar
  2162  2010  2009    1
  2163  1116  1115   ar
  2164  2011  2021    1
  2165  2011  2009    1
  2166  2011  2006    1
  2167  1063  1058    1
  2168  1063  1061    1
  2169  2021  2020   ar
  2170  1053  1032    2
  2171  1039  1040    1
  2172  1039  1037    1
  2173  1959  1948    1
  2174  1973  1974    2
  2175  1973  1972   ar
  2176  2009  2007    1
  2177  1941  1940    1
  2178  1034  1032    1
  2179  1034  1033    1
  2180  1032  1052    1
  2181  1058  1057    1
  2182  1035  1033    1
  2183  1035  1037    1
  2184  2019  2020   ar
  2185  2006  2005    1
  2186  1998  1999   ar
  2187  1992  1999   ar
  2188  1992  1991    1
  2189  1979  1972   ar
  2190  1037  1038    1
  2191  1061  1062    1
  2192  1061  1059    1
  2193  1943  1948    1
  2194  1943  1942    1
  2195  1082  1081    1
  2196  1972  1971    1
  2197  1948  1946    1
  2198  1940  1942    1
  2199  1991  1989    1
  2200  1991  1986    1
  2201  2007  2005    1
  2202  2007  2008    1
  2203  1083  1081    1
  2204  1083  1084    1
  2205  1083  1085    1
  2206  1087  1086   ar
  2207  1087  1088   ar
  2208  1057  1059    1
  2209  1057  1055    1
  2210  1081  1079    1
  2211  2005  2003    1
  2212  1942  1944    1
  2213  1086  1091   ar
  2214  1088  1089   ar
  2215  1059  1060    1
  2216  1989  1990    1
  2217  1989  1987    1
  2218  1038  1054    1
  2219  1971  1966    1
  2220  1971  1969    1
  2221  1944  1946    1
  2222  1944  1945    1
  2223  1946  1947    1
  2224  1055  1056    1
  2225  1986  1985    1
  2226  1091  1092    1
  2227  1091  1090   ar
  2228  1056  1054    1
  2229  1075  1054    2
  2230  1089  1090   ar
  2231  1089  1095   ar
  2232  1981  1962    2
  2233  1090  1093   ar
  2234  1966  1965    1
  2235  1085  1095    1
  2236  1085  1080    1
  2237  1095  1094   ar
  2238  1054  1074    1
  2239  1969  1967    1
  2240  1969  1970    1
  2241  2003  2004    1
  2242  2004  2002    1
  2243  1060  1076    1
  2244  1079  1077    1
  2245  1079  1080    1
  2246  1964  1962    1
  2247  1964  1963    1
  2248  1987  1985    1
  2249  1987  1988    1
  2250  1945  1962    1
  2251  1093  1094   ar
  2252  1962  1980    1
  2253  1967  1965    1
  2254  1967  1968    1
  2255  1985  1983    1
  2256  1077  1078    1
  2257  1078  1076    1
  2258  1963  1965    1
  2259  1097  1076    2
  2260  1984  1983    1
  2261  1984  1982    1
  2262  1076  1096    1
  2263  2023  2002    2
  2264  1988  2002    1
  2265  2002  2022    1
  2266  2001  1982    2
  2267  1968  1982    1
  2268  1982  2000    1
